data_PCOD8263893
_publ_section_title
;
Structure prediction by ZEFSAII (Michael W. Deem and Ramdas Pophale) SiO2 
 PCOD8263893
Probable space group: C M C A
;
_chemical_formula_sum "Si O2"
_cell_formula_units_Z 96
_cell_length_a 13.359314
_cell_length_b 16.528081
_cell_length_c 22.748660
_cell_angle_alpha 90.000000
_cell_angle_beta 90.000000
_cell_angle_gamma 90.000000
_cell_volume 5022.991117
_symmetry_space_group_name_H-M "C M C A"
_symmetry_group_IT_number 64
_symmetry_cell_setting 'orthorhombic'
loop_
_space_group_symop_operation_xyz
x,y,z
-x,1/2-y,1/2+z
x,-y,-z
-x,1/2+y,1/2-z
-x,-y,-z
x,1/2+y,1/2-z
-x,y,z
x,1/2-y,1/2+z
1/2+x,1/2+y,z
1/2-x,-y,1/2+z
1/2+x,1/2-y,-z
1/2-x,y,1/2-z
1/2-x,1/2-y,-z
1/2+x,y,1/2-z
1/2-x,1/2+y,z
1/2+x,-y,1/2+z
loop_
_atom_site_type_symbol
_atom_site_label
_atom_site_fract_x
_atom_site_fract_y
_atom_site_fract_z
Si Si1 0.389019 0.470454 0.331810
Si Si2 0.384069 0.242376 0.650443
Si Si3 0.611064 0.891312 0.923341
Si Si4 0.250000 0.187828 0.250000
Si Si5 0.251497 0.000000 0.000000
Si Si6 0.615437 0.951398 0.710691
Si Si7 0.809221 0.071824 0.883327
O O1 0.500000 0.429847 0.335411
O O2 0.389125 0.556327 0.364103
O O3 0.357611 0.489444 0.265074
O O4 0.306233 0.413088 0.362350
O O5 0.500000 0.256662 0.668168
O O6 0.352866 0.302682 0.597489
O O7 0.314895 0.254831 0.707510
O O8 0.371989 0.152440 0.625676
O O9 0.500000 0.887347 0.950963
O O10 0.681775 0.928598 0.972572
O O11 0.322752 0.131527 0.288593
O O12 0.184478 0.044379 0.951178
O O13 0.500000 0.927167 0.712626
O O14 0.641620 0.998266 0.651694
#
# Coordination Sequence:
#
# PCOD8263893 Si02
#       7
#    16  16  16   8   8  16  16
#     4   9  17  33  59  87 115 150 195 240 282 340
#     4  11  24  39  57  88 123 154 187 242 308 354
#     4   9  17  35  60  88 115 145 192 245 294 343
#     4  12  20  36  62  86 120 150 190 236 292 358
#     4  10  21  38  63  82 106 158 210 246 282 344
#     4  11  20  36  60  87 116 154 197 235 283 351
#     4  11  22  38  57  86 120 155 198 241 292 345
#
# _framework density 19.112117999999999
#
# number of rings (size 3 to 8) (size 9 to 14) (size 15 to 20)
#    0.000    1.667    3.333    2.250    2.333    1.333 
#    0.000    2.500    0.000    2.000    0.000    0.000 
#    0.000    0.000    0.000    0.000    0.000    0.000 
#
# Total GULP energy -595233.639369 kJ/mol
# GULP energy per Si atom -12400.700820 kJ/mol
# Density = 1.906862 g / cm^3
# Si number density = 19.112118 Si / 1000 Ang^3
#
#
#
# Elastic Constant Matrix: (Units=GPa)
#
#
# Indices 1 2 3 4 5 6 
#
# 1 78.2291 30.6940 36.4212 0.0000 0.0000 0.0000
# 2 30.6940 88.8520 44.5960 0.0000 0.0000 0.0000
# 3 36.4212 44.5960 124.6947 0.0000 0.0000 0.0000
# 4 0.0000 0.0000 0.0000 24.6459 0.0000 0.0000
# 5 0.0000 0.0000 0.0000 0.0000 26.8074 0.0000
# 6 0.0000 0.0000 0.0000 0.0000 0.0000 30.0679
#
#
#
# Elastic Compliance Matrix: (Units=1/GPa)
#
#
# Indices 1 2 3 4 5 6 
#
# 1 0.015796 -0.003828 -0.003245 0.000000 0.000000 0.000000
# 2 -0.003828 0.014645 -0.004119 0.000000 0.000000 0.000000
# 3 -0.003245 -0.004119 0.010441 0.000000 0.000000 0.000000
# 4 0.000000 0.000000 0.000000 0.040575 0.000000 0.000000
# 5 0.000000 0.000000 0.000000 0.000000 0.037303 0.000000
# 6 0.000000 0.000000 0.000000 0.000000 0.000000 0.033258
#
#
# Mechanical properties :
#
#
# Convention : Reuss Voigt Hill
#
# Bulk Modulus (GPa) = 54.06385 57.24424 55.65404
# Shear Modulus (GPa) = 27.69067 28.30856 27.99962
#
# Velocity S-wave (km/s) = 3.81051 3.85279 3.83171
# Velocity P-wave (km/s) = 6.90718 7.05754 6.98276
#
# Compressibility (1/GPa) = 0.01849665
#
# Stress axis : x y z
#
# Youngs Moduli (GPa) = 63.30909 68.28413 95.78066
#
# Poissons Ratio (x) = 0.26140 0.31076
# Poissons Ratio (y) = 0.24235 0.39456
# Poissons Ratio (z) = 0.20541 0.28129
#
# Static dielectric constant tensor:
#      x y z
#    x 3.777560 0.000000 0.000000 
#    y 0.000000 3.286660 0.000000 
#    z 0.000000 0.000000 3.410340 
# 
# 
# High freq. dielectric constant tensor:
#      x y z
#    x 1.752600 0.000000 0.000000 
#    y 0.000000 1.721000 0.000000 
#    z 0.000000 0.000000 1.732960 
# 
# From -- ./inp_files/39270.got.cif
#   From: 2010.03.12/outbox.cif.g09.slc.cpg/sg64_20_cif.got.tgz:39270.got - 2010.04.10 20:19:32.
