data_PCOD8263235
_publ_section_title
;
Structure prediction by ZEFSAII (Michael W. Deem and Ramdas Pophale) SiO2 
 PCOD8263235
Probable space group: C M C A
;
_chemical_formula_sum "Si O2"
_cell_formula_units_Z 104
_cell_length_a 26.561672
_cell_length_b 22.089341
_cell_length_c 8.528669
_cell_angle_alpha 90.000000
_cell_angle_beta 90.000000
_cell_angle_gamma 90.000000
_cell_volume 5004.024515
_symmetry_space_group_name_H-M "C M C A"
_symmetry_group_IT_number 64
_symmetry_cell_setting 'orthorhombic'
loop_
_space_group_symop_operation_xyz
x,y,z
-x,1/2-y,1/2+z
x,-y,-z
-x,1/2+y,1/2-z
-x,-y,-z
x,1/2+y,1/2-z
-x,y,z
x,1/2-y,1/2+z
1/2+x,1/2+y,z
1/2-x,-y,1/2+z
1/2+x,1/2-y,-z
1/2-x,y,1/2-z
1/2-x,1/2-y,-z
1/2+x,y,1/2-z
1/2-x,1/2+y,z
1/2+x,-y,1/2+z
loop_
_atom_site_type_symbol
_atom_site_label
_atom_site_fract_x
_atom_site_fract_y
_atom_site_fract_z
Si Si1 0.871908 0.624477 0.248560
Si Si2 0.056324 0.069890 0.469721
Si Si3 0.250000 0.234489 0.750000
Si Si4 0.292370 0.167855 0.017898
Si Si5 0.057888 0.828040 0.308179
Si Si6 0.779581 0.560270 0.401695
Si Si7 0.940759 0.795560 0.964908
O O1 0.911823 0.575801 0.188295
O O2 0.846135 0.649367 0.087986
O O3 0.832386 0.591887 0.361894
O O4 0.903570 0.674475 0.339688
O O5 0.078530 0.109083 0.616644
O O6 0.000000 0.093977 0.437315
O O7 0.056807 0.000000 0.500000
O O8 0.276578 0.276621 0.626029
O O9 0.207854 0.192722 0.661093
O O10 0.254121 0.111275 0.015202
O O11 0.066542 0.776013 0.437945
O O12 0.000000 0.835558 0.267709
O O13 0.081103 0.812564 0.137179
O O14 0.789792 0.500000 0.500000
O O15 0.750000 0.537213 0.250000
O O16 0.000000 0.813067 0.938585
#
# Coordination Sequence:
#
# PCOD8263235 Si02
#       7
#    16  16   8  16  16  16  16
#     4  11  22  39  60  93 120 156 209 248 305 372
#     4  10  22  41  61  84 122 165 206 254 300 357
#     4  10  20  42  66  84 128 154 192 242 318 358
#     4  10  22  42  61  90 119 160 194 251 300 366
#     4   9  19  37  58  85 120 164 207 245 301 356
#     4  10  23  44  63  87 120 154 203 252 299 362
#     4  10  20  36  60  91 127 159 199 255 307 360
#
# _framework density 20.783270999999999
#
# number of rings (size 3 to 8) (size 9 to 14) (size 15 to 20)
#    0.000    2.000    2.308    1.385    1.077    8.615 
#    2.769    0.000    0.000    4.615    0.000    0.000 
#    0.000    0.000    0.000    0.000    0.000    0.000 
#
# Total GULP energy -644266.153573 kJ/mol
# GULP energy per Si atom -12389.733723 kJ/mol
# Density = 2.073597 g / cm^3
# Si number density = 20.783271 Si / 1000 Ang^3
#
#
#
# Elastic Constant Matrix: (Units=GPa)
#
#
# Indices 1 2 3 4 5 6 
#
# 1 74.3897 47.2113 28.5969 0.0000 0.0000 0.0000
# 2 47.2113 112.3742 45.6892 0.0000 0.0000 0.0000
# 3 28.5969 45.6892 71.7852 0.0000 0.0000 0.0000
# 4 0.0000 0.0000 0.0000 -91.1061 0.0000 0.0000
# 5 0.0000 0.0000 0.0000 0.0000 28.3970 0.0000
# 6 0.0000 0.0000 0.0000 0.0000 0.0000 6.2038
#
#
#
# Elastic Compliance Matrix: (Units=1/GPa)
#
#
# Indices 1 2 3 4 5 6 
#
# 1 0.018906 -0.006585 -0.003341 0.000000 0.000000 0.000000
# 2 -0.006585 0.014299 -0.006478 0.000000 0.000000 0.000000
# 3 -0.003341 -0.006478 0.019384 0.000000 0.000000 0.000000
# 4 0.000000 0.000000 0.000000 -0.010976 0.000000 0.000000
# 5 0.000000 0.000000 0.000000 0.000000 0.035215 0.000000
# 6 0.000000 0.000000 0.000000 0.000000 0.000000 0.161191
#
#
# Mechanical properties :
#
#
# Convention : Reuss Voigt Hill
#
# Bulk Modulus (GPa) = 50.54842 55.72711 53.13777
# Shear Modulus (GPa) = 18.02333 -2.16426 7.92953
#
# Velocity S-wave (km/s) = 2.94803 -1.02157 1.95541
# Velocity P-wave (km/s) = 5.99686 5.04779 5.54267
#
# Compressibility (1/GPa) = 0.01978301
#
# Stress axis : x y z
#
# Youngs Moduli (GPa) = 52.89380 69.93527 51.58866
#
# Poissons Ratio (x) = 0.46050 0.17233
# Poissons Ratio (y) = 0.34829 0.33418
# Poissons Ratio (z) = 0.17669 0.45302
#
# Static dielectric constant tensor:
#      x y z
#    x 3.909390 0.000000 0.000000 
#    y 0.000000 3.719480 0.000000 
#    z 0.000000 0.000000 1.095330 
# 
# 
# High freq. dielectric constant tensor:
#      x y z
#    x 1.808060 0.000000 0.000000 
#    y 0.000000 1.812910 0.000000 
#    z 0.000000 0.000000 1.812830 
# 
# From -- ./inp_files/10425.got.cif
#   From: 2010.03.12/outbox.cif.g09.slc.cpg/sg64_6_cif.got.tgz:10425.got - 2010.04.10 20:19:32.
