data_PCOD8263710
_publ_section_title
;
Structure prediction by ZEFSAII (Michael W. Deem and Ramdas Pophale) SiO2 
 PCOD8263710
Probable space group: C M C A
;
_chemical_formula_sum "Si O2"
_cell_formula_units_Z 72
_cell_length_a 21.752256
_cell_length_b 15.749716
_cell_length_c 10.319073
_cell_angle_alpha 90.000000
_cell_angle_beta 90.000000
_cell_angle_gamma 90.000000
_cell_volume 3535.230354
_symmetry_space_group_name_H-M "C M C A"
_symmetry_group_IT_number 64
_symmetry_cell_setting 'orthorhombic'
loop_
_space_group_symop_operation_xyz
x,y,z
-x,1/2-y,1/2+z
x,-y,-z
-x,1/2+y,1/2-z
-x,-y,-z
x,1/2+y,1/2-z
-x,y,z
x,1/2-y,1/2+z
1/2+x,1/2+y,z
1/2-x,-y,1/2+z
1/2+x,1/2-y,-z
1/2-x,y,1/2-z
1/2-x,1/2-y,-z
1/2+x,y,1/2-z
1/2-x,1/2+y,z
1/2+x,-y,1/2+z
loop_
_atom_site_type_symbol
_atom_site_label
_atom_site_fract_x
_atom_site_fract_y
_atom_site_fract_z
Si Si1 0.897937 0.175089 0.723063
Si Si2 0.000000 0.907294 0.438453
Si Si3 0.628885 0.900285 0.482835
Si Si4 0.500000 0.406784 0.937637
Si Si5 0.289871 0.277593 0.879622
Si Si6 0.000000 0.693161 0.194986
O O1 0.939222 0.105322 0.648889
O O2 0.859198 0.127938 0.835828
O O3 0.844584 0.209697 0.630649
O O4 0.939218 0.252416 0.775516
O O5 0.000000 0.834028 0.546298
O O6 0.000000 0.000000 0.500000
O O7 0.561228 0.860241 0.512057
O O8 0.679801 0.867601 0.583474
O O9 0.627776 0.000000 0.500000
O O10 0.500000 0.394374 0.781227
O O11 0.500000 0.500000 0.000000
O O12 0.250000 0.288480 0.750000
O O13 0.250000 0.250000 0.000000
#
# Coordination Sequence:
#
# PCOD8263710 Si02
#       6
#    16   8  16   8  16   8
#     4  11  24  43  69  95 133 178 226 273 341 411
#     4  11  27  39  63 110 141 166 211 292 356 401
#     4  11  24  44  70 100 131 177 222 282 348 408
#     4  10  21  36  71  96 130 170 214 271 351 417
#     4  12  25  46  71  97 133 184 238 279 323 401
#     4  11  22  39  67  97 133 171 220 273 346 409
#
# _framework density 20.366426000000001
#
# number of rings (size 3 to 8) (size 9 to 14) (size 15 to 20)
#    0.000    0.889    4.444    2.667    9.333    0.000 
#    4.000    0.000    0.000    0.000    0.000    0.000 
#    0.000    0.000    0.000    0.000    0.000    0.000 
#
# Total GULP energy -446269.533960 kJ/mol
# GULP energy per Si atom -12396.375943 kJ/mol
# Density = 2.032007 g / cm^3
# Si number density = 20.366426 Si / 1000 Ang^3
#
#
#
# Elastic Constant Matrix: (Units=GPa)
#
#
# Indices 1 2 3 4 5 6 
#
# 1 139.1088 52.5251 57.5314 0.0000 0.0000 0.0000
# 2 52.5251 100.6710 53.7140 0.0000 0.0000 0.0000
# 3 57.5314 53.7140 135.7746 0.0000 0.0000 0.0000
# 4 0.0000 0.0000 0.0000 39.3802 0.0000 0.0000
# 5 0.0000 0.0000 0.0000 0.0000 44.6808 0.0000
# 6 0.0000 0.0000 0.0000 0.0000 0.0000 15.0776
#
#
#
# Elastic Compliance Matrix: (Units=1/GPa)
#
#
# Indices 1 2 3 4 5 6 
#
# 1 0.009655 -0.003618 -0.002660 0.000000 0.000000 0.000000
# 2 -0.003618 0.013947 -0.003984 0.000000 0.000000 0.000000
# 3 -0.002660 -0.003984 0.010068 0.000000 0.000000 0.000000
# 4 0.000000 0.000000 0.000000 0.025393 0.000000 0.000000
# 5 0.000000 0.000000 0.000000 0.000000 0.022381 0.000000
# 6 0.000000 0.000000 0.000000 0.000000 0.000000 0.066324
#
#
# Mechanical properties :
#
#
# Convention : Reuss Voigt Hill
#
# Bulk Modulus (GPa) = 76.07105 78.12170 77.09637
# Shear Modulus (GPa) = 28.95613 33.94663 31.45138
#
# Velocity S-wave (km/s) = 3.77471 4.08707 3.93399
# Velocity P-wave (km/s) = 7.51200 7.79189 7.65323
#
# Compressibility (1/GPa) = 0.01314561
#
# Stress axis : x y z
#
# Youngs Moduli (GPa) = 103.57595 71.69908 99.32098
#
# Poissons Ratio (x) = 0.25943 0.26415
# Poissons Ratio (y) = 0.37477 0.39574
# Poissons Ratio (z) = 0.27546 0.28568
#
# Static dielectric constant tensor:
#      x y z
#    x 4.043120 0.000000 0.000000 
#    y 0.000000 3.438220 0.000000 
#    z 0.000000 0.000000 3.049290 
# 
# 
# High freq. dielectric constant tensor:
#      x y z
#    x 1.800220 0.000000 0.000000 
#    y 0.000000 1.782980 0.000000 
#    z 0.000000 0.000000 1.810710 
# 
# From -- ./inp_files/9172.got.cif
#   From: 2010.03.12/outbox.cif.g09.slc.cpg/sg64_5_cif.got.tgz:9172.got - 2010.04.10 20:19:32.
