data_PCOD8263046
_publ_section_title
;
Structure prediction by ZEFSAII (Michael W. Deem and Ramdas Pophale) SiO2 
 PCOD8263046
Probable space group: C M C A
;
_chemical_formula_sum "Si O2"
_cell_formula_units_Z 96
_cell_length_a 9.135609
_cell_length_b 18.655584
_cell_length_c 30.192547
_cell_angle_alpha 90.000000
_cell_angle_beta 90.000000
_cell_angle_gamma 90.000000
_cell_volume 5145.719441
_symmetry_space_group_name_H-M "C M C A"
_symmetry_group_IT_number 64
_symmetry_cell_setting 'orthorhombic'
loop_
_space_group_symop_operation_xyz
x,y,z
-x,1/2-y,1/2+z
x,-y,-z
-x,1/2+y,1/2-z
-x,-y,-z
x,1/2+y,1/2-z
-x,y,z
x,1/2-y,1/2+z
1/2+x,1/2+y,z
1/2-x,-y,1/2+z
1/2+x,1/2-y,-z
1/2-x,y,1/2-z
1/2-x,1/2-y,-z
1/2+x,y,1/2-z
1/2-x,1/2+y,z
1/2+x,-y,1/2+z
loop_
_atom_site_type_symbol
_atom_site_label
_atom_site_fract_x
_atom_site_fract_y
_atom_site_fract_z
Si Si1 0.167601 0.818661 0.450124
Si Si2 0.170128 0.675675 0.052374
Si Si3 0.671595 0.831156 0.705959
Si Si4 0.829325 0.832419 0.293615
Si Si5 0.170130 0.069872 0.624186
Si Si6 0.173365 0.420971 0.621089
O O1 0.199274 0.839229 0.500714
O O2 0.268259 0.753298 0.434019
O O3 0.202892 0.888315 0.421221
O O4 0.000000 0.793955 0.443175
O O5 0.253469 0.613427 0.078078
O O6 0.000000 0.673015 0.064465
O O7 0.500000 0.838731 0.713607
O O8 0.750000 0.860598 0.750000
O O9 0.718400 0.749246 0.696502
O O10 0.724572 0.877832 0.664484
O O11 0.750000 0.862512 0.250000
O O12 0.782945 0.879718 0.335274
O O13 0.000000 0.837183 0.284383
O O14 0.000000 0.047375 0.627163
O O15 0.273204 0.001659 0.625818
O O16 0.000000 0.418923 0.615186
#
# Coordination Sequence:
#
# PCOD8263046 Si02
#       6
#    16  16  16  16  16  16
#     4   9  19  37  59  81 107 139 177 224 272 318
#     4  10  20  35  58  84 107 137 179 223 268 320
#     4   9  19  36  57  79 103 136 177 221 268 315
#     4   9  18  34  56  78 101 133 173 217 264 314
#     4  10  21  37  55  76 107 145 180 215 263 320
#     4  11  23  37  53  77 112 147 179 219 267 317
#
# _framework density 18.656283999999999
#
# number of rings (size 3 to 8) (size 9 to 14) (size 15 to 20)
#    0.000    2.333    0.000    2.000    0.000    7.333 
#    0.000   10.000    0.000    0.000    0.000    0.000 
#    0.000    0.000    0.000    0.000    0.000    0.000 
#
# Total GULP energy -595406.526960 kJ/mol
# GULP energy per Si atom -12404.302645 kJ/mol
# Density = 1.861382 g / cm^3
# Si number density = 18.656284 Si / 1000 Ang^3
#
#
#
# Elastic Constant Matrix: (Units=GPa)
#
#
# Indices 1 2 3 4 5 6 
#
# 1 70.0428 52.2897 52.3168 0.0000 0.0000 0.0000
# 2 52.2897 110.0088 68.1910 0.0000 0.0000 0.0000
# 3 52.3168 68.1910 115.3554 0.0000 0.0000 0.0000
# 4 0.0000 0.0000 0.0000 16.5606 0.0000 0.0000
# 5 0.0000 0.0000 0.0000 0.0000 32.0320 0.0000
# 6 0.0000 0.0000 0.0000 0.0000 0.0000 36.6189
#
#
#
# Elastic Compliance Matrix: (Units=1/GPa)
#
#
# Indices 1 2 3 4 5 6 
#
# 1 0.025146 -0.007708 -0.006848 0.000000 0.000000 0.000000
# 2 -0.007708 0.016710 -0.006382 0.000000 0.000000 0.000000
# 3 -0.006848 -0.006382 0.015548 0.000000 0.000000 0.000000
# 4 0.000000 0.000000 0.000000 0.060384 0.000000 0.000000
# 5 0.000000 0.000000 0.000000 0.000000 0.031219 0.000000
# 6 0.000000 0.000000 0.000000 0.000000 0.000000 0.027308
#
#
# Mechanical properties :
#
#
# Convention : Reuss Voigt Hill
#
# Bulk Modulus (GPa) = 64.40203 71.22242 67.81222
# Shear Modulus (GPa) = 22.38471 25.21628 23.80049
#
# Velocity S-wave (km/s) = 3.46764 3.68043 3.57562
# Velocity P-wave (km/s) = 7.11533 7.50465 7.31258
#
# Compressibility (1/GPa) = 0.01552746
#
# Stress axis : x y z
#
# Youngs Moduli (GPa) = 39.76764 59.84459 64.31881
#
# Poissons Ratio (x) = 0.46125 0.44047
# Poissons Ratio (y) = 0.30651 0.41050
# Poissons Ratio (z) = 0.27234 0.38195
#
# Static dielectric constant tensor:
#      x y z
#    x 3.399940 0.000000 0.000000 
#    y 0.000000 3.352250 0.000000 
#    z 0.000000 0.000000 3.588930 
# 
# 
# High freq. dielectric constant tensor:
#      x y z
#    x 1.723100 0.000000 0.000000 
#    y 0.000000 1.718300 0.000000 
#    z 0.000000 0.000000 1.735810 
# 
# From -- ./inp_files/48137.got.cif
#   From: 2010.03.12/outbox.cif.g09.slc.cpg/sg64_25_cif.got.tgz:48137.got - 2010.04.10 20:19:32.
