data_PCOD8263355
_publ_section_title
;
Structure prediction by ZEFSAII (Michael W. Deem and Ramdas Pophale) SiO2 
 PCOD8263355
Probable space group: C M C A
;
_chemical_formula_sum "Si O2"
_cell_formula_units_Z 96
_cell_length_a 23.314859
_cell_length_b 11.198691
_cell_length_c 17.057257
_cell_angle_alpha 90.000000
_cell_angle_beta 90.000000
_cell_angle_gamma 90.000000
_cell_volume 4453.579896
_symmetry_space_group_name_H-M "C M C A"
_symmetry_group_IT_number 64
_symmetry_cell_setting 'orthorhombic'
loop_
_space_group_symop_operation_xyz
x,y,z
-x,1/2-y,1/2+z
x,-y,-z
-x,1/2+y,1/2-z
-x,-y,-z
x,1/2+y,1/2-z
-x,y,z
x,1/2-y,1/2+z
1/2+x,1/2+y,z
1/2-x,-y,1/2+z
1/2+x,1/2-y,-z
1/2-x,y,1/2-z
1/2-x,1/2-y,-z
1/2+x,y,1/2-z
1/2-x,1/2+y,z
1/2+x,-y,1/2+z
loop_
_atom_site_type_symbol
_atom_site_label
_atom_site_fract_x
_atom_site_fract_y
_atom_site_fract_z
Si Si1 0.161325 0.561668 0.079024
Si Si2 0.566407 0.313869 0.867191
Si Si3 0.379439 0.045688 0.585225
Si Si4 0.436191 0.274121 0.544430
Si Si5 0.665472 0.845560 0.188780
Si Si6 0.713478 0.196564 0.638503
O O1 0.097612 0.603535 0.056508
O O2 0.156964 0.479948 0.156765
O O3 0.197868 0.677470 0.100957
O O4 0.187111 0.500000 0.000000
O O5 0.500000 0.316917 0.837685
O O6 0.596321 0.444305 0.856133
O O7 0.605666 0.224653 0.817076
O O8 0.569302 0.269380 0.955648
O O9 0.413503 0.169025 0.601519
O O10 0.311792 0.081550 0.590977
O O11 0.394216 0.000000 0.500000
O O12 0.500000 0.304540 0.569256
O O13 0.686425 0.833304 0.277039
O O14 0.717752 0.796772 0.135337
#
# Coordination Sequence:
#
# PCOD8263355 Si02
#       6
#    16  16  16  16  16  16
#     4  11  23  42  63  97 125 163 220 270 320 381
#     4  10  20  37  63  94 128 168 214 261 314 379
#     4   9  19  38  64  95 122 166 214 265 313 374
#     4   9  18  37  62  93 129 166 210 260 319 378
#     4  11  25  42  64  93 129 172 212 256 330 396
#     4  10  26  43  64  90 131 173 210 264 328 392
#
# _framework density 21.555692000000001
#
# number of rings (size 3 to 8) (size 9 to 14) (size 15 to 20)
#    0.000    2.000    1.667    0.500    4.667    5.667 
#    0.000    4.167    0.000    0.000    0.000    0.000 
#    0.000    0.000    0.000    0.000    0.000    0.000 
#
# Total GULP energy -594703.070545 kJ/mol
# GULP energy per Si atom -12389.647303 kJ/mol
# Density = 2.150663 g / cm^3
# Si number density = 21.555692 Si / 1000 Ang^3
#
#
#
# Elastic Constant Matrix: (Units=GPa)
#
#
# Indices 1 2 3 4 5 6 
#
# 1 123.7183 47.8392 11.4764 0.0000 0.0000 0.0000
# 2 47.8392 124.5503 28.1166 0.0000 0.0000 0.0000
# 3 11.4764 28.1166 44.4981 0.0000 0.0000 0.0000
# 4 0.0000 0.0000 0.0000 21.8781 0.0000 0.0000
# 5 0.0000 0.0000 0.0000 0.0000 27.5057 0.0000
# 6 0.0000 0.0000 0.0000 0.0000 0.0000 22.5717
#
#
#
# Elastic Compliance Matrix: (Units=1/GPa)
#
#
# Indices 1 2 3 4 5 6 
#
# 1 0.009494 -0.003609 -0.000168 0.000000 0.000000 0.000000
# 2 -0.003609 0.010736 -0.005853 0.000000 0.000000 0.000000
# 3 -0.000168 -0.005853 0.026215 0.000000 0.000000 0.000000
# 4 0.000000 0.000000 0.000000 0.045708 0.000000 0.000000
# 5 0.000000 0.000000 0.000000 0.000000 0.036356 0.000000
# 6 0.000000 0.000000 0.000000 0.000000 0.000000 0.044303
#
#
# Mechanical properties :
#
#
# Convention : Reuss Voigt Hill
#
# Bulk Modulus (GPa) = 36.78559 51.95900 44.37230
# Shear Modulus (GPa) = 24.85910 28.08007 26.46958
#
# Velocity S-wave (km/s) = 3.39964 3.61317 3.50803
# Velocity P-wave (km/s) = 5.70197 6.44698 6.08589
#
# Compressibility (1/GPa) = 0.02718456
#
# Stress axis : x y z
#
# Youngs Moduli (GPa) = 105.33150 93.14274 38.14655
#
# Poissons Ratio (x) = 0.33611 0.00643
# Poissons Ratio (y) = 0.38009 0.22328
# Poissons Ratio (z) = 0.01774 0.54518
#
# Static dielectric constant tensor:
#      x y z
#    x 4.166820 0.000000 0.000000 
#    y 0.000000 4.089590 0.000000 
#    z 0.000000 0.000000 3.727300 
# 
# 
# High freq. dielectric constant tensor:
#      x y z
#    x 1.851840 0.000000 0.000000 
#    y 0.000000 1.855270 0.000000 
#    z 0.000000 0.000000 1.823130 
# 
# From -- ./inp_files/34959.got.cif
#   From: 2010.03.12/outbox.cif.g09.slc.cpg/sg64_18_cif.got.tgz:34959.got - 2010.04.10 20:19:32.
