data_PCOD8263221
_publ_section_title
;
Structure prediction by ZEFSAII (Michael W. Deem and Ramdas Pophale) SiO2 
 PCOD8263221
Probable space group: C M C A
;
_chemical_formula_sum "Si O2"
_cell_formula_units_Z 80
_cell_length_a 14.678887
_cell_length_b 10.446865
_cell_length_c 25.774967
_cell_angle_alpha 90.000000
_cell_angle_beta 90.000000
_cell_angle_gamma 90.000000
_cell_volume 3952.548682
_symmetry_space_group_name_H-M "C M C A"
_symmetry_group_IT_number 64
_symmetry_cell_setting 'orthorhombic'
loop_
_space_group_symop_operation_xyz
x,y,z
-x,1/2-y,1/2+z
x,-y,-z
-x,1/2+y,1/2-z
-x,-y,-z
x,1/2+y,1/2-z
-x,y,z
x,1/2-y,1/2+z
1/2+x,1/2+y,z
1/2-x,-y,1/2+z
1/2+x,1/2-y,-z
1/2-x,y,1/2-z
1/2-x,1/2-y,-z
1/2+x,y,1/2-z
1/2-x,1/2+y,z
1/2+x,-y,1/2+z
loop_
_atom_site_type_symbol
_atom_site_label
_atom_site_fract_x
_atom_site_fract_y
_atom_site_fract_z
Si Si1 0.310774 0.613573 0.140327
Si Si2 0.351606 0.109867 0.965990
Si Si3 0.172928 0.600378 0.848075
Si Si4 0.000000 0.873365 0.278942
Si Si5 0.339037 0.879507 0.521230
Si Si6 0.000000 0.087987 0.194847
O O1 0.245580 0.509002 0.167443
O O2 0.281723 0.758072 0.156793
O O3 0.300352 0.597121 0.078789
O O4 0.413940 0.588208 0.156957
O O5 0.365636 0.079125 0.905867
O O6 0.396847 0.248076 0.979670
O O7 0.245187 0.123903 0.980468
O O8 0.400364 0.000000 0.000000
O O9 0.089295 0.584164 0.809617
O O10 0.000000 0.718419 0.269817
O O11 0.000000 0.955610 0.226448
O O12 0.399213 0.000000 0.500000
#
# Coordination Sequence:
#
# PCOD8263221 Si02
#       6
#    16  16  16   8  16   8
#     4  10  20  36  60  86 115 152 191 234 287 341
#     4   9  15  26  49  79 112 147 181 219 268 329
#     4  10  20  36  60  86 115 152 191 234 287 341
#     4  10  24  44  61  82 114 150 193 246 293 338
#     4   9  15  26  49  79 112 147 181 219 268 329
#     4  10  24  44  61  82 114 150 193 246 293 338
#
# _framework density 20.240106000000001
#
# number of rings (size 3 to 8) (size 9 to 14) (size 15 to 20)
#    0.000    2.400    4.000    0.000    0.000    2.400 
#    0.000    5.000    0.000    0.000    0.000    0.000 
#    0.000    0.000    0.000    0.000    0.000    0.000 
#
# Total GULP energy -495593.935673 kJ/mol
# GULP energy per Si atom -12389.848392 kJ/mol
# Density = 2.019404 g / cm^3
# Si number density = 20.240106 Si / 1000 Ang^3
#
#
#
# Elastic Constant Matrix: (Units=GPa)
#
#
# Indices 1 2 3 4 5 6 
#
# 1 63.3861 37.2304 6.8353 0.0000 0.0000 0.0000
# 2 37.2304 165.9949 16.8472 0.0000 0.0000 0.0000
# 3 6.8353 16.8472 46.0969 0.0000 0.0000 0.0000
# 4 0.0000 0.0000 0.0000 36.0400 0.0000 0.0000
# 5 0.0000 0.0000 0.0000 0.0000 57.6456 0.0000
# 6 0.0000 0.0000 0.0000 0.0000 0.0000 21.6240
#
#
#
# Elastic Compliance Matrix: (Units=1/GPa)
#
#
# Indices 1 2 3 4 5 6 
#
# 1 0.018240 -0.003963 -0.001256 0.000000 0.000000 0.000000
# 2 -0.003963 0.007118 -0.002014 0.000000 0.000000 0.000000
# 3 -0.001256 -0.002014 0.022616 0.000000 0.000000 0.000000
# 4 0.000000 0.000000 0.000000 0.027747 0.000000 0.000000
# 5 0.000000 0.000000 0.000000 0.000000 0.017347 0.000000
# 6 0.000000 0.000000 0.000000 0.000000 0.000000 0.046245
#
#
# Mechanical properties :
#
#
# Convention : Reuss Voigt Hill
#
# Bulk Modulus (GPa) = 29.84475 44.14485 36.99480
# Shear Modulus (GPa) = 30.31273 37.36626 33.83949
#
# Velocity S-wave (km/s) = 3.87416 4.30135 4.09333
# Velocity P-wave (km/s) = 5.89826 6.82105 6.37637
#
# Compressibility (1/GPa) = 0.03350673
#
# Stress axis : x y z
#
# Youngs Moduli (GPa) = 54.82528 140.49684 44.21730
#
# Poissons Ratio (x) = 0.55685 0.05554
# Poissons Ratio (y) = 0.21730 0.08904
# Poissons Ratio (z) = 0.06886 0.28290
#
# Static dielectric constant tensor:
#      x y z
#    x 3.205470 0.000000 0.000000 
#    y 0.000000 4.836650 0.000000 
#    z 0.000000 0.000000 3.418470 
# 
# 
# High freq. dielectric constant tensor:
#      x y z
#    x 1.748350 0.000000 0.000000 
#    y 0.000000 1.822540 0.000000 
#    z 0.000000 0.000000 1.775350 
# 
# From -- ./inp_files/49916.got.cif
#   From: 2010.03.12/outbox.cif.g09.slc.cpg/sg64_25_cif.got.tgz:49916.got - 2010.04.10 20:19:32.
