data_PCOD8263342
_publ_section_title
;
Structure prediction by ZEFSAII (Michael W. Deem and Ramdas Pophale) SiO2 
 PCOD8263342
Probable space group: C M C A
;
_chemical_formula_sum "Si O2"
_cell_formula_units_Z 56
_cell_length_a 10.483914
_cell_length_b 30.093605
_cell_length_c 8.941638
_cell_angle_alpha 90.000000
_cell_angle_beta 90.000000
_cell_angle_gamma 90.000000
_cell_volume 2821.075762
_symmetry_space_group_name_H-M "C M C A"
_symmetry_group_IT_number 64
_symmetry_cell_setting 'orthorhombic'
loop_
_space_group_symop_operation_xyz
x,y,z
-x,1/2-y,1/2+z
x,-y,-z
-x,1/2+y,1/2-z
-x,-y,-z
x,1/2+y,1/2-z
-x,y,z
x,1/2-y,1/2+z
1/2+x,1/2+y,z
1/2-x,-y,1/2+z
1/2+x,1/2-y,-z
1/2-x,y,1/2-z
1/2-x,1/2-y,-z
1/2+x,y,1/2-z
1/2-x,1/2+y,z
1/2+x,-y,1/2+z
loop_
_atom_site_type_symbol
_atom_site_label
_atom_site_fract_x
_atom_site_fract_y
_atom_site_fract_z
Si Si1 0.250000 0.248833 0.750000
Si Si2 0.751320 0.900073 0.572923
Si Si3 0.856896 0.690201 0.000998
Si Si4 0.500000 0.452780 0.575216
Si Si5 0.500000 0.048352 0.429322
O O1 0.159011 0.218178 0.649721
O O2 0.161891 0.278933 0.854622
O O3 0.750000 0.894649 0.750000
O O4 0.758110 0.850944 0.501514
O O5 0.623922 0.924460 0.515473
O O6 0.873691 0.927756 0.519330
O O7 0.000000 0.671117 0.009024
O O8 0.500000 0.500000 0.500000
O O9 0.500000 0.457877 0.752686
O O10 0.500000 0.000000 0.500000
#
# Coordination Sequence:
#
# PCOD8263342 Si02
#       5
#     8  16  16   8   8
#     4  10  24  38  62  92 122 162 200 256 304 364
#     4  10  20  37  62  86 120 159 198 243 303 371
#     4  11  21  42  62  91 124 160 207 249 307 360
#     4  10  20  38  62  83 111 156 200 247 307 360
#     4  10  22  40  58  87 119 156 198 247 303 362
#
# _framework density 19.850584000000001
#
# number of rings (size 3 to 8) (size 9 to 14) (size 15 to 20)
#    0.000    1.714    2.857    1.714    0.000    0.000 
#   18.000    0.000    0.000    0.000    0.000    0.000 
#    0.000    0.000    0.000    0.000    0.000    0.000 
#
# Total GULP energy -347287.010300 kJ/mol
# GULP energy per Si atom -12403.107511 kJ/mol
# Density = 1.980540 g / cm^3
# Si number density = 19.850584 Si / 1000 Ang^3
#
#
#
# Elastic Constant Matrix: (Units=GPa)
#
#
# Indices 1 2 3 4 5 6 
#
# 1 162.9333 78.0257 31.9426 0.0000 0.0000 0.0000
# 2 78.0257 172.2826 47.8328 0.0000 0.0000 0.0000
# 3 31.9426 47.8328 68.4792 0.0000 0.0000 0.0000
# 4 0.0000 0.0000 0.0000 16.2170 0.0000 0.0000
# 5 0.0000 0.0000 0.0000 0.0000 10.2463 0.0000
# 6 0.0000 0.0000 0.0000 0.0000 0.0000 38.5874
#
#
#
# Elastic Compliance Matrix: (Units=1/GPa)
#
#
# Indices 1 2 3 4 5 6 
#
# 1 0.007957 -0.003192 -0.001482 0.000000 0.000000 0.000000
# 2 -0.003192 0.008482 -0.004435 0.000000 0.000000 0.000000
# 3 -0.001482 -0.004435 0.018392 0.000000 0.000000 0.000000
# 4 0.000000 0.000000 0.000000 0.061664 0.000000 0.000000
# 5 0.000000 0.000000 0.000000 0.000000 0.097596 0.000000
# 6 0.000000 0.000000 0.000000 0.000000 0.000000 0.025915
#
#
# Mechanical properties :
#
#
# Convention : Reuss Voigt Hill
#
# Bulk Modulus (GPa) = 60.19753 79.92192 70.05973
# Shear Modulus (GPa) = 20.51190 29.40308 24.95749
#
# Velocity S-wave (km/s) = 3.21801 3.85284 3.54964
# Velocity P-wave (km/s) = 6.64820 7.75510 7.22289
#
# Compressibility (1/GPa) = 0.01661198
#
# Stress axis : x y z
#
# Youngs Moduli (GPa) = 125.68170 117.90289 54.37066
#
# Poissons Ratio (x) = 0.37636 0.08056
# Poissons Ratio (y) = 0.40119 0.24116
# Poissons Ratio (z) = 0.18623 0.52295
#
# Static dielectric constant tensor:
#      x y z
#    x 3.755460 0.000000 0.000000 
#    y 0.000000 3.669220 0.000000 
#    z 0.000000 0.000000 3.457020 
# 
# 
# High freq. dielectric constant tensor:
#      x y z
#    x 1.779340 0.000000 0.000000 
#    y 0.000000 1.789720 0.000000 
#    z 0.000000 0.000000 1.754950 
# 
# From -- ./inp_files/4521.got.cif
#   From: 2010.03.12/outbox.cif.g09.slc.cpg/sg64_3_cif.got.tgz:4521.got - 2010.04.10 20:19:32.
