data_PCOD8263030
_publ_section_title
;
Structure prediction by ZEFSAII (Michael W. Deem and Ramdas Pophale) SiO2 
 PCOD8263030
Probable space group: C M C A
;
_chemical_formula_sum "Si O2"
_cell_formula_units_Z 96
_cell_length_a 18.708533
_cell_length_b 17.404070
_cell_length_c 15.672808
_cell_angle_alpha 90.000000
_cell_angle_beta 90.000000
_cell_angle_gamma 90.000000
_cell_volume 5103.138661
_symmetry_space_group_name_H-M "C M C A"
_symmetry_group_IT_number 64
_symmetry_cell_setting 'orthorhombic'
loop_
_space_group_symop_operation_xyz
x,y,z
-x,1/2-y,1/2+z
x,-y,-z
-x,1/2+y,1/2-z
-x,-y,-z
x,1/2+y,1/2-z
-x,y,z
x,1/2-y,1/2+z
1/2+x,1/2+y,z
1/2-x,-y,1/2+z
1/2+x,1/2-y,-z
1/2-x,y,1/2-z
1/2-x,1/2-y,-z
1/2+x,y,1/2-z
1/2-x,1/2+y,z
1/2+x,-y,1/2+z
loop_
_atom_site_type_symbol
_atom_site_label
_atom_site_fract_x
_atom_site_fract_y
_atom_site_fract_z
Si Si1 0.419188 0.163319 0.154263
Si Si2 0.677483 0.829870 0.699568
Si Si3 0.420792 0.307880 0.053517
Si Si4 0.802802 0.089911 0.020114
Si Si5 0.856169 0.090083 0.507189
Si Si6 0.080399 0.291400 0.116292
O O1 0.500000 0.152159 0.182611
O O2 0.372480 0.128778 0.231032
O O3 0.402739 0.253728 0.134627
O O4 0.404833 0.114403 0.070920
O O5 0.750000 0.810527 0.750000
O O6 0.684560 0.887760 0.619504
O O7 0.637502 0.750001 0.677227
O O8 0.500000 0.345394 0.064230
O O9 0.361025 0.372804 0.042928
O O10 0.421246 0.254077 0.971562
O O11 0.724670 0.123208 0.997702
O O12 0.807944 0.000000 0.000000
O O13 0.891528 0.122307 0.594711
O O14 0.852943 0.000000 0.500000
O O15 0.000000 0.294340 0.156430
#
# Coordination Sequence:
#
# PCOD8263030 Si02
#       6
#    16  16  16  16  16  16
#     4  10  20  35  57  83 111 142 186 241 283 332
#     4  11  21  35  58  83 110 148 188 233 286 335
#     4   8  17  33  55  80 107 142 186 231 278 330
#     4  10  21  36  56  82 117 150 190 233 275 340
#     4  10  20  35  57  84 111 149 188 231 280 338
#     4   9  19  34  55  82 110 140 184 233 274 332
#
# _framework density 18.811952999999999
#
# number of rings (size 3 to 8) (size 9 to 14) (size 15 to 20)
#    0.000    2.333    1.667    2.000    2.333    4.333 
#    0.000    1.667    0.000    2.000    0.000    0.000 
#    0.000    0.000    0.000    0.000    0.000    0.000 
#
# Total GULP energy -594771.779334 kJ/mol
# GULP energy per Si atom -12391.078736 kJ/mol
# Density = 1.876914 g / cm^3
# Si number density = 18.811953 Si / 1000 Ang^3
#
#
#
# Elastic Constant Matrix: (Units=GPa)
#
#
# Indices 1 2 3 4 5 6 
#
# 1 144.8288 41.1176 45.8859 0.0000 0.0000 0.0000
# 2 41.1176 56.8536 20.4685 0.0000 0.0000 0.0000
# 3 45.8859 20.4685 73.1441 0.0000 0.0000 0.0000
# 4 0.0000 0.0000 0.0000 18.4010 0.0000 0.0000
# 5 0.0000 0.0000 0.0000 0.0000 14.2188 0.0000
# 6 0.0000 0.0000 0.0000 0.0000 0.0000 28.1296
#
#
#
# Elastic Compliance Matrix: (Units=1/GPa)
#
#
# Indices 1 2 3 4 5 6 
#
# 1 0.009960 -0.005509 -0.004707 0.000000 0.000000 0.000000
# 2 -0.005509 0.022606 -0.002870 0.000000 0.000000 0.000000
# 3 -0.004707 -0.002870 0.017428 0.000000 0.000000 0.000000
# 4 0.000000 0.000000 0.000000 0.054345 0.000000 0.000000
# 5 0.000000 0.000000 0.000000 0.000000 0.070329 0.000000
# 6 0.000000 0.000000 0.000000 0.000000 0.000000 0.035550
#
#
# Mechanical properties :
#
#
# Convention : Reuss Voigt Hill
#
# Bulk Modulus (GPa) = 41.97720 54.41895 48.19808
# Shear Modulus (GPa) = 20.46415 23.30684 21.88550
#
# Velocity S-wave (km/s) = 3.30180 3.52367 3.41454
# Velocity P-wave (km/s) = 6.07441 6.74875 6.42044
#
# Compressibility (1/GPa) = 0.02382246
#
# Stress axis : x y z
#
# Youngs Moduli (GPa) = 100.40331 44.23533 57.38053
#
# Poissons Ratio (x) = 0.24368 0.27007
# Poissons Ratio (y) = 0.55309 0.16470
# Poissons Ratio (z) = 0.47256 0.12697
#
# Static dielectric constant tensor:
#      x y z
#    x 3.920220 0.000000 0.000000 
#    y 0.000000 3.370110 0.000000 
#    z 0.000000 0.000000 3.538070 
# 
# 
# High freq. dielectric constant tensor:
#      x y z
#    x 1.756040 0.000000 0.000000 
#    y 0.000000 1.699660 0.000000 
#    z 0.000000 0.000000 1.718660 
# 
# From -- ./inp_files/33320.got.cif
#   From: 2010.03.12/outbox.cif.g09.slc.cpg/sg64_17_cif.got.tgz:33320.got - 2010.04.10 20:19:32.
