data_PCOD8263509
_publ_section_title
;
Structure prediction by ZEFSAII (Michael W. Deem and Ramdas Pophale) SiO2 
 PCOD8263509
Probable space group: C M C A
;
_chemical_formula_sum "Si O2"
_cell_formula_units_Z 88
_cell_length_a 27.472327
_cell_length_b 8.624170
_cell_length_c 17.555603
_cell_angle_alpha 90.000000
_cell_angle_beta 90.000000
_cell_angle_gamma 90.000000
_cell_volume 4159.379118
_symmetry_space_group_name_H-M "C M C A"
_symmetry_group_IT_number 64
_symmetry_cell_setting 'orthorhombic'
loop_
_space_group_symop_operation_xyz
x,y,z
-x,1/2-y,1/2+z
x,-y,-z
-x,1/2+y,1/2-z
-x,-y,-z
x,1/2+y,1/2-z
-x,y,z
x,1/2-y,1/2+z
1/2+x,1/2+y,z
1/2-x,-y,1/2+z
1/2+x,1/2-y,-z
1/2-x,y,1/2-z
1/2-x,1/2-y,-z
1/2+x,y,1/2-z
1/2-x,1/2+y,z
1/2+x,-y,1/2+z
loop_
_atom_site_type_symbol
_atom_site_label
_atom_site_fract_x
_atom_site_fract_y
_atom_site_fract_z
Si Si1 0.500000 0.486949 0.127044
Si Si2 0.281971 0.596424 0.423176
Si Si3 0.577359 0.500000 0.500000
Si Si4 0.625779 0.964789 0.842110
Si Si5 0.815709 0.443678 0.420932
Si Si6 0.500000 0.740989 0.012136
Si Si7 0.400183 0.874893 0.306497
O O1 0.500000 0.665307 0.096999
O O2 0.547795 0.452853 0.176868
O O3 0.500000 0.386526 0.051972
O O4 0.293738 0.500000 0.500000
O O5 0.316135 0.552466 0.351034
O O6 0.226762 0.563378 0.396111
O O7 0.290326 0.778554 0.437676
O O8 0.609625 0.513341 0.574327
O O9 0.547130 0.656660 0.498705
O O10 0.597774 0.808901 0.817182
O O11 0.613262 0.096346 0.781314
O O12 0.839927 0.500000 0.500000
O O13 0.858181 0.447557 0.359156
#
# Coordination Sequence:
#
# PCOD8263509 Si02
#       7
#     8  16   8  16  16   8  16
#     4  11  24  44  64 100 133 168 221 272 326 382
#     4  10  20  39  65  96 129 171 214 266 326 390
#     4  11  22  46  68  96 128 174 230 263 332 386
#     4  11  25  44  67  96 134 174 217 273 328 398
#     4  10  22  39  64  98 131 168 219 268 325 396
#     4  10  24  40  72  93 123 177 222 275 313 394
#     4  11  27  43  64  98 135 173 223 270 333 386
#
# _framework density 21.157004000000001
#
# number of rings (size 3 to 8) (size 9 to 14) (size 15 to 20)
#    0.000    1.455    2.727    2.182    5.091    5.818 
#    0.000    3.636    0.000    0.000    0.000    0.000 
#    0.000    0.000    0.000    0.000    0.000    0.000 
#
# Total GULP energy -545571.367177 kJ/mol
# GULP energy per Si atom -12399.349254 kJ/mol
# Density = 2.110885 g / cm^3
# Si number density = 21.157004 Si / 1000 Ang^3
#
#
#
# Elastic Constant Matrix: (Units=GPa)
#
#
# Indices 1 2 3 4 5 6 
#
# 1 114.8925 22.1863 46.9509 0.0000 0.0000 0.0000
# 2 22.1863 55.4470 24.9073 0.0000 0.0000 0.0000
# 3 46.9509 24.9073 127.2692 0.0000 0.0000 0.0000
# 4 0.0000 0.0000 0.0000 28.7637 0.0000 0.0000
# 5 0.0000 0.0000 0.0000 0.0000 61.4171 0.0000
# 6 0.0000 0.0000 0.0000 0.0000 0.0000 27.4291
#
#
#
# Elastic Compliance Matrix: (Units=1/GPa)
#
#
# Indices 1 2 3 4 5 6 
#
# 1 0.010612 -0.002727 -0.003381 0.000000 0.000000 0.000000
# 2 -0.002727 0.020475 -0.003001 0.000000 0.000000 0.000000
# 3 -0.003381 -0.003001 0.009692 0.000000 0.000000 0.000000
# 4 0.000000 0.000000 0.000000 0.034766 0.000000 0.000000
# 5 0.000000 0.000000 0.000000 0.000000 0.016282 0.000000
# 6 0.000000 0.000000 0.000000 0.000000 0.000000 0.036458
#
#
# Mechanical properties :
#
#
# Convention : Reuss Voigt Hill
#
# Bulk Modulus (GPa) = 44.32646 53.96643 49.14645
# Shear Modulus (GPa) = 32.46260 37.09292 34.77776
#
# Velocity S-wave (km/s) = 3.92135 4.19169 4.05877
# Velocity P-wave (km/s) = 6.44200 6.99929 6.72642
#
# Compressibility (1/GPa) = 0.02255989
#
# Stress axis : x y z
#
# Youngs Moduli (GPa) = 94.23131 48.84107 103.17804
#
# Poissons Ratio (x) = 0.13321 0.34886
# Poissons Ratio (y) = 0.25701 0.30962
# Poissons Ratio (z) = 0.31861 0.14656
#
# Static dielectric constant tensor:
#      x y z
#    x 4.306570 0.000000 0.000000 
#    y 0.000000 4.028210 0.000000 
#    z 0.000000 0.000000 3.736510 
# 
# 
# High freq. dielectric constant tensor:
#      x y z
#    x 1.838060 0.000000 0.000000 
#    y 0.000000 1.835180 0.000000 
#    z 0.000000 0.000000 1.822910 
# 
# From -- ./inp_files/35730.got.cif
#   From: 2010.03.12/outbox.cif.g09.slc.cpg/sg64_18_cif.got.tgz:35730.got - 2010.04.10 20:19:32.
