data_PCOD8263854
_publ_section_title
;
Structure prediction by ZEFSAII (Michael W. Deem and Ramdas Pophale) SiO2 
 PCOD8263854
Probable space group: C M C A
;
_chemical_formula_sum "Si O2"
_cell_formula_units_Z 104
_cell_length_a 21.392645
_cell_length_b 8.755798
_cell_length_c 25.672540
_cell_angle_alpha 90.000000
_cell_angle_beta 90.000000
_cell_angle_gamma 90.000000
_cell_volume 4808.715209
_symmetry_space_group_name_H-M "C M C A"
_symmetry_group_IT_number 64
_symmetry_cell_setting 'orthorhombic'
loop_
_space_group_symop_operation_xyz
x,y,z
-x,1/2-y,1/2+z
x,-y,-z
-x,1/2+y,1/2-z
-x,-y,-z
x,1/2+y,1/2-z
-x,y,z
x,1/2-y,1/2+z
1/2+x,1/2+y,z
1/2-x,-y,1/2+z
1/2+x,1/2-y,-z
1/2-x,y,1/2-z
1/2-x,1/2-y,-z
1/2+x,y,1/2-z
1/2-x,1/2+y,z
1/2+x,-y,1/2+z
loop_
_atom_site_type_symbol
_atom_site_label
_atom_site_fract_x
_atom_site_fract_y
_atom_site_fract_z
Si Si1 0.500000 0.033416 0.917865
Si Si2 0.785564 0.956484 0.379674
Si Si3 0.391575 0.000000 0.500000
Si Si4 0.090029 0.029075 0.675433
Si Si5 0.612682 0.699616 0.243924
Si Si6 0.716962 0.819823 0.550882
Si Si7 0.000000 0.237479 0.989143
Si Si8 0.697235 0.555408 0.790354
O O1 0.500000 0.876437 0.949270
O O2 0.440370 0.032531 0.880850
O O3 0.500000 0.185915 0.953312
O O4 0.772994 0.092493 0.420056
O O5 0.836429 0.991453 0.335155
O O6 0.809105 0.812760 0.412606
O O7 0.721994 0.920967 0.348784
O O8 0.343436 0.928350 0.541931
O O9 0.437549 0.864826 0.479432
O O10 0.073730 0.184387 0.707276
O O11 0.069754 0.885827 0.712218
O O12 0.643342 0.572422 0.206766
O O13 0.668432 0.785359 0.273004
O O14 0.750000 0.750000 0.500000
O O15 0.750000 0.502435 0.750000
#
# Coordination Sequence:
#
# PCOD8263854 Si02
#       8
#     8  16   8  16  16  16   8  16
#     4  11  26  50  72 102 120 178 246 299 344 412
#     4  12  23  36  65  96 135 189 219 270 346 415
#     4  11  24  50  70  98 142 175 228 290 350 403
#     4  11  24  40  66  94 135 174 230 275 347 404
#     4  10  21  38  60  97 136 176 209 283 331 407
#     4  12  25  42  61 102 144 177 220 284 348 407
#     4  10  26  50  82  96 130 186 240 300 332 410
#     4  11  20  34  60  92 137 172 222 256 320 418
#
# _framework density 21.627400000000002
#
# number of rings (size 3 to 8) (size 9 to 14) (size 15 to 20)
#    0.000    0.923    4.615    3.231    2.154    1.846 
#    0.000    4.615    0.000    0.000    0.000    0.000 
#    0.000    0.000    0.000    0.000    0.000    0.000 
#
# Total GULP energy -644490.266960 kJ/mol
# GULP energy per Si atom -12394.043595 kJ/mol
# Density = 2.157818 g / cm^3
# Si number density = 21.627400 Si / 1000 Ang^3
#
#
#
# Elastic Constant Matrix: (Units=GPa)
#
#
# Indices 1 2 3 4 5 6 
#
# 1 73.7199 34.2444 31.5443 0.0000 0.0000 0.0000
# 2 34.2444 123.6133 51.9190 0.0000 0.0000 0.0000
# 3 31.5443 51.9190 123.9914 0.0000 0.0000 0.0000
# 4 0.0000 0.0000 0.0000 40.3740 0.0000 0.0000
# 5 0.0000 0.0000 0.0000 0.0000 -24.5841 0.0000
# 6 0.0000 0.0000 0.0000 0.0000 0.0000 20.1711
#
#
#
# Elastic Compliance Matrix: (Units=1/GPa)
#
#
# Indices 1 2 3 4 5 6 
#
# 1 0.016300 -0.003366 -0.002737 0.000000 0.000000 0.000000
# 2 -0.003366 0.010511 -0.003545 0.000000 0.000000 0.000000
# 3 -0.002737 -0.003545 0.010246 0.000000 0.000000 0.000000
# 4 0.000000 0.000000 0.000000 0.024768 0.000000 0.000000
# 5 0.000000 0.000000 0.000000 0.000000 -0.040677 0.000000
# 6 0.000000 0.000000 0.000000 0.000000 0.000000 0.049576
#
#
# Mechanical properties :
#
#
# Convention : Reuss Voigt Hill
#
# Bulk Modulus (GPa) = 56.30543 61.85998 59.08271
# Shear Modulus (GPa) = 52.11544 20.76664 36.44104
#
# Velocity S-wave (km/s) = 4.91419 3.10207 4.10926
# Velocity P-wave (km/s) = 7.63478 6.44167 7.06346
#
# Compressibility (1/GPa) = 0.01776028
#
# Stress axis : x y z
#
# Youngs Moduli (GPa) = 61.35110 95.13746 97.59983
#
# Poissons Ratio (x) = 0.32021 0.26717
# Poissons Ratio (y) = 0.20649 0.34600
# Poissons Ratio (z) = 0.16794 0.33727
#
# Static dielectric constant tensor:
#      x y z
#    x 3.692960 0.000000 0.000000 
#    y 0.000000 4.200760 0.000000 
#    z 0.000000 0.000000 3.929280 
# 
# 
# High freq. dielectric constant tensor:
#      x y z
#    x 1.828910 0.000000 0.000000 
#    y 0.000000 1.866040 0.000000 
#    z 0.000000 0.000000 1.855010 
# 
# From -- ./inp_files/50816.got.cif
#   From: 2010.03.12/outbox.cif.g09.slc.cpg/sg64_26_cif.got.tgz:50816.got - 2010.04.10 20:19:32.
