data_PCOD8263927
_publ_section_title
;
Structure prediction by ZEFSAII (Michael W. Deem and Ramdas Pophale) SiO2 
 PCOD8263927
Probable space group: C M C A
;
_chemical_formula_sum "Si O2"
_cell_formula_units_Z 96
_cell_length_a 8.908342
_cell_length_b 22.979746
_cell_length_c 23.368191
_cell_angle_alpha 90.000000
_cell_angle_beta 90.000000
_cell_angle_gamma 90.000000
_cell_volume 4783.735947
_symmetry_space_group_name_H-M "C M C A"
_symmetry_group_IT_number 64
_symmetry_cell_setting 'orthorhombic'
loop_
_space_group_symop_operation_xyz
x,y,z
-x,1/2-y,1/2+z
x,-y,-z
-x,1/2+y,1/2-z
-x,-y,-z
x,1/2+y,1/2-z
-x,y,z
x,1/2-y,1/2+z
1/2+x,1/2+y,z
1/2-x,-y,1/2+z
1/2+x,1/2-y,-z
1/2-x,y,1/2-z
1/2-x,1/2-y,-z
1/2+x,y,1/2-z
1/2-x,1/2+y,z
1/2+x,-y,1/2+z
loop_
_atom_site_type_symbol
_atom_site_label
_atom_site_fract_x
_atom_site_fract_y
_atom_site_fract_z
Si Si1 0.823425 0.561693 0.811947
Si Si2 0.326581 0.274017 0.904389
Si Si3 0.326929 0.857513 0.085961
Si Si4 0.820671 0.051797 0.137296
Si Si5 0.323034 0.159344 0.193072
Si Si6 0.829043 0.615241 0.475913
O O1 0.750000 0.570545 0.750000
O O2 0.790393 0.618693 0.850482
O O3 0.749545 0.509694 0.847379
O O4 0.000000 0.550193 0.803922
O O5 0.500000 0.275657 0.882956
O O6 0.274461 0.209175 0.919933
O O7 0.213671 0.294328 0.855574
O O8 0.306893 0.317227 0.958035
O O9 0.500000 0.863217 0.072745
O O10 0.250444 0.895947 0.036372
O O11 0.757065 0.097716 0.182487
O O12 0.768058 0.072076 0.073755
O O13 0.000000 0.050205 0.142350
O O14 0.500000 0.150458 0.198774
O O15 0.250000 0.185742 0.250000
O O16 0.000000 0.599673 0.486502
#
# Coordination Sequence:
#
# PCOD8263927 Si02
#       6
#    16  16  16  16  16  16
#     4  11  24  41  59  82 111 150 192 233 279 331
#     4   9  19  37  56  81 116 152 189 232 279 332
#     4  10  22  38  58  83 116 152 188 230 277 330
#     4  10  21  39  60  84 113 146 184 233 284 335
#     4  11  21  34  55  83 112 146 187 236 287 338
#     4   9  19  35  59  87 114 144 184 231 282 333
#
# _framework density 20.067996999999998
#
# number of rings (size 3 to 8) (size 9 to 14) (size 15 to 20)
#    0.000    2.000    0.000    4.500    0.000    6.667 
#    0.000    5.000    0.000    0.000    0.000    0.000 
#    0.000    0.000    0.000    0.000    0.000    0.000 
#
# Total GULP energy -595160.911220 kJ/mol
# GULP energy per Si atom -12399.185650 kJ/mol
# Density = 2.002232 g / cm^3
# Si number density = 20.067997 Si / 1000 Ang^3
#
#
#
# Elastic Constant Matrix: (Units=GPa)
#
#
# Indices 1 2 3 4 5 6 
#
# 1 95.1879 29.9521 50.1948 0.0000 0.0000 0.0000
# 2 29.9521 64.5152 36.3853 0.0000 0.0000 0.0000
# 3 50.1948 36.3853 101.8200 0.0000 0.0000 0.0000
# 4 0.0000 0.0000 0.0000 16.3940 0.0000 0.0000
# 5 0.0000 0.0000 0.0000 0.0000 37.8935 0.0000
# 6 0.0000 0.0000 0.0000 0.0000 0.0000 25.6752
#
#
#
# Elastic Compliance Matrix: (Units=1/GPa)
#
#
# Indices 1 2 3 4 5 6 
#
# 1 0.014784 -0.003448 -0.006056 0.000000 0.000000 0.000000
# 2 -0.003448 0.020217 -0.005525 0.000000 0.000000 0.000000
# 3 -0.006056 -0.005525 0.014781 0.000000 0.000000 0.000000
# 4 0.000000 0.000000 0.000000 0.060998 0.000000 0.000000
# 5 0.000000 0.000000 0.000000 0.000000 0.026390 0.000000
# 6 0.000000 0.000000 0.000000 0.000000 0.000000 0.038948
#
#
# Mechanical properties :
#
#
# Convention : Reuss Voigt Hill
#
# Bulk Modulus (GPa) = 50.69904 54.95416 52.82660
# Shear Modulus (GPa) = 23.50178 25.65860 24.58019
#
# Velocity S-wave (km/s) = 3.42586 3.57961 3.50358
# Velocity P-wave (km/s) = 6.40056 6.67295 6.53817
#
# Compressibility (1/GPa) = 0.01972424
#
# Stress axis : x y z
#
# Youngs Moduli (GPa) = 67.64067 49.46364 67.65501
#
# Poissons Ratio (x) = 0.17056 0.40971
# Poissons Ratio (y) = 0.23324 0.37376
# Poissons Ratio (z) = 0.40963 0.27326
#
# Static dielectric constant tensor:
#      x y z
#    x 3.602570 0.000000 0.000000 
#    y 0.000000 3.706990 0.000000 
#    z 0.000000 0.000000 3.643500 
# 
# 
# High freq. dielectric constant tensor:
#      x y z
#    x 1.783540 0.000000 0.000000 
#    y 0.000000 1.775060 0.000000 
#    z 0.000000 0.000000 1.790160 
# 
# From -- ./inp_files/43003.got.cif
#   From: 2010.03.12/outbox.cif.g09.slc.cpg/sg64_22_cif.got.tgz:43003.got - 2010.04.10 20:19:32.
