data_PCOD8263034
_publ_section_title
;
Structure prediction by ZEFSAII (Michael W. Deem and Ramdas Pophale) SiO2 
 PCOD8263034
Probable space group: C M C A
;
_chemical_formula_sum "Si O2"
_cell_formula_units_Z 96
_cell_length_a 18.715179
_cell_length_b 25.462189
_cell_length_c 9.674437
_cell_angle_alpha 90.000000
_cell_angle_beta 90.000000
_cell_angle_gamma 90.000000
_cell_volume 4610.153900
_symmetry_space_group_name_H-M "C M C A"
_symmetry_group_IT_number 64
_symmetry_cell_setting 'orthorhombic'
loop_
_space_group_symop_operation_xyz
x,y,z
-x,1/2-y,1/2+z
x,-y,-z
-x,1/2+y,1/2-z
-x,-y,-z
x,1/2+y,1/2-z
-x,y,z
x,1/2-y,1/2+z
1/2+x,1/2+y,z
1/2-x,-y,1/2+z
1/2+x,1/2-y,-z
1/2-x,y,1/2-z
1/2-x,1/2-y,-z
1/2+x,y,1/2-z
1/2-x,1/2+y,z
1/2+x,-y,1/2+z
loop_
_atom_site_type_symbol
_atom_site_label
_atom_site_fract_x
_atom_site_fract_y
_atom_site_fract_z
Si Si1 0.584444 0.366766 0.706854
Si Si2 0.312780 0.530670 0.854424
Si Si3 0.916510 0.301697 0.535106
Si Si4 0.824852 0.649497 0.694680
Si Si5 0.415262 0.482707 0.651398
Si Si6 0.917914 0.682553 0.930365
O O1 0.500000 0.368905 0.709129
O O2 0.610431 0.343437 0.851845
O O3 0.615256 0.424672 0.681873
O O4 0.610568 0.328855 0.584359
O O5 0.250000 0.512921 0.750000
O O6 0.311686 0.593396 0.879334
O O7 0.386679 0.518767 0.775557
O O8 0.306754 0.500000 0.000000
O O9 0.864094 0.309588 0.406264
O O10 0.906287 0.244031 0.599740
O O11 0.000000 0.309671 0.491496
O O12 0.750000 0.673168 0.750000
O O13 0.875675 0.644442 0.827551
O O14 0.386982 0.500000 0.500000
O O15 0.500000 0.485910 0.656322
O O16 0.000000 0.666011 0.915297
#
# Coordination Sequence:
#
# PCOD8263034 Si02
#       6
#    16  16  16  16  16  16
#     4   9  18  33  55  84 111 140 188 241 289 345
#     4  11  24  41  60  83 116 158 203 247 295 353
#     4  10  20  37  61  86 114 151 194 238 286 345
#     4  11  24  39  56  86 121 153 193 241 294 346
#     4  10  20  35  57  84 114 149 190 241 299 353
#     4  10  20  37  62  86 112 151 193 236 288 347
#
# _framework density 20.823599000000002
#
# number of rings (size 3 to 8) (size 9 to 14) (size 15 to 20)
#    0.000    1.833    0.000    4.000    0.000    7.667 
#    0.000    0.833    0.000    0.000    0.000    0.000 
#    0.000    0.000    0.000    0.000    0.000    0.000 
#
# Total GULP energy -595153.537565 kJ/mol
# GULP energy per Si atom -12399.032033 kJ/mol
# Density = 2.077620 g / cm^3
# Si number density = 20.823599 Si / 1000 Ang^3
#
#
#
# Elastic Constant Matrix: (Units=GPa)
#
#
# Indices 1 2 3 4 5 6 
#
# 1 72.7163 28.4300 51.2914 0.0000 0.0000 0.0000
# 2 28.4300 67.7942 23.7385 0.0000 0.0000 0.0000
# 3 51.2914 23.7385 119.4019 0.0000 0.0000 0.0000
# 4 0.0000 0.0000 0.0000 42.8188 0.0000 0.0000
# 5 0.0000 0.0000 0.0000 0.0000 25.6115 0.0000
# 6 0.0000 0.0000 0.0000 0.0000 0.0000 15.0106
#
#
#
# Elastic Compliance Matrix: (Units=1/GPa)
#
#
# Indices 1 2 3 4 5 6 
#
# 1 0.022020 -0.006365 -0.008194 0.000000 0.000000 0.000000
# 2 -0.006365 0.017694 -0.000783 0.000000 0.000000 0.000000
# 3 -0.008194 -0.000783 0.012051 0.000000 0.000000 0.000000
# 4 0.000000 0.000000 0.000000 0.023354 0.000000 0.000000
# 5 0.000000 0.000000 0.000000 0.000000 0.039045 0.000000
# 6 0.000000 0.000000 0.000000 0.000000 0.000000 0.066620
#
#
# Mechanical properties :
#
#
# Convention : Reuss Voigt Hill
#
# Bulk Modulus (GPa) = 47.43819 51.87027 49.65423
# Shear Modulus (GPa) = 22.88374 27.11835 25.00104
#
# Velocity S-wave (km/s) = 3.31861 3.61264 3.46874
# Velocity P-wave (km/s) = 6.12492 6.50884 6.31980
#
# Compressibility (1/GPa) = 0.02108006
#
# Stress axis : x y z
#
# Youngs Moduli (GPa) = 45.41259 56.51571 82.98320
#
# Poissons Ratio (x) = 0.35974 0.67995
# Poissons Ratio (y) = 0.28907 0.06501
# Poissons Ratio (z) = 0.37210 0.04428
#
# Static dielectric constant tensor:
#      x y z
#    x 3.603370 0.000000 0.000000 
#    y 0.000000 3.822280 0.000000 
#    z 0.000000 0.000000 3.855580 
# 
# 
# High freq. dielectric constant tensor:
#      x y z
#    x 1.794430 0.000000 0.000000 
#    y 0.000000 1.816910 0.000000 
#    z 0.000000 0.000000 1.823120 
# 
# From -- ./inp_files/8383.got.cif
#   From: 2010.03.12/outbox.cif.g09.slc.cpg/sg64_5_cif.got.tgz:8383.got - 2010.04.10 20:19:32.
