data_PCOD8263120
_publ_section_title
;
Structure prediction by ZEFSAII (Michael W. Deem and Ramdas Pophale) SiO2 
 PCOD8263120
Probable space group: C M C A
;
_chemical_formula_sum "Si O2"
_cell_formula_units_Z 80
_cell_length_a 8.585631
_cell_length_b 19.027763
_cell_length_c 25.686271
_cell_angle_alpha 90.000000
_cell_angle_beta 90.000000
_cell_angle_gamma 90.000000
_cell_volume 4196.246700
_symmetry_space_group_name_H-M "C M C A"
_symmetry_group_IT_number 64
_symmetry_cell_setting 'orthorhombic'
loop_
_space_group_symop_operation_xyz
x,y,z
-x,1/2-y,1/2+z
x,-y,-z
-x,1/2+y,1/2-z
-x,-y,-z
x,1/2+y,1/2-z
-x,y,z
x,1/2-y,1/2+z
1/2+x,1/2+y,z
1/2-x,-y,1/2+z
1/2+x,1/2-y,-z
1/2-x,y,1/2-z
1/2-x,1/2-y,-z
1/2+x,y,1/2-z
1/2-x,1/2+y,z
1/2+x,-y,1/2+z
loop_
_atom_site_type_symbol
_atom_site_label
_atom_site_fract_x
_atom_site_fract_y
_atom_site_fract_z
Si Si1 0.819946 0.126532 0.027970
Si Si2 0.321300 0.989002 0.611908
Si Si3 0.681417 0.727236 0.389348
Si Si4 0.317016 0.871073 0.693051
Si Si5 0.179268 0.869435 0.416117
O O1 0.789238 0.055294 0.059701
O O2 0.775390 0.193418 0.062793
O O3 0.000000 0.133814 0.011895
O O4 0.716048 0.123964 0.976948
O O5 0.500000 0.013274 0.613420
O O6 0.278323 0.942214 0.661851
O O7 0.213560 0.057272 0.612646
O O8 0.500000 0.713172 0.397622
O O9 0.734997 0.694912 0.334486
O O10 0.716945 0.809878 0.388738
O O11 0.500000 0.856347 0.694110
O O12 0.250000 0.880522 0.750000
O O13 0.000000 0.849946 0.408612
#
# Coordination Sequence:
#
# PCOD8263120 Si02
#       5
#    16  16  16  16  16
#     4  10  20  36  56  79 112 151 188 224 269 326
#     4   9  20  37  56  80 111 146 183 224 271 324
#     4  11  22  37  57  81 111 146 187 229 272 323
#     4  10  21  40  64  86 109 139 179 225 275 330
#     4  12  23  34  52  81 116 149 185 228 274 323
#
# _framework density 19.064655999999999
#
# number of rings (size 3 to 8) (size 9 to 14) (size 15 to 20)
#    0.000    1.600    0.000    7.200    0.000    7.200 
#    0.000    1.000    0.000    2.400    0.000    0.000 
#    0.000    0.000    0.000    0.000    0.000    0.000 
#
# Total GULP energy -496240.751516 kJ/mol
# GULP energy per Si atom -12406.018788 kJ/mol
# Density = 1.902126 g / cm^3
# Si number density = 19.064656 Si / 1000 Ang^3
#
#
#
# Elastic Constant Matrix: (Units=GPa)
#
#
# Indices 1 2 3 4 5 6 
#
# 1 71.4651 30.6874 19.6934 0.0000 0.0000 0.0000
# 2 30.6874 113.2384 38.9416 0.0000 0.0000 0.0000
# 3 19.6934 38.9416 107.3683 0.0000 0.0000 0.0000
# 4 0.0000 0.0000 0.0000 10.9594 0.0000 0.0000
# 5 0.0000 0.0000 0.0000 0.0000 33.4466 0.0000
# 6 0.0000 0.0000 0.0000 0.0000 0.0000 33.9487
#
#
#
# Elastic Compliance Matrix: (Units=1/GPa)
#
#
# Indices 1 2 3 4 5 6 
#
# 1 0.016062 -0.003815 -0.001562 0.000000 0.000000 0.000000
# 2 -0.003815 0.010996 -0.003288 0.000000 0.000000 0.000000
# 3 -0.001562 -0.003288 0.010793 0.000000 0.000000 0.000000
# 4 0.000000 0.000000 0.000000 0.091246 0.000000 0.000000
# 5 0.000000 0.000000 0.000000 0.000000 0.029898 0.000000
# 6 0.000000 0.000000 0.000000 0.000000 0.000000 0.029456
#
#
# Mechanical properties :
#
#
# Convention : Reuss Voigt Hill
#
# Bulk Modulus (GPa) = 48.73642 52.30184 50.51913
# Shear Modulus (GPa) = 23.51586 29.18756 26.35171
#
# Velocity S-wave (km/s) = 3.51590 3.91702 3.72187
# Velocity P-wave (km/s) = 6.48856 6.92465 6.71015
#
# Compressibility (1/GPa) = 0.02051853
#
# Stress axis : x y z
#
# Youngs Moduli (GPa) = 62.25986 90.94461 92.65368
#
# Poissons Ratio (x) = 0.34700 0.14474
# Poissons Ratio (y) = 0.23755 0.30467
# Poissons Ratio (z) = 0.09726 0.29905
#
# Static dielectric constant tensor:
#      x y z
#    x 3.515280 0.000000 0.000000 
#    y 0.000000 3.520030 0.000000 
#    z 0.000000 0.000000 3.326500 
# 
# 
# High freq. dielectric constant tensor:
#      x y z
#    x 1.752320 0.000000 0.000000 
#    y 0.000000 1.746380 0.000000 
#    z 0.000000 0.000000 1.724880 
# 
# From -- ./inp_files/47798.got.cif
#   From: 2010.03.12/outbox.cif.g09.slc.cpg/sg64_24_cif.got.tgz:47798.got - 2010.04.10 20:19:32.
