data_PCOD8263229
_publ_section_title
;
Structure prediction by ZEFSAII (Michael W. Deem and Ramdas Pophale) SiO2 
 PCOD8263229
Probable space group: C M C A
;
_chemical_formula_sum "Si O2"
_cell_formula_units_Z 96
_cell_length_a 23.033834
_cell_length_b 9.587128
_cell_length_c 19.811823
_cell_angle_alpha 90.000000
_cell_angle_beta 90.000000
_cell_angle_gamma 90.000000
_cell_volume 4375.011488
_symmetry_space_group_name_H-M "C M C A"
_symmetry_group_IT_number 64
_symmetry_cell_setting 'orthorhombic'
loop_
_space_group_symop_operation_xyz
x,y,z
-x,1/2-y,1/2+z
x,-y,-z
-x,1/2+y,1/2-z
-x,-y,-z
x,1/2+y,1/2-z
-x,y,z
x,1/2-y,1/2+z
1/2+x,1/2+y,z
1/2-x,-y,1/2+z
1/2+x,1/2-y,-z
1/2-x,y,1/2-z
1/2-x,1/2-y,-z
1/2+x,y,1/2-z
1/2-x,1/2+y,z
1/2+x,-y,1/2+z
loop_
_atom_site_type_symbol
_atom_site_label
_atom_site_fract_x
_atom_site_fract_y
_atom_site_fract_z
Si Si1 0.898832 0.754846 0.604314
Si Si2 0.384685 0.160615 0.247912
Si Si3 0.566160 0.544955 0.121688
Si Si4 0.172992 0.995806 0.571859
Si Si5 0.307558 0.088540 0.788592
Si Si6 0.435247 0.813465 0.039143
O O1 0.919863 0.811349 0.677992
O O2 0.891890 0.587420 0.608588
O O3 0.939966 0.795897 0.541920
O O4 0.837012 0.832580 0.590887
O O5 0.429396 0.097533 0.301461
O O6 0.359097 0.302997 0.277658
O O7 0.329828 0.059432 0.237963
O O8 0.500000 0.497368 0.108674
O O9 0.585256 0.666239 0.070532
O O10 0.207279 0.075234 0.631162
O O11 0.109366 0.067412 0.561895
O O12 0.207218 0.000000 0.500000
O O13 0.250000 0.135628 0.750000
O O14 0.500000 0.852997 0.065195
#
# Coordination Sequence:
#
# PCOD8263229 Si02
#       6
#    16  16  16  16  16  16
#     4  10  21  36  57  83 124 162 201 245 295 357
#     4  11  22  41  60  90 121 156 206 257 304 363
#     4  11  22  36  57  86 126 167 203 244 298 365
#     4   9  20  38  63  92 125 158 200 263 303 362
#     4  11  22  41  69  87 115 160 204 258 322 368
#     4  10  20  36  60  89 122 166 207 244 300 364
#
# _framework density 21.942799000000001
#
# number of rings (size 3 to 8) (size 9 to 14) (size 15 to 20)
#    0.000    1.667    3.333    1.500    0.000    6.333 
#    0.000    2.500    3.667    4.000    0.000    0.000 
#    0.000    0.000    0.000    0.000    0.000    0.000 
#
# Total GULP energy -594823.156138 kJ/mol
# GULP energy per Si atom -12392.149086 kJ/mol
# Density = 2.189286 g / cm^3
# Si number density = 21.942799 Si / 1000 Ang^3
#
#
#
# Elastic Constant Matrix: (Units=GPa)
#
#
# Indices 1 2 3 4 5 6 
#
# 1 38.6458 13.5383 21.7639 0.0000 0.0000 0.0000
# 2 13.5383 116.0162 40.2781 0.0000 0.0000 0.0000
# 3 21.7639 40.2781 159.9441 0.0000 0.0000 0.0000
# 4 0.0000 0.0000 0.0000 34.5311 0.0000 0.0000
# 5 0.0000 0.0000 0.0000 0.0000 27.0617 0.0000
# 6 0.0000 0.0000 0.0000 0.0000 0.0000 14.9333
#
#
#
# Elastic Compliance Matrix: (Units=1/GPa)
#
#
# Indices 1 2 3 4 5 6 
#
# 1 0.028513 -0.002170 -0.003333 0.000000 0.000000 0.000000
# 2 -0.002170 0.009610 -0.002125 0.000000 0.000000 0.000000
# 3 -0.003333 -0.002125 0.007241 0.000000 0.000000 0.000000
# 4 0.000000 0.000000 0.000000 0.028959 0.000000 0.000000
# 5 0.000000 0.000000 0.000000 0.000000 0.036953 0.000000
# 6 0.000000 0.000000 0.000000 0.000000 0.000000 0.066964
#
#
# Mechanical properties :
#
#
# Convention : Reuss Voigt Hill
#
# Bulk Modulus (GPa) = 33.21365 51.75186 42.48276
# Shear Modulus (GPa) = 24.56595 31.24028 27.90312
#
# Velocity S-wave (km/s) = 3.34959 3.77731 3.56986
# Velocity P-wave (km/s) = 5.48899 6.53147 6.03279
#
# Compressibility (1/GPa) = 0.03010810
#
# Stress axis : x y z
#
# Youngs Moduli (GPa) = 35.07113 104.05369 138.10501
#
# Poissons Ratio (x) = 0.22580 0.46036
# Poissons Ratio (y) = 0.07611 0.29346
# Poissons Ratio (z) = 0.11691 0.22110
#
# Static dielectric constant tensor:
#      x y z
#    x 3.177220 0.000000 0.000000 
#    y 0.000000 4.126940 0.000000 
#    z 0.000000 0.000000 4.447370 
# 
# 
# High freq. dielectric constant tensor:
#      x y z
#    x 1.795280 0.000000 0.000000 
#    y 0.000000 1.879250 0.000000 
#    z 0.000000 0.000000 1.888060 
# 
# From -- ./inp_files/41784.got.cif
#   From: 2010.03.12/outbox.cif.g09.slc.cpg/sg64_21_cif.got.tgz:41784.got - 2010.04.10 20:19:32.
