data_PCOD8263646
_publ_section_title
;
Structure prediction by ZEFSAII (Michael W. Deem and Ramdas Pophale) SiO2 
 PCOD8263646
Probable space group: C M C A
;
_chemical_formula_sum "Si O2"
_cell_formula_units_Z 80
_cell_length_a 14.138323
_cell_length_b 27.763363
_cell_length_c 10.776730
_cell_angle_alpha 90.000000
_cell_angle_beta 90.000000
_cell_angle_gamma 90.000000
_cell_volume 4230.161739
_symmetry_space_group_name_H-M "C M C A"
_symmetry_group_IT_number 64
_symmetry_cell_setting 'orthorhombic'
loop_
_space_group_symop_operation_xyz
x,y,z
-x,1/2-y,1/2+z
x,-y,-z
-x,1/2+y,1/2-z
-x,-y,-z
x,1/2+y,1/2-z
-x,y,z
x,1/2-y,1/2+z
1/2+x,1/2+y,z
1/2-x,-y,1/2+z
1/2+x,1/2-y,-z
1/2-x,y,1/2-z
1/2-x,1/2-y,-z
1/2+x,y,1/2-z
1/2-x,1/2+y,z
1/2+x,-y,1/2+z
loop_
_atom_site_type_symbol
_atom_site_label
_atom_site_fract_x
_atom_site_fract_y
_atom_site_fract_z
Si Si1 0.391991 0.428245 0.687376
Si Si2 0.807320 0.760239 0.124013
Si Si3 0.205324 0.949893 0.940834
Si Si4 0.896376 0.332225 0.942856
Si Si5 0.271523 0.636943 0.886496
O O1 0.500000 0.445900 0.660704
O O2 0.316586 0.453667 0.595261
O O3 0.363628 0.440266 0.826709
O O4 0.381895 0.370927 0.667633
O O5 0.750000 0.750953 0.250000
O O6 0.890315 0.720610 0.120457
O O7 0.841815 0.816357 0.121294
O O8 0.750000 0.750000 0.000000
O O9 0.184435 0.906640 0.036353
O O10 0.173842 0.000000 0.000000
O O11 0.000000 0.337733 0.002182
O O12 0.824715 0.342399 0.054260
O O13 0.250000 0.616472 0.750000
#
# Coordination Sequence:
#
# PCOD8263646 Si02
#       5
#    16  16  16  16  16
#     4   9  20  37  56  83 111 139 182 236 276 324
#     4   9  18  31  53  77 106 148 177 214 275 327
#     4  10  21  35  61  82 105 147 193 225 278 338
#     4   9  18  34  57  81 108 142 184 223 266 330
#     4   9  19  35  54  78 115 143 177 224 281 326
#
# _framework density 18.911805999999999
#
# number of rings (size 3 to 8) (size 9 to 14) (size 15 to 20)
#    0.000    2.800    0.000    0.000   11.200    0.800 
#    0.000   11.000    0.000    0.000    0.000    0.000 
#    0.000    0.000    0.000    0.000    0.000    0.000 
#
# Total GULP energy -495591.245260 kJ/mol
# GULP energy per Si atom -12389.781131 kJ/mol
# Density = 1.886876 g / cm^3
# Si number density = 18.911806 Si / 1000 Ang^3
#
#
#
# Elastic Constant Matrix: (Units=GPa)
#
#
# Indices 1 2 3 4 5 6 
#
# 1 63.2398 19.7450 12.5957 0.0000 0.0000 0.0000
# 2 19.7450 113.5679 42.7970 0.0000 0.0000 0.0000
# 3 12.5957 42.7970 110.7823 0.0000 0.0000 0.0000
# 4 0.0000 0.0000 0.0000 15.3925 0.0000 0.0000
# 5 0.0000 0.0000 0.0000 0.0000 14.4134 0.0000
# 6 0.0000 0.0000 0.0000 0.0000 0.0000 16.4384
#
#
#
# Elastic Compliance Matrix: (Units=1/GPa)
#
#
# Indices 1 2 3 4 5 6 
#
# 1 0.016799 -0.002576 -0.000915 0.000000 0.000000 0.000000
# 2 -0.002576 0.010701 -0.003841 0.000000 0.000000 0.000000
# 3 -0.000915 -0.003841 0.010615 0.000000 0.000000 0.000000
# 4 0.000000 0.000000 0.000000 0.064967 0.000000 0.000000
# 5 0.000000 0.000000 0.000000 0.000000 0.069380 0.000000
# 6 0.000000 0.000000 0.000000 0.000000 0.000000 0.060833
#
#
# Mechanical properties :
#
#
# Convention : Reuss Voigt Hill
#
# Bulk Modulus (GPa) = 42.64237 48.65170 45.64704
# Shear Modulus (GPa) = 19.54845 23.41235 21.48040
#
# Velocity S-wave (km/s) = 3.21855 3.52230 3.37385
# Velocity P-wave (km/s) = 6.03399 6.50566 6.27426
#
# Compressibility (1/GPa) = 0.02345085
#
# Stress axis : x y z
#
# Youngs Moduli (GPa) = 59.52617 93.45287 94.21032
#
# Poissons Ratio (x) = 0.24073 0.08619
# Poissons Ratio (y) = 0.15334 0.36185
# Poissons Ratio (z) = 0.05446 0.35895
#
# Static dielectric constant tensor:
#      x y z
#    x 3.320510 0.000000 0.000000 
#    y 0.000000 3.801680 0.000000 
#    z 0.000000 0.000000 3.431910 
# 
# 
# High freq. dielectric constant tensor:
#      x y z
#    x 1.698730 0.000000 0.000000 
#    y 0.000000 1.744390 0.000000 
#    z 0.000000 0.000000 1.738830 
# 
# From -- ./inp_files/14714.got.cif
#   From: 2010.03.12/outbox.cif.g09.slc.cpg/sg64_8_cif.got.tgz:14714.got - 2010.04.10 20:19:32.
