data_PCOD8263373
_publ_section_title
;
Structure prediction by ZEFSAII (Michael W. Deem and Ramdas Pophale) SiO2 
 PCOD8263373
Probable space group: C M C A
;
_chemical_formula_sum "Si O2"
_cell_formula_units_Z 88
_cell_length_a 21.172125
_cell_length_b 12.635398
_cell_length_c 17.369824
_cell_angle_alpha 90.000000
_cell_angle_beta 90.000000
_cell_angle_gamma 90.000000
_cell_volume 4646.744500
_symmetry_space_group_name_H-M "C M C A"
_symmetry_group_IT_number 64
_symmetry_cell_setting 'orthorhombic'
loop_
_space_group_symop_operation_xyz
x,y,z
-x,1/2-y,1/2+z
x,-y,-z
-x,1/2+y,1/2-z
-x,-y,-z
x,1/2+y,1/2-z
-x,y,z
x,1/2-y,1/2+z
1/2+x,1/2+y,z
1/2-x,-y,1/2+z
1/2+x,1/2-y,-z
1/2-x,y,1/2-z
1/2-x,1/2-y,-z
1/2+x,y,1/2-z
1/2-x,1/2+y,z
1/2+x,-y,1/2+z
loop_
_atom_site_type_symbol
_atom_site_label
_atom_site_fract_x
_atom_site_fract_y
_atom_site_fract_z
Si Si1 0.676377 0.283686 0.998857
Si Si2 0.427193 0.113293 0.039634
Si Si3 0.750000 0.256876 0.750000
Si Si4 0.070708 0.694713 0.202738
Si Si5 0.650397 0.625577 0.843198
Si Si6 0.657103 0.619389 0.162154
O O1 0.650234 0.348900 0.926223
O O2 0.750000 0.250000 0.000000
O O3 0.627790 0.185819 0.003996
O O4 0.670867 0.364670 0.068857
O O5 0.500000 0.153138 0.024169
O O6 0.416065 0.111147 0.132663
O O7 0.417683 0.000000 0.000000
O O8 0.698768 0.181042 0.713825
O O9 0.725978 0.336610 0.815980
O O10 0.084304 0.813180 0.170179
O O11 0.109129 0.674957 0.279945
O O12 0.000000 0.688644 0.230979
O O13 0.646697 0.503614 0.822844
#
# Coordination Sequence:
#
# PCOD8263373 Si02
#       6
#    16  16   8  16  16  16
#     4  11  22  39  56  89 125 158 203 250 302 373
#     4   9  20  40  64  87 118 161 206 254 308 364
#     4  10  20  38  54  82 116 148 194 242 286 348
#     4   9  21  40  59  86 120 152 200 255 299 361
#     4  10  21  38  58  83 117 154 195 242 299 357
#     4  11  22  36  59  84 116 158 195 242 303 360
#
# _framework density 18.937989000000002
#
# number of rings (size 3 to 8) (size 9 to 14) (size 15 to 20)
#    0.000    2.000    1.818    1.091    0.000    5.818 
#    0.000    1.818    0.000    5.455    0.000    0.000 
#    0.000    0.000    0.000    0.000    0.000    0.000 
#
# Total GULP energy -545142.538298 kJ/mol
# GULP energy per Si atom -12389.603143 kJ/mol
# Density = 1.889489 g / cm^3
# Si number density = 18.937989 Si / 1000 Ang^3
#
#
#
# Elastic Constant Matrix: (Units=GPa)
#
#
# Indices 1 2 3 4 5 6 
#
# 1 91.1186 35.1182 24.4306 0.0000 0.0000 0.0000
# 2 35.1182 103.8925 38.9773 0.0000 0.0000 0.0000
# 3 24.4306 38.9773 108.7588 0.0000 0.0000 0.0000
# 4 0.0000 0.0000 0.0000 30.1125 0.0000 0.0000
# 5 0.0000 0.0000 0.0000 0.0000 24.1137 0.0000
# 6 0.0000 0.0000 0.0000 0.0000 0.0000 18.2906
#
#
#
# Elastic Compliance Matrix: (Units=1/GPa)
#
#
# Indices 1 2 3 4 5 6 
#
# 1 0.012837 -0.003763 -0.001535 0.000000 0.000000 0.000000
# 2 -0.003763 0.012224 -0.003535 0.000000 0.000000 0.000000
# 3 -0.001535 -0.003535 0.010806 0.000000 0.000000 0.000000
# 4 0.000000 0.000000 0.000000 0.033209 0.000000 0.000000
# 5 0.000000 0.000000 0.000000 0.000000 0.041470 0.000000
# 6 0.000000 0.000000 0.000000 0.000000 0.000000 0.054673
#
#
# Mechanical properties :
#
#
# Convention : Reuss Voigt Hill
#
# Bulk Modulus (GPa) = 54.94559 55.64690 55.29624
# Shear Modulus (GPa) = 26.46169 28.18628 27.32398
#
# Velocity S-wave (km/s) = 3.74208 3.86209 3.80256
# Velocity P-wave (km/s) = 6.90994 7.02390 6.96715
#
# Compressibility (1/GPa) = 0.01819982
#
# Stress axis : x y z
#
# Youngs Moduli (GPa) = 77.90204 81.80754 92.53714
#
# Poissons Ratio (x) = 0.30787 0.14203
# Poissons Ratio (y) = 0.29317 0.32716
# Poissons Ratio (z) = 0.11956 0.28923
#
# Static dielectric constant tensor:
#      x y z
#    x 3.882690 0.000000 0.000000 
#    y 0.000000 3.367780 0.000000 
#    z 0.000000 0.000000 3.604000 
# 
# 
# High freq. dielectric constant tensor:
#      x y z
#    x 1.741270 0.000000 0.000000 
#    y 0.000000 1.724660 0.000000 
#    z 0.000000 0.000000 1.751890 
# 
# From -- ./inp_files/34111.got.cif
#   From: 2010.03.12/outbox.cif.g09.slc.cpg/sg64_18_cif.got.tgz:34111.got - 2010.04.10 20:19:32.
