data_PCOD8263791
_publ_section_title
;
Structure prediction by ZEFSAII (Michael W. Deem and Ramdas Pophale) SiO2 
 PCOD8263791
Probable space group: C M C A
;
_chemical_formula_sum "Si O2"
_cell_formula_units_Z 96
_cell_length_a 14.980019
_cell_length_b 21.788740
_cell_length_c 14.271494
_cell_angle_alpha 90.000000
_cell_angle_beta 90.000000
_cell_angle_gamma 90.000000
_cell_volume 4658.154833
_symmetry_space_group_name_H-M "C M C A"
_symmetry_group_IT_number 64
_symmetry_cell_setting 'orthorhombic'
loop_
_space_group_symop_operation_xyz
x,y,z
-x,1/2-y,1/2+z
x,-y,-z
-x,1/2+y,1/2-z
-x,-y,-z
x,1/2+y,1/2-z
-x,y,z
x,1/2-y,1/2+z
1/2+x,1/2+y,z
1/2-x,-y,1/2+z
1/2+x,1/2-y,-z
1/2-x,y,1/2-z
1/2-x,1/2-y,-z
1/2+x,y,1/2-z
1/2-x,1/2+y,z
1/2+x,-y,1/2+z
loop_
_atom_site_type_symbol
_atom_site_label
_atom_site_fract_x
_atom_site_fract_y
_atom_site_fract_z
Si Si1 0.400504 0.733568 0.067544
Si Si2 0.223857 0.118044 0.049491
Si Si3 0.318676 0.603058 0.835561
Si Si4 0.854419 0.728880 0.737653
Si Si5 0.596801 0.016741 0.392744
Si Si6 0.900087 0.673497 0.094217
O O1 0.500000 0.706309 0.051052
O O2 0.327501 0.680699 0.070507
O O3 0.399249 0.774887 0.160890
O O4 0.373078 0.779245 0.986111
O O5 0.174823 0.067049 0.113350
O O6 0.325275 0.120288 0.089010
O O7 0.227348 0.103686 0.938339
O O8 0.250000 0.598587 0.750000
O O9 0.374870 0.666217 0.820884
O O10 0.381195 0.543343 0.830812
O O11 0.750000 0.738520 0.750000
O O12 0.896857 0.788693 0.690182
O O13 0.500000 0.041905 0.357070
O O14 0.585927 0.000000 0.500000
O O15 0.000000 0.645672 0.081691
#
# Coordination Sequence:
#
# PCOD8263791 Si02
#       6
#    16  16  16  16  16  16
#     4  11  22  35  57  91 126 161 202 248 309 371
#     4  11  20  40  62  83 125 163 204 253 299 363
#     4  10  21  37  63  89 121 159 201 250 310 362
#     4  11  20  36  59  86 123 163 195 247 304 363
#     4   9  20  38  63  89 112 152 202 250 302 353
#     4  11  22  36  57  88 123 159 197 246 304 361
#
# _framework density 20.609019
#
# number of rings (size 3 to 8) (size 9 to 14) (size 15 to 20)
#    0.000    1.500    3.333    3.500    0.000    2.000 
#    3.000    0.833    0.000    4.500    0.000    0.000 
#    0.000    0.000    0.000    0.000    0.000    0.000 
#
# Total GULP energy -595021.570459 kJ/mol
# GULP energy per Si atom -12396.282718 kJ/mol
# Density = 2.056211 g / cm^3
# Si number density = 20.609019 Si / 1000 Ang^3
#
#
#
# Elastic Constant Matrix: (Units=GPa)
#
#
# Indices 1 2 3 4 5 6 
#
# 1 145.9153 64.5414 7.0124 0.0000 0.0000 0.0000
# 2 64.5414 82.8487 18.6018 0.0000 0.0000 0.0000
# 3 7.0124 18.6018 61.8292 0.0000 0.0000 0.0000
# 4 0.0000 0.0000 0.0000 25.4897 0.0000 0.0000
# 5 0.0000 0.0000 0.0000 0.0000 14.1300 0.0000
# 6 0.0000 0.0000 0.0000 0.0000 0.0000 20.9253
#
#
#
# Elastic Compliance Matrix: (Units=1/GPa)
#
#
# Indices 1 2 3 4 5 6 
#
# 1 0.010563 -0.008537 0.001370 0.000000 0.000000 0.000000
# 2 -0.008537 0.019844 -0.005002 0.000000 0.000000 0.000000
# 3 0.001370 -0.005002 0.017523 0.000000 0.000000 0.000000
# 4 0.000000 0.000000 0.000000 0.039232 0.000000 0.000000
# 5 0.000000 0.000000 0.000000 0.000000 0.070771 0.000000
# 6 0.000000 0.000000 0.000000 0.000000 0.000000 0.047789
#
#
# Mechanical properties :
#
#
# Convention : Reuss Voigt Hill
#
# Bulk Modulus (GPa) = 42.38499 52.32271 47.35385
# Shear Modulus (GPa) = 21.01515 25.47152 23.24334
#
# Velocity S-wave (km/s) = 3.19675 3.51941 3.36195
# Velocity P-wave (km/s) = 5.85120 6.47753 6.17231
#
# Compressibility (1/GPa) = 0.02359326
#
# Stress axis : x y z
#
# Youngs Moduli (GPa) = 94.66570 50.39372 57.06775
#
# Poissons Ratio (x) = 0.43021 -0.07820
# Poissons Ratio (y) = 0.80815 0.28545
# Poissons Ratio (z) = -0.12972 0.25206
#
# Static dielectric constant tensor:
#      x y z
#    x 2.605850 0.000000 0.000000 
#    y 0.000000 3.785570 0.000000 
#    z 0.000000 0.000000 3.755100 
# 
# 
# High freq. dielectric constant tensor:
#      x y z
#    x 1.809710 0.000000 0.000000 
#    y 0.000000 1.781850 0.000000 
#    z 0.000000 0.000000 1.802970 
# 
# From -- ./inp_files/23913.got.cif
#   From: 2010.03.12/outbox.cif.g09.slc.cpg/sg64_12_cif.got.tgz:23913.got - 2010.04.10 20:19:32.
