data_PCOD8263785
_publ_section_title
;
Structure prediction by ZEFSAII (Michael W. Deem and Ramdas Pophale) SiO2 
 PCOD8263785
Probable space group: C M C A
;
_chemical_formula_sum "Si O2"
_cell_formula_units_Z 80
_cell_length_a 14.617158
_cell_length_b 9.883454
_cell_length_c 27.811751
_cell_angle_alpha 90.000000
_cell_angle_beta 90.000000
_cell_angle_gamma 90.000000
_cell_volume 4017.908286
_symmetry_space_group_name_H-M "C M C A"
_symmetry_group_IT_number 64
_symmetry_cell_setting 'orthorhombic'
loop_
_space_group_symop_operation_xyz
x,y,z
-x,1/2-y,1/2+z
x,-y,-z
-x,1/2+y,1/2-z
-x,-y,-z
x,1/2+y,1/2-z
-x,y,z
x,1/2-y,1/2+z
1/2+x,1/2+y,z
1/2-x,-y,1/2+z
1/2+x,1/2-y,-z
1/2-x,y,1/2-z
1/2-x,1/2-y,-z
1/2+x,y,1/2-z
1/2-x,1/2+y,z
1/2+x,-y,1/2+z
loop_
_atom_site_type_symbol
_atom_site_label
_atom_site_fract_x
_atom_site_fract_y
_atom_site_fract_z
Si Si1 0.660289 0.791844 0.129601
Si Si2 0.142217 0.883603 0.032170
Si Si3 0.500000 0.017024 0.706460
Si Si4 0.000000 0.710164 0.796726
Si Si5 0.836527 0.473876 0.365973
Si Si6 0.359162 0.632256 0.524476
O O1 0.589182 0.815811 0.171777
O O2 0.746046 0.885818 0.143911
O O3 0.689019 0.632754 0.126017
O O4 0.611828 0.837968 0.079596
O O5 0.114442 0.912620 0.086876
O O6 0.250679 0.878944 0.026158
O O7 0.102250 0.744729 0.011910
O O8 0.098319 0.000000 0.000000
O O9 0.500000 0.862109 0.723623
O O10 0.500000 0.109141 0.752757
O O11 0.408036 0.046696 0.676741
O O12 0.402694 0.500000 0.500000
#
# Coordination Sequence:
#
# PCOD8263785 Si02
#       6
#    16  16   8   8  16  16
#     4  10  21  38  61  88 118 156 192 236 286 346
#     4   9  15  28  50  82 117 153 188 225 273 334
#     4  10  24  46  62  85 114 149 192 250 299 348
#     4  10  24  46  64  82 116 149 192 249 303 344
#     4  10  21  37  62  88 118 152 197 234 286 345
#     4   9  17  28  50  83 120 155 190 226 277 335
#
# _framework density 19.910858000000001
#
# number of rings (size 3 to 8) (size 9 to 14) (size 15 to 20)
#    0.000    2.400    2.000    0.000    8.400    2.400 
#    0.000    6.000    0.000    0.000    0.000    0.000 
#    0.000    0.000    0.000    0.000    0.000    0.000 
#
# Total GULP energy -495710.594110 kJ/mol
# GULP energy per Si atom -12392.764853 kJ/mol
# Density = 1.986554 g / cm^3
# Si number density = 19.910858 Si / 1000 Ang^3
#
#
#
# Elastic Constant Matrix: (Units=GPa)
#
#
# Indices 1 2 3 4 5 6 
#
# 1 76.3541 51.0383 51.2081 0.0000 0.0000 0.0000
# 2 51.0383 181.4098 109.1346 0.0000 0.0000 0.0000
# 3 51.2081 109.1346 166.9559 0.0000 0.0000 0.0000
# 4 0.0000 0.0000 0.0000 45.1895 0.0000 0.0000
# 5 0.0000 0.0000 0.0000 0.0000 42.8060 0.0000
# 6 0.0000 0.0000 0.0000 0.0000 0.0000 14.7814
#
#
#
# Elastic Compliance Matrix: (Units=1/GPa)
#
#
# Indices 1 2 3 4 5 6 
#
# 1 0.017288 -0.002759 -0.003499 0.000000 0.000000 0.000000
# 2 -0.002759 0.009525 -0.005380 0.000000 0.000000 0.000000
# 3 -0.003499 -0.005380 0.010580 0.000000 0.000000 0.000000
# 4 0.000000 0.000000 0.000000 0.022129 0.000000 0.000000
# 5 0.000000 0.000000 0.000000 0.000000 0.023361 0.000000
# 6 0.000000 0.000000 0.000000 0.000000 0.000000 0.067653
#
#
# Mechanical properties :
#
#
# Convention : Reuss Voigt Hill
#
# Bulk Modulus (GPa) = 70.83909 94.16465 82.50187
# Shear Modulus (GPa) = 28.00849 34.77795 31.39322
#
# Velocity S-wave (km/s) = 3.75466 4.18387 3.97506
# Velocity P-wave (km/s) = 7.37916 8.41044 7.91162
#
# Compressibility (1/GPa) = 0.01411650
#
# Stress axis : x y z
#
# Youngs Moduli (GPa) = 57.84478 104.98436 94.52012
#
# Poissons Ratio (x) = 0.28962 0.33074
# Poissons Ratio (y) = 0.15958 0.50854
# Poissons Ratio (z) = 0.20241 0.56484
#
# Static dielectric constant tensor:
#      x y z
#    x 3.291200 0.000000 0.000000 
#    y 0.000000 4.004010 0.000000 
#    z 0.000000 0.000000 3.635470 
# 
# 
# High freq. dielectric constant tensor:
#      x y z
#    x 1.760560 0.000000 0.000000 
#    y 0.000000 1.792450 0.000000 
#    z 0.000000 0.000000 1.773220 
# 
# From -- ./inp_files/53538.got.cif
#   From: 2010.03.12/outbox.cif.g09.slc.cpg/sg64_27_cif.got.tgz:53538.got - 2010.04.10 20:19:32.
