data_PCOD8263978
_publ_section_title
;
Structure prediction by ZEFSAII (Michael W. Deem and Ramdas Pophale) SiO2 
 PCOD8263978
Probable space group: C M C A
;
_chemical_formula_sum "Si O2"
_cell_formula_units_Z 48
_cell_length_a 16.540976
_cell_length_b 25.641721
_cell_length_c 4.890133
_cell_angle_alpha 90.000000
_cell_angle_beta 90.000000
_cell_angle_gamma 90.000000
_cell_volume 2074.096569
_symmetry_space_group_name_H-M "C M C A"
_symmetry_group_IT_number 64
_symmetry_cell_setting 'orthorhombic'
loop_
_space_group_symop_operation_xyz
x,y,z
-x,1/2-y,1/2+z
x,-y,-z
-x,1/2+y,1/2-z
-x,-y,-z
x,1/2+y,1/2-z
-x,y,z
x,1/2-y,1/2+z
1/2+x,1/2+y,z
1/2-x,-y,1/2+z
1/2+x,1/2-y,-z
1/2-x,y,1/2-z
1/2-x,1/2-y,-z
1/2+x,y,1/2-z
1/2-x,1/2+y,z
1/2+x,-y,1/2+z
loop_
_atom_site_type_symbol
_atom_site_label
_atom_site_fract_x
_atom_site_fract_y
_atom_site_fract_z
Si Si1 0.844447 0.217025 0.264213
Si Si2 0.659203 0.051664 0.652852
Si Si3 0.907912 0.892841 0.671661
O O1 0.868342 0.265542 0.459646
O O2 0.750000 0.203664 0.250000
O O3 0.892640 0.167821 0.387829
O O4 0.750000 0.042104 0.750000
O O5 0.652751 0.096064 0.423654
O O6 0.624777 0.000000 0.500000
O O7 0.607852 0.068915 0.915705
O O8 0.000000 0.901697 0.763959
#
# Coordination Sequence:
#
# PCOD8263978 Si02
#       3
#    16  16  16
#     4  10  21  39  64  93 128 173 222 268 316 381
#     4  12  25  45  70  95 128 174 227 273 321 391
#     4  12  26  42  66 101 138 173 213 273 339 392
#
# _framework density 23.142607999999999
#
# number of rings (size 3 to 8) (size 9 to 14) (size 15 to 20)
#    0.000    0.667    0.000    9.000    0.000    8.000 
#    0.000    0.000    0.000    0.000    0.000    0.000 
#    0.000    0.000    0.000    0.000    0.000    0.000 
#
# Total GULP energy -297551.798745 kJ/mol
# GULP energy per Si atom -12397.991614 kJ/mol
# Density = 2.308993 g / cm^3
# Si number density = 23.142608 Si / 1000 Ang^3
#
#
#
# Elastic Constant Matrix: (Units=GPa)
#
#
# Indices 1 2 3 4 5 6 
#
# 1 68.9731 51.0213 41.0558 0.0000 0.0000 0.0000
# 2 51.0213 98.3899 37.9315 0.0000 0.0000 0.0000
# 3 41.0558 37.9315 149.4318 0.0000 0.0000 0.0000
# 4 0.0000 0.0000 0.0000 44.3132 0.0000 0.0000
# 5 0.0000 0.0000 0.0000 0.0000 31.5708 0.0000
# 6 0.0000 0.0000 0.0000 0.0000 0.0000 70.4502
#
#
#
# Elastic Compliance Matrix: (Units=1/GPa)
#
#
# Indices 1 2 3 4 5 6 
#
# 1 0.025561 -0.011692 -0.004055 0.000000 0.000000 0.000000
# 2 -0.011692 0.016614 -0.001005 0.000000 0.000000 0.000000
# 3 -0.004055 -0.001005 0.008061 0.000000 0.000000 0.000000
# 4 0.000000 0.000000 0.000000 0.022567 0.000000 0.000000
# 5 0.000000 0.000000 0.000000 0.000000 0.031675 0.000000
# 6 0.000000 0.000000 0.000000 0.000000 0.000000 0.014194
#
#
# Mechanical properties :
#
#
# Convention : Reuss Voigt Hill
#
# Bulk Modulus (GPa) = 59.76302 64.09021 61.92662
# Shear Modulus (GPa) = 31.69527 41.71925 36.70726
#
# Velocity S-wave (km/s) = 3.70478 4.25043 3.98695
# Velocity P-wave (km/s) = 6.64683 7.20013 6.92901
#
# Compressibility (1/GPa) = 0.01673276
#
# Stress axis : x y z
#
# Youngs Moduli (GPa) = 39.12265 60.19054 124.05083
#
# Poissons Ratio (x) = 0.70372 0.50302
# Poissons Ratio (y) = 0.45740 0.12468
# Poissons Ratio (z) = 0.15864 0.06049
#
# Static dielectric constant tensor:
#      x y z
#    x 3.914750 0.000000 0.000000 
#    y 0.000000 4.151500 0.000000 
#    z 0.000000 0.000000 4.382160 
# 
# 
# High freq. dielectric constant tensor:
#      x y z
#    x 1.892880 0.000000 0.000000 
#    y 0.000000 1.923680 0.000000 
#    z 0.000000 0.000000 1.932640 
# 
# From -- ./inp_files/721.got.cif
#   From: 2010.03.12/outbox.cif.g09.slc.cpg/sg64_1_cif.got.tgz:721.got - 2010.04.10 20:19:32.
