data_PCOD8263775
_publ_section_title
;
Structure prediction by ZEFSAII (Michael W. Deem and Ramdas Pophale) SiO2 
 PCOD8263775
Probable space group: C M C A
;
_chemical_formula_sum "Si O2"
_cell_formula_units_Z 112
_cell_length_a 14.248336
_cell_length_b 31.685579
_cell_length_c 10.758731
_cell_angle_alpha 90.000000
_cell_angle_beta 90.000000
_cell_angle_gamma 90.000000
_cell_volume 4857.209598
_symmetry_space_group_name_H-M "C M C A"
_symmetry_group_IT_number 64
_symmetry_cell_setting 'orthorhombic'
loop_
_space_group_symop_operation_xyz
x,y,z
-x,1/2-y,1/2+z
x,-y,-z
-x,1/2+y,1/2-z
-x,-y,-z
x,1/2+y,1/2-z
-x,y,z
x,1/2-y,1/2+z
1/2+x,1/2+y,z
1/2-x,-y,1/2+z
1/2+x,1/2-y,-z
1/2-x,y,1/2-z
1/2-x,1/2-y,-z
1/2+x,y,1/2-z
1/2-x,1/2+y,z
1/2+x,-y,1/2+z
loop_
_atom_site_type_symbol
_atom_site_label
_atom_site_fract_x
_atom_site_fract_y
_atom_site_fract_z
Si Si1 0.227992 0.607132 0.114278
Si Si2 0.395687 0.064588 0.454159
Si Si3 0.390405 0.280253 0.072109
Si Si4 0.394676 0.512821 0.799824
Si Si5 0.893023 0.167928 0.683135
Si Si6 0.110570 0.575424 0.900654
Si Si7 0.291875 0.301577 0.549435
O O1 0.250000 0.589072 0.250000
O O2 0.328580 0.605349 0.043972
O O3 0.190123 0.654817 0.122140
O O4 0.156070 0.577004 0.038411
O O5 0.500000 0.078495 0.413712
O O6 0.397853 0.047030 0.591751
O O7 0.351323 0.030446 0.354905
O O8 0.500000 0.277747 0.029811
O O9 0.377653 0.315538 0.177790
O O10 0.352723 0.234364 0.119921
O O11 0.320144 0.291452 0.957188
O O12 0.500000 0.501529 0.760347
O O13 0.346516 0.535528 0.679022
O O14 0.866184 0.118448 0.674271
O O15 0.828152 0.194938 0.591962
O O16 0.000000 0.174757 0.640602
O O17 0.000000 0.569559 0.917676
#
# Coordination Sequence:
#
# PCOD8263775 Si02
#       7
#    16  16  16  16  16  16  16
#     4  11  25  41  56  87 125 168 214 253 306 375
#     4   9  19  38  62  91 127 159 194 250 311 372
#     4  10  21  37  60  87 113 153 207 260 316 377
#     4   8  16  36  65  93 121 155 196 250 315 366
#     4   9  18  34  59  89 118 151 199 254 310 374
#     4   9  19  38  65  93 123 161 208 260 311 369
#     4  10  22  38  57  81 122 160 199 257 315 370
#
# _framework density 23.058506999999999
#
# number of rings (size 3 to 8) (size 9 to 14) (size 15 to 20)
#    0.000    2.571    0.000    1.714    2.000    4.571 
#    5.143    0.000    0.000    2.571    0.000    0.000 
#    0.000    0.000    0.000    0.000    0.000    0.000 
#
# Total GULP energy -693747.902382 kJ/mol
# GULP energy per Si atom -12388.355400 kJ/mol
# Density = 2.300602 g / cm^3
# Si number density = 23.058507 Si / 1000 Ang^3
#
#
#
# Elastic Constant Matrix: (Units=GPa)
#
#
# Indices 1 2 3 4 5 6 
#
# 1 92.7965 9.2285 23.8195 0.0000 0.0000 0.0000
# 2 9.2285 47.1063 20.3574 0.0000 0.0000 0.0000
# 3 23.8195 20.3574 85.8205 0.0000 0.0000 0.0000
# 4 0.0000 0.0000 0.0000 20.8842 0.0000 0.0000
# 5 0.0000 0.0000 0.0000 0.0000 33.0899 0.0000
# 6 0.0000 0.0000 0.0000 0.0000 0.0000 31.7803
#
#
#
# Elastic Compliance Matrix: (Units=1/GPa)
#
#
# Indices 1 2 3 4 5 6 
#
# 1 0.011644 -0.000986 -0.002998 0.000000 0.000000 0.000000
# 2 -0.000986 0.023737 -0.005357 0.000000 0.000000 0.000000
# 3 -0.002998 -0.005357 0.013755 0.000000 0.000000 0.000000
# 4 0.000000 0.000000 0.000000 0.047883 0.000000 0.000000
# 5 0.000000 0.000000 0.000000 0.000000 0.030221 0.000000
# 6 0.000000 0.000000 0.000000 0.000000 0.000000 0.031466
#
#
# Mechanical properties :
#
#
# Convention : Reuss Voigt Hill
#
# Bulk Modulus (GPa) = 32.83582 36.94825 34.89203
# Shear Modulus (GPa) = 26.66125 28.63873 27.64999
#
# Velocity S-wave (km/s) = 3.40405 3.52803 3.46659
# Velocity P-wave (km/s) = 5.45171 5.71441 5.58461
#
# Compressibility (1/GPa) = 0.03045454
#
# Stress axis : x y z
#
# Youngs Moduli (GPa) = 85.88248 42.12878 72.70059
#
# Poissons Ratio (x) = 0.04152 0.21795
# Poissons Ratio (y) = 0.08464 0.38946
# Poissons Ratio (z) = 0.25747 0.22569
#
# Static dielectric constant tensor:
#      x y z
#    x 4.277630 0.000000 0.000000 
#    y 0.000000 4.181010 0.000000 
#    z 0.000000 0.000000 3.849060 
# 
# 
# High freq. dielectric constant tensor:
#      x y z
#    x 1.910750 0.000000 0.000000 
#    y 0.000000 1.909020 0.000000 
#    z 0.000000 0.000000 1.883850 
# 
# From -- ./inp_files/14928.got.cif
#   From: 2010.03.12/outbox.cif.g09.slc.cpg/sg64_8_cif.got.tgz:14928.got - 2010.04.10 20:19:32.
