data_PCOD8263414
_publ_section_title
;
Structure prediction by ZEFSAII (Michael W. Deem and Ramdas Pophale) SiO2 
 PCOD8263414
Probable space group: C M C A
;
_chemical_formula_sum "Si O2"
_cell_formula_units_Z 112
_cell_length_a 27.226000
_cell_length_b 14.498669
_cell_length_c 14.262286
_cell_angle_alpha 90.000000
_cell_angle_beta 90.000000
_cell_angle_gamma 90.000000
_cell_volume 5629.905646
_symmetry_space_group_name_H-M "C M C A"
_symmetry_group_IT_number 64
_symmetry_cell_setting 'orthorhombic'
loop_
_space_group_symop_operation_xyz
x,y,z
-x,1/2-y,1/2+z
x,-y,-z
-x,1/2+y,1/2-z
-x,-y,-z
x,1/2+y,1/2-z
-x,y,z
x,1/2-y,1/2+z
1/2+x,1/2+y,z
1/2-x,-y,1/2+z
1/2+x,1/2-y,-z
1/2-x,y,1/2-z
1/2-x,1/2-y,-z
1/2+x,y,1/2-z
1/2-x,1/2+y,z
1/2+x,-y,1/2+z
loop_
_atom_site_type_symbol
_atom_site_label
_atom_site_fract_x
_atom_site_fract_y
_atom_site_fract_z
Si Si1 0.895388 0.193815 0.292898
Si Si2 0.275990 0.436791 0.650527
Si Si3 0.556732 0.394237 0.523335
Si Si4 0.944340 0.350920 0.181495
Si Si5 0.630871 0.003418 0.241259
Si Si6 0.806925 0.948872 0.085023
Si Si7 0.210657 0.264278 0.332460
O O1 0.911911 0.157472 0.396065
O O2 0.934330 0.260524 0.243539
O O3 0.890764 0.102688 0.227933
O O4 0.843725 0.248315 0.290238
O O5 0.250000 0.443639 0.750000
O O6 0.331282 0.476591 0.655317
O O7 0.244309 0.496238 0.580159
O O8 0.273713 0.330539 0.617253
O O9 0.573694 0.500000 0.500000
O O10 0.500000 0.395943 0.555817
O O11 0.563965 0.332650 0.429329
O O12 0.912482 0.438072 0.210599
O O13 0.000000 0.381052 0.200259
O O14 0.659812 0.956620 0.324475
O O15 0.792545 0.840704 0.084552
O O16 0.836376 0.000000 0.000000
O O17 0.250000 0.292812 0.250000
#
# Coordination Sequence:
#
# PCOD8263414 Si02
#       7
#    16  16  16  16  16  16  16
#     4  11  22  39  67  93 128 170 210 263 333 392
#     4   8  18  36  56  82 112 157 207 247 310 368
#     4  10  21  40  65  95 127 161 216 277 321 381
#     4  11  23  39  66  97 122 166 216 268 333 384
#     4  10  20  40  61  85 126 167 208 263 321 386
#     4  11  22  37  59  88 126 166 207 261 319 387
#     4  10  20  38  62  84 122 168 207 257 315 379
#
# _framework density 19.893761999999999
#
# number of rings (size 3 to 8) (size 9 to 14) (size 15 to 20)
#    0.000    1.857    2.857    2.571    0.000    2.286 
#    5.143    0.000    0.000    0.429    0.000    0.000 
#    0.000    0.000    0.000    0.000    0.000    0.000 
#
# Total GULP energy -693748.804384 kJ/mol
# GULP energy per Si atom -12388.371507 kJ/mol
# Density = 1.984848 g / cm^3
# Si number density = 19.893762 Si / 1000 Ang^3
#
#
#
# Elastic Constant Matrix: (Units=GPa)
#
#
# Indices 1 2 3 4 5 6 
#
# 1 109.6219 47.3392 37.7091 0.0000 0.0000 0.0000
# 2 47.3392 123.7643 39.3995 0.0000 0.0000 0.0000
# 3 37.7091 39.3995 73.0181 0.0000 0.0000 0.0000
# 4 0.0000 0.0000 0.0000 27.5885 0.0000 0.0000
# 5 0.0000 0.0000 0.0000 0.0000 9.4360 0.0000
# 6 0.0000 0.0000 0.0000 0.0000 0.0000 43.7604
#
#
#
# Elastic Compliance Matrix: (Units=1/GPa)
#
#
# Indices 1 2 3 4 5 6 
#
# 1 0.012042 -0.003171 -0.004508 0.000000 0.000000 0.000000
# 2 -0.003171 0.010591 -0.004077 0.000000 0.000000 0.000000
# 3 -0.004508 -0.004077 0.018223 0.000000 0.000000 0.000000
# 4 0.000000 0.000000 0.000000 0.036247 0.000000 0.000000
# 5 0.000000 0.000000 0.000000 0.000000 0.105977 0.000000
# 6 0.000000 0.000000 0.000000 0.000000 0.000000 0.022852
#
#
# Mechanical properties :
#
#
# Convention : Reuss Voigt Hill
#
# Bulk Modulus (GPa) = 57.65621 61.69998 59.67810
# Shear Modulus (GPa) = 21.25621 28.28741 24.77181
#
# Velocity S-wave (km/s) = 3.27232 3.77493 3.53257
# Velocity P-wave (km/s) = 6.58197 7.07688 6.83391
#
# Compressibility (1/GPa) = 0.01734418
#
# Stress axis : x y z
#
# Youngs Moduli (GPa) = 83.04003 94.42306 54.87512
#
# Poissons Ratio (x) = 0.29942 0.24738
# Poissons Ratio (y) = 0.26332 0.22372
# Poissons Ratio (z) = 0.37435 0.38495
#
# Static dielectric constant tensor:
#      x y z
#    x 3.749930 0.000000 0.000000 
#    y 0.000000 3.843880 0.000000 
#    z 0.000000 0.000000 -3.835230 
# 
# 
# High freq. dielectric constant tensor:
#      x y z
#    x 1.778870 0.000000 0.000000 
#    y 0.000000 1.788740 0.000000 
#    z 0.000000 0.000000 1.750050 
# 
# From -- ./inp_files/28077.got.cif
#   From: 2010.03.12/outbox.cif.g09.slc.cpg/sg64_15_cif.got.tgz:28077.got - 2010.04.10 20:19:32.
