data_PCOD8263043
_publ_section_title
;
Structure prediction by ZEFSAII (Michael W. Deem and Ramdas Pophale) SiO2 
 PCOD8263043
Probable space group: C M C A
;
_chemical_formula_sum "Si O2"
_cell_formula_units_Z 96
_cell_length_a 9.101898
_cell_length_b 24.127345
_cell_length_c 21.205762
_cell_angle_alpha 90.000000
_cell_angle_beta 90.000000
_cell_angle_gamma 90.000000
_cell_volume 4656.883586
_symmetry_space_group_name_H-M "C M C A"
_symmetry_group_IT_number 64
_symmetry_cell_setting 'orthorhombic'
loop_
_space_group_symop_operation_xyz
x,y,z
-x,1/2-y,1/2+z
x,-y,-z
-x,1/2+y,1/2-z
-x,-y,-z
x,1/2+y,1/2-z
-x,y,z
x,1/2-y,1/2+z
1/2+x,1/2+y,z
1/2-x,-y,1/2+z
1/2+x,1/2-y,-z
1/2-x,y,1/2-z
1/2-x,1/2-y,-z
1/2+x,y,1/2-z
1/2-x,1/2+y,z
1/2+x,-y,1/2+z
loop_
_atom_site_type_symbol
_atom_site_label
_atom_site_fract_x
_atom_site_fract_y
_atom_site_fract_z
Si Si1 0.670977 0.205508 0.312026
Si Si2 0.671563 0.075256 0.686995
Si Si3 0.174618 0.617303 0.109843
Si Si4 0.164769 0.176535 0.640131
Si Si5 0.328101 0.507258 0.073766
Si Si6 0.833728 0.193186 0.501419
O O1 0.500000 0.192187 0.302015
O O2 0.750000 0.227065 0.250000
O O3 0.752658 0.149267 0.331917
O O4 0.696655 0.257457 0.358537
O O5 0.500000 0.073693 0.700669
O O6 0.750000 0.049824 0.750000
O O7 0.723358 0.139065 0.679795
O O8 0.708510 0.044061 0.620791
O O9 0.235828 0.555901 0.105374
O O10 0.000000 0.615382 0.117775
O O11 0.230661 0.650180 0.048592
O O12 0.180112 0.160765 0.567091
O O13 0.000000 0.164468 0.665420
O O14 0.500000 0.521609 0.075666
O O15 0.279317 0.500000 0.000000
O O16 0.750000 0.250000 0.500000
O O17 0.000000 0.208154 0.484372
#
# Coordination Sequence:
#
# PCOD8263043 Si02
#       6
#    16  16  16  16  16  16
#     4  11  23  39  59  84 120 162 202 247 300 360
#     4  11  24  41  64  92 122 163 210 261 318 378
#     4  11  23  38  61  92 123 157 199 246 303 367
#     4  10  21  38  61  90 124 161 202 251 305 363
#     4  10  23  44  67  91 122 163 212 263 318 375
#     4  10  20  35  57  89 124 158 196 241 298 361
#
# _framework density 20.614646
#
# number of rings (size 3 to 8) (size 9 to 14) (size 15 to 20)
#    0.000    1.500    1.667    3.000    0.000    6.333 
#    0.000    1.667    0.000    0.000    0.000    0.000 
#    0.000    0.000    0.000    0.000    0.000    0.000 
#
# Total GULP energy -595070.534950 kJ/mol
# GULP energy per Si atom -12397.302811 kJ/mol
# Density = 2.056773 g / cm^3
# Si number density = 20.614646 Si / 1000 Ang^3
#
#
#
# Elastic Constant Matrix: (Units=GPa)
#
#
# Indices 1 2 3 4 5 6 
#
# 1 89.6330 53.5995 36.0856 0.0000 0.0000 0.0000
# 2 53.5995 101.7253 24.7668 0.0000 0.0000 0.0000
# 3 36.0856 24.7668 91.9719 0.0000 0.0000 0.0000
# 4 0.0000 0.0000 0.0000 29.1582 0.0000 0.0000
# 5 0.0000 0.0000 0.0000 0.0000 33.7010 0.0000
# 6 0.0000 0.0000 0.0000 0.0000 0.0000 34.6251
#
#
#
# Elastic Compliance Matrix: (Units=1/GPa)
#
#
# Indices 1 2 3 4 5 6 
#
# 1 0.018110 -0.008361 -0.004854 0.000000 0.000000 0.000000
# 2 -0.008361 0.014380 -0.000592 0.000000 0.000000 0.000000
# 3 -0.004854 -0.000592 0.012937 0.000000 0.000000 0.000000
# 4 0.000000 0.000000 0.000000 0.034296 0.000000 0.000000
# 5 0.000000 0.000000 0.000000 0.000000 0.029673 0.000000
# 6 0.000000 0.000000 0.000000 0.000000 0.000000 0.028881
#
#
# Mechanical properties :
#
#
# Convention : Reuss Voigt Hill
#
# Bulk Modulus (GPa) = 56.13765 56.91490 56.52628
# Shear Modulus (GPa) = 29.09886 30.75539 29.92713
#
# Velocity S-wave (km/s) = 3.76115 3.86673 3.81431
# Velocity P-wave (km/s) = 6.79358 6.89959 6.84679
#
# Compressibility (1/GPa) = 0.01781336
#
# Stress axis : x y z
#
# Youngs Moduli (GPa) = 55.21662 69.54216 77.29817
#
# Poissons Ratio (x) = 0.58142 0.37523
# Poissons Ratio (y) = 0.46165 0.04576
# Poissons Ratio (z) = 0.26804 0.04116
#
# Static dielectric constant tensor:
#      x y z
#    x 3.204590 0.000000 0.000000 
#    y 0.000000 3.642920 0.000000 
#    z 0.000000 0.000000 4.321530 
# 
# 
# High freq. dielectric constant tensor:
#      x y z
#    x 1.806470 0.000000 0.000000 
#    y 0.000000 1.798440 0.000000 
#    z 0.000000 0.000000 1.819010 
# 
# From -- ./inp_files/37085.got.cif
#   From: 2010.03.12/outbox.cif.g09.slc.cpg/sg64_19_cif.got.tgz:37085.got - 2010.04.10 20:19:32.
