data_PCOD8263649
_publ_section_title
;
Structure prediction by ZEFSAII (Michael W. Deem and Ramdas Pophale) SiO2 
 PCOD8263649
Probable space group: C M C A
;
_chemical_formula_sum "Si O2"
_cell_formula_units_Z 96
_cell_length_a 18.351258
_cell_length_b 23.310746
_cell_length_c 11.383503
_cell_angle_alpha 90.000000
_cell_angle_beta 90.000000
_cell_angle_gamma 90.000000
_cell_volume 4869.652148
_symmetry_space_group_name_H-M "C M C A"
_symmetry_group_IT_number 64
_symmetry_cell_setting 'orthorhombic'
loop_
_space_group_symop_operation_xyz
x,y,z
-x,1/2-y,1/2+z
x,-y,-z
-x,1/2+y,1/2-z
-x,-y,-z
x,1/2+y,1/2-z
-x,y,z
x,1/2-y,1/2+z
1/2+x,1/2+y,z
1/2-x,-y,1/2+z
1/2+x,1/2-y,-z
1/2-x,y,1/2-z
1/2-x,1/2-y,-z
1/2+x,y,1/2-z
1/2-x,1/2+y,z
1/2+x,-y,1/2+z
loop_
_atom_site_type_symbol
_atom_site_label
_atom_site_fract_x
_atom_site_fract_y
_atom_site_fract_z
Si Si1 0.144779 0.912079 0.740267
Si Si2 0.243692 0.944488 0.932939
Si Si3 0.500000 0.907794 0.100696
Si Si4 0.680308 0.289984 0.833669
Si Si5 0.134688 0.169989 0.690697
Si Si6 0.290742 0.156332 0.574469
Si Si7 0.500000 0.458569 0.656272
O O1 0.190257 0.955533 0.823269
O O2 0.184205 0.911116 0.612896
O O3 0.141922 0.847498 0.788151
O O4 0.066848 0.939633 0.734533
O O5 0.197608 0.906727 0.023020
O O6 0.271630 0.000000 0.000000
O O7 0.429356 0.870926 0.141080
O O8 0.500000 0.972422 0.150850
O O9 0.500000 0.920089 0.961807
O O10 0.750000 0.274223 0.750000
O O11 0.621121 0.238307 0.829246
O O12 0.704181 0.297097 0.969446
O O13 0.210325 0.156539 0.627749
O O14 0.144705 0.162790 0.830862
#
# Coordination Sequence:
#
# PCOD8263649 Si02
#       7
#    16  16   8  16  16  16   8
#     4  10  22  40  62  94 122 172 213 257 327 388
#     4  10  21  35  63  92 125 158 219 274 310 377
#     4  11  28  43  57  96 127 170 211 256 319 387
#     4  11  20  41  67  97 128 159 214 267 317 383
#     4  11  24  38  65  93 128 167 207 263 319 377
#     4  10  21  37  64  96 122 163 209 266 324 363
#     4  11  26  45  64  81 138 173 207 258 316 392
#
# _framework density 19.713933999999998
#
# number of rings (size 3 to 8) (size 9 to 14) (size 15 to 20)
#    0.000    1.500    5.000    1.500    7.000    2.000 
#    0.000    4.583    0.000    0.000    0.000    0.000 
#    0.000    0.000    0.000    0.000    0.000    0.000 
#
# Total GULP energy -594702.183934 kJ/mol
# GULP energy per Si atom -12389.628832 kJ/mol
# Density = 1.966906 g / cm^3
# Si number density = 19.713934 Si / 1000 Ang^3
#
#
#
# Elastic Constant Matrix: (Units=GPa)
#
#
# Indices 1 2 3 4 5 6 
#
# 1 110.5056 52.2298 40.6519 0.0000 0.0000 0.0000
# 2 52.2298 137.3242 52.8672 0.0000 0.0000 0.0000
# 3 40.6519 52.8672 111.4458 0.0000 0.0000 0.0000
# 4 0.0000 0.0000 0.0000 -2.2995 0.0000 0.0000
# 5 0.0000 0.0000 0.0000 0.0000 17.6085 0.0000
# 6 0.0000 0.0000 0.0000 0.0000 0.0000 45.8896
#
#
#
# Elastic Compliance Matrix: (Units=1/GPa)
#
#
# Indices 1 2 3 4 5 6 
#
# 1 0.011627 -0.003413 -0.002622 0.000000 0.000000 0.000000
# 2 -0.003413 0.009911 -0.003457 0.000000 0.000000 0.000000
# 3 -0.002622 -0.003457 0.011569 0.000000 0.000000 0.000000
# 4 0.000000 0.000000 0.000000 -0.434874 0.000000 0.000000
# 5 0.000000 0.000000 0.000000 0.000000 0.056791 0.000000
# 6 0.000000 0.000000 0.000000 0.000000 0.000000 0.021791
#
#
# Mechanical properties :
#
#
# Convention : Reuss Voigt Hill
#
# Bulk Modulus (GPa) = 70.80208 72.30815 71.55512
# Shear Modulus (GPa) = -16.69482 26.47484 4.89001
#
# Velocity S-wave (km/s) = -2.91323 3.66860 1.57666
# Velocity P-wave (km/s) = 4.96758 7.39616 6.30000
#
# Compressibility (1/GPa) = 0.01412388
#
# Stress axis : x y z
#
# Youngs Moduli (GPa) = 86.00716 100.90085 86.43638
#
# Poissons Ratio (x) = 0.34434 0.22666
# Poissons Ratio (y) = 0.29351 0.29877
# Poissons Ratio (z) = 0.22553 0.34877
#
# Static dielectric constant tensor:
#      x y z
#    x 3.551080 0.000000 0.000000 
#    y 0.000000 3.743580 0.000000 
#    z 0.000000 0.000000 3.992970 
# 
# 
# High freq. dielectric constant tensor:
#      x y z
#    x 1.733520 0.000000 0.000000 
#    y 0.000000 1.778880 0.000000 
#    z 0.000000 0.000000 1.785200 
# 
# From -- ./inp_files/16276.got.cif
#   From: 2010.03.12/outbox.cif.g09.slc.cpg/sg64_9_cif.got.tgz:16276.got - 2010.04.10 20:19:32.
