data_PCOD8263125
_publ_section_title
;
Structure prediction by ZEFSAII (Michael W. Deem and Ramdas Pophale) SiO2 
 PCOD8263125
Probable space group: C M C A
;
_chemical_formula_sum "Si O2"
_cell_formula_units_Z 96
_cell_length_a 8.742280
_cell_length_b 19.218300
_cell_length_c 30.679119
_cell_angle_alpha 90.000000
_cell_angle_beta 90.000000
_cell_angle_gamma 90.000000
_cell_volume 5154.452770
_symmetry_space_group_name_H-M "C M C A"
_symmetry_group_IT_number 64
_symmetry_cell_setting 'orthorhombic'
loop_
_space_group_symop_operation_xyz
x,y,z
-x,1/2-y,1/2+z
x,-y,-z
-x,1/2+y,1/2-z
-x,-y,-z
x,1/2+y,1/2-z
-x,y,z
x,1/2-y,1/2+z
1/2+x,1/2+y,z
1/2-x,-y,1/2+z
1/2+x,1/2-y,-z
1/2-x,y,1/2-z
1/2-x,1/2-y,-z
1/2+x,y,1/2-z
1/2-x,1/2+y,z
1/2+x,-y,1/2+z
loop_
_atom_site_type_symbol
_atom_site_label
_atom_site_fract_x
_atom_site_fract_y
_atom_site_fract_z
Si Si1 0.822721 0.598642 0.395314
Si Si2 0.820103 0.966577 0.362699
Si Si3 0.178279 0.350459 0.203145
Si Si4 0.178759 0.578302 0.012078
Si Si5 0.677743 0.254016 0.373674
Si Si6 0.679415 0.863863 0.430750
O O1 0.768901 0.539671 0.361304
O O2 0.722732 0.594036 0.438562
O O3 0.792167 0.672053 0.371908
O O4 0.000000 0.588705 0.407182
O O5 0.775608 0.923735 0.319255
O O6 0.770755 0.923682 0.405197
O O7 0.000000 0.980456 0.365876
O O8 0.250000 0.342621 0.250000
O O9 0.233505 0.287312 0.172052
O O10 0.000000 0.346437 0.210020
O O11 0.000000 0.591752 0.005492
O O12 0.225299 0.500000 0.000000
O O13 0.273186 0.630892 0.981285
O O14 0.500000 0.272235 0.381536
O O15 0.773486 0.287882 0.413146
O O16 0.500000 0.875586 0.424928
#
# Coordination Sequence:
#
# PCOD8263125 Si02
#       6
#    16  16  16  16  16  16
#     4  11  22  36  57  83 111 146 189 234 273 324
#     4  10  20  36  56  80 113 146 177 223 279 327
#     4   9  19  37  61  84 108 140 179 221 271 332
#     4  11  22  35  54  78 111 153 189 231 282 326
#     4   9  21  40  57  79 115 150 179 224 285 332
#     4  11  21  34  56  82 107 144 194 235 266 319
#
# _framework density 18.624673000000001
#
# number of rings (size 3 to 8) (size 9 to 14) (size 15 to 20)
#    0.000    1.833    1.667    4.000    0.000    6.000 
#    0.000    0.833    0.000    4.000    0.000    0.000 
#    0.000    0.000    0.000    0.000    0.000    0.000 
#
# Total GULP energy -595345.247773 kJ/mol
# GULP energy per Si atom -12403.025995 kJ/mol
# Density = 1.858228 g / cm^3
# Si number density = 18.624673 Si / 1000 Ang^3
#
#
#
# Elastic Constant Matrix: (Units=GPa)
#
#
# Indices 1 2 3 4 5 6 
#
# 1 56.3705 39.3552 26.9501 0.0000 0.0000 0.0000
# 2 39.3552 125.1290 47.0011 0.0000 0.0000 0.0000
# 3 26.9501 47.0011 106.2863 0.0000 0.0000 0.0000
# 4 0.0000 0.0000 0.0000 20.7214 0.0000 0.0000
# 5 0.0000 0.0000 0.0000 0.0000 33.1781 0.0000
# 6 0.0000 0.0000 0.0000 0.0000 0.0000 27.0613
#
#
#
# Elastic Compliance Matrix: (Units=1/GPa)
#
#
# Indices 1 2 3 4 5 6 
#
# 1 0.023628 -0.006213 -0.003244 0.000000 0.000000 0.000000
# 2 -0.006213 0.011217 -0.003385 0.000000 0.000000 0.000000
# 3 -0.003244 -0.003385 0.011728 0.000000 0.000000 0.000000
# 4 0.000000 0.000000 0.000000 0.048259 0.000000 0.000000
# 5 0.000000 0.000000 0.000000 0.000000 0.030140 0.000000
# 6 0.000000 0.000000 0.000000 0.000000 0.000000 0.036953
#
#
# Mechanical properties :
#
#
# Convention : Reuss Voigt Hill
#
# Bulk Modulus (GPa) = 47.87013 57.15539 52.51276
# Shear Modulus (GPa) = 25.69726 27.82412 26.76069
#
# Velocity S-wave (km/s) = 3.71852 3.86934 3.79468
# Velocity P-wave (km/s) = 6.64792 7.12159 6.88883
#
# Compressibility (1/GPa) = 0.02088986
#
# Stress axis : x y z
#
# Youngs Moduli (GPa) = 42.32231 89.14750 85.26638
#
# Poissons Ratio (x) = 0.55388 0.27658
# Poissons Ratio (y) = 0.26295 0.28863
# Poissons Ratio (z) = 0.13728 0.30177
#
# Static dielectric constant tensor:
#      x y z
#    x 3.427600 0.000000 0.000000 
#    y 0.000000 3.568390 0.000000 
#    z 0.000000 0.000000 3.491580 
# 
# 
# High freq. dielectric constant tensor:
#      x y z
#    x 1.729760 0.000000 0.000000 
#    y 0.000000 1.721660 0.000000 
#    z 0.000000 0.000000 1.707040 
# 
# From -- ./inp_files/48068.got.cif
#   From: 2010.03.12/outbox.cif.g09.slc.cpg/sg64_25_cif.got.tgz:48068.got - 2010.04.10 20:19:32.
