data_PCOD8263183
_publ_section_title
;
Structure prediction by ZEFSAII (Michael W. Deem and Ramdas Pophale) SiO2 
 PCOD8263183
Probable space group: C M C A
;
_chemical_formula_sum "Si O2"
_cell_formula_units_Z 128
_cell_length_a 24.759700
_cell_length_b 9.522852
_cell_length_c 24.440565
_cell_angle_alpha 90.000000
_cell_angle_beta 90.000000
_cell_angle_gamma 90.000000
_cell_volume 5762.668727
_symmetry_space_group_name_H-M "C M C A"
_symmetry_group_IT_number 64
_symmetry_cell_setting 'orthorhombic'
loop_
_space_group_symop_operation_xyz
x,y,z
-x,1/2-y,1/2+z
x,-y,-z
-x,1/2+y,1/2-z
-x,-y,-z
x,1/2+y,1/2-z
-x,y,z
x,1/2-y,1/2+z
1/2+x,1/2+y,z
1/2-x,-y,1/2+z
1/2+x,1/2-y,-z
1/2-x,y,1/2-z
1/2-x,1/2-y,-z
1/2+x,y,1/2-z
1/2-x,1/2+y,z
1/2+x,-y,1/2+z
loop_
_atom_site_type_symbol
_atom_site_label
_atom_site_fract_x
_atom_site_fract_y
_atom_site_fract_z
Si Si1 0.156041 0.900270 0.920226
Si Si2 0.662673 0.287921 0.034839
Si Si3 0.261411 0.304880 0.628779
Si Si4 0.217211 0.445152 0.198585
Si Si5 0.106944 0.635851 0.746899
Si Si6 0.560586 0.396465 0.696393
Si Si7 0.439151 0.997991 0.640063
Si Si8 0.058640 0.713102 0.082886
O O1 0.202554 0.874030 0.876336
O O2 0.096969 0.878410 0.891330
O O3 0.156942 0.058108 0.940981
O O4 0.170451 0.792669 0.969564
O O5 0.711137 0.215439 0.068899
O O6 0.606790 0.200157 0.039472
O O7 0.253932 0.161343 0.662627
O O8 0.297833 0.416848 0.662707
O O9 0.250000 0.502719 0.250000
O O10 0.164680 0.372542 0.224070
O O11 0.094977 0.800539 0.738753
O O12 0.065426 0.559929 0.788446
O O13 0.098192 0.553415 0.689810
O O14 0.500000 0.339400 0.700916
O O15 0.579176 0.378368 0.634184
O O16 0.500000 0.942334 0.657164
O O17 0.448497 0.125414 0.599121
O O18 0.000000 0.660217 0.060205
#
# Coordination Sequence:
#
# PCOD8263183 Si02
#       8
#    16  16  16  16  16  16  16  16
#     4  10  21  37  61  90 121 158 209 260 315 375
#     4  10  20  37  62  88 121 162 204 262 315 374
#     4  12  24  45  60  90 126 169 210 262 318 371
#     4  12  28  40  63  88 124 164 208 259 309 384
#     4  11  23  36  57  88 119 163 201 246 304 368
#     4  10  20  36  58  85 120 157 200 244 296 366
#     4   9  18  34  57  85 123 158 196 255 311 365
#     4   8  16  31  54  83 114 152 194 247 306 365
#
# _framework density 22.211931
#
# number of rings (size 3 to 8) (size 9 to 14) (size 15 to 20)
#    0.000    1.750    1.250    4.125    8.750    0.500 
#    0.000    2.500    0.000    0.000    0.000    0.000 
#    0.000    4.000    0.000    0.000    0.000    0.000 
#
# Total GULP energy -792903.651947 kJ/mol
# GULP energy per Si atom -12389.119562 kJ/mol
# Density = 2.216138 g / cm^3
# Si number density = 22.211931 Si / 1000 Ang^3
#
#
#
# Elastic Constant Matrix: (Units=GPa)
#
#
# Indices 1 2 3 4 5 6 
#
# 1 92.8249 -0.7581 11.3142 0.0000 0.0000 0.0000
# 2 -0.7581 32.1033 -0.8356 0.0000 0.0000 0.0000
# 3 11.3142 -0.8356 42.9843 0.0000 0.0000 0.0000
# 4 0.0000 0.0000 0.0000 21.1669 0.0000 0.0000
# 5 0.0000 0.0000 0.0000 0.0000 31.2650 0.0000
# 6 0.0000 0.0000 0.0000 0.0000 0.0000 19.3345
#
#
#
# Elastic Compliance Matrix: (Units=1/GPa)
#
#
# Indices 1 2 3 4 5 6 
#
# 1 0.011131 0.000187 -0.002926 0.000000 0.000000 0.000000
# 2 0.000187 0.031168 0.000557 0.000000 0.000000 0.000000
# 3 -0.002926 0.000557 0.024045 0.000000 0.000000 0.000000
# 4 0.000000 0.000000 0.000000 0.047243 0.000000 0.000000
# 5 0.000000 0.000000 0.000000 0.000000 0.031985 0.000000
# 6 0.000000 0.000000 0.000000 0.000000 0.000000 0.051721
#
#
# Mechanical properties :
#
#
# Convention : Reuss Voigt Hill
#
# Bulk Modulus (GPa) = 16.13443 20.81705 18.47574
# Shear Modulus (GPa) = 22.49015 24.89941 23.69478
#
# Velocity S-wave (km/s) = 3.18547 3.35175 3.26967
# Velocity P-wave (km/s) = 4.56172 4.93674 4.75293
#
# Compressibility (1/GPa) = 0.06197927
#
# Stress axis : x y z
#
# Youngs Moduli (GPa) = 89.83773 32.08386 41.58798
#
# Poissons Ratio (x) = -0.00599 0.12170
# Poissons Ratio (y) = -0.01677 -0.02316
# Poissons Ratio (z) = 0.26289 -0.01786
#
# Static dielectric constant tensor:
#      x y z
#    x 4.319440 0.000000 0.000000 
#    y 0.000000 3.656180 0.000000 
#    z 0.000000 0.000000 4.053080 
# 
# 
# High freq. dielectric constant tensor:
#      x y z
#    x 1.887750 0.000000 0.000000 
#    y 0.000000 1.837880 0.000000 
#    z 0.000000 0.000000 1.865050 
# 
# From -- ./inp_files/46741.got.cif
#   From: 2010.03.12/outbox.cif.g09.slc.cpg/sg64_24_cif.got.tgz:46741.got - 2010.04.10 20:19:32.
