data_PCOD8263189
_publ_section_title
;
Structure prediction by ZEFSAII (Michael W. Deem and Ramdas Pophale) SiO2 
 PCOD8263189
Probable space group: C M C A
;
_chemical_formula_sum "Si O2"
_cell_formula_units_Z 80
_cell_length_a 14.019502
_cell_length_b 22.806365
_cell_length_c 12.789871
_cell_angle_alpha 90.000000
_cell_angle_beta 90.000000
_cell_angle_gamma 90.000000
_cell_volume 4089.355076
_symmetry_space_group_name_H-M "C M C A"
_symmetry_group_IT_number 64
_symmetry_cell_setting 'orthorhombic'
loop_
_space_group_symop_operation_xyz
x,y,z
-x,1/2-y,1/2+z
x,-y,-z
-x,1/2+y,1/2-z
-x,-y,-z
x,1/2+y,1/2-z
-x,y,z
x,1/2-y,1/2+z
1/2+x,1/2+y,z
1/2-x,-y,1/2+z
1/2+x,1/2-y,-z
1/2-x,y,1/2-z
1/2-x,1/2-y,-z
1/2+x,y,1/2-z
1/2-x,1/2+y,z
1/2+x,-y,1/2+z
loop_
_atom_site_type_symbol
_atom_site_label
_atom_site_fract_x
_atom_site_fract_y
_atom_site_fract_z
Si Si1 0.303636 0.904629 0.954915
Si Si2 0.000000 0.251032 0.636320
Si Si3 0.000000 0.930373 0.281475
Si Si4 0.185452 0.519261 0.838971
Si Si5 0.000000 0.859421 0.494482
Si Si6 0.333571 0.798316 0.517504
Si Si7 0.000000 0.182064 0.852736
O O1 0.217050 0.859462 0.956075
O O2 0.288713 0.951824 0.863351
O O3 0.306187 0.938864 0.062957
O O4 0.405728 0.873003 0.937757
O O5 0.900573 0.286091 0.619067
O O6 0.000000 0.208259 0.535609
O O7 0.000000 0.223409 0.750753
O O8 0.915711 0.976762 0.283231
O O9 0.000000 0.893531 0.386743
O O10 0.000000 0.886195 0.182597
O O11 0.250000 0.546383 0.750000
O O12 0.250000 0.750000 0.500000
O O13 0.402741 0.805191 0.416644
#
# Coordination Sequence:
#
# PCOD8263189 Si02
#       7
#    16   8   8  16   8  16   8
#     4  10  20  36  60  86 120 157 197 259 305 367
#     4  10  21  40  57  89 121 160 209 245 302 371
#     4   9  18  35  59  87 115 149 201 254 295 354
#     4  10  20  36  58  88 116 154 209 249 307 362
#     4   9  16  33  58  83 111 145 194 248 298 350
#     4  11  22  39  61  89 126 165 203 257 318 371
#     4  10  23  40  62  90 123 168 209 257 309 373
#
# _framework density 19.562989000000002
#
# number of rings (size 3 to 8) (size 9 to 14) (size 15 to 20)
#    0.000    2.000    2.000    1.800    0.000    3.200 
#    3.600    2.000    0.000    7.200    0.000    0.000 
#    0.000    0.000    0.000    0.000    0.000    0.000 
#
# Total GULP energy -495624.346047 kJ/mol
# GULP energy per Si atom -12390.608651 kJ/mol
# Density = 1.951846 g / cm^3
# Si number density = 19.562989 Si / 1000 Ang^3
#
#
#
# Elastic Constant Matrix: (Units=GPa)
#
#
# Indices 1 2 3 4 5 6 
#
# 1 156.5586 67.4554 43.5953 0.0000 0.0000 0.0000
# 2 67.4554 117.5658 32.8218 0.0000 0.0000 0.0000
# 3 43.5953 32.8218 74.2907 0.0000 0.0000 0.0000
# 4 0.0000 0.0000 0.0000 -23.2203 0.0000 0.0000
# 5 0.0000 0.0000 0.0000 0.0000 26.2177 0.0000
# 6 0.0000 0.0000 0.0000 0.0000 0.0000 39.1711
#
#
#
# Elastic Compliance Matrix: (Units=1/GPa)
#
#
# Indices 1 2 3 4 5 6 
#
# 1 0.009222 -0.004312 -0.003506 0.000000 0.000000 0.000000
# 2 -0.004312 0.011719 -0.002647 0.000000 0.000000 0.000000
# 3 -0.003506 -0.002647 0.016688 0.000000 0.000000 0.000000
# 4 0.000000 0.000000 0.000000 -0.043066 0.000000 0.000000
# 5 0.000000 0.000000 0.000000 0.000000 0.038142 0.000000
# 6 0.000000 0.000000 0.000000 0.000000 0.000000 0.025529
#
#
# Mechanical properties :
#
#
# Convention : Reuss Voigt Hill
#
# Bulk Modulus (GPa) = 59.88987 70.68446 65.28717
# Shear Modulus (GPa) = 59.01033 22.06987 40.54010
#
# Velocity S-wave (km/s) = 5.49816 3.36243 4.55718
# Velocity P-wave (km/s) = 8.42536 7.16134 7.81893
#
# Compressibility (1/GPa) = 0.01669731
#
# Stress axis : x y z
#
# Youngs Moduli (GPa) = 108.43924 85.33084 59.92442
#
# Poissons Ratio (x) = 0.36797 0.21012
# Poissons Ratio (y) = 0.46762 0.15862
# Poissons Ratio (z) = 0.38023 0.22587
#
# Static dielectric constant tensor:
#      x y z
#    x 3.798310 0.000000 0.000000 
#    y 0.000000 3.698060 0.000000 
#    z 0.000000 0.000000 3.359110 
# 
# 
# High freq. dielectric constant tensor:
#      x y z
#    x 1.779510 0.000000 0.000000 
#    y 0.000000 1.765520 0.000000 
#    z 0.000000 0.000000 1.741480 
# 
# From -- ./inp_files/14518.got.cif
#   From: 2010.03.12/outbox.cif.g09.slc.cpg/sg64_8_cif.got.tgz:14518.got - 2010.04.10 20:19:32.
