data_PCOD8263573
_publ_section_title
;
Structure prediction by ZEFSAII (Michael W. Deem and Ramdas Pophale) SiO2 
 PCOD8263573
Probable space group: C M C A
;
_chemical_formula_sum "Si O2"
_cell_formula_units_Z 96
_cell_length_a 8.765923
_cell_length_b 29.314267
_cell_length_c 19.368937
_cell_angle_alpha 90.000000
_cell_angle_beta 90.000000
_cell_angle_gamma 90.000000
_cell_volume 4977.170028
_symmetry_space_group_name_H-M "C M C A"
_symmetry_group_IT_number 64
_symmetry_cell_setting 'orthorhombic'
loop_
_space_group_symop_operation_xyz
x,y,z
-x,1/2-y,1/2+z
x,-y,-z
-x,1/2+y,1/2-z
-x,-y,-z
x,1/2+y,1/2-z
-x,y,z
x,1/2-y,1/2+z
1/2+x,1/2+y,z
1/2-x,-y,1/2+z
1/2+x,1/2-y,-z
1/2-x,y,1/2-z
1/2-x,1/2-y,-z
1/2+x,y,1/2-z
1/2-x,1/2+y,z
1/2+x,-y,1/2+z
loop_
_atom_site_type_symbol
_atom_site_label
_atom_site_fract_x
_atom_site_fract_y
_atom_site_fract_z
Si Si1 0.679338 0.380427 0.559777
Si Si2 0.819118 0.859624 0.086908
Si Si3 0.322446 0.820572 0.677640
Si Si4 0.178151 0.523706 0.428352
Si Si5 0.176178 0.786128 0.321772
Si Si6 0.821001 0.444730 0.324709
O O1 0.500000 0.376535 0.549099
O O2 0.762762 0.366719 0.490054
O O3 0.731841 0.345825 0.618219
O O4 0.722997 0.431292 0.582488
O O5 0.755899 0.812011 0.115258
O O6 0.757042 0.900814 0.134550
O O7 0.000000 0.858357 0.085759
O O8 0.500000 0.834064 0.676721
O O9 0.250000 0.835808 0.750000
O O10 0.298224 0.767079 0.665291
O O11 0.222653 0.500000 0.500000
O O12 0.222752 0.490080 0.366440
O O13 0.000000 0.536711 0.428006
O O14 0.250000 0.802168 0.250000
O O15 0.000000 0.799446 0.318985
O O16 0.750000 0.447799 0.250000
O O17 0.000000 0.440061 0.316816
#
# Coordination Sequence:
#
# PCOD8263573 Si02
#       6
#    16  16  16  16  16  16
#     4  12  25  39  61  92 122 156 201 252 306 361
#     4  11  22  39  61  87 121 163 203 245 301 360
#     4  10  22  42  65  88 120 159 202 250 302 360
#     4  10  20  41  64  82 115 160 202 242 296 359
#     4  10  21  38  61  90 121 159 202 248 302 359
#     4  10  22  38  60  88 118 155 197 244 295 355
#
# _framework density 19.288067999999999
#
# number of rings (size 3 to 8) (size 9 to 14) (size 15 to 20)
#    0.000    1.500    1.667    3.500    0.000    7.000 
#    0.000    1.667    0.000    0.000    0.000    0.000 
#    0.000    0.000    0.000    0.000    0.000    0.000 
#
# Total GULP energy -595483.688655 kJ/mol
# GULP energy per Si atom -12405.910180 kJ/mol
# Density = 1.924417 g / cm^3
# Si number density = 19.288068 Si / 1000 Ang^3
#
#
#
# Elastic Constant Matrix: (Units=GPa)
#
#
# Indices 1 2 3 4 5 6 
#
# 1 85.7636 44.7204 39.1706 0.0000 0.0000 0.0000
# 2 44.7204 84.3701 59.9288 0.0000 0.0000 0.0000
# 3 39.1706 59.9288 147.4065 0.0000 0.0000 0.0000
# 4 0.0000 0.0000 0.0000 51.3313 0.0000 0.0000
# 5 0.0000 0.0000 0.0000 0.0000 38.9979 0.0000
# 6 0.0000 0.0000 0.0000 0.0000 0.0000 32.7817
#
#
#
# Elastic Compliance Matrix: (Units=1/GPa)
#
#
# Indices 1 2 3 4 5 6 
#
# 1 0.016251 -0.007798 -0.001148 0.000000 0.000000 0.000000
# 2 -0.007798 0.020407 -0.006224 0.000000 0.000000 0.000000
# 3 -0.001148 -0.006224 0.009620 0.000000 0.000000 0.000000
# 4 0.000000 0.000000 0.000000 0.019481 0.000000 0.000000
# 5 0.000000 0.000000 0.000000 0.000000 0.025642 0.000000
# 6 0.000000 0.000000 0.000000 0.000000 0.000000 0.030505
#
#
# Mechanical properties :
#
#
# Convention : Reuss Voigt Hill
#
# Bulk Modulus (GPa) = 62.74998 67.24220 64.99609
# Shear Modulus (GPa) = 31.73412 36.20353 33.96883
#
# Velocity S-wave (km/s) = 4.06060 4.33713 4.20114
# Velocity P-wave (km/s) = 7.38839 7.74717 7.56990
#
# Compressibility (1/GPa) = 0.01593626
#
# Stress axis : x y z
#
# Youngs Moduli (GPa) = 61.53644 49.00214 103.95496
#
# Poissons Ratio (x) = 0.38213 0.11933
# Poissons Ratio (y) = 0.47988 0.64706
# Poissons Ratio (z) = 0.07064 0.30501
#
# Static dielectric constant tensor:
#      x y z
#    x 3.586870 0.000000 0.000000 
#    y 0.000000 3.698950 0.000000 
#    z 0.000000 0.000000 3.528510 
# 
# 
# High freq. dielectric constant tensor:
#      x y z
#    x 1.756220 0.000000 0.000000 
#    y 0.000000 1.758910 0.000000 
#    z 0.000000 0.000000 1.760060 
# 
# From -- ./inp_files/37022.got.cif
#   From: 2010.03.12/outbox.cif.g09.slc.cpg/sg64_19_cif.got.tgz:37022.got - 2010.04.10 20:19:32.
