data_PCOD8263278
_publ_section_title
;
Structure prediction by ZEFSAII (Michael W. Deem and Ramdas Pophale) SiO2 
 PCOD8263278
Probable space group: C M C A
;
_chemical_formula_sum "Si O2"
_cell_formula_units_Z 96
_cell_length_a 8.805456
_cell_length_b 23.356018
_cell_length_c 25.514587
_cell_angle_alpha 90.000000
_cell_angle_beta 90.000000
_cell_angle_gamma 90.000000
_cell_volume 5247.339883
_symmetry_space_group_name_H-M "C M C A"
_symmetry_group_IT_number 64
_symmetry_cell_setting 'orthorhombic'
loop_
_space_group_symop_operation_xyz
x,y,z
-x,1/2-y,1/2+z
x,-y,-z
-x,1/2+y,1/2-z
-x,-y,-z
x,1/2+y,1/2-z
-x,y,z
x,1/2-y,1/2+z
1/2+x,1/2+y,z
1/2-x,-y,1/2+z
1/2+x,1/2-y,-z
1/2-x,y,1/2-z
1/2-x,1/2-y,-z
1/2+x,y,1/2-z
1/2-x,1/2+y,z
1/2+x,-y,1/2+z
loop_
_atom_site_type_symbol
_atom_site_label
_atom_site_fract_x
_atom_site_fract_y
_atom_site_fract_z
Si Si1 0.679124 0.497828 0.939333
Si Si2 0.178299 0.811521 0.501207
Si Si3 0.179623 0.112920 0.596557
Si Si4 0.678388 0.813661 0.195731
Si Si5 0.179845 0.683636 0.305051
Si Si6 0.319914 0.383456 0.600255
O O1 0.500000 0.488607 0.935244
O O2 0.727442 0.554782 0.908909
O O3 0.764539 0.447489 0.909336
O O4 0.732200 0.500000 0.000000
O O5 0.250000 0.750000 0.500000
O O6 0.230951 0.845907 0.450293
O O7 0.237287 0.844840 0.552083
O O8 0.000000 0.804049 0.502191
O O9 0.231049 0.143500 0.650151
O O10 0.000000 0.100397 0.594869
O O11 0.500000 0.815274 0.202683
O O12 0.750000 0.835021 0.250000
O O13 0.730302 0.748894 0.181832
O O14 0.250000 0.664492 0.250000
O O15 0.245298 0.640710 0.347630
O O16 0.000000 0.677558 0.302879
O O17 0.500000 0.382929 0.605891
#
# Coordination Sequence:
#
# PCOD8263278 Si02
#       6
#    16  16  16  16  16  16
#     4  11  23  38  57  82 111 148 191 237 287 338
#     4  10  21  34  53  81 113 145 182 229 283 341
#     4  10  20  37  57  80 111 149 189 230 281 339
#     4   9  19  35  58  84 114 150 186 228 280 334
#     4  10  20  37  60  86 118 151 188 233 280 335
#     4  11  22  37  58  83 112 150 191 232 283 341
#
# _framework density 18.294983999999999
#
# number of rings (size 3 to 8) (size 9 to 14) (size 15 to 20)
#    0.000    1.833    1.667    2.500    0.000    5.333 
#    0.000    0.833    0.000    2.000    0.000    0.000 
#    0.000    0.000    0.000    0.000    0.000    0.000 
#
# Total GULP energy -595395.424883 kJ/mol
# GULP energy per Si atom -12404.071352 kJ/mol
# Density = 1.825334 g / cm^3
# Si number density = 18.294984 Si / 1000 Ang^3
#
#
#
# Elastic Constant Matrix: (Units=GPa)
#
#
# Indices 1 2 3 4 5 6 
#
# 1 49.9635 34.2117 43.4459 0.0000 0.0000 0.0000
# 2 34.2117 128.3917 77.0466 0.0000 0.0000 0.0000
# 3 43.4459 77.0466 157.6559 0.0000 0.0000 0.0000
# 4 0.0000 0.0000 0.0000 15.4909 0.0000 0.0000
# 5 0.0000 0.0000 0.0000 0.0000 30.6873 0.0000
# 6 0.0000 0.0000 0.0000 0.0000 0.0000 33.2551
#
#
#
# Elastic Compliance Matrix: (Units=1/GPa)
#
#
# Indices 1 2 3 4 5 6 
#
# 1 0.027675 -0.003959 -0.005692 0.000000 0.000000 0.000000
# 2 -0.003959 0.011587 -0.004572 0.000000 0.000000 0.000000
# 3 -0.005692 -0.004572 0.010146 0.000000 0.000000 0.000000
# 4 0.000000 0.000000 0.000000 0.064554 0.000000 0.000000
# 5 0.000000 0.000000 0.000000 0.000000 0.032587 0.000000
# 6 0.000000 0.000000 0.000000 0.000000 0.000000 0.030071
#
#
# Mechanical properties :
#
#
# Convention : Reuss Voigt Hill
#
# Bulk Modulus (GPa) = 47.70339 71.71328 59.70834
# Shear Modulus (GPa) = 23.57933 27.97378 25.77656
#
# Velocity S-wave (km/s) = 3.59394 3.91454 3.75766
# Velocity P-wave (km/s) = 6.58430 7.72754 7.17872
#
# Compressibility (1/GPa) = 0.02096287
#
# Stress axis : x y z
#
# Youngs Moduli (GPa) = 36.13429 86.30439 98.56501
#
# Poissons Ratio (x) = 0.34165 0.56101
# Poissons Ratio (y) = 0.14304 0.45060
# Poissons Ratio (z) = 0.20567 0.39455
#
# Static dielectric constant tensor:
#      x y z
#    x 3.321720 0.000000 0.000000 
#    y 0.000000 3.344740 0.000000 
#    z 0.000000 0.000000 3.499880 
# 
# 
# High freq. dielectric constant tensor:
#      x y z
#    x 1.710840 0.000000 0.000000 
#    y 0.000000 1.711540 0.000000 
#    z 0.000000 0.000000 1.714680 
# 
# From -- ./inp_files/42972.got.cif
#   From: 2010.03.12/outbox.cif.g09.slc.cpg/sg64_22_cif.got.tgz:42972.got - 2010.04.10 20:19:32.
