data_PCOD8263934
_publ_section_title
;
Structure prediction by ZEFSAII (Michael W. Deem and Ramdas Pophale) SiO2 
 PCOD8263934
Probable space group: C M C A
;
_chemical_formula_sum "Si O2"
_cell_formula_units_Z 80
_cell_length_a 17.460931
_cell_length_b 8.696841
_cell_length_c 28.171646
_cell_angle_alpha 90.000000
_cell_angle_beta 90.000000
_cell_angle_gamma 90.000000
_cell_volume 4278.003630
_symmetry_space_group_name_H-M "C M C A"
_symmetry_group_IT_number 64
_symmetry_cell_setting 'orthorhombic'
loop_
_space_group_symop_operation_xyz
x,y,z
-x,1/2-y,1/2+z
x,-y,-z
-x,1/2+y,1/2-z
-x,-y,-z
x,1/2+y,1/2-z
-x,y,z
x,1/2-y,1/2+z
1/2+x,1/2+y,z
1/2-x,-y,1/2+z
1/2+x,1/2-y,-z
1/2-x,y,1/2-z
1/2-x,1/2-y,-z
1/2+x,y,1/2-z
1/2-x,1/2+y,z
1/2+x,-y,1/2+z
loop_
_atom_site_type_symbol
_atom_site_label
_atom_site_fract_x
_atom_site_fract_y
_atom_site_fract_z
Si Si1 0.913253 0.404655 0.205819
Si Si2 0.171723 0.714045 0.220649
Si Si3 0.910833 0.484849 0.554010
Si Si4 0.844809 0.244140 0.119784
Si Si5 0.197913 0.585134 0.628348
O O1 0.895799 0.287726 0.248313
O O2 0.852281 0.542285 0.206835
O O3 0.905305 0.314302 0.156357
O O4 0.000000 0.464825 0.210630
O O5 0.250000 0.711862 0.250000
O O6 0.179187 0.814002 0.173649
O O7 0.883272 0.500000 0.500000
O O8 0.890378 0.312152 0.572684
O O9 0.865656 0.608806 0.586747
O O10 0.000000 0.520337 0.559115
O O11 0.780386 0.369447 0.106639
O O12 0.802021 0.095195 0.143617
#
# Coordination Sequence:
#
# PCOD8263934 Si02
#       5
#    16  16  16  16  16
#     4  12  25  39  59  89 124 164 211 257 305 366
#     4  12  24  40  61  86 125 171 206 253 308 368
#     4   9  21  41  66  94 126 161 202 258 319 373
#     4  10  21  39  61  89 120 160 204 253 305 364
#     4  10  22  38  64  90 121 163 209 249 304 370
#
# _framework density 18.700310999999999
#
# number of rings (size 3 to 8) (size 9 to 14) (size 15 to 20)
#    1.200    0.200    2.000    4.200    0.000    2.400 
#    0.000    0.000    0.000    0.000    0.000    7.000 
#    0.000    0.000    0.000    0.000    0.000    0.000 
#
# Total GULP energy -495875.105830 kJ/mol
# GULP energy per Si atom -12396.877646 kJ/mol
# Density = 1.865775 g / cm^3
# Si number density = 18.700311 Si / 1000 Ang^3
#
#
#
# Elastic Constant Matrix: (Units=GPa)
#
#
# Indices 1 2 3 4 5 6 
#
# 1 100.3411 20.9278 56.7565 0.0000 0.0000 0.0000
# 2 20.9278 78.9988 27.7330 0.0000 0.0000 0.0000
# 3 56.7565 27.7330 128.0286 0.0000 0.0000 0.0000
# 4 0.0000 0.0000 0.0000 21.0720 0.0000 0.0000
# 5 0.0000 0.0000 0.0000 0.0000 32.0028 0.0000
# 6 0.0000 0.0000 0.0000 0.0000 0.0000 22.8594
#
#
#
# Elastic Compliance Matrix: (Units=1/GPa)
#
#
# Indices 1 2 3 4 5 6 
#
# 1 0.013485 -0.001595 -0.005632 0.000000 0.000000 0.000000
# 2 -0.001595 0.013889 -0.002301 0.000000 0.000000 0.000000
# 3 -0.005632 -0.002301 0.010806 0.000000 0.000000 0.000000
# 4 0.000000 0.000000 0.000000 0.047456 0.000000 0.000000
# 5 0.000000 0.000000 0.000000 0.000000 0.031247 0.000000
# 6 0.000000 0.000000 0.000000 0.000000 0.000000 0.043746
#
#
# Mechanical properties :
#
#
# Convention : Reuss Voigt Hill
#
# Bulk Modulus (GPa) = 52.29577 57.57813 54.93695
# Shear Modulus (GPa) = 26.87299 28.65026 27.76162
#
# Velocity S-wave (km/s) = 3.79494 3.91842 3.85717
# Velocity P-wave (km/s) = 6.87226 7.16441 7.01985
#
# Compressibility (1/GPa) = 0.01912200
#
# Stress axis : x y z
#
# Youngs Moduli (GPa) = 74.15905 72.00002 92.53966
#
# Poissons Ratio (x) = 0.11484 0.52122
# Poissons Ratio (y) = 0.11828 0.21298
# Poissons Ratio (z) = 0.41769 0.16571
#
# Static dielectric constant tensor:
#      x y z
#    x 3.367690 0.000000 0.000000 
#    y 0.000000 3.404230 0.000000 
#    z 0.000000 0.000000 3.397330 
# 
# 
# High freq. dielectric constant tensor:
#      x y z
#    x 1.732520 0.000000 0.000000 
#    y 0.000000 1.719050 0.000000 
#    z 0.000000 0.000000 1.717270 
# 
# From -- ./inp_files/50282.got.cif
#   From: 2010.03.12/outbox.cif.g09.slc.cpg/sg64_26_cif.got.tgz:50282.got - 2010.04.10 20:19:32.
