data_PCOD8263479
_publ_section_title
;
Structure prediction by ZEFSAII (Michael W. Deem and Ramdas Pophale) SiO2 
 PCOD8263479
Probable space group: C M C A
;
_chemical_formula_sum "Si O2"
_cell_formula_units_Z 112
_cell_length_a 29.253089
_cell_length_b 14.796780
_cell_length_c 13.618453
_cell_angle_alpha 90.000000
_cell_angle_beta 90.000000
_cell_angle_gamma 90.000000
_cell_volume 5894.768112
_symmetry_space_group_name_H-M "C M C A"
_symmetry_group_IT_number 64
_symmetry_cell_setting 'orthorhombic'
loop_
_space_group_symop_operation_xyz
x,y,z
-x,1/2-y,1/2+z
x,-y,-z
-x,1/2+y,1/2-z
-x,-y,-z
x,1/2+y,1/2-z
-x,y,z
x,1/2-y,1/2+z
1/2+x,1/2+y,z
1/2-x,-y,1/2+z
1/2+x,1/2-y,-z
1/2-x,y,1/2-z
1/2-x,1/2-y,-z
1/2+x,y,1/2-z
1/2-x,1/2+y,z
1/2+x,-y,1/2+z
loop_
_atom_site_type_symbol
_atom_site_label
_atom_site_fract_x
_atom_site_fract_y
_atom_site_fract_z
Si Si1 0.789994 0.896107 0.501028
Si Si2 0.154413 0.838554 0.324499
Si Si3 0.391666 0.776511 0.528123
Si Si4 0.050240 0.436076 0.591807
Si Si5 0.368273 0.528027 0.230893
Si Si6 0.185891 0.084321 0.059400
Si Si7 0.145629 0.802192 0.652806
O O1 0.800558 0.852869 0.393481
O O2 0.736762 0.893918 0.525903
O O3 0.812646 0.835929 0.585646
O O4 0.807825 0.000000 0.500000
O O5 0.112457 0.804946 0.393204
O O6 0.163902 0.767464 0.236280
O O7 0.138921 0.934015 0.283272
O O8 0.435143 0.836363 0.555354
O O9 0.343773 0.828889 0.536531
O O10 0.393685 0.742950 0.415465
O O11 0.046420 0.500000 0.500000
O O12 0.087240 0.480324 0.663161
O O13 0.000000 0.427766 0.641750
O O14 0.321384 0.555764 0.173209
O O15 0.379024 0.610083 0.303689
O O16 0.165436 0.000000 0.000000
#
# Coordination Sequence:
#
# PCOD8263479 Si02
#       7
#    16  16  16  16  16  16  16
#     4  10  22  39  55  84 121 161 211 253 298 349
#     4  11  21  38  61  86 117 166 202 245 303 360
#     4  10  21  38  58  87 119 157 197 245 309 356
#     4  10  20  39  66  92 118 149 196 249 304 364
#     4  11  21  39  61  85 119 159 197 246 305 360
#     4  10  20  39  55  78 118 159 203 258 290 343
#     4  11  21  37  60  85 116 159 203 243 299 360
#
# _framework density 18.9999
#
# number of rings (size 3 to 8) (size 9 to 14) (size 15 to 20)
#    0.000    1.571    4.286    3.429    0.000    2.857 
#    2.571    4.286    0.000    0.000    0.000    3.000 
#    0.000    0.000    0.000    0.000    0.000    0.000 
#
# Total GULP energy -694058.100757 kJ/mol
# GULP energy per Si atom -12393.894656 kJ/mol
# Density = 1.895666 g / cm^3
# Si number density = 18.999900 Si / 1000 Ang^3
#
#
#
# Elastic Constant Matrix: (Units=GPa)
#
#
# Indices 1 2 3 4 5 6 
#
# 1 100.7469 27.3208 40.5763 0.0000 0.0000 0.0000
# 2 27.3208 110.5964 50.7892 0.0000 0.0000 0.0000
# 3 40.5763 50.7892 121.7279 0.0000 0.0000 0.0000
# 4 0.0000 0.0000 0.0000 52.0404 0.0000 0.0000
# 5 0.0000 0.0000 0.0000 0.0000 1.1532 0.0000
# 6 0.0000 0.0000 0.0000 0.0000 0.0000 -21.9773
#
#
#
# Elastic Compliance Matrix: (Units=1/GPa)
#
#
# Indices 1 2 3 4 5 6 
#
# 1 0.011626 -0.001351 -0.003312 0.000000 0.000000 0.000000
# 2 -0.001351 0.011342 -0.004282 0.000000 0.000000 0.000000
# 3 -0.003312 -0.004282 0.011105 0.000000 0.000000 0.000000
# 4 0.000000 0.000000 0.000000 0.019216 0.000000 0.000000
# 5 0.000000 0.000000 0.000000 0.000000 0.867147 0.000000
# 6 0.000000 0.000000 0.000000 0.000000 0.000000 -0.045501
#
#
# Mechanical properties :
#
#
# Convention : Reuss Voigt Hill
#
# Bulk Modulus (GPa) = 61.78882 63.38262 62.58572
# Shear Modulus (GPa) = 5.56657 20.53558 13.05108
#
# Velocity S-wave (km/s) = 1.71352 3.29116 2.62373
# Velocity P-wave (km/s) = 6.04203 6.91912 6.49539
#
# Compressibility (1/GPa) = 0.01618416
#
# Stress axis : x y z
#
# Youngs Moduli (GPa) = 86.01368 88.16746 90.04563
#
# Poissons Ratio (x) = 0.11913 0.29820
# Poissons Ratio (y) = 0.11622 0.38557
# Poissons Ratio (z) = 0.28484 0.37752
#
# Static dielectric constant tensor:
#      x y z
#    x 3.292180 0.000000 0.000000 
#    y 0.000000 3.946930 0.000000 
#    z 0.000000 0.000000 3.904430 
# 
# 
# High freq. dielectric constant tensor:
#      x y z
#    x 1.694320 0.000000 0.000000 
#    y 0.000000 1.763090 0.000000 
#    z 0.000000 0.000000 1.749810 
# 
# From -- ./inp_files/28470.got.cif
#   From: 2010.03.12/outbox.cif.g09.slc.cpg/sg64_15_cif.got.tgz:28470.got - 2010.04.10 20:19:32.
