data_PCOD8263883
_publ_section_title
;
Structure prediction by ZEFSAII (Michael W. Deem and Ramdas Pophale) SiO2 
 PCOD8263883
Probable space group: C M C A
;
_chemical_formula_sum "Si O2"
_cell_formula_units_Z 80
_cell_length_a 8.369292
_cell_length_b 18.167572
_cell_length_c 25.246408
_cell_angle_alpha 90.000000
_cell_angle_beta 90.000000
_cell_angle_gamma 90.000000
_cell_volume 3838.709141
_symmetry_space_group_name_H-M "C M C A"
_symmetry_group_IT_number 64
_symmetry_cell_setting 'orthorhombic'
loop_
_space_group_symop_operation_xyz
x,y,z
-x,1/2-y,1/2+z
x,-y,-z
-x,1/2+y,1/2-z
-x,-y,-z
x,1/2+y,1/2-z
-x,y,z
x,1/2-y,1/2+z
1/2+x,1/2+y,z
1/2-x,-y,1/2+z
1/2+x,1/2-y,-z
1/2-x,y,1/2-z
1/2-x,1/2-y,-z
1/2+x,y,1/2-z
1/2-x,1/2+y,z
1/2+x,-y,1/2+z
loop_
_atom_site_type_symbol
_atom_site_label
_atom_site_fract_x
_atom_site_fract_y
_atom_site_fract_z
Si Si1 0.816409 0.322703 0.903354
Si Si2 0.187966 0.424894 0.806734
Si Si3 0.315832 0.083991 0.495968
Si Si4 0.812880 0.916022 0.191855
Si Si5 0.182673 0.164837 0.593693
O O1 0.767108 0.363047 0.849166
O O2 0.706183 0.252042 0.911023
O O3 0.000000 0.297611 0.901290
O O4 0.793247 0.377298 0.952329
O O5 0.250000 0.396775 0.750000
O O6 0.275231 0.499963 0.823677
O O7 0.000000 0.440912 0.804188
O O8 0.500000 0.089005 0.478586
O O9 0.295021 0.122653 0.552501
O O10 0.258752 0.000000 0.500000
O O11 0.750000 0.897541 0.250000
O O12 0.724940 0.860596 0.152573
O O13 0.000000 0.901738 0.188696
O O14 0.000000 0.146200 0.580467
#
# Coordination Sequence:
#
# PCOD8263883 Si02
#       5
#    16  16  16  16  16
#     4  11  24  41  61  88 123 160 200 247 300 357
#     4  10  21  38  62  90 121 158 200 246 295 350
#     4  11  24  42  65  91 119 155 199 246 298 357
#     4  11  22  39  63  90 122 158 201 248 295 352
#     4  12  25  41  62  88 122 160 199 246 300 356
#
# _framework density 20.840337999999999
#
# number of rings (size 3 to 8) (size 9 to 14) (size 15 to 20)
#    0.000    1.000    0.000    8.400    0.000    8.800 
#    0.000    2.000    0.000    0.000    0.000    0.000 
#    0.000    0.000    0.000    0.000    0.000    0.000 
#
# Total GULP energy -496365.162385 kJ/mol
# GULP energy per Si atom -12409.129060 kJ/mol
# Density = 2.079290 g / cm^3
# Si number density = 20.840338 Si / 1000 Ang^3
#
#
#
# Elastic Constant Matrix: (Units=GPa)
#
#
# Indices 1 2 3 4 5 6 
#
# 1 72.7987 19.9115 19.3663 0.0000 0.0000 0.0000
# 2 19.9115 123.2416 59.9985 0.0000 0.0000 0.0000
# 3 19.3663 59.9985 109.7763 0.0000 0.0000 0.0000
# 4 0.0000 0.0000 0.0000 61.8966 0.0000 0.0000
# 5 0.0000 0.0000 0.0000 0.0000 15.6134 0.0000
# 6 0.0000 0.0000 0.0000 0.0000 0.0000 29.3396
#
#
#
# Elastic Compliance Matrix: (Units=1/GPa)
#
#
# Indices 1 2 3 4 5 6 
#
# 1 0.014616 -0.001507 -0.001755 0.000000 0.000000 0.000000
# 2 -0.001507 0.011211 -0.005862 0.000000 0.000000 0.000000
# 3 -0.001755 -0.005862 0.012623 0.000000 0.000000 0.000000
# 4 0.000000 0.000000 0.000000 0.016156 0.000000 0.000000
# 5 0.000000 0.000000 0.000000 0.000000 0.064048 0.000000
# 6 0.000000 0.000000 0.000000 0.000000 0.000000 0.034084
#
#
# Mechanical properties :
#
#
# Convention : Reuss Voigt Hill
#
# Bulk Modulus (GPa) = 49.49869 56.04103 52.76986
# Shear Modulus (GPa) = 28.13446 35.13927 31.63686
#
# Velocity S-wave (km/s) = 3.67822 4.11069 3.90045
# Velocity P-wave (km/s) = 6.46854 7.03416 6.75727
#
# Compressibility (1/GPa) = 0.02020256
#
# Stress axis : x y z
#
# Youngs Moduli (GPa) = 68.42042 89.19550 79.22220
#
# Poissons Ratio (x) = 0.13443 0.13901
# Poissons Ratio (y) = 0.10312 0.46438
# Poissons Ratio (z) = 0.12006 0.52284
#
# Static dielectric constant tensor:
#      x y z
#    x 3.769640 0.000000 0.000000 
#    y 0.000000 3.717050 0.000000 
#    z 0.000000 0.000000 3.991250 
# 
# 
# High freq. dielectric constant tensor:
#      x y z
#    x 1.828120 0.000000 0.000000 
#    y 0.000000 1.816850 0.000000 
#    z 0.000000 0.000000 1.828530 
# 
# From -- ./inp_files/47900.got.cif
#   From: 2010.03.12/outbox.cif.g09.slc.cpg/sg64_24_cif.got.tgz:47900.got - 2010.04.10 20:19:32.
