data_PCOD8263548
_publ_section_title
;
Structure prediction by ZEFSAII (Michael W. Deem and Ramdas Pophale) SiO2 
 PCOD8263548
Probable space group: C M C A
;
_chemical_formula_sum "Si O2"
_cell_formula_units_Z 72
_cell_length_a 16.960023
_cell_length_b 16.310227
_cell_length_c 12.830328
_cell_angle_alpha 90.000000
_cell_angle_beta 90.000000
_cell_angle_gamma 90.000000
_cell_volume 3549.148747
_symmetry_space_group_name_H-M "C M C A"
_symmetry_group_IT_number 64
_symmetry_cell_setting 'orthorhombic'
loop_
_space_group_symop_operation_xyz
x,y,z
-x,1/2-y,1/2+z
x,-y,-z
-x,1/2+y,1/2-z
-x,-y,-z
x,1/2+y,1/2-z
-x,y,z
x,1/2-y,1/2+z
1/2+x,1/2+y,z
1/2-x,-y,1/2+z
1/2+x,1/2-y,-z
1/2-x,y,1/2-z
1/2-x,1/2-y,-z
1/2+x,y,1/2-z
1/2-x,1/2+y,z
1/2+x,-y,1/2+z
loop_
_atom_site_type_symbol
_atom_site_label
_atom_site_fract_x
_atom_site_fract_y
_atom_site_fract_z
Si Si1 0.193184 0.500000 0.500000
Si Si2 0.092312 0.170000 0.513199
Si Si3 0.193004 0.440055 0.165393
Si Si4 0.908490 0.409034 0.795228
Si Si5 0.590853 0.146654 0.429863
O O1 0.249421 0.503513 0.598626
O O2 0.140380 0.581024 0.494170
O O3 0.144178 0.125392 0.600008
O O4 0.118814 0.139348 0.399004
O O5 0.111847 0.265561 0.521813
O O6 0.000000 0.152277 0.534577
O O7 0.250000 0.395379 0.250000
O O8 0.133155 0.503479 0.219455
O O9 0.889733 0.353842 0.693816
O O10 0.000000 0.429002 0.804546
O O11 0.500000 0.124961 0.448421
#
# Coordination Sequence:
#
# PCOD8263548 Si02
#       5
#     8  16  16  16  16
#     4  12  23  40  61  88 130 164 196 248 311 374
#     4  10  22  42  67  92 120 161 214 258 300 363
#     4  12  23  39  60  95 124 161 204 253 313 365
#     4  10  20  40  65  88 124 166 207 255 303 368
#     4  10  23  42  64  92 125 166 208 251 307 369
#
# _framework density 20.286553999999999
#
# number of rings (size 3 to 8) (size 9 to 14) (size 15 to 20)
#    0.000    1.333    4.444    1.000    0.000    4.444 
#    4.000    2.222    0.000    0.000    0.000    0.000 
#    0.000    0.000    0.000    0.000    0.000    0.000 
#
# Total GULP energy -446406.286034 kJ/mol
# GULP energy per Si atom -12400.174612 kJ/mol
# Density = 2.024038 g / cm^3
# Si number density = 20.286554 Si / 1000 Ang^3
#
#
#
# Elastic Constant Matrix: (Units=GPa)
#
#
# Indices 1 2 3 4 5 6 
#
# 1 66.9497 46.7997 30.0840 0.0000 0.0000 0.0000
# 2 46.7997 100.9874 18.9135 0.0000 0.0000 0.0000
# 3 30.0840 18.9135 70.3291 0.0000 0.0000 0.0000
# 4 0.0000 0.0000 0.0000 32.6798 0.0000 0.0000
# 5 0.0000 0.0000 0.0000 0.0000 25.3740 0.0000
# 6 0.0000 0.0000 0.0000 0.0000 0.0000 5.7805
#
#
#
# Elastic Compliance Matrix: (Units=1/GPa)
#
#
# Indices 1 2 3 4 5 6 
#
# 1 0.026003 -0.010496 -0.008301 0.000000 0.000000 0.000000
# 2 -0.010496 0.014664 0.000546 0.000000 0.000000 0.000000
# 3 -0.008301 0.000546 0.017623 0.000000 0.000000 0.000000
# 4 0.000000 0.000000 0.000000 0.030600 0.000000 0.000000
# 5 0.000000 0.000000 0.000000 0.000000 0.039410 0.000000
# 6 0.000000 0.000000 0.000000 0.000000 0.000000 0.172994
#
#
# Mechanical properties :
#
#
# Convention : Reuss Voigt Hill
#
# Bulk Modulus (GPa) = 45.89396 47.76231 46.82814
# Shear Modulus (GPa) = 14.49030 22.26479 18.37754
#
# Velocity S-wave (km/s) = 2.67550 3.31647 3.01308
# Velocity P-wave (km/s) = 5.67595 6.18549 5.93619
#
# Compressibility (1/GPa) = 0.02178936
#
# Stress axis : x y z
#
# Youngs Moduli (GPa) = 38.45648 68.19432 56.74515
#
# Poissons Ratio (x) = 0.71576 0.47102
# Poissons Ratio (y) = 0.40364 -0.03099
# Poissons Ratio (z) = 0.31921 -0.03725
#
# Static dielectric constant tensor:
#      x y z
#    x 3.883120 0.000000 0.000000 
#    y 0.000000 3.472000 0.000000 
#    z 0.000000 0.000000 4.041180 
# 
# 
# High freq. dielectric constant tensor:
#      x y z
#    x 1.805910 0.000000 0.000000 
#    y 0.000000 1.779250 0.000000 
#    z 0.000000 0.000000 1.800350 
# 
# From -- ./inp_files/15772.got.cif
#   From: 2010.03.12/outbox.cif.g09.slc.cpg/sg64_8_cif.got.tgz:15772.got - 2010.04.10 20:19:32.
