data_PCOD8263388
_publ_section_title
;
Structure prediction by ZEFSAII (Michael W. Deem and Ramdas Pophale) SiO2 
 PCOD8263388
Probable space group: C M C A
;
_chemical_formula_sum "Si O2"
_cell_formula_units_Z 96
_cell_length_a 8.776291
_cell_length_b 29.835275
_cell_length_c 19.309843
_cell_angle_alpha 90.000000
_cell_angle_beta 90.000000
_cell_angle_gamma 90.000000
_cell_volume 5056.148292
_symmetry_space_group_name_H-M "C M C A"
_symmetry_group_IT_number 64
_symmetry_cell_setting 'orthorhombic'
loop_
_space_group_symop_operation_xyz
x,y,z
-x,1/2-y,1/2+z
x,-y,-z
-x,1/2+y,1/2-z
-x,-y,-z
x,1/2+y,1/2-z
-x,y,z
x,1/2-y,1/2+z
1/2+x,1/2+y,z
1/2-x,-y,1/2+z
1/2+x,1/2-y,-z
1/2-x,y,1/2-z
1/2-x,1/2-y,-z
1/2+x,y,1/2-z
1/2-x,1/2+y,z
1/2+x,-y,1/2+z
loop_
_atom_site_type_symbol
_atom_site_label
_atom_site_fract_x
_atom_site_fract_y
_atom_site_fract_z
Si Si1 0.820749 0.303473 0.824934
Si Si2 0.820239 0.562510 0.821963
Si Si3 0.679285 0.729852 0.931372
Si Si4 0.319544 0.967194 0.677081
Si Si5 0.679031 0.609457 0.408744
Si Si6 0.177237 0.135236 0.563389
O O1 0.750000 0.302619 0.750000
O O2 0.765523 0.259678 0.866539
O O3 0.765832 0.347435 0.865862
O O4 0.000000 0.304089 0.816944
O O5 0.750000 0.580166 0.750000
O O6 0.745300 0.515597 0.843385
O O7 0.779134 0.597869 0.880936
O O8 0.000000 0.555694 0.813370
O O9 0.500000 0.732753 0.939940
O O10 0.729153 0.679297 0.917591
O O11 0.750000 0.750000 0.000000
O O12 0.500000 0.969625 0.684183
O O13 0.250000 0.950619 0.750000
O O14 0.272549 0.933250 0.616944
O O15 0.500000 0.600359 0.399711
O O16 0.723457 0.616888 0.488382
O O17 0.000000 0.147827 0.565283
#
# Coordination Sequence:
#
# PCOD8263388 Si02
#       6
#    16  16  16  16  16  16
#     4  10  22  38  58  85 117 151 193 239 285 341
#     4  10  21  39  62  85 115 155 196 241 293 345
#     4  11  22  39  61  85 116 155 195 238 289 344
#     4  11  22  37  58  85 117 153 196 240 291 345
#     4  10  20  38  59  83 118 152 192 238 289 349
#     4  10  22  40  62  87 116 153 194 239 292 350
#
# _framework density 18.986785000000001
#
# number of rings (size 3 to 8) (size 9 to 14) (size 15 to 20)
#    0.000    1.667    1.667    4.000    0.000    6.667 
#    0.000    6.667    0.000    0.000    0.000    0.000 
#    0.000    0.000    0.000    0.000    0.000    0.000 
#
# Total GULP energy -595418.778915 kJ/mol
# GULP energy per Si atom -12404.557894 kJ/mol
# Density = 1.894357 g / cm^3
# Si number density = 18.986785 Si / 1000 Ang^3
#
#
#
# Elastic Constant Matrix: (Units=GPa)
#
#
# Indices 1 2 3 4 5 6 
#
# 1 86.0977 61.1244 58.2491 0.0000 0.0000 0.0000
# 2 61.1244 141.9609 99.6491 0.0000 0.0000 0.0000
# 3 58.2491 99.6491 170.7825 0.0000 0.0000 0.0000
# 4 0.0000 0.0000 0.0000 40.5143 0.0000 0.0000
# 5 0.0000 0.0000 0.0000 0.0000 33.4067 0.0000
# 6 0.0000 0.0000 0.0000 0.0000 0.0000 34.9130
#
#
#
# Elastic Compliance Matrix: (Units=1/GPa)
#
#
# Indices 1 2 3 4 5 6 
#
# 1 0.017408 -0.005636 -0.002649 0.000000 0.000000 0.000000
# 2 -0.005636 0.013755 -0.006104 0.000000 0.000000 0.000000
# 3 -0.002649 -0.006104 0.010320 0.000000 0.000000 0.000000
# 4 0.000000 0.000000 0.000000 0.024683 0.000000 0.000000
# 5 0.000000 0.000000 0.000000 0.000000 0.029934 0.000000
# 6 0.000000 0.000000 0.000000 0.000000 0.000000 0.028643
#
#
# Mechanical properties :
#
#
# Convention : Reuss Voigt Hill
#
# Bulk Modulus (GPa) = 78.70040 92.98740 85.84390
# Shear Modulus (GPa) = 31.69447 33.75469 32.72458
#
# Velocity S-wave (km/s) = 4.09013 4.22097 4.15606
# Velocity P-wave (km/s) = 7.99034 8.53443 8.26687
#
# Compressibility (1/GPa) = 0.01270642
#
# Stress axis : x y z
#
# Youngs Moduli (GPa) = 57.44466 72.69822 96.89612
#
# Poissons Ratio (x) = 0.40973 0.25666
# Poissons Ratio (y) = 0.32376 0.59144
# Poissons Ratio (z) = 0.15216 0.44374
#
# Static dielectric constant tensor:
#      x y z
#    x 3.379270 0.000000 0.000000 
#    y 0.000000 3.718880 0.000000 
#    z 0.000000 0.000000 3.600930 
# 
# 
# High freq. dielectric constant tensor:
#      x y z
#    x 1.739680 0.000000 0.000000 
#    y 0.000000 1.748270 0.000000 
#    z 0.000000 0.000000 1.744880 
# 
# From -- ./inp_files/37041.got.cif
#   From: 2010.03.12/outbox.cif.g09.slc.cpg/sg64_19_cif.got.tgz:37041.got - 2010.04.10 20:19:32.
