data_PCOD8263170
_publ_section_title
;
Structure prediction by ZEFSAII (Michael W. Deem and Ramdas Pophale) SiO2 
 PCOD8263170
Probable space group: C M C A
;
_chemical_formula_sum "Si O2"
_cell_formula_units_Z 96
_cell_length_a 27.860796
_cell_length_b 18.177451
_cell_length_c 9.873438
_cell_angle_alpha 90.000000
_cell_angle_beta 90.000000
_cell_angle_gamma 90.000000
_cell_volume 5000.286703
_symmetry_space_group_name_H-M "C M C A"
_symmetry_group_IT_number 64
_symmetry_cell_setting 'orthorhombic'
loop_
_space_group_symop_operation_xyz
x,y,z
-x,1/2-y,1/2+z
x,-y,-z
-x,1/2+y,1/2-z
-x,-y,-z
x,1/2+y,1/2-z
-x,y,z
x,1/2-y,1/2+z
1/2+x,1/2+y,z
1/2-x,-y,1/2+z
1/2+x,1/2-y,-z
1/2-x,y,1/2-z
1/2-x,1/2-y,-z
1/2+x,y,1/2-z
1/2-x,1/2+y,z
1/2+x,-y,1/2+z
loop_
_atom_site_type_symbol
_atom_site_label
_atom_site_fract_x
_atom_site_fract_y
_atom_site_fract_z
Si Si1 0.370308 0.916724 0.267829
Si Si2 0.120713 0.884228 0.926197
Si Si3 0.446528 0.686164 0.417026
Si Si4 0.398871 0.733216 0.674042
Si Si5 0.556212 0.459345 0.720549
Si Si6 0.208435 0.481390 0.650334
O O1 0.388521 0.905076 0.419950
O O2 0.365629 0.838859 0.191528
O O3 0.316578 0.949407 0.274119
O O4 0.409950 0.969542 0.196558
O O5 0.129462 0.797597 0.903743
O O6 0.072669 0.914585 0.854238
O O7 0.168014 0.919944 0.863216
O O8 0.500000 0.701096 0.367847
O O9 0.441724 0.708883 0.573746
O O10 0.414825 0.738175 0.320568
O O11 0.435145 0.598775 0.402070
O O12 0.500000 0.482498 0.731777
O O13 0.228775 0.500000 0.500000
O O14 0.250000 0.452760 0.750000
#
# Coordination Sequence:
#
# PCOD8263170 Si02
#       6
#    16  16  16  16  16  16
#     4  10  20  36  58  83 115 149 185 236 284 331
#     4   9  19  37  58  81 114 152 186 228 281 338
#     4  10  21  35  52  78 114 156 199 237 274 325
#     4  11  20  37  55  79 115 153 190 231 287 333
#     4   9  19  34  53  81 112 149 196 235 275 331
#     4   9  19  40  63  87 112 140 186 232 283 343
#
# _framework density 19.198899999999998
#
# number of rings (size 3 to 8) (size 9 to 14) (size 15 to 20)
#    0.000    2.333    1.667    2.000    0.000    4.000 
#    9.000    2.500    0.000    4.000    0.000    0.000 
#    0.000    0.000    0.000    0.000    0.000    0.000 
#
# Total GULP energy -594838.760423 kJ/mol
# GULP energy per Si atom -12392.474175 kJ/mol
# Density = 1.915520 g / cm^3
# Si number density = 19.198900 Si / 1000 Ang^3
#
#
#
# Elastic Constant Matrix: (Units=GPa)
#
#
# Indices 1 2 3 4 5 6 
#
# 1 65.0571 28.4158 26.1898 0.0000 0.0000 0.0000
# 2 28.4158 119.5455 17.3571 0.0000 0.0000 0.0000
# 3 26.1898 17.3571 55.2671 0.0000 0.0000 0.0000
# 4 0.0000 0.0000 0.0000 28.0535 0.0000 0.0000
# 5 0.0000 0.0000 0.0000 0.0000 26.4292 0.0000
# 6 0.0000 0.0000 0.0000 0.0000 0.0000 12.3931
#
#
#
# Elastic Compliance Matrix: (Units=1/GPa)
#
#
# Indices 1 2 3 4 5 6 
#
# 1 0.020378 -0.003606 -0.008524 0.000000 0.000000 0.000000
# 2 -0.003606 0.009403 -0.001244 0.000000 0.000000 0.000000
# 3 -0.008524 -0.001244 0.022524 0.000000 0.000000 0.000000
# 4 0.000000 0.000000 0.000000 0.035646 0.000000 0.000000
# 5 0.000000 0.000000 0.000000 0.000000 0.037837 0.000000
# 6 0.000000 0.000000 0.000000 0.000000 0.000000 0.080690
#
#
# Mechanical properties :
#
#
# Convention : Reuss Voigt Hill
#
# Bulk Modulus (GPa) = 39.12983 42.64391 40.88687
# Shear Modulus (GPa) = 20.68298 24.56895 22.62597
#
# Velocity S-wave (km/s) = 3.28579 3.58118 3.43666
# Velocity P-wave (km/s) = 5.90091 6.27373 6.09017
#
# Compressibility (1/GPa) = 0.02555595
#
# Stress axis : x y z
#
# Youngs Moduli (GPa) = 49.07336 106.35089 44.39704
#
# Poissons Ratio (x) = 0.38352 0.37844
# Poissons Ratio (y) = 0.17696 0.05524
# Poissons Ratio (z) = 0.41830 0.13232
#
# Static dielectric constant tensor:
#      x y z
#    x 3.142450 0.000000 0.000000 
#    y 0.000000 3.814160 0.000000 
#    z 0.000000 0.000000 3.506360 
# 
# 
# High freq. dielectric constant tensor:
#      x y z
#    x 1.708530 0.000000 0.000000 
#    y 0.000000 1.758480 0.000000 
#    z 0.000000 0.000000 1.749290 
# 
# From -- ./inp_files/19131.got.cif
#   From: 2010.03.12/outbox.cif.g09.slc.cpg/sg64_10_cif.got.tgz:19131.got - 2010.04.10 20:19:32.
