data_PCOD8263008
_publ_section_title
;
Structure prediction by ZEFSAII (Michael W. Deem and Ramdas Pophale) SiO2 
 PCOD8263008
Probable space group: C M C A
;
_chemical_formula_sum "Si O2"
_cell_formula_units_Z 80
_cell_length_a 9.240450
_cell_length_b 14.745694
_cell_length_c 29.209565
_cell_angle_alpha 90.000000
_cell_angle_beta 90.000000
_cell_angle_gamma 90.000000
_cell_volume 3980.003262
_symmetry_space_group_name_H-M "C M C A"
_symmetry_group_IT_number 64
_symmetry_cell_setting 'orthorhombic'
loop_
_space_group_symop_operation_xyz
x,y,z
-x,1/2-y,1/2+z
x,-y,-z
-x,1/2+y,1/2-z
-x,-y,-z
x,1/2+y,1/2-z
-x,y,z
x,1/2-y,1/2+z
1/2+x,1/2+y,z
1/2-x,-y,1/2+z
1/2+x,1/2-y,-z
1/2-x,y,1/2-z
1/2-x,1/2-y,-z
1/2+x,y,1/2-z
1/2-x,1/2+y,z
1/2+x,-y,1/2+z
loop_
_atom_site_type_symbol
_atom_site_label
_atom_site_fract_x
_atom_site_fract_y
_atom_site_fract_z
Si Si1 0.660040 0.369376 0.032943
Si Si2 0.665968 0.534656 0.203311
Si Si3 0.328644 0.619529 0.866244
Si Si4 0.831558 0.804096 0.862012
Si Si5 0.661696 0.843412 0.949510
O O1 0.500000 0.405829 0.020947
O O2 0.714016 0.409330 0.081744
O O3 0.655492 0.261510 0.037812
O O4 0.766624 0.398676 0.991833
O O5 0.500000 0.515910 0.214458
O O6 0.750000 0.523642 0.250000
O O7 0.721580 0.460562 0.166941
O O8 0.688868 0.634544 0.182879
O O9 0.500000 0.639950 0.864165
O O10 0.244388 0.709324 0.850840
O O11 0.758682 0.856543 0.904468
O O12 0.000000 0.788925 0.873756
O O13 0.500000 0.881265 0.940974
#
# Coordination Sequence:
#
# PCOD8263008 Si02
#       5
#    16  16  16  16  16
#     4   8  14  26  47  74 104 139 178 217 257 307
#     4  10  23  41  59  80 107 139 178 225 275 325
#     4   9  19  37  58  80 108 143 181 220 265 318
#     4  10  20  35  56  82 110 142 180 220 265 318
#     4   9  16  27  47  76 109 144 179 215 258 310
#
# _framework density 20.100487000000001
#
# number of rings (size 3 to 8) (size 9 to 14) (size 15 to 20)
#    0.000    2.800    0.000    2.400    0.000    8.000 
#    0.000    5.000    0.000    6.000    0.000    0.000 
#    0.000    0.000    0.000    0.000    0.000    0.000 
#
# Total GULP energy -495951.092848 kJ/mol
# GULP energy per Si atom -12398.777321 kJ/mol
# Density = 2.005474 g / cm^3
# Si number density = 20.100487 Si / 1000 Ang^3
#
#
#
# Elastic Constant Matrix: (Units=GPa)
#
#
# Indices 1 2 3 4 5 6 
#
# 1 86.0063 18.7393 35.3363 0.0000 0.0000 0.0000
# 2 18.7393 41.2880 15.4353 0.0000 0.0000 0.0000
# 3 35.3363 15.4353 90.3775 0.0000 0.0000 0.0000
# 4 0.0000 0.0000 0.0000 25.5972 0.0000 0.0000
# 5 0.0000 0.0000 0.0000 0.0000 41.4629 0.0000
# 6 0.0000 0.0000 0.0000 0.0000 0.0000 19.2776
#
#
#
# Elastic Compliance Matrix: (Units=1/GPa)
#
#
# Indices 1 2 3 4 5 6 
#
# 1 0.014703 -0.004833 -0.004923 0.000000 0.000000 0.000000
# 2 -0.004833 0.027460 -0.002800 0.000000 0.000000 0.000000
# 3 -0.004923 -0.002800 0.013468 0.000000 0.000000 0.000000
# 4 0.000000 0.000000 0.000000 0.039067 0.000000 0.000000
# 5 0.000000 0.000000 0.000000 0.000000 0.024118 0.000000
# 6 0.000000 0.000000 0.000000 0.000000 0.000000 0.051874
#
#
# Mechanical properties :
#
#
# Convention : Reuss Voigt Hill
#
# Bulk Modulus (GPa) = 32.76692 39.63262 36.19977
# Shear Modulus (GPa) = 24.27483 27.14493 25.70988
#
# Velocity S-wave (km/s) = 3.47893 3.67885 3.58029
# Velocity P-wave (km/s) = 5.69862 6.14860 5.92788
#
# Compressibility (1/GPa) = 0.03051859
#
# Stress axis : x y z
#
# Youngs Moduli (GPa) = 68.01452 36.41612 74.25072
#
# Poissons Ratio (x) = 0.17598 0.36555
# Poissons Ratio (y) = 0.32869 0.20793
# Poissons Ratio (z) = 0.33485 0.10198
#
# Static dielectric constant tensor:
#      x y z
#    x 3.761130 0.000000 0.000000 
#    y 0.000000 3.337210 0.000000 
#    z 0.000000 0.000000 3.704860 
# 
# 
# High freq. dielectric constant tensor:
#      x y z
#    x 1.784570 0.000000 0.000000 
#    y 0.000000 1.765240 0.000000 
#    z 0.000000 0.000000 1.783590 
# 
# From -- ./inp_files/51765.got.cif
#   From: 2010.03.12/outbox.cif.g09.slc.cpg/sg64_26_cif.got.tgz:51765.got - 2010.04.10 20:19:32.
