data_PCOD8263840
_publ_section_title
;
Structure prediction by ZEFSAII (Michael W. Deem and Ramdas Pophale) SiO2 
 PCOD8263840
Probable space group: C M C A
;
_chemical_formula_sum "Si O2"
_cell_formula_units_Z 72
_cell_length_a 28.334378
_cell_length_b 16.116577
_cell_length_c 6.212765
_cell_angle_alpha 90.000000
_cell_angle_beta 90.000000
_cell_angle_gamma 90.000000
_cell_volume 2837.078924
_symmetry_space_group_name_H-M "C M C A"
_symmetry_group_IT_number 64
_symmetry_cell_setting 'orthorhombic'
loop_
_space_group_symop_operation_xyz
x,y,z
-x,1/2-y,1/2+z
x,-y,-z
-x,1/2+y,1/2-z
-x,-y,-z
x,1/2+y,1/2-z
-x,y,z
x,1/2-y,1/2+z
1/2+x,1/2+y,z
1/2-x,-y,1/2+z
1/2+x,1/2-y,-z
1/2-x,y,1/2-z
1/2-x,1/2-y,-z
1/2+x,y,1/2-z
1/2-x,1/2+y,z
1/2+x,-y,1/2+z
loop_
_atom_site_type_symbol
_atom_site_label
_atom_site_fract_x
_atom_site_fract_y
_atom_site_fract_z
Si Si1 0.858462 0.679589 0.362216
Si Si2 0.759883 0.153377 0.009990
Si Si3 0.552406 0.915454 0.628257
Si Si4 0.161715 0.633214 0.886156
Si Si5 0.902150 0.000000 0.500000
O O1 0.817597 0.646242 0.537479
O O2 0.909305 0.652222 0.455049
O O3 0.857774 0.777260 0.305471
O O4 0.844102 0.632947 0.146382
O O5 0.750000 0.118984 0.250000
O O6 0.719111 0.117114 0.845878
O O7 0.750000 0.250000 0.000000
O O8 0.500000 0.876363 0.608903
O O9 0.555880 0.000000 0.500000
O O10 0.563805 0.936361 0.875649
O O11 0.129724 0.553206 0.826710
#
# Coordination Sequence:
#
# PCOD8263840 Si02
#       5
#    16  16  16  16   8
#     4   9  18  33  55  79 110 146 189 231 277 338
#     4   8  14  28  49  75 109 142 176 221 271 330
#     4  10  22  40  59  80 110 148 189 238 288 332
#     4   9  18  32  56  82 112 147 183 229 283 345
#     4  10  21  38  60  84 116 148 181 236 296 340
#
# _framework density 25.378215000000001
#
# number of rings (size 3 to 8) (size 9 to 14) (size 15 to 20)
#    0.000    2.889    0.000    0.333    3.111    0.000 
#    2.000    5.556    0.000    0.000    0.000    0.000 
#    0.000    0.000    0.000    0.000    0.000    0.000 
#
# Total GULP energy -445984.836726 kJ/mol
# GULP energy per Si atom -12388.467687 kJ/mol
# Density = 2.532045 g / cm^3
# Si number density = 25.378215 Si / 1000 Ang^3
#
#
#
# Elastic Constant Matrix: (Units=GPa)
#
#
# Indices 1 2 3 4 5 6 
#
# 1 262.9742 66.0239 39.3271 0.0000 0.0000 0.0000
# 2 66.0239 68.0648 8.1022 0.0000 0.0000 0.0000
# 3 39.3271 8.1022 52.0240 0.0000 0.0000 0.0000
# 4 0.0000 0.0000 0.0000 25.5733 0.0000 0.0000
# 5 0.0000 0.0000 0.0000 0.0000 32.9090 0.0000
# 6 0.0000 0.0000 0.0000 0.0000 0.0000 33.8785
#
#
#
# Elastic Compliance Matrix: (Units=1/GPa)
#
#
# Indices 1 2 3 4 5 6 
#
# 1 0.005570 -0.004994 -0.003433 0.000000 0.000000 0.000000
# 2 -0.004994 0.019448 0.000747 0.000000 0.000000 0.000000
# 3 -0.003433 0.000747 0.021701 0.000000 0.000000 0.000000
# 4 0.000000 0.000000 0.000000 0.039103 0.000000 0.000000
# 5 0.000000 0.000000 0.000000 0.000000 0.030387 0.000000
# 6 0.000000 0.000000 0.000000 0.000000 0.000000 0.029517
#
#
# Mechanical properties :
#
#
# Convention : Reuss Voigt Hill
#
# Bulk Modulus (GPa) = 31.89054 67.77438 49.83246
# Shear Modulus (GPa) = 29.14797 36.44614 32.79706
#
# Velocity S-wave (km/s) = 3.39269 3.79373 3.59880
# Velocity P-wave (km/s) = 5.28588 6.77890 6.07841
#
# Compressibility (1/GPa) = 0.03135726
#
# Stress axis : x y z
#
# Youngs Moduli (GPa) = 179.53650 51.42046 46.08180
#
# Poissons Ratio (x) = 0.25681 0.15819
# Poissons Ratio (y) = 0.89665 -0.03441
# Poissons Ratio (z) = 0.61630 -0.03839
#
# Static dielectric constant tensor:
#      x y z
#    x 5.388910 0.000000 0.000000 
#    y 0.000000 4.258700 0.000000 
#    z 0.000000 0.000000 5.310820 
# 
# 
# High freq. dielectric constant tensor:
#      x y z
#    x 2.025820 0.000000 0.000000 
#    y 0.000000 1.958630 0.000000 
#    z 0.000000 0.000000 2.055340 
# 
# From -- ./inp_files/9120.got.cif
#   From: 2010.03.12/outbox.cif.g09.slc.cpg/sg64_5_cif.got.tgz:9120.got - 2010.04.10 20:19:32.
