data_PCOD8263739
_publ_section_title
;
Structure prediction by ZEFSAII (Michael W. Deem and Ramdas Pophale) SiO2 
 PCOD8263739
Probable space group: C M C A
;
_chemical_formula_sum "Si O2"
_cell_formula_units_Z 96
_cell_length_a 9.017354
_cell_length_b 29.520995
_cell_length_c 19.220010
_cell_angle_alpha 90.000000
_cell_angle_beta 90.000000
_cell_angle_gamma 90.000000
_cell_volume 5116.390924
_symmetry_space_group_name_H-M "C M C A"
_symmetry_group_IT_number 64
_symmetry_cell_setting 'orthorhombic'
loop_
_space_group_symop_operation_xyz
x,y,z
-x,1/2-y,1/2+z
x,-y,-z
-x,1/2+y,1/2-z
-x,-y,-z
x,1/2+y,1/2-z
-x,y,z
x,1/2-y,1/2+z
1/2+x,1/2+y,z
1/2-x,-y,1/2+z
1/2+x,1/2-y,-z
1/2-x,y,1/2-z
1/2-x,1/2-y,-z
1/2+x,y,1/2-z
1/2-x,1/2+y,z
1/2+x,-y,1/2+z
loop_
_atom_site_type_symbol
_atom_site_label
_atom_site_fract_x
_atom_site_fract_y
_atom_site_fract_z
Si Si1 0.674276 0.382685 0.568359
Si Si2 0.671955 0.867529 0.090342
Si Si3 0.324361 0.818608 0.678308
Si Si4 0.171052 0.523962 0.429022
Si Si5 0.171535 0.784057 0.319165
Si Si6 0.828829 0.444388 0.323070
O O1 0.500000 0.378214 0.582411
O O2 0.717657 0.370169 0.489784
O O3 0.762674 0.348224 0.616065
O O4 0.725259 0.433347 0.585494
O O5 0.500000 0.879585 0.100990
O O6 0.709290 0.816848 0.116480
O O7 0.766552 0.902676 0.133840
O O8 0.500000 0.824904 0.684131
O O9 0.250000 0.834997 0.750000
O O10 0.277173 0.766783 0.662161
O O11 0.223131 0.500000 0.500000
O O12 0.196066 0.490454 0.365091
O O13 0.000000 0.539434 0.435441
O O14 0.250000 0.802591 0.250000
O O15 0.000000 0.784462 0.301165
O O16 0.750000 0.449816 0.250000
O O17 0.000000 0.434592 0.309405
#
# Coordination Sequence:
#
# PCOD8263739 Si02
#       6
#    16  16  16  16  16  16
#     4  11  23  37  59  88 118 152 190 237 291 346
#     4  10  21  37  57  85 120 153 190 234 284 342
#     4  10  21  39  61  83 113 151 194 241 288 341
#     4  10  21  40  61  81 111 152 196 238 283 340
#     4   9  19  36  57  82 113 152 193 236 285 338
#     4  11  23  38  59  86 116 149 190 238 287 342
#
# _framework density 18.763227000000001
#
# number of rings (size 3 to 8) (size 9 to 14) (size 15 to 20)
#    0.000    1.833    1.667    2.000    0.000    6.333 
#    0.000    1.667    0.000    0.000    0.000    0.000 
#    0.000    0.000    0.000    0.000    0.000    0.000 
#
# Total GULP energy -595413.236024 kJ/mol
# GULP energy per Si atom -12404.442417 kJ/mol
# Density = 1.872052 g / cm^3
# Si number density = 18.763227 Si / 1000 Ang^3
#
#
#
# Elastic Constant Matrix: (Units=GPa)
#
#
# Indices 1 2 3 4 5 6 
#
# 1 86.6318 54.3752 70.5285 0.0000 0.0000 0.0000
# 2 54.3752 108.4157 70.1708 0.0000 0.0000 0.0000
# 3 70.5285 70.1708 147.4161 0.0000 0.0000 0.0000
# 4 0.0000 0.0000 0.0000 33.4877 0.0000 0.0000
# 5 0.0000 0.0000 0.0000 0.0000 28.7164 0.0000
# 6 0.0000 0.0000 0.0000 0.0000 0.0000 90.1065
#
#
#
# Elastic Compliance Matrix: (Units=1/GPa)
#
#
# Indices 1 2 3 4 5 6 
#
# 1 0.021223 -0.005886 -0.007352 0.000000 0.000000 0.000000
# 2 -0.005886 0.014963 -0.004307 0.000000 0.000000 0.000000
# 3 -0.007352 -0.004307 0.012351 0.000000 0.000000 0.000000
# 4 0.000000 0.000000 0.000000 0.029862 0.000000 0.000000
# 5 0.000000 0.000000 0.000000 0.000000 0.034823 0.000000
# 6 0.000000 0.000000 0.000000 0.000000 0.000000 0.011098
#
#
# Mechanical properties :
#
#
# Convention : Reuss Voigt Hill
#
# Bulk Modulus (GPa) = 74.35959 81.40140 77.88050
# Shear Modulus (GPa) = 30.50810 40.28805 35.39808
#
# Velocity S-wave (km/s) = 4.03668 4.63880 4.34817
# Velocity P-wave (km/s) = 7.83856 8.49523 8.17349
#
# Compressibility (1/GPa) = 0.01344816
#
# Stress axis : x y z
#
# Youngs Moduli (GPa) = 47.11944 66.83120 80.96552
#
# Poissons Ratio (x) = 0.39334 0.59526
# Poissons Ratio (y) = 0.27733 0.34869
# Poissons Ratio (z) = 0.34642 0.28782
#
# Static dielectric constant tensor:
#      x y z
#    x 3.507850 0.000000 0.000000 
#    y 0.000000 3.571080 0.000000 
#    z 0.000000 0.000000 3.791300 
# 
# 
# High freq. dielectric constant tensor:
#      x y z
#    x 1.735190 0.000000 0.000000 
#    y 0.000000 1.735690 0.000000 
#    z 0.000000 0.000000 1.734490 
# 
# From -- ./inp_files/37023.got.cif
#   From: 2010.03.12/outbox.cif.g09.slc.cpg/sg64_19_cif.got.tgz:37023.got - 2010.04.10 20:19:32.
