data_PCOD8263145
_publ_section_title
;
Structure prediction by ZEFSAII (Michael W. Deem and Ramdas Pophale) SiO2 
 PCOD8263145
Probable space group: C M C A
;
_chemical_formula_sum "Si O2"
_cell_formula_units_Z 96
_cell_length_a 18.113697
_cell_length_b 9.575439
_cell_length_c 28.732348
_cell_angle_alpha 90.000000
_cell_angle_beta 90.000000
_cell_angle_gamma 90.000000
_cell_volume 4983.528090
_symmetry_space_group_name_H-M "C M C A"
_symmetry_group_IT_number 64
_symmetry_cell_setting 'orthorhombic'
loop_
_space_group_symop_operation_xyz
x,y,z
-x,1/2-y,1/2+z
x,-y,-z
-x,1/2+y,1/2-z
-x,-y,-z
x,1/2+y,1/2-z
-x,y,z
x,1/2-y,1/2+z
1/2+x,1/2+y,z
1/2-x,-y,1/2+z
1/2+x,1/2-y,-z
1/2-x,y,1/2-z
1/2-x,1/2-y,-z
1/2+x,y,1/2-z
1/2-x,1/2+y,z
1/2+x,-y,1/2+z
loop_
_atom_site_type_symbol
_atom_site_label
_atom_site_fract_x
_atom_site_fract_y
_atom_site_fract_z
Si Si1 0.231608 0.668074 0.628645
Si Si2 0.845422 0.551568 0.133359
Si Si3 0.413657 0.614278 0.464655
Si Si4 0.672308 0.097708 0.723853
Si Si5 0.308569 0.648576 0.975621
Si Si6 0.585932 0.130059 0.228197
O O1 0.223351 0.836494 0.633190
O O2 0.314034 0.606808 0.637118
O O3 0.180487 0.597754 0.668083
O O4 0.209461 0.615669 0.577771
O O5 0.892198 0.569715 0.087000
O O6 0.900544 0.576590 0.175843
O O7 0.379085 0.500000 0.500000
O O8 0.500000 0.619259 0.470135
O O9 0.385516 0.768496 0.477769
O O10 0.750000 0.068177 0.750000
O O11 0.638771 0.242457 0.741256
O O12 0.610252 0.984625 0.734724
O O13 0.315595 0.500000 0.000000
O O14 0.250000 0.750000 0.000000
O O15 0.500000 0.167412 0.234450
#
# Coordination Sequence:
#
# PCOD8263145 Si02
#       6
#    16  16  16  16  16  16
#     4  10  21  34  58  88 112 149 191 246 287 342
#     4  10  20  36  57  83 114 150 195 238 294 347
#     4  10  21  37  57  82 116 156 194 238 293 356
#     4  11  22  39  60  86 114 154 201 243 289 352
#     4  11  21  37  60  89 119 149 194 245 293 349
#     4  11  23  38  58  84 120 154 192 245 299 352
#
# _framework density 19.263463000000002
#
# number of rings (size 3 to 8) (size 9 to 14) (size 15 to 20)
#    0.000    1.500    1.667    5.000    2.333    0.333 
#    0.000    0.833    0.000    2.000    0.000    0.000 
#    0.000    0.000    0.000    0.000    0.000    0.000 
#
# Total GULP energy -595027.300203 kJ/mol
# GULP energy per Si atom -12396.402088 kJ/mol
# Density = 1.921962 g / cm^3
# Si number density = 19.263463 Si / 1000 Ang^3
#
#
#
# Elastic Constant Matrix: (Units=GPa)
#
#
# Indices 1 2 3 4 5 6 
#
# 1 74.7907 19.2641 17.4150 0.0000 0.0000 0.0000
# 2 19.2641 69.6668 33.0449 0.0000 0.0000 0.0000
# 3 17.4150 33.0449 107.0231 0.0000 0.0000 0.0000
# 4 0.0000 0.0000 0.0000 30.6159 0.0000 0.0000
# 5 0.0000 0.0000 0.0000 0.0000 23.5008 0.0000
# 6 0.0000 0.0000 0.0000 0.0000 0.0000 28.5325
#
#
#
# Elastic Compliance Matrix: (Units=1/GPa)
#
#
# Indices 1 2 3 4 5 6 
#
# 1 0.014553 -0.003399 -0.001319 0.000000 0.000000 0.000000
# 2 -0.003399 0.017611 -0.004885 0.000000 0.000000 0.000000
# 3 -0.001319 -0.004885 0.011067 0.000000 0.000000 0.000000
# 4 0.000000 0.000000 0.000000 0.032663 0.000000 0.000000
# 5 0.000000 0.000000 0.000000 0.000000 0.042552 0.000000
# 6 0.000000 0.000000 0.000000 0.000000 0.000000 0.035048
#
#
# Mechanical properties :
#
#
# Convention : Reuss Voigt Hill
#
# Bulk Modulus (GPa) = 41.62069 43.43651 42.52860
# Shear Modulus (GPa) = 27.66935 28.64693 28.15814
#
# Velocity S-wave (km/s) = 3.79405 3.86049 3.82742
# Velocity P-wave (km/s) = 6.39109 6.51681 6.45426
#
# Compressibility (1/GPa) = 0.02402651
#
# Stress axis : x y z
#
# Youngs Moduli (GPa) = 68.71377 56.78366 90.36260
#
# Poissons Ratio (x) = 0.19299 0.11916
# Poissons Ratio (y) = 0.23354 0.44138
# Poissons Ratio (z) = 0.09061 0.27736
#
# Static dielectric constant tensor:
#      x y z
#    x 3.371020 0.000000 0.000000 
#    y 0.000000 2.223000 0.000000 
#    z 0.000000 0.000000 3.784960 
# 
# 
# High freq. dielectric constant tensor:
#      x y z
#    x 1.731400 0.000000 0.000000 
#    y 0.000000 1.754230 0.000000 
#    z 0.000000 0.000000 1.767730 
# 
# From -- ./inp_files/50663.got.cif
#   From: 2010.03.12/outbox.cif.g09.slc.cpg/sg64_26_cif.got.tgz:50663.got - 2010.04.10 20:19:32.
