data_PCOD8263311
_publ_section_title
;
Structure prediction by ZEFSAII (Michael W. Deem and Ramdas Pophale) SiO2 
 PCOD8263311
Probable space group: C M C A
;
_chemical_formula_sum "Si O2"
_cell_formula_units_Z 72
_cell_length_a 9.505988
_cell_length_b 29.695193
_cell_length_c 13.278340
_cell_angle_alpha 90.000000
_cell_angle_beta 90.000000
_cell_angle_gamma 90.000000
_cell_volume 3748.238341
_symmetry_space_group_name_H-M "C M C A"
_symmetry_group_IT_number 64
_symmetry_cell_setting 'orthorhombic'
loop_
_space_group_symop_operation_xyz
x,y,z
-x,1/2-y,1/2+z
x,-y,-z
-x,1/2+y,1/2-z
-x,-y,-z
x,1/2+y,1/2-z
-x,y,z
x,1/2-y,1/2+z
1/2+x,1/2+y,z
1/2-x,-y,1/2+z
1/2+x,1/2-y,-z
1/2-x,y,1/2-z
1/2-x,1/2-y,-z
1/2+x,y,1/2-z
1/2-x,1/2+y,z
1/2+x,-y,1/2+z
loop_
_atom_site_type_symbol
_atom_site_label
_atom_site_fract_x
_atom_site_fract_y
_atom_site_fract_z
Si Si1 0.000000 0.534411 0.801630
Si Si2 0.339621 0.309918 0.444597
Si Si3 0.707154 0.086585 0.940774
Si Si4 0.664778 0.266397 0.653477
Si Si5 0.000000 0.456752 0.928032
Si Si6 0.500000 0.955112 0.433563
O O1 0.861560 0.558164 0.848909
O O2 0.000000 0.479708 0.818757
O O3 0.000000 0.535206 0.683555
O O4 0.500000 0.296144 0.417302
O O5 0.313078 0.361352 0.416395
O O6 0.312819 0.301908 0.563291
O O7 0.231129 0.281465 0.377982
O O8 0.868041 0.075614 0.958410
O O9 0.635080 0.073931 0.047531
O O10 0.500000 0.259854 0.679129
O O11 0.750000 0.285091 0.750000
O O12 0.000000 0.500000 0.000000
O O13 0.500000 0.000000 0.500000
#
# Coordination Sequence:
#
# PCOD8263311 Si02
#       6
#     8  16  16  16   8   8
#     4  10  20  38  60  79 108 156 194 226 286 359
#     4  10  20  40  62  85 116 155 201 248 291 343
#     4  10  20  37  60  84 112 147 192 245 287 335
#     4  10  22  38  60  88 120 158 192 238 297 358
#     4   8  16  36  60  77 100 152 191 224 281 351
#     4  12  24  36  52  88 124 148 185 244 297 336
#
# _framework density 19.209022999999998
#
# number of rings (size 3 to 8) (size 9 to 14) (size 15 to 20)
#    0.000    2.222    2.222    3.333    1.556    2.667 
#    0.000    2.222    0.000    0.000    0.000    0.000 
#    0.000    0.000    0.000    0.000    0.000    0.000 
#
# Total GULP energy -446224.713539 kJ/mol
# GULP energy per Si atom -12395.130932 kJ/mol
# Density = 1.916530 g / cm^3
# Si number density = 19.209023 Si / 1000 Ang^3
#
#
#
# Elastic Constant Matrix: (Units=GPa)
#
#
# Indices 1 2 3 4 5 6 
#
# 1 154.3019 18.4614 41.4160 0.0000 0.0000 0.0000
# 2 18.4614 63.5967 24.6244 0.0000 0.0000 0.0000
# 3 41.4160 24.6244 84.9871 0.0000 0.0000 0.0000
# 4 0.0000 0.0000 0.0000 14.1562 0.0000 0.0000
# 5 0.0000 0.0000 0.0000 0.0000 18.4002 0.0000
# 6 0.0000 0.0000 0.0000 0.0000 0.0000 32.1518
#
#
#
# Elastic Compliance Matrix: (Units=1/GPa)
#
#
# Indices 1 2 3 4 5 6 
#
# 1 0.007497 -0.000858 -0.003405 0.000000 0.000000 0.000000
# 2 -0.000858 0.017809 -0.004742 0.000000 0.000000 0.000000
# 3 -0.003405 -0.004742 0.014800 0.000000 0.000000 0.000000
# 4 0.000000 0.000000 0.000000 0.070640 0.000000 0.000000
# 5 0.000000 0.000000 0.000000 0.000000 0.054347 0.000000
# 6 0.000000 0.000000 0.000000 0.000000 0.000000 0.031102
#
#
# Mechanical properties :
#
#
# Convention : Reuss Voigt Hill
#
# Bulk Modulus (GPa) = 45.25625 52.43216 48.84421
# Shear Modulus (GPa) = 22.56604 27.50058 25.03331
#
# Velocity S-wave (km/s) = 3.43120 3.78782 3.61391
# Velocity P-wave (km/s) = 6.26965 6.81799 6.54956
#
# Compressibility (1/GPa) = 0.02209639
#
# Stress axis : x y z
#
# Youngs Moduli (GPa) = 133.37953 56.15069 67.56848
#
# Poissons Ratio (x) = 0.04818 0.23007
# Poissons Ratio (y) = 0.11444 0.32041
# Poissons Ratio (z) = 0.45416 0.26626
#
# Static dielectric constant tensor:
#      x y z
#    x 3.736130 0.000000 0.000000 
#    y 0.000000 3.604920 0.000000 
#    z 0.000000 0.000000 3.677640 
# 
# 
# High freq. dielectric constant tensor:
#      x y z
#    x 1.761390 0.000000 0.000000 
#    y 0.000000 1.737900 0.000000 
#    z 0.000000 0.000000 1.732270 
# 
# From -- ./inp_files/21194.got.cif
#   From: 2010.03.12/outbox.cif.g09.slc.cpg/sg64_11_cif.got.tgz:21194.got - 2010.04.10 20:19:32.
