data_PCOD8263551
_publ_section_title
;
Structure prediction by ZEFSAII (Michael W. Deem and Ramdas Pophale) SiO2 
 PCOD8263551
Probable space group: C M C A
;
_chemical_formula_sum "Si O2"
_cell_formula_units_Z 112
_cell_length_a 30.454929
_cell_length_b 12.396708
_cell_length_c 14.802169
_cell_angle_alpha 90.000000
_cell_angle_beta 90.000000
_cell_angle_gamma 90.000000
_cell_volume 5588.423643
_symmetry_space_group_name_H-M "C M C A"
_symmetry_group_IT_number 64
_symmetry_cell_setting 'orthorhombic'
loop_
_space_group_symop_operation_xyz
x,y,z
-x,1/2-y,1/2+z
x,-y,-z
-x,1/2+y,1/2-z
-x,-y,-z
x,1/2+y,1/2-z
-x,y,z
x,1/2-y,1/2+z
1/2+x,1/2+y,z
1/2-x,-y,1/2+z
1/2+x,1/2-y,-z
1/2-x,y,1/2-z
1/2-x,1/2-y,-z
1/2+x,y,1/2-z
1/2-x,1/2+y,z
1/2+x,-y,1/2+z
loop_
_atom_site_type_symbol
_atom_site_label
_atom_site_fract_x
_atom_site_fract_y
_atom_site_fract_z
Si Si1 0.680878 0.887217 0.468672
Si Si2 0.601163 0.343577 0.292668
Si Si3 0.341183 0.044904 0.193178
Si Si4 0.817941 0.707081 0.342113
Si Si5 0.051331 0.380007 0.029816
Si Si6 0.235573 0.410986 0.156492
Si Si7 0.392236 0.238441 0.112109
O O1 0.694183 0.820156 0.555825
O O2 0.725766 0.909471 0.415317
O O3 0.644938 0.825560 0.410502
O O4 0.659626 0.000000 0.500000
O O5 0.625427 0.455294 0.267655
O O6 0.634103 0.259841 0.339340
O O7 0.562356 0.363759 0.364458
O O8 0.582843 0.287960 0.200254
O O9 0.317210 0.103144 0.277383
O O10 0.367690 0.127628 0.132475
O O11 0.305452 0.987216 0.126635
O O12 0.780698 0.791865 0.314984
O O13 0.000000 0.364319 0.015788
O O14 0.066228 0.500000 0.000000
O O15 0.074249 0.287300 0.968708
O O16 0.250000 0.465272 0.250000
#
# Coordination Sequence:
#
# PCOD8263551 Si02
#       7
#    16  16  16  16  16  16  16
#     4  12  24  38  56  87 122 167 217 269 312 371
#     4  10  20  40  65  94 124 165 209 261 319 385
#     4  10  21  39  62  85 124 170 212 263 316 375
#     4  10  21  37  58  83 118 168 212 258 316 375
#     4  11  23  43  71 103 131 159 207 267 322 398
#     4  11  23  37  53  82 122 162 216 266 311 357
#     4  11  23  41  68  92 128 175 211 258 331 386
#
# _framework density 20.041429000000001
#
# number of rings (size 3 to 8) (size 9 to 14) (size 15 to 20)
#    0.000    1.286    2.857    4.714    0.000    5.714 
#    0.000    0.000    0.000    0.429    0.000    0.000 
#    0.000    0.000    0.000    0.000    0.000    0.000 
#
# Total GULP energy -694236.794524 kJ/mol
# GULP energy per Si atom -12397.085616 kJ/mol
# Density = 1.999581 g / cm^3
# Si number density = 20.041429 Si / 1000 Ang^3
#
#
#
# Elastic Constant Matrix: (Units=GPa)
#
#
# Indices 1 2 3 4 5 6 
#
# 1 65.4738 35.4434 37.8887 0.0000 0.0000 0.0000
# 2 35.4434 108.2924 37.8590 0.0000 0.0000 0.0000
# 3 37.8887 37.8590 103.1910 0.0000 0.0000 0.0000
# 4 0.0000 0.0000 0.0000 31.2413 0.0000 0.0000
# 5 0.0000 0.0000 0.0000 0.0000 24.0640 0.0000
# 6 0.0000 0.0000 0.0000 0.0000 0.0000 19.5800
#
#
#
# Elastic Compliance Matrix: (Units=1/GPa)
#
#
# Indices 1 2 3 4 5 6 
#
# 1 0.021438 -0.004892 -0.006077 0.000000 0.000000 0.000000
# 2 -0.004892 0.011709 -0.002500 0.000000 0.000000 0.000000
# 3 -0.006077 -0.002500 0.012839 0.000000 0.000000 0.000000
# 4 0.000000 0.000000 0.000000 0.032009 0.000000 0.000000
# 5 0.000000 0.000000 0.000000 0.000000 0.041556 0.000000
# 6 0.000000 0.000000 0.000000 0.000000 0.000000 0.051072
#
#
# Mechanical properties :
#
#
# Convention : Reuss Voigt Hill
#
# Bulk Modulus (GPa) = 52.49477 55.48215 53.98846
# Shear Modulus (GPa) = 24.52060 26.02814 25.27437
#
# Velocity S-wave (km/s) = 3.50164 3.60768 3.55506
# Velocity P-wave (km/s) = 6.52677 6.71548 6.62179
#
# Compressibility (1/GPa) = 0.01904952
#
# Stress axis : x y z
#
# Youngs Moduli (GPa) = 46.64614 85.40204 77.88775
#
# Poissons Ratio (x) = 0.41780 0.47329
# Poissons Ratio (y) = 0.22820 0.19470
# Poissons Ratio (z) = 0.28345 0.21348
#
# Static dielectric constant tensor:
#      x y z
#    x 3.315390 0.000000 0.000000 
#    y 0.000000 3.963240 0.000000 
#    z 0.000000 0.000000 3.701450 
# 
# 
# High freq. dielectric constant tensor:
#      x y z
#    x 1.752060 0.000000 0.000000 
#    y 0.000000 1.799430 0.000000 
#    z 0.000000 0.000000 1.787280 
# 
# From -- ./inp_files/28412.got.cif
#   From: 2010.03.12/outbox.cif.g09.slc.cpg/sg64_15_cif.got.tgz:28412.got - 2010.04.10 20:19:32.
