data_PCOD8263102
_publ_section_title
;
Structure prediction by ZEFSAII (Michael W. Deem and Ramdas Pophale) SiO2 
 PCOD8263102
Probable space group: C M C A
;
_chemical_formula_sum "Si O2"
_cell_formula_units_Z 96
_cell_length_a 9.233003
_cell_length_b 19.199116
_cell_length_c 30.166803
_cell_angle_alpha 90.000000
_cell_angle_beta 90.000000
_cell_angle_gamma 90.000000
_cell_volume 5347.533285
_symmetry_space_group_name_H-M "C M C A"
_symmetry_group_IT_number 64
_symmetry_cell_setting 'orthorhombic'
loop_
_space_group_symop_operation_xyz
x,y,z
-x,1/2-y,1/2+z
x,-y,-z
-x,1/2+y,1/2-z
-x,-y,-z
x,1/2+y,1/2-z
-x,y,z
x,1/2-y,1/2+z
1/2+x,1/2+y,z
1/2-x,-y,1/2+z
1/2+x,1/2-y,-z
1/2-x,y,1/2-z
1/2-x,1/2-y,-z
1/2+x,y,1/2-z
1/2-x,1/2+y,z
1/2+x,-y,1/2+z
loop_
_atom_site_type_symbol
_atom_site_label
_atom_site_fract_x
_atom_site_fract_y
_atom_site_fract_z
Si Si1 0.171455 0.899716 0.295527
Si Si2 0.665254 0.901391 0.431130
Si Si3 0.166508 0.797104 0.146548
Si Si4 0.170515 0.818590 0.983899
Si Si5 0.332881 0.154056 0.105143
Si Si6 0.333609 0.500004 0.373592
O O1 0.250000 0.917421 0.250000
O O2 0.269791 0.826548 0.185104
O O3 0.217899 0.961912 0.328728
O O4 0.000000 0.894473 0.288363
O O5 0.500000 0.923800 0.426828
O O6 0.699899 0.835506 0.399738
O O7 0.703902 0.880204 0.481208
O O8 0.754863 0.968985 0.416721
O O9 0.203343 0.715873 0.139460
O O10 0.000000 0.807817 0.161114
O O11 0.229099 0.843331 0.936917
O O12 0.000000 0.803092 0.981061
O O13 0.250000 0.750000 0.000000
O O14 0.500000 0.160036 0.089309
O O15 0.302766 0.082062 0.130892
O O16 0.500000 0.483704 0.381604
#
# Coordination Sequence:
#
# PCOD8263102 Si02
#       6
#    16  16  16  16  16  16
#     4  10  20  36  58  83 104 132 173 214 262 321
#     4   9  18  33  51  73 103 142 183 221 262 304
#     4   9  17  33  55  76 103 138 172 214 262 310
#     4  11  21  33  51  77 107 144 188 230 268 309
#     4  10  20  36  54  77 110 144 178 219 270 316
#     4   9  20  36  55  78 107 142 177 216 264 320
#
# _framework density 17.952203000000001
#
# number of rings (size 3 to 8) (size 9 to 14) (size 15 to 20)
#    0.000    2.333    1.667    1.000    0.000    4.000 
#    0.000    4.167    0.000    2.000    0.000    0.000 
#    0.000    0.000    0.000    0.000    0.000    0.000 
#
# Total GULP energy -595269.629372 kJ/mol
# GULP energy per Si atom -12401.450612 kJ/mol
# Density = 1.791134 g / cm^3
# Si number density = 17.952203 Si / 1000 Ang^3
#
#
#
# Elastic Constant Matrix: (Units=GPa)
#
#
# Indices 1 2 3 4 5 6 
#
# 1 76.7422 43.3982 51.5674 0.0000 0.0000 0.0000
# 2 43.3982 120.2581 43.9028 0.0000 0.0000 0.0000
# 3 51.5674 43.9028 96.8160 0.0000 0.0000 0.0000
# 4 0.0000 0.0000 0.0000 19.0148 0.0000 0.0000
# 5 0.0000 0.0000 0.0000 0.0000 33.1422 0.0000
# 6 0.0000 0.0000 0.0000 0.0000 0.0000 26.4303
#
#
#
# Elastic Compliance Matrix: (Units=1/GPa)
#
#
# Indices 1 2 3 4 5 6 
#
# 1 0.022083 -0.004404 -0.009765 0.000000 0.000000 0.000000
# 2 -0.004404 0.010844 -0.002571 0.000000 0.000000 0.000000
# 3 -0.009765 -0.002571 0.016696 0.000000 0.000000 0.000000
# 4 0.000000 0.000000 0.000000 0.052591 0.000000 0.000000
# 5 0.000000 0.000000 0.000000 0.000000 0.030173 0.000000
# 6 0.000000 0.000000 0.000000 0.000000 0.000000 0.037835
#
#
# Mechanical properties :
#
#
# Convention : Reuss Voigt Hill
#
# Bulk Modulus (GPa) = 61.95236 63.50593 62.72914
# Shear Modulus (GPa) = 23.91395 26.04730 24.98062
#
# Velocity S-wave (km/s) = 3.65374 3.81323 3.73434
# Velocity P-wave (km/s) = 7.23770 7.40537 7.32201
#
# Compressibility (1/GPa) = 0.01614144
#
# Stress axis : x y z
#
# Youngs Moduli (GPa) = 45.28397 92.22063 59.89467
#
# Poissons Ratio (x) = 0.40617 0.58486
# Poissons Ratio (y) = 0.19944 0.15401
# Poissons Ratio (z) = 0.44219 0.23713
#
# Static dielectric constant tensor:
#      x y z
#    x 3.378120 0.000000 0.000000 
#    y 0.000000 3.388590 0.000000 
#    z 0.000000 0.000000 3.301750 
# 
# 
# High freq. dielectric constant tensor:
#      x y z
#    x 1.698510 0.000000 0.000000 
#    y 0.000000 1.693410 0.000000 
#    z 0.000000 0.000000 1.679410 
# 
# From -- ./inp_files/49298.got.cif
#   From: 2010.03.12/outbox.cif.g09.slc.cpg/sg64_25_cif.got.tgz:49298.got - 2010.04.10 20:19:32.
