data_PCOD8263595
_publ_section_title
;
Structure prediction by ZEFSAII (Michael W. Deem and Ramdas Pophale) SiO2 
 PCOD8263595
Probable space group: C M C A
;
_chemical_formula_sum "Si O2"
_cell_formula_units_Z 96
_cell_length_a 17.303471
_cell_length_b 21.381904
_cell_length_c 12.672991
_cell_angle_alpha 90.000000
_cell_angle_beta 90.000000
_cell_angle_gamma 90.000000
_cell_volume 4688.767857
_symmetry_space_group_name_H-M "C M C A"
_symmetry_group_IT_number 64
_symmetry_cell_setting 'orthorhombic'
loop_
_space_group_symop_operation_xyz
x,y,z
-x,1/2-y,1/2+z
x,-y,-z
-x,1/2+y,1/2-z
-x,-y,-z
x,1/2+y,1/2-z
-x,y,z
x,1/2-y,1/2+z
1/2+x,1/2+y,z
1/2-x,-y,1/2+z
1/2+x,1/2-y,-z
1/2-x,y,1/2-z
1/2-x,1/2-y,-z
1/2+x,y,1/2-z
1/2-x,1/2+y,z
1/2+x,-y,1/2+z
loop_
_atom_site_type_symbol
_atom_site_label
_atom_site_fract_x
_atom_site_fract_y
_atom_site_fract_z
Si Si1 0.662363 0.569111 0.715236
Si Si2 0.911690 0.143698 0.539425
Si Si3 0.167023 0.109663 0.127790
Si Si4 0.163482 0.227036 0.010284
Si Si5 0.409394 0.386858 0.078429
Si Si6 0.657526 0.431983 0.646109
O O1 0.750000 0.574240 0.750000
O O2 0.642077 0.626085 0.638245
O O3 0.610427 0.570872 0.820518
O O4 0.647066 0.506583 0.647737
O O5 0.895004 0.215389 0.511855
O O6 0.897520 0.098712 0.440058
O O7 0.000000 0.136458 0.574138
O O8 0.254545 0.085458 0.120530
O O9 0.130331 0.092404 0.239521
O O10 0.161922 0.185377 0.117622
O O11 0.119183 0.078768 0.030001
O O12 0.135732 0.180478 0.915288
O O13 0.250000 0.250000 0.000000
O O14 0.500000 0.374688 0.072646
#
# Coordination Sequence:
#
# PCOD8263595 Si02
#       6
#    16  16  16  16  16  16
#     4  12  24  42  70  94 129 179 225 269 318 395
#     4  12  26  42  64 101 141 173 211 270 343 400
#     4   9  21  42  68  97 124 165 229 275 315 386
#     4  10  20  43  70  95 128 172 224 272 324 390
#     4  10  23  42  63  96 134 167 213 275 334 383
#     4  11  22  44  67  93 130 176 225 272 318 387
#
# _framework density 20.474461000000002
#
# number of rings (size 3 to 8) (size 9 to 14) (size 15 to 20)
#    1.000    0.333    3.333    3.500    0.000    4.667 
#    3.000    2.500    0.000    0.000    0.000    0.000 
#    0.000    0.000    0.000    0.000    0.000    0.000 
#
# Total GULP energy -594981.448140 kJ/mol
# GULP energy per Si atom -12395.446836 kJ/mol
# Density = 2.042786 g / cm^3
# Si number density = 20.474461 Si / 1000 Ang^3
#
#
#
# Elastic Constant Matrix: (Units=GPa)
#
#
# Indices 1 2 3 4 5 6 
#
# 1 85.2394 40.3014 17.8761 0.0000 0.0000 0.0000
# 2 40.3014 90.3110 24.1562 0.0000 0.0000 0.0000
# 3 17.8761 24.1562 88.1617 0.0000 0.0000 0.0000
# 4 0.0000 0.0000 0.0000 40.7337 0.0000 0.0000
# 5 0.0000 0.0000 0.0000 0.0000 25.9674 0.0000
# 6 0.0000 0.0000 0.0000 0.0000 0.0000 1.8574
#
#
#
# Elastic Compliance Matrix: (Units=1/GPa)
#
#
# Indices 1 2 3 4 5 6 
#
# 1 0.015006 -0.006348 -0.001303 0.000000 0.000000 0.000000
# 2 -0.006348 0.014634 -0.002723 0.000000 0.000000 0.000000
# 3 -0.001303 -0.002723 0.012353 0.000000 0.000000 0.000000
# 4 0.000000 0.000000 0.000000 0.024550 0.000000 0.000000
# 5 0.000000 0.000000 0.000000 0.000000 0.038510 0.000000
# 6 0.000000 0.000000 0.000000 0.000000 0.000000 0.538379
#
#
# Mechanical properties :
#
#
# Convention : Reuss Voigt Hill
#
# Bulk Modulus (GPa) = 47.06892 47.59772 47.33332
# Shear Modulus (GPa) = 7.44867 25.80361 16.62614
#
# Velocity S-wave (km/s) = 1.90943 3.55390 2.85273
# Velocity P-wave (km/s) = 5.28207 6.33546 5.83259
#
# Compressibility (1/GPa) = 0.02124544
#
# Stress axis : x y z
#
# Youngs Moduli (GPa) = 66.63846 68.33468 80.95166
#
# Poissons Ratio (x) = 0.43379 0.10551
# Poissons Ratio (y) = 0.42302 0.22039
# Poissons Ratio (z) = 0.08686 0.18604
#
# Static dielectric constant tensor:
#      x y z
#    x 3.155480 0.000000 0.000000 
#    y 0.000000 4.083620 0.000000 
#    z 0.000000 0.000000 2.429850 
# 
# 
# High freq. dielectric constant tensor:
#      x y z
#    x 1.796630 0.000000 0.000000 
#    y 0.000000 1.801720 0.000000 
#    z 0.000000 0.000000 1.798680 
# 
# From -- ./inp_files/16231.got.cif
#   From: 2010.03.12/outbox.cif.g09.slc.cpg/sg64_9_cif.got.tgz:16231.got - 2010.04.10 20:19:32.
