data_PCOD8263571
_publ_section_title
;
Structure prediction by ZEFSAII (Michael W. Deem and Ramdas Pophale) SiO2 
 PCOD8263571
Probable space group: C M C A
;
_chemical_formula_sum "Si O2"
_cell_formula_units_Z 72
_cell_length_a 21.841315
_cell_length_b 21.573338
_cell_length_c 8.184401
_cell_angle_alpha 90.000000
_cell_angle_beta 90.000000
_cell_angle_gamma 90.000000
_cell_volume 3856.408487
_symmetry_space_group_name_H-M "C M C A"
_symmetry_group_IT_number 64
_symmetry_cell_setting 'orthorhombic'
loop_
_space_group_symop_operation_xyz
x,y,z
-x,1/2-y,1/2+z
x,-y,-z
-x,1/2+y,1/2-z
-x,-y,-z
x,1/2+y,1/2-z
-x,y,z
x,1/2-y,1/2+z
1/2+x,1/2+y,z
1/2-x,-y,1/2+z
1/2+x,1/2-y,-z
1/2-x,y,1/2-z
1/2-x,1/2-y,-z
1/2+x,y,1/2-z
1/2-x,1/2+y,z
1/2+x,-y,1/2+z
loop_
_atom_site_type_symbol
_atom_site_label
_atom_site_fract_x
_atom_site_fract_y
_atom_site_fract_z
Si Si1 0.930429 0.978002 0.757218
Si Si2 0.315787 0.173611 0.948069
Si Si3 0.930840 0.099839 0.565299
Si Si4 0.750000 0.071191 0.750000
Si Si5 0.164552 0.000000 0.000000
Si Si6 0.250000 0.776578 0.750000
O O1 0.919013 0.934672 0.603894
O O2 0.000000 0.970576 0.820639
O O3 0.917697 0.050253 0.709540
O O4 0.882725 0.956176 0.897927
O O5 0.388452 0.161400 0.933955
O O6 0.287261 0.111826 0.876177
O O7 0.298710 0.234828 0.847502
O O8 0.290424 0.180404 0.131928
O O9 0.000000 0.124442 0.578727
O O10 0.794379 0.031419 0.862845
#
# Coordination Sequence:
#
# PCOD8263571 Si02
#       6
#    16  16  16   8   8   8
#     4   9  19  35  55  81 115 154 184 214 260 339
#     4  10  20  41  54  83 103 150 183 239 283 332
#     4   9  18  35  59  82 112 148 182 221 274 333
#     4  11  26  31  54  82 120 145 186 221 286 330
#     4  12  23  34  48  88 117 150 182 226 260 348
#     4   9  22  37  64  74 108 139 198 235 288 332
#
# _framework density 18.670221000000002
#
# number of rings (size 3 to 8) (size 9 to 14) (size 15 to 20)
#    0.000    2.222    2.222    1.667    6.222    0.000 
#    0.000    1.111    0.000    0.000    0.000    0.000 
#    0.000    0.000    0.000    0.000    0.000    0.000 
#
# Total GULP energy -446107.285684 kJ/mol
# GULP energy per Si atom -12391.869047 kJ/mol
# Density = 1.862773 g / cm^3
# Si number density = 18.670221 Si / 1000 Ang^3
#
#
#
# Elastic Constant Matrix: (Units=GPa)
#
#
# Indices 1 2 3 4 5 6 
#
# 1 145.1413 49.7476 62.2895 0.0000 0.0000 0.0000
# 2 49.7476 56.3219 27.5309 0.0000 0.0000 0.0000
# 3 62.2895 27.5309 109.1872 0.0000 0.0000 0.0000
# 4 0.0000 0.0000 0.0000 13.5554 0.0000 0.0000
# 5 0.0000 0.0000 0.0000 0.0000 41.9884 0.0000
# 6 0.0000 0.0000 0.0000 0.0000 0.0000 6.8353
#
#
#
# Elastic Compliance Matrix: (Units=1/GPa)
#
#
# Indices 1 2 3 4 5 6 
#
# 1 0.011609 -0.008003 -0.004605 0.000000 0.000000 0.000000
# 2 -0.008003 0.025768 -0.001932 0.000000 0.000000 0.000000
# 3 -0.004605 -0.001932 0.012273 0.000000 0.000000 0.000000
# 4 0.000000 0.000000 0.000000 0.073771 0.000000 0.000000
# 5 0.000000 0.000000 0.000000 0.000000 0.023816 0.000000
# 6 0.000000 0.000000 0.000000 0.000000 0.000000 0.146300
#
#
# Mechanical properties :
#
#
# Convention : Reuss Voigt Hill
#
# Bulk Modulus (GPa) = 48.61280 65.53182 57.07231
# Shear Modulus (GPa) = 15.17570 23.88131 19.52851
#
# Velocity S-wave (km/s) = 2.85411 3.58035 3.23766
# Velocity P-wave (km/s) = 6.07909 7.22964 6.67919
#
# Compressibility (1/GPa) = 0.02057072
#
# Stress axis : x y z
#
# Youngs Moduli (GPa) = 86.13849 38.80744 81.48193
#
# Poissons Ratio (x) = 0.31058 0.37522
# Poissons Ratio (y) = 0.68938 0.15739
# Poissons Ratio (z) = 0.39666 0.07496
#
# Static dielectric constant tensor:
#      x y z
#    x 3.778050 0.000000 0.000000 
#    y 0.000000 3.116580 0.000000 
#    z 0.000000 0.000000 3.679560 
# 
# 
# High freq. dielectric constant tensor:
#      x y z
#    x 1.739400 0.000000 0.000000 
#    y 0.000000 1.681100 0.000000 
#    z 0.000000 0.000000 1.738040 
# 
# From -- ./inp_files/9433.got.cif
#   From: 2010.03.12/outbox.cif.g09.slc.cpg/sg64_5_cif.got.tgz:9433.got - 2010.04.10 20:19:32.
