data_PCOD8263593
_publ_section_title
;
Structure prediction by ZEFSAII (Michael W. Deem and Ramdas Pophale) SiO2 
 PCOD8263593
Probable space group: C M C A
;
_chemical_formula_sum "Si O2"
_cell_formula_units_Z 72
_cell_length_a 10.453055
_cell_length_b 14.429262
_cell_length_c 24.276408
_cell_angle_alpha 90.000000
_cell_angle_beta 90.000000
_cell_angle_gamma 90.000000
_cell_volume 3661.607446
_symmetry_space_group_name_H-M "C M C A"
_symmetry_group_IT_number 64
_symmetry_cell_setting 'orthorhombic'
loop_
_space_group_symop_operation_xyz
x,y,z
-x,1/2-y,1/2+z
x,-y,-z
-x,1/2+y,1/2-z
-x,-y,-z
x,1/2+y,1/2-z
-x,y,z
x,1/2-y,1/2+z
1/2+x,1/2+y,z
1/2-x,-y,1/2+z
1/2+x,1/2-y,-z
1/2-x,y,1/2-z
1/2-x,1/2-y,-z
1/2+x,y,1/2-z
1/2-x,1/2+y,z
1/2+x,-y,1/2+z
loop_
_atom_site_type_symbol
_atom_site_label
_atom_site_fract_x
_atom_site_fract_y
_atom_site_fract_z
Si Si1 0.758285 0.515523 0.625254
Si Si2 0.643072 0.145913 0.958038
Si Si3 0.000000 0.417250 0.307398
Si Si4 0.000000 0.717074 0.157187
Si Si5 0.500000 0.988700 0.810456
Si Si6 0.225236 0.824280 0.578017
O O1 0.744209 0.577345 0.570391
O O2 0.626115 0.523123 0.658519
O O3 0.791293 0.410510 0.608555
O O4 0.873656 0.552571 0.661063
O O5 0.500000 0.117071 0.941335
O O6 0.666380 0.251021 0.938107
O O7 0.655062 0.137860 0.023635
O O8 0.000000 0.305265 0.301824
O O9 0.000000 0.465794 0.248919
O O10 0.876452 0.723296 0.118332
O O11 0.000000 0.623432 0.193652
#
# Coordination Sequence:
#
# PCOD8263593 Si02
#       6
#    16  16   8   8   8  16
#     4  11  23  41  64  89 127 159 206 256 305 364
#     4  11  21  37  63  94 126 167 204 242 303 378
#     4  12  24  44  62  94 122 159 206 271 311 352
#     4  10  20  43  65  85 123 159 197 259 310 358
#     4  10  24  45  64  86 116 165 213 250 308 371
#     4  10  22  38  60  94 126 161 200 247 305 373
#
# _framework density 19.663495000000001
#
# number of rings (size 3 to 8) (size 9 to 14) (size 15 to 20)
#    0.000    1.333    4.444    1.333    1.556    0.889 
#    4.000    3.333    0.000    0.000    0.000    0.000 
#    0.000    0.000    0.000    0.000    0.000    0.000 
#
# Total GULP energy -446504.226524 kJ/mol
# GULP energy per Si atom -12402.895181 kJ/mol
# Density = 1.961874 g / cm^3
# Si number density = 19.663495 Si / 1000 Ang^3
#
#
#
# Elastic Constant Matrix: (Units=GPa)
#
#
# Indices 1 2 3 4 5 6 
#
# 1 82.8805 27.2452 22.0604 0.0000 0.0000 0.0000
# 2 27.2452 98.3583 45.2634 0.0000 0.0000 0.0000
# 3 22.0604 45.2634 99.3396 0.0000 0.0000 0.0000
# 4 0.0000 0.0000 0.0000 38.9390 0.0000 0.0000
# 5 0.0000 0.0000 0.0000 0.0000 24.3059 0.0000
# 6 0.0000 0.0000 0.0000 0.0000 0.0000 24.4408
#
#
#
# Elastic Compliance Matrix: (Units=1/GPa)
#
#
# Indices 1 2 3 4 5 6 
#
# 1 0.013481 -0.002982 -0.001635 0.000000 0.000000 0.000000
# 2 -0.002982 0.013524 -0.005500 0.000000 0.000000 0.000000
# 3 -0.001635 -0.005500 0.012936 0.000000 0.000000 0.000000
# 4 0.000000 0.000000 0.000000 0.025681 0.000000 0.000000
# 5 0.000000 0.000000 0.000000 0.000000 0.041142 0.000000
# 6 0.000000 0.000000 0.000000 0.000000 0.000000 0.040915
#
#
# Mechanical properties :
#
#
# Convention : Reuss Voigt Hill
#
# Bulk Modulus (GPa) = 50.74371 52.19072 51.46721
# Shear Modulus (GPa) = 28.65632 29.93776 29.29704
#
# Velocity S-wave (km/s) = 3.82165 3.90616 3.86414
# Velocity P-wave (km/s) = 6.73316 6.85155 6.79261
#
# Compressibility (1/GPa) = 0.01970688
#
# Stress axis : x y z
#
# Youngs Moduli (GPa) = 74.17857 73.94345 77.30624
#
# Poissons Ratio (x) = 0.22048 0.12640
# Poissons Ratio (y) = 0.22118 0.42518
# Poissons Ratio (z) = 0.12129 0.40668
#
# Static dielectric constant tensor:
#      x y z
#    x 3.458260 0.000000 0.000000 
#    y 0.000000 3.697040 0.000000 
#    z 0.000000 0.000000 3.498050 
# 
# 
# High freq. dielectric constant tensor:
#      x y z
#    x 1.763380 0.000000 0.000000 
#    y 0.000000 1.780480 0.000000 
#    z 0.000000 0.000000 1.760830 
# 
# From -- ./inp_files/43872.got.cif
#   From: 2010.03.12/outbox.cif.g09.slc.cpg/sg64_22_cif.got.tgz:43872.got - 2010.04.10 20:19:32.
