data_PCOD8263577
_publ_section_title
;
Structure prediction by ZEFSAII (Michael W. Deem and Ramdas Pophale) SiO2 
 PCOD8263577
Probable space group: C M C A
;
_chemical_formula_sum "Si O2"
_cell_formula_units_Z 96
_cell_length_a 14.634449
_cell_length_b 22.532495
_cell_length_c 13.179472
_cell_angle_alpha 90.000000
_cell_angle_beta 90.000000
_cell_angle_gamma 90.000000
_cell_volume 4345.939444
_symmetry_space_group_name_H-M "C M C A"
_symmetry_group_IT_number 64
_symmetry_cell_setting 'orthorhombic'
loop_
_space_group_symop_operation_xyz
x,y,z
-x,1/2-y,1/2+z
x,-y,-z
-x,1/2+y,1/2-z
-x,-y,-z
x,1/2+y,1/2-z
-x,y,z
x,1/2-y,1/2+z
1/2+x,1/2+y,z
1/2-x,-y,1/2+z
1/2+x,1/2-y,-z
1/2-x,y,1/2-z
1/2-x,1/2-y,-z
1/2+x,y,1/2-z
1/2-x,1/2+y,z
1/2+x,-y,1/2+z
loop_
_atom_site_type_symbol
_atom_site_label
_atom_site_fract_x
_atom_site_fract_y
_atom_site_fract_z
Si Si1 0.652899 0.856299 0.717614
Si Si2 0.000000 0.575703 0.617405
Si Si3 0.395900 0.173411 0.067683
Si Si4 0.606050 0.060780 0.964710
Si Si5 0.104850 0.245276 0.612720
Si Si6 0.143110 0.625851 0.767362
Si Si7 0.500000 0.065224 0.378692
O O1 0.750000 0.884146 0.750000
O O2 0.667231 0.802486 0.638433
O O3 0.589594 0.908838 0.676868
O O4 0.609798 0.819990 0.812382
O O5 0.910805 0.608263 0.664461
O O6 0.000000 0.584921 0.496105
O O7 0.000000 0.505176 0.638726
O O8 0.500000 0.168868 0.030277
O O9 0.346780 0.112439 0.032115
O O10 0.358272 0.227974 0.000095
O O11 0.500000 0.055881 0.992360
O O12 0.619265 0.073588 0.846207
O O13 0.655232 0.000000 0.000000
O O14 0.113133 0.190021 0.690386
O O15 0.000000 0.267745 0.613567
O O16 0.250000 0.626784 0.750000
#
# Coordination Sequence:
#
# PCOD8263577 Si02
#       7
#    16   8  16  16  16  16   8
#     4  12  25  42  69  98 133 181 230 286 339 411
#     4  11  26  49  66  91 142 189 217 289 349 428
#     4   9  19  36  60  88 125 165 213 277 327 397
#     4   9  18  34  61  91 117 159 214 276 329 382
#     4  10  20  41  66  98 132 169 225 276 347 409
#     4  11  22  40  69 100 131 173 228 278 343 415
#     4  11  28  47  63  94 143 186 234 268 355 426
#
# _framework density 22.089587000000002
#
# number of rings (size 3 to 8) (size 9 to 14) (size 15 to 20)
#    0.000    1.667    3.333    1.500    2.333    5.333 
#    3.000    0.000    0.000    0.000    0.000    0.000 
#    0.000    0.000    0.000    0.000    0.000    0.000 
#
# Total GULP energy -594912.811108 kJ/mol
# GULP energy per Si atom -12394.016898 kJ/mol
# Density = 2.203931 g / cm^3
# Si number density = 22.089587 Si / 1000 Ang^3
#
#
#
# Elastic Constant Matrix: (Units=GPa)
#
#
# Indices 1 2 3 4 5 6 
#
# 1 100.0335 24.6135 25.2067 0.0000 0.0000 0.0000
# 2 24.6135 70.7246 19.4536 0.0000 0.0000 0.0000
# 3 25.2067 19.4536 97.1854 0.0000 0.0000 0.0000
# 4 0.0000 0.0000 0.0000 29.9831 0.0000 0.0000
# 5 0.0000 0.0000 0.0000 0.0000 12.8689 0.0000
# 6 0.0000 0.0000 0.0000 0.0000 0.0000 10.6689
#
#
#
# Elastic Compliance Matrix: (Units=1/GPa)
#
#
# Indices 1 2 3 4 5 6 
#
# 1 0.011394 -0.003336 -0.002287 0.000000 0.000000 0.000000
# 2 -0.003336 0.015940 -0.002325 0.000000 0.000000 0.000000
# 3 -0.002287 -0.002325 0.011348 0.000000 0.000000 0.000000
# 4 0.000000 0.000000 0.000000 0.033352 0.000000 0.000000
# 5 0.000000 0.000000 0.000000 0.000000 0.077706 0.000000
# 6 0.000000 0.000000 0.000000 0.000000 0.000000 0.093730
#
#
# Mechanical properties :
#
#
# Convention : Reuss Voigt Hill
#
# Bulk Modulus (GPa) = 43.88974 45.16568 44.52771
# Shear Modulus (GPa) = 18.72911 23.94884 21.33897
#
# Velocity S-wave (km/s) = 2.91498 3.29624 3.11146
# Velocity P-wave (km/s) = 5.58942 5.91422 5.75411
#
# Compressibility (1/GPa) = 0.02278437
#
# Stress axis : x y z
#
# Youngs Moduli (GPa) = 87.76629 62.73522 88.11837
#
# Poissons Ratio (x) = 0.20929 0.20156
# Poissons Ratio (y) = 0.29280 0.20491
# Poissons Ratio (z) = 0.20076 0.14589
#
# Static dielectric constant tensor:
#      x y z
#    x 3.751360 0.000000 0.000000 
#    y 0.000000 4.091300 0.000000 
#    z 0.000000 0.000000 4.043540 
# 
# 
# High freq. dielectric constant tensor:
#      x y z
#    x 1.847310 0.000000 0.000000 
#    y 0.000000 1.871000 0.000000 
#    z 0.000000 0.000000 1.876190 
# 
# From -- ./inp_files/16265.got.cif
#   From: 2010.03.12/outbox.cif.g09.slc.cpg/sg64_9_cif.got.tgz:16265.got - 2010.04.10 20:19:32.
