data_PCOD8263281
_publ_section_title
;
Structure prediction by ZEFSAII (Michael W. Deem and Ramdas Pophale) SiO2 
 PCOD8263281
Probable space group: C M C A
;
_chemical_formula_sum "Si O2"
_cell_formula_units_Z 112
_cell_length_a 20.678739
_cell_length_b 16.497029
_cell_length_c 16.065586
_cell_angle_alpha 90.000000
_cell_angle_beta 90.000000
_cell_angle_gamma 90.000000
_cell_volume 5480.577972
_symmetry_space_group_name_H-M "C M C A"
_symmetry_group_IT_number 64
_symmetry_cell_setting 'orthorhombic'
loop_
_space_group_symop_operation_xyz
x,y,z
-x,1/2-y,1/2+z
x,-y,-z
-x,1/2+y,1/2-z
-x,-y,-z
x,1/2+y,1/2-z
-x,y,z
x,1/2-y,1/2+z
1/2+x,1/2+y,z
1/2-x,-y,1/2+z
1/2+x,1/2-y,-z
1/2-x,y,1/2-z
1/2-x,1/2-y,-z
1/2+x,y,1/2-z
1/2-x,1/2+y,z
1/2+x,-y,1/2+z
loop_
_atom_site_type_symbol
_atom_site_label
_atom_site_fract_x
_atom_site_fract_y
_atom_site_fract_z
Si Si1 0.256942 0.327038 0.617357
Si Si2 0.574713 0.603705 0.840908
Si Si3 0.165314 0.394809 0.751511
Si Si4 0.684681 0.175431 0.947081
Si Si5 0.425558 0.575185 0.122199
Si Si6 0.575102 0.792426 0.497455
Si Si7 0.818196 0.077336 0.711768
O O1 0.208322 0.386272 0.666852
O O2 0.320342 0.325556 0.679338
O O3 0.275600 0.360183 0.525835
O O4 0.228307 0.237809 0.606020
O O5 0.500000 0.597922 0.810106
O O6 0.594045 0.519300 0.887894
O O7 0.622671 0.616307 0.763794
O O8 0.583521 0.679664 0.902233
O O9 0.092646 0.392638 0.715373
O O10 0.179748 0.480939 0.792494
O O11 0.618538 0.214275 0.982653
O O12 0.670523 0.103488 0.883614
O O13 0.500000 0.586170 0.109069
O O14 0.395136 0.633711 0.052250
O O15 0.500000 0.771686 0.516699
O O16 0.750000 0.107519 0.750000
#
# Coordination Sequence:
#
# PCOD8263281 Si02
#       7
#    16  16  16  16  16  16  16
#     4  10  22  40  58  80 120 155 192 236 300 357
#     4   9  20  36  58  84 118 156 198 245 291 349
#     4  10  20  41  59  83 117 154 198 241 288 359
#     4  11  25  37  57  87 119 156 188 247 306 355
#     4   9  17  33  59  87 112 148 195 246 292 337
#     4  10  20  37  57  85 118 154 196 237 293 360
#     4  11  24  37  59  91 118 151 199 248 296 355
#
# _framework density 20.4358
#
# number of rings (size 3 to 8) (size 9 to 14) (size 15 to 20)
#    0.000    2.000    2.857    0.429    6.000    2.857 
#    0.000    0.714    0.000    0.000    0.000    5.000 
#    0.000    0.000    0.000    0.000    0.000    0.000 
#
# Total GULP energy -693881.488004 kJ/mol
# GULP energy per Si atom -12390.740857 kJ/mol
# Density = 2.038929 g / cm^3
# Si number density = 20.435800 Si / 1000 Ang^3
#
#
#
# Elastic Constant Matrix: (Units=GPa)
#
#
# Indices 1 2 3 4 5 6 
#
# 1 33.4241 22.3150 33.0797 0.0000 0.0000 0.0000
# 2 22.3150 59.2342 52.6127 0.0000 0.0000 0.0000
# 3 33.0797 52.6127 124.4226 0.0000 0.0000 0.0000
# 4 0.0000 0.0000 0.0000 41.4716 0.0000 0.0000
# 5 0.0000 0.0000 0.0000 0.0000 40.0590 0.0000
# 6 0.0000 0.0000 0.0000 0.0000 0.0000 22.6422
#
#
#
# Elastic Compliance Matrix: (Units=1/GPa)
#
#
# Indices 1 2 3 4 5 6 
#
# 1 0.043947 -0.009894 -0.007500 0.000000 0.000000 0.000000
# 2 -0.009894 0.029264 -0.009744 0.000000 0.000000 0.000000
# 3 -0.007500 -0.009744 0.014152 0.000000 0.000000 0.000000
# 4 0.000000 0.000000 0.000000 0.024113 0.000000 0.000000
# 5 0.000000 0.000000 0.000000 0.000000 0.024963 0.000000
# 6 0.000000 0.000000 0.000000 0.000000 0.000000 0.044165
#
#
# Mechanical properties :
#
#
# Convention : Reuss Voigt Hill
#
# Bulk Modulus (GPa) = 30.22420 48.12175 39.17297
# Shear Modulus (GPa) = 20.33266 28.10612 24.21939
#
# Velocity S-wave (km/s) = 3.15771 3.71258 3.44633
# Velocity P-wave (km/s) = 5.30253 6.47893 5.92002
#
# Compressibility (1/GPa) = 0.03308607
#
# Stress axis : x y z
#
# Youngs Moduli (GPa) = 22.75463 34.17130 70.66386
#
# Poissons Ratio (x) = 0.33810 0.53000
# Poissons Ratio (y) = 0.22514 0.68855
# Poissons Ratio (z) = 0.17067 0.33297
#
# Static dielectric constant tensor:
#      x y z
#    x 3.902660 0.000000 0.000000 
#    y 0.000000 3.407830 0.000000 
#    z 0.000000 0.000000 3.822270 
# 
# 
# High freq. dielectric constant tensor:
#      x y z
#    x 1.799410 0.000000 0.000000 
#    y 0.000000 1.774180 0.000000 
#    z 0.000000 0.000000 1.797040 
# 
# From -- ./inp_files/27429.got.cif
#   From: 2010.03.12/outbox.cif.g09.slc.cpg/sg64_14_cif.got.tgz:27429.got - 2010.04.10 20:19:32.
