data_PCOD8263647
_publ_section_title
;
Structure prediction by ZEFSAII (Michael W. Deem and Ramdas Pophale) SiO2 
 PCOD8263647
Probable space group: C M C A
;
_chemical_formula_sum "Si O2"
_cell_formula_units_Z 64
_cell_length_a 19.988966
_cell_length_b 29.332884
_cell_length_c 5.287623
_cell_angle_alpha 90.000000
_cell_angle_beta 90.000000
_cell_angle_gamma 90.000000
_cell_volume 3100.313255
_symmetry_space_group_name_H-M "C M C A"
_symmetry_group_IT_number 64
_symmetry_cell_setting 'orthorhombic'
loop_
_space_group_symop_operation_xyz
x,y,z
-x,1/2-y,1/2+z
x,-y,-z
-x,1/2+y,1/2-z
-x,-y,-z
x,1/2+y,1/2-z
-x,y,z
x,1/2-y,1/2+z
1/2+x,1/2+y,z
1/2-x,-y,1/2+z
1/2+x,1/2-y,-z
1/2-x,y,1/2-z
1/2-x,1/2-y,-z
1/2+x,y,1/2-z
1/2-x,1/2+y,z
1/2+x,-y,1/2+z
loop_
_atom_site_type_symbol
_atom_site_label
_atom_site_fract_x
_atom_site_fract_y
_atom_site_fract_z
Si Si1 0.324647 0.230870 0.522463
Si Si2 0.633518 0.631016 0.927701
Si Si3 0.177307 0.043500 0.148674
Si Si4 0.575659 0.099114 0.085282
O O1 0.361814 0.245435 0.262188
O O2 0.250000 0.250000 0.500000
O O3 0.322515 0.176635 0.560920
O O4 0.595217 0.627997 0.661881
O O5 0.682768 0.587376 0.961415
O O6 0.581365 0.631105 0.164057
O O7 0.250000 0.030761 0.250000
O O8 0.125396 0.055578 0.376560
O O9 0.148182 0.000000 0.000000
O O10 0.500000 0.081362 0.056327
#
# Coordination Sequence:
#
# PCOD8263647 Si02
#       4
#    16  16  16  16
#     4  10  21  35  61  95 130 165 221 272 332 397
#     4  10  23  41  67  96 132 174 221 281 335 397
#     4  10  26  40  67 101 140 175 221 279 346 404
#     4  10  23  44  70  95 134 182 227 273 333 410
#
# _framework density 20.643076000000001
#
# number of rings (size 3 to 8) (size 9 to 14) (size 15 to 20)
#    1.500    0.500    0.000    2.250    7.000    2.500 
#    0.000    1.250    0.000   15.000    0.000    0.000 
#    0.000    0.000    0.000    0.000    0.000    0.000 
#
# Total GULP energy -396453.571807 kJ/mol
# GULP energy per Si atom -12389.174119 kJ/mol
# Density = 2.059609 g / cm^3
# Si number density = 20.643076 Si / 1000 Ang^3
#
#
#
# Elastic Constant Matrix: (Units=GPa)
#
#
# Indices 1 2 3 4 5 6 
#
# 1 88.1123 26.0057 27.2856 0.0000 0.0000 0.0000
# 2 26.0057 158.6346 49.9669 0.0000 0.0000 0.0000
# 3 27.2856 49.9669 187.4392 0.0000 0.0000 0.0000
# 4 0.0000 0.0000 0.0000 31.5129 0.0000 0.0000
# 5 0.0000 0.0000 0.0000 0.0000 18.6256 0.0000
# 6 0.0000 0.0000 0.0000 0.0000 0.0000 7.3782
#
#
#
# Elastic Compliance Matrix: (Units=1/GPa)
#
#
# Indices 1 2 3 4 5 6 
#
# 1 0.012236 -0.001577 -0.001361 0.000000 0.000000 0.000000
# 2 -0.001577 0.007085 -0.001659 0.000000 0.000000 0.000000
# 3 -0.001361 -0.001659 0.005975 0.000000 0.000000 0.000000
# 4 0.000000 0.000000 0.000000 0.031733 0.000000 0.000000
# 5 0.000000 0.000000 0.000000 0.000000 0.053690 0.000000
# 6 0.000000 0.000000 0.000000 0.000000 0.000000 0.135534
#
#
# Mechanical properties :
#
#
# Convention : Reuss Voigt Hill
#
# Bulk Modulus (GPa) = 62.10333 71.18915 66.64624
# Shear Modulus (GPa) = 19.17074 33.56520 26.36797
#
# Velocity S-wave (km/s) = 3.05073 4.03672 3.57785
# Velocity P-wave (km/s) = 6.52372 7.50249 7.03016
#
# Compressibility (1/GPa) = 0.01610220
#
# Stress axis : x y z
#
# Youngs Moduli (GPa) = 81.72565 141.14429 167.35233
#
# Poissons Ratio (x) = 0.22263 0.22772
# Poissons Ratio (y) = 0.12891 0.27765
# Poissons Ratio (z) = 0.11121 0.23417
#
# Static dielectric constant tensor:
#      x y z
#    x 2.969270 0.000000 0.000000 
#    y 0.000000 3.538960 0.000000 
#    z 0.000000 0.000000 4.017270 
# 
# 
# High freq. dielectric constant tensor:
#      x y z
#    x 1.759470 0.000000 0.000000 
#    y 0.000000 1.798590 0.000000 
#    z 0.000000 0.000000 1.833760 
# 
# From -- ./inp_files/2183.got.cif
#   From: 2010.03.12/outbox.cif.g09.slc.cpg/sg64_2_cif.got.tgz:2183.got - 2010.04.10 20:19:32.
