data_PCOD8263116
_publ_section_title
;
Structure prediction by ZEFSAII (Michael W. Deem and Ramdas Pophale) SiO2 
 PCOD8263116
Probable space group: C M C A
;
_chemical_formula_sum "Si O2"
_cell_formula_units_Z 80
_cell_length_a 8.648726
_cell_length_b 19.624893
_cell_length_c 25.496743
_cell_angle_alpha 90.000000
_cell_angle_beta 90.000000
_cell_angle_gamma 90.000000
_cell_volume 4327.570408
_symmetry_space_group_name_H-M "C M C A"
_symmetry_group_IT_number 64
_symmetry_cell_setting 'orthorhombic'
loop_
_space_group_symop_operation_xyz
x,y,z
-x,1/2-y,1/2+z
x,-y,-z
-x,1/2+y,1/2-z
-x,-y,-z
x,1/2+y,1/2-z
-x,y,z
x,1/2-y,1/2+z
1/2+x,1/2+y,z
1/2-x,-y,1/2+z
1/2+x,1/2-y,-z
1/2-x,y,1/2-z
1/2-x,1/2-y,-z
1/2+x,y,1/2-z
1/2-x,1/2+y,z
1/2+x,-y,1/2+z
loop_
_atom_site_type_symbol
_atom_site_label
_atom_site_fract_x
_atom_site_fract_y
_atom_site_fract_z
Si Si1 0.317501 0.075555 0.391797
Si Si2 0.318514 0.670609 0.805571
Si Si3 0.170099 0.919499 0.006061
Si Si4 0.178882 0.571843 0.888527
Si Si5 0.317275 0.684731 0.194147
O O1 0.500000 0.058739 0.389173
O O2 0.275894 0.108180 0.448967
O O3 0.264748 0.129367 0.348377
O O4 0.222403 0.006932 0.382110
O O5 0.500000 0.679475 0.799343
O O6 0.250000 0.647049 0.750000
O O7 0.281194 0.613773 0.848067
O O8 0.247296 0.742399 0.823659
O O9 0.287768 0.900370 0.052546
O O10 0.000000 0.890577 0.020601
O O11 0.159999 0.000000 0.000000
O O12 0.000000 0.582773 0.875808
O O13 0.500000 0.689745 0.198343
O O14 0.250000 0.661818 0.250000
#
# Coordination Sequence:
#
# PCOD8263116 Si02
#       5
#    16  16  16  16  16
#     4   9  19  35  55  78 107 141 175 215 261 309
#     4  11  22  38  57  76 103 138 175 214 261 312
#     4   8  15  31  52  74 103 139 174 211 261 310
#     4  11  21  33  53  81 109 137 174 217 259 308
#     4  10  20  36  56  78 105 137 173 212 259 312
#
# _framework density 18.486124
#
# number of rings (size 3 to 8) (size 9 to 14) (size 15 to 20)
#    0.000    2.200    0.000    6.600    0.000    6.000 
#    0.000    3.000    0.000    0.000    0.000    0.000 
#    0.000    0.000    0.000    0.000    0.000    0.000 
#
# Total GULP energy -495948.527360 kJ/mol
# GULP energy per Si atom -12398.713184 kJ/mol
# Density = 1.844405 g / cm^3
# Si number density = 18.486124 Si / 1000 Ang^3
#
#
#
# Elastic Constant Matrix: (Units=GPa)
#
#
# Indices 1 2 3 4 5 6 
#
# 1 85.0040 26.9723 35.0118 0.0000 0.0000 0.0000
# 2 26.9723 64.5298 61.5128 0.0000 0.0000 0.0000
# 3 35.0118 61.5128 127.7734 0.0000 0.0000 0.0000
# 4 0.0000 0.0000 0.0000 -2.7726 0.0000 0.0000
# 5 0.0000 0.0000 0.0000 0.0000 28.8044 0.0000
# 6 0.0000 0.0000 0.0000 0.0000 0.0000 26.7998
#
#
#
# Elastic Compliance Matrix: (Units=1/GPa)
#
#
# Indices 1 2 3 4 5 6 
#
# 1 0.013797 -0.003998 -0.001856 0.000000 0.000000 0.000000
# 2 -0.003998 0.029798 -0.013250 0.000000 0.000000 0.000000
# 3 -0.001856 -0.013250 0.014714 0.000000 0.000000 0.000000
# 4 0.000000 0.000000 0.000000 -0.360666 0.000000 0.000000
# 5 0.000000 0.000000 0.000000 0.000000 0.034717 0.000000
# 6 0.000000 0.000000 0.000000 0.000000 0.000000 0.037314
#
#
# Mechanical properties :
#
#
# Convention : Reuss Voigt Hill
#
# Bulk Modulus (GPa) = 49.74736 58.25566 54.00151
# Shear Modulus (GPa) = -26.96612 20.82032 -3.07290
#
# Velocity S-wave (km/s) = -3.82347 3.35963 -1.29069
# Velocity P-wave (km/s) = 2.73445 6.82870 5.20136
#
# Compressibility (1/GPa) = 0.02010157
#
# Stress axis : x y z
#
# Youngs Moduli (GPa) = 72.47893 33.55896 67.96333
#
# Poissons Ratio (x) = 0.13416 0.12614
# Poissons Ratio (y) = 0.28975 0.90052
# Poissons Ratio (z) = 0.13452 0.44466
#
# Static dielectric constant tensor:
#      x y z
#    x 3.384630 0.000000 0.000000 
#    y 0.000000 3.151600 0.000000 
#    z 0.000000 0.000000 3.859960 
# 
# 
# High freq. dielectric constant tensor:
#      x y z
#    x 1.722110 0.000000 0.000000 
#    y 0.000000 1.688540 0.000000 
#    z 0.000000 0.000000 1.732170 
# 
# From -- ./inp_files/47897.got.cif
#   From: 2010.03.12/outbox.cif.g09.slc.cpg/sg64_24_cif.got.tgz:47897.got - 2010.04.10 20:19:32.
