data_PCOD8263685
_publ_section_title
;
Structure prediction by ZEFSAII (Michael W. Deem and Ramdas Pophale) SiO2 
 PCOD8263685
Probable space group: C M C A
;
_chemical_formula_sum "Si O2"
_cell_formula_units_Z 96
_cell_length_a 8.956470
_cell_length_b 19.991096
_cell_length_c 24.704228
_cell_angle_alpha 90.000000
_cell_angle_beta 90.000000
_cell_angle_gamma 90.000000
_cell_volume 4423.283416
_symmetry_space_group_name_H-M "C M C A"
_symmetry_group_IT_number 64
_symmetry_cell_setting 'orthorhombic'
loop_
_space_group_symop_operation_xyz
x,y,z
-x,1/2-y,1/2+z
x,-y,-z
-x,1/2+y,1/2-z
-x,-y,-z
x,1/2+y,1/2-z
-x,y,z
x,1/2-y,1/2+z
1/2+x,1/2+y,z
1/2-x,-y,1/2+z
1/2+x,1/2-y,-z
1/2-x,y,1/2-z
1/2-x,1/2-y,-z
1/2+x,y,1/2-z
1/2-x,1/2+y,z
1/2+x,-y,1/2+z
loop_
_atom_site_type_symbol
_atom_site_label
_atom_site_fract_x
_atom_site_fract_y
_atom_site_fract_z
Si Si1 0.169551 0.752949 0.305851
Si Si2 0.177712 0.823693 0.499773
Si Si3 0.829728 0.427445 0.911120
Si Si4 0.176028 0.619308 0.691217
Si Si5 0.169600 0.605625 0.307445
Si Si6 0.329229 0.425982 0.408180
O O1 0.250000 0.740462 0.250000
O O2 0.265229 0.810395 0.335291
O O3 0.174403 0.680618 0.333391
O O4 0.000000 0.778291 0.297760
O O5 0.250000 0.750000 0.500000
O O6 0.235104 0.868876 0.550295
O O7 0.226942 0.866045 0.446993
O O8 0.000000 0.815325 0.501114
O O9 0.746246 0.436639 0.854108
O O10 0.817137 0.501592 0.938189
O O11 0.000000 0.409150 0.898379
O O12 0.250000 0.606294 0.750000
O O13 0.229234 0.566960 0.646257
O O14 0.000000 0.618155 0.698258
O O15 0.250000 0.596392 0.250000
O O16 0.000000 0.581878 0.298515
O O17 0.500000 0.411973 0.391252
#
# Coordination Sequence:
#
# PCOD8263685 Si02
#       6
#    16  16  16  16  16  16
#     4   9  17  31  51  78 114 157 201 246 299 353
#     4  10  23  43  68  96 123 157 205 257 312 369
#     4  10  22  41  65  91 123 166 210 254 304 366
#     4  11  22  36  58  89 125 164 208 255 307 366
#     4  10  21  36  58  89 126 166 207 254 307 366
#     4  10  22  42  65  89 124 167 209 253 305 366
#
# _framework density 21.703334000000002
#
# number of rings (size 3 to 8) (size 9 to 14) (size 15 to 20)
#    0.000    2.000    0.000    4.000    2.333    6.667 
#    0.000    0.000    0.000    3.000    0.000    0.000 
#    0.000    0.000    0.000    0.000    0.000    0.000 
#
# Total GULP energy -594631.086195 kJ/mol
# GULP energy per Si atom -12388.147629 kJ/mol
# Density = 2.165394 g / cm^3
# Si number density = 21.703334 Si / 1000 Ang^3
#
#
#
# Elastic Constant Matrix: (Units=GPa)
#
#
# Indices 1 2 3 4 5 6 
#
# 1 126.1421 39.8103 55.8991 0.0000 0.0000 0.0000
# 2 39.8103 131.0339 53.4929 0.0000 0.0000 0.0000
# 3 55.8991 53.4929 130.2218 0.0000 0.0000 0.0000
# 4 0.0000 0.0000 0.0000 27.2559 0.0000 0.0000
# 5 0.0000 0.0000 0.0000 0.0000 29.2070 0.0000
# 6 0.0000 0.0000 0.0000 0.0000 0.0000 26.2738
#
#
#
# Elastic Compliance Matrix: (Units=1/GPa)
#
#
# Indices 1 2 3 4 5 6 
#
# 1 0.010046 -0.001552 -0.003675 0.000000 0.000000 0.000000
# 2 -0.001552 0.009409 -0.003199 0.000000 0.000000 0.000000
# 3 -0.003675 -0.003199 0.010571 0.000000 0.000000 0.000000
# 4 0.000000 0.000000 0.000000 0.036689 0.000000 0.000000
# 5 0.000000 0.000000 0.000000 0.000000 0.034238 0.000000
# 6 0.000000 0.000000 0.000000 0.000000 0.000000 0.038061
#
#
# Mechanical properties :
#
#
# Convention : Reuss Voigt Hill
#
# Bulk Modulus (GPa) = 75.90495 76.20026 76.05260
# Shear Modulus (GPa) = 31.19996 32.42702 31.81349
#
# Velocity S-wave (km/s) = 3.79564 3.86956 3.83277
# Velocity P-wave (km/s) = 7.36607 7.42636 7.39627
#
# Compressibility (1/GPa) = 0.01317437
#
# Stress axis : x y z
#
# Youngs Moduli (GPa) = 99.54405 106.28101 94.60111
#
# Poissons Ratio (x) = 0.16494 0.34764
# Poissons Ratio (y) = 0.15448 0.30262
# Poissons Ratio (z) = 0.36580 0.33998
#
# Static dielectric constant tensor:
#      x y z
#    x 3.777100 0.000000 0.000000 
#    y 0.000000 4.429890 0.000000 
#    z 0.000000 0.000000 3.652010 
# 
# 
# High freq. dielectric constant tensor:
#      x y z
#    x 1.841890 0.000000 0.000000 
#    y 0.000000 1.868930 0.000000 
#    z 0.000000 0.000000 1.837170 
# 
# From -- ./inp_files/48121.got.cif
#   From: 2010.03.12/outbox.cif.g09.slc.cpg/sg64_25_cif.got.tgz:48121.got - 2010.04.10 20:19:32.
