data_PCOD8263099
_publ_section_title
;
Structure prediction by ZEFSAII (Michael W. Deem and Ramdas Pophale) SiO2 
 PCOD8263099
Probable space group: C M C A
;
_chemical_formula_sum "Si O2"
_cell_formula_units_Z 80
_cell_length_a 31.045914
_cell_length_b 25.902307
_cell_length_c 5.003363
_cell_angle_alpha 90.000000
_cell_angle_beta 90.000000
_cell_angle_gamma 90.000000
_cell_volume 4023.508370
_symmetry_space_group_name_H-M "C M C A"
_symmetry_group_IT_number 64
_symmetry_cell_setting 'orthorhombic'
loop_
_space_group_symop_operation_xyz
x,y,z
-x,1/2-y,1/2+z
x,-y,-z
-x,1/2+y,1/2-z
-x,-y,-z
x,1/2+y,1/2-z
-x,y,z
x,1/2-y,1/2+z
1/2+x,1/2+y,z
1/2-x,-y,1/2+z
1/2+x,1/2-y,-z
1/2-x,y,1/2-z
1/2-x,1/2-y,-z
1/2+x,y,1/2-z
1/2-x,1/2+y,z
1/2+x,-y,1/2+z
loop_
_atom_site_type_symbol
_atom_site_label
_atom_site_fract_x
_atom_site_fract_y
_atom_site_fract_z
Si Si1 0.220405 0.941231 0.996070
Si Si2 0.500000 0.782420 0.452953
Si Si3 0.368780 0.608062 0.038743
Si Si4 0.500000 0.962281 0.241054
Si Si5 0.088967 0.560242 0.949986
Si Si6 0.907697 0.714713 0.438721
O O1 0.250000 0.932511 0.750000
O O2 0.181290 0.903161 0.923855
O O3 0.250000 0.926853 0.250000
O O4 0.202866 0.000000 0.000000
O O5 0.500000 0.769462 0.138048
O O6 0.455505 0.811584 0.526963
O O7 0.401700 0.588828 0.270153
O O8 0.373414 0.669709 0.012659
O O9 0.376509 0.579604 0.759616
O O10 0.542683 0.927388 0.194492
O O11 0.500000 0.000000 0.500000
O O12 0.500000 0.000000 0.000000
O O13 0.094998 0.500000 0.000000
O O14 0.901495 0.761552 0.645764
#
# Coordination Sequence:
#
# PCOD8263099 Si02
#       6
#    16   8  16   8  16  16
#     4  10  21  38  60  86 117 148 184 240 306 370
#     4   8  16  32  54  76 105 144 187 239 290 325
#     4  12  23  37  62  88 112 154 201 245 301 359
#     4  10  20  36  52  76 122 170 196 229 286 349
#     4  11  22  36  55  84 120 154 195 240 285 352
#     4  10  21  38  57  82 116 152 196 249 295 345
#
# _framework density 19.883144000000001
#
# number of rings (size 3 to 8) (size 9 to 14) (size 15 to 20)
#    0.000    1.600    0.000    6.600    0.000    3.200 
#    0.000    2.000    0.000    3.600    0.000    0.000 
#    0.000    0.000    0.000    0.000    0.000    0.000 
#
# Total GULP energy -495599.116605 kJ/mol
# GULP energy per Si atom -12389.977915 kJ/mol
# Density = 1.983789 g / cm^3
# Si number density = 19.883144 Si / 1000 Ang^3
#
#
#
# Elastic Constant Matrix: (Units=GPa)
#
#
# Indices 1 2 3 4 5 6 
#
# 1 109.8128 60.7056 14.5885 0.0000 0.0000 0.0000
# 2 60.7056 83.0074 27.0287 0.0000 0.0000 0.0000
# 3 14.5885 27.0287 112.7049 0.0000 0.0000 0.0000
# 4 0.0000 0.0000 0.0000 20.9617 0.0000 0.0000
# 5 0.0000 0.0000 0.0000 0.0000 41.4355 0.0000
# 6 0.0000 0.0000 0.0000 0.0000 0.0000 30.5621
#
#
#
# Elastic Compliance Matrix: (Units=1/GPa)
#
#
# Indices 1 2 3 4 5 6 
#
# 1 0.015347 -0.011473 0.000765 0.000000 0.000000 0.000000
# 2 -0.011473 0.021644 -0.003706 0.000000 0.000000 0.000000
# 3 0.000765 -0.003706 0.009662 0.000000 0.000000 0.000000
# 4 0.000000 0.000000 0.000000 0.047706 0.000000 0.000000
# 5 0.000000 0.000000 0.000000 0.000000 0.024134 0.000000
# 6 0.000000 0.000000 0.000000 0.000000 0.000000 0.032720
#
#
# Mechanical properties :
#
#
# Convention : Reuss Voigt Hill
#
# Bulk Modulus (GPa) = 56.09631 56.68564 56.39097
# Shear Modulus (GPa) = 26.88417 32.13868 29.51142
#
# Velocity S-wave (km/s) = 3.68109 4.02478 3.85677
# Velocity P-wave (km/s) = 6.80746 7.08306 6.94663
#
# Compressibility (1/GPa) = 0.01782648
#
# Stress axis : x y z
#
# Youngs Moduli (GPa) = 65.15896 46.20187 103.49394
#
# Poissons Ratio (x) = 0.53007 -0.07916
# Poissons Ratio (y) = 0.74756 0.38351
# Poissons Ratio (z) = -0.04984 0.17121
#
# Static dielectric constant tensor:
#      x y z
#    x 2.531600 0.000000 0.000000 
#    y 0.000000 3.198440 0.000000 
#    z 0.000000 0.000000 3.760190 
# 
# 
# High freq. dielectric constant tensor:
#      x y z
#    x 1.770330 0.000000 0.000000 
#    y 0.000000 1.739820 0.000000 
#    z 0.000000 0.000000 1.802060 
# 
# From -- ./inp_files/2919.got.cif
#   From: 2010.03.12/outbox.cif.g09.slc.cpg/sg64_2_cif.got.tgz:2919.got - 2010.04.10 20:19:32.
