data_PCOD8263375
_publ_section_title
;
Structure prediction by ZEFSAII (Michael W. Deem and Ramdas Pophale) SiO2 
 PCOD8263375
Probable space group: C M C A
;
_chemical_formula_sum "Si O2"
_cell_formula_units_Z 112
_cell_length_a 30.596070
_cell_length_b 13.961536
_cell_length_c 12.452573
_cell_angle_alpha 90.000000
_cell_angle_beta 90.000000
_cell_angle_gamma 90.000000
_cell_volume 5319.342357
_symmetry_space_group_name_H-M "C M C A"
_symmetry_group_IT_number 64
_symmetry_cell_setting 'orthorhombic'
loop_
_space_group_symop_operation_xyz
x,y,z
-x,1/2-y,1/2+z
x,-y,-z
-x,1/2+y,1/2-z
-x,-y,-z
x,1/2+y,1/2-z
-x,y,z
x,1/2-y,1/2+z
1/2+x,1/2+y,z
1/2-x,-y,1/2+z
1/2+x,1/2-y,-z
1/2-x,y,1/2-z
1/2-x,1/2-y,-z
1/2+x,y,1/2-z
1/2-x,1/2+y,z
1/2+x,-y,1/2+z
loop_
_atom_site_type_symbol
_atom_site_label
_atom_site_fract_x
_atom_site_fract_y
_atom_site_fract_z
Si Si1 0.233652 0.828769 0.638476
Si Si2 0.088216 0.563567 0.143058
Si Si3 0.100900 0.732470 0.292927
Si Si4 0.549951 0.623032 0.574402
Si Si5 0.325902 0.139910 0.423211
Si Si6 0.665716 0.331633 0.152225
Si Si7 0.679555 0.508094 0.277748
O O1 0.250000 0.785706 0.750000
O O2 0.275180 0.824431 0.559210
O O3 0.192856 0.761162 0.610604
O O4 0.218440 0.940455 0.655908
O O5 0.080923 0.634070 0.244501
O O6 0.055215 0.473351 0.146117
O O7 0.136839 0.519587 0.148604
O O8 0.080919 0.618864 0.030544
O O9 0.062093 0.785211 0.354511
O O10 0.142101 0.719830 0.373078
O O11 0.118810 0.795904 0.194017
O O12 0.500000 0.633081 0.537421
O O13 0.342443 0.109107 0.541632
O O14 0.326716 0.054062 0.339319
O O15 0.688198 0.396671 0.246383
#
# Coordination Sequence:
#
# PCOD8263375 Si02
#       7
#    16  16  16  16  16  16  16
#     4  10  20  38  55  84 128 156 209 256 289 357
#     4  10  20  41  64  90 126 161 196 259 313 374
#     4  11  22  39  66  92 123 162 207 257 310 376
#     4  11  24  41  67  97 121 158 208 255 323 392
#     4  10  22  39  58  89 127 160 210 253 304 364
#     4  12  20  37  63  85 118 170 203 253 311 349
#     4  10  21  37  59  87 121 159 212 251 299 369
#
# _framework density 21.055235
#
# number of rings (size 3 to 8) (size 9 to 14) (size 15 to 20)
#    0.000    1.429    5.714    2.571    0.000    2.857 
#    0.000    0.000   12.571    0.000    0.000    4.000 
#    0.000    0.000    0.000    0.000    0.000    0.000 
#
# Total GULP energy -693813.771793 kJ/mol
# GULP energy per Si atom -12389.531639 kJ/mol
# Density = 2.100731 g / cm^3
# Si number density = 21.055235 Si / 1000 Ang^3
#
#
#
# Elastic Constant Matrix: (Units=GPa)
#
#
# Indices 1 2 3 4 5 6 
#
# 1 90.4808 26.3906 43.8999 0.0000 0.0000 0.0000
# 2 26.3906 89.9416 27.5659 0.0000 0.0000 0.0000
# 3 43.8999 27.5659 85.9075 0.0000 0.0000 0.0000
# 4 0.0000 0.0000 0.0000 23.4678 0.0000 0.0000
# 5 0.0000 0.0000 0.0000 0.0000 23.3001 0.0000
# 6 0.0000 0.0000 0.0000 0.0000 0.0000 27.7006
#
#
#
# Elastic Compliance Matrix: (Units=1/GPa)
#
#
# Indices 1 2 3 4 5 6 
#
# 1 0.015110 -0.002293 -0.006986 0.000000 0.000000 0.000000
# 2 -0.002293 0.012679 -0.002897 0.000000 0.000000 0.000000
# 3 -0.006986 -0.002897 0.016140 0.000000 0.000000 0.000000
# 4 0.000000 0.000000 0.000000 0.042611 0.000000 0.000000
# 5 0.000000 0.000000 0.000000 0.000000 0.042918 0.000000
# 6 0.000000 0.000000 0.000000 0.000000 0.000000 0.036100
#
#
# Mechanical properties :
#
#
# Convention : Reuss Voigt Hill
#
# Bulk Modulus (GPa) = 51.07689 51.33808 51.20748
# Shear Modulus (GPa) = 25.45365 26.12529 25.78947
#
# Velocity S-wave (km/s) = 3.48069 3.52632 3.50358
# Velocity P-wave (km/s) = 6.36120 6.40433 6.38280
#
# Compressibility (1/GPa) = 0.01957832
#
# Stress axis : x y z
#
# Youngs Moduli (GPa) = 66.18058 78.87150 61.95848
#
# Poissons Ratio (x) = 0.18082 0.43283
# Poissons Ratio (y) = 0.15172 0.17949
# Poissons Ratio (z) = 0.46233 0.22848
#
# Static dielectric constant tensor:
#      x y z
#    x 3.664330 0.000000 0.000000 
#    y 0.000000 3.809690 0.000000 
#    z 0.000000 0.000000 3.780600 
# 
# 
# High freq. dielectric constant tensor:
#      x y z
#    x 1.797510 0.000000 0.000000 
#    y 0.000000 1.822660 0.000000 
#    z 0.000000 0.000000 1.820660 
# 
# From -- ./inp_files/19876.got.cif
#   From: 2010.03.12/outbox.cif.g09.slc.cpg/sg64_10_cif.got.tgz:19876.got - 2010.04.10 20:19:32.
