data_PCOD8263179
_publ_section_title
;
Structure prediction by ZEFSAII (Michael W. Deem and Ramdas Pophale) SiO2 
 PCOD8263179
Probable space group: C M C A
;
_chemical_formula_sum "Si O2"
_cell_formula_units_Z 80
_cell_length_a 9.193585
_cell_length_b 14.122601
_cell_length_c 29.455744
_cell_angle_alpha 90.000000
_cell_angle_beta 90.000000
_cell_angle_gamma 90.000000
_cell_volume 3824.455234
_symmetry_space_group_name_H-M "C M C A"
_symmetry_group_IT_number 64
_symmetry_cell_setting 'orthorhombic'
loop_
_space_group_symop_operation_xyz
x,y,z
-x,1/2-y,1/2+z
x,-y,-z
-x,1/2+y,1/2-z
-x,-y,-z
x,1/2+y,1/2-z
-x,y,z
x,1/2-y,1/2+z
1/2+x,1/2+y,z
1/2-x,-y,1/2+z
1/2+x,1/2-y,-z
1/2-x,y,1/2-z
1/2-x,1/2-y,-z
1/2+x,y,1/2-z
1/2-x,1/2+y,z
1/2+x,-y,1/2+z
loop_
_atom_site_type_symbol
_atom_site_label
_atom_site_fract_x
_atom_site_fract_y
_atom_site_fract_z
Si Si1 0.170950 0.435098 0.856095
Si Si2 0.336375 0.129093 0.540531
Si Si3 0.672943 0.203067 0.296246
Si Si4 0.665150 0.593542 0.057446
Si Si5 0.168243 0.849012 0.373597
O O1 0.257849 0.396206 0.812486
O O2 0.228559 0.380310 0.901047
O O3 0.210832 0.545297 0.858854
O O4 0.000000 0.416781 0.850500
O O5 0.500000 0.166058 0.545826
O O6 0.282389 0.147916 0.488568
O O7 0.241020 0.182069 0.578616
O O8 0.328429 0.017631 0.548781
O O9 0.500000 0.193745 0.289666
O O10 0.750000 0.234517 0.250000
O O11 0.718031 0.281451 0.333103
O O12 0.500000 0.623387 0.070239
O O13 0.000000 0.840071 0.383300
#
# Coordination Sequence:
#
# PCOD8263179 Si02
#       5
#    16  16  16  16  16
#     4  10  20  36  58  85 113 144 182 224 269 321
#     4   8  14  26  49  79 111 146 184 220 261 314
#     4  11  24  42  60  80 107 140 178 226 278 329
#     4   8  14  27  48  78 113 148 182 219 263 314
#     4   9  20  37  57  82 113 144 179 223 272 322
#
# _framework density 20.918011
#
# number of rings (size 3 to 8) (size 9 to 14) (size 15 to 20)
#    0.000    2.800    0.000    2.400    0.000    4.000 
#    0.000    7.000    0.000    0.000    0.000    0.000 
#    0.000    0.000    0.000    0.000    0.000    0.000 
#
# Total GULP energy -495903.270684 kJ/mol
# GULP energy per Si atom -12397.581767 kJ/mol
# Density = 2.087040 g / cm^3
# Si number density = 20.918011 Si / 1000 Ang^3
#
#
#
# Elastic Constant Matrix: (Units=GPa)
#
#
# Indices 1 2 3 4 5 6 
#
# 1 75.6898 15.2958 49.9802 0.0000 0.0000 0.0000
# 2 15.2958 30.2601 27.6787 0.0000 0.0000 0.0000
# 3 49.9802 27.6787 133.7179 0.0000 0.0000 0.0000
# 4 0.0000 0.0000 0.0000 31.5661 0.0000 0.0000
# 5 0.0000 0.0000 0.0000 0.0000 44.5930 0.0000
# 6 0.0000 0.0000 0.0000 0.0000 0.0000 18.5733
#
#
#
# Elastic Compliance Matrix: (Units=1/GPa)
#
#
# Indices 1 2 3 4 5 6 
#
# 1 0.017854 -0.003603 -0.005928 0.000000 0.000000 0.000000
# 2 -0.003603 0.041492 -0.007242 0.000000 0.000000 0.000000
# 3 -0.005928 -0.007242 0.011193 0.000000 0.000000 0.000000
# 4 0.000000 0.000000 0.000000 0.031680 0.000000 0.000000
# 5 0.000000 0.000000 0.000000 0.000000 0.022425 0.000000
# 6 0.000000 0.000000 0.000000 0.000000 0.000000 0.053841
#
#
# Mechanical properties :
#
#
# Convention : Reuss Voigt Hill
#
# Bulk Modulus (GPa) = 27.03111 47.28637 37.15874
# Shear Modulus (GPa) = 22.28551 28.72734 25.50643
#
# Velocity S-wave (km/s) = 3.26755 3.70987 3.49571
# Velocity P-wave (km/s) = 5.21405 6.40355 5.83917
#
# Compressibility (1/GPa) = 0.03699441
#
# Stress axis : x y z
#
# Youngs Moduli (GPa) = 56.00962 24.10096 89.34117
#
# Poissons Ratio (x) = 0.08683 0.52958
# Poissons Ratio (y) = 0.20180 0.64700
# Poissons Ratio (z) = 0.33200 0.17454
#
# Static dielectric constant tensor:
#      x y z
#    x 3.710280 0.000000 0.000000 
#    y 0.000000 3.641750 0.000000 
#    z 0.000000 0.000000 4.116170 
# 
# 
# High freq. dielectric constant tensor:
#      x y z
#    x 1.811380 0.000000 0.000000 
#    y 0.000000 1.809830 0.000000 
#    z 0.000000 0.000000 1.825160 
# 
# From -- ./inp_files/47856.got.cif
#   From: 2010.03.12/outbox.cif.g09.slc.cpg/sg64_24_cif.got.tgz:47856.got - 2010.04.10 20:19:32.
