data_PCOD8263095
_publ_section_title
;
Structure prediction by ZEFSAII (Michael W. Deem and Ramdas Pophale) SiO2 
 PCOD8263095
Probable space group: C M C A
;
_chemical_formula_sum "Si O2"
_cell_formula_units_Z 104
_cell_length_a 15.828730
_cell_length_b 23.997843
_cell_length_c 15.897777
_cell_angle_alpha 90.000000
_cell_angle_beta 90.000000
_cell_angle_gamma 90.000000
_cell_volume 6038.856083
_symmetry_space_group_name_H-M "C M C A"
_symmetry_group_IT_number 64
_symmetry_cell_setting 'orthorhombic'
loop_
_space_group_symop_operation_xyz
x,y,z
-x,1/2-y,1/2+z
x,-y,-z
-x,1/2+y,1/2-z
-x,-y,-z
x,1/2+y,1/2-z
-x,y,z
x,1/2-y,1/2+z
1/2+x,1/2+y,z
1/2-x,-y,1/2+z
1/2+x,1/2-y,-z
1/2-x,y,1/2-z
1/2-x,1/2-y,-z
1/2+x,y,1/2-z
1/2-x,1/2+y,z
1/2+x,-y,1/2+z
loop_
_atom_site_type_symbol
_atom_site_label
_atom_site_fract_x
_atom_site_fract_y
_atom_site_fract_z
Si Si1 0.668823 0.663875 0.803150
Si Si2 0.597330 0.948160 0.609152
Si Si3 0.841340 0.161278 0.159331
Si Si4 0.000000 0.802602 0.260104
Si Si5 0.402214 0.071571 0.585601
Si Si6 0.000000 0.271853 0.908168
Si Si7 0.332332 0.791009 0.843633
Si Si8 0.000000 0.781818 0.911543
O O1 0.750000 0.646020 0.750000
O O2 0.586039 0.661383 0.742480
O O3 0.657558 0.619415 0.877621
O O4 0.683203 0.724686 0.843648
O O5 0.500000 0.938685 0.631960
O O6 0.653505 0.906014 0.665806
O O7 0.614951 0.933107 0.512712
O O8 0.621692 0.012132 0.628210
O O9 0.750891 0.178908 0.120303
O O10 0.852608 0.189236 0.249585
O O11 0.916453 0.181135 0.098844
O O12 0.000000 0.765895 0.175470
O O13 0.000000 0.768940 0.346756
O O14 0.500000 0.086364 0.603262
O O15 0.087139 0.307405 0.902411
O O16 0.000000 0.237094 0.992695
#
# Coordination Sequence:
#
# PCOD8263095 Si02
#       8
#    16  16  16   8  16   8  16   8
#     4  11  18  33  53  72 106 145 170 216 268 311
#     4   9  19  33  55  82 104 135 173 226 277 321
#     4  11  19  34  55  76 111 145 177 221 271 322
#     4  10  20  36  49  73 115 140 181 226 256 322
#     4   9  19  35  53  79 108 132 178 225 272 322
#     4  10  22  34  52  75 108 146 182 219 271 321
#     4  10  21  37  50  78 113 143 183 224 264 318
#     4  12  20  32  55  80 108 148 179 214 279 332
#
# _framework density 17.221805
#
# number of rings (size 3 to 8) (size 9 to 14) (size 15 to 20)
#    0.000    1.846    6.154    0.923    4.308    0.615 
#    5.538    0.000    0.000    0.000    0.000    0.000 
#    0.000    3.692    0.000    0.000    0.000    0.000 
#
# Total GULP energy -644561.447143 kJ/mol
# GULP energy per Si atom -12395.412445 kJ/mol
# Density = 1.718261 g / cm^3
# Si number density = 17.221805 Si / 1000 Ang^3
#
#
#
# Elastic Constant Matrix: (Units=GPa)
#
#
# Indices 1 2 3 4 5 6 
#
# 1 117.8086 29.3123 17.0637 0.0000 0.0000 0.0000
# 2 29.3123 108.3919 22.5879 0.0000 0.0000 0.0000
# 3 17.0637 22.5879 39.7360 0.0000 0.0000 0.0000
# 4 0.0000 0.0000 0.0000 19.5727 0.0000 0.0000
# 5 0.0000 0.0000 0.0000 0.0000 13.0430 0.0000
# 6 0.0000 0.0000 0.0000 0.0000 0.0000 20.1239
#
#
#
# Elastic Compliance Matrix: (Units=1/GPa)
#
#
# Indices 1 2 3 4 5 6 
#
# 1 0.009394 -0.001928 -0.002938 0.000000 0.000000 0.000000
# 2 -0.001928 0.010861 -0.005346 0.000000 0.000000 0.000000
# 3 -0.002938 -0.005346 0.029467 0.000000 0.000000 0.000000
# 4 0.000000 0.000000 0.000000 0.051092 0.000000 0.000000
# 5 0.000000 0.000000 0.000000 0.000000 0.076669 0.000000
# 6 0.000000 0.000000 0.000000 0.000000 0.000000 0.049692
#
#
# Mechanical properties :
#
#
# Convention : Reuss Voigt Hill
#
# Bulk Modulus (GPa) = 34.13264 44.87382 39.50323
# Shear Modulus (GPa) = 19.42769 23.67942 21.55356
#
# Velocity S-wave (km/s) = 3.36234 3.71208 3.54153
# Velocity P-wave (km/s) = 5.91069 6.66976 6.30166
#
# Compressibility (1/GPa) = 0.02929747
#
# Stress axis : x y z
#
# Youngs Moduli (GPa) = 106.45539 92.07026 33.93662
#
# Poissons Ratio (x) = 0.17752 0.09970
# Poissons Ratio (y) = 0.20525 0.18143
# Poissons Ratio (z) = 0.31275 0.49222
#
# Static dielectric constant tensor:
#      x y z
#    x 3.682280 0.000000 0.000000 
#    y 0.000000 3.280520 0.000000 
#    z 0.000000 0.000000 2.915450 
# 
# 
# High freq. dielectric constant tensor:
#      x y z
#    x 1.670780 0.000000 0.000000 
#    y 0.000000 1.651470 0.000000 
#    z 0.000000 0.000000 1.636480 
# 
# From -- ./inp_files/25739.got.cif
#   From: 2010.03.12/outbox.cif.g09.slc.cpg/sg64_13_cif.got.tgz:25739.got - 2010.04.10 20:19:32.
