data_PCOD8263119
_publ_section_title
;
Structure prediction by ZEFSAII (Michael W. Deem and Ramdas Pophale) SiO2 
 PCOD8263119
Probable space group: C M C A
;
_chemical_formula_sum "Si O2"
_cell_formula_units_Z 96
_cell_length_a 9.326005
_cell_length_b 19.574204
_cell_length_c 28.904980
_cell_angle_alpha 90.000000
_cell_angle_beta 90.000000
_cell_angle_gamma 90.000000
_cell_volume 5276.578789
_symmetry_space_group_name_H-M "C M C A"
_symmetry_group_IT_number 64
_symmetry_cell_setting 'orthorhombic'
loop_
_space_group_symop_operation_xyz
x,y,z
-x,1/2-y,1/2+z
x,-y,-z
-x,1/2+y,1/2-z
-x,-y,-z
x,1/2+y,1/2-z
-x,y,z
x,1/2-y,1/2+z
1/2+x,1/2+y,z
1/2-x,-y,1/2+z
1/2+x,1/2-y,-z
1/2-x,y,1/2-z
1/2-x,1/2-y,-z
1/2+x,y,1/2-z
1/2-x,1/2+y,z
1/2+x,-y,1/2+z
loop_
_atom_site_type_symbol
_atom_site_label
_atom_site_fract_x
_atom_site_fract_y
_atom_site_fract_z
Si Si1 0.333275 0.508279 0.203309
Si Si2 0.666977 0.262001 0.368756
Si Si3 0.337643 0.301305 0.470052
Si Si4 0.667865 0.396348 0.880945
Si Si5 0.334195 0.065776 0.026713
Si Si6 0.832003 0.648134 0.703268
O O1 0.500000 0.519946 0.213803
O O2 0.250000 0.527830 0.250000
O O3 0.280119 0.557298 0.162020
O O4 0.302617 0.430158 0.188117
O O5 0.500000 0.273321 0.355977
O O6 0.708599 0.297245 0.416963
O O7 0.705532 0.181955 0.369815
O O8 0.770147 0.299003 0.333212
O O9 0.500000 0.277041 0.474864
O O10 0.250000 0.250000 0.500000
O O11 0.311098 0.376364 0.488685
O O12 0.500000 0.405860 0.890016
O O13 0.747343 0.420556 0.926863
O O14 0.500000 0.057414 0.040908
O O15 0.274580 0.000000 0.000000
O O16 0.750000 0.664561 0.750000
O O17 0.000000 0.661853 0.710073
#
# Coordination Sequence:
#
# PCOD8263119 Si02
#       6
#    16  16  16  16  16  16
#     4   9  20  38  58  81 108 140 179 223 271 325
#     4  10  21  36  56  82 112 146 181 226 276 324
#     4  10  20  36  56  79 111 148 185 224 271 323
#     4  10  21  38  57  81 112 144 183 227 273 325
#     4  10  22  37  54  81 113 146 187 230 271 324
#     4  10  21  38  59  83 110 141 180 224 271 327
#
# _framework density 18.193605999999999
#
# number of rings (size 3 to 8) (size 9 to 14) (size 15 to 20)
#    0.000    2.167    1.667    0.500    2.333    3.667 
#    0.000    1.667    0.000    0.000    0.000    0.000 
#    0.000    0.000    0.000    0.000    0.000    0.000 
#
# Total GULP energy -595257.160961 kJ/mol
# GULP energy per Si atom -12401.190853 kJ/mol
# Density = 1.815220 g / cm^3
# Si number density = 18.193606 Si / 1000 Ang^3
#
#
#
# Elastic Constant Matrix: (Units=GPa)
#
#
# Indices 1 2 3 4 5 6 
#
# 1 76.9330 58.7825 78.3374 0.0000 0.0000 0.0000
# 2 58.7825 115.4170 95.0260 0.0000 0.0000 0.0000
# 3 78.3374 95.0260 161.5125 0.0000 0.0000 0.0000
# 4 0.0000 0.0000 0.0000 36.7626 0.0000 0.0000
# 5 0.0000 0.0000 0.0000 0.0000 38.8487 0.0000
# 6 0.0000 0.0000 0.0000 0.0000 0.0000 25.6176
#
#
#
# Elastic Compliance Matrix: (Units=1/GPa)
#
#
# Indices 1 2 3 4 5 6 
#
# 1 0.027601 -0.005887 -0.009924 0.000000 0.000000 0.000000
# 2 -0.005887 0.018060 -0.007770 0.000000 0.000000 0.000000
# 3 -0.009924 -0.007770 0.015576 0.000000 0.000000 0.000000
# 4 0.000000 0.000000 0.000000 0.027202 0.000000 0.000000
# 5 0.000000 0.000000 0.000000 0.000000 0.025741 0.000000
# 6 0.000000 0.000000 0.000000 0.000000 0.000000 0.039036
#
#
# Mechanical properties :
#
#
# Convention : Reuss Voigt Hill
#
# Bulk Modulus (GPa) = 71.04449 90.90604 80.97527
# Shear Modulus (GPa) = 24.38199 28.36022 26.37111
#
# Velocity S-wave (km/s) = 3.66476 3.95245 3.81132
# Velocity P-wave (km/s) = 7.55257 8.42042 7.99827
#
# Compressibility (1/GPa) = 0.01407569
#
# Stress axis : x y z
#
# Youngs Moduli (GPa) = 36.23031 55.37093 64.20020
#
# Poissons Ratio (x) = 0.32597 0.63710
# Poissons Ratio (y) = 0.21329 0.49885
# Poissons Ratio (z) = 0.35953 0.43025
#
# Static dielectric constant tensor:
#      x y z
#    x 3.358020 0.000000 0.000000 
#    y 0.000000 3.443160 0.000000 
#    z 0.000000 0.000000 3.564210 
# 
# 
# High freq. dielectric constant tensor:
#      x y z
#    x 1.703140 0.000000 0.000000 
#    y 0.000000 1.715140 0.000000 
#    z 0.000000 0.000000 1.711940 
# 
# From -- ./inp_files/44209.got.cif
#   From: 2010.03.12/outbox.cif.g09.slc.cpg/sg64_23_cif.got.tgz:44209.got - 2010.04.10 20:19:32.
