data_PCOD8263679
_publ_section_title
;
Structure prediction by ZEFSAII (Michael W. Deem and Ramdas Pophale) SiO2 
 PCOD8263679
Probable space group: C M C A
;
_chemical_formula_sum "Si O2"
_cell_formula_units_Z 96
_cell_length_a 25.162480
_cell_length_b 9.263714
_cell_length_c 19.352425
_cell_angle_alpha 90.000000
_cell_angle_beta 90.000000
_cell_angle_gamma 90.000000
_cell_volume 4511.011916
_symmetry_space_group_name_H-M "C M C A"
_symmetry_group_IT_number 64
_symmetry_cell_setting 'orthorhombic'
loop_
_space_group_symop_operation_xyz
x,y,z
-x,1/2-y,1/2+z
x,-y,-z
-x,1/2+y,1/2-z
-x,-y,-z
x,1/2+y,1/2-z
-x,y,z
x,1/2-y,1/2+z
1/2+x,1/2+y,z
1/2-x,-y,1/2+z
1/2+x,1/2-y,-z
1/2-x,y,1/2-z
1/2-x,1/2-y,-z
1/2+x,y,1/2-z
1/2-x,1/2+y,z
1/2+x,-y,1/2+z
loop_
_atom_site_type_symbol
_atom_site_label
_atom_site_fract_x
_atom_site_fract_y
_atom_site_fract_z
Si Si1 0.854758 0.606655 0.408615
Si Si2 0.559913 0.234287 0.162365
Si Si3 0.208168 0.030382 0.694098
Si Si4 0.897315 0.979558 0.770491
Si Si5 0.137663 0.286456 0.452271
Si Si6 0.754022 0.218259 0.389190
O O1 0.875061 0.630735 0.330183
O O2 0.877376 0.722307 0.465652
O O3 0.872939 0.448220 0.428584
O O4 0.790651 0.606751 0.415180
O O5 0.500000 0.231554 0.133876
O O6 0.565223 0.112295 0.220724
O O7 0.570285 0.390402 0.195646
O O8 0.598944 0.193978 0.097600
O O9 0.250000 0.080688 0.750000
O O10 0.150201 0.049968 0.726356
O O11 0.215842 0.862105 0.674074
O O12 0.219941 0.138919 0.630543
O O13 0.200054 0.245686 0.445530
#
# Coordination Sequence:
#
# PCOD8263679 Si02
#       6
#    16  16  16  16  16  16
#     4  10  21  36  58  85 123 154 191 234 289 361
#     4  11  23  41  64  86 112 152 202 252 299 340
#     4  12  22  32  58  89 124 154 191 234 290 354
#     4  11  22  39  60  89 118 151 195 250 297 346
#     4  10  21  39  56  85 121 156 195 242 286 346
#     4  12  20  36  56  88 119 162 192 224 289 358
#
# _framework density 21.281255999999999
#
# number of rings (size 3 to 8) (size 9 to 14) (size 15 to 20)
#    0.000    1.000    5.000    3.500    0.000    0.000 
#    0.000    7.500    0.000    0.000    0.000    3.500 
#    0.000    0.000    0.000    0.000    0.000    0.000 
#
# Total GULP energy -594811.267285 kJ/mol
# GULP energy per Si atom -12391.901402 kJ/mol
# Density = 2.123282 g / cm^3
# Si number density = 21.281256 Si / 1000 Ang^3
#
#
#
# Elastic Constant Matrix: (Units=GPa)
#
#
# Indices 1 2 3 4 5 6 
#
# 1 103.3466 7.3894 17.2877 0.0000 0.0000 0.0000
# 2 7.3894 43.2425 8.6926 0.0000 0.0000 0.0000
# 3 17.2877 8.6926 52.8146 0.0000 0.0000 0.0000
# 4 0.0000 0.0000 0.0000 50.6365 0.0000 0.0000
# 5 0.0000 0.0000 0.0000 0.0000 15.1824 0.0000
# 6 0.0000 0.0000 0.0000 0.0000 0.0000 35.4163
#
#
#
# Elastic Compliance Matrix: (Units=1/GPa)
#
#
# Indices 1 2 3 4 5 6 
#
# 1 0.010289 -0.001118 -0.003184 0.000000 0.000000 0.000000
# 2 -0.001118 0.024038 -0.003590 0.000000 0.000000 0.000000
# 3 -0.003184 -0.003590 0.020567 0.000000 0.000000 0.000000
# 4 0.000000 0.000000 0.000000 0.019749 0.000000 0.000000
# 5 0.000000 0.000000 0.000000 0.000000 0.065866 0.000000
# 6 0.000000 0.000000 0.000000 0.000000 0.000000 0.028236
#
#
# Mechanical properties :
#
#
# Convention : Reuss Voigt Hill
#
# Bulk Modulus (GPa) = 25.56920 29.57146 27.57033
# Shear Modulus (GPa) = 25.30815 31.31599 28.31207
#
# Velocity S-wave (km/s) = 3.45225 3.84021 3.65139
# Velocity P-wave (km/s) = 5.28505 5.79558 5.54619
#
# Compressibility (1/GPa) = 0.03910955
#
# Stress axis : x y z
#
# Youngs Moduli (GPa) = 97.19402 41.60048 48.62113
#
# Poissons Ratio (x) = 0.04652 0.15480
# Poissons Ratio (y) = 0.10868 0.17457
# Poissons Ratio (z) = 0.30944 0.14936
#
# Static dielectric constant tensor:
#      x y z
#    x 3.821730 0.000000 0.000000 
#    y 0.000000 3.641870 0.000000 
#    z 0.000000 0.000000 4.260910 
# 
# 
# High freq. dielectric constant tensor:
#      x y z
#    x 1.809120 0.000000 0.000000 
#    y 0.000000 1.818700 0.000000 
#    z 0.000000 0.000000 1.838030 
# 
# From -- ./inp_files/41829.got.cif
#   From: 2010.03.12/outbox.cif.g09.slc.cpg/sg64_21_cif.got.tgz:41829.got - 2010.04.10 20:19:32.
