data_PCOD8263238
_publ_section_title
;
Structure prediction by ZEFSAII (Michael W. Deem and Ramdas Pophale) SiO2 
 PCOD8263238
Probable space group: C M C A
;
_chemical_formula_sum "Si O2"
_cell_formula_units_Z 80
_cell_length_a 15.676728
_cell_length_b 28.241695
_cell_length_c 9.155078
_cell_angle_alpha 90.000000
_cell_angle_beta 90.000000
_cell_angle_gamma 90.000000
_cell_volume 4053.295163
_symmetry_space_group_name_H-M "C M C A"
_symmetry_group_IT_number 64
_symmetry_cell_setting 'orthorhombic'
loop_
_space_group_symop_operation_xyz
x,y,z
-x,1/2-y,1/2+z
x,-y,-z
-x,1/2+y,1/2-z
-x,-y,-z
x,1/2+y,1/2-z
-x,y,z
x,1/2-y,1/2+z
1/2+x,1/2+y,z
1/2-x,-y,1/2+z
1/2+x,1/2-y,-z
1/2-x,y,1/2-z
1/2-x,1/2-y,-z
1/2+x,y,1/2-z
1/2-x,1/2+y,z
1/2+x,-y,1/2+z
loop_
_atom_site_type_symbol
_atom_site_label
_atom_site_fract_x
_atom_site_fract_y
_atom_site_fract_z
Si Si1 0.833726 0.220558 0.049535
Si Si2 0.654017 0.111272 0.088329
Si Si3 0.904829 0.791623 0.639808
Si Si4 0.659408 0.886916 0.566698
Si Si5 0.500000 0.548804 0.416759
Si Si6 0.500000 0.551628 0.067356
O O1 0.844729 0.221963 0.223930
O O2 0.839115 0.165757 0.998091
O O3 0.750000 0.250000 0.000000
O O4 0.911447 0.246849 0.968333
O O5 0.636779 0.165747 0.043106
O O6 0.645385 0.115328 0.261734
O O7 0.746055 0.091888 0.034400
O O8 0.583407 0.076106 0.025228
O O9 0.000000 0.805899 0.692867
O O10 0.583439 0.920184 0.506217
O O11 0.500000 0.500000 0.500000
O O12 0.500000 0.544543 0.241757
O O13 0.500000 0.500000 0.000000
#
# Coordination Sequence:
#
# PCOD8263238 Si02
#       6
#    16  16  16  16   8   8
#     4  11  21  35  56  85 117 156 196 238 283 344
#     4   9  17  34  56  84 108 146 190 237 279 353
#     4  11  21  34  55  84 120 155 198 233 287 350
#     4   9  19  34  58  81 110 151 195 229 281 348
#     4  10  20  36  61  84 106 134 187 250 299 334
#     4  10  22  40  61  80 110 152 197 240 293 362
#
# _framework density 19.737027999999999
#
# number of rings (size 3 to 8) (size 9 to 14) (size 15 to 20)
#    0.000    2.000    3.000    1.200    5.600    0.800 
#    0.000    2.000    0.000    0.000    0.000    0.000 
#    0.000    0.000    0.000    0.000    0.000    0.000 
#
# Total GULP energy -495600.434278 kJ/mol
# GULP energy per Si atom -12390.010857 kJ/mol
# Density = 1.969211 g / cm^3
# Si number density = 19.737028 Si / 1000 Ang^3
#
#
#
# Elastic Constant Matrix: (Units=GPa)
#
#
# Indices 1 2 3 4 5 6 
#
# 1 179.0472 87.9227 22.1148 0.0000 0.0000 0.0000
# 2 87.9227 164.8951 38.1102 0.0000 0.0000 0.0000
# 3 22.1148 38.1102 31.3446 0.0000 0.0000 0.0000
# 4 0.0000 0.0000 0.0000 33.9943 0.0000 0.0000
# 5 0.0000 0.0000 0.0000 0.0000 16.5977 0.0000
# 6 0.0000 0.0000 0.0000 0.0000 0.0000 34.3690
#
#
#
# Elastic Compliance Matrix: (Units=1/GPa)
#
#
# Indices 1 2 3 4 5 6 
#
# 1 0.007574 -0.003899 -0.000603 0.000000 0.000000 0.000000
# 2 -0.003899 0.010442 -0.009945 0.000000 0.000000 0.000000
# 3 -0.000603 -0.009945 0.044420 0.000000 0.000000 0.000000
# 4 0.000000 0.000000 0.000000 0.029417 0.000000 0.000000
# 5 0.000000 0.000000 0.000000 0.000000 0.060249 0.000000
# 6 0.000000 0.000000 0.000000 0.000000 0.000000 0.029096
#
#
# Mechanical properties :
#
#
# Convention : Reuss Voigt Hill
#
# Bulk Modulus (GPa) = 29.81304 74.62024 52.21664
# Shear Modulus (GPa) = 22.59645 32.13481 27.36563
#
# Velocity S-wave (km/s) = 3.38727 4.03941 3.72763
# Velocity P-wave (km/s) = 5.51689 7.72302 6.71123
#
# Compressibility (1/GPa) = 0.03354236
#
# Stress axis : x y z
#
# Youngs Moduli (GPa) = 132.02369 95.76703 22.51228
#
# Poissons Ratio (x) = 0.37343 0.01358
# Poissons Ratio (y) = 0.51480 0.22388
# Poissons Ratio (z) = 0.07962 0.95238
#
# Static dielectric constant tensor:
#      x y z
#    x 3.957390 0.000000 0.000000 
#    y 0.000000 3.686460 0.000000 
#    z 0.000000 0.000000 3.198600 
# 
# 
# High freq. dielectric constant tensor:
#      x y z
#    x 1.794480 0.000000 0.000000 
#    y 0.000000 1.767380 0.000000 
#    z 0.000000 0.000000 1.712120 
# 
# From -- ./inp_files/14742.got.cif
#   From: 2010.03.12/outbox.cif.g09.slc.cpg/sg64_8_cif.got.tgz:14742.got - 2010.04.10 20:19:32.
