data_PCOD8263890
_publ_section_title
;
Structure prediction by ZEFSAII (Michael W. Deem and Ramdas Pophale) SiO2 
 PCOD8263890
Probable space group: C M C A
;
_chemical_formula_sum "Si O2"
_cell_formula_units_Z 88
_cell_length_a 22.778581
_cell_length_b 15.531409
_cell_length_c 11.853155
_cell_angle_alpha 90.000000
_cell_angle_beta 90.000000
_cell_angle_gamma 90.000000
_cell_volume 4193.450164
_symmetry_space_group_name_H-M "C M C A"
_symmetry_group_IT_number 64
_symmetry_cell_setting 'orthorhombic'
loop_
_space_group_symop_operation_xyz
x,y,z
-x,1/2-y,1/2+z
x,-y,-z
-x,1/2+y,1/2-z
-x,-y,-z
x,1/2+y,1/2-z
-x,y,z
x,1/2-y,1/2+z
1/2+x,1/2+y,z
1/2-x,-y,1/2+z
1/2+x,1/2-y,-z
1/2-x,y,1/2-z
1/2-x,1/2-y,-z
1/2+x,y,1/2-z
1/2-x,1/2+y,z
1/2+x,-y,1/2+z
loop_
_atom_site_type_symbol
_atom_site_label
_atom_site_fract_x
_atom_site_fract_y
_atom_site_fract_z
Si Si1 0.658342 0.180935 0.477029
Si Si2 0.637036 0.071347 0.086941
Si Si3 0.778608 0.719283 0.135067
Si Si4 0.067997 0.316891 0.086879
Si Si5 0.112690 0.500000 0.500000
Si Si6 0.566540 0.462885 0.241699
O O1 0.720479 0.217272 0.439553
O O2 0.668072 0.212533 0.606869
O O3 0.604694 0.227835 0.412134
O O4 0.652968 0.079131 0.460548
O O5 0.692097 0.124878 0.132977
O O6 0.608010 0.031884 0.198535
O O7 0.588447 0.126328 0.019480
O O8 0.661618 0.000000 0.000000
O O9 0.750000 0.748113 0.250000
O O10 0.078198 0.368126 0.204711
O O11 0.000000 0.292573 0.070759
O O12 0.075186 0.464168 0.394084
O O13 0.500000 0.489668 0.267683
#
# Coordination Sequence:
#
# PCOD8263890 Si02
#       6
#    16  16  16  16   8  16
#     4  10  24  40  60  90 124 164 210 252 315 376
#     4   9  18  36  64  94 124 157 212 261 306 363
#     4  10  21  40  62  86 122 161 209 260 304 367
#     4   9  19  39  66  90 119 164 212 255 305 372
#     4  12  25  40  58  92 134 162 203 256 328 384
#     4  10  21  38  62  93 128 163 202 256 314 376
#
# _framework density 20.985106999999999
#
# number of rings (size 3 to 8) (size 9 to 14) (size 15 to 20)
#    0.000    2.182    0.000    1.909    3.818    3.636 
#    0.000    0.909    0.000    0.000    0.000    0.000 
#    0.000    0.000    0.000    0.000    0.000    0.000 
#
# Total GULP energy -545077.648604 kJ/mol
# GULP energy per Si atom -12388.128377 kJ/mol
# Density = 2.093734 g / cm^3
# Si number density = 20.985107 Si / 1000 Ang^3
#
#
#
# Elastic Constant Matrix: (Units=GPa)
#
#
# Indices 1 2 3 4 5 6 
#
# 1 118.0472 46.7892 30.8835 0.0000 0.0000 0.0000
# 2 46.7892 118.7557 27.2961 0.0000 0.0000 0.0000
# 3 30.8835 27.2961 108.3719 0.0000 0.0000 0.0000
# 4 0.0000 0.0000 0.0000 18.7969 0.0000 0.0000
# 5 0.0000 0.0000 0.0000 0.0000 23.0602 0.0000
# 6 0.0000 0.0000 0.0000 0.0000 0.0000 41.3821
#
#
#
# Elastic Compliance Matrix: (Units=1/GPa)
#
#
# Indices 1 2 3 4 5 6 
#
# 1 0.010455 -0.003646 -0.002061 0.000000 0.000000 0.000000
# 2 -0.003646 0.010209 -0.001533 0.000000 0.000000 0.000000
# 3 -0.002061 -0.001533 0.010201 0.000000 0.000000 0.000000
# 4 0.000000 0.000000 0.000000 0.053200 0.000000 0.000000
# 5 0.000000 0.000000 0.000000 0.000000 0.043365 0.000000
# 6 0.000000 0.000000 0.000000 0.000000 0.000000 0.024165
#
#
# Mechanical properties :
#
#
# Convention : Reuss Voigt Hill
#
# Bulk Modulus (GPa) = 61.02514 61.67916 61.35215
# Shear Modulus (GPa) = 29.14824 32.66156 30.90490
#
# Velocity S-wave (km/s) = 3.73097 3.94942 3.84175
# Velocity P-wave (km/s) = 6.90677 7.08893 6.99844
#
# Compressibility (1/GPa) = 0.01638669
#
# Stress axis : x y z
#
# Youngs Moduli (GPa) = 95.64392 97.95035 98.03034
#
# Poissons Ratio (x) = 0.35709 0.20207
# Poissons Ratio (y) = 0.34868 0.15024
# Poissons Ratio (z) = 0.19715 0.15011
#
# Static dielectric constant tensor:
#      x y z
#    x 3.682640 0.000000 0.000000 
#    y 0.000000 3.690190 0.000000 
#    z 0.000000 0.000000 3.560340 
# 
# 
# High freq. dielectric constant tensor:
#      x y z
#    x 1.824100 0.000000 0.000000 
#    y 0.000000 1.813310 0.000000 
#    z 0.000000 0.000000 1.824940 
# 
# From -- ./inp_files/18187.got.cif
#   From: 2010.03.12/outbox.cif.g09.slc.cpg/sg64_10_cif.got.tgz:18187.got - 2010.04.10 20:19:32.
