data_PCOD8263410
_publ_section_title
;
Structure prediction by ZEFSAII (Michael W. Deem and Ramdas Pophale) SiO2 
 PCOD8263410
Probable space group: C M C A
;
_chemical_formula_sum "Si O2"
_cell_formula_units_Z 80
_cell_length_a 25.825581
_cell_length_b 10.378851
_cell_length_c 13.198521
_cell_angle_alpha 90.000000
_cell_angle_beta 90.000000
_cell_angle_gamma 90.000000
_cell_volume 3537.729684
_symmetry_space_group_name_H-M "C M C A"
_symmetry_group_IT_number 64
_symmetry_cell_setting 'orthorhombic'
loop_
_space_group_symop_operation_xyz
x,y,z
-x,1/2-y,1/2+z
x,-y,-z
-x,1/2+y,1/2-z
-x,-y,-z
x,1/2+y,1/2-z
-x,y,z
x,1/2-y,1/2+z
1/2+x,1/2+y,z
1/2-x,-y,1/2+z
1/2+x,1/2-y,-z
1/2-x,y,1/2-z
1/2-x,1/2-y,-z
1/2+x,y,1/2-z
1/2-x,1/2+y,z
1/2+x,-y,1/2+z
loop_
_atom_site_type_symbol
_atom_site_label
_atom_site_fract_x
_atom_site_fract_y
_atom_site_fract_z
Si Si1 0.560173 0.074247 0.135679
Si Si2 0.114601 0.334116 0.042027
Si Si3 0.279197 0.946108 0.351363
Si Si4 0.862752 0.375699 0.705595
Si Si5 0.794317 0.329021 0.899743
O O1 0.500000 0.041057 0.139441
O O2 0.571842 0.182756 0.048867
O O3 0.579964 0.115818 0.245851
O O4 0.594494 0.948284 0.112726
O O5 0.167665 0.376075 0.987714
O O6 0.127031 0.209468 0.106968
O O7 0.250000 0.905918 0.250000
O O8 0.339241 0.986879 0.331290
O O9 0.252906 0.071206 0.401586
O O10 0.275870 0.818633 0.422237
O O11 0.822195 0.320421 0.788780
#
# Coordination Sequence:
#
# PCOD8263410 Si02
#       5
#    16  16  16  16  16
#     4  10  22  40  65  93 121 162 216 270 325 384
#     4  10  21  39  61  88 123 161 205 262 318 382
#     4  10  20  38  61  91 131 175 219 264 312 376
#     4  10  21  38  62  87 126 167 211 267 324 376
#     4  10  22  38  61  91 128 173 218 260 312 377
#
# _framework density 22.613372999999999
#
# number of rings (size 3 to 8) (size 9 to 14) (size 15 to 20)
#    0.000    2.000    0.000    4.200    0.000    9.600 
#    0.000   10.000    0.000    1.200    0.000   12.600 
#    0.000    0.000    0.000    0.000    0.000    0.000 
#
# Total GULP energy -495721.374963 kJ/mol
# GULP energy per Si atom -12393.034374 kJ/mol
# Density = 2.256190 g / cm^3
# Si number density = 22.613373 Si / 1000 Ang^3
#
#
#
# Elastic Constant Matrix: (Units=GPa)
#
#
# Indices 1 2 3 4 5 6 
#
# 1 115.8542 53.9787 33.2650 0.0000 0.0000 0.0000
# 2 53.9787 130.7302 37.0981 0.0000 0.0000 0.0000
# 3 33.2650 37.0981 59.6928 0.0000 0.0000 0.0000
# 4 0.0000 0.0000 0.0000 28.3950 0.0000 0.0000
# 5 0.0000 0.0000 0.0000 0.0000 15.2933 0.0000
# 6 0.0000 0.0000 0.0000 0.0000 0.0000 23.2294
#
#
#
# Elastic Compliance Matrix: (Units=1/GPa)
#
#
# Indices 1 2 3 4 5 6 
#
# 1 0.011492 -0.003555 -0.004195 0.000000 0.000000 0.000000
# 2 -0.003555 0.010387 -0.004474 0.000000 0.000000 0.000000
# 3 -0.004195 -0.004474 0.021871 0.000000 0.000000 0.000000
# 4 0.000000 0.000000 0.000000 0.035217 0.000000 0.000000
# 5 0.000000 0.000000 0.000000 0.000000 0.065388 0.000000
# 6 0.000000 0.000000 0.000000 0.000000 0.000000 0.043049
#
#
# Mechanical properties :
#
#
# Convention : Reuss Voigt Hill
#
# Bulk Modulus (GPa) = 51.80863 61.66232 56.73547
# Shear Modulus (GPa) = 22.90563 25.51254 24.20909
#
# Velocity S-wave (km/s) = 3.18610 3.36252 3.27550
# Velocity P-wave (km/s) = 6.04114 6.51173 6.28084
#
# Compressibility (1/GPa) = 0.01930180
#
# Stress axis : x y z
#
# Youngs Moduli (GPa) = 87.01491 96.27613 45.72275
#
# Poissons Ratio (x) = 0.34223 0.19181
# Poissons Ratio (y) = 0.30931 0.20458
# Poissons Ratio (z) = 0.36504 0.43077
#
# Static dielectric constant tensor:
#      x y z
#    x 3.978880 0.000000 0.000000 
#    y 0.000000 3.921360 0.000000 
#    z 0.000000 0.000000 4.252310 
# 
# 
# High freq. dielectric constant tensor:
#      x y z
#    x 1.874740 0.000000 0.000000 
#    y 0.000000 1.878180 0.000000 
#    z 0.000000 0.000000 1.905350 
# 
# From -- ./inp_files/27076.got.cif
#   From: 2010.03.12/outbox.cif.g09.slc.cpg/sg64_14_cif.got.tgz:27076.got - 2010.04.10 20:19:32.
