data_PCOD8263932
_publ_section_title
;
Structure prediction by ZEFSAII (Michael W. Deem and Ramdas Pophale) SiO2 
 PCOD8263932
Probable space group: C M C A
;
_chemical_formula_sum "Si O2"
_cell_formula_units_Z 64
_cell_length_a 25.456300
_cell_length_b 15.369543
_cell_length_c 8.718336
_cell_angle_alpha 90.000000
_cell_angle_beta 90.000000
_cell_angle_gamma 90.000000
_cell_volume 3411.063759
_symmetry_space_group_name_H-M "C M C A"
_symmetry_group_IT_number 64
_symmetry_cell_setting 'orthorhombic'
loop_
_space_group_symop_operation_xyz
x,y,z
-x,1/2-y,1/2+z
x,-y,-z
-x,1/2+y,1/2-z
-x,-y,-z
x,1/2+y,1/2-z
-x,y,z
x,1/2-y,1/2+z
1/2+x,1/2+y,z
1/2-x,-y,1/2+z
1/2+x,1/2-y,-z
1/2-x,y,1/2-z
1/2-x,1/2-y,-z
1/2+x,y,1/2-z
1/2-x,1/2+y,z
1/2+x,-y,1/2+z
loop_
_atom_site_type_symbol
_atom_site_label
_atom_site_fract_x
_atom_site_fract_y
_atom_site_fract_z
Si Si1 0.441398 0.062238 0.644613
Si Si2 0.651254 0.509116 0.678799
Si Si3 0.846601 0.826658 0.141801
Si Si4 0.307596 0.667388 0.191810
O O1 0.500000 0.089169 0.697392
O O2 0.411358 0.011198 0.782677
O O3 0.407249 0.148195 0.600404
O O4 0.444102 0.000000 0.500000
O O5 0.661597 0.500000 0.500000
O O6 0.676899 0.598730 0.743987
O O7 0.678693 0.430754 0.766641
O O8 0.847630 0.734009 0.226412
O O9 0.810934 0.821860 0.990662
O O10 0.250000 0.692234 0.250000
#
# Coordination Sequence:
#
# PCOD8263932 Si02
#       4
#    16  16  16  16
#     4   9  18  40  67  84 117 160 197 251 308 347
#     4  10  21  39  61  88 124 156 202 253 296 364
#     4  10  22  41  57  89 125 150 211 253 294 370
#     4  12  23  38  61  87 119 165 199 251 306 358
#
# _framework density 18.762474999999998
#
# number of rings (size 3 to 8) (size 9 to 14) (size 15 to 20)
#    1.500    0.250    2.500    3.000    0.000    3.500 
#    0.000    2.500    0.000    0.000    0.000    0.000 
#    0.000    0.000    0.000    0.000    0.000    0.000 
#
# Total GULP energy -396578.643228 kJ/mol
# GULP energy per Si atom -12393.082601 kJ/mol
# Density = 1.871977 g / cm^3
# Si number density = 18.762475 Si / 1000 Ang^3
#
#
#
# Elastic Constant Matrix: (Units=GPa)
#
#
# Indices 1 2 3 4 5 6 
#
# 1 90.3037 16.5946 19.8946 0.0000 0.0000 0.0000
# 2 16.5946 72.4253 15.2218 0.0000 0.0000 0.0000
# 3 19.8946 15.2218 125.7257 0.0000 0.0000 0.0000
# 4 0.0000 0.0000 0.0000 38.6315 0.0000 0.0000
# 5 0.0000 0.0000 0.0000 0.0000 16.0115 0.0000
# 6 0.0000 0.0000 0.0000 0.0000 0.0000 13.7647
#
#
#
# Elastic Compliance Matrix: (Units=1/GPa)
#
#
# Indices 1 2 3 4 5 6 
#
# 1 0.011862 -0.002384 -0.001588 0.000000 0.000000 0.000000
# 2 -0.002384 0.014647 -0.001396 0.000000 0.000000 0.000000
# 3 -0.001588 -0.001396 0.008374 0.000000 0.000000 0.000000
# 4 0.000000 0.000000 0.000000 0.025886 0.000000 0.000000
# 5 0.000000 0.000000 0.000000 0.000000 0.062455 0.000000
# 6 0.000000 0.000000 0.000000 0.000000 0.000000 0.072650
#
#
# Mechanical properties :
#
#
# Convention : Reuss Voigt Hill
#
# Bulk Modulus (GPa) = 41.41467 43.54184 42.47826
# Shear Modulus (GPa) = 23.29275 29.46445 26.37860
#
# Velocity S-wave (km/s) = 3.52725 3.96712 3.75363
# Velocity P-wave (km/s) = 6.22171 6.65141 6.44015
#
# Compressibility (1/GPa) = 0.02414603
#
# Stress axis : x y z
#
# Youngs Moduli (GPa) = 84.30445 68.27339 119.41456
#
# Poissons Ratio (x) = 0.16277 0.18967
# Poissons Ratio (y) = 0.20098 0.16671
# Poissons Ratio (z) = 0.13391 0.09532
#
# Static dielectric constant tensor:
#      x y z
#    x 3.435200 0.000000 0.000000 
#    y 0.000000 3.413150 0.000000 
#    z 0.000000 0.000000 3.421310 
# 
# 
# High freq. dielectric constant tensor:
#      x y z
#    x 1.711580 0.000000 0.000000 
#    y 0.000000 1.728050 0.000000 
#    z 0.000000 0.000000 1.731370 
# 
# From -- ./inp_files/8958.got.cif
#   From: 2010.03.12/outbox.cif.g09.slc.cpg/sg64_5_cif.got.tgz:8958.got - 2010.04.10 20:19:32.
