data_PCOD8263225
_publ_section_title
;
Structure prediction by ZEFSAII (Michael W. Deem and Ramdas Pophale) SiO2 
 PCOD8263225
Probable space group: C M C A
;
_chemical_formula_sum "Si O2"
_cell_formula_units_Z 72
_cell_length_a 26.309634
_cell_length_b 8.910162
_cell_length_c 14.634278
_cell_angle_alpha 90.000000
_cell_angle_beta 90.000000
_cell_angle_gamma 90.000000
_cell_volume 3430.612831
_symmetry_space_group_name_H-M "C M C A"
_symmetry_group_IT_number 64
_symmetry_cell_setting 'orthorhombic'
loop_
_space_group_symop_operation_xyz
x,y,z
-x,1/2-y,1/2+z
x,-y,-z
-x,1/2+y,1/2-z
-x,-y,-z
x,1/2+y,1/2-z
-x,y,z
x,1/2-y,1/2+z
1/2+x,1/2+y,z
1/2-x,-y,1/2+z
1/2+x,1/2-y,-z
1/2-x,y,1/2-z
1/2-x,1/2-y,-z
1/2+x,y,1/2-z
1/2-x,1/2+y,z
1/2+x,-y,1/2+z
loop_
_atom_site_type_symbol
_atom_site_label
_atom_site_fract_x
_atom_site_fract_y
_atom_site_fract_z
Si Si1 0.254895 0.500000 0.500000
Si Si2 0.888232 0.785859 0.122217
Si Si3 0.179930 0.758115 0.945180
Si Si4 0.000000 0.560248 0.281825
Si Si5 0.500000 0.740172 0.872711
Si Si6 0.890628 0.111657 0.197485
O O1 0.220234 0.393646 0.563076
O O2 0.290453 0.398693 0.434557
O O3 0.882224 0.651055 0.195575
O O4 0.945710 0.784822 0.076048
O O5 0.875297 0.940798 0.174505
O O6 0.847855 0.763809 0.042796
O O7 0.140297 0.770601 0.863382
O O8 0.000000 0.380448 0.289241
O O9 0.950035 0.632092 0.328334
O O10 0.000000 0.595715 0.173279
#
# Coordination Sequence:
#
# PCOD8263225 Si02
#       6
#     8  16  16   8   8  16
#     4  10  24  42  62  78 112 148 186 254 290 322
#     4  10  20  36  60  88 117 151 187 226 278 341
#     4  11  22  43  61  80 113 148 192 236 293 330
#     4   8  16  31  53  84 119 147 179 224 270 328
#     4   8  16  31  53  84 119 147 179 224 270 328
#     4  10  20  36  60  88 117 151 187 226 278 341
#
# _framework density 20.987504000000001
#
# number of rings (size 3 to 8) (size 9 to 14) (size 15 to 20)
#    0.000    2.222    2.222    0.000    3.111    0.889 
#    0.000   10.000    0.000    1.333    0.000    0.000 
#    0.000    0.000    0.000    0.000    0.000    0.000 
#
# Total GULP energy -446020.906320 kJ/mol
# GULP energy per Si atom -12389.469620 kJ/mol
# Density = 2.093974 g / cm^3
# Si number density = 20.987504 Si / 1000 Ang^3
#
#
#
# Elastic Constant Matrix: (Units=GPa)
#
#
# Indices 1 2 3 4 5 6 
#
# 1 113.5515 39.5114 44.7023 0.0000 0.0000 0.0000
# 2 39.5114 75.2775 13.4897 0.0000 0.0000 0.0000
# 3 44.7023 13.4897 67.9561 0.0000 0.0000 0.0000
# 4 0.0000 0.0000 0.0000 20.3118 0.0000 0.0000
# 5 0.0000 0.0000 0.0000 0.0000 22.6549 0.0000
# 6 0.0000 0.0000 0.0000 0.0000 0.0000 26.5854
#
#
#
# Elastic Compliance Matrix: (Units=1/GPa)
#
#
# Indices 1 2 3 4 5 6 
#
# 1 0.014042 -0.005926 -0.008061 0.000000 0.000000 0.000000
# 2 -0.005926 0.016275 0.000667 0.000000 0.000000 0.000000
# 3 -0.008061 0.000667 0.019885 0.000000 0.000000 0.000000
# 4 0.000000 0.000000 0.000000 0.049232 0.000000 0.000000
# 5 0.000000 0.000000 0.000000 0.000000 0.044141 0.000000
# 6 0.000000 0.000000 0.000000 0.000000 0.000000 0.037615
#
#
# Mechanical properties :
#
#
# Convention : Reuss Voigt Hill
#
# Bulk Modulus (GPa) = 42.43759 50.24356 46.34058
# Shear Modulus (GPa) = 23.18229 24.51586 23.84907
#
# Velocity S-wave (km/s) = 3.32712 3.42148 3.37463
# Velocity P-wave (km/s) = 5.91810 6.29289 6.10837
#
# Compressibility (1/GPa) = 0.02356401
#
# Stress axis : x y z
#
# Youngs Moduli (GPa) = 71.21638 61.44440 50.28861
#
# Poissons Ratio (x) = 0.36410 0.40535
# Poissons Ratio (y) = 0.42201 -0.03356
# Poissons Ratio (z) = 0.57404 -0.04100
#
# Static dielectric constant tensor:
#      x y z
#    x 4.210650 0.000000 0.000000 
#    y 0.000000 3.918100 0.000000 
#    z 0.000000 0.000000 3.209430 
# 
# 
# High freq. dielectric constant tensor:
#      x y z
#    x 1.845280 0.000000 0.000000 
#    y 0.000000 1.827370 0.000000 
#    z 0.000000 0.000000 1.765200 
# 
# From -- ./inp_files/9165.got.cif
#   From: 2010.03.12/outbox.cif.g09.slc.cpg/sg64_5_cif.got.tgz:9165.got - 2010.04.10 20:19:32.
