data_PCOD8263098
_publ_section_title
;
Structure prediction by ZEFSAII (Michael W. Deem and Ramdas Pophale) SiO2 
 PCOD8263098
Probable space group: C M C A
;
_chemical_formula_sum "Si O2"
_cell_formula_units_Z 104
_cell_length_a 10.033616
_cell_length_b 18.839872
_cell_length_c 29.137139
_cell_angle_alpha 90.000000
_cell_angle_beta 90.000000
_cell_angle_gamma 90.000000
_cell_volume 5507.852858
_symmetry_space_group_name_H-M "C M C A"
_symmetry_group_IT_number 64
_symmetry_cell_setting 'orthorhombic'
loop_
_space_group_symop_operation_xyz
x,y,z
-x,1/2-y,1/2+z
x,-y,-z
-x,1/2+y,1/2-z
-x,-y,-z
x,1/2+y,1/2-z
-x,y,z
x,1/2-y,1/2+z
1/2+x,1/2+y,z
1/2-x,-y,1/2+z
1/2+x,1/2-y,-z
1/2-x,y,1/2-z
1/2-x,1/2-y,-z
1/2+x,y,1/2-z
1/2-x,1/2+y,z
1/2+x,-y,1/2+z
loop_
_atom_site_type_symbol
_atom_site_label
_atom_site_fract_x
_atom_site_fract_y
_atom_site_fract_z
Si Si1 0.155453 0.997095 0.290046
Si Si2 0.349448 0.351574 0.680138
Si Si3 0.846662 0.922406 0.502681
Si Si4 0.160473 0.307636 0.069851
Si Si5 0.655688 0.816078 0.919522
Si Si6 0.650601 0.352631 0.332928
Si Si7 0.750000 0.758795 0.250000
O O1 0.250000 0.969513 0.250000
O O2 0.175102 0.936934 0.328565
O O3 0.000000 0.001574 0.274486
O O4 0.215208 0.073101 0.305763
O O5 0.500000 0.370213 0.668412
O O6 0.286929 0.324681 0.632424
O O7 0.345103 0.293326 0.720702
O O8 0.790221 0.869733 0.463928
O O9 0.828500 0.890292 0.553587
O O10 0.000000 0.932895 0.490216
O O11 0.775976 0.000000 0.500000
O O12 0.245488 0.238716 0.055190
O O13 0.220512 0.326270 0.120593
O O14 0.000000 0.293876 0.066472
O O15 0.500000 0.791016 0.920883
O O16 0.500000 0.337299 0.344262
O O17 0.679086 0.309177 0.286516
#
# Coordination Sequence:
#
# PCOD8263098 Si02
#       7
#    16  16  16  16  16  16   8
#     4  10  20  36  52  73 103 143 181 220 266 313
#     4  10  21  33  52  77 107 142 178 221 265 315
#     4   9  19  34  57  85 110 137 176 224 268 315
#     4  10  20  36  56  82 108 140 178 219 268 317
#     4  10  20  36  56  82 108 140 178 219 268 317
#     4  10  21  33  52  77 107 142 178 221 265 315
#     4  12  18  34  52  76 112 138 182 216 270 312
#
# _framework density 18.882131000000001
#
# number of rings (size 3 to 8) (size 9 to 14) (size 15 to 20)
#    0.000    2.000    3.077    0.923    2.154    0.000 
#    0.000    1.538    0.000    1.846    0.000    0.000 
#    0.000    0.000    0.000    0.000    0.000    0.000 
#
# Total GULP energy -644227.268897 kJ/mol
# GULP energy per Si atom -12388.985940 kJ/mol
# Density = 1.883915 g / cm^3
# Si number density = 18.882131 Si / 1000 Ang^3
#
#
#
# Elastic Constant Matrix: (Units=GPa)
#
#
# Indices 1 2 3 4 5 6 
#
# 1 41.8767 29.3793 12.1674 0.0000 0.0000 0.0000
# 2 29.3793 120.5030 34.1894 0.0000 0.0000 0.0000
# 3 12.1674 34.1894 101.9607 0.0000 0.0000 0.0000
# 4 0.0000 0.0000 0.0000 49.7058 0.0000 0.0000
# 5 0.0000 0.0000 0.0000 0.0000 14.6915 0.0000
# 6 0.0000 0.0000 0.0000 0.0000 0.0000 23.4903
#
#
#
# Elastic Compliance Matrix: (Units=1/GPa)
#
#
# Indices 1 2 3 4 5 6 
#
# 1 0.028940 -0.006715 -0.001202 0.000000 0.000000 0.000000
# 2 -0.006715 0.010729 -0.002796 0.000000 0.000000 0.000000
# 3 -0.001202 -0.002796 0.010889 0.000000 0.000000 0.000000
# 4 0.000000 0.000000 0.000000 0.020118 0.000000 0.000000
# 5 0.000000 0.000000 0.000000 0.000000 0.068067 0.000000
# 6 0.000000 0.000000 0.000000 0.000000 0.000000 0.042571
#
#
# Mechanical properties :
#
#
# Convention : Reuss Voigt Hill
#
# Bulk Modulus (GPa) = 34.32702 46.20141 40.26422
# Shear Modulus (GPa) = 23.53501 30.15114 26.84307
#
# Velocity S-wave (km/s) = 3.53429 4.00034 3.77452
# Velocity P-wave (km/s) = 5.90543 6.77189 6.35344
#
# Compressibility (1/GPa) = 0.02913157
#
# Stress axis : x y z
#
# Youngs Moduli (GPa) = 34.55469 93.20537 91.83744
#
# Poissons Ratio (x) = 0.62584 0.11038
# Poissons Ratio (y) = 0.23202 0.25681
# Poissons Ratio (z) = 0.04153 0.26064
#
# Static dielectric constant tensor:
#      x y z
#    x 3.059310 0.000000 0.000000 
#    y 0.000000 3.670450 0.000000 
#    z 0.000000 0.000000 3.545680 
# 
# 
# High freq. dielectric constant tensor:
#      x y z
#    x 1.688070 0.000000 0.000000 
#    y 0.000000 1.747690 0.000000 
#    z 0.000000 0.000000 1.744090 
# 
# From -- ./inp_files/52914.got.cif
#   From: 2010.03.12/outbox.cif.g09.slc.cpg/sg64_27_cif.got.tgz:52914.got - 2010.04.10 20:19:32.
