data_PCOD8263161
_publ_section_title
;
Structure prediction by ZEFSAII (Michael W. Deem and Ramdas Pophale) SiO2 
 PCOD8263161
Probable space group: C M C A
;
_chemical_formula_sum "Si O2"
_cell_formula_units_Z 96
_cell_length_a 8.291858
_cell_length_b 23.538170
_cell_length_c 23.814946
_cell_angle_alpha 90.000000
_cell_angle_beta 90.000000
_cell_angle_gamma 90.000000
_cell_volume 4648.085973
_symmetry_space_group_name_H-M "C M C A"
_symmetry_group_IT_number 64
_symmetry_cell_setting 'orthorhombic'
loop_
_space_group_symop_operation_xyz
x,y,z
-x,1/2-y,1/2+z
x,-y,-z
-x,1/2+y,1/2-z
-x,-y,-z
x,1/2+y,1/2-z
-x,y,z
x,1/2-y,1/2+z
1/2+x,1/2+y,z
1/2-x,-y,1/2+z
1/2+x,1/2-y,-z
1/2-x,y,1/2-z
1/2-x,1/2-y,-z
1/2+x,y,1/2-z
1/2-x,1/2+y,z
1/2+x,-y,1/2+z
loop_
_atom_site_type_symbol
_atom_site_label
_atom_site_fract_x
_atom_site_fract_y
_atom_site_fract_z
Si Si1 0.812866 0.418299 0.690066
Si Si2 0.185538 0.517446 0.088594
Si Si3 0.809955 0.689904 0.137172
Si Si4 0.191024 0.693461 0.813769
Si Si5 0.691739 0.608081 0.592777
Si Si6 0.309055 0.873460 0.971528
O O1 0.750000 0.436566 0.750000
O O2 0.704406 0.456105 0.649660
O O3 0.781065 0.351644 0.680020
O O4 0.000000 0.432485 0.682343
O O5 0.268418 0.455191 0.088445
O O6 0.260632 0.563517 0.044788
O O7 0.000000 0.508154 0.073607
O O8 0.763691 0.752893 0.154212
O O9 0.751533 0.674566 0.073198
O O10 0.000000 0.680851 0.143798
O O11 0.250000 0.686895 0.750000
O O12 0.253644 0.640263 0.851323
O O13 0.000000 0.698617 0.813468
O O14 0.500000 0.605068 0.596385
O O15 0.745111 0.641229 0.535294
O O16 0.500000 0.877651 0.967350
#
# Coordination Sequence:
#
# PCOD8263161 Si02
#       6
#    16  16  16  16  16  16
#     4  11  21  34  53  78 108 140 179 226 275 322
#     4   9  17  32  55  82 111 143 179 218 263 317
#     4  10  20  36  58  82 107 136 175 222 273 325
#     4  11  23  38  55  76 107 145 185 224 265 314
#     4   9  18  33  55  82 110 144 182 218 259 314
#     4   8  15  30  56  86 110 135 173 219 266 319
#
# _framework density 20.653663999999999
#
# number of rings (size 3 to 8) (size 9 to 14) (size 15 to 20)
#    0.000    2.333    0.000    4.500    0.000    3.333 
#    0.000    3.333    0.000   18.000    0.000    0.000 
#    0.000    0.000    0.000    0.000    0.000    0.000 
#
# Total GULP energy -594793.791523 kJ/mol
# GULP energy per Si atom -12391.537323 kJ/mol
# Density = 2.060665 g / cm^3
# Si number density = 20.653664 Si / 1000 Ang^3
#
#
#
# Elastic Constant Matrix: (Units=GPa)
#
#
# Indices 1 2 3 4 5 6 
#
# 1 33.0533 3.4175 5.7042 0.0000 0.0000 0.0000
# 2 3.4175 100.2025 73.4667 0.0000 0.0000 0.0000
# 3 5.7042 73.4667 161.3190 0.0000 0.0000 0.0000
# 4 0.0000 0.0000 0.0000 12.9392 0.0000 0.0000
# 5 0.0000 0.0000 0.0000 0.0000 14.6007 0.0000
# 6 0.0000 0.0000 0.0000 0.0000 0.0000 17.2909
#
#
#
# Elastic Compliance Matrix: (Units=1/GPa)
#
#
# Indices 1 2 3 4 5 6 
#
# 1 0.030449 -0.000374 -0.000906 0.000000 0.000000 0.000000
# 2 -0.000374 0.014987 -0.006812 0.000000 0.000000 0.000000
# 3 -0.000906 -0.006812 0.009333 0.000000 0.000000 0.000000
# 4 0.000000 0.000000 0.000000 0.077285 0.000000 0.000000
# 5 0.000000 0.000000 0.000000 0.000000 0.068490 0.000000
# 6 0.000000 0.000000 0.000000 0.000000 0.000000 0.057834
#
#
# Mechanical properties :
#
#
# Convention : Reuss Voigt Hill
#
# Bulk Modulus (GPa) = 25.91698 51.08351 38.50024
# Shear Modulus (GPa) = 17.39587 23.09857 20.24722
#
# Velocity S-wave (km/s) = 2.90533 3.34784 3.13440
# Velocity P-wave (km/s) = 4.88162 6.30326 5.63743
#
# Compressibility (1/GPa) = 0.03858474
#
# Stress axis : x y z
#
# Youngs Moduli (GPa) = 32.84152 66.72441 107.14395
#
# Poissons Ratio (x) = 0.02495 0.09711
# Poissons Ratio (y) = 0.01228 0.72987
# Poissons Ratio (z) = 0.02977 0.45453
#
# Static dielectric constant tensor:
#      x y z
#    x 3.398050 0.000000 0.000000 
#    y 0.000000 3.867940 0.000000 
#    z 0.000000 0.000000 4.001850 
# 
# 
# High freq. dielectric constant tensor:
#      x y z
#    x 1.770320 0.000000 0.000000 
#    y 0.000000 1.801870 0.000000 
#    z 0.000000 0.000000 1.822660 
# 
# From -- ./inp_files/43053.got.cif
#   From: 2010.03.12/outbox.cif.g09.slc.cpg/sg64_22_cif.got.tgz:43053.got - 2010.04.10 20:19:32.
