data_PCOD8263000
_publ_section_title
;
Structure prediction by ZEFSAII (Michael W. Deem and Ramdas Pophale) SiO2 
 PCOD8263000
Probable space group: C M C A
;
_chemical_formula_sum "Si O2"
_cell_formula_units_Z 80
_cell_length_a 8.837941
_cell_length_b 18.982658
_cell_length_c 25.741768
_cell_angle_alpha 90.000000
_cell_angle_beta 90.000000
_cell_angle_gamma 90.000000
_cell_volume 4318.634931
_symmetry_space_group_name_H-M "C M C A"
_symmetry_group_IT_number 64
_symmetry_cell_setting 'orthorhombic'
loop_
_space_group_symop_operation_xyz
x,y,z
-x,1/2-y,1/2+z
x,-y,-z
-x,1/2+y,1/2-z
-x,-y,-z
x,1/2+y,1/2-z
-x,y,z
x,1/2-y,1/2+z
1/2+x,1/2+y,z
1/2-x,-y,1/2+z
1/2+x,1/2-y,-z
1/2-x,y,1/2-z
1/2-x,1/2-y,-z
1/2+x,y,1/2-z
1/2-x,1/2+y,z
1/2+x,-y,1/2+z
loop_
_atom_site_type_symbol
_atom_site_label
_atom_site_fract_x
_atom_site_fract_y
_atom_site_fract_z
Si Si1 0.833660 0.083097 0.494989
Si Si2 0.825739 0.671179 0.696682
Si Si3 0.679374 0.420411 0.391280
Si Si4 0.677859 0.427755 0.891750
Si Si5 0.325405 0.162907 0.196565
O O1 0.775718 0.109699 0.551413
O O2 0.719031 0.102794 0.448892
O O3 0.000000 0.114654 0.481899
O O4 0.848024 0.000000 0.500000
O O5 0.750000 0.645204 0.750000
O O6 0.740440 0.635187 0.649418
O O7 0.806401 0.754065 0.689687
O O8 0.000000 0.648069 0.697198
O O9 0.500000 0.428229 0.386612
O O10 0.750019 0.496580 0.380640
O O11 0.500000 0.434729 0.887041
O O12 0.738209 0.372686 0.850363
O O13 0.500000 0.139914 0.196615
O O14 0.250000 0.137155 0.250000
#
# Coordination Sequence:
#
# PCOD8263000 Si02
#       5
#    16  16  16  16  16
#     4   8  16  32  52  75 105 140 173 211 262 310
#     4  10  21  37  57  79 105 138 175 216 263 315
#     4  10  20  35  56  80 108 140 175 216 261 310
#     4  11  21  33  54  82 109 138 176 218 259 309
#     4  10  21  38  57  77 105 139 175 216 264 315
#
# _framework density 18.524370999999999
#
# number of rings (size 3 to 8) (size 9 to 14) (size 15 to 20)
#    0.000    2.200    0.000    4.800    0.000    7.600 
#    0.000    5.000    0.000    0.000    0.000    0.000 
#    0.000    0.000    0.000    0.000    0.000    0.000 
#
# Total GULP energy -495976.084585 kJ/mol
# GULP energy per Si atom -12399.402115 kJ/mol
# Density = 1.848221 g / cm^3
# Si number density = 18.524371 Si / 1000 Ang^3
#
#
#
# Elastic Constant Matrix: (Units=GPa)
#
#
# Indices 1 2 3 4 5 6 
#
# 1 142.8546 36.0371 79.8253 0.0000 0.0000 0.0000
# 2 36.0371 29.1183 43.6424 0.0000 0.0000 0.0000
# 3 79.8253 43.6424 166.4762 0.0000 0.0000 0.0000
# 4 0.0000 0.0000 0.0000 197.5043 0.0000 0.0000
# 5 0.0000 0.0000 0.0000 0.0000 36.6267 0.0000
# 6 0.0000 0.0000 0.0000 0.0000 0.0000 28.3470
#
#
#
# Elastic Compliance Matrix: (Units=1/GPa)
#
#
# Indices 1 2 3 4 5 6 
#
# 1 0.010910 -0.009326 -0.002786 0.000000 0.000000 0.000000
# 2 -0.009326 0.064542 -0.012448 0.000000 0.000000 0.000000
# 3 -0.002786 -0.012448 0.010606 0.000000 0.000000 0.000000
# 4 0.000000 0.000000 0.000000 0.005063 0.000000 0.000000
# 5 0.000000 0.000000 0.000000 0.000000 0.027303 0.000000
# 6 0.000000 0.000000 0.000000 0.000000 0.000000 0.035277
#
#
# Mechanical properties :
#
#
# Convention : Reuss Voigt Hill
#
# Bulk Modulus (GPa) = 27.07313 73.05098 50.06205
# Shear Modulus (GPa) = 23.24143 64.42520 43.83332
#
# Velocity S-wave (km/s) = 3.54593 5.90374 4.86969
# Velocity P-wave (km/s) = 5.60459 9.27323 7.66173
#
# Compressibility (1/GPa) = 0.03693700
#
# Stress axis : x y z
#
# Youngs Moduli (GPa) = 91.66176 15.49390 94.28363
#
# Poissons Ratio (x) = 0.14449 0.26272
# Poissons Ratio (y) = 0.85481 1.17366
# Poissons Ratio (z) = 0.25541 0.19287
#
# Static dielectric constant tensor:
#      x y z
#    x 3.574820 0.000000 0.000000 
#    y 0.000000 3.089650 0.000000 
#    z 0.000000 0.000000 3.928230 
# 
# 
# High freq. dielectric constant tensor:
#      x y z
#    x 1.732240 0.000000 0.000000 
#    y 0.000000 1.686960 0.000000 
#    z 0.000000 0.000000 1.737800 
# 
# From -- ./inp_files/47802.got.cif
#   From: 2010.03.12/outbox.cif.g09.slc.cpg/sg64_24_cif.got.tgz:47802.got - 2010.04.10 20:19:32.
