data_PCOD8263049
_publ_section_title
;
Structure prediction by ZEFSAII (Michael W. Deem and Ramdas Pophale) SiO2 
 PCOD8263049
Probable space group: C M C A
;
_chemical_formula_sum "Si O2"
_cell_formula_units_Z 96
_cell_length_a 16.850937
_cell_length_b 29.792031
_cell_length_c 9.226211
_cell_angle_alpha 90.000000
_cell_angle_beta 90.000000
_cell_angle_gamma 90.000000
_cell_volume 4631.776006
_symmetry_space_group_name_H-M "C M C A"
_symmetry_group_IT_number 64
_symmetry_cell_setting 'orthorhombic'
loop_
_space_group_symop_operation_xyz
x,y,z
-x,1/2-y,1/2+z
x,-y,-z
-x,1/2+y,1/2-z
-x,-y,-z
x,1/2+y,1/2-z
-x,y,z
x,1/2-y,1/2+z
1/2+x,1/2+y,z
1/2-x,-y,1/2+z
1/2+x,1/2-y,-z
1/2-x,y,1/2-z
1/2-x,1/2-y,-z
1/2+x,y,1/2-z
1/2-x,1/2+y,z
1/2+x,-y,1/2+z
loop_
_atom_site_type_symbol
_atom_site_label
_atom_site_fract_x
_atom_site_fract_y
_atom_site_fract_z
Si Si1 0.094121 0.205600 0.293865
Si Si2 0.406023 0.376425 0.206435
Si Si3 0.405053 0.791252 0.467285
Si Si4 0.093284 0.526581 0.636654
Si Si5 0.679761 0.971827 0.862459
Si Si6 0.406262 0.617277 0.462498
O O1 0.127975 0.208336 0.130944
O O2 0.128100 0.247054 0.387146
O O3 0.120937 0.159015 0.364775
O O4 0.000000 0.208846 0.291334
O O5 0.500000 0.376790 0.191892
O O6 0.370752 0.422953 0.141793
O O7 0.381849 0.371114 0.373591
O O8 0.370832 0.334950 0.115426
O O9 0.500000 0.791652 0.466301
O O10 0.130291 0.500000 0.500000
O O11 0.111911 0.501334 0.785694
O O12 0.000000 0.530007 0.619918
O O13 0.750000 0.963119 0.750000
O O14 0.642239 0.925156 0.908757
O O15 0.711315 0.000000 0.000000
O O16 0.500000 0.607493 0.448676
#
# Coordination Sequence:
#
# PCOD8263049 Si02
#       6
#    16  16  16  16  16  16
#     4   9  17  28  47  78 115 151 183 225 277 333
#     4   9  17  30  50  78 111 147 182 226 280 332
#     4   9  16  27  45  75 117 152 181 222 277 334
#     4  10  21  36  58  86 116 147 186 236 287 340
#     4  12  25  42  59  80 112 153 193 239 288 348
#     4  10  20  35  58  85 112 146 190 235 285 339
#
# _framework density 20.726392000000001
#
# number of rings (size 3 to 8) (size 9 to 14) (size 15 to 20)
#    0.000    2.167    1.667    2.000    2.333    4.667 
#    0.000    0.000    0.000    0.000    0.000    5.833 
#    0.000    0.000    0.000    0.000    0.000    0.000 
#
# Total GULP energy -595179.408000 kJ/mol
# GULP energy per Si atom -12399.571000 kJ/mol
# Density = 2.067922 g / cm^3
# Si number density = 20.726392 Si / 1000 Ang^3
#
#
#
# Elastic Constant Matrix: (Units=GPa)
#
#
# Indices 1 2 3 4 5 6 
#
# 1 18.0168 30.4456 30.0481 0.0000 0.0000 0.0000
# 2 30.4456 211.1120 115.4852 0.0000 0.0000 0.0000
# 3 30.0481 115.4852 192.2482 0.0000 0.0000 0.0000
# 4 0.0000 0.0000 0.0000 51.4215 0.0000 0.0000
# 5 0.0000 0.0000 0.0000 0.0000 2.1305 0.0000
# 6 0.0000 0.0000 0.0000 0.0000 0.0000 5.6352
#
#
#
# Elastic Compliance Matrix: (Units=1/GPa)
#
#
# Indices 1 2 3 4 5 6 
#
# 1 0.081724 -0.007147 -0.008480 0.000000 0.000000 0.000000
# 2 -0.007147 0.007680 -0.003497 0.000000 0.000000 0.000000
# 3 -0.008480 -0.003497 0.008627 0.000000 0.000000 0.000000
# 4 0.000000 0.000000 0.000000 0.019447 0.000000 0.000000
# 5 0.000000 0.000000 0.000000 0.000000 0.469383 0.000000
# 6 0.000000 0.000000 0.000000 0.000000 0.000000 0.177457
#
#
# Mechanical properties :
#
#
# Convention : Reuss Voigt Hill
#
# Bulk Modulus (GPa) = 16.72678 85.92609 51.32644
# Shear Modulus (GPa) = 6.07907 28.19731 17.13819
#
# Velocity S-wave (km/s) = 1.71446 3.69244 2.87867
# Velocity P-wave (km/s) = 3.46511 7.72827 5.98887
#
# Compressibility (1/GPa) = 0.05978438
#
# Stress axis : x y z
#
# Youngs Moduli (GPa) = 12.23633 130.20427 115.90939
#
# Poissons Ratio (x) = 0.93056 0.98292
# Poissons Ratio (y) = 0.08745 0.40528
# Poissons Ratio (z) = 0.10377 0.45526
#
# Static dielectric constant tensor:
#      x y z
#    x 3.090030 0.000000 0.000000 
#    y 0.000000 4.098520 0.000000 
#    z 0.000000 0.000000 4.093080 
# 
# 
# High freq. dielectric constant tensor:
#      x y z
#    x 1.750440 0.000000 0.000000 
#    y 0.000000 1.828340 0.000000 
#    z 0.000000 0.000000 1.828020 
# 
# From -- ./inp_files/8391.got.cif
#   From: 2010.03.12/outbox.cif.g09.slc.cpg/sg64_5_cif.got.tgz:8391.got - 2010.04.10 20:19:32.
