data_PCOD8263830
_publ_section_title
;
Structure prediction by ZEFSAII (Michael W. Deem and Ramdas Pophale) SiO2 
 PCOD8263830
Probable space group: C M C A
;
_chemical_formula_sum "Si O2"
_cell_formula_units_Z 96
_cell_length_a 9.287112
_cell_length_b 29.025776
_cell_length_c 18.527161
_cell_angle_alpha 90.000000
_cell_angle_beta 90.000000
_cell_angle_gamma 90.000000
_cell_volume 4994.285875
_symmetry_space_group_name_H-M "C M C A"
_symmetry_group_IT_number 64
_symmetry_cell_setting 'orthorhombic'
loop_
_space_group_symop_operation_xyz
x,y,z
-x,1/2-y,1/2+z
x,-y,-z
-x,1/2+y,1/2-z
-x,-y,-z
x,1/2+y,1/2-z
-x,y,z
x,1/2-y,1/2+z
1/2+x,1/2+y,z
1/2-x,-y,1/2+z
1/2+x,1/2-y,-z
1/2-x,y,1/2-z
1/2-x,1/2-y,-z
1/2+x,y,1/2-z
1/2-x,1/2+y,z
1/2+x,-y,1/2+z
loop_
_atom_site_type_symbol
_atom_site_label
_atom_site_fract_x
_atom_site_fract_y
_atom_site_fract_z
Si Si1 0.165589 0.156052 0.924680
Si Si2 0.335869 0.606380 0.182598
Si Si3 0.832272 0.260544 0.324935
Si Si4 0.332717 0.033954 0.101955
Si Si5 0.835400 0.309916 0.578319
Si Si6 0.833592 0.434186 0.056393
O O1 0.189393 0.187873 0.854736
O O2 0.248415 0.108706 0.910885
O O3 0.000000 0.143171 0.936256
O O4 0.218989 0.183160 0.996244
O O5 0.500000 0.597776 0.205244
O O6 0.250000 0.628196 0.250000
O O7 0.264095 0.557551 0.162867
O O8 0.322665 0.640759 0.116049
O O9 0.750000 0.254741 0.250000
O O10 0.770197 0.225895 0.384124
O O11 0.000000 0.249111 0.312641
O O12 0.500000 0.044330 0.116610
O O13 0.302700 0.979303 0.104740
O O14 0.285982 0.054820 0.025022
O O15 0.000000 0.291537 0.581676
O O16 0.000000 0.421056 0.058677
#
# Coordination Sequence:
#
# PCOD8263830 Si02
#       6
#    16  16  16  16  16  16
#     4  10  21  38  59  87 116 145 188 238 281 335
#     4  11  22  35  54  81 115 153 189 233 286 339
#     4  11  24  40  59  82 113 151 189 232 284 339
#     4   9  18  34  54  81 114 146 185 227 274 333
#     4  10  21  38  59  85 114 144 188 237 284 340
#     4   9  18  33  57  85 112 144 182 229 278 328
#
# _framework density 19.221965999999998
#
# number of rings (size 3 to 8) (size 9 to 14) (size 15 to 20)
#    0.000    2.000    1.667    3.000    0.000    5.333 
#    0.000    2.500    0.000    2.000    0.000    0.000 
#    0.000    0.000    0.000    0.000    0.000    0.000 
#
# Total GULP energy -595329.240516 kJ/mol
# GULP energy per Si atom -12402.692511 kJ/mol
# Density = 1.917822 g / cm^3
# Si number density = 19.221966 Si / 1000 Ang^3
#
#
#
# Elastic Constant Matrix: (Units=GPa)
#
#
# Indices 1 2 3 4 5 6 
#
# 1 90.3233 44.6964 19.4472 0.0000 0.0000 0.0000
# 2 44.6964 88.9062 5.5655 0.0000 0.0000 0.0000
# 3 19.4472 5.5655 41.1803 0.0000 0.0000 0.0000
# 4 0.0000 0.0000 0.0000 19.6884 0.0000 0.0000
# 5 0.0000 0.0000 0.0000 0.0000 28.4788 0.0000
# 6 0.0000 0.0000 0.0000 0.0000 0.0000 37.0786
#
#
#
# Elastic Compliance Matrix: (Units=1/GPa)
#
#
# Indices 1 2 3 4 5 6 
#
# 1 0.016376 -0.007815 -0.006677 0.000000 0.000000 0.000000
# 2 -0.007815 0.015073 0.001653 0.000000 0.000000 0.000000
# 3 -0.006677 0.001653 0.027213 0.000000 0.000000 0.000000
# 4 0.000000 0.000000 0.000000 0.050791 0.000000 0.000000
# 5 0.000000 0.000000 0.000000 0.000000 0.035114 0.000000
# 6 0.000000 0.000000 0.000000 0.000000 0.000000 0.026970
#
#
# Mechanical properties :
#
#
# Convention : Reuss Voigt Hill
#
# Bulk Modulus (GPa) = 30.31686 39.98090 35.14888
# Shear Modulus (GPa) = 24.01415 27.09587 25.55501
#
# Velocity S-wave (km/s) = 3.53839 3.75858 3.65014
# Velocity P-wave (km/s) = 5.70086 6.29926 6.00751
#
# Compressibility (1/GPa) = 0.03298495
#
# Stress axis : x y z
#
# Youngs Moduli (GPa) = 61.06396 66.34309 36.74661
#
# Poissons Ratio (x) = 0.51847 0.24537
# Poissons Ratio (y) = 0.47721 -0.06076
# Poissons Ratio (z) = 0.40775 -0.10970
#
# Static dielectric constant tensor:
#      x y z
#    x 3.498140 0.000000 0.000000 
#    y 0.000000 3.426010 0.000000 
#    z 0.000000 0.000000 3.398480 
# 
# 
# High freq. dielectric constant tensor:
#      x y z
#    x 1.748580 0.000000 0.000000 
#    y 0.000000 1.748380 0.000000 
#    z 0.000000 0.000000 1.736620 
# 
# From -- ./inp_files/37052.got.cif
#   From: 2010.03.12/outbox.cif.g09.slc.cpg/sg64_19_cif.got.tgz:37052.got - 2010.04.10 20:19:32.
