data_PCOD8263306
_publ_section_title
;
Structure prediction by ZEFSAII (Michael W. Deem and Ramdas Pophale) SiO2 
 PCOD8263306
Probable space group: C M C A
;
_chemical_formula_sum "Si O2"
_cell_formula_units_Z 80
_cell_length_a 15.023920
_cell_length_b 10.374147
_cell_length_c 26.057978
_cell_angle_alpha 90.000000
_cell_angle_beta 90.000000
_cell_angle_gamma 90.000000
_cell_volume 4061.405691
_symmetry_space_group_name_H-M "C M C A"
_symmetry_group_IT_number 64
_symmetry_cell_setting 'orthorhombic'
loop_
_space_group_symop_operation_xyz
x,y,z
-x,1/2-y,1/2+z
x,-y,-z
-x,1/2+y,1/2-z
-x,-y,-z
x,1/2+y,1/2-z
-x,y,z
x,1/2-y,1/2+z
1/2+x,1/2+y,z
1/2-x,-y,1/2+z
1/2+x,1/2-y,-z
1/2-x,y,1/2-z
1/2-x,1/2-y,-z
1/2+x,y,1/2-z
1/2-x,1/2+y,z
1/2+x,-y,1/2+z
loop_
_atom_site_type_symbol
_atom_site_label
_atom_site_fract_x
_atom_site_fract_y
_atom_site_fract_z
Si Si1 0.603858 0.235641 0.390286
Si Si2 0.598232 0.034954 0.213849
Si Si3 0.761483 0.623926 0.466339
Si Si4 0.398093 0.527092 0.401780
Si Si5 0.337661 0.733334 0.722862
O O1 0.500000 0.193702 0.381109
O O2 0.655119 0.137406 0.427568
O O3 0.606072 0.376293 0.416355
O O4 0.660438 0.237265 0.337640
O O5 0.500000 0.089856 0.213012
O O6 0.637174 0.043625 0.156411
O O7 0.595412 0.886098 0.233073
O O8 0.649517 0.129452 0.250881
O O9 0.784780 0.500000 0.500000
O O10 0.750000 0.750000 0.500000
O O11 0.667179 0.607247 0.437780
O O12 0.500000 0.576709 0.408611
O O13 0.250000 0.676648 0.750000
#
# Coordination Sequence:
#
# PCOD8263306 Si02
#       5
#    16  16  16  16  16
#     4  10  22  42  63  87 125 168 204 251 313 371
#     4  10  20  37  59  87 121 158 197 239 293 361
#     4  12  24  41  65  92 119 153 209 268 315 367
#     4   9  20  40  64  87 121 167 206 240 305 390
#     4  11  21  36  60  89 122 159 198 241 295 357
#
# _framework density 19.697614000000002
#
# number of rings (size 3 to 8) (size 9 to 14) (size 15 to 20)
#    0.000    1.600    2.000    4.800    0.000    3.200 
#    3.600    0.000    0.000    0.000    0.000    0.000 
#    0.000    0.000    0.000    0.000    0.000    0.000 
#
# Total GULP energy -495647.493345 kJ/mol
# GULP energy per Si atom -12391.187334 kJ/mol
# Density = 1.965278 g / cm^3
# Si number density = 19.697614 Si / 1000 Ang^3
#
#
#
# Elastic Constant Matrix: (Units=GPa)
#
#
# Indices 1 2 3 4 5 6 
#
# 1 109.3496 32.6212 68.0001 0.0000 0.0000 0.0000
# 2 32.6212 118.6348 60.3110 0.0000 0.0000 0.0000
# 3 68.0001 60.3110 109.6184 0.0000 0.0000 0.0000
# 4 0.0000 0.0000 0.0000 40.4967 0.0000 0.0000
# 5 0.0000 0.0000 0.0000 0.0000 30.8208 0.0000
# 6 0.0000 0.0000 0.0000 0.0000 0.0000 32.1146
#
#
#
# Elastic Compliance Matrix: (Units=1/GPa)
#
#
# Indices 1 2 3 4 5 6 
#
# 1 0.014948 0.000838 -0.009734 0.000000 0.000000 0.000000
# 2 0.000838 0.011749 -0.006984 0.000000 0.000000 0.000000
# 3 -0.009734 -0.006984 0.019004 0.000000 0.000000 0.000000
# 4 0.000000 0.000000 0.000000 0.024693 0.000000 0.000000
# 5 0.000000 0.000000 0.000000 0.000000 0.032446 0.000000
# 6 0.000000 0.000000 0.000000 0.000000 0.000000 0.031138
#
#
# Mechanical properties :
#
#
# Convention : Reuss Voigt Hill
#
# Bulk Modulus (GPa) = 71.73183 73.27415 72.50299
# Shear Modulus (GPa) = 29.34513 32.46446 30.90480
#
# Velocity S-wave (km/s) = 3.86396 4.06414 3.96531
# Velocity P-wave (km/s) = 7.51016 7.70086 7.60610
#
# Compressibility (1/GPa) = 0.01394081
#
# Stress axis : x y z
#
# Youngs Moduli (GPa) = 66.89809 85.11035 52.62145
#
# Poissons Ratio (x) = -0.07134 0.51222
# Poissons Ratio (y) = -0.05608 0.36753
# Poissons Ratio (z) = 0.65119 0.59445
#
# Static dielectric constant tensor:
#      x y z
#    x 3.285530 0.000000 0.000000 
#    y 0.000000 3.473020 0.000000 
#    z 0.000000 0.000000 3.614220 
# 
# 
# High freq. dielectric constant tensor:
#      x y z
#    x 1.769120 0.000000 0.000000 
#    y 0.000000 1.762940 0.000000 
#    z 0.000000 0.000000 1.769280 
# 
# From -- ./inp_files/44926.got.cif
#   From: 2010.03.12/outbox.cif.g09.slc.cpg/sg64_23_cif.got.tgz:44926.got - 2010.04.10 20:19:32.
