data_PCOD8263579
_publ_section_title
;
Structure prediction by ZEFSAII (Michael W. Deem and Ramdas Pophale) SiO2 
 PCOD8263579
Probable space group: C M C A
;
_chemical_formula_sum "Si O2"
_cell_formula_units_Z 80
_cell_length_a 24.853604
_cell_length_b 11.339893
_cell_length_c 13.895846
_cell_angle_alpha 90.000000
_cell_angle_beta 90.000000
_cell_angle_gamma 90.000000
_cell_volume 3916.366468
_symmetry_space_group_name_H-M "C M C A"
_symmetry_group_IT_number 64
_symmetry_cell_setting 'orthorhombic'
loop_
_space_group_symop_operation_xyz
x,y,z
-x,1/2-y,1/2+z
x,-y,-z
-x,1/2+y,1/2-z
-x,-y,-z
x,1/2+y,1/2-z
-x,y,z
x,1/2-y,1/2+z
1/2+x,1/2+y,z
1/2-x,-y,1/2+z
1/2+x,1/2-y,-z
1/2-x,y,1/2-z
1/2-x,1/2-y,-z
1/2+x,y,1/2-z
1/2-x,1/2+y,z
1/2+x,-y,1/2+z
loop_
_atom_site_type_symbol
_atom_site_label
_atom_site_fract_x
_atom_site_fract_y
_atom_site_fract_z
Si Si1 0.294667 0.513037 0.894652
Si Si2 0.142501 0.192627 0.181646
Si Si3 0.854667 0.736141 0.610390
Si Si4 0.679336 0.608319 0.551636
Si Si5 0.560100 0.365382 0.972027
O O1 0.305031 0.390609 0.838263
O O2 0.326122 0.620442 0.845262
O O3 0.232322 0.545586 0.905562
O O4 0.321818 0.500000 0.000000
O O5 0.131962 0.187243 0.295555
O O6 0.151298 0.325685 0.140804
O O7 0.089824 0.140745 0.130729
O O8 0.812353 0.797536 0.535818
O O9 0.909621 0.711033 0.553339
O O10 0.645847 0.500000 0.500000
O O11 0.500000 0.313025 0.961611
O O12 0.557193 0.500000 0.000000
#
# Coordination Sequence:
#
# PCOD8263579 Si02
#       5
#    16  16  16  16  16
#     4  11  20  42  58  81 125 166 206 248 295 371
#     4  11  23  40  61  92 127 161 208 263 305 363
#     4  11  22  39  62  90 122 162 205 259 304 366
#     4  10  24  38  57  86 128 166 202 245 307 361
#     4  10  20  41  69  90 118 161 205 261 321 373
#
# _framework density 20.427097
#
# number of rings (size 3 to 8) (size 9 to 14) (size 15 to 20)
#    0.000    1.400    6.000    0.600    5.600    1.600 
#    3.600    0.000    0.000    9.600    0.000    0.000 
#    0.000    0.000    0.000    0.000    0.000    0.000 
#
# Total GULP energy -495659.381154 kJ/mol
# GULP energy per Si atom -12391.484529 kJ/mol
# Density = 2.038060 g / cm^3
# Si number density = 20.427097 Si / 1000 Ang^3
#
#
#
# Elastic Constant Matrix: (Units=GPa)
#
#
# Indices 1 2 3 4 5 6 
#
# 1 106.5951 28.2593 37.5076 0.0000 0.0000 0.0000
# 2 28.2593 75.2235 9.6363 0.0000 0.0000 0.0000
# 3 37.5076 9.6363 123.5450 0.0000 0.0000 0.0000
# 4 0.0000 0.0000 0.0000 24.8050 0.0000 0.0000
# 5 0.0000 0.0000 0.0000 0.0000 6.2350 0.0000
# 6 0.0000 0.0000 0.0000 0.0000 0.0000 22.2392
#
#
#
# Elastic Compliance Matrix: (Units=1/GPa)
#
#
# Indices 1 2 3 4 5 6 
#
# 1 0.011549 -0.003929 -0.003200 0.000000 0.000000 0.000000
# 2 -0.003929 0.014764 0.000041 0.000000 0.000000 0.000000
# 3 -0.003200 0.000041 0.009062 0.000000 0.000000 0.000000
# 4 0.000000 0.000000 0.000000 0.040314 0.000000 0.000000
# 5 0.000000 0.000000 0.000000 0.000000 0.160385 0.000000
# 6 0.000000 0.000000 0.000000 0.000000 0.000000 0.044966
#
#
# Mechanical properties :
#
#
# Convention : Reuss Voigt Hill
#
# Bulk Modulus (GPa) = 47.16753 50.68556 48.92655
# Shear Modulus (GPa) = 16.54085 25.98652 21.26369
#
# Velocity S-wave (km/s) = 2.84870 3.57060 3.22988
# Velocity P-wave (km/s) = 5.82760 6.47037 6.15738
#
# Compressibility (1/GPa) = 0.02120102
#
# Stress axis : x y z
#
# Youngs Moduli (GPa) = 86.58994 67.73086 110.34585
#
# Poissons Ratio (x) = 0.26609 0.35307
# Poissons Ratio (y) = 0.34018 -0.00454
# Poissons Ratio (z) = 0.27706 -0.00278
#
# Static dielectric constant tensor:
#      x y z
#    x 3.582020 0.000000 0.000000 
#    y 0.000000 4.084750 0.000000 
#    z 0.000000 0.000000 3.659800 
# 
# 
# High freq. dielectric constant tensor:
#      x y z
#    x 1.757570 0.000000 0.000000 
#    y 0.000000 1.810920 0.000000 
#    z 0.000000 0.000000 1.797630 
# 
# From -- ./inp_files/27894.got.cif
#   From: 2010.03.12/outbox.cif.g09.slc.cpg/sg64_14_cif.got.tgz:27894.got - 2010.04.10 20:19:32.
