data_PCOD8263061
_publ_section_title
;
Structure prediction by ZEFSAII (Michael W. Deem and Ramdas Pophale) SiO2 
 PCOD8263061
Probable space group: C M C A
;
_chemical_formula_sum "Si O2"
_cell_formula_units_Z 56
_cell_length_a 12.621180
_cell_length_b 8.751407
_cell_length_c 24.454920
_cell_angle_alpha 90.000000
_cell_angle_beta 90.000000
_cell_angle_gamma 90.000000
_cell_volume 2701.121309
_symmetry_space_group_name_H-M "C M C A"
_symmetry_group_IT_number 64
_symmetry_cell_setting 'orthorhombic'
loop_
_space_group_symop_operation_xyz
x,y,z
-x,1/2-y,1/2+z
x,-y,-z
-x,1/2+y,1/2-z
-x,-y,-z
x,1/2+y,1/2-z
-x,y,z
x,1/2-y,1/2+z
1/2+x,1/2+y,z
1/2-x,-y,1/2+z
1/2+x,1/2-y,-z
1/2-x,y,1/2-z
1/2-x,1/2-y,-z
1/2+x,y,1/2-z
1/2-x,1/2+y,z
1/2+x,-y,1/2+z
loop_
_atom_site_type_symbol
_atom_site_label
_atom_site_fract_x
_atom_site_fract_y
_atom_site_fract_z
Si Si1 0.378776 0.277319 0.188622
Si Si2 0.250000 0.028512 0.250000
Si Si3 0.321168 0.624833 0.928376
Si Si4 0.119311 0.710738 0.453333
O O1 0.500000 0.256527 0.206592
O O2 0.312806 0.129689 0.206302
O O3 0.333817 0.428259 0.217062
O O4 0.371376 0.292912 0.123556
O O5 0.194435 0.652978 0.932184
O O6 0.340831 0.444654 0.925116
O O7 0.377793 0.697164 0.981190
O O8 0.000000 0.747885 0.434423
#
# Coordination Sequence:
#
# PCOD8263061 Si02
#       4
#    16   8  16  16
#     4  11  21  39  59  80 110 146 181 231 279 320
#     4  10  24  38  56  84 108 138 192 232 272 332
#     4  10  20  35  59  83 110 147 187 217 270 336
#     4  10  20  37  55  83 118 146 177 225 268 322
#
# _framework density 20.732132
#
# number of rings (size 3 to 8) (size 9 to 14) (size 15 to 20)
#    0.000    1.714    0.000    6.000    0.000    0.000 
#    0.000   24.286    0.000    0.000    0.000    0.000 
#    0.000    0.000    0.000    0.000    0.000    0.000 
#
# Total GULP energy -347332.251074 kJ/mol
# GULP energy per Si atom -12404.723253 kJ/mol
# Density = 2.068494 g / cm^3
# Si number density = 20.732132 Si / 1000 Ang^3
#
#
#
# Elastic Constant Matrix: (Units=GPa)
#
#
# Indices 1 2 3 4 5 6 
#
# 1 163.2725 30.3259 -0.8017 0.0000 0.0000 0.0000
# 2 30.3259 43.1814 1.1234 0.0000 0.0000 0.0000
# 3 -0.8017 1.1234 52.2131 0.0000 0.0000 0.0000
# 4 0.0000 0.0000 0.0000 16.2723 0.0000 0.0000
# 5 0.0000 0.0000 0.0000 0.0000 17.2426 0.0000
# 6 0.0000 0.0000 0.0000 0.0000 0.0000 23.8092
#
#
#
# Elastic Compliance Matrix: (Units=1/GPa)
#
#
# Indices 1 2 3 4 5 6 
#
# 1 0.007046 -0.004954 0.000215 0.000000 0.000000 0.000000
# 2 -0.004954 0.026654 -0.000650 0.000000 0.000000 0.000000
# 3 0.000215 -0.000650 0.019170 0.000000 0.000000 0.000000
# 4 0.000000 0.000000 0.000000 0.061454 0.000000 0.000000
# 5 0.000000 0.000000 0.000000 0.000000 0.057996 0.000000
# 6 0.000000 0.000000 0.000000 0.000000 0.000000 0.042001
#
#
# Mechanical properties :
#
#
# Convention : Reuss Voigt Hill
#
# Bulk Modulus (GPa) = 23.75733 35.55136 29.65435
# Shear Modulus (GPa) = 20.90927 26.66609 23.78768
#
# Velocity S-wave (km/s) = 3.17920 3.59028 3.39098
# Velocity P-wave (km/s) = 4.99605 5.86277 5.44667
#
# Compressibility (1/GPa) = 0.04209227
#
# Stress axis : x y z
#
# Youngs Moduli (GPa) = 141.92633 37.51769 52.16603
#
# Poissons Ratio (x) = 0.18586 -0.01120
# Poissons Ratio (y) = 0.70309 0.03388
# Poissons Ratio (z) = -0.03048 0.02437
#
# Static dielectric constant tensor:
#      x y z
#    x 3.831890 0.000000 0.000000 
#    y 0.000000 3.690640 0.000000 
#    z 0.000000 0.000000 3.697080 
# 
# 
# High freq. dielectric constant tensor:
#      x y z
#    x 1.821350 0.000000 0.000000 
#    y 0.000000 1.804370 0.000000 
#    z 0.000000 0.000000 1.809010 
# 
# From -- ./inp_files/48969.got.cif
#   From: 2010.03.12/outbox.cif.g09.slc.cpg/sg64_25_cif.got.tgz:48969.got - 2010.04.10 20:19:32.
