data_PCOD8263681
_publ_section_title
;
Structure prediction by ZEFSAII (Michael W. Deem and Ramdas Pophale) SiO2 
 PCOD8263681
Probable space group: C M C A
;
_chemical_formula_sum "Si O2"
_cell_formula_units_Z 96
_cell_length_a 8.848673
_cell_length_b 28.969473
_cell_length_c 20.342216
_cell_angle_alpha 90.000000
_cell_angle_beta 90.000000
_cell_angle_gamma 90.000000
_cell_volume 5214.551998
_symmetry_space_group_name_H-M "C M C A"
_symmetry_group_IT_number 64
_symmetry_cell_setting 'orthorhombic'
loop_
_space_group_symop_operation_xyz
x,y,z
-x,1/2-y,1/2+z
x,-y,-z
-x,1/2+y,1/2-z
-x,-y,-z
x,1/2+y,1/2-z
-x,y,z
x,1/2-y,1/2+z
1/2+x,1/2+y,z
1/2-x,-y,1/2+z
1/2+x,1/2-y,-z
1/2-x,y,1/2-z
1/2-x,1/2-y,-z
1/2+x,y,1/2-z
1/2-x,1/2+y,z
1/2+x,-y,1/2+z
loop_
_atom_site_type_symbol
_atom_site_label
_atom_site_fract_x
_atom_site_fract_y
_atom_site_fract_z
Si Si1 0.823052 0.722171 0.941305
Si Si2 0.677847 0.621823 0.522192
Si Si3 0.679657 0.375474 0.628554
Si Si4 0.678534 0.532827 0.182940
Si Si5 0.322985 0.529800 0.939428
Si Si6 0.821176 0.717554 0.318213
O O1 0.768114 0.669147 0.943363
O O2 0.776794 0.743789 0.871638
O O3 0.000000 0.724819 0.953567
O O4 0.750000 0.750000 0.000000
O O5 0.500000 0.615782 0.525396
O O6 0.733676 0.621698 0.446839
O O7 0.750879 0.580219 0.562402
O O8 0.500000 0.373455 0.634915
O O9 0.742974 0.418969 0.667196
O O10 0.749350 0.330721 0.661722
O O11 0.500000 0.540285 0.189337
O O12 0.750000 0.513410 0.250000
O O13 0.719489 0.495517 0.127769
O O14 0.500000 0.535960 0.948819
O O15 0.256065 0.500000 0.000000
O O16 0.750000 0.734653 0.250000
O O17 0.000000 0.711660 0.311405
#
# Coordination Sequence:
#
# PCOD8263681 Si02
#       6
#    16  16  16  16  16  16
#     4  10  21  38  59  85 114 149 190 236 282 335
#     4  10  21  36  58  88 117 145 186 236 282 334
#     4  11  21  35  58  87 119 150 186 233 287 341
#     4  11  23  39  58  83 117 152 190 234 284 341
#     4  10  21  38  59  83 113 148 189 235 279 333
#     4  11  23  38  58  83 117 155 191 234 285 338
#
# _framework density 18.410018999999998
#
# number of rings (size 3 to 8) (size 9 to 14) (size 15 to 20)
#    0.000    1.500    3.333    2.000    0.000    3.667 
#    0.000    0.833    0.000    4.000    0.000    0.000 
#    0.000    0.000    0.000    0.000    0.000    0.000 
#
# Total GULP energy -595414.744508 kJ/mol
# GULP energy per Si atom -12404.473844 kJ/mol
# Density = 1.836812 g / cm^3
# Si number density = 18.410019 Si / 1000 Ang^3
#
#
#
# Elastic Constant Matrix: (Units=GPa)
#
#
# Indices 1 2 3 4 5 6 
#
# 1 57.4236 42.4556 56.0677 0.0000 0.0000 0.0000
# 2 42.4556 152.1273 80.6750 0.0000 0.0000 0.0000
# 3 56.0677 80.6750 153.7809 0.0000 0.0000 0.0000
# 4 0.0000 0.0000 0.0000 31.7470 0.0000 0.0000
# 5 0.0000 0.0000 0.0000 0.0000 30.1874 0.0000
# 6 0.0000 0.0000 0.0000 0.0000 0.0000 30.0409
#
#
#
# Elastic Compliance Matrix: (Units=1/GPa)
#
#
# Indices 1 2 3 4 5 6 
#
# 1 0.028223 -0.003352 -0.008531 0.000000 0.000000 0.000000
# 2 -0.003352 0.009505 -0.003764 0.000000 0.000000 0.000000
# 3 -0.008531 -0.003764 0.011588 0.000000 0.000000 0.000000
# 4 0.000000 0.000000 0.000000 0.031499 0.000000 0.000000
# 5 0.000000 0.000000 0.000000 0.000000 0.033126 0.000000
# 6 0.000000 0.000000 0.000000 0.000000 0.000000 0.033288
#
#
# Mechanical properties :
#
#
# Convention : Reuss Voigt Hill
#
# Bulk Modulus (GPa) = 55.49273 80.19204 67.84238
# Shear Modulus (GPa) = 27.09562 30.67062 28.88312
#
# Velocity S-wave (km/s) = 3.84055 4.08606 3.96521
# Velocity P-wave (km/s) = 7.06219 8.11879 7.60885
#
# Compressibility (1/GPa) = 0.01802038
#
# Stress axis : x y z
#
# Youngs Moduli (GPa) = 35.43258 105.20507 86.29586
#
# Poissons Ratio (x) = 0.35266 0.73621
# Poissons Ratio (y) = 0.11877 0.32485
# Poissons Ratio (z) = 0.30228 0.39603
#
# Static dielectric constant tensor:
#      x y z
#    x 3.393150 0.000000 0.000000 
#    y 0.000000 3.471510 0.000000 
#    z 0.000000 0.000000 3.599590 
# 
# 
# High freq. dielectric constant tensor:
#      x y z
#    x 1.717550 0.000000 0.000000 
#    y 0.000000 1.716840 0.000000 
#    z 0.000000 0.000000 1.718280 
# 
# From -- ./inp_files/36959.got.cif
#   From: 2010.03.12/outbox.cif.g09.slc.cpg/sg64_19_cif.got.tgz:36959.got - 2010.04.10 20:19:32.
