data_PCOD8263908
_publ_section_title
;
Structure prediction by ZEFSAII (Michael W. Deem and Ramdas Pophale) SiO2 
 PCOD8263908
Probable space group: C M C A
;
_chemical_formula_sum "Si O2"
_cell_formula_units_Z 96
_cell_length_a 13.493735
_cell_length_b 20.128640
_cell_length_c 15.781824
_cell_angle_alpha 90.000000
_cell_angle_beta 90.000000
_cell_angle_gamma 90.000000
_cell_volume 4286.509645
_symmetry_space_group_name_H-M "C M C A"
_symmetry_group_IT_number 64
_symmetry_cell_setting 'orthorhombic'
loop_
_space_group_symop_operation_xyz
x,y,z
-x,1/2-y,1/2+z
x,-y,-z
-x,1/2+y,1/2-z
-x,-y,-z
x,1/2+y,1/2-z
-x,y,z
x,1/2-y,1/2+z
1/2+x,1/2+y,z
1/2-x,-y,1/2+z
1/2+x,1/2-y,-z
1/2-x,y,1/2-z
1/2-x,1/2-y,-z
1/2+x,y,1/2-z
1/2-x,1/2+y,z
1/2+x,-y,1/2+z
loop_
_atom_site_type_symbol
_atom_site_label
_atom_site_fract_x
_atom_site_fract_y
_atom_site_fract_z
Si Si1 0.386333 0.990780 0.765238
Si Si2 0.116466 0.859848 0.294394
Si Si3 0.384851 0.624441 0.385636
Si Si4 0.759040 0.650018 0.948505
Si Si5 0.112730 0.272301 0.363276
Si Si6 0.388582 0.034421 0.589180
O O1 0.500000 0.985201 0.787343
O O2 0.339522 0.932189 0.823026
O O3 0.346438 0.063860 0.788581
O O4 0.364246 0.981472 0.664711
O O5 0.155123 0.830694 0.382505
O O6 0.155201 0.816591 0.214590
O O7 0.000000 0.854091 0.296003
O O8 0.500000 0.610465 0.413855
O O9 0.310006 0.628020 0.464784
O O10 0.379726 0.694952 0.337785
O O11 0.681586 0.712708 0.947088
O O12 0.691941 0.591340 0.910469
O O13 0.000000 0.290608 0.386511
O O14 0.500000 0.063406 0.608035
O O15 0.387484 0.000000 0.500000
#
# Coordination Sequence:
#
# PCOD8263908 Si02
#       6
#    16  16  16  16  16  16
#     4   9  19  40  64  89 122 165 207 263 321 370
#     4  10  21  38  65  91 123 167 217 260 314 382
#     4  10  23  41  64  96 135 164 207 271 330 379
#     4  12  22  37  64  96 128 163 218 258 321 378
#     4  10  21  41  64  89 127 181 221 258 313 384
#     4  10  22  40  62  91 126 166 213 260 311 376
#
# _framework density 22.395844
#
# number of rings (size 3 to 8) (size 9 to 14) (size 15 to 20)
#    0.000    1.833    1.667    2.000    2.333    0.000 
#    0.000    7.500    0.000    8.000    0.000    0.000 
#    0.000    0.000    0.000    0.000    0.000    0.000 
#
# Total GULP energy -594644.610546 kJ/mol
# GULP energy per Si atom -12388.429386 kJ/mol
# Density = 2.234487 g / cm^3
# Si number density = 22.395844 Si / 1000 Ang^3
#
#
#
# Elastic Constant Matrix: (Units=GPa)
#
#
# Indices 1 2 3 4 5 6 
#
# 1 58.9960 28.0641 35.1167 0.0000 0.0000 0.0000
# 2 28.0641 103.6735 42.6587 0.0000 0.0000 0.0000
# 3 35.1167 42.6587 126.8173 0.0000 0.0000 0.0000
# 4 0.0000 0.0000 0.0000 30.4134 0.0000 0.0000
# 5 0.0000 0.0000 0.0000 0.0000 18.7574 0.0000
# 6 0.0000 0.0000 0.0000 0.0000 0.0000 10.0093
#
#
#
# Elastic Compliance Matrix: (Units=1/GPa)
#
#
# Indices 1 2 3 4 5 6 
#
# 1 0.021591 -0.003928 -0.004657 0.000000 0.000000 0.000000
# 2 -0.003928 0.011910 -0.002918 0.000000 0.000000 0.000000
# 3 -0.004657 -0.002918 0.010157 0.000000 0.000000 0.000000
# 4 0.000000 0.000000 0.000000 0.032880 0.000000 0.000000
# 5 0.000000 0.000000 0.000000 0.000000 0.053312 0.000000
# 6 0.000000 0.000000 0.000000 0.000000 0.000000 0.099907
#
#
# Mechanical properties :
#
#
# Convention : Reuss Voigt Hill
#
# Bulk Modulus (GPa) = 48.42712 55.68508 52.05610
# Shear Modulus (GPa) = 19.25674 24.07915 21.66795
#
# Velocity S-wave (km/s) = 2.93548 3.28252 3.11384
# Velocity P-wave (km/s) = 5.75843 6.26774 6.01848
#
# Compressibility (1/GPa) = 0.02064959
#
# Stress axis : x y z
#
# Youngs Moduli (GPa) = 46.31510 83.96365 98.45682
#
# Poissons Ratio (x) = 0.32983 0.45855
# Poissons Ratio (y) = 0.18194 0.28734
# Poissons Ratio (z) = 0.21571 0.24505
#
# Static dielectric constant tensor:
#      x y z
#    x 4.294820 0.000000 0.000000 
#    y 0.000000 4.122790 0.000000 
#    z 0.000000 0.000000 4.044730 
# 
# 
# High freq. dielectric constant tensor:
#      x y z
#    x 1.903840 0.000000 0.000000 
#    y 0.000000 1.871110 0.000000 
#    z 0.000000 0.000000 1.871580 
# 
# From -- ./inp_files/23877.got.cif
#   From: 2010.03.12/outbox.cif.g09.slc.cpg/sg64_12_cif.got.tgz:23877.got - 2010.04.10 20:19:32.
