data_PCOD8263045
_publ_section_title
;
Structure prediction by ZEFSAII (Michael W. Deem and Ramdas Pophale) SiO2 
 PCOD8263045
Probable space group: C M C A
;
_chemical_formula_sum "Si O2"
_cell_formula_units_Z 112
_cell_length_a 15.637735
_cell_length_b 10.093693
_cell_length_c 37.134921
_cell_angle_alpha 90.000000
_cell_angle_beta 90.000000
_cell_angle_gamma 90.000000
_cell_volume 5861.468631
_symmetry_space_group_name_H-M "C M C A"
_symmetry_group_IT_number 64
_symmetry_cell_setting 'orthorhombic'
loop_
_space_group_symop_operation_xyz
x,y,z
-x,1/2-y,1/2+z
x,-y,-z
-x,1/2+y,1/2-z
-x,-y,-z
x,1/2+y,1/2-z
-x,y,z
x,1/2-y,1/2+z
1/2+x,1/2+y,z
1/2-x,-y,1/2+z
1/2+x,1/2-y,-z
1/2-x,y,1/2-z
1/2-x,1/2-y,-z
1/2+x,y,1/2-z
1/2-x,1/2+y,z
1/2+x,-y,1/2+z
loop_
_atom_site_type_symbol
_atom_site_label
_atom_site_fract_x
_atom_site_fract_y
_atom_site_fract_z
Si Si1 0.898630 0.238225 0.278973
Si Si2 0.595595 0.274508 0.570593
Si Si3 0.245667 0.124014 0.475165
Si Si4 0.324864 0.766680 0.855524
Si Si5 0.674752 0.965143 0.642983
Si Si6 0.903839 0.971170 0.931911
Si Si7 0.601028 0.536578 0.219695
O O1 0.864048 0.190751 0.317416
O O2 0.868702 0.388058 0.270122
O O3 0.860429 0.139884 0.248672
O O4 0.000000 0.229897 0.280326
O O5 0.500000 0.322759 0.560351
O O6 0.666240 0.367629 0.552337
O O7 0.603138 0.280458 0.613877
O O8 0.610148 0.124165 0.557174
O O9 0.250000 0.250000 0.500000
O O10 0.334950 0.114771 0.453629
O O11 0.227644 0.000000 0.500000
O O12 0.290206 0.615632 0.854412
O O13 0.250107 0.865513 0.866210
O O14 0.606219 0.952622 0.610974
O O15 0.631635 0.921314 0.680247
O O16 0.000000 0.925287 0.942292
O O17 0.500000 0.544848 0.220030
#
# Coordination Sequence:
#
# PCOD8263045 Si02
#       7
#    16  16  16  16  16  16  16
#     4   9  18  33  53  78 108 146 191 239 286 338
#     4  10  21  40  65  90 119 159 201 240 293 353
#     4  12  24  40  65  93 125 152 192 245 294 355
#     4  10  20  35  58  82 112 150 195 240 287 341
#     4  10  20  35  58  83 112 149 194 244 286 339
#     4  10  21  40  66  90 117 160 204 238 289 358
#     4   9  18  33  53  78 109 146 191 239 286 337
#
# _framework density 19.107839999999999
#
# number of rings (size 3 to 8) (size 9 to 14) (size 15 to 20)
#    0.000    2.000    2.857    0.857    0.000    6.286 
#    0.000    2.857    0.000    1.714    0.000    0.000 
#    0.000    0.000    0.000    0.000    0.000    0.000 
#
# Total GULP energy -694406.148672 kJ/mol
# GULP energy per Si atom -12400.109798 kJ/mol
# Density = 1.906435 g / cm^3
# Si number density = 19.107840 Si / 1000 Ang^3
#
#
#
# Elastic Constant Matrix: (Units=GPa)
#
#
# Indices 1 2 3 4 5 6 
#
# 1 103.3495 48.7846 56.1647 0.0000 0.0000 0.0000
# 2 48.7846 87.9465 55.3426 0.0000 0.0000 0.0000
# 3 56.1647 55.3426 122.2976 0.0000 0.0000 0.0000
# 4 0.0000 0.0000 0.0000 32.5767 0.0000 0.0000
# 5 0.0000 0.0000 0.0000 0.0000 30.7112 0.0000
# 6 0.0000 0.0000 0.0000 0.0000 0.0000 27.8801
#
#
#
# Elastic Compliance Matrix: (Units=1/GPa)
#
#
# Indices 1 2 3 4 5 6 
#
# 1 0.014519 -0.005394 -0.004227 0.000000 0.000000 0.000000
# 2 -0.005394 0.017901 -0.005624 0.000000 0.000000 0.000000
# 3 -0.004227 -0.005624 0.012663 0.000000 0.000000 0.000000
# 4 0.000000 0.000000 0.000000 0.030697 0.000000 0.000000
# 5 0.000000 0.000000 0.000000 0.000000 0.032561 0.000000
# 6 0.000000 0.000000 0.000000 0.000000 0.000000 0.035868
#
#
# Mechanical properties :
#
#
# Convention : Reuss Voigt Hill
#
# Bulk Modulus (GPa) = 68.52018 70.46416 69.49217
# Shear Modulus (GPa) = 27.84530 28.45372 28.14951
#
# Velocity S-wave (km/s) = 3.82156 3.86309 3.84238
# Velocity P-wave (km/s) = 7.44379 7.54023 7.49217
#
# Compressibility (1/GPa) = 0.01459424
#
# Stress axis : x y z
#
# Youngs Moduli (GPa) = 68.87446 55.86132 78.97119
#
# Poissons Ratio (x) = 0.30131 0.33381
# Poissons Ratio (y) = 0.37151 0.44411
# Poissons Ratio (z) = 0.29113 0.31415
#
# Static dielectric constant tensor:
#      x y z
#    x 3.375790 0.000000 0.000000 
#    y 0.000000 3.504490 0.000000 
#    z 0.000000 0.000000 3.653220 
# 
# 
# High freq. dielectric constant tensor:
#      x y z
#    x 1.735130 0.000000 0.000000 
#    y 0.000000 1.732360 0.000000 
#    z 0.000000 0.000000 1.757100 
# 
# From -- ./inp_files/53260.got.cif
#   From: 2010.03.12/outbox.cif.g09.slc.cpg/sg64_27_cif.got.tgz:53260.got - 2010.04.10 20:19:32.
