data_PCOD8263252
_publ_section_title
;
Structure prediction by ZEFSAII (Michael W. Deem and Ramdas Pophale) SiO2 
 PCOD8263252
Probable space group: C M C A
;
_chemical_formula_sum "Si O2"
_cell_formula_units_Z 112
_cell_length_a 13.655139
_cell_length_b 14.424852
_cell_length_c 30.128142
_cell_angle_alpha 90.000000
_cell_angle_beta 90.000000
_cell_angle_gamma 90.000000
_cell_volume 5934.441334
_symmetry_space_group_name_H-M "C M C A"
_symmetry_group_IT_number 64
_symmetry_cell_setting 'orthorhombic'
loop_
_space_group_symop_operation_xyz
x,y,z
-x,1/2-y,1/2+z
x,-y,-z
-x,1/2+y,1/2-z
-x,-y,-z
x,1/2+y,1/2-z
-x,y,z
x,1/2-y,1/2+z
1/2+x,1/2+y,z
1/2-x,-y,1/2+z
1/2+x,1/2-y,-z
1/2-x,y,1/2-z
1/2-x,1/2-y,-z
1/2+x,y,1/2-z
1/2-x,1/2+y,z
1/2+x,-y,1/2+z
loop_
_atom_site_type_symbol
_atom_site_label
_atom_site_fract_x
_atom_site_fract_y
_atom_site_fract_z
Si Si1 0.112812 0.701530 0.422217
Si Si2 0.388739 0.398294 0.013235
Si Si3 0.767621 0.148973 0.902785
Si Si4 0.111275 0.899614 0.695790
Si Si5 0.611136 0.696379 0.818653
Si Si6 0.614826 0.505790 0.780659
Si Si7 0.726244 0.947774 0.634419
O O1 0.116539 0.676106 0.473841
O O2 0.164596 0.799945 0.412450
O O3 0.172344 0.620741 0.398414
O O4 0.000000 0.706941 0.405705
O O5 0.500000 0.414267 0.029239
O O6 0.331420 0.349171 0.052886
O O7 0.345408 0.500000 0.000000
O O8 0.821807 0.200443 0.862305
O O9 0.750701 0.043167 0.889966
O O10 0.119851 0.791320 0.709214
O O11 0.000000 0.928676 0.686396
O O12 0.157874 0.963715 0.734718
O O13 0.168117 0.911921 0.649755
O O14 0.500000 0.679304 0.835186
O O15 0.641205 0.614742 0.784462
O O16 0.500000 0.485930 0.780433
O O17 0.657191 0.453622 0.822888
#
# Coordination Sequence:
#
# PCOD8263252 Si02
#       7
#    16  16  16  16  16  16  16
#     4  11  23  39  59  89 123 153 195 242 293 351
#     4  10  20  36  62  91 116 151 196 245 293 345
#     4  11  21  37  61  86 118 152 193 242 294 350
#     4  10  20  37  56  80 115 149 191 241 289 346
#     4   9  18  34  58  85 110 146 195 237 285 345
#     4   9  19  35  56  81 110 146 190 240 286 337
#     4  11  21  37  58  84 115 154 193 236 293 351
#
# _framework density 18.872881
#
# number of rings (size 3 to 8) (size 9 to 14) (size 15 to 20)
#    0.000    1.857    2.857    1.714    0.000    1.714 
#    2.571    1.429    0.000    0.429    0.000    0.000 
#    0.000    0.000    0.000    0.000    0.000    0.000 
#
# Total GULP energy -694315.852342 kJ/mol
# GULP energy per Si atom -12398.497363 kJ/mol
# Density = 1.882993 g / cm^3
# Si number density = 18.872881 Si / 1000 Ang^3
#
#
#
# Elastic Constant Matrix: (Units=GPa)
#
#
# Indices 1 2 3 4 5 6 
#
# 1 78.8800 56.2714 41.8981 0.0000 0.0000 0.0000
# 2 56.2714 101.8419 53.9341 0.0000 0.0000 0.0000
# 3 41.8981 53.9341 88.3222 0.0000 0.0000 0.0000
# 4 0.0000 0.0000 0.0000 26.4626 0.0000 0.0000
# 5 0.0000 0.0000 0.0000 0.0000 30.2948 0.0000
# 6 0.0000 0.0000 0.0000 0.0000 0.0000 29.7528
#
#
#
# Elastic Compliance Matrix: (Units=1/GPa)
#
#
# Indices 1 2 3 4 5 6 
#
# 1 0.022056 -0.009822 -0.004465 0.000000 0.000000 0.000000
# 2 -0.009822 0.018886 -0.006874 0.000000 0.000000 0.000000
# 3 -0.004465 -0.006874 0.017638 0.000000 0.000000 0.000000
# 4 0.000000 0.000000 0.000000 0.037789 0.000000 0.000000
# 5 0.000000 0.000000 0.000000 0.000000 0.033009 0.000000
# 6 0.000000 0.000000 0.000000 0.000000 0.000000 0.033610
#
#
# Mechanical properties :
#
#
# Convention : Reuss Voigt Hill
#
# Bulk Modulus (GPa) = 61.50587 63.69457 62.60022
# Shear Modulus (GPa) = 23.72709 25.09809 24.41259
#
# Velocity S-wave (km/s) = 3.54956 3.65067 3.60047
# Velocity P-wave (km/s) = 7.03274 7.18278 7.10816
#
# Compressibility (1/GPa) = 0.01625861
#
# Stress axis : x y z
#
# Youngs Moduli (GPa) = 45.33903 52.94801 56.69689
#
# Poissons Ratio (x) = 0.52007 0.25315
# Poissons Ratio (y) = 0.44533 0.38971
# Poissons Ratio (z) = 0.20244 0.36394
#
# Static dielectric constant tensor:
#      x y z
#    x 3.484150 0.000000 0.000000 
#    y 0.000000 3.524950 0.000000 
#    z 0.000000 0.000000 3.392850 
# 
# 
# High freq. dielectric constant tensor:
#      x y z
#    x 1.734160 0.000000 0.000000 
#    y 0.000000 1.737220 0.000000 
#    z 0.000000 0.000000 1.727280 
# 
# From -- ./inp_files/50057.got.cif
#   From: 2010.03.12/outbox.cif.g09.slc.cpg/sg64_26_cif.got.tgz:50057.got - 2010.04.10 20:19:32.
