data_PCOD8263742
_publ_section_title
;
Structure prediction by ZEFSAII (Michael W. Deem and Ramdas Pophale) SiO2 
 PCOD8263742
Probable space group: C M C A
;
_chemical_formula_sum "Si O2"
_cell_formula_units_Z 88
_cell_length_a 20.319920
_cell_length_b 15.049176
_cell_length_c 14.730761
_cell_angle_alpha 90.000000
_cell_angle_beta 90.000000
_cell_angle_gamma 90.000000
_cell_volume 4504.638024
_symmetry_space_group_name_H-M "C M C A"
_symmetry_group_IT_number 64
_symmetry_cell_setting 'orthorhombic'
loop_
_space_group_symop_operation_xyz
x,y,z
-x,1/2-y,1/2+z
x,-y,-z
-x,1/2+y,1/2-z
-x,-y,-z
x,1/2+y,1/2-z
-x,y,z
x,1/2-y,1/2+z
1/2+x,1/2+y,z
1/2-x,-y,1/2+z
1/2+x,1/2-y,-z
1/2-x,y,1/2-z
1/2-x,1/2-y,-z
1/2+x,y,1/2-z
1/2-x,1/2+y,z
1/2+x,-y,1/2+z
loop_
_atom_site_type_symbol
_atom_site_label
_atom_site_fract_x
_atom_site_fract_y
_atom_site_fract_z
Si Si1 0.868788 0.314706 0.688888
Si Si2 0.245716 0.441737 0.415602
Si Si3 0.500000 0.392781 0.084515
Si Si4 0.631494 0.306028 0.142556
Si Si5 0.750000 0.562319 0.250000
Si Si6 0.178884 0.287311 0.018688
Si Si7 0.000000 0.899554 0.876831
O O1 0.867748 0.231117 0.756089
O O2 0.811633 0.380297 0.719217
O O3 0.856375 0.275275 0.590451
O O4 0.937303 0.367814 0.682113
O O5 0.217358 0.500000 0.500000
O O6 0.189542 0.376595 0.376861
O O7 0.271907 0.503403 0.335213
O O8 0.311069 0.388711 0.449064
O O9 0.563132 0.354188 0.132852
O O10 0.500000 0.496052 0.107251
O O11 0.500000 0.362147 0.979338
O O12 0.637410 0.221358 0.074394
O O13 0.250000 0.250000 0.000000
#
# Coordination Sequence:
#
# PCOD8263742 Si02
#       7
#    16  16   8  16   8  16   8
#     4  12  23  42  62  93 127 168 210 260 319 382
#     4  11  22  36  58  91 124 161 203 260 314 368
#     4  11  23  40  64  93 116 166 210 266 312 375
#     4  11  22  39  62  86 124 164 210 258 314 380
#     4  12  22  36  62  92 124 160 204 262 314 374
#     4  10  21  37  57  86 120 162 200 251 309 372
#     4  11  25  40  66  91 127 159 214 266 321 368
#
# _framework density 19.535420999999999
#
# number of rings (size 3 to 8) (size 9 to 14) (size 15 to 20)
#    0.000    0.909    1.818    8.182    2.545    0.000 
#    0.000    0.000    0.000    0.000    0.000    5.727 
#    0.000    0.000    0.000    0.000    0.000    0.000 
#
# Total GULP energy -545512.979061 kJ/mol
# GULP energy per Si atom -12398.022251 kJ/mol
# Density = 1.949096 g / cm^3
# Si number density = 19.535421 Si / 1000 Ang^3
#
#
#
# Elastic Constant Matrix: (Units=GPa)
#
#
# Indices 1 2 3 4 5 6 
#
# 1 92.8684 28.5177 13.0986 0.0000 0.0000 0.0000
# 2 28.5177 77.2374 20.0925 0.0000 0.0000 0.0000
# 3 13.0986 20.0925 85.0968 0.0000 0.0000 0.0000
# 4 0.0000 0.0000 0.0000 46.5265 0.0000 0.0000
# 5 0.0000 0.0000 0.0000 0.0000 25.7600 0.0000
# 6 0.0000 0.0000 0.0000 0.0000 0.0000 14.6742
#
#
#
# Elastic Compliance Matrix: (Units=1/GPa)
#
#
# Indices 1 2 3 4 5 6 
#
# 1 0.012205 -0.004280 -0.000868 0.000000 0.000000 0.000000
# 2 -0.004280 0.015296 -0.002953 0.000000 0.000000 0.000000
# 3 -0.000868 -0.002953 0.012582 0.000000 0.000000 0.000000
# 4 0.000000 0.000000 0.000000 0.021493 0.000000 0.000000
# 5 0.000000 0.000000 0.000000 0.000000 0.038820 0.000000
# 6 0.000000 0.000000 0.000000 0.000000 0.000000 0.068147
#
#
# Mechanical properties :
#
#
# Convention : Reuss Voigt Hill
#
# Bulk Modulus (GPa) = 41.87539 42.06891 41.97215
# Shear Modulus (GPa) = 25.94644 30.29171 28.11908
#
# Velocity S-wave (km/s) = 3.64837 3.94204 3.79804
# Velocity P-wave (km/s) = 6.26335 6.50393 6.38477
#
# Compressibility (1/GPa) = 0.02388038
#
# Stress axis : x y z
#
# Youngs Moduli (GPa) = 81.93516 65.37816 79.47812
#
# Poissons Ratio (x) = 0.27985 0.06898
# Poissons Ratio (y) = 0.35072 0.23467
# Poissons Ratio (z) = 0.07112 0.19304
#
# Static dielectric constant tensor:
#      x y z
#    x 3.546860 0.000000 0.000000 
#    y 0.000000 3.998370 0.000000 
#    z 0.000000 0.000000 4.009820 
# 
# 
# High freq. dielectric constant tensor:
#      x y z
#    x 1.746940 0.000000 0.000000 
#    y 0.000000 1.767380 0.000000 
#    z 0.000000 0.000000 1.777830 
# 
# From -- ./inp_files/26270.got.cif
#   From: 2010.03.12/outbox.cif.g09.slc.cpg/sg64_14_cif.got.tgz:26270.got - 2010.04.10 20:19:32.
