data_PCOD8263645
_publ_section_title
;
Structure prediction by ZEFSAII (Michael W. Deem and Ramdas Pophale) SiO2 
 PCOD8263645
Probable space group: C M C A
;
_chemical_formula_sum "Si O2"
_cell_formula_units_Z 64
_cell_length_a 20.849104
_cell_length_b 29.353419
_cell_length_c 5.245105
_cell_angle_alpha 90.000000
_cell_angle_beta 90.000000
_cell_angle_gamma 90.000000
_cell_volume 3209.964846
_symmetry_space_group_name_H-M "C M C A"
_symmetry_group_IT_number 64
_symmetry_cell_setting 'orthorhombic'
loop_
_space_group_symop_operation_xyz
x,y,z
-x,1/2-y,1/2+z
x,-y,-z
-x,1/2+y,1/2-z
-x,-y,-z
x,1/2+y,1/2-z
-x,y,z
x,1/2-y,1/2+z
1/2+x,1/2+y,z
1/2-x,-y,1/2+z
1/2+x,1/2-y,-z
1/2-x,y,1/2-z
1/2-x,1/2-y,-z
1/2+x,y,1/2-z
1/2-x,1/2+y,z
1/2+x,-y,1/2+z
loop_
_atom_site_type_symbol
_atom_site_label
_atom_site_fract_x
_atom_site_fract_y
_atom_site_fract_z
Si Si1 0.374676 0.373734 0.820036
Si Si2 0.674766 0.773657 0.739852
Si Si3 0.571763 0.408128 0.308499
Si Si4 0.811382 0.050546 0.906069
O O1 0.337964 0.326940 0.782221
O O2 0.418690 0.382897 0.575805
O O3 0.418775 0.372074 0.075447
O O4 0.322226 0.414569 0.857405
O O5 0.644210 0.747046 0.498263
O O6 0.750000 0.764917 0.750000
O O7 0.500000 0.428759 0.299600
O O8 0.624428 0.448533 0.272654
O O9 0.750000 0.068243 0.750000
O O10 0.798031 0.000000 0.000000
#
# Coordination Sequence:
#
# PCOD8263645 Si02
#       4
#    16  16  16  16
#     4  10  23  39  66  89 129 168 209 263 325 369
#     4  10  21  35  60  94 128 161 208 264 320 385
#     4  10  23  42  65  92 126 173 219 258 312 384
#     4  10  26  39  66  98 132 166 210 267 322 382
#
# _framework density 19.937913000000002
#
# number of rings (size 3 to 8) (size 9 to 14) (size 15 to 20)
#    1.500    0.500    0.000    2.250    7.000    1.500 
#    0.000    1.250    0.000   15.000    0.000    0.000 
#    0.000    0.000    0.000    0.000    0.000    0.000 
#
# Total GULP energy -396527.870977 kJ/mol
# GULP energy per Si atom -12391.495968 kJ/mol
# Density = 1.989253 g / cm^3
# Si number density = 19.937913 Si / 1000 Ang^3
#
#
#
# Elastic Constant Matrix: (Units=GPa)
#
#
# Indices 1 2 3 4 5 6 
#
# 1 90.6350 14.1185 40.6372 0.0000 0.0000 0.0000
# 2 14.1185 103.1917 33.7159 0.0000 0.0000 0.0000
# 3 40.6372 33.7159 158.7546 0.0000 0.0000 0.0000
# 4 0.0000 0.0000 0.0000 24.5150 0.0000 0.0000
# 5 0.0000 0.0000 0.0000 0.0000 15.8425 0.0000
# 6 0.0000 0.0000 0.0000 0.0000 0.0000 6.1550
#
#
#
# Elastic Compliance Matrix: (Units=1/GPa)
#
#
# Indices 1 2 3 4 5 6 
#
# 1 0.012513 -0.000715 -0.003051 0.000000 0.000000 0.000000
# 2 -0.000715 0.010454 -0.002037 0.000000 0.000000 0.000000
# 3 -0.003051 -0.002037 0.007513 0.000000 0.000000 0.000000
# 4 0.000000 0.000000 0.000000 0.040791 0.000000 0.000000
# 5 0.000000 0.000000 0.000000 0.000000 0.063122 0.000000
# 6 0.000000 0.000000 0.000000 0.000000 0.000000 0.162470
#
#
# Mechanical properties :
#
#
# Convention : Reuss Voigt Hill
#
# Bulk Modulus (GPa) = 52.98625 58.83605 55.91115
# Shear Modulus (GPa) = 15.88514 26.90981 21.39747
#
# Velocity S-wave (km/s) = 2.82570 3.67779 3.27954
# Velocity P-wave (km/s) = 6.10569 6.89989 6.51490
#
# Compressibility (1/GPa) = 0.01887282
#
# Stress axis : x y z
#
# Youngs Moduli (GPa) = 79.91925 95.65584 133.10832
#
# Poissons Ratio (x) = 0.06840 0.40612
# Poissons Ratio (y) = 0.05715 0.27117
# Poissons Ratio (z) = 0.24384 0.19487
#
# Static dielectric constant tensor:
#      x y z
#    x 3.374210 0.000000 0.000000 
#    y 0.000000 3.235970 0.000000 
#    z 0.000000 0.000000 3.995750 
# 
# 
# High freq. dielectric constant tensor:
#      x y z
#    x 1.756500 0.000000 0.000000 
#    y 0.000000 1.753490 0.000000 
#    z 0.000000 0.000000 1.798220 
# 
# From -- ./inp_files/2241.got.cif
#   From: 2010.03.12/outbox.cif.g09.slc.cpg/sg64_2_cif.got.tgz:2241.got - 2010.04.10 20:19:32.
