data_PCOD8263774
_publ_section_title
;
Structure prediction by ZEFSAII (Michael W. Deem and Ramdas Pophale) SiO2 
 PCOD8263774
Probable space group: C M C A
;
_chemical_formula_sum "Si O2"
_cell_formula_units_Z 96
_cell_length_a 12.312952
_cell_length_b 18.935176
_cell_length_c 16.728763
_cell_angle_alpha 90.000000
_cell_angle_beta 90.000000
_cell_angle_gamma 90.000000
_cell_volume 3900.276184
_symmetry_space_group_name_H-M "C M C A"
_symmetry_group_IT_number 64
_symmetry_cell_setting 'orthorhombic'
loop_
_space_group_symop_operation_xyz
x,y,z
-x,1/2-y,1/2+z
x,-y,-z
-x,1/2+y,1/2-z
-x,-y,-z
x,1/2+y,1/2-z
-x,y,z
x,1/2-y,1/2+z
1/2+x,1/2+y,z
1/2-x,-y,1/2+z
1/2+x,1/2-y,-z
1/2-x,y,1/2-z
1/2-x,1/2-y,-z
1/2+x,y,1/2-z
1/2-x,1/2+y,z
1/2+x,-y,1/2+z
loop_
_atom_site_type_symbol
_atom_site_label
_atom_site_fract_x
_atom_site_fract_y
_atom_site_fract_z
Si Si1 0.375185 0.780534 0.298272
Si Si2 0.619408 0.068773 0.410352
Si Si3 0.178799 0.574762 0.982218
Si Si4 0.373555 0.778915 0.631926
Si Si5 0.299588 0.932977 0.330463
Si Si6 0.122418 0.277351 0.964053
O O1 0.500000 0.755505 0.291603
O O2 0.321423 0.761802 0.210053
O O3 0.370797 0.863764 0.313752
O O4 0.321925 0.739651 0.376401
O O5 0.500000 0.074501 0.448271
O O6 0.699341 0.069873 0.484529
O O7 0.640717 0.137215 0.353982
O O8 0.626842 0.996914 0.360883
O O9 0.114250 0.638482 0.022443
O O10 0.117907 0.500000 0.000000
O O11 0.196974 0.585958 0.887898
O O12 0.500000 0.755980 0.625954
O O13 0.321531 0.759527 0.542917
O O14 0.250000 0.962933 0.250000
O O15 0.000000 0.247207 0.956949
#
# Coordination Sequence:
#
# PCOD8263774 Si02
#       6
#    16  16  16  16  16  16
#     4  10  21  37  60  87 113 151 200 243 296 361
#     4  10  22  41  63  85 118 161 202 250 300 352
#     4  10  23  39  58  87 117 152 201 245 295 361
#     4   9  19  36  58  86 116 149 195 245 295 354
#     4  11  23  37  56  86 121 154 196 246 301 358
#     4  10  21  39  61  86 119 156 196 246 302 360
#
# _framework density 24.613643
#
# number of rings (size 3 to 8) (size 9 to 14) (size 15 to 20)
#    0.000    2.000    0.000    2.500    0.000   12.000 
#    0.000    0.833    0.000    1.000    0.000    0.000 
#    0.000    0.000    0.000    0.000    0.000    0.000 
#
# Total GULP energy -595223.590944 kJ/mol
# GULP energy per Si atom -12400.491478 kJ/mol
# Density = 2.455762 g / cm^3
# Si number density = 24.613643 Si / 1000 Ang^3
#
#
#
# Elastic Constant Matrix: (Units=GPa)
#
#
# Indices 1 2 3 4 5 6 
#
# 1 41.2723 5.5609 55.3031 0.0000 0.0000 0.0000
# 2 5.5609 178.1535 68.7646 0.0000 0.0000 0.0000
# 3 55.3031 68.7646 213.0724 0.0000 0.0000 0.0000
# 4 0.0000 0.0000 0.0000 38.0417 0.0000 0.0000
# 5 0.0000 0.0000 0.0000 0.0000 32.5642 0.0000
# 6 0.0000 0.0000 0.0000 0.0000 0.0000 27.2272
#
#
#
# Elastic Compliance Matrix: (Units=1/GPa)
#
#
# Indices 1 2 3 4 5 6 
#
# 1 0.038535 0.003036 -0.010982 0.000000 0.000000 0.000000
# 2 0.003036 0.006651 -0.002934 0.000000 0.000000 0.000000
# 3 -0.010982 -0.002934 0.008491 0.000000 0.000000 0.000000
# 4 0.000000 0.000000 0.000000 0.026287 0.000000 0.000000
# 5 0.000000 0.000000 0.000000 0.000000 0.030709 0.000000
# 6 0.000000 0.000000 0.000000 0.000000 0.000000 0.036728
#
#
# Mechanical properties :
#
#
# Convention : Reuss Voigt Hill
#
# Bulk Modulus (GPa) = 31.33179 76.86171 54.09675
# Shear Modulus (GPa) = 27.80877 39.75793 33.78335
#
# Velocity S-wave (km/s) = 3.36491 4.02341 3.70881
# Velocity P-wave (km/s) = 5.27768 7.27179 6.35346
#
# Compressibility (1/GPa) = 0.03191646
#
# Stress axis : x y z
#
# Youngs Moduli (GPa) = 25.95031 150.35263 117.77793
#
# Poissons Ratio (x) = -0.45646 1.29339
# Poissons Ratio (y) = -0.07878 0.34561
# Poissons Ratio (z) = 0.28498 0.44120
#
# Static dielectric constant tensor:
#      x y z
#    x 4.327440 0.000000 0.000000 
#    y 0.000000 4.585490 0.000000 
#    z 0.000000 0.000000 4.778770 
# 
# 
# High freq. dielectric constant tensor:
#      x y z
#    x 1.998020 0.000000 0.000000 
#    y 0.000000 1.977180 0.000000 
#    z 0.000000 0.000000 1.994450 
# 
# From -- ./inp_files/23919.got.cif
#   From: 2010.03.12/outbox.cif.g09.slc.cpg/sg64_12_cif.got.tgz:23919.got - 2010.04.10 20:19:32.
