data_PCOD8263389
_publ_section_title
;
Structure prediction by ZEFSAII (Michael W. Deem and Ramdas Pophale) SiO2 
 PCOD8263389
Probable space group: C M C A
;
_chemical_formula_sum "Si O2"
_cell_formula_units_Z 104
_cell_length_a 28.201464
_cell_length_b 10.054292
_cell_length_c 18.712352
_cell_angle_alpha 90.000000
_cell_angle_beta 90.000000
_cell_angle_gamma 90.000000
_cell_volume 5305.807955
_symmetry_space_group_name_H-M "C M C A"
_symmetry_group_IT_number 64
_symmetry_cell_setting 'orthorhombic'
loop_
_space_group_symop_operation_xyz
x,y,z
-x,1/2-y,1/2+z
x,-y,-z
-x,1/2+y,1/2-z
-x,-y,-z
x,1/2+y,1/2-z
-x,y,z
x,1/2-y,1/2+z
1/2+x,1/2+y,z
1/2-x,-y,1/2+z
1/2+x,1/2-y,-z
1/2-x,y,1/2-z
1/2-x,1/2-y,-z
1/2+x,y,1/2-z
1/2-x,1/2+y,z
1/2+x,-y,1/2+z
loop_
_atom_site_type_symbol
_atom_site_label
_atom_site_fract_x
_atom_site_fract_y
_atom_site_fract_z
Si Si1 0.944643 0.643796 0.966260
Si Si2 0.171022 0.672621 0.646168
Si Si3 0.947177 0.412795 0.195708
Si Si4 0.330953 0.374174 0.843536
Si Si5 0.597839 0.686992 0.268026
Si Si6 0.250000 0.274701 0.750000
Si Si7 0.138240 0.845757 0.996123
O O1 0.932937 0.636908 0.882597
O O2 0.909398 0.754887 0.999482
O O3 0.000000 0.683834 0.980358
O O4 0.933783 0.500000 0.000000
O O5 0.152344 0.525547 0.661099
O O6 0.128967 0.774587 0.663775
O O7 0.218027 0.690405 0.694407
O O8 0.175582 0.688973 0.560084
O O9 0.916150 0.535526 0.222116
O O10 0.944400 0.291411 0.252894
O O11 0.000000 0.468296 0.194280
O O12 0.369420 0.288731 0.801274
O O13 0.280417 0.363800 0.804200
O O14 0.330615 0.320511 0.924712
O O15 0.121478 0.000000 0.000000
#
# Coordination Sequence:
#
# PCOD8263389 Si02
#       7
#    16  16  16  16  16   8  16
#     4  10  21  38  57  85 123 159 204 250 297 353
#     4  10  21  38  60  86 117 153 200 241 306 360
#     4  11  22  36  58  87 120 160 205 252 297 351
#     4  10  20  38  59  83 120 152 197 251 299 362
#     4  11  20  37  59  84 119 158 199 248 301 355
#     4  10  22  36  62  90 116 156 196 252 306 360
#     4  10  21  38  61  86 118 162 198 247 299 361
#
# _framework density 19.601161999999999
#
# number of rings (size 3 to 8) (size 9 to 14) (size 15 to 20)
#    0.000    1.692    3.077    1.846    0.000    0.923 
#    0.000    0.769    0.000    0.000    0.000    0.000 
#    0.000    0.000    0.000    0.000    0.000    0.000 
#
# Total GULP energy -644295.466114 kJ/mol
# GULP energy per Si atom -12390.297425 kJ/mol
# Density = 1.955655 g / cm^3
# Si number density = 19.601162 Si / 1000 Ang^3
#
#
#
# Elastic Constant Matrix: (Units=GPa)
#
#
# Indices 1 2 3 4 5 6 
#
# 1 79.8925 27.9876 54.5716 0.0000 0.0000 0.0000
# 2 27.9876 79.1628 34.0568 0.0000 0.0000 0.0000
# 3 54.5716 34.0568 132.8305 0.0000 0.0000 0.0000
# 4 0.0000 0.0000 0.0000 27.7795 0.0000 0.0000
# 5 0.0000 0.0000 0.0000 0.0000 31.4215 0.0000
# 6 0.0000 0.0000 0.0000 0.0000 0.0000 31.2983
#
#
#
# Elastic Compliance Matrix: (Units=1/GPa)
#
#
# Indices 1 2 3 4 5 6 
#
# 1 0.018284 -0.003633 -0.006580 0.000000 0.000000 0.000000
# 2 -0.003633 0.014920 -0.002333 0.000000 0.000000 0.000000
# 3 -0.006580 -0.002333 0.010830 0.000000 0.000000 0.000000
# 4 0.000000 0.000000 0.000000 0.035998 0.000000 0.000000
# 5 0.000000 0.000000 0.000000 0.000000 0.031825 0.000000
# 6 0.000000 0.000000 0.000000 0.000000 0.000000 0.031951
#
#
# Mechanical properties :
#
#
# Convention : Reuss Voigt Hill
#
# Bulk Modulus (GPa) = 52.79344 58.34641 55.56992
# Shear Modulus (GPa) = 28.53632 29.78452 29.16042
#
# Velocity S-wave (km/s) = 3.81970 3.90234 3.86124
# Velocity P-wave (km/s) = 6.81511 7.08066 6.94916
#
# Compressibility (1/GPa) = 0.01894175
#
# Stress axis : x y z
#
# Youngs Moduli (GPa) = 54.69131 67.02261 92.33675
#
# Poissons Ratio (x) = 0.24352 0.60761
# Poissons Ratio (y) = 0.19872 0.21540
# Poissons Ratio (z) = 0.35989 0.15635
#
# Static dielectric constant tensor:
#      x y z
#    x 3.395550 0.000000 0.000000 
#    y 0.000000 3.439400 0.000000 
#    z 0.000000 0.000000 3.786690 
# 
# 
# High freq. dielectric constant tensor:
#      x y z
#    x 1.748080 0.000000 0.000000 
#    y 0.000000 1.762660 0.000000 
#    z 0.000000 0.000000 1.778170 
# 
# From -- ./inp_files/41873.got.cif
#   From: 2010.03.12/outbox.cif.g09.slc.cpg/sg64_21_cif.got.tgz:41873.got - 2010.04.10 20:19:32.
