data_PCOD8263444
_publ_section_title
;
Structure prediction by ZEFSAII (Michael W. Deem and Ramdas Pophale) SiO2 
 PCOD8263444
Probable space group: C M C A
;
_chemical_formula_sum "Si O2"
_cell_formula_units_Z 112
_cell_length_a 27.031603
_cell_length_b 16.123546
_cell_length_c 12.597538
_cell_angle_alpha 90.000000
_cell_angle_beta 90.000000
_cell_angle_gamma 90.000000
_cell_volume 5490.577659
_symmetry_space_group_name_H-M "C M C A"
_symmetry_group_IT_number 64
_symmetry_cell_setting 'orthorhombic'
loop_
_space_group_symop_operation_xyz
x,y,z
-x,1/2-y,1/2+z
x,-y,-z
-x,1/2+y,1/2-z
-x,-y,-z
x,1/2+y,1/2-z
-x,y,z
x,1/2-y,1/2+z
1/2+x,1/2+y,z
1/2-x,-y,1/2+z
1/2+x,1/2-y,-z
1/2-x,y,1/2-z
1/2-x,1/2-y,-z
1/2+x,y,1/2-z
1/2-x,1/2+y,z
1/2+x,-y,1/2+z
loop_
_atom_site_type_symbol
_atom_site_label
_atom_site_fract_x
_atom_site_fract_y
_atom_site_fract_z
Si Si1 0.944970 0.913687 0.373327
Si Si2 0.730003 0.827068 0.365066
Si Si3 0.945052 0.860590 0.142587
Si Si4 0.147031 0.041793 0.892702
Si Si5 0.410331 0.312899 0.563099
Si Si6 0.133134 0.451052 0.821738
Si Si7 0.303987 0.659093 0.452206
O O1 0.937231 0.856965 0.269424
O O2 0.944955 0.857518 0.477631
O O3 0.899048 0.977527 0.379418
O O4 0.000000 0.956243 0.368385
O O5 0.750000 0.845324 0.250000
O O6 0.678786 0.876300 0.371752
O O7 0.722920 0.728514 0.379903
O O8 0.769565 0.863630 0.448629
O O9 0.909207 0.928745 0.091210
O O10 0.936180 0.770775 0.095377
O O11 0.000000 0.889382 0.112477
O O12 0.149143 0.974986 0.797042
O O13 0.166463 0.000000 0.000000
O O14 0.402108 0.369114 0.670244
O O15 0.356019 0.299971 0.508743
O O16 0.183628 0.426192 0.886562
#
# Coordination Sequence:
#
# PCOD8263444 Si02
#       7
#    16  16  16  16  16  16  16
#     4  10  21  36  61  93 126 160 200 257 311 358
#     4  11  24  42  67  90 124 162 206 256 313 361
#     4  10  22  41  62  91 125 164 207 246 305 369
#     4  11  24  42  62  94 125 165 203 252 310 372
#     4  10  20  38  64  88 120 164 210 253 299 363
#     4   9  22  39  61  88 127 161 198 260 305 365
#     4   9  23  42  61  94 118 165 207 254 302 370
#
# _framework density 20.398582999999999
#
# number of rings (size 3 to 8) (size 9 to 14) (size 15 to 20)
#    0.857    1.143    1.429    0.857    4.000    6.571 
#    0.000    0.000    0.000    0.000    0.000    0.000 
#    0.000    0.000    0.000    0.000    0.000    0.000 
#
# Total GULP energy -693920.827761 kJ/mol
# GULP energy per Si atom -12391.443353 kJ/mol
# Density = 2.035215 g / cm^3
# Si number density = 20.398583 Si / 1000 Ang^3
#
#
#
# Elastic Constant Matrix: (Units=GPa)
#
#
# Indices 1 2 3 4 5 6 
#
# 1 115.1444 37.2346 44.5471 0.0000 0.0000 0.0000
# 2 37.2346 78.0806 49.0330 0.0000 0.0000 0.0000
# 3 44.5471 49.0330 112.4901 0.0000 0.0000 0.0000
# 4 0.0000 0.0000 0.0000 23.7372 0.0000 0.0000
# 5 0.0000 0.0000 0.0000 0.0000 29.1823 0.0000
# 6 0.0000 0.0000 0.0000 0.0000 0.0000 30.7002
#
#
#
# Elastic Compliance Matrix: (Units=1/GPa)
#
#
# Indices 1 2 3 4 5 6 
#
# 1 0.010881 -0.003419 -0.002819 0.000000 0.000000 0.000000
# 2 -0.003419 0.018708 -0.006801 0.000000 0.000000 0.000000
# 3 -0.002819 -0.006801 0.012970 0.000000 0.000000 0.000000
# 4 0.000000 0.000000 0.000000 0.042128 0.000000 0.000000
# 5 0.000000 0.000000 0.000000 0.000000 0.034267 0.000000
# 6 0.000000 0.000000 0.000000 0.000000 0.000000 0.032573
#
#
# Mechanical properties :
#
#
# Convention : Reuss Voigt Hill
#
# Bulk Modulus (GPa) = 60.66902 63.03827 61.85365
# Shear Modulus (GPa) = 27.30767 28.38399 27.84583
#
# Velocity S-wave (km/s) = 3.66280 3.73429 3.69872
# Velocity P-wave (km/s) = 6.90612 7.04014 6.97345
#
# Compressibility (1/GPa) = 0.01648288
#
# Stress axis : x y z
#
# Youngs Moduli (GPa) = 91.90542 53.45197 77.09885
#
# Poissons Ratio (x) = 0.18273 0.21732
# Poissons Ratio (y) = 0.31419 0.52434
# Poissons Ratio (z) = 0.25906 0.36352
#
# Static dielectric constant tensor:
#      x y z
#    x 3.820910 0.000000 0.000000 
#    y 0.000000 3.496460 0.000000 
#    z 0.000000 0.000000 3.524440 
# 
# 
# High freq. dielectric constant tensor:
#      x y z
#    x 1.807760 0.000000 0.000000 
#    y 0.000000 1.784880 0.000000 
#    z 0.000000 0.000000 1.784710 
# 
# From -- ./inp_files/19881.got.cif
#   From: 2010.03.12/outbox.cif.g09.slc.cpg/sg64_10_cif.got.tgz:19881.got - 2010.04.10 20:19:32.
