data_PCOD8263606
_publ_section_title
;
Structure prediction by ZEFSAII (Michael W. Deem and Ramdas Pophale) SiO2 
 PCOD8263606
Probable space group: C M C A
;
_chemical_formula_sum "Si O2"
_cell_formula_units_Z 56
_cell_length_a 14.712329
_cell_length_b 32.839362
_cell_length_c 5.186560
_cell_angle_alpha 90.000000
_cell_angle_beta 90.000000
_cell_angle_gamma 90.000000
_cell_volume 2505.852740
_symmetry_space_group_name_H-M "C M C A"
_symmetry_group_IT_number 64
_symmetry_cell_setting 'orthorhombic'
loop_
_space_group_symop_operation_xyz
x,y,z
-x,1/2-y,1/2+z
x,-y,-z
-x,1/2+y,1/2-z
-x,-y,-z
x,1/2+y,1/2-z
-x,y,z
x,1/2-y,1/2+z
1/2+x,1/2+y,z
1/2-x,-y,1/2+z
1/2+x,1/2-y,-z
1/2-x,y,1/2-z
1/2-x,1/2-y,-z
1/2+x,y,1/2-z
1/2-x,1/2+y,z
1/2+x,-y,1/2+z
loop_
_atom_site_type_symbol
_atom_site_label
_atom_site_fract_x
_atom_site_fract_y
_atom_site_fract_z
Si Si1 0.649967 0.767302 0.046633
Si Si2 0.750000 0.525545 0.250000
Si Si3 0.893993 0.407742 0.646480
Si Si4 0.394568 0.356709 0.347204
O O1 0.598628 0.757516 0.777010
O O2 0.750000 0.750000 0.000000
O O3 0.658239 0.814708 0.113756
O O4 0.718084 0.500000 0.500000
O O5 0.835868 0.551318 0.350287
O O6 0.860575 0.379219 0.411149
O O7 0.000000 0.419112 0.612730
O O8 0.873742 0.385284 0.912320
O O9 0.500000 0.345731 0.326269
#
# Coordination Sequence:
#
# PCOD8263606 Si02
#       4
#    16   8  16  16
#     4  10  21  34  51  81 117 155 202 251 305 350
#     4  12  26  42  66 100 128 156 194 244 312 384
#     4  10  23  43  66  91 122 163 207 253 305 366
#     4  10  21  39  61  85 118 164 214 258 302 360
#
# _framework density 22.347681000000001
#
# number of rings (size 3 to 8) (size 9 to 14) (size 15 to 20)
#    0.000    1.714    0.000    3.429    0.000    9.143 
#    0.000    0.000    0.000    0.000    0.000    0.000 
#    0.000    0.000    0.000    0.000    0.000    0.000 
#
# Total GULP energy -347155.095078 kJ/mol
# GULP energy per Si atom -12398.396253 kJ/mol
# Density = 2.229682 g / cm^3
# Si number density = 22.347681 Si / 1000 Ang^3
#
#
#
# Elastic Constant Matrix: (Units=GPa)
#
#
# Indices 1 2 3 4 5 6 
#
# 1 58.9525 60.0923 37.8800 0.0000 0.0000 0.0000
# 2 60.0923 141.6232 49.5246 0.0000 0.0000 0.0000
# 3 37.8800 49.5246 181.1722 0.0000 0.0000 0.0000
# 4 0.0000 0.0000 0.0000 49.9168 0.0000 0.0000
# 5 0.0000 0.0000 0.0000 0.0000 15.1538 0.0000
# 6 0.0000 0.0000 0.0000 0.0000 0.0000 10.4246
#
#
#
# Elastic Compliance Matrix: (Units=1/GPa)
#
#
# Indices 1 2 3 4 5 6 
#
# 1 0.031527 -0.012242 -0.003245 0.000000 0.000000 0.000000
# 2 -0.012242 0.012561 -0.000874 0.000000 0.000000 0.000000
# 3 -0.003245 -0.000874 0.006437 0.000000 0.000000 0.000000
# 4 0.000000 0.000000 0.000000 0.020033 0.000000 0.000000
# 5 0.000000 0.000000 0.000000 0.000000 0.065990 0.000000
# 6 0.000000 0.000000 0.000000 0.000000 0.000000 0.095927
#
#
# Mechanical properties :
#
#
# Convention : Reuss Voigt Hill
#
# Bulk Modulus (GPa) = 56.17337 75.19352 65.68345
# Shear Modulus (GPa) = 18.44113 30.71580 24.57846
#
# Velocity S-wave (km/s) = 2.87573 3.71138 3.31995
# Velocity P-wave (km/s) = 6.01807 7.21706 6.64466
#
# Compressibility (1/GPa) = 0.01780203
#
# Stress axis : x y z
#
# Youngs Moduli (GPa) = 31.71864 79.60996 155.35075
#
# Poissons Ratio (x) = 0.97462 0.50415
# Poissons Ratio (y) = 0.38832 0.13578
# Poissons Ratio (z) = 0.10293 0.06958
#
# Static dielectric constant tensor:
#      x y z
#    x 3.748790 0.000000 0.000000 
#    y 0.000000 3.892890 0.000000 
#    z 0.000000 0.000000 1.483990 
# 
# 
# High freq. dielectric constant tensor:
#      x y z
#    x 1.868300 0.000000 0.000000 
#    y 0.000000 1.874910 0.000000 
#    z 0.000000 0.000000 1.916440 
# 
# From -- ./inp_files/883.got.cif
#   From: 2010.03.12/outbox.cif.g09.slc.cpg/sg64_1_cif.got.tgz:883.got - 2010.04.10 20:19:32.
