data_PCOD8263643
_publ_section_title
;
Structure prediction by ZEFSAII (Michael W. Deem and Ramdas Pophale) SiO2 
 PCOD8263643
Probable space group: C M C A
;
_chemical_formula_sum "Si O2"
_cell_formula_units_Z 96
_cell_length_a 17.639107
_cell_length_b 23.429272
_cell_length_c 11.789583
_cell_angle_alpha 90.000000
_cell_angle_beta 90.000000
_cell_angle_gamma 90.000000
_cell_volume 4872.297893
_symmetry_space_group_name_H-M "C M C A"
_symmetry_group_IT_number 64
_symmetry_cell_setting 'orthorhombic'
loop_
_space_group_symop_operation_xyz
x,y,z
-x,1/2-y,1/2+z
x,-y,-z
-x,1/2+y,1/2-z
-x,-y,-z
x,1/2+y,1/2-z
-x,y,z
x,1/2-y,1/2+z
1/2+x,1/2+y,z
1/2-x,-y,1/2+z
1/2+x,1/2-y,-z
1/2-x,y,1/2-z
1/2-x,1/2-y,-z
1/2+x,y,1/2-z
1/2-x,1/2+y,z
1/2+x,-y,1/2+z
loop_
_atom_site_type_symbol
_atom_site_label
_atom_site_fract_x
_atom_site_fract_y
_atom_site_fract_z
Si Si1 0.159318 0.873765 0.745232
Si Si2 0.851622 0.437372 0.529941
Si Si3 0.325224 0.836953 0.109282
Si Si4 0.587352 0.717014 0.404756
Si Si5 0.847042 0.165865 0.865557
Si Si6 0.178198 0.558428 0.034329
O O1 0.250000 0.864518 0.750000
O O2 0.120825 0.901134 0.858359
O O3 0.124297 0.812191 0.708299
O O4 0.136388 0.916123 0.643425
O O5 0.890179 0.500000 0.500000
O O6 0.864799 0.395232 0.423610
O O7 0.765960 0.451999 0.563816
O O8 0.238785 0.814329 0.107458
O O9 0.361770 0.837713 0.232281
O O10 0.373645 0.800978 0.021607
O O11 0.326405 0.902665 0.075415
O O12 0.500000 0.699815 0.408564
O O13 0.596015 0.785228 0.406051
O O14 0.137116 0.500000 0.000000
#
# Coordination Sequence:
#
# PCOD8263643 Si02
#       6
#    16  16  16  16  16  16
#     4   9  19  34  57  85 119 156 191 237 291 345
#     4   9  18  32  54  88 117 143 190 241 294 343
#     4   9  20  36  56  85 115 150 193 239 287 348
#     4  11  24  39  59  84 115 156 199 243 287 342
#     4  10  21  35  59  87 115 152 189 238 296 347
#     4   8  15  29  53  84 116 148 186 237 285 336
#
# _framework density 19.703227999999999
#
# number of rings (size 3 to 8) (size 9 to 14) (size 15 to 20)
#    0.000    2.667    0.000    1.500    7.000    0.667 
#    0.000    0.000    0.000   10.000    0.000    0.000 
#    0.000    0.000    0.000    0.000    0.000    0.000 
#
# Total GULP energy -594710.870906 kJ/mol
# GULP energy per Si atom -12389.809811 kJ/mol
# Density = 1.965838 g / cm^3
# Si number density = 19.703228 Si / 1000 Ang^3
#
#
#
# Elastic Constant Matrix: (Units=GPa)
#
#
# Indices 1 2 3 4 5 6 
#
# 1 48.5018 21.4792 30.2254 0.0000 0.0000 0.0000
# 2 21.4792 118.9002 48.9020 0.0000 0.0000 0.0000
# 3 30.2254 48.9020 133.8194 0.0000 0.0000 0.0000
# 4 0.0000 0.0000 0.0000 22.5629 0.0000 0.0000
# 5 0.0000 0.0000 0.0000 0.0000 9.2362 0.0000
# 6 0.0000 0.0000 0.0000 0.0000 0.0000 0.8907
#
#
#
# Elastic Compliance Matrix: (Units=1/GPa)
#
#
# Indices 1 2 3 4 5 6 
#
# 1 0.024632 -0.002544 -0.004634 0.000000 0.000000 0.000000
# 2 -0.002544 0.010161 -0.003139 0.000000 0.000000 0.000000
# 3 -0.004634 -0.003139 0.009666 0.000000 0.000000 0.000000
# 4 0.000000 0.000000 0.000000 0.044321 0.000000 0.000000
# 5 0.000000 0.000000 0.000000 0.000000 0.108270 0.000000
# 6 0.000000 0.000000 0.000000 0.000000 0.000000 1.122762
#
#
# Mechanical properties :
#
#
# Convention : Reuss Voigt Hill
#
# Bulk Modulus (GPa) = 41.96996 55.82606 48.89801
# Shear Modulus (GPa) = 3.70813 19.91226 11.81020
#
# Velocity S-wave (km/s) = 1.37335 3.18246 2.45093
# Velocity P-wave (km/s) = 4.88488 6.47294 5.73416
#
# Compressibility (1/GPa) = 0.02382656
#
# Stress axis : x y z
#
# Youngs Moduli (GPa) = 40.59732 98.41756 103.45177
#
# Poissons Ratio (x) = 0.25036 0.47939
# Poissons Ratio (y) = 0.10327 0.32468
# Poissons Ratio (z) = 0.18813 0.30888
#
# Static dielectric constant tensor:
#      x y z
#    x 3.077860 0.000000 0.000000 
#    y 0.000000 3.797030 0.000000 
#    z 0.000000 0.000000 3.789330 
# 
# 
# High freq. dielectric constant tensor:
#      x y z
#    x 1.709110 0.000000 0.000000 
#    y 0.000000 1.777310 0.000000 
#    z 0.000000 0.000000 1.778660 
# 
# From -- ./inp_files/17479.got.cif
#   From: 2010.03.12/outbox.cif.g09.slc.cpg/sg64_9_cif.got.tgz:17479.got - 2010.04.10 20:19:32.
