data_PCOD8263689
_publ_section_title
;
Structure prediction by ZEFSAII (Michael W. Deem and Ramdas Pophale) SiO2 
 PCOD8263689
Probable space group: C M C A
;
_chemical_formula_sum "Si O2"
_cell_formula_units_Z 88
_cell_length_a 24.469214
_cell_length_b 17.640442
_cell_length_c 9.830472
_cell_angle_alpha 90.000000
_cell_angle_beta 90.000000
_cell_angle_gamma 90.000000
_cell_volume 4243.301124
_symmetry_space_group_name_H-M "C M C A"
_symmetry_group_IT_number 64
_symmetry_cell_setting 'orthorhombic'
loop_
_space_group_symop_operation_xyz
x,y,z
-x,1/2-y,1/2+z
x,-y,-z
-x,1/2+y,1/2-z
-x,-y,-z
x,1/2+y,1/2-z
-x,y,z
x,1/2-y,1/2+z
1/2+x,1/2+y,z
1/2-x,-y,1/2+z
1/2+x,1/2-y,-z
1/2-x,y,1/2-z
1/2-x,1/2-y,-z
1/2+x,y,1/2-z
1/2-x,1/2+y,z
1/2+x,-y,1/2+z
loop_
_atom_site_type_symbol
_atom_site_label
_atom_site_fract_x
_atom_site_fract_y
_atom_site_fract_z
Si Si1 0.750000 0.162230 0.250000
Si Si2 0.393923 0.719515 0.642543
Si Si3 0.827178 0.082497 0.050822
Si Si4 0.563906 0.916720 0.977481
Si Si5 0.676031 0.274063 0.096629
Si Si6 0.438476 0.874174 0.672425
O O1 0.795953 0.106852 0.188473
O O2 0.724987 0.218634 0.137569
O O3 0.415904 0.638045 0.597751
O O4 0.343784 0.742403 0.547592
O O5 0.372742 0.720009 0.795894
O O6 0.440333 0.784634 0.636755
O O7 0.892889 0.085229 0.078459
O O8 0.806746 0.138941 0.931233
O O9 0.810054 0.000000 0.000000
O O10 0.500000 0.923010 0.994482
O O11 0.579638 0.885271 0.829367
O O12 0.590427 0.000000 0.000000
O O13 0.500000 0.906777 0.645930
#
# Coordination Sequence:
#
# PCOD8263689 Si02
#       6
#     8  16  16  16  16  16
#     4  12  22  48  68  92 132 170 220 280 326 386
#     4  11  20  41  63  96 121 172 216 268 314 395
#     4  11  26  43  64 101 132 168 221 276 333 400
#     4  10  21  36  58  91 128 170 214 266 328 384
#     4  11  23  41  70  90 126 166 220 266 329 383
#     4  10  21  41  64  90 131 172 219 271 319 392
#
# _framework density 20.738569999999999
#
# number of rings (size 3 to 8) (size 9 to 14) (size 15 to 20)
#    0.000    1.273    5.455    1.091    2.545    1.091 
#    0.000    1.818    0.000    0.000    0.000    0.000 
#    0.000    0.000    0.000    0.000    0.000    0.000 
#
# Total GULP energy -545445.549143 kJ/mol
# GULP energy per Si atom -12396.489753 kJ/mol
# Density = 2.069137 g / cm^3
# Si number density = 20.738570 Si / 1000 Ang^3
#
#
#
# Elastic Constant Matrix: (Units=GPa)
#
#
# Indices 1 2 3 4 5 6 
#
# 1 77.3860 33.9352 26.3196 0.0000 0.0000 0.0000
# 2 33.9352 164.6648 38.1407 0.0000 0.0000 0.0000
# 3 26.3196 38.1407 52.1438 0.0000 0.0000 0.0000
# 4 0.0000 0.0000 0.0000 31.2811 0.0000 0.0000
# 5 0.0000 0.0000 0.0000 0.0000 19.4823 0.0000
# 6 0.0000 0.0000 0.0000 0.0000 0.0000 18.8491
#
#
#
# Elastic Compliance Matrix: (Units=1/GPa)
#
#
# Indices 1 2 3 4 5 6 
#
# 1 0.015994 -0.001717 -0.006817 0.000000 0.000000 0.000000
# 2 -0.001717 0.007496 -0.004616 0.000000 0.000000 0.000000
# 3 -0.006817 -0.004616 0.025995 0.000000 0.000000 0.000000
# 4 0.000000 0.000000 0.000000 0.031968 0.000000 0.000000
# 5 0.000000 0.000000 0.000000 0.000000 0.051329 0.000000
# 6 0.000000 0.000000 0.000000 0.000000 0.000000 0.053053
#
#
# Mechanical properties :
#
#
# Convention : Reuss Voigt Hill
#
# Bulk Modulus (GPa) = 43.13244 54.55395 48.84320
# Shear Modulus (GPa) = 22.74142 26.97578 24.85860
#
# Velocity S-wave (km/s) = 3.31505 3.61051 3.46593
# Velocity P-wave (km/s) = 5.95786 6.61390 6.29443
#
# Compressibility (1/GPa) = 0.02318440
#
# Stress axis : x y z
#
# Youngs Moduli (GPa) = 62.52473 133.40317 38.46879
#
# Poissons Ratio (x) = 0.22907 0.26223
# Poissons Ratio (y) = 0.10736 0.17758
# Poissons Ratio (z) = 0.42622 0.61583
#
# Static dielectric constant tensor:
#      x y z
#    x 3.558130 0.000000 0.000000 
#    y 0.000000 4.052500 0.000000 
#    z 0.000000 0.000000 3.797240 
# 
# 
# High freq. dielectric constant tensor:
#      x y z
#    x 1.803090 0.000000 0.000000 
#    y 0.000000 1.811090 0.000000 
#    z 0.000000 0.000000 1.812600 
# 
# From -- ./inp_files/18183.got.cif
#   From: 2010.03.12/outbox.cif.g09.slc.cpg/sg64_10_cif.got.tgz:18183.got - 2010.04.10 20:19:32.
