data_PCOD8263445
_publ_section_title
;
Structure prediction by ZEFSAII (Michael W. Deem and Ramdas Pophale) SiO2 
 PCOD8263445
Probable space group: C M C A
;
_chemical_formula_sum "Si O2"
_cell_formula_units_Z 104
_cell_length_a 21.397331
_cell_length_b 9.244569
_cell_length_c 28.819554
_cell_angle_alpha 90.000000
_cell_angle_beta 90.000000
_cell_angle_gamma 90.000000
_cell_volume 5700.770121
_symmetry_space_group_name_H-M "C M C A"
_symmetry_group_IT_number 64
_symmetry_cell_setting 'orthorhombic'
loop_
_space_group_symop_operation_xyz
x,y,z
-x,1/2-y,1/2+z
x,-y,-z
-x,1/2+y,1/2-z
-x,-y,-z
x,1/2+y,1/2-z
-x,y,z
x,1/2-y,1/2+z
1/2+x,1/2+y,z
1/2-x,-y,1/2+z
1/2+x,1/2-y,-z
1/2-x,y,1/2-z
1/2-x,1/2-y,-z
1/2+x,y,1/2-z
1/2-x,1/2+y,z
1/2+x,-y,1/2+z
loop_
_atom_site_type_symbol
_atom_site_label
_atom_site_fract_x
_atom_site_fract_y
_atom_site_fract_z
Si Si1 0.796504 0.342864 0.389685
Si Si2 0.500000 0.431500 0.924958
Si Si3 0.000000 0.271621 0.480337
Si Si4 0.320220 0.156251 0.952029
Si Si5 0.129621 0.357307 0.951287
Si Si6 0.129295 0.127016 0.115407
Si Si7 0.205185 0.746927 0.811377
Si Si8 0.750000 0.499594 0.750000
O O1 0.748119 0.374449 0.431289
O O2 0.852169 0.240747 0.407699
O O3 0.827093 0.490981 0.373034
O O4 0.764456 0.265703 0.345869
O O5 0.500000 0.587224 0.948508
O O6 0.557647 0.415909 0.889766
O O7 0.500000 0.310784 0.965185
O O8 0.939551 0.176446 0.469201
O O9 0.348650 0.305222 0.933147
O O10 0.366394 0.025028 0.936805
O O11 0.319059 0.169077 0.007803
O O12 0.141905 0.241132 0.157562
O O13 0.209447 0.895434 0.782577
O O14 0.202879 0.604823 0.778750
#
# Coordination Sequence:
#
# PCOD8263445 Si02
#       8
#    16   8   8  16  16  16  16   8
#     4  11  21  36  55  84 120 147 191 236 294 353
#     4  11  22  39  56  79 112 168 208 251 273 334
#     4  11  22  38  55  74 111 169 227 236 278 323
#     4  10  22  34  52  80 113 154 195 251 300 322
#     4  11  22  36  52  77 115 160 205 247 279 336
#     4  11  21  37  59  83 117 154 199 243 280 348
#     4  10  21  37  60  95 113 149 174 235 297 366
#     4  10  20  38  64  88 124 136 176 228 308 366
#
# _framework density 18.243148999999999
#
# number of rings (size 3 to 8) (size 9 to 14) (size 15 to 20)
#    0.000    1.385    4.615    2.308    2.154    3.692 
#    0.000    0.000    0.000    0.923    0.000    0.000 
#    0.000    0.000    0.000    0.000    0.000    0.000 
#
# Total GULP energy -644718.183847 kJ/mol
# GULP energy per Si atom -12398.426612 kJ/mol
# Density = 1.820163 g / cm^3
# Si number density = 18.243149 Si / 1000 Ang^3
#
#
#
# Elastic Constant Matrix: (Units=GPa)
#
#
# Indices 1 2 3 4 5 6 
#
# 1 98.9043 21.0910 30.9083 0.0000 0.0000 0.0000
# 2 21.0910 92.1743 30.9038 0.0000 0.0000 0.0000
# 3 30.9083 30.9038 83.8061 0.0000 0.0000 0.0000
# 4 0.0000 0.0000 0.0000 32.5333 0.0000 0.0000
# 5 0.0000 0.0000 0.0000 0.0000 16.5551 0.0000
# 6 0.0000 0.0000 0.0000 0.0000 0.0000 24.6404
#
#
#
# Elastic Compliance Matrix: (Units=1/GPa)
#
#
# Indices 1 2 3 4 5 6 
#
# 1 0.011582 -0.001390 -0.003759 0.000000 0.000000 0.000000
# 2 -0.001390 0.012546 -0.004114 0.000000 0.000000 0.000000
# 3 -0.003759 -0.004114 0.014836 0.000000 0.000000 0.000000
# 4 0.000000 0.000000 0.000000 0.030738 0.000000 0.000000
# 5 0.000000 0.000000 0.000000 0.000000 0.060404 0.000000
# 6 0.000000 0.000000 0.000000 0.000000 0.000000 0.040584
#
#
# Mechanical properties :
#
#
# Convention : Reuss Voigt Hill
#
# Bulk Modulus (GPa) = 48.92749 48.96565 48.94657
# Shear Modulus (GPa) = 25.50656 27.54452 26.52554
#
# Velocity S-wave (km/s) = 3.74323 3.88990 3.81727
# Velocity P-wave (km/s) = 6.74983 6.86105 6.80567
#
# Compressibility (1/GPa) = 0.02043841
#
# Stress axis : x y z
#
# Youngs Moduli (GPa) = 86.34194 79.70454 67.40511
#
# Poissons Ratio (x) = 0.11078 0.25337
# Poissons Ratio (y) = 0.12000 0.27730
# Poissons Ratio (z) = 0.32456 0.32790
#
# Static dielectric constant tensor:
#      x y z
#    x 3.138140 0.000000 0.000000 
#    y 0.000000 3.550960 0.000000 
#    z 0.000000 0.000000 3.370280 
# 
# 
# High freq. dielectric constant tensor:
#      x y z
#    x 1.677920 0.000000 0.000000 
#    y 0.000000 1.724940 0.000000 
#    z 0.000000 0.000000 1.696440 
# 
# From -- ./inp_files/53793.got.cif
#   From: 2010.03.12/outbox.cif.g09.slc.cpg/sg64_27_cif.got.tgz:53793.got - 2010.04.10 20:19:32.
