data_PCOD8263090
_publ_section_title
;
Structure prediction by ZEFSAII (Michael W. Deem and Ramdas Pophale) SiO2 
 PCOD8263090
Probable space group: C M C A
;
_chemical_formula_sum "Si O2"
_cell_formula_units_Z 96
_cell_length_a 15.810141
_cell_length_b 13.449043
_cell_length_c 19.236764
_cell_angle_alpha 90.000000
_cell_angle_beta 90.000000
_cell_angle_gamma 90.000000
_cell_volume 4090.337486
_symmetry_space_group_name_H-M "C M C A"
_symmetry_group_IT_number 64
_symmetry_cell_setting 'orthorhombic'
loop_
_space_group_symop_operation_xyz
x,y,z
-x,1/2-y,1/2+z
x,-y,-z
-x,1/2+y,1/2-z
-x,-y,-z
x,1/2+y,1/2-z
-x,y,z
x,1/2-y,1/2+z
1/2+x,1/2+y,z
1/2-x,-y,1/2+z
1/2+x,1/2-y,-z
1/2-x,y,1/2-z
1/2-x,1/2-y,-z
1/2+x,y,1/2-z
1/2-x,1/2+y,z
1/2+x,-y,1/2+z
loop_
_atom_site_type_symbol
_atom_site_label
_atom_site_fract_x
_atom_site_fract_y
_atom_site_fract_z
Si Si1 0.902700 0.695233 0.980277
Si Si2 0.183722 0.780738 0.341448
Si Si3 0.686215 0.123546 0.110154
Si Si4 0.902015 0.406553 0.457463
Si Si5 0.098986 0.613230 0.250344
Si Si6 0.205563 0.455290 0.333435
O O1 0.877382 0.674799 0.900818
O O2 0.000000 0.669524 0.989479
O O3 0.852974 0.624339 0.033341
O O4 0.882582 0.809928 0.997131
O O5 0.256071 0.719355 0.379564
O O6 0.131113 0.714538 0.286881
O O7 0.228423 0.873765 0.301983
O O8 0.611578 0.124651 0.168129
O O9 0.742724 0.026391 0.115531
O O10 0.865689 0.500000 0.500000
O O11 0.861127 0.397639 0.381505
O O12 0.000000 0.421324 0.442742
O O13 0.157423 0.519851 0.274286
O O14 0.000000 0.595714 0.268152
#
# Coordination Sequence:
#
# PCOD8263090 Si02
#       6
#    16  16  16  16  16  16
#     4  11  23  42  65  99 140 180 223 280 348 417
#     4  11  23  42  70 100 136 177 228 283 346 407
#     4  11  24  42  66  96 140 179 227 281 347 409
#     4  10  20  35  62  98 132 167 217 275 336 403
#     4  11  25  47  69  96 137 183 230 289 347 411
#     4  11  23  39  67  96 130 172 230 278 338 403
#
# _framework density 23.469946
#
# number of rings (size 3 to 8) (size 9 to 14) (size 15 to 20)
#    0.000    1.167    1.667    6.000    2.333    4.000 
#    0.000    5.833    0.000    0.000    0.000    0.000 
#    0.000    0.000    0.000    0.000    0.000    0.000 
#
# Total GULP energy -595230.301972 kJ/mol
# GULP energy per Si atom -12400.631291 kJ/mol
# Density = 2.341653 g / cm^3
# Si number density = 23.469946 Si / 1000 Ang^3
#
#
#
# Elastic Constant Matrix: (Units=GPa)
#
#
# Indices 1 2 3 4 5 6 
#
# 1 92.7054 42.9972 21.8171 0.0000 0.0000 0.0000
# 2 42.9972 71.6511 -0.0942 0.0000 0.0000 0.0000
# 3 21.8171 -0.0942 99.5637 0.0000 0.0000 0.0000
# 4 0.0000 0.0000 0.0000 3.9513 0.0000 0.0000
# 5 0.0000 0.0000 0.0000 0.0000 36.7167 0.0000
# 6 0.0000 0.0000 0.0000 0.0000 0.0000 32.3685
#
#
#
# Elastic Compliance Matrix: (Units=1/GPa)
#
#
# Indices 1 2 3 4 5 6 
#
# 1 0.016104 -0.009668 -0.003538 0.000000 0.000000 0.000000
# 2 -0.009668 0.019761 0.002137 0.000000 0.000000 0.000000
# 3 -0.003538 0.002137 0.010821 0.000000 0.000000 0.000000
# 4 0.000000 0.000000 0.000000 0.253079 0.000000 0.000000
# 5 0.000000 0.000000 0.000000 0.000000 0.027236 0.000000
# 6 0.000000 0.000000 0.000000 0.000000 0.000000 0.030894
#
#
# Mechanical properties :
#
#
# Convention : Reuss Voigt Hill
#
# Bulk Modulus (GPa) = 40.73634 43.70669 42.22151
# Shear Modulus (GPa) = 12.87945 27.88731 20.38338
#
# Velocity S-wave (km/s) = 2.34511 3.45079 2.95021
# Velocity P-wave (km/s) = 4.97265 5.87708 5.44368
#
# Compressibility (1/GPa) = 0.02454811
#
# Stress axis : x y z
#
# Youngs Moduli (GPa) = 62.09764 50.60421 92.41216
#
# Poissons Ratio (x) = 0.48926 0.32694
# Poissons Ratio (y) = 0.60038 -0.19751
# Poissons Ratio (z) = 0.21969 -0.10816
#
# Static dielectric constant tensor:
#      x y z
#    x 4.230150 0.000000 0.000000 
#    y 0.000000 4.365620 0.000000 
#    z 0.000000 0.000000 3.889950 
# 
# 
# High freq. dielectric constant tensor:
#      x y z
#    x 1.930130 0.000000 0.000000 
#    y 0.000000 1.929410 0.000000 
#    z 0.000000 0.000000 1.934820 
# 
# From -- ./inp_files/39175.got.cif
#   From: 2010.03.12/outbox.cif.g09.slc.cpg/sg64_20_cif.got.tgz:39175.got - 2010.04.10 20:19:32.
