data_PCOD8263025
_publ_section_title
;
Structure prediction by ZEFSAII (Michael W. Deem and Ramdas Pophale) SiO2 
 PCOD8263025
Probable space group: C M C A
;
_chemical_formula_sum "Si O2"
_cell_formula_units_Z 80
_cell_length_a 8.559314
_cell_length_b 15.728128
_cell_length_c 28.713686
_cell_angle_alpha 90.000000
_cell_angle_beta 90.000000
_cell_angle_gamma 90.000000
_cell_volume 3865.493440
_symmetry_space_group_name_H-M "C M C A"
_symmetry_group_IT_number 64
_symmetry_cell_setting 'orthorhombic'
loop_
_space_group_symop_operation_xyz
x,y,z
-x,1/2-y,1/2+z
x,-y,-z
-x,1/2+y,1/2-z
-x,-y,-z
x,1/2+y,1/2-z
-x,y,z
x,1/2-y,1/2+z
1/2+x,1/2+y,z
1/2-x,-y,1/2+z
1/2+x,1/2-y,-z
1/2-x,y,1/2-z
1/2-x,1/2-y,-z
1/2+x,y,1/2-z
1/2-x,1/2+y,z
1/2+x,-y,1/2+z
loop_
_atom_site_type_symbol
_atom_site_label
_atom_site_fract_x
_atom_site_fract_y
_atom_site_fract_z
Si Si1 0.185005 0.959019 0.854320
Si Si2 0.182136 0.718092 0.547810
Si Si3 0.814336 0.469823 0.450659
Si Si4 0.183079 0.219100 0.353817
Si Si5 0.315863 0.620776 0.698813
O O1 0.264245 0.872980 0.834848
O O2 0.000000 0.949397 0.850962
O O3 0.242250 0.971986 0.907741
O O4 0.235720 0.038885 0.823809
O O5 0.250000 0.750000 0.500000
O O6 0.248785 0.624698 0.559228
O O7 0.224737 0.778492 0.591117
O O8 0.000000 0.711719 0.540145
O O9 0.742449 0.500000 0.500000
O O10 0.000000 0.472107 0.452931
O O11 0.277182 0.293303 0.328668
O O12 0.000000 0.233595 0.344731
O O13 0.500000 0.606422 0.699767
O O14 0.250000 0.632319 0.750000
#
# Coordination Sequence:
#
# PCOD8263025 Si02
#       5
#    16  16  16  16  16
#     4  11  22  41  67  96 132 172 217 269 326 388
#     4  10  20  35  56  87 128 172 215 266 320 381
#     4   9  17  32  56  86 125 170 213 258 315 376
#     4  11  23  42  65  95 134 173 217 270 326 387
#     4  12  26  46  71  98 129 169 217 271 332 392
#
# _framework density 20.695937000000001
#
# number of rings (size 3 to 8) (size 9 to 14) (size 15 to 20)
#    0.000    1.400    2.000    4.200    0.000    4.000 
#    0.000    4.000    0.000    4.200    0.000    0.000 
#    0.000    0.000    0.000    0.000    0.000    0.000 
#
# Total GULP energy -496008.896571 kJ/mol
# GULP energy per Si atom -12400.222414 kJ/mol
# Density = 2.064883 g / cm^3
# Si number density = 20.695937 Si / 1000 Ang^3
#
#
#
# Elastic Constant Matrix: (Units=GPa)
#
#
# Indices 1 2 3 4 5 6 
#
# 1 51.2271 11.6817 23.4164 0.0000 0.0000 0.0000
# 2 11.6817 132.9773 23.1646 0.0000 0.0000 0.0000
# 3 23.4164 23.1646 91.6295 0.0000 0.0000 0.0000
# 4 0.0000 0.0000 0.0000 36.0535 0.0000 0.0000
# 5 0.0000 0.0000 0.0000 0.0000 31.5061 0.0000
# 6 0.0000 0.0000 0.0000 0.0000 0.0000 33.5453
#
#
#
# Elastic Compliance Matrix: (Units=1/GPa)
#
#
# Indices 1 2 3 4 5 6 
#
# 1 0.022231 -0.001008 -0.005427 0.000000 0.000000 0.000000
# 2 -0.001008 0.007912 -0.001743 0.000000 0.000000 0.000000
# 3 -0.005427 -0.001743 0.012741 0.000000 0.000000 0.000000
# 4 0.000000 0.000000 0.000000 0.027737 0.000000 0.000000
# 5 0.000000 0.000000 0.000000 0.000000 0.031740 0.000000
# 6 0.000000 0.000000 0.000000 0.000000 0.000000 0.029810
#
#
# Mechanical properties :
#
#
# Convention : Reuss Voigt Hill
#
# Bulk Modulus (GPa) = 37.69263 43.59546 40.64405
# Shear Modulus (GPa) = 31.77255 34.72574 33.24915
#
# Velocity S-wave (km/s) = 3.92242 4.10066 4.01253
# Velocity P-wave (km/s) = 6.22623 6.59781 6.41471
#
# Compressibility (1/GPa) = 0.02653038
#
# Stress axis : x y z
#
# Youngs Moduli (GPa) = 44.98172 126.38730 78.48748
#
# Poissons Ratio (x) = 0.12735 0.42592
# Poissons Ratio (y) = 0.04533 0.13678
# Poissons Ratio (z) = 0.24410 0.22026
#
# Static dielectric constant tensor:
#      x y z
#    x 3.590660 0.000000 0.000000 
#    y 0.000000 4.229410 0.000000 
#    z 0.000000 0.000000 3.898350 
# 
# 
# High freq. dielectric constant tensor:
#      x y z
#    x 1.794270 0.000000 0.000000 
#    y 0.000000 1.825780 0.000000 
#    z 0.000000 0.000000 1.814110 
# 
# From -- ./inp_files/47839.got.cif
#   From: 2010.03.12/outbox.cif.g09.slc.cpg/sg64_24_cif.got.tgz:47839.got - 2010.04.10 20:19:32.
