data_PCOD8263575
_publ_section_title
;
Structure prediction by ZEFSAII (Michael W. Deem and Ramdas Pophale) SiO2 
 PCOD8263575
Probable space group: C M C A
;
_chemical_formula_sum "Si O2"
_cell_formula_units_Z 96
_cell_length_a 22.775664
_cell_length_b 11.407525
_cell_length_c 16.998632
_cell_angle_alpha 90.000000
_cell_angle_beta 90.000000
_cell_angle_gamma 90.000000
_cell_volume 4416.481835
_symmetry_space_group_name_H-M "C M C A"
_symmetry_group_IT_number 64
_symmetry_cell_setting 'orthorhombic'
loop_
_space_group_symop_operation_xyz
x,y,z
-x,1/2-y,1/2+z
x,-y,-z
-x,1/2+y,1/2-z
-x,-y,-z
x,1/2+y,1/2-z
-x,y,z
x,1/2-y,1/2+z
1/2+x,1/2+y,z
1/2-x,-y,1/2+z
1/2+x,1/2-y,-z
1/2-x,y,1/2-z
1/2-x,1/2-y,-z
1/2+x,y,1/2-z
1/2-x,1/2+y,z
1/2+x,-y,1/2+z
loop_
_atom_site_type_symbol
_atom_site_label
_atom_site_fract_x
_atom_site_fract_y
_atom_site_fract_z
Si Si1 0.430538 0.141756 0.303719
Si Si2 0.933152 0.056774 0.369780
Si Si3 0.140749 0.016320 0.909390
Si Si4 0.353317 0.776577 0.939125
Si Si5 0.142225 0.336931 0.113193
Si Si6 0.769083 0.022068 0.407377
O O1 0.500000 0.174363 0.312366
O O2 0.415075 0.092565 0.218462
O O3 0.387534 0.252727 0.321604
O O4 0.414296 0.036442 0.362785
O O5 0.917030 0.165636 0.425827
O O6 0.000000 0.027138 0.376084
O O7 0.902388 0.941915 0.403744
O O8 0.148409 0.154126 0.894203
O O9 0.202026 0.957364 0.879919
O O10 0.126534 0.000000 0.000000
O O11 0.305459 0.858538 0.894389
O O12 0.344569 0.762708 0.033435
O O13 0.202238 0.407712 0.136997
O O14 0.769511 0.000000 0.500000
#
# Coordination Sequence:
#
# PCOD8263575 Si02
#       6
#    16  16  16  16  16  16
#     4  11  25  40  59  87 126 169 200 244 308 368
#     4  10  23  41  62  84 118 168 208 245 299 360
#     4  11  22  38  62  92 125 161 195 251 309 365
#     4  10  21  39  63  95 117 152 207 256 303 350
#     4  10  20  41  64  91 118 152 208 257 294 357
#     4   8  19  35  65  91 118 153 200 249 302 359
#
# _framework density 21.736758999999999
#
# number of rings (size 3 to 8) (size 9 to 14) (size 15 to 20)
#    0.000    2.000    1.667    2.000    4.667    5.000 
#    0.000    3.333    0.000    0.000    0.000    0.000 
#    0.000    0.000    0.000    0.000    0.000    0.000 
#
# Total GULP energy -594826.560527 kJ/mol
# GULP energy per Si atom -12392.220011 kJ/mol
# Density = 2.168729 g / cm^3
# Si number density = 21.736759 Si / 1000 Ang^3
#
#
#
# Elastic Constant Matrix: (Units=GPa)
#
#
# Indices 1 2 3 4 5 6 
#
# 1 61.1573 3.5276 19.5358 0.0000 0.0000 0.0000
# 2 3.5276 88.6500 -2.8128 0.0000 0.0000 0.0000
# 3 19.5358 -2.8128 24.1394 0.0000 0.0000 0.0000
# 4 0.0000 0.0000 0.0000 19.2035 0.0000 0.0000
# 5 0.0000 0.0000 0.0000 0.0000 19.9835 0.0000
# 6 0.0000 0.0000 0.0000 0.0000 0.0000 19.2054
#
#
#
# Elastic Compliance Matrix: (Units=1/GPa)
#
#
# Indices 1 2 3 4 5 6 
#
# 1 0.022239 -0.001461 -0.018168 0.000000 0.000000 0.000000
# 2 -0.001461 0.011418 0.002513 0.000000 0.000000 0.000000
# 3 -0.018168 0.002513 0.056422 0.000000 0.000000 0.000000
# 4 0.000000 0.000000 0.000000 0.052074 0.000000 0.000000
# 5 0.000000 0.000000 0.000000 0.000000 0.050041 0.000000
# 6 0.000000 0.000000 0.000000 0.000000 0.000000 0.052069
#
#
# Mechanical properties :
#
#
# Convention : Reuss Voigt Hill
#
# Bulk Modulus (GPa) = 17.90610 23.82752 20.86681
# Shear Modulus (GPa) = 16.82869 21.92491 19.37680
#
# Velocity S-wave (km/s) = 2.78547 3.17938 2.98892
# Velocity P-wave (km/s) = 4.31286 4.94607 4.64028
#
# Compressibility (1/GPa) = 0.05584688
#
# Stress axis : x y z
#
# Youngs Moduli (GPa) = 44.96578 87.57933 17.72346
#
# Poissons Ratio (x) = 0.12799 0.32200
# Poissons Ratio (y) = 0.06571 -0.04454
# Poissons Ratio (z) = 0.81695 -0.22011
#
# Static dielectric constant tensor:
#      x y z
#    x 4.162490 0.000000 0.000000 
#    y 0.000000 4.098530 0.000000 
#    z 0.000000 0.000000 3.716790 
# 
# 
# High freq. dielectric constant tensor:
#      x y z
#    x 1.854720 0.000000 0.000000 
#    y 0.000000 1.866570 0.000000 
#    z 0.000000 0.000000 1.820980 
# 
# From -- ./inp_files/34952.got.cif
#   From: 2010.03.12/outbox.cif.g09.slc.cpg/sg64_18_cif.got.tgz:34952.got - 2010.04.10 20:19:32.
