data_PCOD8263352
_publ_section_title
;
Structure prediction by ZEFSAII (Michael W. Deem and Ramdas Pophale) SiO2 
 PCOD8263352
Probable space group: C M C A
;
_chemical_formula_sum "Si O2"
_cell_formula_units_Z 64
_cell_length_a 21.833954
_cell_length_b 9.164031
_cell_length_c 14.793874
_cell_angle_alpha 90.000000
_cell_angle_beta 90.000000
_cell_angle_gamma 90.000000
_cell_volume 2960.062330
_symmetry_space_group_name_H-M "C M C A"
_symmetry_group_IT_number 64
_symmetry_cell_setting 'orthorhombic'
loop_
_space_group_symop_operation_xyz
x,y,z
-x,1/2-y,1/2+z
x,-y,-z
-x,1/2+y,1/2-z
-x,-y,-z
x,1/2+y,1/2-z
-x,y,z
x,1/2-y,1/2+z
1/2+x,1/2+y,z
1/2-x,-y,1/2+z
1/2+x,1/2-y,-z
1/2-x,y,1/2-z
1/2-x,1/2-y,-z
1/2+x,y,1/2-z
1/2-x,1/2+y,z
1/2+x,-y,1/2+z
loop_
_atom_site_type_symbol
_atom_site_label
_atom_site_fract_x
_atom_site_fract_y
_atom_site_fract_z
Si Si1 0.000000 0.221660 0.630279
Si Si2 0.682993 0.430309 0.287611
Si Si3 0.622277 0.339880 0.463806
Si Si4 0.500000 0.898470 0.802120
Si Si5 0.128756 0.776688 0.654434
O O1 0.060327 0.235611 0.569832
O O2 0.000000 0.360089 0.696475
O O3 0.000000 0.072598 0.688077
O O4 0.750000 0.398067 0.250000
O O5 0.672388 0.347766 0.383359
O O6 0.671719 0.601968 0.298089
O O7 0.634896 0.369887 0.213135
O O8 0.605695 0.500000 0.500000
O O9 0.649028 0.249248 0.549732
O O10 0.440846 0.831220 0.850461
#
# Coordination Sequence:
#
# PCOD8263352 Si02
#       5
#     8  16  16   8  16
#     4  12  20  37  66  92 127 153 206 249 313 370
#     4  11  23  40  61  88 123 162 208 252 296 359
#     4  10  20  37  63  90 114 167 204 238 302 380
#     4  12  19  36  67  93 121 155 198 258 306 360
#     4  11  22  40  65  89 121 159 206 250 309 363
#
# _framework density 21.621165999999999
#
# number of rings (size 3 to 8) (size 9 to 14) (size 15 to 20)
#    0.000    1.000    7.500    1.875    0.000    1.000 
#    0.000    3.750    0.000    3.000    0.000    0.000 
#    0.000    0.000    0.000    0.000    0.000    0.000 
#
# Total GULP energy -396815.666290 kJ/mol
# GULP energy per Si atom -12400.489572 kJ/mol
# Density = 2.157196 g / cm^3
# Si number density = 21.621166 Si / 1000 Ang^3
#
#
#
# Elastic Constant Matrix: (Units=GPa)
#
#
# Indices 1 2 3 4 5 6 
#
# 1 100.0017 16.2205 48.3330 0.0000 0.0000 0.0000
# 2 16.2205 43.4479 40.6974 0.0000 0.0000 0.0000
# 3 48.3330 40.6974 175.7826 0.0000 0.0000 0.0000
# 4 0.0000 0.0000 0.0000 34.9547 0.0000 0.0000
# 5 0.0000 0.0000 0.0000 0.0000 31.0959 0.0000
# 6 0.0000 0.0000 0.0000 0.0000 0.0000 12.9584
#
#
#
# Elastic Compliance Matrix: (Units=1/GPa)
#
#
# Indices 1 2 3 4 5 6 
#
# 1 0.011632 -0.001720 -0.002800 0.000000 0.000000 0.000000
# 2 -0.001720 0.029644 -0.006390 0.000000 0.000000 0.000000
# 3 -0.002800 -0.006390 0.007938 0.000000 0.000000 0.000000
# 4 0.000000 0.000000 0.000000 0.028608 0.000000 0.000000
# 5 0.000000 0.000000 0.000000 0.000000 0.032159 0.000000
# 6 0.000000 0.000000 0.000000 0.000000 0.000000 0.077170
#
#
# Mechanical properties :
#
#
# Convention : Reuss Voigt Hill
#
# Bulk Modulus (GPa) = 36.50459 58.85934 47.68197
# Shear Modulus (GPa) = 22.92494 30.06723 26.49608
#
# Velocity S-wave (km/s) = 3.25976 3.73317 3.50447
# Velocity P-wave (km/s) = 5.57570 6.77231 6.20293
#
# Compressibility (1/GPa) = 0.02739381
#
# Stress axis : x y z
#
# Youngs Moduli (GPa) = 85.96842 33.73373 125.97174
#
# Poissons Ratio (x) = 0.05801 0.35275
# Poissons Ratio (y) = 0.14784 0.80500
# Poissons Ratio (z) = 0.24073 0.21557
#
# Static dielectric constant tensor:
#      x y z
#    x 3.745940 0.000000 0.000000 
#    y 0.000000 3.563220 0.000000 
#    z 0.000000 0.000000 4.504900 
# 
# 
# High freq. dielectric constant tensor:
#      x y z
#    x 1.840980 0.000000 0.000000 
#    y 0.000000 1.814910 0.000000 
#    z 0.000000 0.000000 1.870150 
# 
# From -- ./inp_files/17909.got.cif
#   From: 2010.03.12/outbox.cif.g09.slc.cpg/sg64_9_cif.got.tgz:17909.got - 2010.04.10 20:19:32.
