data_PCOD8263122
_publ_section_title
;
Structure prediction by ZEFSAII (Michael W. Deem and Ramdas Pophale) SiO2 
 PCOD8263122
Probable space group: C M C A
;
_chemical_formula_sum "Si O2"
_cell_formula_units_Z 64
_cell_length_a 27.454284
_cell_length_b 24.986302
_cell_length_c 5.000668
_cell_angle_alpha 90.000000
_cell_angle_beta 90.000000
_cell_angle_gamma 90.000000
_cell_volume 3430.363391
_symmetry_space_group_name_H-M "C M C A"
_symmetry_group_IT_number 64
_symmetry_cell_setting 'orthorhombic'
loop_
_space_group_symop_operation_xyz
x,y,z
-x,1/2-y,1/2+z
x,-y,-z
-x,1/2+y,1/2-z
-x,-y,-z
x,1/2+y,1/2-z
-x,y,z
x,1/2-y,1/2+z
1/2+x,1/2+y,z
1/2-x,-y,1/2+z
1/2+x,1/2-y,-z
1/2-x,y,1/2-z
1/2-x,1/2-y,-z
1/2+x,y,1/2-z
1/2-x,1/2+y,z
1/2+x,-y,1/2+z
loop_
_atom_site_type_symbol
_atom_site_label
_atom_site_fract_x
_atom_site_fract_y
_atom_site_fract_z
Si Si1 0.250000 0.036284 0.750000
Si Si2 0.000000 0.038230 0.246939
Si Si3 0.352805 0.560536 0.599176
Si Si4 0.943540 0.784566 0.910646
Si Si5 0.404618 0.601163 0.115663
O O1 0.296810 0.072529 0.820165
O O2 0.265632 0.000000 0.500000
O O3 0.953016 0.076008 0.243808
O O4 0.000000 0.000000 0.500000
O O5 0.000000 0.000000 0.000000
O O6 0.359690 0.500000 0.500000
O O7 0.364502 0.599178 0.350588
O O8 0.388089 0.569529 0.851395
O O9 0.930110 0.761085 0.622722
O O10 0.912247 0.837391 0.965357
O O11 0.000000 0.800465 0.934570
#
# Coordination Sequence:
#
# PCOD8263122 Si02
#       5
#     8   8  16  16  16
#     4  10  20  36  56  80 110 148 190 232 270 310
#     4  12  24  34  48  76 118 152 176 204 259 336
#     4  11  22  36  57  82 116 148 186 226 271 331
#     4  10  21  38  58  78 106 143 191 243 277 312
#     4  12  22  37  55  83 111 151 186 224 277 333
#
# _framework density 18.656915000000001
#
# number of rings (size 3 to 8) (size 9 to 14) (size 15 to 20)
#    0.000    1.000    1.250    9.000    0.000    0.000 
#    0.000    0.000    0.000    0.000    0.000   17.500 
#    0.000    0.000    0.000    0.000    0.000    0.000 
#
# Total GULP energy -396931.048478 kJ/mol
# GULP energy per Si atom -12404.095265 kJ/mol
# Density = 1.861445 g / cm^3
# Si number density = 18.656915 Si / 1000 Ang^3
#
#
#
# Elastic Constant Matrix: (Units=GPa)
#
#
# Indices 1 2 3 4 5 6 
#
# 1 98.5729 51.4018 39.4298 0.0000 0.0000 0.0000
# 2 51.4018 87.8086 31.4092 0.0000 0.0000 0.0000
# 3 39.4298 31.4092 125.6084 0.0000 0.0000 0.0000
# 4 0.0000 0.0000 0.0000 18.0898 0.0000 0.0000
# 5 0.0000 0.0000 0.0000 0.0000 30.5838 0.0000
# 6 0.0000 0.0000 0.0000 0.0000 0.0000 19.4919
#
#
#
# Elastic Compliance Matrix: (Units=1/GPa)
#
#
# Indices 1 2 3 4 5 6 
#
# 1 0.015477 -0.008041 -0.002848 0.000000 0.000000 0.000000
# 2 -0.008041 0.016685 -0.001648 0.000000 0.000000 0.000000
# 3 -0.002848 -0.001648 0.009267 0.000000 0.000000 0.000000
# 4 0.000000 0.000000 0.000000 0.055280 0.000000 0.000000
# 5 0.000000 0.000000 0.000000 0.000000 0.032697 0.000000
# 6 0.000000 0.000000 0.000000 0.000000 0.000000 0.051303
#
#
# Mechanical properties :
#
#
# Convention : Reuss Voigt Hill
#
# Bulk Modulus (GPa) = 61.14142 61.83016 61.48579
# Shear Modulus (GPa) = 23.67022 26.28303 24.97663
#
# Velocity S-wave (km/s) = 3.56576 3.75741 3.66284
# Velocity P-wave (km/s) = 7.05659 7.21365 7.13555
#
# Compressibility (1/GPa) = 0.01635552
#
# Stress axis : x y z
#
# Youngs Moduli (GPa) = 64.61132 59.93318 107.90709
#
# Poissons Ratio (x) = 0.48195 0.30728
# Poissons Ratio (y) = 0.51957 0.17782
# Poissons Ratio (z) = 0.18399 0.09877
#
# Static dielectric constant tensor:
#      x y z
#    x 3.570940 0.000000 0.000000 
#    y 0.000000 3.175730 0.000000 
#    z 0.000000 0.000000 3.512300 
# 
# 
# High freq. dielectric constant tensor:
#      x y z
#    x 1.713590 0.000000 0.000000 
#    y 0.000000 1.697150 0.000000 
#    z 0.000000 0.000000 1.752370 
# 
# From -- ./inp_files/2213.got.cif
#   From: 2010.03.12/outbox.cif.g09.slc.cpg/sg64_2_cif.got.tgz:2213.got - 2010.04.10 20:19:32.
