data_PCOD8263980
_publ_section_title
;
Structure prediction by ZEFSAII (Michael W. Deem and Ramdas Pophale) SiO2 
 PCOD8263980
Probable space group: C M C A
;
_chemical_formula_sum "Si O2"
_cell_formula_units_Z 96
_cell_length_a 25.496061
_cell_length_b 9.615165
_cell_length_c 19.844425
_cell_angle_alpha 90.000000
_cell_angle_beta 90.000000
_cell_angle_gamma 90.000000
_cell_volume 4864.837638
_symmetry_space_group_name_H-M "C M C A"
_symmetry_group_IT_number 64
_symmetry_cell_setting 'orthorhombic'
loop_
_space_group_symop_operation_xyz
x,y,z
-x,1/2-y,1/2+z
x,-y,-z
-x,1/2+y,1/2-z
-x,-y,-z
x,1/2+y,1/2-z
-x,y,z
x,1/2-y,1/2+z
1/2+x,1/2+y,z
1/2-x,-y,1/2+z
1/2+x,1/2-y,-z
1/2-x,y,1/2-z
1/2-x,1/2-y,-z
1/2+x,y,1/2-z
1/2-x,1/2+y,z
1/2+x,-y,1/2+z
loop_
_atom_site_type_symbol
_atom_site_label
_atom_site_fract_x
_atom_site_fract_y
_atom_site_fract_z
Si Si1 0.560145 0.861656 0.538664
Si Si2 0.560093 0.922194 0.693348
Si Si3 0.196886 0.810529 0.633027
Si Si4 0.620252 0.193087 0.736909
Si Si5 0.797118 0.366498 0.147003
Si Si6 0.850121 0.839796 0.492271
O O1 0.500000 0.821242 0.524910
O O2 0.571616 0.884749 0.616635
O O3 0.594701 0.738347 0.508764
O O4 0.576440 0.000000 0.500000
O O5 0.500000 0.966826 0.704592
O O6 0.572037 0.785880 0.737208
O O7 0.598529 0.044392 0.715571
O O8 0.144285 0.771832 0.672830
O O9 0.242180 0.709297 0.659608
O O10 0.185933 0.787624 0.553836
O O11 0.213219 0.969032 0.647418
O O12 0.663327 0.176245 0.794675
O O13 0.818729 0.311343 0.076024
O O14 0.864935 0.000000 0.500000
#
# Coordination Sequence:
#
# PCOD8263980 Si02
#       6
#    16  16  16  16  16  16
#     4  10  21  39  64  94 126 166 213 260 317 377
#     4  11  24  42  66  94 128 169 210 263 318 376
#     4  11  25  40  64  92 126 165 210 264 313 376
#     4  12  23  42  64  94 127 165 212 263 314 380
#     4  11  24  41  62  91 125 167 214 257 318 376
#     4  10  22  42  62  91 127 164 210 261 315 375
#
# _framework density 19.733443999999999
#
# number of rings (size 3 to 8) (size 9 to 14) (size 15 to 20)
#    0.000    1.167    3.333    2.500    2.333    3.000 
#    0.000    0.833    0.000    0.000    0.000    0.000 
#    0.000    0.000    0.000    0.000    0.000    0.000 
#
# Total GULP energy -595511.538138 kJ/mol
# GULP energy per Si atom -12406.490378 kJ/mol
# Density = 1.968853 g / cm^3
# Si number density = 19.733444 Si / 1000 Ang^3
#
#
#
# Elastic Constant Matrix: (Units=GPa)
#
#
# Indices 1 2 3 4 5 6 
#
# 1 94.8320 43.9997 31.7337 0.0000 0.0000 0.0000
# 2 43.9997 85.1249 20.0204 0.0000 0.0000 0.0000
# 3 31.7337 20.0204 72.8976 0.0000 0.0000 0.0000
# 4 0.0000 0.0000 0.0000 21.3668 0.0000 0.0000
# 5 0.0000 0.0000 0.0000 0.0000 35.2051 0.0000
# 6 0.0000 0.0000 0.0000 0.0000 0.0000 47.8593
#
#
#
# Elastic Compliance Matrix: (Units=1/GPa)
#
#
# Indices 1 2 3 4 5 6 
#
# 1 0.015295 -0.006777 -0.004797 0.000000 0.000000 0.000000
# 2 -0.006777 0.015562 -0.001324 0.000000 0.000000 0.000000
# 3 -0.004797 -0.001324 0.016169 0.000000 0.000000 0.000000
# 4 0.000000 0.000000 0.000000 0.046802 0.000000 0.000000
# 5 0.000000 0.000000 0.000000 0.000000 0.028405 0.000000
# 6 0.000000 0.000000 0.000000 0.000000 0.000000 0.020895
#
#
# Mechanical properties :
#
#
# Convention : Reuss Voigt Hill
#
# Bulk Modulus (GPa) = 47.10174 49.37357 48.23765
# Shear Modulus (GPa) = 28.40920 31.35963 29.88441
#
# Velocity S-wave (km/s) = 3.79838 3.99075 3.89576
# Velocity P-wave (km/s) = 6.56946 6.80510 6.68832
#
# Compressibility (1/GPa) = 0.02123064
#
# Stress axis : x y z
#
# Youngs Moduli (GPa) = 65.38226 64.25959 61.84491
#
# Poissons Ratio (x) = 0.43552 0.29665
# Poissons Ratio (y) = 0.44312 0.08185
# Poissons Ratio (z) = 0.31362 0.08505
#
# Static dielectric constant tensor:
#      x y z
#    x 3.499520 0.000000 0.000000 
#    y 0.000000 3.542140 0.000000 
#    z 0.000000 0.000000 3.815910 
# 
# 
# High freq. dielectric constant tensor:
#      x y z
#    x 1.771070 0.000000 0.000000 
#    y 0.000000 1.775700 0.000000 
#    z 0.000000 0.000000 1.787320 
# 
# From -- ./inp_files/41779.got.cif
#   From: 2010.03.12/outbox.cif.g09.slc.cpg/sg64_21_cif.got.tgz:41779.got - 2010.04.10 20:19:32.
