data_PCOD8263228
_publ_section_title
;
Structure prediction by ZEFSAII (Michael W. Deem and Ramdas Pophale) SiO2 
 PCOD8263228
Probable space group: C M C A
;
_chemical_formula_sum "Si O2"
_cell_formula_units_Z 112
_cell_length_a 14.358710
_cell_length_b 28.979222
_cell_length_c 12.423797
_cell_angle_alpha 90.000000
_cell_angle_beta 90.000000
_cell_angle_gamma 90.000000
_cell_volume 5169.594667
_symmetry_space_group_name_H-M "C M C A"
_symmetry_group_IT_number 64
_symmetry_cell_setting 'orthorhombic'
loop_
_space_group_symop_operation_xyz
x,y,z
-x,1/2-y,1/2+z
x,-y,-z
-x,1/2+y,1/2-z
-x,-y,-z
x,1/2+y,1/2-z
-x,y,z
x,1/2-y,1/2+z
1/2+x,1/2+y,z
1/2-x,-y,1/2+z
1/2+x,1/2-y,-z
1/2-x,y,1/2-z
1/2-x,1/2-y,-z
1/2+x,y,1/2-z
1/2-x,1/2+y,z
1/2+x,-y,1/2+z
loop_
_atom_site_type_symbol
_atom_site_label
_atom_site_fract_x
_atom_site_fract_y
_atom_site_fract_z
Si Si1 0.292793 0.414276 0.535327
Si Si2 0.897887 0.550374 0.451818
Si Si3 0.651082 0.429384 0.302111
Si Si4 0.109131 0.223902 0.928674
Si Si5 0.899316 0.530766 0.208408
Si Si6 0.293614 0.186912 0.009203
Si Si7 0.603149 0.328592 0.291310
O O1 0.184326 0.418619 0.500064
O O2 0.352419 0.425472 0.430823
O O3 0.319680 0.450630 0.628487
O O4 0.309279 0.361462 0.570963
O O5 0.886802 0.500000 0.500000
O O6 0.882363 0.552146 0.324520
O O7 0.000000 0.570473 0.482343
O O8 0.750000 0.437263 0.250000
O O9 0.594817 0.475574 0.275982
O O10 0.607744 0.382337 0.254008
O O11 0.140290 0.277485 0.927375
O O12 0.124055 0.203479 0.810449
O O13 0.000000 0.218529 0.965303
O O14 0.183031 0.199973 0.011291
O O15 0.000000 0.546969 0.163800
O O16 0.322399 0.182726 0.883570
O O17 0.500000 0.318022 0.335935
#
# Coordination Sequence:
#
# PCOD8263228 Si02
#       7
#    16  16  16  16  16  16  16
#     4  11  22  37  59  85 120 159 195 244 299 360
#     4  10  21  38  59  83 115 157 202 248 297 352
#     4  11  21  35  58  86 119 158 201 247 299 354
#     4  10  21  39  63  88 116 153 199 251 306 366
#     4  11  23  37  56  84 119 159 203 246 294 356
#     4  10  22  39  60  87 119 155 196 247 308 367
#     4  10  20  36  60  89 120 153 194 246 303 364
#
# _framework density 21.665140999999998
#
# number of rings (size 3 to 8) (size 9 to 14) (size 15 to 20)
#    0.000    1.571    0.000    6.429    0.000    4.571 
#    0.000    9.286    0.000    3.429    0.000    0.000 
#    0.000    0.000    0.000    0.000    0.000    0.000 
#
# Total GULP energy -694110.855476 kJ/mol
# GULP energy per Si atom -12394.836705 kJ/mol
# Density = 2.161583 g / cm^3
# Si number density = 21.665141 Si / 1000 Ang^3
#
#
#
# Elastic Constant Matrix: (Units=GPa)
#
#
# Indices 1 2 3 4 5 6 
#
# 1 129.6475 21.4108 15.5234 0.0000 0.0000 0.0000
# 2 21.4108 108.4323 16.7706 0.0000 0.0000 0.0000
# 3 15.5234 16.7706 45.0579 0.0000 0.0000 0.0000
# 4 0.0000 0.0000 0.0000 30.7204 0.0000 0.0000
# 5 0.0000 0.0000 0.0000 0.0000 21.6102 0.0000
# 6 0.0000 0.0000 0.0000 0.0000 0.0000 17.5651
#
#
#
# Elastic Compliance Matrix: (Units=1/GPa)
#
#
# Indices 1 2 3 4 5 6 
#
# 1 0.008203 -0.001255 -0.002359 0.000000 0.000000 0.000000
# 2 -0.001255 0.009978 -0.003281 0.000000 0.000000 0.000000
# 3 -0.002359 -0.003281 0.024228 0.000000 0.000000 0.000000
# 4 0.000000 0.000000 0.000000 0.032552 0.000000 0.000000
# 5 0.000000 0.000000 0.000000 0.000000 0.046274 0.000000
# 6 0.000000 0.000000 0.000000 0.000000 0.000000 0.056931
#
#
# Mechanical properties :
#
#
# Convention : Reuss Voigt Hill
#
# Bulk Modulus (GPa) = 34.94330 43.39413 39.16872
# Shear Modulus (GPa) = 24.81450 29.27468 27.04459
#
# Velocity S-wave (km/s) = 3.38800 3.67990 3.53696
# Velocity P-wave (km/s) = 5.60968 6.17483 5.89903
#
# Compressibility (1/GPa) = 0.02861779
#
# Stress axis : x y z
#
# Youngs Moduli (GPa) = 121.90781 100.22414 41.27504
#
# Poissons Ratio (x) = 0.12577 0.09737
# Poissons Ratio (y) = 0.15298 0.13544
# Poissons Ratio (z) = 0.28758 0.32887
#
# Static dielectric constant tensor:
#      x y z
#    x 4.255930 0.000000 0.000000 
#    y 0.000000 3.965900 0.000000 
#    z 0.000000 0.000000 3.619480 
# 
# 
# High freq. dielectric constant tensor:
#      x y z
#    x 1.869510 0.000000 0.000000 
#    y 0.000000 1.845870 0.000000 
#    z 0.000000 0.000000 1.830010 
# 
# From -- ./inp_files/15017.got.cif
#   From: 2010.03.12/outbox.cif.g09.slc.cpg/sg64_8_cif.got.tgz:15017.got - 2010.04.10 20:19:32.
