data_PCOD8263702
_publ_section_title
;
Structure prediction by ZEFSAII (Michael W. Deem and Ramdas Pophale) SiO2 
 PCOD8263702
Probable space group: C M C A
;
_chemical_formula_sum "Si O2"
_cell_formula_units_Z 96
_cell_length_a 23.605592
_cell_length_b 8.775289
_cell_length_c 22.351855
_cell_angle_alpha 90.000000
_cell_angle_beta 90.000000
_cell_angle_gamma 90.000000
_cell_volume 4630.094938
_symmetry_space_group_name_H-M "C M C A"
_symmetry_group_IT_number 64
_symmetry_cell_setting 'orthorhombic'
loop_
_space_group_symop_operation_xyz
x,y,z
-x,1/2-y,1/2+z
x,-y,-z
-x,1/2+y,1/2-z
-x,-y,-z
x,1/2+y,1/2-z
-x,y,z
x,1/2-y,1/2+z
1/2+x,1/2+y,z
1/2-x,-y,1/2+z
1/2+x,1/2-y,-z
1/2-x,y,1/2-z
1/2-x,1/2-y,-z
1/2+x,y,1/2-z
1/2-x,1/2+y,z
1/2+x,-y,1/2+z
loop_
_atom_site_type_symbol
_atom_site_label
_atom_site_fract_x
_atom_site_fract_y
_atom_site_fract_z
Si Si1 0.725322 0.616506 0.335203
Si Si2 0.634903 0.576776 0.434912
Si Si3 0.855256 0.371425 0.670268
Si Si4 0.561822 0.307834 0.401375
Si Si5 0.062258 0.338021 0.476395
Si Si6 0.323764 0.126518 0.744914
O O1 0.692367 0.596681 0.397478
O O2 0.791075 0.620222 0.354612
O O3 0.714214 0.481418 0.287944
O O4 0.714999 0.774383 0.300225
O O5 0.648167 0.500000 0.500000
O O6 0.594851 0.467440 0.394871
O O7 0.607233 0.746956 0.435362
O O8 0.901898 0.339731 0.619868
O O9 0.867577 0.527939 0.705066
O O10 0.863911 0.232132 0.715939
O O11 0.500000 0.317301 0.369372
O O12 0.551942 0.281164 0.470824
O O13 0.086788 0.500000 0.500000
O O14 0.000000 0.365348 0.445579
#
# Coordination Sequence:
#
# PCOD8263702 Si02
#       6
#    16  16  16  16  16  16
#     4  11  20  36  61  91 117 153 201 249 303 358
#     4  10  21  38  60  89 124 159 196 245 309 366
#     4  11  20  36  59  86 115 154 196 248 296 352
#     4  10  21  38  59  82 117 157 194 237 289 357
#     4   9  19  37  59  83 109 152 206 242 281 348
#     4  10  21  36  61  87 115 155 204 247 291 359
#
# _framework density 20.733916000000001
#
# number of rings (size 3 to 8) (size 9 to 14) (size 15 to 20)
#    0.000    1.833    1.667    4.500    2.333    2.000 
#    0.000    5.000    0.000    0.000    0.000    0.000 
#    0.000    0.000    0.000    0.000    0.000    0.000 
#
# Total GULP energy -594700.544264 kJ/mol
# GULP energy per Si atom -12389.594672 kJ/mol
# Density = 2.068672 g / cm^3
# Si number density = 20.733916 Si / 1000 Ang^3
#
#
#
# Elastic Constant Matrix: (Units=GPa)
#
#
# Indices 1 2 3 4 5 6 
#
# 1 99.6567 24.1265 45.8441 0.0000 0.0000 0.0000
# 2 24.1265 113.3600 21.5053 0.0000 0.0000 0.0000
# 3 45.8441 21.5053 70.9554 0.0000 0.0000 0.0000
# 4 0.0000 0.0000 0.0000 -113.8338 0.0000 0.0000
# 5 0.0000 0.0000 0.0000 0.0000 15.5690 0.0000
# 6 0.0000 0.0000 0.0000 0.0000 0.0000 21.0545
#
#
#
# Elastic Compliance Matrix: (Units=1/GPa)
#
#
# Indices 1 2 3 4 5 6 
#
# 1 0.014481 -0.001387 -0.008936 0.000000 0.000000 0.000000
# 2 -0.001387 0.009492 -0.001981 0.000000 0.000000 0.000000
# 3 -0.008936 -0.001981 0.020467 0.000000 0.000000 0.000000
# 4 0.000000 0.000000 0.000000 -0.008785 0.000000 0.000000
# 5 0.000000 0.000000 0.000000 0.000000 0.064230 0.000000
# 6 0.000000 0.000000 0.000000 0.000000 0.000000 0.047496
#
#
# Mechanical properties :
#
#
# Convention : Reuss Voigt Hill
#
# Bulk Modulus (GPa) = 50.42004 51.88042 51.15023
# Shear Modulus (GPa) = 27.99561 -2.60897 12.69332
#
# Velocity S-wave (km/s) = 3.67854 -1.12296 2.47695
# Velocity P-wave (km/s) = 6.51250 4.83683 5.73618
#
# Compressibility (1/GPa) = 0.01983338
#
# Stress axis : x y z
#
# Youngs Moduli (GPa) = 69.05708 105.34730 48.85895
#
# Poissons Ratio (x) = 0.14609 0.43659
# Poissons Ratio (y) = 0.09577 0.09679
# Poissons Ratio (z) = 0.61707 0.20869
#
# Static dielectric constant tensor:
#      x y z
#    x 3.687690 0.000000 0.000000 
#    y 0.000000 4.093860 0.000000 
#    z 0.000000 0.000000 3.550860 
# 
# 
# High freq. dielectric constant tensor:
#      x y z
#    x 1.789840 0.000000 0.000000 
#    y 0.000000 1.836370 0.000000 
#    z 0.000000 0.000000 1.783080 
# 
# From -- ./inp_files/46852.got.cif
#   From: 2010.03.12/outbox.cif.g09.slc.cpg/sg64_24_cif.got.tgz:46852.got - 2010.04.10 20:19:32.
