data_PCOD8263825
_publ_section_title
;
Structure prediction by ZEFSAII (Michael W. Deem and Ramdas Pophale) SiO2 
 PCOD8263825
Probable space group: C M C A
;
_chemical_formula_sum "Si O2"
_cell_formula_units_Z 64
_cell_length_a 17.194626
_cell_length_b 12.459290
_cell_length_c 14.114834
_cell_angle_alpha 90.000000
_cell_angle_beta 90.000000
_cell_angle_gamma 90.000000
_cell_volume 3023.860858
_symmetry_space_group_name_H-M "C M C A"
_symmetry_group_IT_number 64
_symmetry_cell_setting 'orthorhombic'
loop_
_space_group_symop_operation_xyz
x,y,z
-x,1/2-y,1/2+z
x,-y,-z
-x,1/2+y,1/2-z
-x,-y,-z
x,1/2+y,1/2-z
-x,y,z
x,1/2-y,1/2+z
1/2+x,1/2+y,z
1/2-x,-y,1/2+z
1/2+x,1/2-y,-z
1/2-x,y,1/2-z
1/2-x,1/2-y,-z
1/2+x,y,1/2-z
1/2-x,1/2+y,z
1/2+x,-y,1/2+z
loop_
_atom_site_type_symbol
_atom_site_label
_atom_site_fract_x
_atom_site_fract_y
_atom_site_fract_z
Si Si1 0.089427 0.780743 0.918275
Si Si2 0.666725 0.096211 0.572185
Si Si3 0.158468 0.558699 0.901379
Si Si4 0.909405 0.466444 0.722967
O O1 0.099655 0.657831 0.887849
O O2 0.116841 0.858781 0.832734
O O3 0.000000 0.805969 0.941354
O O4 0.139090 0.798276 0.015055
O O5 0.754920 0.106529 0.607921
O O6 0.656712 0.000000 0.500000
O O7 0.610764 0.072414 0.661148
O O8 0.140389 0.471996 0.819599
O O9 0.144448 0.500000 0.000000
O O10 0.000000 0.465134 0.747949
#
# Coordination Sequence:
#
# PCOD8263825 Si02
#       4
#    16  16  16  16
#     4  10  21  38  61  87 116 154 198 242 292 348
#     4   9  19  38  61  85 112 148 194 242 289 344
#     4  11  23  38  58  87 122 154 191 243 297 349
#     4  10  21  38  59  83 113 151 195 240 289 349
#
# _framework density 21.164995000000001
#
# number of rings (size 3 to 8) (size 9 to 14) (size 15 to 20)
#    0.000    2.000    0.000    3.000    0.000    7.000 
#    0.000   10.000    0.000    0.000    0.000    0.000 
#    0.000    0.000    0.000    0.000    0.000    0.000 
#
# Total GULP energy -396871.897302 kJ/mol
# GULP energy per Si atom -12402.246791 kJ/mol
# Density = 2.111682 g / cm^3
# Si number density = 21.164995 Si / 1000 Ang^3
#
#
#
# Elastic Constant Matrix: (Units=GPa)
#
#
# Indices 1 2 3 4 5 6 
#
# 1 101.2396 25.1935 51.4841 0.0000 0.0000 0.0000
# 2 25.1935 89.2630 40.5098 0.0000 0.0000 0.0000
# 3 51.4841 40.5098 112.2486 0.0000 0.0000 0.0000
# 4 0.0000 0.0000 0.0000 27.6068 0.0000 0.0000
# 5 0.0000 0.0000 0.0000 0.0000 37.5877 0.0000
# 6 0.0000 0.0000 0.0000 0.0000 0.0000 29.7253
#
#
#
# Elastic Compliance Matrix: (Units=1/GPa)
#
#
# Indices 1 2 3 4 5 6 
#
# 1 0.012980 -0.001150 -0.005539 0.000000 0.000000 0.000000
# 2 -0.001150 0.013499 -0.004344 0.000000 0.000000 0.000000
# 3 -0.005539 -0.004344 0.013017 0.000000 0.000000 0.000000
# 4 0.000000 0.000000 0.000000 0.036223 0.000000 0.000000
# 5 0.000000 0.000000 0.000000 0.000000 0.026604 0.000000
# 6 0.000000 0.000000 0.000000 0.000000 0.000000 0.033641
#
#
# Mechanical properties :
#
#
# Convention : Reuss Voigt Hill
#
# Bulk Modulus (GPa) = 57.37028 59.68065 58.52547
# Shear Modulus (GPa) = 30.51747 31.35489 30.93618
#
# Velocity S-wave (km/s) = 3.80133 3.85314 3.82732
# Velocity P-wave (km/s) = 6.81410 6.93214 6.87337
#
# Compressibility (1/GPa) = 0.01743063
#
# Stress axis : x y z
#
# Youngs Moduli (GPa) = 77.04000 74.07985 76.82324
#
# Poissons Ratio (x) = 0.08519 0.42549
# Poissons Ratio (y) = 0.08860 0.33374
# Poissons Ratio (z) = 0.42669 0.32182
#
# Static dielectric constant tensor:
#      x y z
#    x 3.786090 0.000000 0.000000 
#    y 0.000000 3.575390 0.000000 
#    z 0.000000 0.000000 3.952110 
# 
# 
# High freq. dielectric constant tensor:
#      x y z
#    x 1.833010 0.000000 0.000000 
#    y 0.000000 1.810430 0.000000 
#    z 0.000000 0.000000 1.833040 
# 
# From -- ./inp_files/15466.got.cif
#   From: 2010.03.12/outbox.cif.g09.slc.cpg/sg64_8_cif.got.tgz:15466.got - 2010.04.10 20:19:32.
