data_PCOD8263673
_publ_section_title
;
Structure prediction by ZEFSAII (Michael W. Deem and Ramdas Pophale) SiO2 
 PCOD8263673
Probable space group: C M C A
;
_chemical_formula_sum "Si O2"
_cell_formula_units_Z 80
_cell_length_a 15.789773
_cell_length_b 25.814172
_cell_length_c 9.398917
_cell_angle_alpha 90.000000
_cell_angle_beta 90.000000
_cell_angle_gamma 90.000000
_cell_volume 3830.997780
_symmetry_space_group_name_H-M "C M C A"
_symmetry_group_IT_number 64
_symmetry_cell_setting 'orthorhombic'
loop_
_space_group_symop_operation_xyz
x,y,z
-x,1/2-y,1/2+z
x,-y,-z
-x,1/2+y,1/2-z
-x,-y,-z
x,1/2+y,1/2-z
-x,y,z
x,1/2-y,1/2+z
1/2+x,1/2+y,z
1/2-x,-y,1/2+z
1/2+x,1/2-y,-z
1/2-x,y,1/2-z
1/2-x,1/2-y,-z
1/2+x,y,1/2-z
1/2-x,1/2+y,z
1/2+x,-y,1/2+z
loop_
_atom_site_type_symbol
_atom_site_label
_atom_site_fract_x
_atom_site_fract_y
_atom_site_fract_z
Si Si1 0.099096 0.296940 0.142083
Si Si2 0.404323 0.002972 0.656075
Si Si3 0.841858 0.591948 0.190711
Si Si4 0.101029 0.703750 0.174470
Si Si5 0.600286 0.911855 0.127845
O O1 0.139998 0.252764 0.241334
O O2 0.117721 0.355185 0.197026
O O3 0.000000 0.286204 0.139077
O O4 0.136292 0.290345 0.984583
O O5 0.500000 0.021904 0.631670
O O6 0.405052 0.947368 0.731310
O O7 0.359339 0.000000 0.500000
O O8 0.362545 0.045973 0.761256
O O9 0.750000 0.577295 0.250000
O O10 0.864853 0.650080 0.239643
O O11 0.849896 0.583536 0.021194
O O12 0.000000 0.701554 0.176692
O O13 0.500000 0.919172 0.095858
#
# Coordination Sequence:
#
# PCOD8263673 Si02
#       5
#    16  16  16  16  16
#     4   8  15  28  51  79 101 129 170 217 267 316
#     4  10  21  36  57  84 107 132 175 229 278 325
#     4  11  22  35  52  76 108 148 185 215 258 323
#     4   9  17  32  53  76 103 135 176 223 270 317
#     4   9  18  36  59  80 106 140 178 221 274 328
#
# _framework density 20.882289
#
# number of rings (size 3 to 8) (size 9 to 14) (size 15 to 20)
#    0.000    2.600    0.000    3.600    0.000    4.800 
#    0.000   10.000    0.000    1.200    0.000    0.000 
#    0.000    0.000    0.000    0.000    0.000    0.000 
#
# Total GULP energy -495792.879220 kJ/mol
# GULP energy per Si atom -12394.821981 kJ/mol
# Density = 2.083476 g / cm^3
# Si number density = 20.882289 Si / 1000 Ang^3
#
#
#
# Elastic Constant Matrix: (Units=GPa)
#
#
# Indices 1 2 3 4 5 6 
#
# 1 32.7582 10.0768 20.7005 0.0000 0.0000 0.0000
# 2 10.0768 179.0316 98.2297 0.0000 0.0000 0.0000
# 3 20.7005 98.2297 132.7963 0.0000 0.0000 0.0000
# 4 0.0000 0.0000 0.0000 46.5883 0.0000 0.0000
# 5 0.0000 0.0000 0.0000 0.0000 13.7001 0.0000
# 6 0.0000 0.0000 0.0000 0.0000 0.0000 7.0084
#
#
#
# Elastic Compliance Matrix: (Units=1/GPa)
#
#
# Indices 1 2 3 4 5 6 
#
# 1 0.034160 0.001681 -0.006569 0.000000 0.000000 0.000000
# 2 0.001681 0.009484 -0.007277 0.000000 0.000000 0.000000
# 3 -0.006569 -0.007277 0.013937 0.000000 0.000000 0.000000
# 4 0.000000 0.000000 0.000000 0.021465 0.000000 0.000000
# 5 0.000000 0.000000 0.000000 0.000000 0.072992 0.000000
# 6 0.000000 0.000000 0.000000 0.000000 0.000000 0.142687
#
#
# Mechanical properties :
#
#
# Convention : Reuss Voigt Hill
#
# Bulk Modulus (GPa) = 30.07313 66.95557 48.51435
# Shear Modulus (GPa) = 15.14516 27.83129 21.48822
#
# Velocity S-wave (km/s) = 2.69599 3.65467 3.21131
# Velocity P-wave (km/s) = 4.91159 7.06695 6.08545
#
# Compressibility (1/GPa) = 0.03325228
#
# Stress axis : x y z
#
# Youngs Moduli (GPa) = 29.27363 105.44268 71.74992
#
# Poissons Ratio (x) = -0.17728 0.47130
# Poissons Ratio (y) = -0.04922 0.52215
# Poissons Ratio (z) = 0.19229 0.76734
#
# Static dielectric constant tensor:
#      x y z
#    x 3.213510 0.000000 0.000000 
#    y 0.000000 4.025630 0.000000 
#    z 0.000000 0.000000 3.978230 
# 
# 
# High freq. dielectric constant tensor:
#      x y z
#    x 1.771670 0.000000 0.000000 
#    y 0.000000 1.833830 0.000000 
#    z 0.000000 0.000000 1.814160 
# 
# From -- ./inp_files/7014.got.cif
#   From: 2010.03.12/outbox.cif.g09.slc.cpg/sg64_4_cif.got.tgz:7014.got - 2010.04.10 20:19:32.
