data_PCOD8263100
_publ_section_title
;
Structure prediction by ZEFSAII (Michael W. Deem and Ramdas Pophale) SiO2 
 PCOD8263100
Probable space group: C M C A
;
_chemical_formula_sum "Si O2"
_cell_formula_units_Z 96
_cell_length_a 25.592349
_cell_length_b 24.031294
_cell_length_c 8.574412
_cell_angle_alpha 90.000000
_cell_angle_beta 90.000000
_cell_angle_gamma 90.000000
_cell_volume 5273.411400
_symmetry_space_group_name_H-M "C M C A"
_symmetry_group_IT_number 64
_symmetry_cell_setting 'orthorhombic'
loop_
_space_group_symop_operation_xyz
x,y,z
-x,1/2-y,1/2+z
x,-y,-z
-x,1/2+y,1/2-z
-x,-y,-z
x,1/2+y,1/2-z
-x,y,z
x,1/2-y,1/2+z
1/2+x,1/2+y,z
1/2-x,-y,1/2+z
1/2+x,1/2-y,-z
1/2-x,y,1/2-z
1/2-x,1/2-y,-z
1/2+x,y,1/2-z
1/2-x,1/2+y,z
1/2+x,-y,1/2+z
loop_
_atom_site_type_symbol
_atom_site_label
_atom_site_fract_x
_atom_site_fract_y
_atom_site_fract_z
Si Si1 0.558712 0.817929 0.949411
Si Si2 0.657787 0.864574 0.062355
Si Si3 0.748399 0.439949 0.434082
Si Si4 0.173994 0.345989 0.420424
Si Si5 0.799308 0.229336 0.347118
Si Si6 0.102175 0.713893 0.360712
O O1 0.500000 0.834439 0.997669
O O2 0.598307 0.867684 0.998406
O O3 0.560321 0.809823 0.762400
O O4 0.575715 0.761571 0.036631
O O5 0.686611 0.811493 0.987664
O O6 0.690806 0.919225 0.011738
O O7 0.655536 0.860696 0.247715
O O8 0.761569 0.500000 0.500000
O O9 0.750000 0.442185 0.250000
O O10 0.792135 0.396209 0.493632
O O11 0.211085 0.290561 0.420989
O O12 0.122765 0.335635 0.526719
O O13 0.750000 0.206962 0.250000
O O14 0.849012 0.238131 0.235120
#
# Coordination Sequence:
#
# PCOD8263100 Si02
#       6
#    16  16  16  16  16  16
#     4  11  21  34  50  74 108 143 181 223 266 311
#     4  10  20  36  52  77 109 144 179 217 262 311
#     4  10  23  37  55  78 110 143 176 214 259 317
#     4  11  19  33  53  77 110 143 176 209 261 323
#     4  11  19  29  51  82 110 143 172 205 257 326
#     4  11  20  32  49  77 109 145 177 210 263 321
#
# _framework density 18.204533999999999
#
# number of rings (size 3 to 8) (size 9 to 14) (size 15 to 20)
#    0.000    1.333    5.000    3.000    0.000    5.333 
#    0.000    0.833    0.000    0.500    0.000    0.000 
#    0.000    8.000    0.000    0.000    0.000    0.000 
#
# Total GULP energy -595031.007109 kJ/mol
# GULP energy per Si atom -12396.479315 kJ/mol
# Density = 1.816310 g / cm^3
# Si number density = 18.204534 Si / 1000 Ang^3
#
#
#
# Elastic Constant Matrix: (Units=GPa)
#
#
# Indices 1 2 3 4 5 6 
#
# 1 126.0036 33.6734 31.7050 0.0000 0.0000 0.0000
# 2 33.6734 83.6188 20.3811 0.0000 0.0000 0.0000
# 3 31.7050 20.3811 74.0865 0.0000 0.0000 0.0000
# 4 0.0000 0.0000 0.0000 23.7764 0.0000 0.0000
# 5 0.0000 0.0000 0.0000 0.0000 13.6733 0.0000
# 6 0.0000 0.0000 0.0000 0.0000 0.0000 13.5778
#
#
#
# Elastic Compliance Matrix: (Units=1/GPa)
#
#
# Indices 1 2 3 4 5 6 
#
# 1 0.009573 -0.003062 -0.003255 0.000000 0.000000 0.000000
# 2 -0.003062 0.013798 -0.002485 0.000000 0.000000 0.000000
# 3 -0.003255 -0.002485 0.015574 0.000000 0.000000 0.000000
# 4 0.000000 0.000000 0.000000 0.042059 0.000000 0.000000
# 5 0.000000 0.000000 0.000000 0.000000 0.073135 0.000000
# 6 0.000000 0.000000 0.000000 0.000000 0.000000 0.073650
#
#
# Mechanical properties :
#
#
# Convention : Reuss Voigt Hill
#
# Bulk Modulus (GPa) = 46.85671 50.58086 48.71879
# Shear Modulus (GPa) = 19.80141 23.40211 21.60176
#
# Velocity S-wave (km/s) = 3.30164 3.58929 3.44846
# Velocity P-wave (km/s) = 6.35054 6.70987 6.53268
#
# Compressibility (1/GPa) = 0.02134166
#
# Stress axis : x y z
#
# Youngs Moduli (GPa) = 104.45513 72.47489 64.20848
#
# Poissons Ratio (x) = 0.22192 0.20897
# Poissons Ratio (y) = 0.31984 0.15959
# Poissons Ratio (z) = 0.33996 0.18013
#
# Static dielectric constant tensor:
#      x y z
#    x 3.459110 0.000000 0.000000 
#    y 0.000000 -74.232660 0.000000 
#    z 0.000000 0.000000 3.637630 
# 
# 
# High freq. dielectric constant tensor:
#      x y z
#    x 1.691990 0.000000 0.000000 
#    y 0.000000 1.654860 0.000000 
#    z 0.000000 0.000000 1.726930 
# 
# From -- ./inp_files/10348.got.cif
#   From: 2010.03.12/outbox.cif.g09.slc.cpg/sg64_6_cif.got.tgz:10348.got - 2010.04.10 20:19:32.
