data_PCOD8263956
_publ_section_title
;
Structure prediction by ZEFSAII (Michael W. Deem and Ramdas Pophale) SiO2 
 PCOD8263956
Probable space group: C M C A
;
_chemical_formula_sum "Si O2"
_cell_formula_units_Z 96
_cell_length_a 8.710987
_cell_length_b 20.455168
_cell_length_c 26.670643
_cell_angle_alpha 90.000000
_cell_angle_beta 90.000000
_cell_angle_gamma 90.000000
_cell_volume 4752.300589
_symmetry_space_group_name_H-M "C M C A"
_symmetry_group_IT_number 64
_symmetry_cell_setting 'orthorhombic'
loop_
_space_group_symop_operation_xyz
x,y,z
-x,1/2-y,1/2+z
x,-y,-z
-x,1/2+y,1/2-z
-x,-y,-z
x,1/2+y,1/2-z
-x,y,z
x,1/2-y,1/2+z
1/2+x,1/2+y,z
1/2-x,-y,1/2+z
1/2+x,1/2-y,-z
1/2-x,y,1/2-z
1/2-x,1/2-y,-z
1/2+x,y,1/2-z
1/2-x,1/2+y,z
1/2+x,-y,1/2+z
loop_
_atom_site_type_symbol
_atom_site_label
_atom_site_fract_x
_atom_site_fract_y
_atom_site_fract_z
Si Si1 0.323154 0.569125 0.022064
Si Si2 0.679454 0.936917 0.303786
Si Si3 0.820056 0.185524 0.304059
Si Si4 0.182045 0.811290 0.356245
Si Si5 0.179688 0.309508 0.030116
Si Si6 0.175960 0.569081 0.360497
O O1 0.500000 0.584304 0.009139
O O2 0.293222 0.568262 0.080798
O O3 0.271790 0.500000 0.000000
O O4 0.217764 0.623106 0.996816
O O5 0.500000 0.923846 0.297920
O O6 0.750000 0.952485 0.250000
O O7 0.755541 0.873694 0.327503
O O8 0.715476 0.997804 0.339548
O O9 0.750000 0.172538 0.250000
O O10 0.739522 0.247004 0.328927
O O11 0.790160 0.121449 0.336907
O O12 0.000000 0.198751 0.299879
O O13 0.244381 0.810762 0.413213
O O14 0.000000 0.813028 0.354554
O O15 0.000000 0.298498 0.031205
O O16 0.250000 0.250000 0.000000
O O17 0.000000 0.588255 0.348169
#
# Coordination Sequence:
#
# PCOD8263956 Si02
#       6
#    16  16  16  16  16  16
#     4  10  21  39  63  90 122 159 198 243 295 351
#     4  11  23  40  63  90 121 157 198 244 296 354
#     4  12  25  41  63  89 119 156 199 246 298 355
#     4  11  24  42  62  87 121 158 199 246 296 351
#     4  11  24  40  61  89 121 158 199 246 296 350
#     4  10  22  40  62  90 123 158 198 244 294 350
#
# _framework density 20.200742000000002
#
# number of rings (size 3 to 8) (size 9 to 14) (size 15 to 20)
#    0.000    1.167    0.000    6.000    0.000   11.667 
#    0.000    0.000    0.000    0.000    0.000    0.000 
#    0.000    0.000    0.000    0.000    0.000    0.000 
#
# Total GULP energy -595535.608870 kJ/mol
# GULP energy per Si atom -12406.991851 kJ/mol
# Density = 2.015476 g / cm^3
# Si number density = 20.200742 Si / 1000 Ang^3
#
#
#
# Elastic Constant Matrix: (Units=GPa)
#
#
# Indices 1 2 3 4 5 6 
#
# 1 65.2944 24.6411 20.1505 0.0000 0.0000 0.0000
# 2 24.6411 115.1647 32.3143 0.0000 0.0000 0.0000
# 3 20.1505 32.3143 103.9260 0.0000 0.0000 0.0000
# 4 0.0000 0.0000 0.0000 47.6778 0.0000 0.0000
# 5 0.0000 0.0000 0.0000 0.0000 28.6362 0.0000
# 6 0.0000 0.0000 0.0000 0.0000 0.0000 41.7806
#
#
#
# Elastic Compliance Matrix: (Units=1/GPa)
#
#
# Indices 1 2 3 4 5 6 
#
# 1 0.017189 -0.003005 -0.002399 0.000000 0.000000 0.000000
# 2 -0.003005 0.010038 -0.002539 0.000000 0.000000 0.000000
# 3 -0.002399 -0.002539 0.010877 0.000000 0.000000 0.000000
# 4 0.000000 0.000000 0.000000 0.020974 0.000000 0.000000
# 5 0.000000 0.000000 0.000000 0.000000 0.034921 0.000000
# 6 0.000000 0.000000 0.000000 0.000000 0.000000 0.023935
#
#
# Mechanical properties :
#
#
# Convention : Reuss Voigt Hill
#
# Bulk Modulus (GPa) = 45.00394 48.73297 46.86845
# Shear Modulus (GPa) = 35.40443 37.43753 36.42098
#
# Velocity S-wave (km/s) = 4.19098 4.30964 4.25073
# Velocity P-wave (km/s) = 6.76357 6.99576 6.88064
#
# Compressibility (1/GPa) = 0.02222028
#
# Stress axis : x y z
#
# Youngs Moduli (GPa) = 58.17513 99.61654 91.93988
#
# Poissons Ratio (x) = 0.29934 0.22053
# Poissons Ratio (y) = 0.17481 0.23341
# Poissons Ratio (z) = 0.13954 0.25290
#
# Static dielectric constant tensor:
#      x y z
#    x 3.691720 0.000000 0.000000 
#    y 0.000000 3.695220 0.000000 
#    z 0.000000 0.000000 4.105320 
# 
# 
# High freq. dielectric constant tensor:
#      x y z
#    x 1.792260 0.000000 0.000000 
#    y 0.000000 1.807090 0.000000 
#    z 0.000000 0.000000 1.811260 
# 
# From -- ./inp_files/48126.got.cif
#   From: 2010.03.12/outbox.cif.g09.slc.cpg/sg64_25_cif.got.tgz:48126.got - 2010.04.10 20:19:32.
