data_PCOD8263370
_publ_section_title
;
Structure prediction by ZEFSAII (Michael W. Deem and Ramdas Pophale) SiO2 
 PCOD8263370
Probable space group: C M C A
;
_chemical_formula_sum "Si O2"
_cell_formula_units_Z 96
_cell_length_a 19.479982
_cell_length_b 14.879636
_cell_length_c 15.393683
_cell_angle_alpha 90.000000
_cell_angle_beta 90.000000
_cell_angle_gamma 90.000000
_cell_volume 4461.936624
_symmetry_space_group_name_H-M "C M C A"
_symmetry_group_IT_number 64
_symmetry_cell_setting 'orthorhombic'
loop_
_space_group_symop_operation_xyz
x,y,z
-x,1/2-y,1/2+z
x,-y,-z
-x,1/2+y,1/2-z
-x,-y,-z
x,1/2+y,1/2-z
-x,y,z
x,1/2-y,1/2+z
1/2+x,1/2+y,z
1/2-x,-y,1/2+z
1/2+x,1/2-y,-z
1/2-x,y,1/2-z
1/2-x,1/2-y,-z
1/2+x,y,1/2-z
1/2-x,1/2+y,z
1/2+x,-y,1/2+z
loop_
_atom_site_type_symbol
_atom_site_label
_atom_site_fract_x
_atom_site_fract_y
_atom_site_fract_z
Si Si1 0.314219 0.095837 0.010122
Si Si2 0.423107 0.061767 0.283342
Si Si3 0.923054 0.149027 0.760016
Si Si4 0.717558 0.617964 0.161134
Si Si5 0.077593 0.313132 0.880349
Si Si6 0.209610 0.323190 0.167440
O O1 0.254173 0.074482 0.078916
O O2 0.369633 0.169805 0.041109
O O3 0.276164 0.125582 0.921923
O O4 0.352780 0.000000 0.000000
O O5 0.500000 0.087058 0.316768
O O6 0.364254 0.100705 0.346087
O O7 0.411267 0.106682 0.189194
O O8 0.414457 0.954795 0.283842
O O9 0.905528 0.214736 0.840918
O O10 0.872191 0.173756 0.682400
O O11 0.000000 0.169729 0.727269
O O12 0.750000 0.577261 0.250000
O O13 0.736145 0.722634 0.156736
O O14 0.000000 0.315191 0.916249
O O15 0.250000 0.367726 0.250000
#
# Coordination Sequence:
#
# PCOD8263370 Si02
#       6
#    16  16  16  16  16  16
#     4  12  26  40  61  99 131 169 216 269 327 386
#     4  10  20  37  66  95 125 169 216 259 318 389
#     4  10  21  38  67  97 123 168 214 258 324 391
#     4  11  22  42  64  91 130 170 215 265 322 383
#     4  10  20  41  66  95 134 166 208 267 324 390
#     4  11  24  41  65  89 127 173 218 264 322 383
#
# _framework density 21.515322000000001
#
# number of rings (size 3 to 8) (size 9 to 14) (size 15 to 20)
#    0.000    1.333    3.333    2.500    2.333    1.000 
#    0.000    0.000    0.000    1.500    0.000    0.000 
#    0.000    0.000    0.000    0.000    0.000    0.000 
#
# Total GULP energy -595126.064464 kJ/mol
# GULP energy per Si atom -12398.459676 kJ/mol
# Density = 2.146635 g / cm^3
# Si number density = 21.515322 Si / 1000 Ang^3
#
#
#
# Elastic Constant Matrix: (Units=GPa)
#
#
# Indices 1 2 3 4 5 6 
#
# 1 109.6195 11.8801 52.1948 0.0000 0.0000 0.0000
# 2 11.8801 110.4325 38.4335 0.0000 0.0000 0.0000
# 3 52.1948 38.4335 127.5938 0.0000 0.0000 0.0000
# 4 0.0000 0.0000 0.0000 15.7063 0.0000 0.0000
# 5 0.0000 0.0000 0.0000 0.0000 25.0038 0.0000
# 6 0.0000 0.0000 0.0000 0.0000 0.0000 31.1168
#
#
#
# Elastic Compliance Matrix: (Units=1/GPa)
#
#
# Indices 1 2 3 4 5 6 
#
# 1 0.011348 0.000441 -0.004775 0.000000 0.000000 0.000000
# 2 0.000441 0.010133 -0.003233 0.000000 0.000000 0.000000
# 3 -0.004775 -0.003233 0.010764 0.000000 0.000000 0.000000
# 4 0.000000 0.000000 0.000000 0.063669 0.000000 0.000000
# 5 0.000000 0.000000 0.000000 0.000000 0.039994 0.000000
# 6 0.000000 0.000000 0.000000 0.000000 0.000000 0.032137
#
#
# Mechanical properties :
#
#
# Convention : Reuss Voigt Hill
#
# Bulk Modulus (GPa) = 58.43757 61.40696 59.92227
# Shear Modulus (GPa) = 26.47146 30.70788 28.58967
#
# Velocity S-wave (km/s) = 3.51145 3.78200 3.64923
# Velocity P-wave (km/s) = 6.60759 6.90467 6.75776
#
# Compressibility (1/GPa) = 0.01711228
#
# Stress axis : x y z
#
# Youngs Moduli (GPa) = 88.11890 98.68845 92.89846
#
# Poissons Ratio (x) = -0.04353 0.44360
# Poissons Ratio (y) = -0.03886 0.30031
# Poissons Ratio (z) = 0.42078 0.31902
#
# Static dielectric constant tensor:
#      x y z
#    x 4.102910 0.000000 0.000000 
#    y 0.000000 3.985460 0.000000 
#    z 0.000000 0.000000 3.571770 
# 
# 
# High freq. dielectric constant tensor:
#      x y z
#    x 1.857950 0.000000 0.000000 
#    y 0.000000 1.855140 0.000000 
#    z 0.000000 0.000000 1.806540 
# 
# From -- ./inp_files/26339.got.cif
#   From: 2010.03.12/outbox.cif.g09.slc.cpg/sg64_14_cif.got.tgz:26339.got - 2010.04.10 20:19:32.
