data_PCOD8263905
_publ_section_title
;
Structure prediction by ZEFSAII (Michael W. Deem and Ramdas Pophale) SiO2 
 PCOD8263905
Probable space group: C M C A
;
_chemical_formula_sum "Si O2"
_cell_formula_units_Z 96
_cell_length_a 14.761490
_cell_length_b 20.339062
_cell_length_c 14.108064
_cell_angle_alpha 90.000000
_cell_angle_beta 90.000000
_cell_angle_gamma 90.000000
_cell_volume 4235.732624
_symmetry_space_group_name_H-M "C M C A"
_symmetry_group_IT_number 64
_symmetry_cell_setting 'orthorhombic'
loop_
_space_group_symop_operation_xyz
x,y,z
-x,1/2-y,1/2+z
x,-y,-z
-x,1/2+y,1/2-z
-x,-y,-z
x,1/2+y,1/2-z
-x,y,z
x,1/2-y,1/2+z
1/2+x,1/2+y,z
1/2-x,-y,1/2+z
1/2+x,1/2-y,-z
1/2-x,y,1/2-z
1/2-x,1/2-y,-z
1/2+x,y,1/2-z
1/2-x,1/2+y,z
1/2+x,-y,1/2+z
loop_
_atom_site_type_symbol
_atom_site_label
_atom_site_fract_x
_atom_site_fract_y
_atom_site_fract_z
Si Si1 0.899943 0.941412 0.426725
Si Si2 0.399678 0.184499 0.176184
Si Si3 0.103332 0.454177 0.289696
Si Si4 0.319212 0.186149 0.668398
Si Si5 0.241845 0.651849 0.014986
Si Si6 0.106176 0.595972 0.358201
O O1 0.882182 0.967544 0.321315
O O2 0.818772 0.893682 0.448562
O O3 0.000000 0.907428 0.431330
O O4 0.897101 0.000000 0.500000
O O5 0.500000 0.162179 0.141395
O O6 0.401764 0.263630 0.191829
O O7 0.321835 0.174880 0.099299
O O8 0.373902 0.143578 0.269375
O O9 0.155592 0.390674 0.328306
O O10 0.137197 0.521257 0.338213
O O11 0.000000 0.441663 0.315565
O O12 0.250000 0.203867 0.750000
O O13 0.277502 0.204268 0.563705
O O14 0.332847 0.618125 0.054096
O O15 0.000000 0.600076 0.386045
#
# Coordination Sequence:
#
# PCOD8263905 Si02
#       6
#    16  16  16  16  16  16
#     4  10  21  38  64  99 134 174 225 279 334 394
#     4  11  25  47  70  97 133 182 231 286 340 405
#     4  10  22  43  66  96 136 180 223 277 341 407
#     4  12  25  42  64 101 140 178 226 281 344 404
#     4  12  24  41  70  99 135 176 232 275 341 405
#     4  10  24  45  71  99 138 181 228 279 341 410
#
# _framework density 22.66432
#
# number of rings (size 3 to 8) (size 9 to 14) (size 15 to 20)
#    0.000    1.167    1.667    4.000    2.333    5.333 
#    0.000    3.333    0.000    0.000    0.000    0.000 
#    0.000    0.000    0.000    0.000    0.000    0.000 
#
# Total GULP energy -594855.393787 kJ/mol
# GULP energy per Si atom -12392.820704 kJ/mol
# Density = 2.261274 g / cm^3
# Si number density = 22.664320 Si / 1000 Ang^3
#
#
#
# Elastic Constant Matrix: (Units=GPa)
#
#
# Indices 1 2 3 4 5 6 
#
# 1 87.0991 5.2926 13.0603 0.0000 0.0000 0.0000
# 2 5.2926 56.6366 -19.7526 0.0000 0.0000 0.0000
# 3 13.0603 -19.7526 58.0958 0.0000 0.0000 0.0000
# 4 0.0000 0.0000 0.0000 22.3517 0.0000 0.0000
# 5 0.0000 0.0000 0.0000 0.0000 36.2633 0.0000
# 6 0.0000 0.0000 0.0000 0.0000 0.0000 43.4303
#
#
#
# Elastic Compliance Matrix: (Units=1/GPa)
#
#
# Indices 1 2 3 4 5 6 
#
# 1 0.012156 -0.002370 -0.003538 0.000000 0.000000 0.000000
# 2 -0.002370 0.020494 0.007501 0.000000 0.000000 0.000000
# 3 -0.003538 0.007501 0.020559 0.000000 0.000000 0.000000
# 4 0.000000 0.000000 0.000000 0.044739 0.000000 0.000000
# 5 0.000000 0.000000 0.000000 0.000000 0.027576 0.000000
# 6 0.000000 0.000000 0.000000 0.000000 0.000000 0.023025
#
#
# Mechanical properties :
#
#
# Convention : Reuss Voigt Hill
#
# Bulk Modulus (GPa) = 17.73280 22.11467 19.92373
# Shear Modulus (GPa) = 30.45767 33.95782 32.20775
#
# Velocity S-wave (km/s) = 3.66985 3.87498 3.77381
# Velocity P-wave (km/s) = 5.07918 5.45887 5.27245
#
# Compressibility (1/GPa) = 0.05639268
#
# Stress axis : x y z
#
# Youngs Moduli (GPa) = 82.26546 48.79512 48.64131
#
# Poissons Ratio (x) = 0.11565 0.17212
# Poissons Ratio (y) = 0.19497 -0.36484
# Poissons Ratio (z) = 0.29110 -0.36600
#
# Static dielectric constant tensor:
#      x y z
#    x 4.328010 0.000000 0.000000 
#    y 0.000000 4.312650 0.000000 
#    z 0.000000 0.000000 3.840790 
# 
# 
# High freq. dielectric constant tensor:
#      x y z
#    x 1.906690 0.000000 0.000000 
#    y 0.000000 1.893490 0.000000 
#    z 0.000000 0.000000 1.902350 
# 
# From -- ./inp_files/23863.got.cif
#   From: 2010.03.12/outbox.cif.g09.slc.cpg/sg64_12_cif.got.tgz:23863.got - 2010.04.10 20:19:32.
