data_PCOD8263986
_publ_section_title
;
Structure prediction by ZEFSAII (Michael W. Deem and Ramdas Pophale) SiO2 
 PCOD8263986
Probable space group: C M C A
;
_chemical_formula_sum "Si O2"
_cell_formula_units_Z 112
_cell_length_a 10.499379
_cell_length_b 14.131502
_cell_length_c 32.987186
_cell_angle_alpha 90.000000
_cell_angle_beta 90.000000
_cell_angle_gamma 90.000000
_cell_volume 4894.374607
_symmetry_space_group_name_H-M "C M C A"
_symmetry_group_IT_number 64
_symmetry_cell_setting 'orthorhombic'
loop_
_space_group_symop_operation_xyz
x,y,z
-x,1/2-y,1/2+z
x,-y,-z
-x,1/2+y,1/2-z
-x,-y,-z
x,1/2+y,1/2-z
-x,y,z
x,1/2-y,1/2+z
1/2+x,1/2+y,z
1/2-x,-y,1/2+z
1/2+x,1/2-y,-z
1/2-x,y,1/2-z
1/2-x,1/2-y,-z
1/2+x,y,1/2-z
1/2-x,1/2+y,z
1/2+x,-y,1/2+z
loop_
_atom_site_type_symbol
_atom_site_label
_atom_site_fract_x
_atom_site_fract_y
_atom_site_fract_z
Si Si1 0.776088 0.601951 0.011860
Si Si2 0.635650 0.720730 0.948518
Si Si3 0.857258 0.222352 0.279682
Si Si4 0.140340 0.496797 0.777968
Si Si5 0.263435 0.754990 0.633083
Si Si6 0.357254 0.446172 0.367540
Si Si7 0.643387 0.938015 0.591437
O O1 0.875053 0.673787 0.032195
O O2 0.660282 0.590363 0.044170
O O3 0.836400 0.500000 0.000000
O O4 0.734464 0.651718 0.970159
O O5 0.500000 0.671039 0.953516
O O6 0.661637 0.732201 0.901354
O O7 0.750000 0.269622 0.250000
O O8 0.867783 0.113230 0.267754
O O9 0.813881 0.233199 0.325760
O O10 0.000000 0.267236 0.273877
O O11 0.250000 0.544620 0.750000
O O12 0.180090 0.510401 0.824354
O O13 0.000000 0.542428 0.769517
O O14 0.359975 0.667173 0.635843
O O15 0.342021 0.848564 0.621392
O O16 0.500000 0.479314 0.380700
O O17 0.250343 0.482937 0.398831
O O18 0.500000 0.977952 0.597288
#
# Coordination Sequence:
#
# PCOD8263986 Si02
#       7
#    16  16  16  16  16  16  16
#     4  10  22  40  61  91 126 165 213 263 319 379
#     4  10  22  40  63  91 128 168 211 266 319 374
#     4  10  21  39  65  94 127 169 214 260 316 381
#     4   9  19  38  61  88 121 160 205 257 312 372
#     4  11  23  41  65  95 129 167 213 263 320 381
#     4  11  24  42  64  92 127 167 211 262 319 380
#     4  11  24  41  64  94 128 168 214 263 319 381
#
# _framework density 22.883413000000001
#
# number of rings (size 3 to 8) (size 9 to 14) (size 15 to 20)
#    0.000    1.714    1.429    2.143    0.000    8.286 
#    0.000    6.429    0.000    0.000    0.000    0.000 
#    0.000    0.000    0.000    0.000    0.000    0.000 
#
# Total GULP energy -694085.218602 kJ/mol
# GULP energy per Si atom -12394.378904 kJ/mol
# Density = 2.283133 g / cm^3
# Si number density = 22.883413 Si / 1000 Ang^3
#
#
#
# Elastic Constant Matrix: (Units=GPa)
#
#
# Indices 1 2 3 4 5 6 
#
# 1 134.2240 10.5025 56.4284 0.0000 0.0000 0.0000
# 2 10.5025 85.8363 4.1481 0.0000 0.0000 0.0000
# 3 56.4284 4.1481 131.1893 0.0000 0.0000 0.0000
# 4 0.0000 0.0000 0.0000 16.7489 0.0000 0.0000
# 5 0.0000 0.0000 0.0000 0.0000 -4.0816 0.0000
# 6 0.0000 0.0000 0.0000 0.0000 0.0000 33.6522
#
#
#
# Elastic Compliance Matrix: (Units=1/GPa)
#
#
# Indices 1 2 3 4 5 6 
#
# 1 0.009169 -0.000933 -0.003914 0.000000 0.000000 0.000000
# 2 -0.000933 0.011763 0.000029 0.000000 0.000000 0.000000
# 3 -0.003914 0.000029 0.009305 0.000000 0.000000 0.000000
# 4 0.000000 0.000000 0.000000 0.059705 0.000000 0.000000
# 5 0.000000 0.000000 0.000000 0.000000 -0.244999 0.000000
# 6 0.000000 0.000000 0.000000 0.000000 0.000000 0.029716
#
#
# Mechanical properties :
#
#
# Convention : Reuss Voigt Hill
#
# Bulk Modulus (GPa) = 48.54030 54.82307 51.68168
# Shear Modulus (GPa) = -45.93951 27.94194 -8.99879
#
# Velocity S-wave (km/s) = -4.48543 3.49815 -1.98519
# Velocity P-wave (km/s) = 2.35952 6.35025 4.16883
#
# Compressibility (1/GPa) = 0.02060144
#
# Stress axis : x y z
#
# Youngs Moduli (GPa) = 109.06561 85.01381 107.46573
#
# Poissons Ratio (x) = 0.07929 0.42065
# Poissons Ratio (y) = 0.10172 -0.00314
# Poissons Ratio (z) = 0.42691 -0.00249
#
# Static dielectric constant tensor:
#      x y z
#    x 4.107860 0.000000 0.000000 
#    y 0.000000 4.151950 0.000000 
#    z 0.000000 0.000000 4.056200 
# 
# 
# High freq. dielectric constant tensor:
#      x y z
#    x 1.891910 0.000000 0.000000 
#    y 0.000000 1.903010 0.000000 
#    z 0.000000 0.000000 1.907100 
# 
# From -- ./inp_files/52843.got.cif
#   From: 2010.03.12/outbox.cif.g09.slc.cpg/sg64_27_cif.got.tgz:52843.got - 2010.04.10 20:19:32.
