data_PCOD8263877
_publ_section_title
;
Structure prediction by ZEFSAII (Michael W. Deem and Ramdas Pophale) SiO2 
 PCOD8263877
Probable space group: C M C A
;
_chemical_formula_sum "Si O2"
_cell_formula_units_Z 112
_cell_length_a 24.552660
_cell_length_b 14.895267
_cell_length_c 15.166736
_cell_angle_alpha 90.000000
_cell_angle_beta 90.000000
_cell_angle_gamma 90.000000
_cell_volume 5546.754821
_symmetry_space_group_name_H-M "C M C A"
_symmetry_group_IT_number 64
_symmetry_cell_setting 'orthorhombic'
loop_
_space_group_symop_operation_xyz
x,y,z
-x,1/2-y,1/2+z
x,-y,-z
-x,1/2+y,1/2-z
-x,-y,-z
x,1/2+y,1/2-z
-x,y,z
x,1/2-y,1/2+z
1/2+x,1/2+y,z
1/2-x,-y,1/2+z
1/2+x,1/2-y,-z
1/2-x,y,1/2-z
1/2-x,1/2-y,-z
1/2+x,y,1/2-z
1/2-x,1/2+y,z
1/2+x,-y,1/2+z
loop_
_atom_site_type_symbol
_atom_site_label
_atom_site_fract_x
_atom_site_fract_y
_atom_site_fract_z
Si Si1 0.560016 0.815996 0.671466
Si Si2 0.611720 0.367613 0.322961
Si Si3 0.138372 0.599991 0.012147
Si Si4 0.938662 0.436040 0.841641
Si Si5 0.641270 0.563987 0.076757
Si Si6 0.200015 0.930862 0.194972
Si Si7 0.757041 0.353842 0.485511
O O1 0.500000 0.809122 0.629598
O O2 0.575940 0.717148 0.707176
O O3 0.560242 0.885430 0.750300
O O4 0.599106 0.856962 0.596744
O O5 0.627171 0.342623 0.424255
O O6 0.580606 0.462330 0.321343
O O7 0.665208 0.367933 0.260979
O O8 0.102038 0.625633 0.097519
O O9 0.116464 0.500000 0.000000
O O10 0.203241 0.598833 0.025165
O O11 0.000000 0.439007 0.882255
O O12 0.657795 0.506309 0.162448
O O13 0.616831 0.500000 0.000000
O O14 0.696289 0.609602 0.046674
O O15 0.250000 0.974262 0.250000
O O16 0.227313 0.874245 0.115709
O O17 0.750000 0.250000 0.500000
#
# Coordination Sequence:
#
# PCOD8263877 Si02
#       7
#    16  16  16  16  16  16  16
#     4  11  24  43  65  92 125 170 222 274 327 390
#     4  11  22  40  66  93 129 167 217 268 327 391
#     4  10  21  38  62  88 121 162 207 263 325 381
#     4  10  23  42  65  93 127 170 220 277 331 387
#     4  10  23  41  65  90 129 170 213 261 327 397
#     4  11  22  40  62  93 129 168 209 258 326 392
#     4  11  23  38  60  94 132 167 210 264 318 392
#
# _framework density 20.191987000000001
#
# number of rings (size 3 to 8) (size 9 to 14) (size 15 to 20)
#    0.000    1.429    2.857    2.571    4.000    3.429 
#    0.000    0.000    0.000    0.000    0.000    0.000 
#    0.000    0.000    0.000    0.000    0.000    0.000 
#
# Total GULP energy -694017.172704 kJ/mol
# GULP energy per Si atom -12393.163798 kJ/mol
# Density = 2.014603 g / cm^3
# Si number density = 20.191987 Si / 1000 Ang^3
#
#
#
# Elastic Constant Matrix: (Units=GPa)
#
#
# Indices 1 2 3 4 5 6 
#
# 1 153.7183 34.5169 54.1524 0.0000 0.0000 0.0000
# 2 34.5169 98.5936 30.7978 0.0000 0.0000 0.0000
# 3 54.1524 30.7978 77.3237 0.0000 0.0000 0.0000
# 4 0.0000 0.0000 0.0000 19.0320 0.0000 0.0000
# 5 0.0000 0.0000 0.0000 0.0000 23.9428 0.0000
# 6 0.0000 0.0000 0.0000 0.0000 0.0000 24.5606
#
#
#
# Elastic Compliance Matrix: (Units=1/GPa)
#
#
# Indices 1 2 3 4 5 6 
#
# 1 0.008783 -0.001317 -0.005627 0.000000 0.000000 0.000000
# 2 -0.001317 0.011781 -0.003770 0.000000 0.000000 0.000000
# 3 -0.005627 -0.003770 0.018375 0.000000 0.000000 0.000000
# 4 0.000000 0.000000 0.000000 0.052543 0.000000 0.000000
# 5 0.000000 0.000000 0.000000 0.000000 0.041766 0.000000
# 6 0.000000 0.000000 0.000000 0.000000 0.000000 0.040716
#
#
# Mechanical properties :
#
#
# Convention : Reuss Voigt Hill
#
# Bulk Modulus (GPa) = 57.10452 63.17440 60.13946
# Shear Modulus (GPa) = 24.84726 27.51831 26.18278
#
# Velocity S-wave (km/s) = 3.51173 3.69566 3.60487
# Velocity P-wave (km/s) = 6.69217 7.04027 6.86842
#
# Compressibility (1/GPa) = 0.01751175
#
# Stress axis : x y z
#
# Youngs Moduli (GPa) = 113.85150 84.87905 54.42277
#
# Poissons Ratio (x) = 0.11182 0.30621
# Poissons Ratio (y) = 0.14999 0.20517
# Poissons Ratio (z) = 0.64059 0.31999
#
# Static dielectric constant tensor:
#      x y z
#    x 3.984100 0.000000 0.000000 
#    y 0.000000 3.594820 0.000000 
#    z 0.000000 0.000000 3.832080 
# 
# 
# High freq. dielectric constant tensor:
#      x y z
#    x 1.798720 0.000000 0.000000 
#    y 0.000000 1.780120 0.000000 
#    z 0.000000 0.000000 1.788810 
# 
# From -- ./inp_files/28051.got.cif
#   From: 2010.03.12/outbox.cif.g09.slc.cpg/sg64_15_cif.got.tgz:28051.got - 2010.04.10 20:19:32.
