data_PCOD8263283
_publ_section_title
;
Structure prediction by ZEFSAII (Michael W. Deem and Ramdas Pophale) SiO2 
 PCOD8263283
Probable space group: C M C A
;
_chemical_formula_sum "Si O2"
_cell_formula_units_Z 96
_cell_length_a 9.270267
_cell_length_b 29.728264
_cell_length_c 19.152800
_cell_angle_alpha 90.000000
_cell_angle_beta 90.000000
_cell_angle_gamma 90.000000
_cell_volume 5278.299941
_symmetry_space_group_name_H-M "C M C A"
_symmetry_group_IT_number 64
_symmetry_cell_setting 'orthorhombic'
loop_
_space_group_symop_operation_xyz
x,y,z
-x,1/2-y,1/2+z
x,-y,-z
-x,1/2+y,1/2-z
-x,-y,-z
x,1/2+y,1/2-z
-x,y,z
x,1/2-y,1/2+z
1/2+x,1/2+y,z
1/2-x,-y,1/2+z
1/2+x,1/2-y,-z
1/2-x,y,1/2-z
1/2-x,1/2-y,-z
1/2+x,y,1/2-z
1/2-x,1/2+y,z
1/2+x,-y,1/2+z
loop_
_atom_site_type_symbol
_atom_site_label
_atom_site_fract_x
_atom_site_fract_y
_atom_site_fract_z
Si Si1 0.833392 0.380907 0.558354
Si Si2 0.667436 0.865819 0.083335
Si Si3 0.331139 0.816169 0.680163
Si Si4 0.166471 0.515819 0.423057
Si Si5 0.167511 0.786355 0.319016
Si Si6 0.670286 0.451048 0.323227
O O1 0.751899 0.371536 0.487506
O O2 0.774451 0.347285 0.617537
O O3 0.807613 0.431268 0.584774
O O4 0.000000 0.371657 0.543064
O O5 0.500000 0.866927 0.064714
O O6 0.713734 0.818392 0.117367
O O7 0.707995 0.905339 0.136545
O O8 0.500000 0.823102 0.693327
O O9 0.250000 0.831134 0.750000
O O10 0.293722 0.764724 0.660314
O O11 0.212783 0.500000 0.500000
O O12 0.269832 0.492885 0.367037
O O13 0.000000 0.502645 0.408659
O O14 0.250000 0.801859 0.250000
O O15 0.000000 0.792238 0.302043
O O16 0.500000 0.457297 0.311709
O O17 0.750000 0.449299 0.250000
#
# Coordination Sequence:
#
# PCOD8263283 Si02
#       6
#    16  16  16  16  16  16
#     4  10  21  36  56  81 108 141 179 220 269 322
#     4  10  21  35  53  80 111 142 177 219 266 319
#     4   9  19  36  56  78 106 139 178 222 267 317
#     4  10  20  37  58  78 106 144 182 222 270 322
#     4   9  18  34  54  77 107 142 178 219 266 316
#     4  11  23  37  56  82 111 142 181 225 269 320
#
# _framework density 18.187674999999999
#
# number of rings (size 3 to 8) (size 9 to 14) (size 15 to 20)
#    0.000    2.167    1.667    1.000    0.000    4.333 
#    0.000    1.667    0.000    0.000    0.000    0.000 
#    0.000    0.000    0.000    0.000    0.000    0.000 
#
# Total GULP energy -595375.136736 kJ/mol
# GULP energy per Si atom -12403.648682 kJ/mol
# Density = 1.814628 g / cm^3
# Si number density = 18.187675 Si / 1000 Ang^3
#
#
#
# Elastic Constant Matrix: (Units=GPa)
#
#
# Indices 1 2 3 4 5 6 
#
# 1 68.8659 53.1181 79.8378 0.0000 0.0000 0.0000
# 2 53.1181 109.5848 82.1072 0.0000 0.0000 0.0000
# 3 79.8378 82.1072 163.2151 0.0000 0.0000 0.0000
# 4 0.0000 0.0000 0.0000 38.1026 0.0000 0.0000
# 5 0.0000 0.0000 0.0000 0.0000 39.5438 0.0000
# 6 0.0000 0.0000 0.0000 0.0000 0.0000 20.5287
#
#
#
# Elastic Compliance Matrix: (Units=1/GPa)
#
#
# Indices 1 2 3 4 5 6 
#
# 1 0.036557 -0.006936 -0.014393 0.000000 0.000000 0.000000
# 2 -0.006936 0.015962 -0.004637 0.000000 0.000000 0.000000
# 3 -0.014393 -0.004637 0.015500 0.000000 0.000000 0.000000
# 4 0.000000 0.000000 0.000000 0.026245 0.000000 0.000000
# 5 0.000000 0.000000 0.000000 0.000000 0.025288 0.000000
# 6 0.000000 0.000000 0.000000 0.000000 0.000000 0.048712
#
#
# Mechanical properties :
#
#
# Convention : Reuss Voigt Hill
#
# Bulk Modulus (GPa) = 62.16225 85.75465 73.95845
# Shear Modulus (GPa) = 22.16735 28.07521 25.12128
#
# Velocity S-wave (km/s) = 3.49494 3.93318 3.72052
# Velocity P-wave (km/s) = 7.10905 8.23886 7.69472
#
# Compressibility (1/GPa) = 0.01608693
#
# Stress axis : x y z
#
# Youngs Moduli (GPa) = 27.35481 62.65050 64.51687
#
# Poissons Ratio (x) = 0.43454 0.92857
# Poissons Ratio (y) = 0.18973 0.29916
# Poissons Ratio (z) = 0.39371 0.29050
#
# Static dielectric constant tensor:
#      x y z
#    x 3.345750 0.000000 0.000000 
#    y 0.000000 3.605640 0.000000 
#    z 0.000000 0.000000 3.332530 
# 
# 
# High freq. dielectric constant tensor:
#      x y z
#    x 1.702040 0.000000 0.000000 
#    y 0.000000 1.716470 0.000000 
#    z 0.000000 0.000000 1.705580 
# 
# From -- ./inp_files/37025.got.cif
#   From: 2010.03.12/outbox.cif.g09.slc.cpg/sg64_19_cif.got.tgz:37025.got - 2010.04.10 20:19:32.
