data_PCOD8263860
_publ_section_title
;
Structure prediction by ZEFSAII (Michael W. Deem and Ramdas Pophale) SiO2 
 PCOD8263860
Probable space group: C M C A
;
_chemical_formula_sum "Si O2"
_cell_formula_units_Z 56
_cell_length_a 20.337117
_cell_length_b 27.422429
_cell_length_c 5.245485
_cell_angle_alpha 90.000000
_cell_angle_beta 90.000000
_cell_angle_gamma 90.000000
_cell_volume 2925.371037
_symmetry_space_group_name_H-M "C M C A"
_symmetry_group_IT_number 64
_symmetry_cell_setting 'orthorhombic'
loop_
_space_group_symop_operation_xyz
x,y,z
-x,1/2-y,1/2+z
x,-y,-z
-x,1/2+y,1/2-z
-x,-y,-z
x,1/2+y,1/2-z
-x,y,z
x,1/2-y,1/2+z
1/2+x,1/2+y,z
1/2-x,-y,1/2+z
1/2+x,1/2-y,-z
1/2-x,y,1/2-z
1/2-x,1/2-y,-z
1/2+x,y,1/2-z
1/2-x,1/2+y,z
1/2+x,-y,1/2+z
loop_
_atom_site_type_symbol
_atom_site_label
_atom_site_fract_x
_atom_site_fract_y
_atom_site_fract_z
Si Si1 0.425520 0.945549 0.424997
Si Si2 0.000000 0.281383 0.767411
Si Si3 0.116632 0.644508 0.304527
Si Si4 0.675979 0.881687 0.202787
O O1 0.500000 0.943415 0.317461
O O2 0.418662 0.908570 0.666279
O O3 0.373701 0.928178 0.208971
O O4 0.406161 0.000000 0.500000
O O5 0.064418 0.313597 0.739292
O O6 0.000000 0.240364 0.550815
O O7 0.156509 0.655549 0.567012
O O8 0.167564 0.644363 0.068975
O O9 0.750000 0.899875 0.250000
#
# Coordination Sequence:
#
# PCOD8263860 Si02
#       4
#    16   8  16  16
#     4   9  20  37  61  92 125 164 205 250 298 350
#     4  12  24  40  69  95 117 151 204 262 308 362
#     4  10  21  39  60  89 121 154 203 249 300 358
#     4  10  21  38  61  87 128 168 197 241 297 364
#
# _framework density 19.142872000000001
#
# number of rings (size 3 to 8) (size 9 to 14) (size 15 to 20)
#    1.714    0.286    1.429    2.571    2.000    1.143 
#    5.143    2.857    0.000   17.143    0.000    0.000 
#    0.000    0.000    0.000    0.000    0.000    0.000 
#
# Total GULP energy -346887.039697 kJ/mol
# GULP energy per Si atom -12388.822846 kJ/mol
# Density = 1.909930 g / cm^3
# Si number density = 19.142872 Si / 1000 Ang^3
#
#
#
# Elastic Constant Matrix: (Units=GPa)
#
#
# Indices 1 2 3 4 5 6 
#
# 1 110.4950 24.7645 19.8790 0.0000 0.0000 0.0000
# 2 24.7645 71.5489 14.1337 0.0000 0.0000 0.0000
# 3 19.8790 14.1337 101.9512 0.0000 0.0000 0.0000
# 4 0.0000 0.0000 0.0000 16.3032 0.0000 0.0000
# 5 0.0000 0.0000 0.0000 0.0000 22.1770 0.0000
# 6 0.0000 0.0000 0.0000 0.0000 0.0000 -8.0910
#
#
#
# Elastic Compliance Matrix: (Units=1/GPa)
#
#
# Indices 1 2 3 4 5 6 
#
# 1 0.010034 -0.003173 -0.001517 0.000000 0.000000 0.000000
# 2 -0.003173 0.015374 -0.001513 0.000000 0.000000 0.000000
# 3 -0.001517 -0.001513 0.010314 0.000000 0.000000 0.000000
# 4 0.000000 0.000000 0.000000 0.061338 0.000000 0.000000
# 5 0.000000 0.000000 0.000000 0.000000 0.045092 0.000000
# 6 0.000000 0.000000 0.000000 0.000000 0.000000 -0.123594
#
#
# Mechanical properties :
#
#
# Convention : Reuss Voigt Hill
#
# Bulk Modulus (GPa) = 42.88757 44.61664 43.75210
# Shear Modulus (GPa) = 129.08160 21.09235 75.08698
#
# Velocity S-wave (km/s) = 8.22052 3.32300 6.26974
# Velocity P-wave (km/s) = 10.60921 6.17097 8.67860
#
# Compressibility (1/GPa) = 0.02331678
#
# Stress axis : x y z
#
# Youngs Moduli (GPa) = 99.65839 65.04640 96.95555
#
# Poissons Ratio (x) = 0.20642 0.14704
# Poissons Ratio (y) = 0.31626 0.14665
# Poissons Ratio (z) = 0.15114 0.09838
#
# Static dielectric constant tensor:
#      x y z
#    x 3.383610 0.000000 0.000000 
#    y 0.000000 3.215940 0.000000 
#    z 0.000000 0.000000 3.518490 
# 
# 
# High freq. dielectric constant tensor:
#      x y z
#    x 1.746070 0.000000 0.000000 
#    y 0.000000 1.715280 0.000000 
#    z 0.000000 0.000000 1.744570 
# 
# From -- ./inp_files/1640.got.cif
#   From: 2010.03.12/outbox.cif.g09.slc.cpg/sg64_1_cif.got.tgz:1640.got - 2010.04.10 20:19:32.
