data_PCOD8263789
_publ_section_title
;
Structure prediction by ZEFSAII (Michael W. Deem and Ramdas Pophale) SiO2 
 PCOD8263789
Probable space group: C M C A
;
_chemical_formula_sum "Si O2"
_cell_formula_units_Z 112
_cell_length_a 16.951415
_cell_length_b 11.279634
_cell_length_c 28.611903
_cell_angle_alpha 90.000000
_cell_angle_beta 90.000000
_cell_angle_gamma 90.000000
_cell_volume 5470.760572
_symmetry_space_group_name_H-M "C M C A"
_symmetry_group_IT_number 64
_symmetry_cell_setting 'orthorhombic'
loop_
_space_group_symop_operation_xyz
x,y,z
-x,1/2-y,1/2+z
x,-y,-z
-x,1/2+y,1/2-z
-x,-y,-z
x,1/2+y,1/2-z
-x,y,z
x,1/2-y,1/2+z
1/2+x,1/2+y,z
1/2-x,-y,1/2+z
1/2+x,1/2-y,-z
1/2-x,y,1/2-z
1/2-x,1/2-y,-z
1/2+x,y,1/2-z
1/2-x,1/2+y,z
1/2+x,-y,1/2+z
loop_
_atom_site_type_symbol
_atom_site_label
_atom_site_fract_x
_atom_site_fract_y
_atom_site_fract_z
Si Si1 0.411199 0.719865 0.895768
Si Si2 0.178147 0.119569 0.659324
Si Si3 0.907870 0.888720 0.681196
Si Si4 0.669287 0.661782 0.228230
Si Si5 0.908288 0.131098 0.991624
Si Si6 0.092746 0.786281 0.908166
Si Si7 0.653961 0.502358 0.853928
O O1 0.500000 0.760902 0.905029
O O2 0.369425 0.821654 0.864125
O O3 0.368789 0.694983 0.945992
O O4 0.411658 0.600432 0.864753
O O5 0.186912 0.221265 0.698211
O O6 0.129913 0.167983 0.614363
O O7 0.261162 0.066840 0.642272
O O8 0.128260 0.018371 0.684638
O O9 0.890927 0.816090 0.729075
O O10 0.000000 0.897133 0.674272
O O11 0.750000 0.614772 0.250000
O O12 0.637026 0.554519 0.196531
O O13 0.000000 0.111302 0.979422
O O14 0.897377 0.217929 0.035781
O O15 0.870935 0.000000 0.000000
O O16 0.000000 0.797491 0.894229
O O17 0.143951 0.898564 0.891800
#
# Coordination Sequence:
#
# PCOD8263789 Si02
#       7
#    16  16  16  16  16  16  16
#     4  10  21  37  62  94 125 160 210 260 309 368
#     4  11  25  41  62  88 129 165 203 258 321 381
#     4  11  25  41  61  89 124 162 208 264 314 368
#     4  11  24  41  62  85 114 166 216 245 308 383
#     4   9  16  34  64  93 122 160 208 260 309 367
#     4  10  21  40  68  96 122 164 216 262 308 372
#     4  11  22  37  64  90 125 162 203 255 318 370
#
# _framework density 20.472473000000001
#
# number of rings (size 3 to 8) (size 9 to 14) (size 15 to 20)
#    0.000    1.571    2.857    1.714    6.000    3.429 
#    0.000    1.429    3.143    3.429    0.000    0.000 
#    0.000    0.000    0.000    0.000    0.000    0.000 
#
# Total GULP energy -694089.753916 kJ/mol
# GULP energy per Si atom -12394.459891 kJ/mol
# Density = 2.042588 g / cm^3
# Si number density = 20.472473 Si / 1000 Ang^3
#
#
#
# Elastic Constant Matrix: (Units=GPa)
#
#
# Indices 1 2 3 4 5 6 
#
# 1 56.5992 21.4529 34.1063 0.0000 0.0000 0.0000
# 2 21.4529 77.8337 48.6255 0.0000 0.0000 0.0000
# 3 34.1063 48.6255 152.0593 0.0000 0.0000 0.0000
# 4 0.0000 0.0000 0.0000 32.2705 0.0000 0.0000
# 5 0.0000 0.0000 0.0000 0.0000 22.8715 0.0000
# 6 0.0000 0.0000 0.0000 0.0000 0.0000 31.2073
#
#
#
# Elastic Compliance Matrix: (Units=1/GPa)
#
#
# Indices 1 2 3 4 5 6 
#
# 1 0.021203 -0.003590 -0.003608 0.000000 0.000000 0.000000
# 2 -0.003590 0.016663 -0.004523 0.000000 0.000000 0.000000
# 3 -0.003608 -0.004523 0.008832 0.000000 0.000000 0.000000
# 4 0.000000 0.000000 0.000000 0.030988 0.000000 0.000000
# 5 0.000000 0.000000 0.000000 0.000000 0.043723 0.000000
# 6 0.000000 0.000000 0.000000 0.000000 0.000000 0.032044
#
#
# Mechanical properties :
#
#
# Convention : Reuss Voigt Hill
#
# Bulk Modulus (GPa) = 42.99994 54.98462 48.99228
# Shear Modulus (GPa) = 27.07869 29.42367 28.25118
#
# Velocity S-wave (km/s) = 3.64082 3.79520 3.71881
# Velocity P-wave (km/s) = 6.22282 6.79123 6.51323
#
# Compressibility (1/GPa) = 0.02325585
#
# Stress axis : x y z
#
# Youngs Moduli (GPa) = 47.16347 60.01198 113.22425
#
# Poissons Ratio (x) = 0.21546 0.40847
# Poissons Ratio (y) = 0.16933 0.51215
# Poissons Ratio (z) = 0.17015 0.27145
#
# Static dielectric constant tensor:
#      x y z
#    x 3.580340 0.000000 0.000000 
#    y 0.000000 3.829850 0.000000 
#    z 0.000000 0.000000 4.096240 
# 
# 
# High freq. dielectric constant tensor:
#      x y z
#    x 1.775760 0.000000 0.000000 
#    y 0.000000 1.795870 0.000000 
#    z 0.000000 0.000000 1.813190 
# 
# From -- ./inp_files/53240.got.cif
#   From: 2010.03.12/outbox.cif.g09.slc.cpg/sg64_27_cif.got.tgz:53240.got - 2010.04.10 20:19:32.
