data_PCOD8263350
_publ_section_title
;
Structure prediction by ZEFSAII (Michael W. Deem and Ramdas Pophale) SiO2 
 PCOD8263350
Probable space group: C M C A
;
_chemical_formula_sum "Si O2"
_cell_formula_units_Z 96
_cell_length_a 18.231104
_cell_length_b 25.326411
_cell_length_c 10.192017
_cell_angle_alpha 90.000000
_cell_angle_beta 90.000000
_cell_angle_gamma 90.000000
_cell_volume 4705.944037
_symmetry_space_group_name_H-M "C M C A"
_symmetry_group_IT_number 64
_symmetry_cell_setting 'orthorhombic'
loop_
_space_group_symop_operation_xyz
x,y,z
-x,1/2-y,1/2+z
x,-y,-z
-x,1/2+y,1/2-z
-x,-y,-z
x,1/2+y,1/2-z
-x,y,z
x,1/2-y,1/2+z
1/2+x,1/2+y,z
1/2-x,-y,1/2+z
1/2+x,1/2-y,-z
1/2-x,y,1/2-z
1/2-x,1/2-y,-z
1/2+x,y,1/2-z
1/2-x,1/2+y,z
1/2+x,-y,1/2+z
loop_
_atom_site_type_symbol
_atom_site_label
_atom_site_fract_x
_atom_site_fract_y
_atom_site_fract_z
Si Si1 0.663927 0.600936 0.251720
Si Si2 0.586216 0.288188 0.138439
Si Si3 0.811126 0.507986 0.643208
Si Si4 0.916007 0.560646 0.005632
Si Si5 0.913528 0.203117 0.157196
Si Si6 0.084158 0.097134 0.788065
O O1 0.750000 0.613138 0.250000
O O2 0.646641 0.545388 0.182259
O O3 0.634324 0.596008 0.399839
O O4 0.622947 0.646369 0.173122
O O5 0.500000 0.289194 0.162727
O O6 0.619469 0.243344 0.234376
O O7 0.617467 0.345427 0.178389
O O8 0.605629 0.274673 0.987666
O O9 0.774111 0.500000 0.500000
O O10 0.750000 0.522971 0.750000
O O11 0.870106 0.554346 0.631108
O O12 0.000000 0.562479 0.055775
O O13 0.888776 0.500000 0.000000
O O14 0.907772 0.587618 0.865700
O O15 0.000000 0.195437 0.173903
O O16 0.000000 0.092497 0.834113
#
# Coordination Sequence:
#
# PCOD8263350 Si02
#       6
#    16  16  16  16  16  16
#     4  11  24  37  59  87 127 159 201 246 300 362
#     4   9  20  38  61  89 116 148 197 253 301 355
#     4  11  25  40  61  87 125 166 201 243 304 368
#     4  10  20  37  62  93 122 159 205 253 304 362
#     4  10  21  40  63  87 116 154 202 249 304 359
#     4  10  21  38  63  92 123 153 203 258 302 358
#
# _framework density 20.399733000000001
#
# number of rings (size 3 to 8) (size 9 to 14) (size 15 to 20)
#    0.000    1.833    1.667    1.500    7.000    1.000 
#    0.000    1.667    0.000    0.000    0.000    0.000 
#    0.000    0.000    0.000    0.000    0.000    0.000 
#
# Total GULP energy -595299.681545 kJ/mol
# GULP energy per Si atom -12402.076699 kJ/mol
# Density = 2.035330 g / cm^3
# Si number density = 20.399733 Si / 1000 Ang^3
#
#
#
# Elastic Constant Matrix: (Units=GPa)
#
#
# Indices 1 2 3 4 5 6 
#
# 1 66.8647 32.7101 37.6669 0.0000 0.0000 0.0000
# 2 32.7101 127.5687 34.3988 0.0000 0.0000 0.0000
# 3 37.6669 34.3988 108.6640 0.0000 0.0000 0.0000
# 4 0.0000 0.0000 0.0000 37.3736 0.0000 0.0000
# 5 0.0000 0.0000 0.0000 0.0000 12.7477 0.0000
# 6 0.0000 0.0000 0.0000 0.0000 0.0000 17.0160
#
#
#
# Elastic Compliance Matrix: (Units=1/GPa)
#
#
# Indices 1 2 3 4 5 6 
#
# 1 0.019958 -0.003556 -0.005793 0.000000 0.000000 0.000000
# 2 -0.003556 0.009204 -0.001681 0.000000 0.000000 0.000000
# 3 -0.005793 -0.001681 0.011743 0.000000 0.000000 0.000000
# 4 0.000000 0.000000 0.000000 0.026757 0.000000 0.000000
# 5 0.000000 0.000000 0.000000 0.000000 0.078445 0.000000
# 6 0.000000 0.000000 0.000000 0.000000 0.000000 0.058768
#
#
# Mechanical properties :
#
#
# Convention : Reuss Voigt Hill
#
# Bulk Modulus (GPa) = 53.06107 56.96101 55.01104
# Shear Modulus (GPa) = 21.43938 26.64892 24.04415
#
# Velocity S-wave (km/s) = 3.24537 3.61825 3.43687
# Velocity P-wave (km/s) = 6.33328 6.74082 6.54022
#
# Compressibility (1/GPa) = 0.01884621
#
# Stress axis : x y z
#
# Youngs Moduli (GPa) = 50.10493 108.64953 85.15848
#
# Poissons Ratio (x) = 0.38630 0.49329
# Poissons Ratio (y) = 0.17815 0.14316
# Poissons Ratio (z) = 0.29024 0.18265
#
# Static dielectric constant tensor:
#      x y z
#    x 3.441560 0.000000 0.000000 
#    y 0.000000 3.810260 0.000000 
#    z 0.000000 0.000000 3.818860 
# 
# 
# High freq. dielectric constant tensor:
#      x y z
#    x 1.769690 0.000000 0.000000 
#    y 0.000000 1.799060 0.000000 
#    z 0.000000 0.000000 1.809590 
# 
# From -- ./inp_files/8430.got.cif
#   From: 2010.03.12/outbox.cif.g09.slc.cpg/sg64_5_cif.got.tgz:8430.got - 2010.04.10 20:19:32.
