data_PCOD8263023
_publ_section_title
;
Structure prediction by ZEFSAII (Michael W. Deem and Ramdas Pophale) SiO2 
 PCOD8263023
Probable space group: C M C A
;
_chemical_formula_sum "Si O2"
_cell_formula_units_Z 112
_cell_length_a 13.909362
_cell_length_b 28.720901
_cell_length_c 14.216678
_cell_angle_alpha 90.000000
_cell_angle_beta 90.000000
_cell_angle_gamma 90.000000
_cell_volume 5679.412292
_symmetry_space_group_name_H-M "C M C A"
_symmetry_group_IT_number 64
_symmetry_cell_setting 'orthorhombic'
loop_
_space_group_symop_operation_xyz
x,y,z
-x,1/2-y,1/2+z
x,-y,-z
-x,1/2+y,1/2-z
-x,-y,-z
x,1/2+y,1/2-z
-x,y,z
x,1/2-y,1/2+z
1/2+x,1/2+y,z
1/2-x,-y,1/2+z
1/2+x,1/2-y,-z
1/2-x,y,1/2-z
1/2-x,1/2-y,-z
1/2+x,y,1/2-z
1/2-x,1/2+y,z
1/2+x,-y,1/2+z
loop_
_atom_site_type_symbol
_atom_site_label
_atom_site_fract_x
_atom_site_fract_y
_atom_site_fract_z
Si Si1 0.614003 0.203839 0.498086
Si Si2 0.885615 0.699023 0.090718
Si Si3 0.750327 0.125373 0.000462
Si Si4 0.158465 0.590865 0.315287
Si Si5 0.606384 0.491139 0.226844
Si Si6 0.605115 0.190570 0.293246
Si Si7 0.272142 0.032484 0.906909
O O1 0.500000 0.193105 0.502328
O O2 0.641089 0.253351 0.539625
O O3 0.673050 0.161705 0.547464
O O4 0.656430 0.205519 0.390494
O O5 0.839458 0.654736 0.040071
O O6 0.841819 0.705141 0.196678
O O7 0.000000 0.690506 0.094277
O O8 0.805328 0.094507 0.077726
O O9 0.708859 0.087206 0.928158
O O10 0.250000 0.588282 0.250000
O O11 0.095595 0.545464 0.297799
O O12 0.093485 0.634921 0.290166
O O13 0.500000 0.468855 0.225459
O O14 0.649680 0.484812 0.331331
O O15 0.668547 0.468445 0.143600
O O16 0.500000 0.214041 0.294261
O O17 0.277509 0.000000 0.000000
#
# Coordination Sequence:
#
# PCOD8263023 Si02
#       7
#    16  16  16  16  16  16  16
#     4   9  20  36  55  85 118 149 198 250 296 360
#     4  10  20  35  56  86 119 152 197 246 301 366
#     4  11  21  36  61  84 117 159 195 248 307 358
#     4  11  17  34  56  84 115 145 195 257 304 352
#     4  11  24  41  63  88 122 167 211 256 312 367
#     4   9  18  31  52  80 110 146 188 243 301 344
#     4  11  23  43  60  89 129 159 204 258 306 371
#
# _framework density 19.720351000000001
#
# number of rings (size 3 to 8) (size 9 to 14) (size 15 to 20)
#    0.000    1.714    4.286    0.857    0.000    2.286 
#    0.000    2.857    0.000    1.714    0.000    0.000 
#    0.000    0.000    0.000    0.000    0.000    0.000 
#
# Total GULP energy -693961.170052 kJ/mol
# GULP energy per Si atom -12392.163751 kJ/mol
# Density = 1.967547 g / cm^3
# Si number density = 19.720351 Si / 1000 Ang^3
#
#
#
# Elastic Constant Matrix: (Units=GPa)
#
#
# Indices 1 2 3 4 5 6 
#
# 1 65.2555 21.6109 16.7158 0.0000 0.0000 0.0000
# 2 21.6109 131.8427 58.5872 0.0000 0.0000 0.0000
# 3 16.7158 58.5872 64.6786 0.0000 0.0000 0.0000
# 4 0.0000 0.0000 0.0000 42.2186 0.0000 0.0000
# 5 0.0000 0.0000 0.0000 0.0000 20.4130 0.0000
# 6 0.0000 0.0000 0.0000 0.0000 0.0000 42.9610
#
#
#
# Elastic Compliance Matrix: (Units=1/GPa)
#
#
# Indices 1 2 3 4 5 6 
#
# 1 0.016555 -0.001360 -0.003047 0.000000 0.000000 0.000000
# 2 -0.001360 0.012806 -0.011249 0.000000 0.000000 0.000000
# 3 -0.003047 -0.011249 0.026438 0.000000 0.000000 0.000000
# 4 0.000000 0.000000 0.000000 0.023686 0.000000 0.000000
# 5 0.000000 0.000000 0.000000 0.000000 0.048988 0.000000
# 6 0.000000 0.000000 0.000000 0.000000 0.000000 0.023277
#
#
# Mechanical properties :
#
#
# Convention : Reuss Voigt Hill
#
# Bulk Modulus (GPa) = 40.83549 50.62272 45.72911
# Shear Modulus (GPa) = 26.14723 32.10938 29.12831
#
# Velocity S-wave (km/s) = 3.64524 4.03952 3.84743
# Velocity P-wave (km/s) = 6.20236 6.89079 6.55562
#
# Compressibility (1/GPa) = 0.02448850
#
# Stress axis : x y z
#
# Youngs Moduli (GPa) = 60.40407 78.08645 37.82441
#
# Poissons Ratio (x) = 0.10617 0.11525
# Poissons Ratio (y) = 0.08213 0.42548
# Poissons Ratio (z) = 0.18405 0.87838
#
# Static dielectric constant tensor:
#      x y z
#    x 3.414690 0.000000 0.000000 
#    y 0.000000 3.794900 0.000000 
#    z 0.000000 0.000000 3.680390 
# 
# 
# High freq. dielectric constant tensor:
#      x y z
#    x 1.771910 0.000000 0.000000 
#    y 0.000000 1.759970 0.000000 
#    z 0.000000 0.000000 1.761610 
# 
# From -- ./inp_files/24367.got.cif
#   From: 2010.03.12/outbox.cif.g09.slc.cpg/sg64_13_cif.got.tgz:24367.got - 2010.04.10 20:19:32.
