data_PCOD8263719
_publ_section_title
;
Structure prediction by ZEFSAII (Michael W. Deem and Ramdas Pophale) SiO2 
 PCOD8263719
Probable space group: C M C A
;
_chemical_formula_sum "Si O2"
_cell_formula_units_Z 64
_cell_length_a 27.703117
_cell_length_b 18.198823
_cell_length_c 5.283091
_cell_angle_alpha 90.000000
_cell_angle_beta 90.000000
_cell_angle_gamma 90.000000
_cell_volume 2663.544940
_symmetry_space_group_name_H-M "C M C A"
_symmetry_group_IT_number 64
_symmetry_cell_setting 'orthorhombic'
loop_
_space_group_symop_operation_xyz
x,y,z
-x,1/2-y,1/2+z
x,-y,-z
-x,1/2+y,1/2-z
-x,-y,-z
x,1/2+y,1/2-z
-x,y,z
x,1/2-y,1/2+z
1/2+x,1/2+y,z
1/2-x,-y,1/2+z
1/2+x,1/2-y,-z
1/2-x,y,1/2-z
1/2-x,1/2-y,-z
1/2+x,y,1/2-z
1/2-x,1/2+y,z
1/2+x,-y,1/2+z
loop_
_atom_site_type_symbol
_atom_site_label
_atom_site_fract_x
_atom_site_fract_y
_atom_site_fract_z
Si Si1 0.412713 0.787576 0.216261
Si Si2 0.943044 0.455148 0.249037
Si Si3 0.718347 0.578240 0.000532
Si Si4 0.307709 0.727338 0.121720
O O1 0.436393 0.746052 0.459953
O O2 0.418829 0.874916 0.238518
O O3 0.355882 0.768690 0.218137
O O4 0.926838 0.500000 0.500000
O O5 0.000000 0.442767 0.249933
O O6 0.926498 0.500000 0.000000
O O7 0.750000 0.590255 0.750000
O O8 0.690225 0.500000 0.000000
O O9 0.750000 0.577647 0.250000
O O10 0.680632 0.644761 0.026942
O O11 0.279646 0.727022 0.395922
#
# Coordination Sequence:
#
# PCOD8263719 Si02
#       4
#    16  16  16  16
#     4  10  21  38  58  86 121 156 198 242 295 357
#     4  10  21  38  61  89 121 158 200 247 299 355
#     4  10  21  37  58  83 111 146 189 239 292 346
#     4  10  21  37  55  82 115 149 190 233 287 349
#
# _framework density 24.028129
#
# number of rings (size 3 to 8) (size 9 to 14) (size 15 to 20)
#    0.000    2.000    0.000    3.000    0.000    4.000 
#    0.000   15.000    0.000    0.000    0.000    0.000 
#    0.000    0.000    0.000    0.000    0.000    0.000 
#
# Total GULP energy -396459.682902 kJ/mol
# GULP energy per Si atom -12389.365091 kJ/mol
# Density = 2.397344 g / cm^3
# Si number density = 24.028129 Si / 1000 Ang^3
#
#
#
# Elastic Constant Matrix: (Units=GPa)
#
#
# Indices 1 2 3 4 5 6 
#
# 1 41.3032 45.5991 28.4137 0.0000 0.0000 0.0000
# 2 45.5991 282.7161 107.5733 0.0000 0.0000 0.0000
# 3 28.4137 107.5733 254.6690 0.0000 0.0000 0.0000
# 4 0.0000 0.0000 0.0000 48.5001 0.0000 0.0000
# 5 0.0000 0.0000 0.0000 0.0000 15.6006 0.0000
# 6 0.0000 0.0000 0.0000 0.0000 0.0000 42.6366
#
#
#
# Elastic Compliance Matrix: (Units=1/GPa)
#
#
# Indices 1 2 3 4 5 6 
#
# 1 0.029962 -0.004242 -0.001551 0.000000 0.000000 0.000000
# 2 -0.004242 0.004815 -0.001561 0.000000 0.000000 0.000000
# 3 -0.001551 -0.001561 0.004759 0.000000 0.000000 0.000000
# 4 0.000000 0.000000 0.000000 0.020619 0.000000 0.000000
# 5 0.000000 0.000000 0.000000 0.000000 0.064100 0.000000
# 6 0.000000 0.000000 0.000000 0.000000 0.000000 0.023454
#
#
# Mechanical properties :
#
#
# Convention : Reuss Voigt Hill
#
# Bulk Modulus (GPa) = 40.27704 104.65116 72.46410
# Shear Modulus (GPa) = 29.29248 47.82093 38.55671
#
# Velocity S-wave (km/s) = 3.49534 4.46601 4.01015
# Velocity P-wave (km/s) = 5.75228 8.38104 7.18786
#
# Compressibility (1/GPa) = 0.02482804
#
# Stress axis : x y z
#
# Youngs Moduli (GPa) = 33.37595 207.67617 210.13204
#
# Poissons Ratio (x) = 0.88105 0.32588
# Poissons Ratio (y) = 0.14159 0.32794
# Poissons Ratio (z) = 0.05176 0.32411
#
# Static dielectric constant tensor:
#      x y z
#    x 3.813910 0.000000 0.000000 
#    y 0.000000 5.082090 0.000000 
#    z 0.000000 0.000000 5.562800 
# 
# 
# High freq. dielectric constant tensor:
#      x y z
#    x 1.914570 0.000000 0.000000 
#    y 0.000000 1.971570 0.000000 
#    z 0.000000 0.000000 2.009430 
# 
# From -- ./inp_files/3153.got.cif
#   From: 2010.03.12/outbox.cif.g09.slc.cpg/sg64_2_cif.got.tgz:3153.got - 2010.04.10 20:19:32.
