data_PCOD8263438
_publ_section_title
;
Structure prediction by ZEFSAII (Michael W. Deem and Ramdas Pophale) SiO2 
 PCOD8263438
Probable space group: C M C A
;
_chemical_formula_sum "Si O2"
_cell_formula_units_Z 96
_cell_length_a 22.545333
_cell_length_b 18.497804
_cell_length_c 11.441278
_cell_angle_alpha 90.000000
_cell_angle_beta 90.000000
_cell_angle_gamma 90.000000
_cell_volume 4771.460863
_symmetry_space_group_name_H-M "C M C A"
_symmetry_group_IT_number 64
_symmetry_cell_setting 'orthorhombic'
loop_
_space_group_symop_operation_xyz
x,y,z
-x,1/2-y,1/2+z
x,-y,-z
-x,1/2+y,1/2-z
-x,-y,-z
x,1/2+y,1/2-z
-x,y,z
x,1/2-y,1/2+z
1/2+x,1/2+y,z
1/2-x,-y,1/2+z
1/2+x,1/2-y,-z
1/2-x,y,1/2-z
1/2-x,1/2-y,-z
1/2+x,y,1/2-z
1/2-x,1/2+y,z
1/2+x,-y,1/2+z
loop_
_atom_site_type_symbol
_atom_site_label
_atom_site_fract_x
_atom_site_fract_y
_atom_site_fract_z
Si Si1 0.570297 0.334185 0.387958
Si Si2 0.567105 0.324192 0.952710
Si Si3 0.130589 0.896141 0.162687
Si Si4 0.869718 0.063110 0.176607
Si Si5 0.643264 0.921216 0.948487
Si Si6 0.730333 0.416325 0.004041
O O1 0.500000 0.345104 0.361295
O O2 0.589698 0.250865 0.396797
O O3 0.613075 0.371647 0.291877
O O4 0.587690 0.372553 0.510022
O O5 0.500000 0.312843 0.987496
O O6 0.573971 0.387664 0.857039
O O7 0.597375 0.343365 0.074659
O O8 0.114228 0.980635 0.143227
O O9 0.200986 0.891526 0.128360
O O10 0.854310 0.071615 0.310321
O O11 0.815714 0.097760 0.101437
O O12 0.704797 0.880665 0.987538
O O13 0.633456 0.000000 0.000000
O O14 0.746354 0.500000 0.000000
#
# Coordination Sequence:
#
# PCOD8263438 Si02
#       6
#    16  16  16  16  16  16
#     4  11  25  40  57  86 126 166 200 245 304 364
#     4  10  23  40  61  83 116 167 208 249 300 357
#     4  10  20  41  63  90 119 154 203 256 297 356
#     4  10  20  38  63  93 118 149 202 256 301 355
#     4  11  21  38  60  91 123 157 192 243 305 364
#     4   8  18  35  65  90 116 149 197 246 299 355
#
# _framework density 20.119623000000001
#
# number of rings (size 3 to 8) (size 9 to 14) (size 15 to 20)
#    0.000    2.000    1.667    2.500    2.333    3.667 
#    0.000    3.333    7.333    0.000    0.000    0.000 
#    0.000    0.000    0.000    0.000    0.000    0.000 
#
# Total GULP energy -594805.271365 kJ/mol
# GULP energy per Si atom -12391.776487 kJ/mol
# Density = 2.007383 g / cm^3
# Si number density = 20.119623 Si / 1000 Ang^3
#
#
#
# Elastic Constant Matrix: (Units=GPa)
#
#
# Indices 1 2 3 4 5 6 
#
# 1 60.3466 26.4830 25.9671 0.0000 0.0000 0.0000
# 2 26.4830 86.0069 14.6749 0.0000 0.0000 0.0000
# 3 25.9671 14.6749 77.0972 0.0000 0.0000 0.0000
# 4 0.0000 0.0000 0.0000 31.8528 0.0000 0.0000
# 5 0.0000 0.0000 0.0000 0.0000 65.1226 0.0000
# 6 0.0000 0.0000 0.0000 0.0000 0.0000 18.4176
#
#
#
# Elastic Compliance Matrix: (Units=1/GPa)
#
#
# Indices 1 2 3 4 5 6 
#
# 1 0.021727 -0.005624 -0.006247 0.000000 0.000000 0.000000
# 2 -0.005624 0.013473 -0.000670 0.000000 0.000000 0.000000
# 3 -0.006247 -0.000670 0.015202 0.000000 0.000000 0.000000
# 4 0.000000 0.000000 0.000000 0.031394 0.000000 0.000000
# 5 0.000000 0.000000 0.000000 0.000000 0.015356 0.000000
# 6 0.000000 0.000000 0.000000 0.000000 0.000000 0.054296
#
#
# Mechanical properties :
#
#
# Convention : Reuss Voigt Hill
#
# Bulk Modulus (GPa) = 39.49591 39.74453 39.62022
# Shear Modulus (GPa) = 27.03104 33.50031 30.26568
#
# Velocity S-wave (km/s) = 3.66938 4.08494 3.88272
# Velocity P-wave (km/s) = 6.13397 6.48428 6.31156
#
# Compressibility (1/GPa) = 0.02531908
#
# Stress axis : x y z
#
# Youngs Moduli (GPa) = 46.02479 74.22175 65.77904
#
# Poissons Ratio (x) = 0.41744 0.41095
# Poissons Ratio (y) = 0.25886 0.04409
# Poissons Ratio (z) = 0.28754 0.04974
#
# Static dielectric constant tensor:
#      x y z
#    x 3.801790 0.000000 0.000000 
#    y 0.000000 3.719930 0.000000 
#    z 0.000000 0.000000 3.895330 
# 
# 
# High freq. dielectric constant tensor:
#      x y z
#    x 1.782890 0.000000 0.000000 
#    y 0.000000 1.771100 0.000000 
#    z 0.000000 0.000000 1.789730 
# 
# From -- ./inp_files/18351.got.cif
#   From: 2010.03.12/outbox.cif.g09.slc.cpg/sg64_10_cif.got.tgz:18351.got - 2010.04.10 20:19:32.
