data_PCOD8263694
_publ_section_title
;
Structure prediction by ZEFSAII (Michael W. Deem and Ramdas Pophale) SiO2 
 PCOD8263694
Probable space group: C M C A
;
_chemical_formula_sum "Si O2"
_cell_formula_units_Z 80
_cell_length_a 21.274188
_cell_length_b 13.086151
_cell_length_c 14.458959
_cell_angle_alpha 90.000000
_cell_angle_beta 90.000000
_cell_angle_gamma 90.000000
_cell_volume 4025.334229
_symmetry_space_group_name_H-M "C M C A"
_symmetry_group_IT_number 64
_symmetry_cell_setting 'orthorhombic'
loop_
_space_group_symop_operation_xyz
x,y,z
-x,1/2-y,1/2+z
x,-y,-z
-x,1/2+y,1/2-z
-x,-y,-z
x,1/2+y,1/2-z
-x,y,z
x,1/2-y,1/2+z
1/2+x,1/2+y,z
1/2-x,-y,1/2+z
1/2+x,1/2-y,-z
1/2-x,y,1/2-z
1/2-x,1/2-y,-z
1/2+x,y,1/2-z
1/2-x,1/2+y,z
1/2+x,-y,1/2+z
loop_
_atom_site_type_symbol
_atom_site_label
_atom_site_fract_x
_atom_site_fract_y
_atom_site_fract_z
Si Si1 0.245918 0.408992 0.557634
Si Si2 0.323304 0.225778 0.587224
Si Si3 0.181761 0.037223 0.796147
Si Si4 0.428626 0.485537 0.345968
Si Si5 0.569444 0.662737 0.494115
O O1 0.281430 0.500000 0.500000
O O2 0.294470 0.337924 0.616243
O O3 0.222331 0.334878 0.478837
O O4 0.189306 0.457406 0.618516
O O5 0.335090 0.153971 0.675846
O O6 0.387046 0.241810 0.530140
O O7 0.250000 0.037123 0.750000
O O8 0.124328 0.000128 0.732547
O O9 0.500000 0.472532 0.305041
O O10 0.410091 0.388110 0.408795
O O11 0.428095 0.584073 0.409947
O O12 0.500000 0.707559 0.505079
#
# Coordination Sequence:
#
# PCOD8263694 Si02
#       5
#    16  16  16  16  16
#     4   9  21  38  55  81 114 152 184 229 289 338
#     4  10  21  36  60  81 112 150 191 232 282 344
#     4  11  23  36  56  89 118 147 188 241 289 334
#     4   9  20  38  59  81 115 153 187 232 286 337
#     4   9  19  37  60  81 106 153 195 225 278 344
#
# _framework density 19.874127000000001
#
# number of rings (size 3 to 8) (size 9 to 14) (size 15 to 20)
#    0.000    2.400    0.000    2.400   11.200    3.200 
#    0.000    1.000    0.000    3.600    0.000    0.000 
#    0.000    0.000    0.000    0.000    0.000    0.000 
#
# Total GULP energy -495557.893347 kJ/mol
# GULP energy per Si atom -12388.947334 kJ/mol
# Density = 1.982889 g / cm^3
# Si number density = 19.874127 Si / 1000 Ang^3
#
#
#
# Elastic Constant Matrix: (Units=GPa)
#
#
# Indices 1 2 3 4 5 6 
#
# 1 80.7989 17.1317 12.2460 0.0000 0.0000 0.0000
# 2 17.1317 82.4429 12.8144 0.0000 0.0000 0.0000
# 3 12.2460 12.8144 54.4699 0.0000 0.0000 0.0000
# 4 0.0000 0.0000 0.0000 24.7521 0.0000 0.0000
# 5 0.0000 0.0000 0.0000 0.0000 24.2877 0.0000
# 6 0.0000 0.0000 0.0000 0.0000 0.0000 -5.4697
#
#
#
# Elastic Compliance Matrix: (Units=1/GPa)
#
#
# Indices 1 2 3 4 5 6 
#
# 1 0.013247 -0.002377 -0.002419 0.000000 0.000000 0.000000
# 2 -0.002377 0.013016 -0.002528 0.000000 0.000000 0.000000
# 3 -0.002419 -0.002528 0.019497 0.000000 0.000000 0.000000
# 4 0.000000 0.000000 0.000000 0.040401 0.000000 0.000000
# 5 0.000000 0.000000 0.000000 0.000000 0.041173 0.000000
# 6 0.000000 0.000000 0.000000 0.000000 0.000000 -0.182825
#
#
# Mechanical properties :
#
#
# Convention : Reuss Voigt Hill
#
# Bulk Modulus (GPa) = 32.14048 33.56620 32.85334
# Shear Modulus (GPa) = -164.08397 20.41532 -71.83433
#
# Velocity S-wave (km/s) = -9.09620 3.20852 -6.01856
# Velocity P-wave (km/s) = 9.70124 5.53644 5.63302
#
# Compressibility (1/GPa) = 0.03111342
#
# Stress axis : x y z
#
# Youngs Moduli (GPa) = 75.48891 76.82612 51.28910
#
# Poissons Ratio (x) = 0.18259 0.12407
# Poissons Ratio (y) = 0.17942 0.12965
# Poissons Ratio (z) = 0.18261 0.19421
#
# Static dielectric constant tensor:
#      x y z
#    x 3.892380 0.000000 0.000000 
#    y 0.000000 4.260170 0.000000 
#    z 0.000000 0.000000 3.615060 
# 
# 
# High freq. dielectric constant tensor:
#      x y z
#    x 1.773430 0.000000 0.000000 
#    y 0.000000 1.773130 0.000000 
#    z 0.000000 0.000000 1.758020 
# 
# From -- ./inp_files/27072.got.cif
#   From: 2010.03.12/outbox.cif.g09.slc.cpg/sg64_14_cif.got.tgz:27072.got - 2010.04.10 20:19:32.
