data_PCOD8263381
_publ_section_title
;
Structure prediction by ZEFSAII (Michael W. Deem and Ramdas Pophale) SiO2 
 PCOD8263381
Probable space group: C M C A
;
_chemical_formula_sum "Si O2"
_cell_formula_units_Z 64
_cell_length_a 13.106867
_cell_length_b 8.096541
_cell_length_c 25.906873
_cell_angle_alpha 90.000000
_cell_angle_beta 90.000000
_cell_angle_gamma 90.000000
_cell_volume 2749.244773
_symmetry_space_group_name_H-M "C M C A"
_symmetry_group_IT_number 64
_symmetry_cell_setting 'orthorhombic'
loop_
_space_group_symop_operation_xyz
x,y,z
-x,1/2-y,1/2+z
x,-y,-z
-x,1/2+y,1/2-z
-x,-y,-z
x,1/2+y,1/2-z
-x,y,z
x,1/2-y,1/2+z
1/2+x,1/2+y,z
1/2-x,-y,1/2+z
1/2+x,1/2-y,-z
1/2-x,y,1/2-z
1/2-x,1/2-y,-z
1/2+x,y,1/2-z
1/2-x,1/2+y,z
1/2+x,-y,1/2+z
loop_
_atom_site_type_symbol
_atom_site_label
_atom_site_fract_x
_atom_site_fract_y
_atom_site_fract_z
Si Si1 0.619470 0.870475 0.605831
Si Si2 0.115423 0.137839 0.350782
Si Si3 0.799481 0.959086 0.440401
Si Si4 0.281507 0.320472 0.307965
O O1 0.500000 0.911468 0.599895
O O2 0.654937 0.721886 0.568133
O O3 0.644337 0.818435 0.665427
O O4 0.686299 0.024991 0.585174
O O5 0.174325 0.309214 0.339713
O O6 0.000000 0.162225 0.334128
O O7 0.125854 0.087207 0.410591
O O8 0.167124 0.998322 0.313940
O O9 0.798991 0.000000 0.500000
O O10 0.250000 0.277032 0.250000
#
# Coordination Sequence:
#
# PCOD8263381 Si02
#       4
#    16  16  16  16
#     4  10  22  39  58  83 115 148 185 231 279 329
#     4  10  22  38  56  82 113 145 185 230 277 331
#     4  10  20  38  59  83 115 147 186 232 275 330
#     4  10  20  38  58  80 112 145 184 232 276 329
#
# _framework density 23.279119999999999
#
# number of rings (size 3 to 8) (size 9 to 14) (size 15 to 20)
#    0.000    2.000    0.000    4.500    0.000    4.500 
#    0.000   22.500    0.000    0.000    0.000    0.000 
#    0.000    0.000    0.000    0.000    0.000    0.000 
#
# Total GULP energy -396426.830852 kJ/mol
# GULP energy per Si atom -12388.338464 kJ/mol
# Density = 2.322614 g / cm^3
# Si number density = 23.279120 Si / 1000 Ang^3
#
#
#
# Elastic Constant Matrix: (Units=GPa)
#
#
# Indices 1 2 3 4 5 6 
#
# 1 194.0235 26.5966 -1.8592 0.0000 0.0000 0.0000
# 2 26.5966 20.9763 20.7329 0.0000 0.0000 0.0000
# 3 -1.8592 20.7329 143.2476 0.0000 0.0000 0.0000
# 4 0.0000 0.0000 0.0000 7.6692 0.0000 0.0000
# 5 0.0000 0.0000 0.0000 0.0000 13.1324 0.0000
# 6 0.0000 0.0000 0.0000 0.0000 0.0000 13.9990
#
#
#
# Elastic Compliance Matrix: (Units=1/GPa)
#
#
# Indices 1 2 3 4 5 6 
#
# 1 0.006500 -0.009715 0.001490 0.000000 0.000000 0.000000
# 2 -0.009715 0.070151 -0.010279 0.000000 0.000000 0.000000
# 3 0.001490 -0.010279 0.008488 0.000000 0.000000 0.000000
# 4 0.000000 0.000000 0.000000 0.130392 0.000000 0.000000
# 5 0.000000 0.000000 0.000000 0.000000 0.076147 0.000000
# 6 0.000000 0.000000 0.000000 0.000000 0.000000 0.071434
#
#
# Mechanical properties :
#
#
# Convention : Reuss Voigt Hill
#
# Bulk Modulus (GPa) = 20.77643 49.90976 35.34310
# Shear Modulus (GPa) = 12.01453 27.81193 19.91323
#
# Velocity S-wave (km/s) = 2.27426 3.46022 2.92791
# Velocity P-wave (km/s) = 3.98003 6.11967 5.16193
#
# Compressibility (1/GPa) = 0.04813146
#
# Stress axis : x y z
#
# Youngs Moduli (GPa) = 153.84665 14.25505 117.81293
#
# Poissons Ratio (x) = 0.13848 -0.17559
# Poissons Ratio (y) = 1.49457 1.21103
# Poissons Ratio (z) = -0.22930 0.14653
#
# Static dielectric constant tensor:
#      x y z
#    x 4.182370 0.000000 0.000000 
#    y 0.000000 4.202020 0.000000 
#    z 0.000000 0.000000 4.153510 
# 
# 
# High freq. dielectric constant tensor:
#      x y z
#    x 1.910610 0.000000 0.000000 
#    y 0.000000 1.924950 0.000000 
#    z 0.000000 0.000000 1.915430 
# 
# From -- ./inp_files/43711.got.cif
#   From: 2010.03.12/outbox.cif.g09.slc.cpg/sg64_22_cif.got.tgz:43711.got - 2010.04.10 20:19:32.
