data_PCOD8263320
_publ_section_title
;
Structure prediction by ZEFSAII (Michael W. Deem and Ramdas Pophale) SiO2 
 PCOD8263320
Probable space group: C M C A
;
_chemical_formula_sum "Si O2"
_cell_formula_units_Z 80
_cell_length_a 9.008412
_cell_length_b 14.308568
_cell_length_c 29.358715
_cell_angle_alpha 90.000000
_cell_angle_beta 90.000000
_cell_angle_gamma 90.000000
_cell_volume 3784.264253
_symmetry_space_group_name_H-M "C M C A"
_symmetry_group_IT_number 64
_symmetry_cell_setting 'orthorhombic'
loop_
_space_group_symop_operation_xyz
x,y,z
-x,1/2-y,1/2+z
x,-y,-z
-x,1/2+y,1/2-z
-x,-y,-z
x,1/2+y,1/2-z
-x,y,z
x,1/2-y,1/2+z
1/2+x,1/2+y,z
1/2-x,-y,1/2+z
1/2+x,1/2-y,-z
1/2-x,y,1/2-z
1/2-x,1/2-y,-z
1/2+x,y,1/2-z
1/2-x,1/2+y,z
1/2+x,-y,1/2+z
loop_
_atom_site_type_symbol
_atom_site_label
_atom_site_fract_x
_atom_site_fract_y
_atom_site_fract_z
Si Si1 0.167217 0.873806 0.036413
Si Si2 0.825449 0.679820 0.358178
Si Si3 0.675276 0.959901 0.797038
Si Si4 0.331922 0.846913 0.948591
Si Si5 0.828161 0.607001 0.873965
O O1 0.171919 0.762890 0.042237
O O2 0.241057 0.922311 0.080340
O O3 0.000000 0.910466 0.031628
O O4 0.255723 0.901597 0.990585
O O5 0.746235 0.637446 0.313737
O O6 0.758197 0.629708 0.402832
O O7 0.786640 0.789000 0.358058
O O8 0.000000 0.660632 0.356414
O O9 0.500000 0.948285 0.790711
O O10 0.750000 0.990156 0.750000
O O11 0.717673 0.039461 0.833188
O O12 0.500000 0.883057 0.942667
O O13 0.000000 0.599864 0.886422
#
# Coordination Sequence:
#
# PCOD8263320 Si02
#       5
#    16  16  16  16  16
#     4   9  16  27  49  81 114 149 188 228 271 323
#     4  10  20  37  60  86 115 148 187 231 278 330
#     4  11  24  42  61  83 111 144 184 232 285 337
#     4   9  16  28  49  79 115 153 188 224 271 327
#     4   9  20  38  59  83 114 150 186 227 278 334
#
# _framework density 21.140172
#
# number of rings (size 3 to 8) (size 9 to 14) (size 15 to 20)
#    0.000    2.400    0.000    2.400    0.000    8.000 
#    0.000    3.000    0.000    6.000    0.000    0.000 
#    0.000    0.000    0.000    0.000    0.000    0.000 
#
# Total GULP energy -496171.268302 kJ/mol
# GULP energy per Si atom -12404.281708 kJ/mol
# Density = 2.109206 g / cm^3
# Si number density = 21.140172 Si / 1000 Ang^3
#
#
#
# Elastic Constant Matrix: (Units=GPa)
#
#
# Indices 1 2 3 4 5 6 
#
# 1 114.5440 18.9858 54.0737 0.0000 0.0000 0.0000
# 2 18.9858 34.0030 27.4705 0.0000 0.0000 0.0000
# 3 54.0737 27.4705 132.7831 0.0000 0.0000 0.0000
# 4 0.0000 0.0000 0.0000 32.4258 0.0000 0.0000
# 5 0.0000 0.0000 0.0000 0.0000 47.7499 0.0000
# 6 0.0000 0.0000 0.0000 0.0000 0.0000 18.3859
#
#
#
# Elastic Compliance Matrix: (Units=1/GPa)
#
#
# Indices 1 2 3 4 5 6 
#
# 1 0.011065 -0.003047 -0.003876 0.000000 0.000000 0.000000
# 2 -0.003047 0.036150 -0.006238 0.000000 0.000000 0.000000
# 3 -0.003876 -0.006238 0.010400 0.000000 0.000000 0.000000
# 4 0.000000 0.000000 0.000000 0.030840 0.000000 0.000000
# 5 0.000000 0.000000 0.000000 0.000000 0.020942 0.000000
# 6 0.000000 0.000000 0.000000 0.000000 0.000000 0.054390
#
#
# Mechanical properties :
#
#
# Convention : Reuss Voigt Hill
#
# Bulk Modulus (GPa) = 31.95544 53.59888 42.77716
# Shear Modulus (GPa) = 24.93279 31.76566 28.34923
#
# Velocity S-wave (km/s) = 3.43797 3.88057 3.66596
# Velocity P-wave (km/s) = 5.55952 6.74444 6.18045
#
# Compressibility (1/GPa) = 0.03129357
#
# Stress axis : x y z
#
# Youngs Moduli (GPa) = 90.37571 27.66243 96.15504
#
# Poissons Ratio (x) = 0.08429 0.37266
# Poissons Ratio (y) = 0.27539 0.59981
# Poissons Ratio (z) = 0.35026 0.17256
#
# Static dielectric constant tensor:
#      x y z
#    x 3.869700 0.000000 0.000000 
#    y 0.000000 3.631230 0.000000 
#    z 0.000000 0.000000 3.852300 
# 
# 
# High freq. dielectric constant tensor:
#      x y z
#    x 1.835720 0.000000 0.000000 
#    y 0.000000 1.820840 0.000000 
#    z 0.000000 0.000000 1.828670 
# 
# From -- ./inp_files/47799.got.cif
#   From: 2010.03.12/outbox.cif.g09.slc.cpg/sg64_24_cif.got.tgz:47799.got - 2010.04.10 20:19:32.
