data_PCOD8263716
_publ_section_title
;
Structure prediction by ZEFSAII (Michael W. Deem and Ramdas Pophale) SiO2 
 PCOD8263716
Probable space group: C M C A
;
_chemical_formula_sum "Si O2"
_cell_formula_units_Z 88
_cell_length_a 23.155464
_cell_length_b 20.074117
_cell_length_c 9.543994
_cell_angle_alpha 90.000000
_cell_angle_beta 90.000000
_cell_angle_gamma 90.000000
_cell_volume 4436.291721
_symmetry_space_group_name_H-M "C M C A"
_symmetry_group_IT_number 64
_symmetry_cell_setting 'orthorhombic'
loop_
_space_group_symop_operation_xyz
x,y,z
-x,1/2-y,1/2+z
x,-y,-z
-x,1/2+y,1/2-z
-x,-y,-z
x,1/2+y,1/2-z
-x,y,z
x,1/2-y,1/2+z
1/2+x,1/2+y,z
1/2-x,-y,1/2+z
1/2+x,1/2-y,-z
1/2-x,y,1/2-z
1/2-x,1/2-y,-z
1/2+x,y,1/2-z
1/2-x,1/2+y,z
1/2+x,-y,1/2+z
loop_
_atom_site_type_symbol
_atom_site_label
_atom_site_fract_x
_atom_site_fract_y
_atom_site_fract_z
Si Si1 0.660885 0.892516 0.724972
Si Si2 0.134904 0.254365 0.269128
Si Si3 0.750000 0.837280 0.250000
Si Si4 0.064830 0.944225 0.606736
Si Si5 0.742752 0.075943 0.024715
Si Si6 0.065522 0.298561 0.018907
O O1 0.642900 0.816943 0.694225
O O2 0.605515 0.939755 0.756020
O O3 0.692617 0.921686 0.588538
O O4 0.700145 0.890662 0.864171
O O5 0.195928 0.290845 0.286101
O O6 0.091196 0.296755 0.174501
O O7 0.105333 0.247146 0.420200
O O8 0.736655 0.883938 0.118437
O O9 0.067139 0.874464 0.527882
O O10 0.000000 0.961828 0.656584
O O11 0.088279 0.000000 0.500000
O O12 0.724815 0.000000 0.000000
O O13 0.000000 0.271119 0.018288
#
# Coordination Sequence:
#
# PCOD8263716 Si02
#       6
#    16  16   8  16  16  16
#     4  10  21  37  55  79 111 143 180 224 272 322
#     4  11  22  36  57  82 111 146 180 225 274 323
#     4  12  22  36  56  82 112 142 184 226 274 332
#     4   9  18  34  58  84 110 144 185 226 268 321
#     4  11  23  37  56  80 109 144 180 224 273 325
#     4  10  21  37  57  82 111 145 184 224 269 321
#
# _framework density 19.836386999999998
#
# number of rings (size 3 to 8) (size 9 to 14) (size 15 to 20)
#    0.000    1.636    0.000    6.545    0.000    4.364 
#    0.000    0.000    0.000    0.545    0.000    0.000 
#    0.000    0.000    0.000    0.000    0.000    0.000 
#
# Total GULP energy -545729.904118 kJ/mol
# GULP energy per Si atom -12402.952366 kJ/mol
# Density = 1.979124 g / cm^3
# Si number density = 19.836387 Si / 1000 Ang^3
#
#
#
# Elastic Constant Matrix: (Units=GPa)
#
#
# Indices 1 2 3 4 5 6 
#
# 1 110.6354 29.5931 17.1797 0.0000 0.0000 0.0000
# 2 29.5931 50.4809 12.4718 0.0000 0.0000 0.0000
# 3 17.1797 12.4718 66.7458 0.0000 0.0000 0.0000
# 4 0.0000 0.0000 0.0000 22.3578 0.0000 0.0000
# 5 0.0000 0.0000 0.0000 0.0000 36.4968 0.0000
# 6 0.0000 0.0000 0.0000 0.0000 0.0000 21.5224
#
#
#
# Elastic Compliance Matrix: (Units=1/GPa)
#
#
# Indices 1 2 3 4 5 6 
#
# 1 0.010898 -0.005971 -0.001689 0.000000 0.000000 0.000000
# 2 -0.005971 0.024040 -0.002955 0.000000 0.000000 0.000000
# 3 -0.001689 -0.002955 0.015969 0.000000 0.000000 0.000000
# 4 0.000000 0.000000 0.000000 0.044727 0.000000 0.000000
# 5 0.000000 0.000000 0.000000 0.000000 0.027400 0.000000
# 6 0.000000 0.000000 0.000000 0.000000 0.000000 0.046463
#
#
# Mechanical properties :
#
#
# Convention : Reuss Voigt Hill
#
# Bulk Modulus (GPa) = 33.69726 38.48348 36.09037
# Shear Modulus (GPa) = 24.92258 27.31657 26.11958
#
# Velocity S-wave (km/s) = 3.54843 3.71495 3.63264
# Velocity P-wave (km/s) = 5.81489 6.15172 5.98568
#
# Compressibility (1/GPa) = 0.02967601
#
# Stress axis : x y z
#
# Youngs Moduli (GPa) = 91.75762 41.59704 62.62055
#
# Poissons Ratio (x) = 0.24840 0.10579
# Poissons Ratio (y) = 0.54793 0.18505
# Poissons Ratio (z) = 0.15501 0.12292
#
# Static dielectric constant tensor:
#      x y z
#    x 4.103780 0.000000 0.000000 
#    y 0.000000 3.540110 0.000000 
#    z 0.000000 0.000000 3.474810 
# 
# 
# High freq. dielectric constant tensor:
#      x y z
#    x 1.789400 0.000000 0.000000 
#    y 0.000000 1.772050 0.000000 
#    z 0.000000 0.000000 1.760160 
# 
# From -- ./inp_files/9317.got.cif
#   From: 2010.03.12/outbox.cif.g09.slc.cpg/sg64_5_cif.got.tgz:9317.got - 2010.04.10 20:19:32.
