data_PCOD8263128
_publ_section_title
;
Structure prediction by ZEFSAII (Michael W. Deem and Ramdas Pophale) SiO2 
 PCOD8263128
Probable space group: C M C A
;
_chemical_formula_sum "Si O2"
_cell_formula_units_Z 112
_cell_length_a 13.874517
_cell_length_b 14.739590
_cell_length_c 27.212968
_cell_angle_alpha 90.000000
_cell_angle_beta 90.000000
_cell_angle_gamma 90.000000
_cell_volume 5565.179640
_symmetry_space_group_name_H-M "C M C A"
_symmetry_group_IT_number 64
_symmetry_cell_setting 'orthorhombic'
loop_
_space_group_symop_operation_xyz
x,y,z
-x,1/2-y,1/2+z
x,-y,-z
-x,1/2+y,1/2-z
-x,-y,-z
x,1/2+y,1/2-z
-x,y,z
x,1/2-y,1/2+z
1/2+x,1/2+y,z
1/2-x,-y,1/2+z
1/2+x,1/2-y,-z
1/2-x,y,1/2-z
1/2-x,1/2-y,-z
1/2+x,y,1/2-z
1/2-x,1/2+y,z
1/2+x,-y,1/2+z
loop_
_atom_site_type_symbol
_atom_site_label
_atom_site_fract_x
_atom_site_fract_y
_atom_site_fract_z
Si Si1 0.741471 0.077225 0.635696
Si Si2 0.387110 0.805507 0.757058
Si Si3 0.887931 0.231464 0.470592
Si Si4 0.888563 0.526595 0.301461
Si Si5 0.110112 0.748734 0.639533
Si Si6 0.611090 0.117091 0.783048
Si Si7 0.747452 0.401777 0.023644
O O1 0.674308 0.990738 0.649494
O O2 0.678135 0.164337 0.646087
O O3 0.835744 0.077799 0.669487
O O4 0.774028 0.074446 0.579490
O O5 0.500000 0.808488 0.749186
O O6 0.365000 0.816511 0.815427
O O7 0.345703 0.714034 0.732998
O O8 0.341939 0.887273 0.726165
O O9 0.874237 0.204225 0.413292
O O10 0.839486 0.149493 0.500572
O O11 0.842384 0.331431 0.481153
O O12 0.000000 0.237239 0.485420
O O13 0.873922 0.443529 0.264700
O O14 0.000000 0.540259 0.316450
O O15 0.000000 0.713630 0.644456
O O16 0.500000 0.122100 0.798350
O O17 0.723685 0.500000 0.000000
#
# Coordination Sequence:
#
# PCOD8263128 Si02
#       7
#    16  16  16  16  16  16  16
#     4  11  21  37  58  84 115 160 196 236 302 351
#     4   9  18  34  56  83 117 153 188 236 286 341
#     4   9  20  41  66  91 120 160 206 254 312 369
#     4  10  20  36  56  84 118 151 194 240 284 351
#     4   9  17  34  62  87 114 155 197 240 292 354
#     4  10  21  38  54  79 121 155 193 238 282 342
#     4  10  23  42  62  90 125 155 203 265 308 361
#
# _framework density 20.125136999999999
#
# number of rings (size 3 to 8) (size 9 to 14) (size 15 to 20)
#    0.000    2.286    1.429    0.857    0.000    2.857 
#   12.857    1.429    0.000    0.000    0.000    0.000 
#    0.000    0.000    0.000    0.000    0.000    0.000 
#
# Total GULP energy -694103.049812 kJ/mol
# GULP energy per Si atom -12394.697318 kJ/mol
# Density = 2.007933 g / cm^3
# Si number density = 20.125137 Si / 1000 Ang^3
#
#
#
# Elastic Constant Matrix: (Units=GPa)
#
#
# Indices 1 2 3 4 5 6 
#
# 1 84.0922 25.5580 37.6376 0.0000 0.0000 0.0000
# 2 25.5580 103.5091 33.7019 0.0000 0.0000 0.0000
# 3 37.6376 33.7019 100.2308 0.0000 0.0000 0.0000
# 4 0.0000 0.0000 0.0000 33.2559 0.0000 0.0000
# 5 0.0000 0.0000 0.0000 0.0000 25.6069 0.0000
# 6 0.0000 0.0000 0.0000 0.0000 0.0000 8.2769
#
#
#
# Elastic Compliance Matrix: (Units=1/GPa)
#
#
# Indices 1 2 3 4 5 6 
#
# 1 0.014673 -0.002054 -0.004819 0.000000 0.000000 0.000000
# 2 -0.002054 0.011136 -0.002973 0.000000 0.000000 0.000000
# 3 -0.004819 -0.002973 0.012786 0.000000 0.000000 0.000000
# 4 0.000000 0.000000 0.000000 0.030070 0.000000 0.000000
# 5 0.000000 0.000000 0.000000 0.000000 0.039052 0.000000
# 6 0.000000 0.000000 0.000000 0.000000 0.000000 0.120818
#
#
# Mechanical properties :
#
#
# Convention : Reuss Voigt Hill
#
# Bulk Modulus (GPa) = 52.90209 53.51413 53.20811
# Shear Modulus (GPa) = 19.64416 26.15692 22.90054
#
# Velocity S-wave (km/s) = 3.12765 3.60907 3.37695
# Velocity P-wave (km/s) = 6.27587 6.63442 6.45764
#
# Compressibility (1/GPa) = 0.01890284
#
# Stress axis : x y z
#
# Youngs Moduli (GPa) = 68.15285 89.79739 78.20839
#
# Poissons Ratio (x) = 0.18443 0.37690
# Poissons Ratio (y) = 0.13998 0.23253
# Poissons Ratio (z) = 0.32844 0.26699
#
# Static dielectric constant tensor:
#      x y z
#    x 3.647620 0.000000 0.000000 
#    y 0.000000 3.800410 0.000000 
#    z 0.000000 0.000000 3.820170 
# 
# 
# High freq. dielectric constant tensor:
#      x y z
#    x 1.789820 0.000000 0.000000 
#    y 0.000000 1.777190 0.000000 
#    z 0.000000 0.000000 1.781560 
# 
# From -- ./inp_files/45218.got.cif
#   From: 2010.03.12/outbox.cif.g09.slc.cpg/sg64_23_cif.got.tgz:45218.got - 2010.04.10 20:19:32.
