data_PCOD8263272
_publ_section_title
;
Structure prediction by ZEFSAII (Michael W. Deem and Ramdas Pophale) SiO2 
 PCOD8263272
Probable space group: C M C A
;
_chemical_formula_sum "Si O2"
_cell_formula_units_Z 56
_cell_length_a 9.863231
_cell_length_b 26.797092
_cell_length_c 9.596275
_cell_angle_alpha 90.000000
_cell_angle_beta 90.000000
_cell_angle_gamma 90.000000
_cell_volume 2536.352182
_symmetry_space_group_name_H-M "C M C A"
_symmetry_group_IT_number 64
_symmetry_cell_setting 'orthorhombic'
loop_
_space_group_symop_operation_xyz
x,y,z
-x,1/2-y,1/2+z
x,-y,-z
-x,1/2+y,1/2-z
-x,-y,-z
x,1/2+y,1/2-z
-x,y,z
x,1/2-y,1/2+z
1/2+x,1/2+y,z
1/2-x,-y,1/2+z
1/2+x,1/2-y,-z
1/2-x,y,1/2-z
1/2-x,1/2-y,-z
1/2+x,y,1/2-z
1/2-x,1/2+y,z
1/2+x,-y,1/2+z
loop_
_atom_site_type_symbol
_atom_site_label
_atom_site_fract_x
_atom_site_fract_y
_atom_site_fract_z
Si Si1 0.282750 0.354145 0.460420
Si Si2 0.000000 0.812088 0.096833
Si Si3 0.500000 0.965670 0.792923
Si Si4 0.750000 0.405089 0.750000
Si Si5 0.500000 0.776042 0.102443
Si Si6 0.500000 0.429032 0.391917
O O1 0.278711 0.369367 0.621088
O O2 0.364077 0.302299 0.453880
O O3 0.365363 0.395366 0.370606
O O4 0.132459 0.347464 0.397573
O O5 0.000000 0.775199 0.229398
O O6 0.000000 0.780448 0.953999
O O7 0.372513 0.942256 0.713753
O O8 0.500000 0.025956 0.780089
O O9 0.500000 0.950867 0.953674
#
# Coordination Sequence:
#
# PCOD8263272 Si02
#       6
#    16   8   8   8   8   8
#     4  10  22  40  64  93 132 166 217 259 331 373
#     4  12  25  42  67  95 125 168 223 262 316 395
#     4   9  17  36  59  93 126 156 220 250 320 362
#     4  10  20  36  68  98 122 172 212 270 310 386
#     4  11  26  43  64  93 131 170 208 270 330 373
#     4   8  18  39  60  84 131 173 192 270 312 373
#
# _framework density 22.078951
#
# number of rings (size 3 to 8) (size 9 to 14) (size 15 to 20)
#    0.000    2.000    0.000    3.429    4.000    0.000 
#   10.286    0.000    0.000    6.857    0.000    0.000 
#    0.000    0.000    0.000    0.000    0.000    0.000 
#
# Total GULP energy -347241.996923 kJ/mol
# GULP energy per Si atom -12401.499890 kJ/mol
# Density = 2.202870 g / cm^3
# Si number density = 22.078951 Si / 1000 Ang^3
#
#
#
# Elastic Constant Matrix: (Units=GPa)
#
#
# Indices 1 2 3 4 5 6 
#
# 1 190.7734 47.2880 20.0909 0.0000 0.0000 0.0000
# 2 47.2880 87.5053 21.4252 0.0000 0.0000 0.0000
# 3 20.0909 21.4252 84.2308 0.0000 0.0000 0.0000
# 4 0.0000 0.0000 0.0000 17.8229 0.0000 0.0000
# 5 0.0000 0.0000 0.0000 0.0000 24.5596 0.0000
# 6 0.0000 0.0000 0.0000 0.0000 0.0000 50.9562
#
#
#
# Elastic Compliance Matrix: (Units=1/GPa)
#
#
# Indices 1 2 3 4 5 6 
#
# 1 0.006086 -0.003128 -0.000656 0.000000 0.000000 0.000000
# 2 -0.003128 0.013795 -0.002763 0.000000 0.000000 0.000000
# 3 -0.000656 -0.002763 0.012731 0.000000 0.000000 0.000000
# 4 0.000000 0.000000 0.000000 0.056108 0.000000 0.000000
# 5 0.000000 0.000000 0.000000 0.000000 0.040717 0.000000
# 6 0.000000 0.000000 0.000000 0.000000 0.000000 0.019625
#
#
# Mechanical properties :
#
#
# Convention : Reuss Voigt Hill
#
# Bulk Modulus (GPa) = 51.23384 60.01308 55.62346
# Shear Modulus (GPa) = 29.64499 36.91477 33.27988
#
# Velocity S-wave (km/s) = 3.66824 4.09338 3.88662
# Velocity P-wave (km/s) = 6.41845 7.04139 6.73712
#
# Compressibility (1/GPa) = 0.01951835
#
# Stress axis : x y z
#
# Youngs Moduli (GPa) = 164.30144 72.49029 78.54632
#
# Poissons Ratio (x) = 0.22678 0.05152
# Poissons Ratio (y) = 0.51401 0.21700
# Poissons Ratio (z) = 0.10778 0.20027
#
# Static dielectric constant tensor:
#      x y z
#    x 4.225530 0.000000 0.000000 
#    y 0.000000 4.011490 0.000000 
#    z 0.000000 0.000000 3.643660 
# 
# 
# High freq. dielectric constant tensor:
#      x y z
#    x 1.883540 0.000000 0.000000 
#    y 0.000000 1.863070 0.000000 
#    z 0.000000 0.000000 1.852250 
# 
# From -- ./inp_files/4522.got.cif
#   From: 2010.03.12/outbox.cif.g09.slc.cpg/sg64_3_cif.got.tgz:4522.got - 2010.04.10 20:19:32.
