data_PCOD8263013
_publ_section_title
;
Structure prediction by ZEFSAII (Michael W. Deem and Ramdas Pophale) SiO2 
 PCOD8263013
Probable space group: C M C A
;
_chemical_formula_sum "Si O2"
_cell_formula_units_Z 96
_cell_length_a 8.922985
_cell_length_b 29.539756
_cell_length_c 19.322100
_cell_angle_alpha 90.000000
_cell_angle_beta 90.000000
_cell_angle_gamma 90.000000
_cell_volume 5092.973214
_symmetry_space_group_name_H-M "C M C A"
_symmetry_group_IT_number 64
_symmetry_cell_setting 'orthorhombic'
loop_
_space_group_symop_operation_xyz
x,y,z
-x,1/2-y,1/2+z
x,-y,-z
-x,1/2+y,1/2-z
-x,-y,-z
x,1/2+y,1/2-z
-x,y,z
x,1/2-y,1/2+z
1/2+x,1/2+y,z
1/2-x,-y,1/2+z
1/2+x,1/2-y,-z
1/2-x,y,1/2-z
1/2-x,1/2-y,-z
1/2+x,y,1/2-z
1/2-x,1/2+y,z
1/2+x,-y,1/2+z
loop_
_atom_site_type_symbol
_atom_site_label
_atom_site_fract_x
_atom_site_fract_y
_atom_site_fract_z
Si Si1 0.175236 0.315953 0.680090
Si Si2 0.177141 0.050746 0.824657
Si Si3 0.825745 0.360311 0.408429
Si Si4 0.323574 0.213122 0.820866
Si Si5 0.824620 0.113849 0.063510
Si Si6 0.823334 0.981010 0.574430
O O1 0.250000 0.334564 0.750000
O O2 0.227183 0.264646 0.664318
O O3 0.224155 0.346943 0.616225
O O4 0.000000 0.317928 0.692303
O O5 0.250000 0.052474 0.750000
O O6 0.223706 0.096061 0.864844
O O7 0.000000 0.045751 0.817773
O O8 0.239514 0.007991 0.865762
O O9 0.732454 0.316974 0.384349
O O10 0.783902 0.368575 0.487700
O O11 0.000000 0.349703 0.398563
O O12 0.500000 0.208352 0.813382
O O13 0.250000 0.195150 0.750000
O O14 0.725389 0.070680 0.081424
O O15 0.000000 0.101367 0.069198
O O16 0.000000 0.985673 0.585204
O O17 0.772486 0.000000 0.500000
#
# Coordination Sequence:
#
# PCOD8263013 Si02
#       6
#    16  16  16  16  16  16
#     4   9  20  38  59  83 113 150 192 237 282 338
#     4  11  23  39  60  86 116 152 194 238 288 342
#     4  10  21  36  57  85 115 151 191 234 286 345
#     4  10  20  35  56  82 114 152 191 234 286 337
#     4  10  21  39  61  84 114 153 193 234 288 346
#     4  11  23  39  60  86 116 150 191 237 287 343
#
# _framework density 18.849499999999999
#
# number of rings (size 3 to 8) (size 9 to 14) (size 15 to 20)
#    0.000    1.833    1.667    2.000    0.000    6.667 
#    0.000    1.667    0.000    0.000    0.000    0.000 
#    0.000    0.000    0.000    0.000    0.000    0.000 
#
# Total GULP energy -595469.783131 kJ/mol
# GULP energy per Si atom -12405.620482 kJ/mol
# Density = 1.880660 g / cm^3
# Si number density = 18.849500 Si / 1000 Ang^3
#
#
#
# Elastic Constant Matrix: (Units=GPa)
#
#
# Indices 1 2 3 4 5 6 
#
# 1 59.8405 45.4868 51.2987 0.0000 0.0000 0.0000
# 2 45.4868 118.2634 79.5633 0.0000 0.0000 0.0000
# 3 51.2987 79.5633 163.5841 0.0000 0.0000 0.0000
# 4 0.0000 0.0000 0.0000 32.0167 0.0000 0.0000
# 5 0.0000 0.0000 0.0000 0.0000 27.7342 0.0000
# 6 0.0000 0.0000 0.0000 0.0000 0.0000 31.2674
#
#
#
# Elastic Compliance Matrix: (Units=1/GPa)
#
#
# Indices 1 2 3 4 5 6 
#
# 1 0.026006 -0.006712 -0.004891 0.000000 0.000000 0.000000
# 2 -0.006712 0.014301 -0.004851 0.000000 0.000000 0.000000
# 3 -0.004891 -0.004851 0.010006 0.000000 0.000000 0.000000
# 4 0.000000 0.000000 0.000000 0.031234 0.000000 0.000000
# 5 0.000000 0.000000 0.000000 0.000000 0.036057 0.000000
# 6 0.000000 0.000000 0.000000 0.000000 0.000000 0.031982
#
#
# Mechanical properties :
#
#
# Convention : Reuss Voigt Hill
#
# Bulk Modulus (GPa) = 57.45278 77.15396 67.30337
# Shear Modulus (GPa) = 26.55431 29.22627 27.89029
#
# Velocity S-wave (km/s) = 3.75741 3.94192 3.85077
# Velocity P-wave (km/s) = 7.02638 7.85740 7.45348
#
# Compressibility (1/GPa) = 0.01740560
#
# Stress axis : x y z
#
# Youngs Moduli (GPa) = 38.45307 69.92671 99.94092
#
# Poissons Ratio (x) = 0.46936 0.48876
# Poissons Ratio (y) = 0.25811 0.48477
# Poissons Ratio (z) = 0.18806 0.33919
#
# Static dielectric constant tensor:
#      x y z
#    x 3.425110 0.000000 0.000000 
#    y 0.000000 3.558740 0.000000 
#    z 0.000000 0.000000 3.561000 
# 
# 
# High freq. dielectric constant tensor:
#      x y z
#    x 1.733960 0.000000 0.000000 
#    y 0.000000 1.738790 0.000000 
#    z 0.000000 0.000000 1.739210 
# 
# From -- ./inp_files/37100.got.cif
#   From: 2010.03.12/outbox.cif.g09.slc.cpg/sg64_19_cif.got.tgz:37100.got - 2010.04.10 20:19:32.
