data_PCOD8263295
_publ_section_title
;
Structure prediction by ZEFSAII (Michael W. Deem and Ramdas Pophale) SiO2 
 PCOD8263295
Probable space group: C M C A
;
_chemical_formula_sum "Si O2"
_cell_formula_units_Z 88
_cell_length_a 14.799630
_cell_length_b 20.304260
_cell_length_c 14.574385
_cell_angle_alpha 90.000000
_cell_angle_beta 90.000000
_cell_angle_gamma 90.000000
_cell_volume 4379.537624
_symmetry_space_group_name_H-M "C M C A"
_symmetry_group_IT_number 64
_symmetry_cell_setting 'orthorhombic'
loop_
_space_group_symop_operation_xyz
x,y,z
-x,1/2-y,1/2+z
x,-y,-z
-x,1/2+y,1/2-z
-x,-y,-z
x,1/2+y,1/2-z
-x,y,z
x,1/2-y,1/2+z
1/2+x,1/2+y,z
1/2-x,-y,1/2+z
1/2+x,1/2-y,-z
1/2-x,y,1/2-z
1/2-x,1/2-y,-z
1/2+x,y,1/2-z
1/2-x,1/2+y,z
1/2+x,-y,1/2+z
loop_
_atom_site_type_symbol
_atom_site_label
_atom_site_fract_x
_atom_site_fract_y
_atom_site_fract_z
Si Si1 0.604581 0.118460 0.679847
Si Si2 0.747963 0.861854 0.027934
Si Si3 0.679909 0.162422 0.326465
Si Si4 0.602253 0.202657 0.854549
Si Si5 0.896793 0.028932 0.156960
Si Si6 0.265917 0.500000 0.000000
O O1 0.500000 0.131308 0.654266
O O2 0.662864 0.140834 0.592155
O O3 0.635031 0.160329 0.767242
O O4 0.619922 0.041085 0.707299
O O5 0.669332 0.813535 0.061776
O O6 0.770822 0.841725 0.924652
O O7 0.707906 0.937542 0.035050
O O8 0.750000 0.185184 0.250000
O O9 0.605437 0.219920 0.332198
O O10 0.632728 0.094886 0.288023
O O11 0.500000 0.183810 0.881849
O O12 0.000000 0.035363 0.125832
O O13 0.833401 0.034412 0.070027
#
# Coordination Sequence:
#
# PCOD8263295 Si02
#       6
#    16  16  16  16  16   8
#     4   9  19  35  60  88 112 142 185 231 278 331
#     4  10  20  37  59  82 112 147 184 227 277 333
#     4  11  23  37  54  81 114 149 187 232 281 332
#     4  11  23  39  58  82 111 148 189 233 282 334
#     4   9  17  32  54  82 112 144 182 228 277 329
#     4   8  17  30  55  86 110 140 182 228 272 320
#
# _framework density 20.093446
#
# number of rings (size 3 to 8) (size 9 to 14) (size 15 to 20)
#    0.000    2.182    0.000    3.000    0.000    9.455 
#    0.000    4.091    0.000    0.000    0.000    0.000 
#    0.000    0.000    0.000    0.000    0.000    0.000 
#
# Total GULP energy -545234.261379 kJ/mol
# GULP energy per Si atom -12391.687759 kJ/mol
# Density = 2.004771 g / cm^3
# Si number density = 20.093446 Si / 1000 Ang^3
#
#
#
# Elastic Constant Matrix: (Units=GPa)
#
#
# Indices 1 2 3 4 5 6 
#
# 1 69.3760 39.3276 32.1937 0.0000 0.0000 0.0000
# 2 39.3276 125.5421 35.8100 0.0000 0.0000 0.0000
# 3 32.1937 35.8100 93.4865 0.0000 0.0000 0.0000
# 4 0.0000 0.0000 0.0000 18.2536 0.0000 0.0000
# 5 0.0000 0.0000 0.0000 0.0000 50.1584 0.0000
# 6 0.0000 0.0000 0.0000 0.0000 0.0000 28.3053
#
#
#
# Elastic Compliance Matrix: (Units=1/GPa)
#
#
# Indices 1 2 3 4 5 6 
#
# 1 0.019315 -0.004663 -0.004865 0.000000 0.000000 0.000000
# 2 -0.004663 0.010068 -0.002251 0.000000 0.000000 0.000000
# 3 -0.004865 -0.002251 0.013234 0.000000 0.000000 0.000000
# 4 0.000000 0.000000 0.000000 0.054784 0.000000 0.000000
# 5 0.000000 0.000000 0.000000 0.000000 0.019937 0.000000
# 6 0.000000 0.000000 0.000000 0.000000 0.000000 0.035329
#
#
# Mechanical properties :
#
#
# Convention : Reuss Voigt Hill
#
# Bulk Modulus (GPa) = 52.46728 55.89634 54.18181
# Shear Modulus (GPa) = 27.38538 31.41502 29.40020
#
# Velocity S-wave (km/s) = 3.69575 3.95833 3.82929
# Velocity P-wave (km/s) = 6.66182 6.98354 6.82457
#
# Compressibility (1/GPa) = 0.01905950
#
# Stress axis : x y z
#
# Youngs Moduli (GPa) = 51.77245 99.32242 75.56057
#
# Poissons Ratio (x) = 0.46313 0.36763
# Poissons Ratio (y) = 0.24141 0.17008
# Poissons Ratio (z) = 0.25189 0.22356
#
# Static dielectric constant tensor:
#      x y z
#    x 3.439010 0.000000 0.000000 
#    y 0.000000 4.239070 0.000000 
#    z 0.000000 0.000000 3.412850 
# 
# 
# High freq. dielectric constant tensor:
#      x y z
#    x 1.766330 0.000000 0.000000 
#    y 0.000000 1.812250 0.000000 
#    z 0.000000 0.000000 1.759330 
# 
# From -- ./inp_files/23770.got.cif
#   From: 2010.03.12/outbox.cif.g09.slc.cpg/sg64_12_cif.got.tgz:23770.got - 2010.04.10 20:19:32.
