data_PCOD8263274
_publ_section_title
;
Structure prediction by ZEFSAII (Michael W. Deem and Ramdas Pophale) SiO2 
 PCOD8263274
Probable space group: C M C A
;
_chemical_formula_sum "Si O2"
_cell_formula_units_Z 88
_cell_length_a 14.119757
_cell_length_b 11.692510
_cell_length_c 27.766238
_cell_angle_alpha 90.000000
_cell_angle_beta 90.000000
_cell_angle_gamma 90.000000
_cell_volume 4584.078167
_symmetry_space_group_name_H-M "C M C A"
_symmetry_group_IT_number 64
_symmetry_cell_setting 'orthorhombic'
loop_
_space_group_symop_operation_xyz
x,y,z
-x,1/2-y,1/2+z
x,-y,-z
-x,1/2+y,1/2-z
-x,-y,-z
x,1/2+y,1/2-z
-x,y,z
x,1/2-y,1/2+z
1/2+x,1/2+y,z
1/2-x,-y,1/2+z
1/2+x,1/2-y,-z
1/2-x,y,1/2-z
1/2-x,1/2-y,-z
1/2+x,y,1/2-z
1/2-x,1/2+y,z
1/2+x,-y,1/2+z
loop_
_atom_site_type_symbol
_atom_site_label
_atom_site_fract_x
_atom_site_fract_y
_atom_site_fract_z
Si Si1 0.111767 0.908210 0.433536
Si Si2 0.393979 0.127394 0.191888
Si Si3 0.217506 0.909254 0.341928
Si Si4 0.104523 0.673818 0.615031
Si Si5 0.887836 0.657025 0.036672
Si Si6 0.750000 0.255666 0.250000
O O1 0.156849 0.853240 0.385437
O O2 0.142254 0.834248 0.480514
O O3 0.000000 0.907033 0.426837
O O4 0.150402 0.038485 0.440155
O O5 0.500000 0.083091 0.205939
O O6 0.403998 0.221676 0.151462
O O7 0.341692 0.178459 0.238582
O O8 0.326916 0.029176 0.171680
O O9 0.324676 0.921468 0.363190
O O10 0.217229 0.829970 0.295280
O O11 0.145579 0.729073 0.565304
O O12 0.000000 0.618232 0.607851
O O13 0.000000 0.649551 0.040701
#
# Coordination Sequence:
#
# PCOD8263274 Si02
#       6
#    16  16  16  16  16   8
#     4   9  16  27  51  83 110 137 173 218 265 319
#     4  10  20  37  56  74 105 141 172 218 272 318
#     4  11  20  33  56  80 102 137 188 226 263 321
#     4   9  18  33  53  78 110 143 173 212 262 315
#     4   8  14  28  49  79 113 140 169 210 264 321
#     4  10  24  38  50  78 108 134 180 230 276 322
#
# _framework density 19.19688
#
# number of rings (size 3 to 8) (size 9 to 14) (size 15 to 20)
#    0.000    2.545    1.818    2.182    0.000    2.182 
#    0.000    4.545    0.000    2.182    0.000    2.545 
#    0.000    0.000    0.000    0.000    0.000    0.000 
#
# Total GULP energy -545149.086557 kJ/mol
# GULP energy per Si atom -12389.751967 kJ/mol
# Density = 1.915319 g / cm^3
# Si number density = 19.196880 Si / 1000 Ang^3
#
#
#
# Elastic Constant Matrix: (Units=GPa)
#
#
# Indices 1 2 3 4 5 6 
#
# 1 99.0704 34.2629 46.1150 0.0000 0.0000 0.0000
# 2 34.2629 27.5340 17.5167 0.0000 0.0000 0.0000
# 3 46.1150 17.5167 137.8148 0.0000 0.0000 0.0000
# 4 0.0000 0.0000 0.0000 7.5547 0.0000 0.0000
# 5 0.0000 0.0000 0.0000 0.0000 29.0294 0.0000
# 6 0.0000 0.0000 0.0000 0.0000 0.0000 5.4751
#
#
#
# Elastic Compliance Matrix: (Units=1/GPa)
#
#
# Indices 1 2 3 4 5 6 
#
# 1 0.019318 -0.021679 -0.003708 0.000000 0.000000 0.000000
# 2 -0.021679 0.063844 -0.000860 0.000000 0.000000 0.000000
# 3 -0.003708 -0.000860 0.008606 0.000000 0.000000 0.000000
# 4 0.000000 0.000000 0.000000 0.132367 0.000000 0.000000
# 5 0.000000 0.000000 0.000000 0.000000 0.034448 0.000000
# 6 0.000000 0.000000 0.000000 0.000000 0.000000 0.182646
#
#
# Mechanical properties :
#
#
# Convention : Reuss Voigt Hill
#
# Bulk Modulus (GPa) = 25.46402 51.13424 38.29913
# Shear Modulus (GPa) = 9.86552 19.51349 14.68950
#
# Velocity S-wave (km/s) = 2.26942 3.19171 2.76923
# Velocity P-wave (km/s) = 4.49005 6.34643 5.49717
#
# Compressibility (1/GPa) = 0.03927110
#
# Stress axis : x y z
#
# Youngs Moduli (GPa) = 51.76588 15.66326 116.19262
#
# Poissons Ratio (x) = 0.33957 0.43090
# Poissons Ratio (y) = 1.12225 0.09998
# Poissons Ratio (z) = 0.19197 0.01348
#
# Static dielectric constant tensor:
#      x y z
#    x 3.596180 0.000000 0.000000 
#    y 0.000000 3.206730 0.000000 
#    z 0.000000 0.000000 3.981810 
# 
# 
# High freq. dielectric constant tensor:
#      x y z
#    x 1.740830 0.000000 0.000000 
#    y 0.000000 1.700480 0.000000 
#    z 0.000000 0.000000 1.763330 
# 
# From -- ./inp_files/49960.got.cif
#   From: 2010.03.12/outbox.cif.g09.slc.cpg/sg64_25_cif.got.tgz:49960.got - 2010.04.10 20:19:32.
