data_PCOD8263838
_publ_section_title
;
Structure prediction by ZEFSAII (Michael W. Deem and Ramdas Pophale) SiO2 
 PCOD8263838
Probable space group: C M C A
;
_chemical_formula_sum "Si O2"
_cell_formula_units_Z 56
_cell_length_a 21.292281
_cell_length_b 24.527736
_cell_length_c 5.170277
_cell_angle_alpha 90.000000
_cell_angle_beta 90.000000
_cell_angle_gamma 90.000000
_cell_volume 2700.184646
_symmetry_space_group_name_H-M "C M C A"
_symmetry_group_IT_number 64
_symmetry_cell_setting 'orthorhombic'
loop_
_space_group_symop_operation_xyz
x,y,z
-x,1/2-y,1/2+z
x,-y,-z
-x,1/2+y,1/2-z
-x,-y,-z
x,1/2+y,1/2-z
-x,y,z
x,1/2-y,1/2+z
1/2+x,1/2+y,z
1/2-x,-y,1/2+z
1/2+x,1/2-y,-z
1/2-x,y,1/2-z
1/2-x,1/2-y,-z
1/2+x,y,1/2-z
1/2-x,1/2+y,z
1/2+x,-y,1/2+z
loop_
_atom_site_type_symbol
_atom_site_label
_atom_site_fract_x
_atom_site_fract_y
_atom_site_fract_z
Si Si1 0.927298 0.563675 0.039586
Si Si2 0.639981 0.396518 0.054267
Si Si3 0.250000 0.969785 0.250000
Si Si4 0.679051 0.773925 0.488223
O O1 0.888735 0.587343 0.279839
O O2 0.000000 0.572215 0.103152
O O3 0.912089 0.500000 0.000000
O O4 0.911347 0.598588 0.782165
O O5 0.695180 0.436979 0.117568
O O6 0.673973 0.338347 0.038624
O O7 0.219944 0.000000 0.500000
O O8 0.643766 0.754425 0.747248
O O9 0.750000 0.750000 0.500000
#
# Coordination Sequence:
#
# PCOD8263838 Si02
#       4
#    16  16   8  16
#     4  11  24  43  66  93 127 169 216 259 307 375
#     4  12  23  40  65  92 126 167 210 259 318 380
#     4  12  24  36  56  92 134 162 194 252 324 392
#     4  10  21  38  59  87 119 157 205 250 304 368
#
# _framework density 20.739324
#
# number of rings (size 3 to 8) (size 9 to 14) (size 15 to 20)
#    0.000    0.857    0.000    9.429    0.000    6.857 
#    0.000    0.000    0.000   17.143    0.000    0.000 
#    0.000    0.000    0.000    0.000    0.000    0.000 
#
# Total GULP energy -347008.220037 kJ/mol
# GULP energy per Si atom -12393.150716 kJ/mol
# Density = 2.069212 g / cm^3
# Si number density = 20.739324 Si / 1000 Ang^3
#
#
#
# Elastic Constant Matrix: (Units=GPa)
#
#
# Indices 1 2 3 4 5 6 
#
# 1 79.7540 49.2545 25.5837 0.0000 0.0000 0.0000
# 2 49.2545 157.2286 71.3793 0.0000 0.0000 0.0000
# 3 25.5837 71.3793 195.1874 0.0000 0.0000 0.0000
# 4 0.0000 0.0000 0.0000 39.1543 0.0000 0.0000
# 5 0.0000 0.0000 0.0000 0.0000 26.2766 0.0000
# 6 0.0000 0.0000 0.0000 0.0000 0.0000 30.9563
#
#
#
# Elastic Compliance Matrix: (Units=1/GPa)
#
#
# Indices 1 2 3 4 5 6 
#
# 1 0.015562 -0.004735 -0.000308 0.000000 0.000000 0.000000
# 2 -0.004735 0.009067 -0.002695 0.000000 0.000000 0.000000
# 3 -0.000308 -0.002695 0.006149 0.000000 0.000000 0.000000
# 4 0.000000 0.000000 0.000000 0.025540 0.000000 0.000000
# 5 0.000000 0.000000 0.000000 0.000000 0.038057 0.000000
# 6 0.000000 0.000000 0.000000 0.000000 0.000000 0.032304
#
#
# Mechanical properties :
#
#
# Convention : Reuss Voigt Hill
#
# Bulk Modulus (GPa) = 65.35376 80.51167 72.93272
# Shear Modulus (GPa) = 33.95461 38.34094 36.14777
#
# Velocity S-wave (km/s) = 4.05063 4.30432 4.17940
# Velocity P-wave (km/s) = 7.31145 7.97546 7.65066
#
# Compressibility (1/GPa) = 0.01530134
#
# Stress axis : x y z
#
# Youngs Moduli (GPa) = 64.26037 110.28920 162.62086
#
# Poissons Ratio (x) = 0.52223 0.05010
# Poissons Ratio (y) = 0.30428 0.43829
# Poissons Ratio (z) = 0.01980 0.29725
#
# Static dielectric constant tensor:
#      x y z
#    x 3.569760 0.000000 0.000000 
#    y 0.000000 3.818490 0.000000 
#    z 0.000000 0.000000 7.343370 
# 
# 
# High freq. dielectric constant tensor:
#      x y z
#    x 1.788150 0.000000 0.000000 
#    y 0.000000 1.808720 0.000000 
#    z 0.000000 0.000000 1.853390 
# 
# From -- ./inp_files/1575.got.cif
#   From: 2010.03.12/outbox.cif.g09.slc.cpg/sg64_1_cif.got.tgz:1575.got - 2010.04.10 20:19:32.
