data_PCOD8263493
_publ_section_title
;
Structure prediction by ZEFSAII (Michael W. Deem and Ramdas Pophale) SiO2 
 PCOD8263493
Probable space group: C M C A
;
_chemical_formula_sum "Si O2"
_cell_formula_units_Z 80
_cell_length_a 17.913888
_cell_length_b 12.862305
_cell_length_c 17.686045
_cell_angle_alpha 90.000000
_cell_angle_beta 90.000000
_cell_angle_gamma 90.000000
_cell_volume 4075.110448
_symmetry_space_group_name_H-M "C M C A"
_symmetry_group_IT_number 64
_symmetry_cell_setting 'orthorhombic'
loop_
_space_group_symop_operation_xyz
x,y,z
-x,1/2-y,1/2+z
x,-y,-z
-x,1/2+y,1/2-z
-x,-y,-z
x,1/2+y,1/2-z
-x,y,z
x,1/2-y,1/2+z
1/2+x,1/2+y,z
1/2-x,-y,1/2+z
1/2+x,1/2-y,-z
1/2-x,y,1/2-z
1/2-x,1/2-y,-z
1/2+x,y,1/2-z
1/2-x,1/2+y,z
1/2+x,-y,1/2+z
loop_
_atom_site_type_symbol
_atom_site_label
_atom_site_fract_x
_atom_site_fract_y
_atom_site_fract_z
Si Si1 0.500000 0.432934 0.612751
Si Si2 0.346472 0.111867 0.192117
Si Si3 0.000000 0.661192 0.952847
Si Si4 0.806344 0.540279 0.356208
Si Si5 0.698630 0.694234 0.889061
Si Si6 0.151250 0.230335 0.053896
O O1 0.572056 0.415099 0.663555
O O2 0.500000 0.352519 0.543270
O O3 0.500000 0.550237 0.585690
O O4 0.283733 0.047730 0.145659
O O5 0.342637 0.083670 0.279817
O O6 0.327910 0.234242 0.180924
O O7 0.929099 0.725827 0.923950
O O8 0.828453 0.421524 0.370519
O O9 0.839611 0.609208 0.424093
O O10 0.787870 0.700262 0.901276
O O11 0.659894 0.739666 0.963983
#
# Coordination Sequence:
#
# PCOD8263493 Si02
#       6
#     8  16   8  16  16  16
#     4  11  22  39  60  87 119 161 195 243 301 358
#     4  10  22  39  59  87 120 158 200 244 298 356
#     4  11  22  37  61  88 121 152 198 251 299 353
#     4  10  22  38  62  89 118 158 203 246 300 358
#     4  10  20  39  62  86 121 156 200 250 295 355
#     4  10  21  38  61  91 117 156 201 249 298 358
#
# _framework density 19.63137
#
# number of rings (size 3 to 8) (size 9 to 14) (size 15 to 20)
#    0.000    1.800    2.000    1.800    0.000    8.800 
#    0.000    5.000    0.000    0.000    0.000    0.000 
#    0.000    0.000    0.000    0.000    0.000    0.000 
#
# Total GULP energy -496092.316541 kJ/mol
# GULP energy per Si atom -12402.307914 kJ/mol
# Density = 1.958669 g / cm^3
# Si number density = 19.631370 Si / 1000 Ang^3
#
#
#
# Elastic Constant Matrix: (Units=GPa)
#
#
# Indices 1 2 3 4 5 6 
#
# 1 146.4467 28.0433 40.1103 0.0000 0.0000 0.0000
# 2 28.0433 109.0527 33.5909 0.0000 0.0000 0.0000
# 3 40.1103 33.5909 75.7582 0.0000 0.0000 0.0000
# 4 0.0000 0.0000 0.0000 24.0152 0.0000 0.0000
# 5 0.0000 0.0000 0.0000 0.0000 22.5499 0.0000
# 6 0.0000 0.0000 0.0000 0.0000 0.0000 16.9515
#
#
#
# Elastic Compliance Matrix: (Units=1/GPa)
#
#
# Indices 1 2 3 4 5 6 
#
# 1 0.008058 -0.000878 -0.003877 0.000000 0.000000 0.000000
# 2 -0.000878 0.010716 -0.004287 0.000000 0.000000 0.000000
# 3 -0.003877 -0.004287 0.017153 0.000000 0.000000 0.000000
# 4 0.000000 0.000000 0.000000 0.041640 0.000000 0.000000
# 5 0.000000 0.000000 0.000000 0.000000 0.044346 0.000000
# 6 0.000000 0.000000 0.000000 0.000000 0.000000 0.058992
#
#
# Mechanical properties :
#
#
# Convention : Reuss Voigt Hill
#
# Bulk Modulus (GPa) = 56.04064 59.41626 57.72845
# Shear Modulus (GPa) = 24.39762 28.00419 26.20090
#
# Velocity S-wave (km/s) = 3.52914 3.78100 3.65724
# Velocity P-wave (km/s) = 6.72420 7.02802 6.87779
#
# Compressibility (1/GPa) = 0.01784419
#
# Stress axis : x y z
#
# Youngs Moduli (GPa) = 124.09258 93.31818 58.29748
#
# Poissons Ratio (x) = 0.08193 0.22604
# Poissons Ratio (y) = 0.10895 0.24990
# Poissons Ratio (z) = 0.48114 0.40002
#
# Static dielectric constant tensor:
#      x y z
#    x 3.507050 0.000000 0.000000 
#    y 0.000000 3.478370 0.000000 
#    z 0.000000 0.000000 3.478090 
# 
# 
# High freq. dielectric constant tensor:
#      x y z
#    x 1.757750 0.000000 0.000000 
#    y 0.000000 1.767020 0.000000 
#    z 0.000000 0.000000 1.762360 
# 
# From -- ./inp_files/39979.got.cif
#   From: 2010.03.12/outbox.cif.g09.slc.cpg/sg64_20_cif.got.tgz:39979.got - 2010.04.10 20:19:32.
