data_PCOD8263844
_publ_section_title
;
Structure prediction by ZEFSAII (Michael W. Deem and Ramdas Pophale) SiO2 
 PCOD8263844
Probable space group: C M C A
;
_chemical_formula_sum "Si O2"
_cell_formula_units_Z 96
_cell_length_a 8.851717
_cell_length_b 24.849628
_cell_length_c 23.339054
_cell_angle_alpha 90.000000
_cell_angle_beta 90.000000
_cell_angle_gamma 90.000000
_cell_volume 5133.702069
_symmetry_space_group_name_H-M "C M C A"
_symmetry_group_IT_number 64
_symmetry_cell_setting 'orthorhombic'
loop_
_space_group_symop_operation_xyz
x,y,z
-x,1/2-y,1/2+z
x,-y,-z
-x,1/2+y,1/2-z
-x,-y,-z
x,1/2+y,1/2-z
-x,y,z
x,1/2-y,1/2+z
1/2+x,1/2+y,z
1/2-x,-y,1/2+z
1/2+x,1/2-y,-z
1/2-x,y,1/2-z
1/2-x,1/2-y,-z
1/2+x,y,1/2-z
1/2-x,1/2+y,z
1/2+x,-y,1/2+z
loop_
_atom_site_type_symbol
_atom_site_label
_atom_site_fract_x
_atom_site_fract_y
_atom_site_fract_z
Si Si1 0.323887 0.816416 0.309367
Si Si2 0.677128 0.598808 0.611275
Si Si3 0.822878 0.807879 0.690282
Si Si4 0.321611 0.499108 0.689749
Si Si5 0.677453 0.099539 0.372892
Si Si6 0.823747 0.061620 0.000634
O O1 0.500000 0.827521 0.303885
O O2 0.250000 0.835552 0.250000
O O3 0.257463 0.849756 0.361692
O O4 0.287301 0.754304 0.322101
O O5 0.500000 0.608488 0.613919
O O6 0.725219 0.544798 0.644483
O O7 0.729933 0.594748 0.545896
O O8 0.750000 0.826285 0.750000
O O9 0.745004 0.841720 0.639796
O O10 0.000000 0.819739 0.692482
O O11 0.500000 0.493848 0.696456
O O12 0.250000 0.515834 0.750000
O O13 0.255440 0.442699 0.669245
O O14 0.500000 0.098239 0.361258
O O15 0.716310 0.086705 0.438305
O O16 0.000000 0.065951 0.985662
O O17 0.769886 0.000000 0.000000
#
# Coordination Sequence:
#
# PCOD8263844 Si02
#       6
#    16  16  16  16  16  16
#     4  10  21  38  61  86 116 152 190 234 286 342
#     4  11  23  37  58  86 115 150 191 237 285 337
#     4  10  21  38  60  86 116 151 189 234 286 340
#     4  11  23  36  53  81 115 148 183 229 283 338
#     4  11  22  37  59  84 112 149 190 234 284 338
#     4  10  21  39  60  82 112 153 194 235 286 341
#
# _framework density 18.699954999999999
#
# number of rings (size 3 to 8) (size 9 to 14) (size 15 to 20)
#    0.000    1.500    1.667    3.500    0.000    7.000 
#    0.000    0.833    0.000    0.000    0.000    0.000 
#    0.000    0.000    0.000    0.000    0.000    0.000 
#
# Total GULP energy -595557.762451 kJ/mol
# GULP energy per Si atom -12407.453384 kJ/mol
# Density = 1.865739 g / cm^3
# Si number density = 18.699955 Si / 1000 Ang^3
#
#
#
# Elastic Constant Matrix: (Units=GPa)
#
#
# Indices 1 2 3 4 5 6 
#
# 1 89.0737 48.5291 54.8767 0.0000 0.0000 0.0000
# 2 48.5291 95.1905 57.2502 0.0000 0.0000 0.0000
# 3 54.8767 57.2502 115.6284 0.0000 0.0000 0.0000
# 4 0.0000 0.0000 0.0000 29.5146 0.0000 0.0000
# 5 0.0000 0.0000 0.0000 0.0000 36.4076 0.0000
# 6 0.0000 0.0000 0.0000 0.0000 0.0000 26.7477
#
#
#
# Elastic Compliance Matrix: (Units=1/GPa)
#
#
# Indices 1 2 3 4 5 6 
#
# 1 0.017792 -0.005685 -0.005629 0.000000 0.000000 0.000000
# 2 -0.005685 0.016777 -0.005608 0.000000 0.000000 0.000000
# 3 -0.005629 -0.005608 0.014097 0.000000 0.000000 0.000000
# 4 0.000000 0.000000 0.000000 0.033882 0.000000 0.000000
# 5 0.000000 0.000000 0.000000 0.000000 0.027467 0.000000
# 6 0.000000 0.000000 0.000000 0.000000 0.000000 0.037386
#
#
# Mechanical properties :
#
#
# Convention : Reuss Voigt Hill
#
# Bulk Modulus (GPa) = 67.47546 69.02273 68.24910
# Shear Modulus (GPa) = 26.85495 27.81642 27.33569
#
# Velocity S-wave (km/s) = 3.79370 3.86101 3.82750
# Velocity P-wave (km/s) = 7.43983 7.54104 7.49061
#
# Compressibility (1/GPa) = 0.01482020
#
# Stress axis : x y z
#
# Youngs Moduli (GPa) = 56.20493 59.60704 70.93787
#
# Poissons Ratio (x) = 0.33887 0.39933
# Poissons Ratio (y) = 0.31952 0.39785
# Poissons Ratio (z) = 0.31639 0.33430
#
# Static dielectric constant tensor:
#      x y z
#    x 3.495760 0.000000 0.000000 
#    y 0.000000 3.434760 0.000000 
#    z 0.000000 0.000000 3.401680 
# 
# 
# High freq. dielectric constant tensor:
#      x y z
#    x 1.739780 0.000000 0.000000 
#    y 0.000000 1.727060 0.000000 
#    z 0.000000 0.000000 1.726230 
# 
# From -- ./inp_files/37015.got.cif
#   From: 2010.03.12/outbox.cif.g09.slc.cpg/sg64_19_cif.got.tgz:37015.got - 2010.04.10 20:19:32.
