data_PCOD8263738
_publ_section_title
;
Structure prediction by ZEFSAII (Michael W. Deem and Ramdas Pophale) SiO2 
 PCOD8263738
Probable space group: C M C A
;
_chemical_formula_sum "Si O2"
_cell_formula_units_Z 96
_cell_length_a 10.647856
_cell_length_b 18.038298
_cell_length_c 23.731004
_cell_angle_alpha 90.000000
_cell_angle_beta 90.000000
_cell_angle_gamma 90.000000
_cell_volume 4557.994944
_symmetry_space_group_name_H-M "C M C A"
_symmetry_group_IT_number 64
_symmetry_cell_setting 'orthorhombic'
loop_
_space_group_symop_operation_xyz
x,y,z
-x,1/2-y,1/2+z
x,-y,-z
-x,1/2+y,1/2-z
-x,-y,-z
x,1/2+y,1/2-z
-x,y,z
x,1/2-y,1/2+z
1/2+x,1/2+y,z
1/2-x,-y,1/2+z
1/2+x,1/2-y,-z
1/2-x,y,1/2-z
1/2-x,1/2-y,-z
1/2+x,y,1/2-z
1/2-x,1/2+y,z
1/2+x,-y,1/2+z
loop_
_atom_site_type_symbol
_atom_site_label
_atom_site_fract_x
_atom_site_fract_y
_atom_site_fract_z
Si Si1 0.860515 0.732741 0.104550
Si Si2 0.857596 0.893303 0.522362
Si Si3 0.227265 0.114407 0.601984
Si Si4 0.280031 0.891109 0.812667
Si Si5 0.142099 0.967243 0.906780
Si Si6 0.633970 0.548544 0.709778
O O1 0.833296 0.688906 0.046543
O O2 0.769303 0.801503 0.109470
O O3 0.847130 0.676746 0.156834
O O4 0.000000 0.765117 0.104531
O O5 0.849604 0.892423 0.455523
O O6 0.749768 0.946501 0.547764
O O7 0.000000 0.919873 0.539192
O O8 0.136046 0.098509 0.654049
O O9 0.341758 0.055039 0.604893
O O10 0.250000 0.862835 0.750000
O O11 0.159521 0.918947 0.849466
O O12 0.369321 0.962507 0.808243
O O13 0.000000 0.952851 0.929337
O O14 0.500000 0.565070 0.740179
O O15 0.750000 0.568325 0.750000
#
# Coordination Sequence:
#
# PCOD8263738 Si02
#       6
#    16  16  16  16  16  16
#     4  10  21  37  57  85 119 155 194 238 291 349
#     4  10  22  41  63  85 115 157 201 242 289 351
#     4  11  22  36  59  88 121 155 193 241 298 353
#     4   9  20  38  62  85 114 156 201 242 287 346
#     4  10  22  38  59  90 122 153 196 248 298 348
#     4  10  22  40  63  89 117 152 197 247 296 348
#
# _framework density 21.061893999999999
#
# number of rings (size 3 to 8) (size 9 to 14) (size 15 to 20)
#    0.000    2.000    0.000    2.500    0.000   15.333 
#    0.000    8.333    0.000    0.000    0.000    0.000 
#    0.000    0.000    0.000    0.000    0.000    0.000 
#
# Total GULP energy -594878.857421 kJ/mol
# GULP energy per Si atom -12393.309530 kJ/mol
# Density = 2.101396 g / cm^3
# Si number density = 21.061894 Si / 1000 Ang^3
#
#
#
# Elastic Constant Matrix: (Units=GPa)
#
#
# Indices 1 2 3 4 5 6 
#
# 1 148.7331 31.7287 47.2329 0.0000 0.0000 0.0000
# 2 31.7287 82.9211 27.5279 0.0000 0.0000 0.0000
# 3 47.2329 27.5279 135.5614 0.0000 0.0000 0.0000
# 4 0.0000 0.0000 0.0000 14.5489 0.0000 0.0000
# 5 0.0000 0.0000 0.0000 0.0000 3.6073 0.0000
# 6 0.0000 0.0000 0.0000 0.0000 0.0000 4.6077
#
#
#
# Elastic Compliance Matrix: (Units=1/GPa)
#
#
# Indices 1 2 3 4 5 6 
#
# 1 0.007940 -0.002273 -0.002305 0.000000 0.000000 0.000000
# 2 -0.002273 0.013582 -0.001966 0.000000 0.000000 0.000000
# 3 -0.002305 -0.001966 0.008579 0.000000 0.000000 0.000000
# 4 0.000000 0.000000 0.000000 0.068734 0.000000 0.000000
# 5 0.000000 0.000000 0.000000 0.000000 0.277217 0.000000
# 6 0.000000 0.000000 0.000000 0.000000 0.000000 0.217026
#
#
# Mechanical properties :
#
#
# Convention : Reuss Voigt Hill
#
# Bulk Modulus (GPa) = 58.77777 64.46607 61.62192
# Shear Modulus (GPa) = 8.17211 21.93453 15.05332
#
# Velocity S-wave (km/s) = 1.97192 3.23062 2.67632
# Velocity P-wave (km/s) = 5.75781 6.67759 6.23469
#
# Compressibility (1/GPa) = 0.01701323
#
# Stress axis : x y z
#
# Youngs Moduli (GPa) = 125.93884 73.62626 116.56227
#
# Poissons Ratio (x) = 0.16736 0.26868
# Poissons Ratio (y) = 0.28627 0.22917
# Poissons Ratio (z) = 0.29029 0.14475
#
# Static dielectric constant tensor:
#      x y z
#    x 3.623000 0.000000 0.000000 
#    y 0.000000 3.683280 0.000000 
#    z 0.000000 0.000000 3.919160 
# 
# 
# High freq. dielectric constant tensor:
#      x y z
#    x 1.816530 0.000000 0.000000 
#    y 0.000000 1.814720 0.000000 
#    z 0.000000 0.000000 1.831200 
# 
# From -- ./inp_files/44236.got.cif
#   From: 2010.03.12/outbox.cif.g09.slc.cpg/sg64_23_cif.got.tgz:44236.got - 2010.04.10 20:19:32.
