data_PCOD8263453
_publ_section_title
;
Structure prediction by ZEFSAII (Michael W. Deem and Ramdas Pophale) SiO2 
 PCOD8263453
Probable space group: C M C A
;
_chemical_formula_sum "Si O2"
_cell_formula_units_Z 88
_cell_length_a 25.690949
_cell_length_b 16.453160
_cell_length_c 9.458373
_cell_angle_alpha 90.000000
_cell_angle_beta 90.000000
_cell_angle_gamma 90.000000
_cell_volume 3998.028677
_symmetry_space_group_name_H-M "C M C A"
_symmetry_group_IT_number 64
_symmetry_cell_setting 'orthorhombic'
loop_
_space_group_symop_operation_xyz
x,y,z
-x,1/2-y,1/2+z
x,-y,-z
-x,1/2+y,1/2-z
-x,-y,-z
x,1/2+y,1/2-z
-x,y,z
x,1/2-y,1/2+z
1/2+x,1/2+y,z
1/2-x,-y,1/2+z
1/2+x,1/2-y,-z
1/2-x,y,1/2-z
1/2-x,1/2-y,-z
1/2+x,y,1/2-z
1/2-x,1/2+y,z
1/2+x,-y,1/2+z
loop_
_atom_site_type_symbol
_atom_site_label
_atom_site_fract_x
_atom_site_fract_y
_atom_site_fract_z
Si Si1 0.684202 0.862280 0.514035
Si Si2 0.586995 0.958797 0.632973
Si Si3 0.166118 0.562452 0.773876
Si Si4 0.250000 0.434418 0.750000
Si Si5 0.558354 0.302696 0.717026
Si Si6 0.875301 0.794340 0.440352
O O1 0.636916 0.915271 0.568802
O O2 0.695864 0.891899 0.355340
O O3 0.669260 0.767856 0.510628
O O4 0.732233 0.877339 0.619947
O O5 0.552560 0.891748 0.711978
O O6 0.556069 0.000000 0.500000
O O7 0.608233 0.028819 0.737096
O O8 0.203589 0.488412 0.817042
O O9 0.156159 0.624419 0.901584
O O10 0.500000 0.267852 0.698164
O O11 0.592132 0.239637 0.807646
O O12 0.584794 0.312890 0.565536
#
# Coordination Sequence:
#
# PCOD8263453 Si02
#       6
#    16  16  16   8  16  16
#     4   9  19  40  61  89 130 168 213 259 326 398
#     4   8  18  38  64  88 129 174 208 265 333 389
#     4  10  20  41  62  91 129 170 217 261 330 390
#     4  10  20  38  64  94 118 168 220 272 308 398
#     4  11  23  41  66  97 128 171 230 273 323 391
#     4  11  22  42  65  93 133 179 208 275 338 379
#
# _framework density 22.010847999999999
#
# number of rings (size 3 to 8) (size 9 to 14) (size 15 to 20)
#    0.000    2.182    1.818    2.182    0.000    1.818 
#   19.636    4.545    0.000    0.000    0.000    0.000 
#    0.000    0.000    0.000    0.000    0.000    0.000 
#
# Total GULP energy -545520.570423 kJ/mol
# GULP energy per Si atom -12398.194782 kJ/mol
# Density = 2.196075 g / cm^3
# Si number density = 22.010848 Si / 1000 Ang^3
#
#
#
# Elastic Constant Matrix: (Units=GPa)
#
#
# Indices 1 2 3 4 5 6 
#
# 1 75.0246 15.6823 26.7784 0.0000 0.0000 0.0000
# 2 15.6823 83.1736 8.8733 0.0000 0.0000 0.0000
# 3 26.7784 8.8733 86.2796 0.0000 0.0000 0.0000
# 4 0.0000 0.0000 0.0000 30.9309 0.0000 0.0000
# 5 0.0000 0.0000 0.0000 0.0000 -7.6291 0.0000
# 6 0.0000 0.0000 0.0000 0.0000 0.0000 19.8704
#
#
#
# Elastic Compliance Matrix: (Units=1/GPa)
#
#
# Indices 1 2 3 4 5 6 
#
# 1 0.015460 -0.002430 -0.004549 0.000000 0.000000 0.000000
# 2 -0.002430 0.012538 -0.000535 0.000000 0.000000 0.000000
# 3 -0.004549 -0.000535 0.013057 0.000000 0.000000 0.000000
# 4 0.000000 0.000000 0.000000 0.032330 0.000000 0.000000
# 5 0.000000 0.000000 0.000000 0.000000 -0.131077 0.000000
# 6 0.000000 0.000000 0.000000 0.000000 0.000000 0.050326
#
#
# Mechanical properties :
#
#
# Convention : Reuss Voigt Hill
#
# Bulk Modulus (GPa) = 38.41969 38.57179 38.49574
# Shear Modulus (GPa) = 306.03152 21.51068 163.77110
#
# Velocity S-wave (km/s) = 11.80417 3.12953 8.63518
# Velocity P-wave (km/s) = 14.25754 5.53360 10.81430
#
# Compressibility (1/GPa) = 0.02602832
#
# Stress axis : x y z
#
# Youngs Moduli (GPa) = 64.68163 79.75571 76.58728
#
# Poissons Ratio (x) = 0.19379 0.34836
# Poissons Ratio (y) = 0.15716 0.04100
# Poissons Ratio (z) = 0.29420 0.04270
#
# Static dielectric constant tensor:
#      x y z
#    x 3.645050 0.000000 0.000000 
#    y 0.000000 4.374320 0.000000 
#    z 0.000000 0.000000 4.064970 
# 
# 
# High freq. dielectric constant tensor:
#      x y z
#    x 1.842600 0.000000 0.000000 
#    y 0.000000 1.867990 0.000000 
#    z 0.000000 0.000000 1.865520 
# 
# From -- ./inp_files/11063.got.cif
#   From: 2010.03.12/outbox.cif.g09.slc.cpg/sg64_6_cif.got.tgz:11063.got - 2010.04.10 20:19:32.
