data_PCOD8263018
_publ_section_title
;
Structure prediction by ZEFSAII (Michael W. Deem and Ramdas Pophale) SiO2 
 PCOD8263018
Probable space group: C M C A
;
_chemical_formula_sum "Si O2"
_cell_formula_units_Z 112
_cell_length_a 14.345911
_cell_length_b 13.952717
_cell_length_c 28.107183
_cell_angle_alpha 90.000000
_cell_angle_beta 90.000000
_cell_angle_gamma 90.000000
_cell_volume 5626.058441
_symmetry_space_group_name_H-M "C M C A"
_symmetry_group_IT_number 64
_symmetry_cell_setting 'orthorhombic'
loop_
_space_group_symop_operation_xyz
x,y,z
-x,1/2-y,1/2+z
x,-y,-z
-x,1/2+y,1/2-z
-x,-y,-z
x,1/2+y,1/2-z
-x,y,z
x,1/2-y,1/2+z
1/2+x,1/2+y,z
1/2-x,-y,1/2+z
1/2+x,1/2-y,-z
1/2-x,y,1/2-z
1/2-x,1/2-y,-z
1/2+x,y,1/2-z
1/2-x,1/2+y,z
1/2+x,-y,1/2+z
loop_
_atom_site_type_symbol
_atom_site_label
_atom_site_fract_x
_atom_site_fract_y
_atom_site_fract_z
Si Si1 0.109863 0.366007 0.389215
Si Si2 0.257882 0.001727 0.445019
Si Si3 0.243894 0.796871 0.896511
Si Si4 0.893395 0.953484 0.305819
Si Si5 0.607831 0.865181 0.093510
Si Si6 0.892235 0.340660 0.282576
Si Si7 0.204728 0.144556 0.297997
O O1 0.155407 0.453742 0.417478
O O2 0.161486 0.266226 0.401848
O O3 0.126537 0.390337 0.333483
O O4 0.000000 0.355994 0.401151
O O5 0.160988 0.945789 0.436837
O O6 0.283914 0.000000 0.500000
O O7 0.244679 0.110776 0.429161
O O8 0.154508 0.738224 0.915585
O O9 0.226862 0.824384 0.841007
O O10 0.878554 0.885037 0.350736
O O11 0.844956 0.902759 0.259902
O O12 0.000000 0.971750 0.294059
O O13 0.853505 0.056822 0.319140
O O14 0.500000 0.863430 0.077853
O O15 0.857221 0.232839 0.281383
O O16 0.000000 0.333170 0.271225
O O17 0.250000 0.104655 0.250000
#
# Coordination Sequence:
#
# PCOD8263018 Si02
#       7
#    16  16  16  16  16  16  16
#     4   9  21  40  63  88 119 159 199 242 300 363
#     4  11  24  42  62  89 122 153 199 260 314 364
#     4  10  22  40  60  89 120 155 199 248 296 354
#     4  10  20  35  56  83 117 156 195 240 286 348
#     4  10  22  41  63  88 121 159 201 248 302 359
#     4   9  19  36  54  80 117 152 195 240 282 347
#     4  11  21  31  56  85 115 158 193 235 287 355
#
# _framework density 19.907364999999999
#
# number of rings (size 3 to 8) (size 9 to 14) (size 15 to 20)
#    0.000    2.000    1.429    1.286    2.000    6.286 
#    0.000    2.143    0.000    0.000    0.000    0.000 
#    0.000    0.000    0.000    0.000    0.000    0.000 
#
# Total GULP energy -694341.852438 kJ/mol
# GULP energy per Si atom -12398.961651 kJ/mol
# Density = 1.986206 g / cm^3
# Si number density = 19.907365 Si / 1000 Ang^3
#
#
#
# Elastic Constant Matrix: (Units=GPa)
#
#
# Indices 1 2 3 4 5 6 
#
# 1 73.9304 28.6452 15.4795 0.0000 0.0000 0.0000
# 2 28.6452 116.9566 23.0920 0.0000 0.0000 0.0000
# 3 15.4795 23.0920 72.2129 0.0000 0.0000 0.0000
# 4 0.0000 0.0000 0.0000 21.0622 0.0000 0.0000
# 5 0.0000 0.0000 0.0000 0.0000 21.3468 0.0000
# 6 0.0000 0.0000 0.0000 0.0000 0.0000 20.3094
#
#
#
# Elastic Compliance Matrix: (Units=1/GPa)
#
#
# Indices 1 2 3 4 5 6 
#
# 1 0.015270 -0.003302 -0.002217 0.000000 0.000000 0.000000
# 2 -0.003302 0.009840 -0.002439 0.000000 0.000000 0.000000
# 3 -0.002217 -0.002439 0.015103 0.000000 0.000000 0.000000
# 4 0.000000 0.000000 0.000000 0.047478 0.000000 0.000000
# 5 0.000000 0.000000 0.000000 0.000000 0.046845 0.000000
# 6 0.000000 0.000000 0.000000 0.000000 0.000000 0.049238
#
#
# Mechanical properties :
#
#
# Convention : Reuss Voigt Hill
#
# Bulk Modulus (GPa) = 41.15760 44.17037 42.66399
# Shear Modulus (GPa) = 24.06258 25.60255 24.83257
#
# Velocity S-wave (km/s) = 3.48045 3.59009 3.53569
# Velocity P-wave (km/s) = 6.07213 6.27863 6.17624
#
# Compressibility (1/GPa) = 0.02429685
#
# Stress axis : x y z
#
# Youngs Moduli (GPa) = 65.48807 101.62091 66.21139
#
# Poissons Ratio (x) = 0.33557 0.14681
# Poissons Ratio (y) = 0.21625 0.16148
# Poissons Ratio (z) = 0.14521 0.24784
#
# Static dielectric constant tensor:
#      x y z
#    x 3.599920 0.000000 0.000000 
#    y 0.000000 3.642490 0.000000 
#    z 0.000000 0.000000 3.638740 
# 
# 
# High freq. dielectric constant tensor:
#      x y z
#    x 1.769900 0.000000 0.000000 
#    y 0.000000 1.784340 0.000000 
#    z 0.000000 0.000000 1.769500 
# 
# From -- ./inp_files/45267.got.cif
#   From: 2010.03.12/outbox.cif.g09.slc.cpg/sg64_23_cif.got.tgz:45267.got - 2010.04.10 20:19:32.
