data_PCOD8263734
_publ_section_title
;
Structure prediction by ZEFSAII (Michael W. Deem and Ramdas Pophale) SiO2 
 PCOD8263734
Probable space group: C M C A
;
_chemical_formula_sum "Si O2"
_cell_formula_units_Z 64
_cell_length_a 9.198751
_cell_length_b 10.014110
_cell_length_c 35.111076
_cell_angle_alpha 90.000000
_cell_angle_beta 90.000000
_cell_angle_gamma 90.000000
_cell_volume 3234.337675
_symmetry_space_group_name_H-M "C M C A"
_symmetry_group_IT_number 64
_symmetry_cell_setting 'orthorhombic'
loop_
_space_group_symop_operation_xyz
x,y,z
-x,1/2-y,1/2+z
x,-y,-z
-x,1/2+y,1/2-z
-x,-y,-z
x,1/2+y,1/2-z
-x,y,z
x,1/2-y,1/2+z
1/2+x,1/2+y,z
1/2-x,-y,1/2+z
1/2+x,1/2-y,-z
1/2-x,y,1/2-z
1/2-x,1/2-y,-z
1/2+x,y,1/2-z
1/2-x,1/2+y,z
1/2+x,-y,1/2+z
loop_
_atom_site_type_symbol
_atom_site_label
_atom_site_fract_x
_atom_site_fract_y
_atom_site_fract_z
Si Si1 0.670813 0.523429 0.957363
Si Si2 0.332642 0.260647 0.169517
Si Si3 0.669297 0.291876 0.583231
Si Si4 0.331185 0.969077 0.711552
O O1 0.500000 0.498353 0.954798
O O2 0.712946 0.672764 0.945235
O O3 0.744158 0.422940 0.928085
O O4 0.729817 0.500000 0.000000
O O5 0.500000 0.218652 0.175690
O O6 0.285643 0.249002 0.125737
O O7 0.306931 0.413717 0.181090
O O8 0.232636 0.167522 0.195228
O O9 0.500000 0.324355 0.580354
O O10 0.500000 0.946142 0.720640
O O11 0.250000 0.010310 0.750000
#
# Coordination Sequence:
#
# PCOD8263734 Si02
#       4
#    16  16  16  16
#     4  10  21  37  57  83 115 149 187 232 280 331
#     4  10  22  39  58  83 114 147 186 231 277 329
#     4  10  21  37  57  83 114 147 187 232 276 329
#     4  11  23  39  60  85 114 148 186 229 278 332
#
# _framework density 19.787668
#
# number of rings (size 3 to 8) (size 9 to 14) (size 15 to 20)
#    0.000    1.750    0.000    3.750    0.000    8.500 
#    0.000    0.000    0.000    0.000    0.000    0.000 
#    0.000    0.000    0.000    0.000    0.000    0.000 
#
# Total GULP energy -397016.841640 kJ/mol
# GULP energy per Si atom -12406.776301 kJ/mol
# Density = 1.974263 g / cm^3
# Si number density = 19.787668 Si / 1000 Ang^3
#
#
#
# Elastic Constant Matrix: (Units=GPa)
#
#
# Indices 1 2 3 4 5 6 
#
# 1 62.4531 29.4541 26.3240 0.0000 0.0000 0.0000
# 2 29.4541 64.5226 3.5503 0.0000 0.0000 0.0000
# 3 26.3240 3.5503 88.1838 0.0000 0.0000 0.0000
# 4 0.0000 0.0000 0.0000 42.5901 0.0000 0.0000
# 5 0.0000 0.0000 0.0000 0.0000 28.1527 0.0000
# 6 0.0000 0.0000 0.0000 0.0000 0.0000 26.1438
#
#
#
# Elastic Compliance Matrix: (Units=1/GPa)
#
#
# Indices 1 2 3 4 5 6 
#
# 1 0.023769 -0.010483 -0.006673 0.000000 0.000000 0.000000
# 2 -0.010483 0.020156 0.002318 0.000000 0.000000 0.000000
# 3 -0.006673 0.002318 0.013239 0.000000 0.000000 0.000000
# 4 0.000000 0.000000 0.000000 0.023480 0.000000 0.000000
# 5 0.000000 0.000000 0.000000 0.000000 0.035521 0.000000
# 6 0.000000 0.000000 0.000000 0.000000 0.000000 0.038250
#
#
# Mechanical properties :
#
#
# Convention : Reuss Voigt Hill
#
# Bulk Modulus (GPa) = 36.38102 37.09070 36.73586
# Shear Modulus (GPa) = 25.87276 29.76606 27.81941
#
# Velocity S-wave (km/s) = 3.61989 3.88270 3.75360
# Velocity P-wave (km/s) = 5.99142 6.23583 6.11484
#
# Compressibility (1/GPa) = 0.02748686
#
# Stress axis : x y z
#
# Youngs Moduli (GPa) = 42.07189 49.61214 75.53618
#
# Poissons Ratio (x) = 0.52009 0.50407
# Poissons Ratio (y) = 0.44104 -0.17508
# Poissons Ratio (z) = 0.28076 -0.11499
#
# Static dielectric constant tensor:
#      x y z
#    x 3.543370 0.000000 0.000000 
#    y 0.000000 3.513870 0.000000 
#    z 0.000000 0.000000 3.836880 
# 
# 
# High freq. dielectric constant tensor:
#      x y z
#    x 1.766640 0.000000 0.000000 
#    y 0.000000 1.779280 0.000000 
#    z 0.000000 0.000000 1.787460 
# 
# From -- ./inp_files/51534.got.cif
#   From: 2010.03.12/outbox.cif.g09.slc.cpg/sg64_26_cif.got.tgz:51534.got - 2010.04.10 20:19:32.
