data_PCOD8263960
_publ_section_title
;
Structure prediction by ZEFSAII (Michael W. Deem and Ramdas Pophale) SiO2 
 PCOD8263960
Probable space group: C M C A
;
_chemical_formula_sum "Si O2"
_cell_formula_units_Z 72
_cell_length_a 9.538908
_cell_length_b 14.704855
_cell_length_c 24.074039
_cell_angle_alpha 90.000000
_cell_angle_beta 90.000000
_cell_angle_gamma 90.000000
_cell_volume 3376.823538
_symmetry_space_group_name_H-M "C M C A"
_symmetry_group_IT_number 64
_symmetry_cell_setting 'orthorhombic'
loop_
_space_group_symop_operation_xyz
x,y,z
-x,1/2-y,1/2+z
x,-y,-z
-x,1/2+y,1/2-z
-x,-y,-z
x,1/2+y,1/2-z
-x,y,z
x,1/2-y,1/2+z
1/2+x,1/2+y,z
1/2-x,-y,1/2+z
1/2+x,1/2-y,-z
1/2-x,y,1/2-z
1/2-x,1/2-y,-z
1/2+x,y,1/2-z
1/2-x,1/2+y,z
1/2+x,-y,1/2+z
loop_
_atom_site_type_symbol
_atom_site_label
_atom_site_fract_x
_atom_site_fract_y
_atom_site_fract_z
Si Si1 0.844708 0.812489 0.963071
Si Si2 0.758459 0.000000 0.000000
Si Si3 0.343681 0.337617 0.638505
Si Si4 0.338611 0.341764 0.196581
Si Si5 0.155911 0.961894 0.378831
O O1 0.779065 0.810295 0.902635
O O2 0.000000 0.770952 0.959503
O O3 0.750000 0.750000 0.000000
O O4 0.855397 0.913451 0.988111
O O5 0.666004 0.980430 0.054963
O O6 0.500000 0.325993 0.611641
O O7 0.330490 0.267868 0.689999
O O8 0.323494 0.443187 0.655252
O O9 0.500000 0.373404 0.203171
O O10 0.250000 0.371816 0.250000
O O11 0.272577 0.391070 0.142430
O O12 0.000000 0.923057 0.367208
#
# Coordination Sequence:
#
# PCOD8263960 Si02
#       5
#    16   8  16  16  16
#     4  11  22  35  55  83 117 156 196 238 286 343
#     4  10  22  38  60  90 126 164 200 242 296 362
#     4   9  21  40  59  82 114 150 191 239 292 349
#     4  11  24  42  63  87 117 155 199 250 304 360
#     4  10  21  39  63  92 124 159 200 247 300 359
#
# _framework density 21.321812999999999
#
# number of rings (size 3 to 8) (size 9 to 14) (size 15 to 20)
#    0.000    1.778    0.000    3.333    0.000   13.333 
#    0.000    2.222    0.000    0.000    0.000    0.000 
#    0.000    0.000    0.000    0.000    0.000    0.000 
#
# Total GULP energy -446249.422875 kJ/mol
# GULP energy per Si atom -12395.817302 kJ/mol
# Density = 2.127328 g / cm^3
# Si number density = 21.321813 Si / 1000 Ang^3
#
#
#
# Elastic Constant Matrix: (Units=GPa)
#
#
# Indices 1 2 3 4 5 6 
#
# 1 168.3133 37.1541 39.7737 0.0000 0.0000 0.0000
# 2 37.1541 85.5531 30.4284 0.0000 0.0000 0.0000
# 3 39.7737 30.4284 75.2619 0.0000 0.0000 0.0000
# 4 0.0000 0.0000 0.0000 30.4879 0.0000 0.0000
# 5 0.0000 0.0000 0.0000 0.0000 28.8399 0.0000
# 6 0.0000 0.0000 0.0000 0.0000 0.0000 26.2288
#
#
#
# Elastic Compliance Matrix: (Units=1/GPa)
#
#
# Indices 1 2 3 4 5 6 
#
# 1 0.007081 -0.002037 -0.002918 0.000000 0.000000 0.000000
# 2 -0.002037 0.014238 -0.004680 0.000000 0.000000 0.000000
# 3 -0.002918 -0.004680 0.016721 0.000000 0.000000 0.000000
# 4 0.000000 0.000000 0.000000 0.032800 0.000000 0.000000
# 5 0.000000 0.000000 0.000000 0.000000 0.034674 0.000000
# 6 0.000000 0.000000 0.000000 0.000000 0.000000 0.038126
#
#
# Mechanical properties :
#
#
# Convention : Reuss Voigt Hill
#
# Bulk Modulus (GPa) = 53.27860 60.42674 56.85267
# Shear Modulus (GPa) = 29.55669 31.89612 30.72641
#
# Velocity S-wave (km/s) = 3.72723 3.87193 3.80027
# Velocity P-wave (km/s) = 6.60039 6.95636 6.78071
#
# Compressibility (1/GPa) = 0.01876926
#
# Stress axis : x y z
#
# Youngs Moduli (GPa) = 141.23137 70.23591 59.80420
#
# Poissons Ratio (x) = 0.14307 0.17453
# Poissons Ratio (y) = 0.28769 0.27987
# Poissons Ratio (z) = 0.41216 0.32869
#
# Static dielectric constant tensor:
#      x y z
#    x 3.783300 0.000000 0.000000 
#    y 0.000000 4.196740 0.000000 
#    z 0.000000 0.000000 3.511060 
# 
# 
# High freq. dielectric constant tensor:
#      x y z
#    x 1.843800 0.000000 0.000000 
#    y 0.000000 1.847670 0.000000 
#    z 0.000000 0.000000 1.807220 
# 
# From -- ./inp_files/47621.got.cif
#   From: 2010.03.12/outbox.cif.g09.slc.cpg/sg64_24_cif.got.tgz:47621.got - 2010.04.10 20:19:32.
