data_PCOD8263604
_publ_section_title
;
Structure prediction by ZEFSAII (Michael W. Deem and Ramdas Pophale) SiO2 
 PCOD8263604
Probable space group: C M C A
;
_chemical_formula_sum "Si O2"
_cell_formula_units_Z 96
_cell_length_a 24.628441
_cell_length_b 22.406124
_cell_length_c 9.028521
_cell_angle_alpha 90.000000
_cell_angle_beta 90.000000
_cell_angle_gamma 90.000000
_cell_volume 4982.189810
_symmetry_space_group_name_H-M "C M C A"
_symmetry_group_IT_number 64
_symmetry_cell_setting 'orthorhombic'
loop_
_space_group_symop_operation_xyz
x,y,z
-x,1/2-y,1/2+z
x,-y,-z
-x,1/2+y,1/2-z
-x,-y,-z
x,1/2+y,1/2-z
-x,y,z
x,1/2-y,1/2+z
1/2+x,1/2+y,z
1/2-x,-y,1/2+z
1/2+x,1/2-y,-z
1/2-x,y,1/2-z
1/2-x,1/2-y,-z
1/2+x,y,1/2-z
1/2-x,1/2+y,z
1/2+x,-y,1/2+z
loop_
_atom_site_type_symbol
_atom_site_label
_atom_site_fract_x
_atom_site_fract_y
_atom_site_fract_z
Si Si1 0.437987 0.204940 0.040929
Si Si2 0.787843 0.272556 0.625492
Si Si3 0.845727 0.153415 0.650780
Si Si4 0.759281 0.441201 0.078610
Si Si5 0.652906 0.121959 0.520873
Si Si6 0.561607 0.326819 0.873848
O O1 0.500000 0.184325 0.013116
O O2 0.421166 0.198492 0.212889
O O3 0.399265 0.160916 0.948001
O O4 0.431033 0.273703 0.993865
O O5 0.750000 0.303580 0.750000
O O6 0.750000 0.250000 0.500000
O O7 0.818914 0.216123 0.695261
O O8 0.830882 0.315520 0.552712
O O9 0.802086 0.112800 0.561104
O O10 0.861210 0.122892 0.805597
O O11 0.750000 0.454965 0.250000
O O12 0.701922 0.424868 0.997110
O O13 0.782883 0.500000 0.000000
O O14 0.596646 0.114474 0.427872
O O15 0.500000 0.349374 0.868842
#
# Coordination Sequence:
#
# PCOD8263604 Si02
#       6
#    16  16  16  16  16  16
#     4  10  21  34  51  78 113 149 184 222 267 322
#     4  12  21  32  48  78 114 143 176 215 266 329
#     4  11  21  36  54  79 112 144 179 224 272 325
#     4  10  23  41  57  80 109 140 181 227 275 325
#     4  11  22  35  55  79 111 146 179 224 272 324
#     4  10  21  34  50  78 113 148 185 222 265 322
#
# _framework density 19.268636000000001
#
# number of rings (size 3 to 8) (size 9 to 14) (size 15 to 20)
#    0.000    1.333    5.000    1.500    2.333    4.000 
#    0.000    0.000    0.000    1.000    0.000    0.000 
#    0.000    0.000    0.000    0.000    0.000    0.000 
#
# Total GULP energy -594874.170671 kJ/mol
# GULP energy per Si atom -12393.211889 kJ/mol
# Density = 1.922478 g / cm^3
# Si number density = 19.268636 Si / 1000 Ang^3
#
#
#
# Elastic Constant Matrix: (Units=GPa)
#
#
# Indices 1 2 3 4 5 6 
#
# 1 108.1181 23.3290 44.5019 0.0000 0.0000 0.0000
# 2 23.3290 58.7669 10.4875 0.0000 0.0000 0.0000
# 3 44.5019 10.4875 85.5281 0.0000 0.0000 0.0000
# 4 0.0000 0.0000 0.0000 23.6882 0.0000 0.0000
# 5 0.0000 0.0000 0.0000 0.0000 40.2934 0.0000
# 6 0.0000 0.0000 0.0000 0.0000 0.0000 14.1974
#
#
#
# Elastic Compliance Matrix: (Units=1/GPa)
#
#
# Indices 1 2 3 4 5 6 
#
# 1 0.012594 -0.003916 -0.006073 0.000000 0.000000 0.000000
# 2 -0.003916 0.018615 -0.000245 0.000000 0.000000 0.000000
# 3 -0.006073 -0.000245 0.014882 0.000000 0.000000 0.000000
# 4 0.000000 0.000000 0.000000 0.042215 0.000000 0.000000
# 5 0.000000 0.000000 0.000000 0.000000 0.024818 0.000000
# 6 0.000000 0.000000 0.000000 0.000000 0.000000 0.070436
#
#
# Mechanical properties :
#
#
# Convention : Reuss Voigt Hill
#
# Bulk Modulus (GPa) = 39.02705 45.45000 42.23852
# Shear Modulus (GPa) = 23.52209 27.24211 25.38210
#
# Velocity S-wave (km/s) = 3.49771 3.76414 3.63337
# Velocity P-wave (km/s) = 6.05063 6.52154 6.29049
#
# Compressibility (1/GPa) = 0.02562325
#
# Stress axis : x y z
#
# Youngs Moduli (GPa) = 79.40599 53.72143 67.19632
#
# Poissons Ratio (x) = 0.21035 0.40805
# Poissons Ratio (y) = 0.31092 0.01647
# Poissons Ratio (z) = 0.48219 0.01317
#
# Static dielectric constant tensor:
#      x y z
#    x 3.747200 0.000000 0.000000 
#    y 0.000000 2.967020 0.000000 
#    z 0.000000 0.000000 3.547040 
# 
# 
# High freq. dielectric constant tensor:
#      x y z
#    x 1.765400 0.000000 0.000000 
#    y 0.000000 1.687590 0.000000 
#    z 0.000000 0.000000 1.762670 
# 
# From -- ./inp_files/9488.got.cif
#   From: 2010.03.12/outbox.cif.g09.slc.cpg/sg64_5_cif.got.tgz:9488.got - 2010.04.10 20:19:32.
