data_PCOD8263806
_publ_section_title
;
Structure prediction by ZEFSAII (Michael W. Deem and Ramdas Pophale) SiO2 
 PCOD8263806
Probable space group: C M C A
;
_chemical_formula_sum "Si O2"
_cell_formula_units_Z 72
_cell_length_a 20.912048
_cell_length_b 33.203953
_cell_length_c 5.162371
_cell_angle_alpha 90.000000
_cell_angle_beta 90.000000
_cell_angle_gamma 90.000000
_cell_volume 3584.557654
_symmetry_space_group_name_H-M "C M C A"
_symmetry_group_IT_number 64
_symmetry_cell_setting 'orthorhombic'
loop_
_space_group_symop_operation_xyz
x,y,z
-x,1/2-y,1/2+z
x,-y,-z
-x,1/2+y,1/2-z
-x,-y,-z
x,1/2+y,1/2-z
-x,y,z
x,1/2-y,1/2+z
1/2+x,1/2+y,z
1/2-x,-y,1/2+z
1/2+x,1/2-y,-z
1/2-x,y,1/2-z
1/2-x,1/2-y,-z
1/2+x,y,1/2-z
1/2-x,1/2+y,z
1/2+x,-y,1/2+z
loop_
_atom_site_type_symbol
_atom_site_label
_atom_site_fract_x
_atom_site_fract_y
_atom_site_fract_z
Si Si1 0.820998 0.232509 0.458895
Si Si2 0.000000 0.723870 0.235113
Si Si3 0.890906 0.161063 0.303863
Si Si4 0.076076 0.476972 0.249991
Si Si5 0.925352 0.886122 0.183033
O O1 0.855834 0.240684 0.733848
O O2 0.750000 0.250000 0.500000
O O3 0.824924 0.184960 0.380586
O O4 0.061419 0.696272 0.274566
O O5 0.000000 0.758833 0.446407
O O6 0.916258 0.137266 0.550907
O O7 0.883586 0.131978 0.054747
O O8 0.102541 0.500000 0.500000
O O9 0.099988 0.431101 0.263994
O O10 0.000000 0.477851 0.239525
O O11 0.104425 0.500000 0.000000
O O12 0.000000 0.885593 0.100877
#
# Coordination Sequence:
#
# PCOD8263806 Si02
#       5
#    16   8  16  16  16
#     4  10  21  38  56  72  94 133 179 224 275 318
#     4  12  22  32  46  66  96 132 172 212 262 326
#     4  12  21  34  50  73 102 136 176 228 273 313
#     4   9  17  29  46  67  95 138 182 210 242 306
#     4  11  20  33  48  73 107 140 175 220 269 311
#
# _framework density 20.086158999999999
#
# number of rings (size 3 to 8) (size 9 to 14) (size 15 to 20)
#    0.000    1.333    2.222    5.333    0.000    3.556 
#    0.000    0.000    0.000    0.000    0.000    0.000 
#    0.000    0.000    0.000  224.000    0.000    0.000 
#
# Total GULP energy -446115.281823 kJ/mol
# GULP energy per Si atom -12392.091162 kJ/mol
# Density = 2.004044 g / cm^3
# Si number density = 20.086159 Si / 1000 Ang^3
#
#
#
# Elastic Constant Matrix: (Units=GPa)
#
#
# Indices 1 2 3 4 5 6 
#
# 1 34.9233 32.1644 10.4845 0.0000 0.0000 0.0000
# 2 32.1644 154.4915 67.5212 0.0000 0.0000 0.0000
# 3 10.4845 67.5212 179.4812 0.0000 0.0000 0.0000
# 4 0.0000 0.0000 0.0000 47.9699 0.0000 0.0000
# 5 0.0000 0.0000 0.0000 0.0000 10.9945 0.0000
# 6 0.0000 0.0000 0.0000 0.0000 0.0000 15.7653
#
#
#
# Elastic Compliance Matrix: (Units=1/GPa)
#
#
# Indices 1 2 3 4 5 6 
#
# 1 0.035534 -0.007768 0.000847 0.000000 0.000000 0.000000
# 2 -0.007768 0.009445 -0.003099 0.000000 0.000000 0.000000
# 3 0.000847 -0.003099 0.006688 0.000000 0.000000 0.000000
# 4 0.000000 0.000000 0.000000 0.020846 0.000000 0.000000
# 5 0.000000 0.000000 0.000000 0.000000 0.090954 0.000000
# 6 0.000000 0.000000 0.000000 0.000000 0.000000 0.063431
#
#
# Mechanical properties :
#
#
# Convention : Reuss Voigt Hill
#
# Bulk Modulus (GPa) = 31.61993 65.47068 48.54530
# Shear Modulus (GPa) = 19.41883 32.19433 25.80658
#
# Velocity S-wave (km/s) = 3.11268 4.00786 3.58829
# Velocity P-wave (km/s) = 5.35674 7.35411 6.43341
#
# Compressibility (1/GPa) = 0.03162562
#
# Stress axis : x y z
#
# Youngs Moduli (GPa) = 28.14169 105.87926 149.51841
#
# Poissons Ratio (x) = 0.82248 -0.12659
# Poissons Ratio (y) = 0.21861 0.46341
# Poissons Ratio (z) = -0.02383 0.32816
#
# Static dielectric constant tensor:
#      x y z
#    x 3.288050 0.000000 0.000000 
#    y 0.000000 3.904920 0.000000 
#    z 0.000000 0.000000 2.222930 
# 
# 
# High freq. dielectric constant tensor:
#      x y z
#    x 1.716140 0.000000 0.000000 
#    y 0.000000 1.788050 0.000000 
#    z 0.000000 0.000000 1.819180 
# 
# From -- ./inp_files/2272.got.cif
#   From: 2010.03.12/outbox.cif.g09.slc.cpg/sg64_2_cif.got.tgz:2272.got - 2010.04.10 20:19:32.
