data_PCOD8263698
_publ_section_title
;
Structure prediction by ZEFSAII (Michael W. Deem and Ramdas Pophale) SiO2 
 PCOD8263698
Probable space group: C M C A
;
_chemical_formula_sum "Si O2"
_cell_formula_units_Z 96
_cell_length_a 17.534899
_cell_length_b 23.403262
_cell_length_c 11.732792
_cell_angle_alpha 90.000000
_cell_angle_beta 90.000000
_cell_angle_gamma 90.000000
_cell_volume 4814.830853
_symmetry_space_group_name_H-M "C M C A"
_symmetry_group_IT_number 64
_symmetry_cell_setting 'orthorhombic'
loop_
_space_group_symop_operation_xyz
x,y,z
-x,1/2-y,1/2+z
x,-y,-z
-x,1/2+y,1/2-z
-x,-y,-z
x,1/2+y,1/2-z
-x,y,z
x,1/2-y,1/2+z
1/2+x,1/2+y,z
1/2-x,-y,1/2+z
1/2+x,1/2-y,-z
1/2-x,y,1/2-z
1/2-x,1/2-y,-z
1/2+x,y,1/2-z
1/2-x,1/2+y,z
1/2+x,-y,1/2+z
loop_
_atom_site_type_symbol
_atom_site_label
_atom_site_fract_x
_atom_site_fract_y
_atom_site_fract_z
Si Si1 0.855938 0.565027 0.474307
Si Si2 0.320531 0.941018 0.946738
Si Si3 0.088334 0.611414 0.243182
Si Si4 0.085045 0.857078 0.412723
Si Si5 0.085821 0.722220 0.113203
Si Si6 0.911032 0.846101 0.148654
O O1 0.884472 0.500000 0.500000
O O2 0.769658 0.563960 0.430880
O O3 0.904405 0.597449 0.376639
O O4 0.865148 0.602747 0.588007
O O5 0.361878 0.935192 0.824827
O O6 0.348826 0.895155 0.036501
O O7 0.345703 0.000000 0.000000
O O8 0.118986 0.674359 0.202202
O O9 0.000000 0.606335 0.206300
O O10 0.089316 0.797564 0.481786
O O11 0.103539 0.849360 0.282055
O O12 0.000000 0.883495 0.429630
O O13 0.125724 0.784423 0.115503
O O14 0.000000 0.733762 0.154892
O O15 0.000000 0.852200 0.115758
#
# Coordination Sequence:
#
# PCOD8263698 Si02
#       6
#    16  16  16  16  16  16
#     4  11  25  40  57  86 125 163 191 233 299 362
#     4  10  22  40  61  81 114 160 199 235 289 349
#     4  10  21  39  64  89 115 147 196 249 289 346
#     4   9  19  36  59  88 115 146 202 250 282 342
#     4   8  17  35  60  88 114 149 194 242 297 341
#     4  10  21  36  60  89 120 155 192 244 294 345
#
# _framework density 19.938396000000001
#
# number of rings (size 3 to 8) (size 9 to 14) (size 15 to 20)
#    0.000    2.333    0.000    2.500    4.667    3.333 
#    0.000    3.333    7.333    0.000    0.000    0.000 
#    0.000    0.000    0.000    0.000    0.000    0.000 
#
# Total GULP energy -594919.508702 kJ/mol
# GULP energy per Si atom -12394.156431 kJ/mol
# Density = 1.989302 g / cm^3
# Si number density = 19.938396 Si / 1000 Ang^3
#
#
#
# Elastic Constant Matrix: (Units=GPa)
#
#
# Indices 1 2 3 4 5 6 
#
# 1 36.4255 12.6923 12.8458 0.0000 0.0000 0.0000
# 2 12.6923 120.9535 49.6887 0.0000 0.0000 0.0000
# 3 12.8458 49.6887 127.9321 0.0000 0.0000 0.0000
# 4 0.0000 0.0000 0.0000 20.4006 0.0000 0.0000
# 5 0.0000 0.0000 0.0000 0.0000 30.7260 0.0000
# 6 0.0000 0.0000 0.0000 0.0000 0.0000 23.0418
#
#
#
# Elastic Compliance Matrix: (Units=1/GPa)
#
#
# Indices 1 2 3 4 5 6 
#
# 1 0.028942 -0.002193 -0.002054 0.000000 0.000000 0.000000
# 2 -0.002193 0.010003 -0.003665 0.000000 0.000000 0.000000
# 3 -0.002054 -0.003665 0.009446 0.000000 0.000000 0.000000
# 4 0.000000 0.000000 0.000000 0.049018 0.000000 0.000000
# 5 0.000000 0.000000 0.000000 0.000000 0.032546 0.000000
# 6 0.000000 0.000000 0.000000 0.000000 0.000000 0.043399
#
#
# Mechanical properties :
#
#
# Convention : Reuss Voigt Hill
#
# Bulk Modulus (GPa) = 30.70613 48.41831 39.56222
# Shear Modulus (GPa) = 24.99553 28.83930 26.91742
#
# Velocity S-wave (km/s) = 3.54452 3.80731 3.67826
# Velocity P-wave (km/s) = 5.67322 6.60788 6.15831
#
# Compressibility (1/GPa) = 0.03256679
#
# Stress axis : x y z
#
# Youngs Moduli (GPa) = 34.55190 99.96571 105.85995
#
# Poissons Ratio (x) = 0.21924 0.21747
# Poissons Ratio (y) = 0.07578 0.38799
# Poissons Ratio (z) = 0.07098 0.36638
#
# Static dielectric constant tensor:
#      x y z
#    x 3.384390 0.000000 0.000000 
#    y 0.000000 3.864240 0.000000 
#    z 0.000000 0.000000 3.669660 
# 
# 
# High freq. dielectric constant tensor:
#      x y z
#    x 1.753260 0.000000 0.000000 
#    y 0.000000 1.779800 0.000000 
#    z 0.000000 0.000000 1.785030 
# 
# From -- ./inp_files/16175.got.cif
#   From: 2010.03.12/outbox.cif.g09.slc.cpg/sg64_9_cif.got.tgz:16175.got - 2010.04.10 20:19:32.
