data_PCOD8263751
_publ_section_title
;
Structure prediction by ZEFSAII (Michael W. Deem and Ramdas Pophale) SiO2 
 PCOD8263751
Probable space group: C M C A
;
_chemical_formula_sum "Si O2"
_cell_formula_units_Z 80
_cell_length_a 16.396276
_cell_length_b 28.119130
_cell_length_c 8.344372
_cell_angle_alpha 90.000000
_cell_angle_beta 90.000000
_cell_angle_gamma 90.000000
_cell_volume 3847.164503
_symmetry_space_group_name_H-M "C M C A"
_symmetry_group_IT_number 64
_symmetry_cell_setting 'orthorhombic'
loop_
_space_group_symop_operation_xyz
x,y,z
-x,1/2-y,1/2+z
x,-y,-z
-x,1/2+y,1/2-z
-x,-y,-z
x,1/2+y,1/2-z
-x,y,z
x,1/2-y,1/2+z
1/2+x,1/2+y,z
1/2-x,-y,1/2+z
1/2+x,1/2-y,-z
1/2-x,y,1/2-z
1/2-x,1/2-y,-z
1/2+x,y,1/2-z
1/2-x,1/2+y,z
1/2+x,-y,1/2+z
loop_
_atom_site_type_symbol
_atom_site_label
_atom_site_fract_x
_atom_site_fract_y
_atom_site_fract_z
Si Si1 0.252976 0.948718 0.439395
Si Si2 0.335508 0.774918 0.040658
Si Si3 0.907385 0.898886 0.951024
Si Si4 0.408272 0.804050 0.362981
Si Si5 0.171452 0.370528 0.856400
O O1 0.250000 0.945765 0.250000
O O2 0.345305 0.940680 0.501728
O O3 0.189746 0.910431 0.510450
O O4 0.223838 0.000000 0.500000
O O5 0.343454 0.789770 0.226129
O O6 0.250000 0.750000 0.000000
O O7 0.405157 0.736450 0.999618
O O8 0.353413 0.821651 0.938068
O O9 0.900890 0.887293 0.761556
O O10 0.000000 0.914724 0.987381
O O11 0.881160 0.853519 0.057582
O O12 0.500000 0.807950 0.294833
O O13 0.250000 0.360850 0.750000
#
# Coordination Sequence:
#
# PCOD8263751 Si02
#       5
#    16  16  16  16  16
#     4  11  22  41  66  90 118 153 194 240 297 359
#     4  12  22  35  56  82 113 155 205 248 286 343
#     4  10  22  40  61  87 120 156 197 248 301 354
#     4  11  23  37  54  81 119 159 196 240 297 349
#     4  10  21  37  58  85 115 151 195 243 295 350
#
# _framework density 20.794536999999998
#
# number of rings (size 3 to 8) (size 9 to 14) (size 15 to 20)
#    0.000    1.200    0.000    9.000    0.000    3.600 
#    0.000    1.000    0.000    2.400    0.000    0.000 
#    0.000    0.000    0.000    0.000    0.000    0.000 
#
# Total GULP energy -496087.122401 kJ/mol
# GULP energy per Si atom -12402.178060 kJ/mol
# Density = 2.074721 g / cm^3
# Si number density = 20.794537 Si / 1000 Ang^3
#
#
#
# Elastic Constant Matrix: (Units=GPa)
#
#
# Indices 1 2 3 4 5 6 
#
# 1 63.6251 11.1039 18.4527 0.0000 0.0000 0.0000
# 2 11.1039 79.8898 15.9908 0.0000 0.0000 0.0000
# 3 18.4527 15.9908 121.8413 0.0000 0.0000 0.0000
# 4 0.0000 0.0000 0.0000 37.8147 0.0000 0.0000
# 5 0.0000 0.0000 0.0000 0.0000 27.4195 0.0000
# 6 0.0000 0.0000 0.0000 0.0000 0.0000 20.6758
#
#
#
# Elastic Compliance Matrix: (Units=1/GPa)
#
#
# Indices 1 2 3 4 5 6 
#
# 1 0.016705 -0.001864 -0.002285 0.000000 0.000000 0.000000
# 2 -0.001864 0.013063 -0.001432 0.000000 0.000000 0.000000
# 3 -0.002285 -0.001432 0.008741 0.000000 0.000000 0.000000
# 4 0.000000 0.000000 0.000000 0.026445 0.000000 0.000000
# 5 0.000000 0.000000 0.000000 0.000000 0.036470 0.000000
# 6 0.000000 0.000000 0.000000 0.000000 0.000000 0.048366
#
#
# Mechanical properties :
#
#
# Convention : Reuss Voigt Hill
#
# Bulk Modulus (GPa) = 36.56825 39.60568 38.08696
# Shear Modulus (GPa) = 29.39976 31.83593 30.61784
#
# Velocity S-wave (km/s) = 3.76416 3.91701 3.84135
# Velocity P-wave (km/s) = 6.04281 6.28847 6.16686
#
# Compressibility (1/GPa) = 0.02734613
#
# Stress axis : x y z
#
# Youngs Moduli (GPa) = 59.86144 76.55197 114.39749
#
# Poissons Ratio (x) = 0.14273 0.26143
# Poissons Ratio (y) = 0.11161 0.16382
# Poissons Ratio (z) = 0.13680 0.10963
#
# Static dielectric constant tensor:
#      x y z
#    x 3.633300 0.000000 0.000000 
#    y 0.000000 3.905320 0.000000 
#    z 0.000000 0.000000 4.095600 
# 
# 
# High freq. dielectric constant tensor:
#      x y z
#    x 1.799650 0.000000 0.000000 
#    y 0.000000 1.815290 0.000000 
#    z 0.000000 0.000000 1.826380 
# 
# From -- ./inp_files/7135.got.cif
#   From: 2010.03.12/outbox.cif.g09.slc.cpg/sg64_4_cif.got.tgz:7135.got - 2010.04.10 20:19:32.
