data_PCOD8263135
_publ_section_title
;
Structure prediction by ZEFSAII (Michael W. Deem and Ramdas Pophale) SiO2 
 PCOD8263135
Probable space group: C M C A
;
_chemical_formula_sum "Si O2"
_cell_formula_units_Z 80
_cell_length_a 20.618608
_cell_length_b 8.948050
_cell_length_c 19.582296
_cell_angle_alpha 90.000000
_cell_angle_beta 90.000000
_cell_angle_gamma 90.000000
_cell_volume 3612.861849
_symmetry_space_group_name_H-M "C M C A"
_symmetry_group_IT_number 64
_symmetry_cell_setting 'orthorhombic'
loop_
_space_group_symop_operation_xyz
x,y,z
-x,1/2-y,1/2+z
x,-y,-z
-x,1/2+y,1/2-z
-x,-y,-z
x,1/2+y,1/2-z
-x,y,z
x,1/2-y,1/2+z
1/2+x,1/2+y,z
1/2-x,-y,1/2+z
1/2+x,1/2-y,-z
1/2-x,y,1/2-z
1/2-x,1/2-y,-z
1/2+x,y,1/2-z
1/2-x,1/2+y,z
1/2+x,-y,1/2+z
loop_
_atom_site_type_symbol
_atom_site_label
_atom_site_fract_x
_atom_site_fract_y
_atom_site_fract_z
Si Si1 0.121273 0.568255 0.071695
Si Si2 0.687891 0.378030 0.706034
Si Si3 0.000000 0.234138 0.263036
Si Si4 0.500000 0.948918 0.149950
Si Si5 0.124105 0.412844 0.299767
Si Si6 0.923772 0.904832 0.063849
O O1 0.181644 0.570904 0.126430
O O2 0.062994 0.468805 0.102680
O O3 0.094917 0.732202 0.055595
O O4 0.146162 0.500000 0.000000
O O5 0.750000 0.432848 0.750000
O O6 0.685260 0.198602 0.710463
O O7 0.626365 0.454370 0.744944
O O8 0.000000 0.279368 0.181889
O O9 0.062635 0.304169 0.297852
O O10 0.000000 0.057876 0.282462
O O11 0.118665 0.480865 0.375460
O O12 0.000000 0.920964 0.076709
O O13 0.900724 0.000000 0.000000
#
# Coordination Sequence:
#
# PCOD8263135 Si02
#       6
#    16  16   8   8  16  16
#     4  11  22  40  61  91 131 168 209 261 323 389
#     4  11  24  41  63  88 120 168 217 262 308 370
#     4  12  18  38  62  98 127 160 201 272 318 375
#     4  12  21  38  60 100 135 163 207 264 335 389
#     4  11  20  39  62  89 125 156 213 266 316 370
#     4  10  20  36  56  90 130 162 193 248 319 392
#
# _framework density 22.14311
#
# number of rings (size 3 to 8) (size 9 to 14) (size 15 to 20)
#    0.000    1.000    8.000    0.900    0.000    1.600 
#    3.600    1.000    0.000    6.000    0.000    0.000 
#    0.000    0.000    0.000    0.000    0.000    0.000 
#
# Total GULP energy -495600.424816 kJ/mol
# GULP energy per Si atom -12390.010620 kJ/mol
# Density = 2.209271 g / cm^3
# Si number density = 22.143110 Si / 1000 Ang^3
#
#
#
# Elastic Constant Matrix: (Units=GPa)
#
#
# Indices 1 2 3 4 5 6 
#
# 1 65.5418 8.2163 40.0916 0.0000 0.0000 0.0000
# 2 8.2163 57.7526 64.8066 0.0000 0.0000 0.0000
# 3 40.0916 64.8066 189.8856 0.0000 0.0000 0.0000
# 4 0.0000 0.0000 0.0000 46.0614 0.0000 0.0000
# 5 0.0000 0.0000 0.0000 0.0000 31.7832 0.0000
# 6 0.0000 0.0000 0.0000 0.0000 0.0000 15.3128
#
#
#
# Elastic Compliance Matrix: (Units=1/GPa)
#
#
# Indices 1 2 3 4 5 6 
#
# 1 0.017781 0.002728 -0.004685 0.000000 0.000000 0.000000
# 2 0.002728 0.028481 -0.010296 0.000000 0.000000 0.000000
# 3 -0.004685 -0.010296 0.009770 0.000000 0.000000 0.000000
# 4 0.000000 0.000000 0.000000 0.021710 0.000000 0.000000
# 5 0.000000 0.000000 0.000000 0.000000 0.031463 0.000000
# 6 0.000000 0.000000 0.000000 0.000000 0.000000 0.065305
#
#
# Mechanical properties :
#
#
# Convention : Reuss Voigt Hill
#
# Bulk Modulus (GPa) = 31.72128 59.93435 45.82781
# Shear Modulus (GPa) = 23.86337 31.96919 27.91628
#
# Velocity S-wave (km/s) = 3.28638 3.80380 3.55452
# Velocity P-wave (km/s) = 5.36256 6.81303 6.13084
#
# Compressibility (1/GPa) = 0.03152458
#
# Stress axis : x y z
#
# Youngs Moduli (GPa) = 56.23845 35.11099 102.35805
#
# Poissons Ratio (x) = -0.09578 0.47958
# Poissons Ratio (y) = -0.15341 1.05391
# Poissons Ratio (z) = 0.26349 0.36151
#
# Static dielectric constant tensor:
#      x y z
#    x 3.695470 0.000000 0.000000 
#    y 0.000000 3.816460 0.000000 
#    z 0.000000 0.000000 4.367600 
# 
# 
# High freq. dielectric constant tensor:
#      x y z
#    x 1.845340 0.000000 0.000000 
#    y 0.000000 1.866980 0.000000 
#    z 0.000000 0.000000 1.879620 
# 
# From -- ./inp_files/34063.got.cif
#   From: 2010.03.12/outbox.cif.g09.slc.cpg/sg64_18_cif.got.tgz:34063.got - 2010.04.10 20:19:32.
