data_PCOD8263064
_publ_section_title
;
Structure prediction by ZEFSAII (Michael W. Deem and Ramdas Pophale) SiO2 
 PCOD8263064
Probable space group: C M C A
;
_chemical_formula_sum "Si O2"
_cell_formula_units_Z 72
_cell_length_a 17.938129
_cell_length_b 19.307248
_cell_length_c 10.608134
_cell_angle_alpha 90.000000
_cell_angle_beta 90.000000
_cell_angle_gamma 90.000000
_cell_volume 3673.977692
_symmetry_space_group_name_H-M "C M C A"
_symmetry_group_IT_number 64
_symmetry_cell_setting 'orthorhombic'
loop_
_space_group_symop_operation_xyz
x,y,z
-x,1/2-y,1/2+z
x,-y,-z
-x,1/2+y,1/2-z
-x,-y,-z
x,1/2+y,1/2-z
-x,y,z
x,1/2-y,1/2+z
1/2+x,1/2+y,z
1/2-x,-y,1/2+z
1/2+x,1/2-y,-z
1/2-x,y,1/2-z
1/2-x,1/2-y,-z
1/2+x,y,1/2-z
1/2-x,1/2+y,z
1/2+x,-y,1/2+z
loop_
_atom_site_type_symbol
_atom_site_label
_atom_site_fract_x
_atom_site_fract_y
_atom_site_fract_z
Si Si1 0.500000 0.719167 0.108059
Si Si2 0.000000 0.829520 0.611896
Si Si3 0.368021 0.930874 0.940760
Si Si4 0.777233 0.665896 0.879810
Si Si5 0.250000 0.086409 0.250000
Si Si6 0.161369 0.191046 0.083573
O O1 0.500000 0.722250 0.264690
O O2 0.573285 0.677186 0.065483
O O3 0.500000 0.790692 0.024664
O O4 0.928374 0.879855 0.620818
O O5 0.305398 0.957109 0.839653
O O6 0.324954 0.890459 0.048935
O O7 0.405259 0.000000 0.000000
O O8 0.750000 0.632181 0.750000
O O9 0.828201 0.733378 0.853248
O O10 0.701977 0.690030 0.949674
O O11 0.194350 0.133139 0.171405
#
# Coordination Sequence:
#
# PCOD8263064 Si02
#       6
#     8   8  16  16   8  16
#     4  12  24  36  62  96 128 162 200 254 320 386
#     4  12  25  42  62  98 127 164 204 258 320 368
#     4  11  24  40  62  86 123 169 208 248 301 377
#     4  10  21  36  60  90 115 155 206 264 305 366
#     4  10  20  40  60  88 116 160 204 260 308 360
#     4  10  20  35  59  86 124 150 196 259 326 354
#
# _framework density 19.597287999999999
#
# number of rings (size 3 to 8) (size 9 to 14) (size 15 to 20)
#    0.000    1.333    5.556    0.333    4.667    0.000 
#    0.000    0.000    0.000    0.000    0.000    7.000 
#    0.000    0.000    0.000    0.000    0.000    0.000 
#
# Total GULP energy -446085.932650 kJ/mol
# GULP energy per Si atom -12391.275907 kJ/mol
# Density = 1.955268 g / cm^3
# Si number density = 19.597288 Si / 1000 Ang^3
#
#
#
# Elastic Constant Matrix: (Units=GPa)
#
#
# Indices 1 2 3 4 5 6 
#
# 1 133.0066 15.3464 28.2393 0.0000 0.0000 0.0000
# 2 15.3464 55.1661 22.6754 0.0000 0.0000 0.0000
# 3 28.2393 22.6754 87.0170 0.0000 0.0000 0.0000
# 4 0.0000 0.0000 0.0000 93.8234 0.0000 0.0000
# 5 0.0000 0.0000 0.0000 0.0000 23.8925 0.0000
# 6 0.0000 0.0000 0.0000 0.0000 0.0000 17.3543
#
#
#
# Elastic Compliance Matrix: (Units=1/GPa)
#
#
# Indices 1 2 3 4 5 6 
#
# 1 0.008160 -0.001323 -0.002303 0.000000 0.000000 0.000000
# 2 -0.001323 0.020516 -0.004917 0.000000 0.000000 0.000000
# 3 -0.002303 -0.004917 0.013521 0.000000 0.000000 0.000000
# 4 0.000000 0.000000 0.000000 0.010658 0.000000 0.000000
# 5 0.000000 0.000000 0.000000 0.000000 0.041854 0.000000
# 6 0.000000 0.000000 0.000000 0.000000 0.000000 0.057622
#
#
# Mechanical properties :
#
#
# Convention : Reuss Voigt Hill
#
# Bulk Modulus (GPa) = 39.82439 45.30133 42.56286
# Shear Modulus (GPa) = 28.12323 40.94262 34.53293
#
# Velocity S-wave (km/s) = 3.79232 4.57573 4.20232
# Velocity P-wave (km/s) = 6.28817 7.14722 6.73141
#
# Compressibility (1/GPa) = 0.02511024
#
# Stress axis : x y z
#
# Youngs Moduli (GPa) = 122.54699 48.74204 73.96037
#
# Poissons Ratio (x) = 0.06450 0.17036
# Poissons Ratio (y) = 0.16216 0.36365
# Poissons Ratio (z) = 0.28227 0.23966
#
# Static dielectric constant tensor:
#      x y z
#    x 3.876070 0.000000 0.000000 
#    y 0.000000 3.222210 0.000000 
#    z 0.000000 0.000000 3.699610 
# 
# 
# High freq. dielectric constant tensor:
#      x y z
#    x 1.776860 0.000000 0.000000 
#    y 0.000000 1.727730 0.000000 
#    z 0.000000 0.000000 1.768170 
# 
# From -- ./inp_files/15815.got.cif
#   From: 2010.03.12/outbox.cif.g09.slc.cpg/sg64_8_cif.got.tgz:15815.got - 2010.04.10 20:19:32.
