data_PCOD8263637
_publ_section_title
;
Structure prediction by ZEFSAII (Michael W. Deem and Ramdas Pophale) SiO2 
 PCOD8263637
Probable space group: C M C A
;
_chemical_formula_sum "Si O2"
_cell_formula_units_Z 80
_cell_length_a 25.849845
_cell_length_b 13.448509
_cell_length_c 12.128370
_cell_angle_alpha 90.000000
_cell_angle_beta 90.000000
_cell_angle_gamma 90.000000
_cell_volume 4216.329265
_symmetry_space_group_name_H-M "C M C A"
_symmetry_group_IT_number 64
_symmetry_cell_setting 'orthorhombic'
loop_
_space_group_symop_operation_xyz
x,y,z
-x,1/2-y,1/2+z
x,-y,-z
-x,1/2+y,1/2-z
-x,-y,-z
x,1/2+y,1/2-z
-x,y,z
x,1/2-y,1/2+z
1/2+x,1/2+y,z
1/2-x,-y,1/2+z
1/2+x,1/2-y,-z
1/2-x,y,1/2-z
1/2-x,1/2-y,-z
1/2+x,y,1/2-z
1/2-x,1/2+y,z
1/2+x,-y,1/2+z
loop_
_atom_site_type_symbol
_atom_site_label
_atom_site_fract_x
_atom_site_fract_y
_atom_site_fract_z
Si Si1 0.441284 0.947307 0.851072
Si Si2 0.396570 0.360947 0.445370
Si Si3 0.378772 0.324718 0.806465
Si Si4 0.708849 0.390571 0.958366
Si Si5 0.309328 0.293964 0.597648
O O1 0.500000 0.985175 0.839723
O O2 0.424269 0.895207 0.738058
O O3 0.402106 0.039130 0.872584
O O4 0.437411 0.869300 0.953270
O O5 0.407328 0.266471 0.367677
O O6 0.339415 0.349850 0.497729
O O7 0.344193 0.388496 0.889939
O O8 0.343103 0.285517 0.707333
O O9 0.756682 0.355200 0.881634
O O10 0.719880 0.500000 0.000000
O O11 0.704565 0.318417 0.063871
#
# Coordination Sequence:
#
# PCOD8263637 Si02
#       5
#    16  16  16  16  16
#     4  10  21  36  59  84 106 146 197 236 290 338
#     4   9  19  36  57  77 115 146 184 238 273 334
#     4  10  21  36  57  83 113 148 186 232 281 335
#     4  10  21  35  56  82 118 149 183 226 276 334
#     4   9  20  37  52  84 116 150 185 221 275 338
#
# _framework density 18.973849000000001
#
# number of rings (size 3 to 8) (size 9 to 14) (size 15 to 20)
#    0.000    2.400    0.000    1.800    8.400    1.600 
#    0.000    2.000    0.000    0.600    0.000    0.000 
#    0.000    0.000    0.000    0.000    0.000    0.000 
#
# Total GULP energy -495929.238787 kJ/mol
# GULP energy per Si atom -12398.230970 kJ/mol
# Density = 1.893066 g / cm^3
# Si number density = 18.973849 Si / 1000 Ang^3
#
#
#
# Elastic Constant Matrix: (Units=GPa)
#
#
# Indices 1 2 3 4 5 6 
#
# 1 69.6009 40.0084 12.3638 0.0000 0.0000 0.0000
# 2 40.0084 120.1547 40.7929 0.0000 0.0000 0.0000
# 3 12.3638 40.7929 61.0455 0.0000 0.0000 0.0000
# 4 0.0000 0.0000 0.0000 32.4048 0.0000 0.0000
# 5 0.0000 0.0000 0.0000 0.0000 21.7745 0.0000
# 6 0.0000 0.0000 0.0000 0.0000 0.0000 19.6501
#
#
#
# Elastic Compliance Matrix: (Units=1/GPa)
#
#
# Indices 1 2 3 4 5 6 
#
# 1 0.017779 -0.006076 0.000459 0.000000 0.000000 0.000000
# 2 -0.006076 0.012841 -0.007350 0.000000 0.000000 0.000000
# 3 0.000459 -0.007350 0.021200 0.000000 0.000000 0.000000
# 4 0.000000 0.000000 0.000000 0.030860 0.000000 0.000000
# 5 0.000000 0.000000 0.000000 0.000000 0.045925 0.000000
# 6 0.000000 0.000000 0.000000 0.000000 0.000000 0.050890
#
#
# Mechanical properties :
#
#
# Convention : Reuss Voigt Hill
#
# Bulk Modulus (GPa) = 38.63094 48.57015 43.60055
# Shear Modulus (GPa) = 23.35826 25.27497 24.31661
#
# Velocity S-wave (km/s) = 3.51248 3.65375 3.58381
# Velocity P-wave (km/s) = 6.07077 6.59195 6.33672
#
# Compressibility (1/GPa) = 0.02588598
#
# Stress axis : x y z
#
# Youngs Moduli (GPa) = 56.24760 77.87472 47.16983
#
# Poissons Ratio (x) = 0.47314 -0.02166
# Poissons Ratio (y) = 0.34174 0.34672
# Poissons Ratio (z) = -0.02583 0.57241
#
# Static dielectric constant tensor:
#      x y z
#    x 3.395650 0.000000 0.000000 
#    y 0.000000 3.364080 0.000000 
#    z 0.000000 0.000000 3.474290 
# 
# 
# High freq. dielectric constant tensor:
#      x y z
#    x 1.730480 0.000000 0.000000 
#    y 0.000000 1.729370 0.000000 
#    z 0.000000 0.000000 1.731310 
# 
# From -- ./inp_files/19001.got.cif
#   From: 2010.03.12/outbox.cif.g09.slc.cpg/sg64_10_cif.got.tgz:19001.got - 2010.04.10 20:19:32.
