data_PCOD8263391
_publ_section_title
;
Structure prediction by ZEFSAII (Michael W. Deem and Ramdas Pophale) SiO2 
 PCOD8263391
Probable space group: C M C A
;
_chemical_formula_sum "Si O2"
_cell_formula_units_Z 64
_cell_length_a 27.002502
_cell_length_b 15.186299
_cell_length_c 8.784170
_cell_angle_alpha 90.000000
_cell_angle_beta 90.000000
_cell_angle_gamma 90.000000
_cell_volume 3602.107631
_symmetry_space_group_name_H-M "C M C A"
_symmetry_group_IT_number 64
_symmetry_cell_setting 'orthorhombic'
loop_
_space_group_symop_operation_xyz
x,y,z
-x,1/2-y,1/2+z
x,-y,-z
-x,1/2+y,1/2-z
-x,-y,-z
x,1/2+y,1/2-z
-x,y,z
x,1/2-y,1/2+z
1/2+x,1/2+y,z
1/2-x,-y,1/2+z
1/2+x,1/2-y,-z
1/2-x,y,1/2-z
1/2-x,1/2-y,-z
1/2+x,y,1/2-z
1/2-x,1/2+y,z
1/2+x,-y,1/2+z
loop_
_atom_site_type_symbol
_atom_site_label
_atom_site_fract_x
_atom_site_fract_y
_atom_site_fract_z
Si Si1 0.146969 0.838568 0.335220
Si Si2 0.197206 0.998700 0.179567
Si Si3 0.055373 0.895811 0.487509
Si Si4 0.640846 0.655491 0.327218
O O1 0.088882 0.868275 0.340908
O O2 0.168648 0.839823 0.508237
O O3 0.151941 0.741495 0.269327
O O4 0.178986 0.902979 0.231563
O O5 0.250000 0.021443 0.250000
O O6 0.158439 0.071455 0.233697
O O7 0.201234 0.000000 0.000000
O O8 0.081804 0.855996 0.639313
O O9 0.000000 0.856981 0.471607
O O10 0.053908 0.000000 0.500000
#
# Coordination Sequence:
#
# PCOD8263391 Si02
#       4
#    16  16  16  16
#     4  10  20  38  59  87 122 153 197 241 293 348
#     4  12  24  40  62  85 115 155 201 248 300 355
#     4   9  18  36  64  84 120 162 198 241 292 343
#     4  10  20  38  59  87 122 153 197 241 293 348
#
# _framework density 17.767377
#
# number of rings (size 3 to 8) (size 9 to 14) (size 15 to 20)
#    1.500    0.250    2.500    3.750    0.000    2.000 
#    0.000    5.000    0.000    1.500    0.000    0.000 
#    0.000    0.000    0.000    0.000    0.000    0.000 
#
# Total GULP energy -396550.216980 kJ/mol
# GULP energy per Si atom -12392.194281 kJ/mol
# Density = 1.772694 g / cm^3
# Si number density = 17.767377 Si / 1000 Ang^3
#
#
#
# Elastic Constant Matrix: (Units=GPa)
#
#
# Indices 1 2 3 4 5 6 
#
# 1 73.0794 0.4455 19.7000 0.0000 0.0000 0.0000
# 2 0.4455 84.2620 22.4909 0.0000 0.0000 0.0000
# 3 19.7000 22.4909 121.7123 0.0000 0.0000 0.0000
# 4 0.0000 0.0000 0.0000 21.6767 0.0000 0.0000
# 5 0.0000 0.0000 0.0000 0.0000 23.3766 0.0000
# 6 0.0000 0.0000 0.0000 0.0000 0.0000 7.0999
#
#
#
# Elastic Compliance Matrix: (Units=1/GPa)
#
#
# Indices 1 2 3 4 5 6 
#
# 1 0.014334 0.000572 -0.002426 0.000000 0.000000 0.000000
# 2 0.000572 0.012506 -0.002404 0.000000 0.000000 0.000000
# 3 -0.002426 -0.002404 0.009053 0.000000 0.000000 0.000000
# 4 0.000000 0.000000 0.000000 0.046132 0.000000 0.000000
# 5 0.000000 0.000000 0.000000 0.000000 0.042778 0.000000
# 6 0.000000 0.000000 0.000000 0.000000 0.000000 0.140847
#
#
# Mechanical properties :
#
#
# Convention : Reuss Voigt Hill
#
# Bulk Modulus (GPa) = 36.52549 40.48071 38.50310
# Shear Modulus (GPa) = 17.64966 26.19181 21.92073
#
# Velocity S-wave (km/s) = 3.15520 3.84363 3.51631
# Velocity P-wave (km/s) = 5.82031 6.52160 6.18091
#
# Compressibility (1/GPa) = 0.02737814
#
# Stress axis : x y z
#
# Youngs Moduli (GPa) = 69.76343 79.95989 110.46234
#
# Poissons Ratio (x) = -0.04571 0.26795
# Poissons Ratio (y) = -0.03988 0.26550
# Poissons Ratio (z) = 0.16923 0.19219
#
# Static dielectric constant tensor:
#      x y z
#    x 3.390000 0.000000 0.000000 
#    y 0.000000 3.183710 0.000000 
#    z 0.000000 0.000000 3.234860 
# 
# 
# High freq. dielectric constant tensor:
#      x y z
#    x 1.678070 0.000000 0.000000 
#    y 0.000000 1.695410 0.000000 
#    z 0.000000 0.000000 1.679110 
# 
# From -- ./inp_files/8957.got.cif
#   From: 2010.03.12/outbox.cif.g09.slc.cpg/sg64_5_cif.got.tgz:8957.got - 2010.04.10 20:19:32.
