data_PCOD8263374
_publ_section_title
;
Structure prediction by ZEFSAII (Michael W. Deem and Ramdas Pophale) SiO2 
 PCOD8263374
Probable space group: C M C A
;
_chemical_formula_sum "Si O2"
_cell_formula_units_Z 56
_cell_length_a 26.997066
_cell_length_b 23.861023
_cell_length_c 5.111621
_cell_angle_alpha 90.000000
_cell_angle_beta 90.000000
_cell_angle_gamma 90.000000
_cell_volume 3292.791813
_symmetry_space_group_name_H-M "C M C A"
_symmetry_group_IT_number 64
_symmetry_cell_setting 'orthorhombic'
loop_
_space_group_symop_operation_xyz
x,y,z
-x,1/2-y,1/2+z
x,-y,-z
-x,1/2+y,1/2-z
-x,-y,-z
x,1/2+y,1/2-z
-x,y,z
x,1/2-y,1/2+z
1/2+x,1/2+y,z
1/2-x,-y,1/2+z
1/2+x,1/2-y,-z
1/2-x,y,1/2-z
1/2-x,1/2-y,-z
1/2+x,y,1/2-z
1/2-x,1/2+y,z
1/2+x,-y,1/2+z
loop_
_atom_site_type_symbol
_atom_site_label
_atom_site_fract_x
_atom_site_fract_y
_atom_site_fract_z
Si Si1 0.554725 0.892787 0.036761
Si Si2 0.221185 0.933268 0.999796
Si Si3 0.500000 0.713232 0.451101
Si Si4 0.608880 0.933933 0.535850
O O1 0.500000 0.921113 0.014097
O O2 0.548933 0.825712 0.990433
O O3 0.591505 0.920038 0.828264
O O4 0.574959 0.902237 0.327553
O O5 0.250000 0.909215 0.750000
O O6 0.250000 0.909157 0.250000
O O7 0.164822 0.911974 0.998723
O O8 0.221926 0.000000 0.000000
O O9 0.500000 0.763520 0.657518
O O10 0.605026 0.000000 0.500000
#
# Coordination Sequence:
#
# PCOD8263374 Si02
#       4
#    16  16   8  16
#     4  10  22  33  49  75  98 133 167 205 231 309
#     4   9  17  29  45  65  93 134 174 202 229 265
#     4  10  20  38  55  68  95 126 160 218 258 276
#     4  11  20  32  48  72 109 140 164 196 235 286
#
# _framework density 17.006844000000001
#
# number of rings (size 3 to 8) (size 9 to 14) (size 15 to 20)
#    0.857    1.143    0.000    5.143    0.000    8.000 
#    0.000    0.000    0.000    0.000    0.000    0.000 
#    0.000   80.000    0.000    0.000    0.000    0.000 
#
# Total GULP energy -347148.771415 kJ/mol
# GULP energy per Si atom -12398.170408 kJ/mol
# Density = 1.696814 g / cm^3
# Si number density = 17.006844 Si / 1000 Ang^3
#
#
#
# Elastic Constant Matrix: (Units=GPa)
#
#
# Indices 1 2 3 4 5 6 
#
# 1 121.5083 12.3947 35.7008 0.0000 0.0000 0.0000
# 2 12.3947 45.5880 1.6939 0.0000 0.0000 0.0000
# 3 35.7008 1.6939 97.0807 0.0000 0.0000 0.0000
# 4 0.0000 0.0000 0.0000 29.4681 0.0000 0.0000
# 5 0.0000 0.0000 0.0000 0.0000 -9.7317 0.0000
# 6 0.0000 0.0000 0.0000 0.0000 0.0000 -0.9654
#
#
#
# Elastic Compliance Matrix: (Units=1/GPa)
#
#
# Indices 1 2 3 4 5 6 
#
# 1 0.009493 -0.002453 -0.003448 0.000000 0.000000 0.000000
# 2 -0.002453 0.022584 0.000508 0.000000 0.000000 0.000000
# 3 -0.003448 0.000508 0.011560 0.000000 0.000000 0.000000
# 4 0.000000 0.000000 0.000000 0.033935 0.000000 0.000000
# 5 0.000000 0.000000 0.000000 0.000000 -0.102757 0.000000
# 6 0.000000 0.000000 0.000000 0.000000 0.000000 -1.035812
#
#
# Mechanical properties :
#
#
# Convention : Reuss Voigt Hill
#
# Bulk Modulus (GPa) = 30.44103 40.41731 35.42917
# Shear Modulus (GPa) = -4.81111 18.04671 6.61780
#
# Velocity S-wave (km/s) = -1.68377 3.26105 1.97477
# Velocity P-wave (km/s) = 3.76272 6.16411 5.10658
#
# Compressibility (1/GPa) = 0.03285040
#
# Stress axis : x y z
#
# Youngs Moduli (GPa) = 105.33787 44.27979 86.50575
#
# Poissons Ratio (x) = 0.10862 0.29830
# Poissons Ratio (y) = 0.25839 -0.04395
# Poissons Ratio (z) = 0.36324 -0.02250
#
# Static dielectric constant tensor:
#      x y z
#    x 3.264770 0.000000 0.000000 
#    y 0.000000 2.742960 0.000000 
#    z 0.000000 0.000000 3.335660 
# 
# 
# High freq. dielectric constant tensor:
#      x y z
#    x 1.658810 0.000000 0.000000 
#    y 0.000000 1.604460 0.000000 
#    z 0.000000 0.000000 1.678210 
# 
# From -- ./inp_files/2108.got.cif
#   From: 2010.03.12/outbox.cif.g09.slc.cpg/sg64_2_cif.got.tgz:2108.got - 2010.04.10 20:19:32.
