data_PCOD8263117
_publ_section_title
;
Structure prediction by ZEFSAII (Michael W. Deem and Ramdas Pophale) SiO2 
 PCOD8263117
Probable space group: C M C A
;
_chemical_formula_sum "Si O2"
_cell_formula_units_Z 112
_cell_length_a 24.928836
_cell_length_b 14.059767
_cell_length_c 15.907838
_cell_angle_alpha 90.000000
_cell_angle_beta 90.000000
_cell_angle_gamma 90.000000
_cell_volume 5575.595818
_symmetry_space_group_name_H-M "C M C A"
_symmetry_group_IT_number 64
_symmetry_cell_setting 'orthorhombic'
loop_
_space_group_symop_operation_xyz
x,y,z
-x,1/2-y,1/2+z
x,-y,-z
-x,1/2+y,1/2-z
-x,-y,-z
x,1/2+y,1/2-z
-x,y,z
x,1/2-y,1/2+z
1/2+x,1/2+y,z
1/2-x,-y,1/2+z
1/2+x,1/2-y,-z
1/2-x,y,1/2-z
1/2-x,1/2-y,-z
1/2+x,y,1/2-z
1/2-x,1/2+y,z
1/2+x,-y,1/2+z
loop_
_atom_site_type_symbol
_atom_site_label
_atom_site_fract_x
_atom_site_fract_y
_atom_site_fract_z
Si Si1 0.939585 0.063112 0.370824
Si Si2 0.807686 0.960531 0.251006
Si Si3 0.371583 0.777749 0.950832
Si Si4 0.352070 0.429898 0.427600
Si Si5 0.692173 0.250926 0.712753
Si Si6 0.563070 0.890652 0.522185
Si Si7 0.389298 0.616784 0.204342
O O1 0.918193 0.149604 0.426014
O O2 0.934014 0.092670 0.273529
O O3 0.000000 0.043783 0.393992
O O4 0.910373 0.964783 0.395304
O O5 0.750000 0.011153 0.250000
O O6 0.813747 0.938725 0.349012
O O7 0.809177 0.861592 0.202595
O O8 0.848981 0.028086 0.204255
O O9 0.322978 0.784149 0.882460
O O10 0.399121 0.674331 0.962203
O O11 0.350471 0.820398 0.039744
O O12 0.330198 0.500000 0.500000
O O13 0.750000 0.285254 0.750000
O O14 0.644759 0.288517 0.773642
O O15 0.500000 0.866263 0.509529
O O16 0.580025 0.869920 0.617515
O O17 0.574466 0.000000 0.500000
#
# Coordination Sequence:
#
# PCOD8263117 Si02
#       7
#    16  16  16  16  16  16  16
#     4   9  18  33  56  82 107 140 180 222 271 321
#     4  10  20  37  56  76 105 141 179 219 266 321
#     4  10  20  36  56  80 110 139 177 227 276 322
#     4   9  19  34  54  81 109 133 170 227 272 311
#     4  10  21  38  58  80 107 142 181 224 274 329
#     4  11  23  37  53  77 111 147 181 220 267 322
#     4  10  20  36  56  78 108 144 182 221 266 324
#
# _framework density 20.087539
#
# number of rings (size 3 to 8) (size 9 to 14) (size 15 to 20)
#    0.000    2.143    0.000    3.857    0.000    3.143 
#    0.000   11.429    0.000    9.429    0.000    0.000 
#    0.000    0.000    0.000    0.000    0.000    0.000 
#
# Total GULP energy -693951.399179 kJ/mol
# GULP energy per Si atom -12391.989271 kJ/mol
# Density = 2.004182 g / cm^3
# Si number density = 20.087539 Si / 1000 Ang^3
#
#
#
# Elastic Constant Matrix: (Units=GPa)
#
#
# Indices 1 2 3 4 5 6 
#
# 1 97.6503 22.5502 37.5850 0.0000 0.0000 0.0000
# 2 22.5502 69.9693 -0.7948 0.0000 0.0000 0.0000
# 3 37.5850 -0.7948 86.5052 0.0000 0.0000 0.0000
# 4 0.0000 0.0000 0.0000 25.6130 0.0000 0.0000
# 5 0.0000 0.0000 0.0000 0.0000 19.2094 0.0000
# 6 0.0000 0.0000 0.0000 0.0000 0.0000 -108.3557
#
#
#
# Elastic Compliance Matrix: (Units=1/GPa)
#
#
# Indices 1 2 3 4 5 6 
#
# 1 0.013545 -0.004433 -0.005926 0.000000 0.000000 0.000000
# 2 -0.004433 0.015744 0.002071 0.000000 0.000000 0.000000
# 3 -0.005926 0.002071 0.014154 0.000000 0.000000 0.000000
# 4 0.000000 0.000000 0.000000 0.039043 0.000000 0.000000
# 5 0.000000 0.000000 0.000000 0.000000 0.052058 0.000000
# 6 0.000000 0.000000 0.000000 0.000000 0.000000 -0.009229
#
#
# Mechanical properties :
#
#
# Convention : Reuss Voigt Hill
#
# Bulk Modulus (GPa) = 37.22041 41.42285 39.32163
# Shear Modulus (GPa) = 33.14636 0.27897 16.71266
#
# Velocity S-wave (km/s) = 4.06654 0.37307 2.88756
# Velocity P-wave (km/s) = 6.37325 4.56634 5.54391
#
# Compressibility (1/GPa) = 0.02686698
#
# Stress axis : x y z
#
# Youngs Moduli (GPa) = 73.82752 63.51584 70.65289
#
# Poissons Ratio (x) = 0.28155 0.41868
# Poissons Ratio (y) = 0.32726 -0.14629
# Poissons Ratio (z) = 0.43749 -0.13152
#
# Static dielectric constant tensor:
#      x y z
#    x 3.591740 0.000000 0.000000 
#    y 0.000000 3.950160 0.000000 
#    z 0.000000 0.000000 3.716530 
# 
# 
# High freq. dielectric constant tensor:
#      x y z
#    x 1.772530 0.000000 0.000000 
#    y 0.000000 1.788420 0.000000 
#    z 0.000000 0.000000 1.788520 
# 
# From -- ./inp_files/28106.got.cif
#   From: 2010.03.12/outbox.cif.g09.slc.cpg/sg64_15_cif.got.tgz:28106.got - 2010.04.10 20:19:32.
