data_PCOD8263195
_publ_section_title
;
Structure prediction by ZEFSAII (Michael W. Deem and Ramdas Pophale) SiO2 
 PCOD8263195
Probable space group: C M C A
;
_chemical_formula_sum "Si O2"
_cell_formula_units_Z 112
_cell_length_a 11.681602
_cell_length_b 16.805324
_cell_length_c 28.817908
_cell_angle_alpha 90.000000
_cell_angle_beta 90.000000
_cell_angle_gamma 90.000000
_cell_volume 5657.333041
_symmetry_space_group_name_H-M "C M C A"
_symmetry_group_IT_number 64
_symmetry_cell_setting 'orthorhombic'
loop_
_space_group_symop_operation_xyz
x,y,z
-x,1/2-y,1/2+z
x,-y,-z
-x,1/2+y,1/2-z
-x,-y,-z
x,1/2+y,1/2-z
-x,y,z
x,1/2-y,1/2+z
1/2+x,1/2+y,z
1/2-x,-y,1/2+z
1/2+x,1/2-y,-z
1/2-x,y,1/2-z
1/2-x,1/2-y,-z
1/2+x,y,1/2-z
1/2-x,1/2+y,z
1/2+x,-y,1/2+z
loop_
_atom_site_type_symbol
_atom_site_label
_atom_site_fract_x
_atom_site_fract_y
_atom_site_fract_z
Si Si1 0.129315 0.545257 0.543688
Si Si2 0.719175 0.786233 0.450304
Si Si3 0.753387 0.493589 0.635409
Si Si4 0.626483 0.331599 0.626468
Si Si5 0.868430 0.651351 0.870893
Si Si6 0.703832 0.221758 0.702098
Si Si7 0.631675 0.548717 0.778144
O O1 0.185149 0.500000 0.500000
O O2 0.133100 0.640929 0.540059
O O3 0.196835 0.510766 0.585996
O O4 0.000000 0.517526 0.549141
O O5 0.750000 0.750000 0.500000
O O6 0.662119 0.719170 0.418418
O O7 0.826584 0.824061 0.422509
O O8 0.709594 0.404418 0.636057
O O9 0.653678 0.559209 0.642920
O O10 0.854209 0.503138 0.673208
O O11 0.500000 0.364461 0.616708
O O12 0.621980 0.280857 0.673976
O O13 0.810155 0.704922 0.831719
O O14 0.000000 0.670612 0.868640
O O15 0.750000 0.260786 0.750000
O O16 0.631870 0.143188 0.714384
O O17 0.500000 0.528009 0.758804
O O18 0.750000 0.524730 0.750000
#
# Coordination Sequence:
#
# PCOD8263195 Si02
#       7
#    16  16  16  16  16  16  16
#     4  10  20  36  59  81 105 143 186 227 275 334
#     4  10  21  37  56  82 114 143 184 234 286 348
#     4  10  21  36  54  80 114 147 186 234 283 338
#     4  11  22  36  56  82 113 150 190 234 290 349
#     4   9  19  35  55  79 108 146 189 233 283 341
#     4   9  20  36  57  83 113 148 188 236 287 345
#     4  10  21  38  62  88 115 153 199 244 291 347
#
# _framework density 19.797315000000001
#
# number of rings (size 3 to 8) (size 9 to 14) (size 15 to 20)
#    0.000    2.143    0.000    3.429    0.000    8.000 
#    0.000    7.143    0.000    4.714    0.000    0.000 
#    0.000    0.000    0.000    0.000    0.000    0.000 
#
# Total GULP energy -693911.124697 kJ/mol
# GULP energy per Si atom -12391.270084 kJ/mol
# Density = 1.975226 g / cm^3
# Si number density = 19.797315 Si / 1000 Ang^3
#
#
#
# Elastic Constant Matrix: (Units=GPa)
#
#
# Indices 1 2 3 4 5 6 
#
# 1 111.9646 14.5342 25.6332 0.0000 0.0000 0.0000
# 2 14.5342 67.4335 17.9104 0.0000 0.0000 0.0000
# 3 25.6332 17.9104 111.5677 0.0000 0.0000 0.0000
# 4 0.0000 0.0000 0.0000 32.6237 0.0000 0.0000
# 5 0.0000 0.0000 0.0000 0.0000 15.2691 0.0000
# 6 0.0000 0.0000 0.0000 0.0000 0.0000 14.7960
#
#
#
# Elastic Compliance Matrix: (Units=1/GPa)
#
#
# Indices 1 2 3 4 5 6 
#
# 1 0.009579 -0.001546 -0.001953 0.000000 0.000000 0.000000
# 2 -0.001546 0.015739 -0.002171 0.000000 0.000000 0.000000
# 3 -0.001953 -0.002171 0.009760 0.000000 0.000000 0.000000
# 4 0.000000 0.000000 0.000000 0.030653 0.000000 0.000000
# 5 0.000000 0.000000 0.000000 0.000000 0.065492 0.000000
# 6 0.000000 0.000000 0.000000 0.000000 0.000000 0.067586
#
#
# Mechanical properties :
#
#
# Convention : Reuss Voigt Hill
#
# Bulk Modulus (GPa) = 42.12552 45.23572 43.68062
# Shear Modulus (GPa) = 22.92926 28.06364 25.49645
#
# Velocity S-wave (km/s) = 3.40693 3.76912 3.59259
# Velocity P-wave (km/s) = 6.06637 6.46844 6.27063
#
# Compressibility (1/GPa) = 0.02373858
#
# Stress axis : x y z
#
# Youngs Moduli (GPa) = 104.39365 63.53489 102.45481
#
# Poissons Ratio (x) = 0.09823 0.20006
# Poissons Ratio (y) = 0.16139 0.22248
# Poissons Ratio (z) = 0.20385 0.13797
#
# Static dielectric constant tensor:
#      x y z
#    x 3.664050 0.000000 0.000000 
#    y 0.000000 -31.938120 0.000000 
#    z 0.000000 0.000000 3.835620 
# 
# 
# High freq. dielectric constant tensor:
#      x y z
#    x 1.763380 0.000000 0.000000 
#    y 0.000000 1.761180 0.000000 
#    z 0.000000 0.000000 1.784170 
# 
# From -- ./inp_files/52837.got.cif
#   From: 2010.03.12/outbox.cif.g09.slc.cpg/sg64_27_cif.got.tgz:52837.got - 2010.04.10 20:19:32.
