data_PCOD8263732
_publ_section_title
;
Structure prediction by ZEFSAII (Michael W. Deem and Ramdas Pophale) SiO2 
 PCOD8263732
Probable space group: C M C A
;
_chemical_formula_sum "Si O2"
_cell_formula_units_Z 80
_cell_length_a 17.694207
_cell_length_b 9.061332
_cell_length_c 25.415004
_cell_angle_alpha 90.000000
_cell_angle_beta 90.000000
_cell_angle_gamma 90.000000
_cell_volume 4074.865974
_symmetry_space_group_name_H-M "C M C A"
_symmetry_group_IT_number 64
_symmetry_cell_setting 'orthorhombic'
loop_
_space_group_symop_operation_xyz
x,y,z
-x,1/2-y,1/2+z
x,-y,-z
-x,1/2+y,1/2-z
-x,-y,-z
x,1/2+y,1/2-z
-x,y,z
x,1/2-y,1/2+z
1/2+x,1/2+y,z
1/2-x,-y,1/2+z
1/2+x,1/2-y,-z
1/2-x,y,1/2-z
1/2-x,1/2-y,-z
1/2+x,y,1/2-z
1/2-x,1/2+y,z
1/2+x,-y,1/2+z
loop_
_atom_site_type_symbol
_atom_site_label
_atom_site_fract_x
_atom_site_fract_y
_atom_site_fract_z
Si Si1 0.184285 0.995713 0.829265
Si Si2 0.165889 0.163661 0.648895
Si Si3 0.585159 0.246623 0.636885
Si Si4 0.087658 0.005508 0.560196
Si Si5 0.913849 0.482103 0.774281
O O1 0.189364 0.833205 0.853540
O O2 0.146047 0.985120 0.772427
O O3 0.267951 0.061067 0.827315
O O4 0.136500 0.102111 0.867226
O O5 0.140925 0.122817 0.589766
O O6 0.096848 0.127956 0.688993
O O7 0.500000 0.189668 0.637219
O O8 0.601046 0.345454 0.585774
O O9 0.601886 0.337083 0.690463
O O10 0.000000 0.053130 0.565642
O O11 0.113597 0.000000 0.500000
O O12 0.000000 0.484586 0.753022
#
# Coordination Sequence:
#
# PCOD8263732 Si02
#       5
#    16  16  16  16  16
#     4  12  23  36  54  81 117 154 188 228 275 327
#     4  11  23  37  55  83 115 149 190 230 275 330
#     4   9  19  36  58  85 114 146 186 228 274 330
#     4   9  19  40  66  86 109 142 180 228 284 336
#     4  10  21  37  57  82 115 153 188 226 276 332
#
# _framework density 19.632546999999999
#
# number of rings (size 3 to 8) (size 9 to 14) (size 15 to 20)
#    0.000    1.800    0.000    6.600    0.000    6.400 
#    0.000    5.000    0.000    3.600    0.000    0.000 
#    0.000    0.000    0.000    0.000    0.000    0.000 
#
# Total GULP energy -496010.149611 kJ/mol
# GULP energy per Si atom -12400.253740 kJ/mol
# Density = 1.958786 g / cm^3
# Si number density = 19.632547 Si / 1000 Ang^3
#
#
#
# Elastic Constant Matrix: (Units=GPa)
#
#
# Indices 1 2 3 4 5 6 
#
# 1 93.7809 49.0111 57.0324 0.0000 0.0000 0.0000
# 2 49.0111 134.7494 41.6562 0.0000 0.0000 0.0000
# 3 57.0324 41.6562 143.3487 0.0000 0.0000 0.0000
# 4 0.0000 0.0000 0.0000 13.7457 0.0000 0.0000
# 5 0.0000 0.0000 0.0000 0.0000 12.8004 0.0000
# 6 0.0000 0.0000 0.0000 0.0000 0.0000 34.6295
#
#
#
# Elastic Compliance Matrix: (Units=1/GPa)
#
#
# Indices 1 2 3 4 5 6 
#
# 1 0.015997 -0.004231 -0.005135 0.000000 0.000000 0.000000
# 2 -0.004231 0.009273 -0.001011 0.000000 0.000000 0.000000
# 3 -0.005135 -0.001011 0.009313 0.000000 0.000000 0.000000
# 4 0.000000 0.000000 0.000000 0.072750 0.000000 0.000000
# 5 0.000000 0.000000 0.000000 0.000000 0.078123 0.000000
# 6 0.000000 0.000000 0.000000 0.000000 0.000000 0.028877
#
#
# Mechanical properties :
#
#
# Convention : Reuss Voigt Hill
#
# Bulk Modulus (GPa) = 72.31677 74.14207 73.22942
# Shear Modulus (GPa) = 20.85967 27.18040 24.02003
#
# Velocity S-wave (km/s) = 3.26314 3.72486 3.50162
# Velocity P-wave (km/s) = 7.14931 7.50642 7.33004
#
# Compressibility (1/GPa) = 0.01382805
#
# Stress axis : x y z
#
# Youngs Moduli (GPa) = 62.51066 107.84325 107.37789
#
# Poissons Ratio (x) = 0.45629 0.55140
# Poissons Ratio (y) = 0.26449 0.10858
# Poissons Ratio (z) = 0.32100 0.10905
#
# Static dielectric constant tensor:
#      x y z
#    x 3.725180 0.000000 0.000000 
#    y 0.000000 3.556350 0.000000 
#    z 0.000000 0.000000 3.406550 
# 
# 
# High freq. dielectric constant tensor:
#      x y z
#    x 1.776880 0.000000 0.000000 
#    y 0.000000 1.759790 0.000000 
#    z 0.000000 0.000000 1.741880 
# 
# From -- ./inp_files/50296.got.cif
#   From: 2010.03.12/outbox.cif.g09.slc.cpg/sg64_26_cif.got.tgz:50296.got - 2010.04.10 20:19:32.
