data_PCOD8263318
_publ_section_title
;
Structure prediction by ZEFSAII (Michael W. Deem and Ramdas Pophale) SiO2 
 PCOD8263318
Probable space group: C M C A
;
_chemical_formula_sum "Si O2"
_cell_formula_units_Z 72
_cell_length_a 15.708687
_cell_length_b 19.436547
_cell_length_c 10.543591
_cell_angle_alpha 90.000000
_cell_angle_beta 90.000000
_cell_angle_gamma 90.000000
_cell_volume 3219.196967
_symmetry_space_group_name_H-M "C M C A"
_symmetry_group_IT_number 64
_symmetry_cell_setting 'orthorhombic'
loop_
_space_group_symop_operation_xyz
x,y,z
-x,1/2-y,1/2+z
x,-y,-z
-x,1/2+y,1/2-z
-x,-y,-z
x,1/2+y,1/2-z
-x,y,z
x,1/2-y,1/2+z
1/2+x,1/2+y,z
1/2-x,-y,1/2+z
1/2+x,1/2-y,-z
1/2-x,y,1/2-z
1/2-x,1/2-y,-z
1/2+x,y,1/2-z
1/2-x,1/2+y,z
1/2+x,-y,1/2+z
loop_
_atom_site_type_symbol
_atom_site_label
_atom_site_fract_x
_atom_site_fract_y
_atom_site_fract_z
Si Si1 0.794281 0.080421 0.124166
Si Si2 0.902949 0.539626 0.735537
Si Si3 0.658221 0.000000 0.000000
Si Si4 0.400112 0.709003 0.051502
Si Si5 0.599708 0.805902 0.271412
O O1 0.750000 0.110118 0.250000
O O2 0.718503 0.065954 0.025481
O O3 0.860113 0.134415 0.069227
O O4 0.843485 0.008737 0.150667
O O5 0.901861 0.515979 0.881456
O O6 0.864345 0.616627 0.724683
O O7 0.000000 0.535784 0.685986
O O8 0.500000 0.699933 0.075184
O O9 0.360465 0.763005 0.153145
O O10 0.381494 0.732535 0.906040
O O11 0.500000 0.811427 0.246021
#
# Coordination Sequence:
#
# PCOD8263318 Si02
#       5
#    16  16   8  16  16
#     4  10  21  36  55  83 115 149 190 238 292 348
#     4  10  20  37  60  86 113 153 200 241 286 349
#     4  10  21  36  55  84 122 152 186 242 299 344
#     4  10  20  38  60  84 113 151 193 240 290 347
#     4   9  20  36  59  86 113 146 194 244 287 336
#
# _framework density 22.365826999999999
#
# number of rings (size 3 to 8) (size 9 to 14) (size 15 to 20)
#    0.000    2.222    0.000    2.333    0.000    3.556 
#    0.000   18.889    0.000    0.000    0.000    0.000 
#    0.000    0.000    0.000    0.000    0.000    0.000 
#
# Total GULP energy -446320.853165 kJ/mol
# GULP energy per Si atom -12397.801477 kJ/mol
# Density = 2.231492 g / cm^3
# Si number density = 22.365827 Si / 1000 Ang^3
#
#
#
# Elastic Constant Matrix: (Units=GPa)
#
#
# Indices 1 2 3 4 5 6 
#
# 1 44.3966 10.7026 10.5453 0.0000 0.0000 0.0000
# 2 10.7026 105.7562 32.8017 0.0000 0.0000 0.0000
# 3 10.5453 32.8017 93.3066 0.0000 0.0000 0.0000
# 4 0.0000 0.0000 0.0000 24.0358 0.0000 0.0000
# 5 0.0000 0.0000 0.0000 0.0000 13.5867 0.0000
# 6 0.0000 0.0000 0.0000 0.0000 0.0000 19.9298
#
#
#
# Elastic Compliance Matrix: (Units=1/GPa)
#
#
# Indices 1 2 3 4 5 6 
#
# 1 0.023427 -0.001739 -0.002036 0.000000 0.000000 0.000000
# 2 -0.001739 0.010742 -0.003580 0.000000 0.000000 0.000000
# 3 -0.002036 -0.003580 0.012206 0.000000 0.000000 0.000000
# 4 0.000000 0.000000 0.000000 0.041605 0.000000 0.000000
# 5 0.000000 0.000000 0.000000 0.000000 0.073601 0.000000
# 6 0.000000 0.000000 0.000000 0.000000 0.000000 0.050176
#
#
# Mechanical properties :
#
#
# Convention : Reuss Voigt Hill
#
# Bulk Modulus (GPa) = 31.58105 39.06209 35.32157
# Shear Modulus (GPa) = 21.09503 24.13779 22.61641
#
# Velocity S-wave (km/s) = 3.07446 3.28872 3.18339
# Velocity P-wave (km/s) = 5.17242 5.65013 5.41654
#
# Compressibility (1/GPa) = 0.03166456
#
# Stress axis : x y z
#
# Youngs Moduli (GPa) = 42.68548 93.09217 81.92724
#
# Poissons Ratio (x) = 0.16191 0.16682
# Poissons Ratio (y) = 0.07424 0.29328
# Poissons Ratio (z) = 0.08692 0.33325
#
# Static dielectric constant tensor:
#      x y z
#    x 3.738660 0.000000 0.000000 
#    y 0.000000 3.893140 0.000000 
#    z 0.000000 0.000000 4.344080 
# 
# 
# High freq. dielectric constant tensor:
#      x y z
#    x 1.866580 0.000000 0.000000 
#    y 0.000000 1.865530 0.000000 
#    z 0.000000 0.000000 1.897070 
# 
# From -- ./inp_files/15757.got.cif
#   From: 2010.03.12/outbox.cif.g09.slc.cpg/sg64_8_cif.got.tgz:15757.got - 2010.04.10 20:19:32.
