data_PCOD8263692
_publ_section_title
;
Structure prediction by ZEFSAII (Michael W. Deem and Ramdas Pophale) SiO2 
 PCOD8263692
Probable space group: C M C A
;
_chemical_formula_sum "Si O2"
_cell_formula_units_Z 96
_cell_length_a 22.069769
_cell_length_b 24.951162
_cell_length_c 8.576746
_cell_angle_alpha 90.000000
_cell_angle_beta 90.000000
_cell_angle_gamma 90.000000
_cell_volume 4722.925686
_symmetry_space_group_name_H-M "C M C A"
_symmetry_group_IT_number 64
_symmetry_cell_setting 'orthorhombic'
loop_
_space_group_symop_operation_xyz
x,y,z
-x,1/2-y,1/2+z
x,-y,-z
-x,1/2+y,1/2-z
-x,-y,-z
x,1/2+y,1/2-z
-x,y,z
x,1/2-y,1/2+z
1/2+x,1/2+y,z
1/2-x,-y,1/2+z
1/2+x,1/2-y,-z
1/2-x,y,1/2-z
1/2-x,1/2-y,-z
1/2+x,y,1/2-z
1/2-x,1/2+y,z
1/2+x,-y,1/2+z
loop_
_atom_site_type_symbol
_atom_site_label
_atom_site_fract_x
_atom_site_fract_y
_atom_site_fract_z
Si Si1 0.000000 0.757021 0.019522
Si Si2 0.071699 0.111829 0.317721
Si Si3 0.682519 0.198696 0.704000
Si Si4 0.000000 0.675058 0.790299
Si Si5 0.569925 0.497148 0.181188
Si Si6 0.377242 0.294873 0.881355
Si Si7 0.390131 0.391987 0.326348
O O1 0.000000 0.766111 0.206270
O O2 0.941118 0.786729 0.960791
O O3 0.000000 0.693334 0.974661
O O4 0.115059 0.153704 0.229526
O O5 0.093833 0.109976 0.493833
O O6 0.000000 0.124103 0.301079
O O7 0.087337 0.053852 0.251156
O O8 0.750000 0.215625 0.750000
O O9 0.673260 0.195721 0.516513
O O10 0.638510 0.243691 0.775804
O O11 0.670725 0.140422 0.783577
O O12 0.057175 0.640621 0.736743
O O13 0.500000 0.482263 0.214988
O O14 0.612218 0.452397 0.262263
O O15 0.584318 0.500000 0.000000
#
# Coordination Sequence:
#
# PCOD8263692 Si02
#       7
#     8  16  16   8  16  16  16
#     4  12  22  36  57  94 128 155 197 258 331 386
#     4  11  23  36  63  98 133 162 197 253 335 405
#     4  12  27  44  63  87 124 175 223 266 307 369
#     4  12  24  34  59  91 131 166 200 255 333 379
#     4  10  21  36  59  94 134 166 199 252 327 403
#     4  12  23  40  63  91 128 163 208 260 325 386
#     4  12  22  39  62  89 129 168 211 263 318 388
#
# _framework density 20.326384000000001
#
# number of rings (size 3 to 8) (size 9 to 14) (size 15 to 20)
#    0.000    0.500    5.833    3.000    2.333    1.333 
#    0.000    0.000    0.000    7.000    0.000    0.000 
#    0.000    0.000    0.000    0.000    0.000    0.000 
#
# Total GULP energy -595155.208196 kJ/mol
# GULP energy per Si atom -12399.066837 kJ/mol
# Density = 2.028012 g / cm^3
# Si number density = 20.326384 Si / 1000 Ang^3
#
#
#
# Elastic Constant Matrix: (Units=GPa)
#
#
# Indices 1 2 3 4 5 6 
#
# 1 55.8378 25.6696 29.2922 0.0000 0.0000 0.0000
# 2 25.6696 145.6671 61.4305 0.0000 0.0000 0.0000
# 3 29.2922 61.4305 111.1055 0.0000 0.0000 0.0000
# 4 0.0000 0.0000 0.0000 43.5416 0.0000 0.0000
# 5 0.0000 0.0000 0.0000 0.0000 23.4220 0.0000
# 6 0.0000 0.0000 0.0000 0.0000 0.0000 13.9153
#
#
#
# Elastic Compliance Matrix: (Units=1/GPa)
#
#
# Indices 1 2 3 4 5 6 
#
# 1 0.021136 -0.001793 -0.004581 0.000000 0.000000 0.000000
# 2 -0.001793 0.009104 -0.004561 0.000000 0.000000 0.000000
# 3 -0.004581 -0.004561 0.012730 0.000000 0.000000 0.000000
# 4 0.000000 0.000000 0.000000 0.022967 0.000000 0.000000
# 5 0.000000 0.000000 0.000000 0.000000 0.042695 0.000000
# 6 0.000000 0.000000 0.000000 0.000000 0.000000 0.071864
#
#
# Mechanical properties :
#
#
# Convention : Reuss Voigt Hill
#
# Bulk Modulus (GPa) = 47.39187 60.59945 53.99566
# Shear Modulus (GPa) = 23.87774 29.25699 26.56737
#
# Velocity S-wave (km/s) = 3.43113 3.79801 3.61922
# Velocity P-wave (km/s) = 6.25004 7.00793 6.63980
#
# Compressibility (1/GPa) = 0.02110066
#
# Stress axis : x y z
#
# Youngs Moduli (GPa) = 47.31162 109.83659 78.55328
#
# Poissons Ratio (x) = 0.19690 0.35988
# Poissons Ratio (y) = 0.08481 0.35830
# Poissons Ratio (z) = 0.21675 0.50099
#
# Static dielectric constant tensor:
#      x y z
#    x 3.372480 0.000000 0.000000 
#    y 0.000000 2.979650 0.000000 
#    z 0.000000 0.000000 3.776070 
# 
# 
# High freq. dielectric constant tensor:
#      x y z
#    x 1.751010 0.000000 0.000000 
#    y 0.000000 1.804070 0.000000 
#    z 0.000000 0.000000 1.815530 
# 
# From -- ./inp_files/9514.got.cif
#   From: 2010.03.12/outbox.cif.g09.slc.cpg/sg64_5_cif.got.tgz:9514.got - 2010.04.10 20:19:32.
