data_PCOD8263365
_publ_section_title
;
Structure prediction by ZEFSAII (Michael W. Deem and Ramdas Pophale) SiO2 
 PCOD8263365
Probable space group: C M C A
;
_chemical_formula_sum "Si O2"
_cell_formula_units_Z 64
_cell_length_a 12.809246
_cell_length_b 22.521057
_cell_length_c 8.910556
_cell_angle_alpha 90.000000
_cell_angle_beta 90.000000
_cell_angle_gamma 90.000000
_cell_volume 2570.497229
_symmetry_space_group_name_H-M "C M C A"
_symmetry_group_IT_number 64
_symmetry_cell_setting 'orthorhombic'
loop_
_space_group_symop_operation_xyz
x,y,z
-x,1/2-y,1/2+z
x,-y,-z
-x,1/2+y,1/2-z
-x,-y,-z
x,1/2+y,1/2-z
-x,y,z
x,1/2-y,1/2+z
1/2+x,1/2+y,z
1/2-x,-y,1/2+z
1/2+x,1/2-y,-z
1/2-x,y,1/2-z
1/2-x,1/2-y,-z
1/2+x,y,1/2-z
1/2-x,1/2+y,z
1/2+x,-y,1/2+z
loop_
_atom_site_type_symbol
_atom_site_label
_atom_site_fract_x
_atom_site_fract_y
_atom_site_fract_z
Si Si1 0.177884 0.565691 0.030252
Si Si2 0.878740 0.215875 0.978230
Si Si3 0.114410 0.899814 0.849636
Si Si4 0.875194 0.326375 0.158386
O O1 0.117948 0.594606 0.170319
O O2 0.300758 0.559129 0.068250
O O3 0.133365 0.500000 0.000000
O O4 0.158902 0.607107 0.885872
O O5 0.828507 0.189403 0.824265
O O6 0.000000 0.227474 0.945788
O O7 0.863141 0.168859 0.112275
O O8 0.829936 0.278829 0.035358
O O9 0.000000 0.918842 0.908524
O O10 0.000000 0.322478 0.164428
#
# Coordination Sequence:
#
# PCOD8263365 Si02
#       4
#    16  16  16  16
#     4  11  25  42  64  95 128 169 217 257 308 380
#     4   9  19  37  65  99 130 166 211 262 326 383
#     4  10  23  44  66  90 125 165 209 264 317 370
#     4  10  20  37  64  98 134 167 208 264 318 376
#
# _framework density 24.897905000000002
#
# number of rings (size 3 to 8) (size 9 to 14) (size 15 to 20)
#    0.000    2.000    0.000    2.250    0.000   12.500 
#    0.000    2.500    0.000    0.000    0.000    0.000 
#    0.000    0.000    0.000    0.000    0.000    0.000 
#
# Total GULP energy -396945.216854 kJ/mol
# GULP energy per Si atom -12404.538027 kJ/mol
# Density = 2.484124 g / cm^3
# Si number density = 24.897905 Si / 1000 Ang^3
#
#
#
# Elastic Constant Matrix: (Units=GPa)
#
#
# Indices 1 2 3 4 5 6 
#
# 1 60.8425 26.9284 34.8133 0.0000 0.0000 0.0000
# 2 26.9284 195.2853 105.6356 0.0000 0.0000 0.0000
# 3 34.8133 105.6356 168.9888 0.0000 0.0000 0.0000
# 4 0.0000 0.0000 0.0000 39.5340 0.0000 0.0000
# 5 0.0000 0.0000 0.0000 0.0000 32.9869 0.0000
# 6 0.0000 0.0000 0.0000 0.0000 0.0000 23.9026
#
#
#
# Elastic Compliance Matrix: (Units=1/GPa)
#
#
# Indices 1 2 3 4 5 6 
#
# 1 0.018704 -0.000748 -0.003386 0.000000 0.000000 0.000000
# 2 -0.000748 0.007767 -0.004701 0.000000 0.000000 0.000000
# 3 -0.003386 -0.004701 0.009554 0.000000 0.000000 0.000000
# 4 0.000000 0.000000 0.000000 0.025295 0.000000 0.000000
# 5 0.000000 0.000000 0.000000 0.000000 0.030315 0.000000
# 6 0.000000 0.000000 0.000000 0.000000 0.000000 0.041836
#
#
# Mechanical properties :
#
#
# Convention : Reuss Voigt Hill
#
# Bulk Modulus (GPa) = 54.47954 84.43014 69.45484
# Shear Modulus (GPa) = 31.79485 36.46732 34.13109
#
# Velocity S-wave (km/s) = 3.57740 3.83126 3.70650
# Velocity P-wave (km/s) = 6.24439 7.31817 6.80250
#
# Compressibility (1/GPa) = 0.01835551
#
# Stress axis : x y z
#
# Youngs Moduli (GPa) = 53.46416 128.75471 104.67171
#
# Poissons Ratio (x) = 0.09626 0.35441
# Poissons Ratio (y) = 0.03997 0.49206
# Poissons Ratio (z) = 0.18102 0.60527
#
# Static dielectric constant tensor:
#      x y z
#    x 4.757350 0.000000 0.000000 
#    y 0.000000 4.143970 0.000000 
#    z 0.000000 0.000000 4.477850 
# 
# 
# High freq. dielectric constant tensor:
#      x y z
#    x 2.028660 0.000000 0.000000 
#    y 0.000000 1.969850 0.000000 
#    z 0.000000 0.000000 1.988340 
# 
# From -- ./inp_files/5573.got.cif
#   From: 2010.03.12/outbox.cif.g09.slc.cpg/sg64_3_cif.got.tgz:5573.got - 2010.04.10 20:19:32.
