data_PCOD8263800
_publ_section_title
;
Structure prediction by ZEFSAII (Michael W. Deem and Ramdas Pophale) SiO2 
 PCOD8263800
Probable space group: C M C A
;
_chemical_formula_sum "Si O2"
_cell_formula_units_Z 96
_cell_length_a 28.216899
_cell_length_b 8.847369
_cell_length_c 16.803111
_cell_angle_alpha 90.000000
_cell_angle_beta 90.000000
_cell_angle_gamma 90.000000
_cell_volume 4194.817980
_symmetry_space_group_name_H-M "C M C A"
_symmetry_group_IT_number 64
_symmetry_cell_setting 'orthorhombic'
loop_
_space_group_symop_operation_xyz
x,y,z
-x,1/2-y,1/2+z
x,-y,-z
-x,1/2+y,1/2-z
-x,-y,-z
x,1/2+y,1/2-z
-x,y,z
x,1/2-y,1/2+z
1/2+x,1/2+y,z
1/2-x,-y,1/2+z
1/2+x,1/2-y,-z
1/2-x,y,1/2-z
1/2-x,1/2-y,-z
1/2+x,y,1/2-z
1/2-x,1/2+y,z
1/2+x,-y,1/2+z
loop_
_atom_site_type_symbol
_atom_site_label
_atom_site_fract_x
_atom_site_fract_y
_atom_site_fract_z
Si Si1 0.208641 0.360880 0.395523
Si Si2 0.302286 0.789478 0.576662
Si Si3 0.110995 0.078788 0.585770
Si Si4 0.052961 0.278206 0.681866
Si Si5 0.119423 0.279995 0.830177
Si Si6 0.946403 0.070328 0.918477
O O1 0.262740 0.312663 0.378102
O O2 0.201933 0.540333 0.391644
O O3 0.199971 0.286633 0.481462
O O4 0.172095 0.291700 0.331193
O O5 0.352094 0.715071 0.596564
O O6 0.061299 0.159027 0.609398
O O7 0.109463 0.000000 0.500000
O O8 0.123934 0.956649 0.652764
O O9 0.092963 0.249213 0.747640
O O10 0.056503 0.449480 0.652211
O O11 0.000000 0.248774 0.716214
O O12 0.087953 0.209295 0.901050
O O13 0.000000 0.129679 0.930053
O O14 0.926933 0.000000 0.000000
#
# Coordination Sequence:
#
# PCOD8263800 Si02
#       6
#    16  16  16  16  16  16
#     4  10  21  37  67  99 139 181 223 274 340 406
#     4  10  21  39  64 102 137 175 227 281 334 401
#     4  12  24  41  67 103 138 175 231 293 343 413
#     4  11  26  46  66  94 136 181 227 287 357 424
#     4  12  23  38  65  96 133 182 225 280 348 410
#     4  10  22  41  64  90 124 174 232 283 341 412
#
# _framework density 22.885379
#
# number of rings (size 3 to 8) (size 9 to 14) (size 15 to 20)
#    0.000    1.167    1.667    4.500    4.667    3.000 
#    0.000    0.833    0.000    4.000    0.000    0.000 
#    0.000    0.000    0.000    0.000    0.000    0.000 
#
# Total GULP energy -595215.119661 kJ/mol
# GULP energy per Si atom -12400.314993 kJ/mol
# Density = 2.283329 g / cm^3
# Si number density = 22.885379 Si / 1000 Ang^3
#
#
#
# Elastic Constant Matrix: (Units=GPa)
#
#
# Indices 1 2 3 4 5 6 
#
# 1 101.5545 36.8383 52.6713 0.0000 0.0000 0.0000
# 2 36.8383 117.3626 24.2668 0.0000 0.0000 0.0000
# 3 52.6713 24.2668 65.7572 0.0000 0.0000 0.0000
# 4 0.0000 0.0000 0.0000 27.8618 0.0000 0.0000
# 5 0.0000 0.0000 0.0000 0.0000 39.2901 0.0000
# 6 0.0000 0.0000 0.0000 0.0000 0.0000 33.1669
#
#
#
# Elastic Compliance Matrix: (Units=1/GPa)
#
#
# Indices 1 2 3 4 5 6 
#
# 1 0.017677 -0.002837 -0.013112 0.000000 0.000000 0.000000
# 2 -0.002837 0.009680 -0.001300 0.000000 0.000000 0.000000
# 3 -0.013112 -0.001300 0.026190 0.000000 0.000000 0.000000
# 4 0.000000 0.000000 0.000000 0.035891 0.000000 0.000000
# 5 0.000000 0.000000 0.000000 0.000000 0.025452 0.000000
# 6 0.000000 0.000000 0.000000 0.000000 0.000000 0.030151
#
#
# Mechanical properties :
#
#
# Convention : Reuss Voigt Hill
#
# Bulk Modulus (GPa) = 52.49709 56.91412 54.70561
# Shear Modulus (GPa) = 26.89812 31.45695 29.17754
#
# Velocity S-wave (km/s) = 3.43204 3.71151 3.57451
# Velocity P-wave (km/s) = 6.22046 6.57953 6.40252
#
# Compressibility (1/GPa) = 0.01904867
#
# Stress axis : x y z
#
# Youngs Moduli (GPa) = 56.57204 103.30684 38.18321
#
# Poissons Ratio (x) = 0.29311 0.50065
# Poissons Ratio (y) = 0.16051 0.04962
# Poissons Ratio (z) = 0.74176 0.13425
#
# Static dielectric constant tensor:
#      x y z
#    x 4.235040 0.000000 0.000000 
#    y 0.000000 4.145540 0.000000 
#    z 0.000000 0.000000 3.826430 
# 
# 
# High freq. dielectric constant tensor:
#      x y z
#    x 1.910130 0.000000 0.000000 
#    y 0.000000 1.914520 0.000000 
#    z 0.000000 0.000000 1.883680 
# 
# From -- ./inp_files/41824.got.cif
#   From: 2010.03.12/outbox.cif.g09.slc.cpg/sg64_21_cif.got.tgz:41824.got - 2010.04.10 20:19:32.
