data_PCOD8263286
_publ_section_title
;
Structure prediction by ZEFSAII (Michael W. Deem and Ramdas Pophale) SiO2 
 PCOD8263286
Probable space group: C M C A
;
_chemical_formula_sum "Si O2"
_cell_formula_units_Z 80
_cell_length_a 8.753393
_cell_length_b 14.634349
_cell_length_c 29.889097
_cell_angle_alpha 90.000000
_cell_angle_beta 90.000000
_cell_angle_gamma 90.000000
_cell_volume 3828.799546
_symmetry_space_group_name_H-M "C M C A"
_symmetry_group_IT_number 64
_symmetry_cell_setting 'orthorhombic'
loop_
_space_group_symop_operation_xyz
x,y,z
-x,1/2-y,1/2+z
x,-y,-z
-x,1/2+y,1/2-z
-x,-y,-z
x,1/2+y,1/2-z
-x,y,z
x,1/2-y,1/2+z
1/2+x,1/2+y,z
1/2-x,-y,1/2+z
1/2+x,1/2-y,-z
1/2-x,y,1/2-z
1/2-x,1/2-y,-z
1/2+x,y,1/2-z
1/2-x,1/2+y,z
1/2+x,-y,1/2+z
loop_
_atom_site_type_symbol
_atom_site_label
_atom_site_fract_x
_atom_site_fract_y
_atom_site_fract_z
Si Si1 0.822670 0.390120 0.633302
Si Si2 0.325914 0.838645 0.442529
Si Si3 0.178861 0.683857 0.854145
Si Si4 0.818839 0.036622 0.797555
Si Si5 0.823156 0.651175 0.461700
O O1 0.759933 0.288015 0.643070
O O2 0.748746 0.464238 0.666502
O O3 0.793827 0.416765 0.580700
O O4 0.000000 0.389795 0.644267
O O5 0.500000 0.850899 0.426579
O O6 0.220681 0.868289 0.400802
O O7 0.294007 0.734155 0.455981
O O8 0.296755 0.895421 0.489211
O O9 0.263482 0.636791 0.812568
O O10 0.000000 0.677846 0.846005
O O11 0.750000 0.010216 0.750000
O O12 0.000000 0.035263 0.794649
O O13 0.000000 0.686543 0.458514
#
# Coordination Sequence:
#
# PCOD8263286 Si02
#       5
#    16  16  16  16  16
#     4   8  17  35  58  80 106 142 181 220 264 317
#     4   9  15  25  47  79 110 142 180 220 263 313
#     4  10  20  37  58  81 111 146 181 219 265 318
#     4  11  23  40  59  80 105 135 176 225 275 324
#     4   8  14  27  48  75 108 145 182 219 262 315
#
# _framework density 20.894278
#
# number of rings (size 3 to 8) (size 9 to 14) (size 15 to 20)
#    0.000    2.800    0.000    3.000    0.000    1.600 
#    0.000   13.000    0.000    6.000    0.000    0.000 
#    0.000    0.000    0.000    0.000    0.000    0.000 
#
# Total GULP energy -495551.020259 kJ/mol
# GULP energy per Si atom -12388.775506 kJ/mol
# Density = 2.084672 g / cm^3
# Si number density = 20.894278 Si / 1000 Ang^3
#
#
#
# Elastic Constant Matrix: (Units=GPa)
#
#
# Indices 1 2 3 4 5 6 
#
# 1 57.2014 12.3981 26.1739 0.0000 0.0000 0.0000
# 2 12.3981 31.9336 24.1654 0.0000 0.0000 0.0000
# 3 26.1739 24.1654 130.5227 0.0000 0.0000 0.0000
# 4 0.0000 0.0000 0.0000 32.8145 0.0000 0.0000
# 5 0.0000 0.0000 0.0000 0.0000 37.0534 0.0000
# 6 0.0000 0.0000 0.0000 0.0000 0.0000 14.9295
#
#
#
# Elastic Compliance Matrix: (Units=1/GPa)
#
#
# Indices 1 2 3 4 5 6 
#
# 1 0.020050 -0.005514 -0.003000 0.000000 0.000000 0.000000
# 2 -0.005514 0.037934 -0.005917 0.000000 0.000000 0.000000
# 3 -0.003000 -0.005917 0.009359 0.000000 0.000000 0.000000
# 4 0.000000 0.000000 0.000000 0.030474 0.000000 0.000000
# 5 0.000000 0.000000 0.000000 0.000000 0.026988 0.000000
# 6 0.000000 0.000000 0.000000 0.000000 0.000000 0.066981
#
#
# Mechanical properties :
#
#
# Convention : Reuss Voigt Hill
#
# Bulk Modulus (GPa) = 25.98785 38.34807 32.16796
# Shear Modulus (GPa) = 21.41553 27.42083 24.41818
#
# Velocity S-wave (km/s) = 3.20495 3.62658 3.42227
# Velocity P-wave (km/s) = 5.11473 5.99411 5.57179
#
# Compressibility (1/GPa) = 0.03847952
#
# Stress axis : x y z
#
# Youngs Moduli (GPa) = 49.87568 26.36167 106.85353
#
# Poissons Ratio (x) = 0.14537 0.32053
# Poissons Ratio (y) = 0.27503 0.63230
# Poissons Ratio (z) = 0.14961 0.15599
#
# Static dielectric constant tensor:
#      x y z
#    x 3.508000 0.000000 0.000000 
#    y 0.000000 3.553000 0.000000 
#    z 0.000000 0.000000 4.248850 
# 
# 
# High freq. dielectric constant tensor:
#      x y z
#    x 1.795390 0.000000 0.000000 
#    y 0.000000 1.780300 0.000000 
#    z 0.000000 0.000000 1.836700 
# 
# From -- ./inp_files/51745.got.cif
#   From: 2010.03.12/outbox.cif.g09.slc.cpg/sg64_26_cif.got.tgz:51745.got - 2010.04.10 20:19:32.
