data_PCOD8263703
_publ_section_title
;
Structure prediction by ZEFSAII (Michael W. Deem and Ramdas Pophale) SiO2 
 PCOD8263703
Probable space group: C M C A
;
_chemical_formula_sum "Si O2"
_cell_formula_units_Z 112
_cell_length_a 18.187761
_cell_length_b 22.306526
_cell_length_c 13.558581
_cell_angle_alpha 90.000000
_cell_angle_beta 90.000000
_cell_angle_gamma 90.000000
_cell_volume 5500.794458
_symmetry_space_group_name_H-M "C M C A"
_symmetry_group_IT_number 64
_symmetry_cell_setting 'orthorhombic'
loop_
_space_group_symop_operation_xyz
x,y,z
-x,1/2-y,1/2+z
x,-y,-z
-x,1/2+y,1/2-z
-x,-y,-z
x,1/2+y,1/2-z
-x,y,z
x,1/2-y,1/2+z
1/2+x,1/2+y,z
1/2-x,-y,1/2+z
1/2+x,1/2-y,-z
1/2-x,y,1/2-z
1/2-x,1/2-y,-z
1/2+x,y,1/2-z
1/2-x,1/2+y,z
1/2+x,-y,1/2+z
loop_
_atom_site_type_symbol
_atom_site_label
_atom_site_fract_x
_atom_site_fract_y
_atom_site_fract_z
Si Si1 0.915192 0.458296 0.216688
Si Si2 0.821201 0.177912 0.191027
Si Si3 0.585944 0.091586 0.174036
Si Si4 0.078604 0.283700 0.152540
Si Si5 0.781459 0.818277 0.013177
Si Si6 0.359753 0.113397 0.957600
Si Si7 0.583217 0.645838 0.853871
O O1 0.901708 0.528960 0.231229
O O2 0.868841 0.440200 0.120218
O O3 0.893766 0.421550 0.316564
O O4 0.000000 0.444423 0.192020
O O5 0.750000 0.198615 0.250000
O O6 0.877720 0.141275 0.256855
O O7 0.857432 0.236332 0.143571
O O8 0.794025 0.146506 0.090979
O O9 0.500000 0.106123 0.160895
O O10 0.625346 0.090424 0.068054
O O11 0.083886 0.332926 0.066263
O O12 0.083756 0.313756 0.258161
O O13 0.000000 0.251341 0.140030
O O14 0.720930 0.859985 0.063975
O O15 0.858278 0.823584 0.072675
O O16 0.750000 0.750000 0.000000
O O17 0.500000 0.645037 0.900391
#
# Coordination Sequence:
#
# PCOD8263703 Si02
#       7
#    16  16  16  16  16  16  16
#     4   9  20  42  67  93 124 161 213 264 307 364
#     4  12  24  41  57  85 129 162 206 256 312 378
#     4  11  23  41  65  91 125 166 205 260 318 365
#     4  10  21  36  61  91 121 160 209 257 304 372
#     4  12  24  42  60  90 129 168 201 250 318 376
#     4  11  21  38  63  96 126 161 207 256 315 369
#     4   9  21  41  64  91 120 161 214 258 302 368
#
# _framework density 20.360696000000001
#
# number of rings (size 3 to 8) (size 9 to 14) (size 15 to 20)
#    0.000    1.429    2.857    3.857    0.000    4.000 
#    2.571    0.714    0.000    2.571    0.000    0.000 
#    0.000    0.000    0.000    0.000    0.000    0.000 
#
# Total GULP energy -693946.774735 kJ/mol
# GULP energy per Si atom -12391.906692 kJ/mol
# Density = 2.031435 g / cm^3
# Si number density = 20.360696 Si / 1000 Ang^3
#
#
#
# Elastic Constant Matrix: (Units=GPa)
#
#
# Indices 1 2 3 4 5 6 
#
# 1 113.3152 30.7696 32.3987 0.0000 0.0000 0.0000
# 2 30.7696 72.9919 16.8059 0.0000 0.0000 0.0000
# 3 32.3987 16.8059 80.1644 0.0000 0.0000 0.0000
# 4 0.0000 0.0000 0.0000 20.6384 0.0000 0.0000
# 5 0.0000 0.0000 0.0000 0.0000 18.8392 0.0000
# 6 0.0000 0.0000 0.0000 0.0000 0.0000 39.6464
#
#
#
# Elastic Compliance Matrix: (Units=1/GPa)
#
#
# Indices 1 2 3 4 5 6 
#
# 1 0.010876 -0.003754 -0.003609 0.000000 0.000000 0.000000
# 2 -0.003754 0.015691 -0.001772 0.000000 0.000000 0.000000
# 3 -0.003609 -0.001772 0.014304 0.000000 0.000000 0.000000
# 4 0.000000 0.000000 0.000000 0.048453 0.000000 0.000000
# 5 0.000000 0.000000 0.000000 0.000000 0.053081 0.000000
# 6 0.000000 0.000000 0.000000 0.000000 0.000000 0.025223
#
#
# Mechanical properties :
#
#
# Convention : Reuss Voigt Hill
#
# Bulk Modulus (GPa) = 44.24499 47.38000 45.81249
# Shear Modulus (GPa) = 25.84890 28.25794 27.05342
#
# Velocity S-wave (km/s) = 3.56694 3.72945 3.64910
# Velocity P-wave (km/s) = 6.22429 6.47039 6.34853
#
# Compressibility (1/GPa) = 0.02260143
#
# Stress axis : x y z
#
# Youngs Moduli (GPa) = 91.94525 63.73218 69.90886
#
# Poissons Ratio (x) = 0.23925 0.25227
# Poissons Ratio (y) = 0.34515 0.12390
# Poissons Ratio (z) = 0.33179 0.11295
#
# Static dielectric constant tensor:
#      x y z
#    x 3.924730 0.000000 0.000000 
#    y 0.000000 3.754910 0.000000 
#    z 0.000000 0.000000 3.704960 
# 
# 
# High freq. dielectric constant tensor:
#      x y z
#    x 1.807810 0.000000 0.000000 
#    y 0.000000 1.782650 0.000000 
#    z 0.000000 0.000000 1.789910 
# 
# From -- ./inp_files/24237.got.cif
#   From: 2010.03.12/outbox.cif.g09.slc.cpg/sg64_13_cif.got.tgz:24237.got - 2010.04.10 20:19:32.
