data_PCOD8263127
_publ_section_title
;
Structure prediction by ZEFSAII (Michael W. Deem and Ramdas Pophale) SiO2 
 PCOD8263127
Probable space group: C M C A
;
_chemical_formula_sum "Si O2"
_cell_formula_units_Z 96
_cell_length_a 24.314736
_cell_length_b 24.178096
_cell_length_c 7.993073
_cell_angle_alpha 90.000000
_cell_angle_beta 90.000000
_cell_angle_gamma 90.000000
_cell_volume 4698.999897
_symmetry_space_group_name_H-M "C M C A"
_symmetry_group_IT_number 64
_symmetry_cell_setting 'orthorhombic'
loop_
_space_group_symop_operation_xyz
x,y,z
-x,1/2-y,1/2+z
x,-y,-z
-x,1/2+y,1/2-z
-x,-y,-z
x,1/2+y,1/2-z
-x,y,z
x,1/2-y,1/2+z
1/2+x,1/2+y,z
1/2-x,-y,1/2+z
1/2+x,1/2-y,-z
1/2-x,y,1/2-z
1/2-x,1/2-y,-z
1/2+x,y,1/2-z
1/2-x,1/2+y,z
1/2+x,-y,1/2+z
loop_
_atom_site_type_symbol
_atom_site_label
_atom_site_fract_x
_atom_site_fract_y
_atom_site_fract_z
Si Si1 0.559122 0.020468 0.686213
Si Si2 0.061770 0.206915 0.987460
Si Si3 0.438474 0.824491 0.871834
Si Si4 0.750000 0.583449 0.750000
Si Si5 0.873802 0.925122 0.714679
Si Si6 0.295475 0.000000 0.000000
Si Si7 0.360385 0.111893 0.594598
O O1 0.500000 0.044073 0.747628
O O2 0.606626 0.066258 0.702634
O O3 0.553471 0.000000 0.500000
O O4 0.573535 0.965354 0.788034
O O5 0.081010 0.270635 0.974334
O O6 0.105247 0.168606 0.889784
O O7 0.000000 0.200373 0.909408
O O8 0.060207 0.189755 0.177725
O O9 0.500000 0.842814 0.928304
O O10 0.393084 0.872658 0.897243
O O11 0.741770 0.543704 0.593869
O O12 0.697810 0.620679 0.808863
O O13 0.827220 0.961025 0.629192
O O14 0.853922 0.907082 0.900919
#
# Coordination Sequence:
#
# PCOD8263127 Si02
#       7
#    16  16  16   8  16   8  16
#     4   9  16  30  53  81 111 143 179 217 271 337
#     4   9  18  34  58  86 114 148 189 228 280 336
#     4   9  18  34  58  86 118 151 182 226 278 342
#     4  12  24  38  58  78 112 148 200 238 282 340
#     4  10  20  36  56  84 116 148 186 228 291 338
#     4  12  24  38  57  80 111 154 188 240 284 340
#     4  10  20  36  58  83 107 152 193 238 276 336
#
# _framework density 20.429879
#
# number of rings (size 3 to 8) (size 9 to 14) (size 15 to 20)
#    0.000    2.167    1.667    2.000    1.167    5.333 
#    0.000    1.667    0.000   10.000    0.000    0.000 
#    0.000    0.000    0.000    0.000    0.000    0.000 
#
# Total GULP energy -594772.409914 kJ/mol
# GULP energy per Si atom -12391.091873 kJ/mol
# Density = 2.038338 g / cm^3
# Si number density = 20.429879 Si / 1000 Ang^3
#
#
#
# Elastic Constant Matrix: (Units=GPa)
#
#
# Indices 1 2 3 4 5 6 
#
# 1 100.1683 24.0091 13.3726 0.0000 0.0000 0.0000
# 2 24.0091 83.1320 5.2624 0.0000 0.0000 0.0000
# 3 13.3726 5.2624 20.9093 0.0000 0.0000 0.0000
# 4 0.0000 0.0000 0.0000 20.8214 0.0000 0.0000
# 5 0.0000 0.0000 0.0000 0.0000 30.5871 0.0000
# 6 0.0000 0.0000 0.0000 0.0000 0.0000 11.4413
#
#
#
# Elastic Compliance Matrix: (Units=1/GPa)
#
#
# Indices 1 2 3 4 5 6 
#
# 1 0.011573 -0.002920 -0.006667 0.000000 0.000000 0.000000
# 2 -0.002920 0.012961 -0.001394 0.000000 0.000000 0.000000
# 3 -0.006667 -0.001394 0.052440 0.000000 0.000000 0.000000
# 4 0.000000 0.000000 0.000000 0.048028 0.000000 0.000000
# 5 0.000000 0.000000 0.000000 0.000000 0.032694 0.000000
# 6 0.000000 0.000000 0.000000 0.000000 0.000000 0.087403
#
#
# Mechanical properties :
#
#
# Convention : Reuss Voigt Hill
#
# Bulk Modulus (GPa) = 18.17794 32.16641 25.17218
# Shear Modulus (GPa) = 17.51939 23.34099 20.43019
#
# Velocity S-wave (km/s) = 2.93155 3.38374 3.16573
# Velocity P-wave (km/s) = 4.51394 5.57183 5.07055
#
# Compressibility (1/GPa) = 0.05501172
#
# Stress axis : x y z
#
# Youngs Moduli (GPa) = 86.40656 77.15609 19.06930
#
# Poissons Ratio (x) = 0.22533 0.12713
# Poissons Ratio (y) = 0.25234 0.02659
# Poissons Ratio (z) = 0.57605 0.10757
#
# Static dielectric constant tensor:
#      x y z
#    x 3.854260 0.000000 0.000000 
#    y 0.000000 3.776720 0.000000 
#    z 0.000000 0.000000 3.379660 
# 
# 
# High freq. dielectric constant tensor:
#      x y z
#    x 1.786140 0.000000 0.000000 
#    y 0.000000 1.791310 0.000000 
#    z 0.000000 0.000000 1.788930 
# 
# From -- ./inp_files/9553.got.cif
#   From: 2010.03.12/outbox.cif.g09.slc.cpg/sg64_5_cif.got.tgz:9553.got - 2010.04.10 20:19:32.
