data_PCOD8263563
_publ_section_title
;
Structure prediction by ZEFSAII (Michael W. Deem and Ramdas Pophale) SiO2 
 PCOD8263563
Probable space group: C M C A
;
_chemical_formula_sum "Si O2"
_cell_formula_units_Z 64
_cell_length_a 22.033510
_cell_length_b 25.509421
_cell_length_c 4.932851
_cell_angle_alpha 90.000000
_cell_angle_beta 90.000000
_cell_angle_gamma 90.000000
_cell_volume 2772.568507
_symmetry_space_group_name_H-M "C M C A"
_symmetry_group_IT_number 64
_symmetry_cell_setting 'orthorhombic'
loop_
_space_group_symop_operation_xyz
x,y,z
-x,1/2-y,1/2+z
x,-y,-z
-x,1/2+y,1/2-z
-x,-y,-z
x,1/2+y,1/2-z
-x,y,z
x,1/2-y,1/2+z
1/2+x,1/2+y,z
1/2-x,-y,1/2+z
1/2+x,1/2-y,-z
1/2-x,y,1/2-z
1/2-x,1/2-y,-z
1/2+x,y,1/2-z
1/2-x,1/2+y,z
1/2+x,-y,1/2+z
loop_
_atom_site_type_symbol
_atom_site_label
_atom_site_fract_x
_atom_site_fract_y
_atom_site_fract_z
Si Si1 0.500000 0.283394 0.027009
Si Si2 0.869407 0.286317 0.582859
Si Si3 0.814558 0.893228 0.881230
Si Si4 0.500000 0.037597 0.751243
Si Si5 0.871679 0.558837 0.888970
O O1 0.500000 0.229907 0.845891
O O2 0.563074 0.312599 0.952035
O O3 0.859717 0.238349 0.377556
O O4 0.820536 0.332282 0.533944
O O5 0.750000 0.906508 0.750000
O O6 0.863830 0.903388 0.645939
O O7 0.823930 0.929464 0.147016
O O8 0.438390 0.071576 0.764017
O O9 0.500000 0.000000 0.500000
O O10 0.500000 0.000000 0.000000
O O11 0.863056 0.500000 0.000000
#
# Coordination Sequence:
#
# PCOD8263563 Si02
#       5
#     8  16  16   8  16
#     4   8  16  32  56  86 119 156 203 253 316 381
#     4  10  21  39  62  90 126 165 207 266 322 369
#     4  12  26  42  64  96 130 174 227 256 304 393
#     4  10  20  40  68  96 124 158 208 265 330 393
#     4  11  24  44  67  94 129 167 210 272 329 375
#
# _framework density 23.083289000000001
#
# number of rings (size 3 to 8) (size 9 to 14) (size 15 to 20)
#    0.000    1.500    0.000    6.000    0.000    5.000 
#    0.000    3.750    0.000    0.000    0.000    0.000 
#    0.000    0.000    0.000    0.000    0.000    0.000 
#
# Total GULP energy -396658.278414 kJ/mol
# GULP energy per Si atom -12395.571200 kJ/mol
# Density = 2.303075 g / cm^3
# Si number density = 23.083289 Si / 1000 Ang^3
#
#
#
# Elastic Constant Matrix: (Units=GPa)
#
#
# Indices 1 2 3 4 5 6 
#
# 1 86.1103 47.6631 30.4275 0.0000 0.0000 0.0000
# 2 47.6631 83.8787 34.3323 0.0000 0.0000 0.0000
# 3 30.4275 34.3323 139.1903 0.0000 0.0000 0.0000
# 4 0.0000 0.0000 0.0000 36.6763 0.0000 0.0000
# 5 0.0000 0.0000 0.0000 0.0000 30.8255 0.0000
# 6 0.0000 0.0000 0.0000 0.0000 0.0000 26.4529
#
#
#
# Elastic Compliance Matrix: (Units=1/GPa)
#
#
# Indices 1 2 3 4 5 6 
#
# 1 0.017220 -0.009170 -0.001502 0.000000 0.000000 0.000000
# 2 -0.009170 0.018144 -0.002471 0.000000 0.000000 0.000000
# 3 -0.001502 -0.002471 0.008122 0.000000 0.000000 0.000000
# 4 0.000000 0.000000 0.000000 0.027266 0.000000 0.000000
# 5 0.000000 0.000000 0.000000 0.000000 0.032441 0.000000
# 6 0.000000 0.000000 0.000000 0.000000 0.000000 0.037803
#
#
# Mechanical properties :
#
#
# Convention : Reuss Voigt Hill
#
# Bulk Modulus (GPa) = 58.14074 59.33612 58.73843
# Shear Modulus (GPa) = 28.89931 31.90801 30.40366
#
# Velocity S-wave (km/s) = 3.54214 3.72196 3.63316
# Velocity P-wave (km/s) = 6.47851 6.65069 6.56516
#
# Compressibility (1/GPa) = 0.01719964
#
# Stress axis : x y z
#
# Youngs Moduli (GPa) = 58.07358 55.11474 123.11807
#
# Poissons Ratio (x) = 0.50539 0.18498
# Poissons Ratio (y) = 0.53253 0.30420
# Poissons Ratio (z) = 0.08725 0.13618
#
# Static dielectric constant tensor:
#      x y z
#    x 4.244290 0.000000 0.000000 
#    y 0.000000 3.658030 0.000000 
#    z 0.000000 0.000000 4.301910 
# 
# 
# High freq. dielectric constant tensor:
#      x y z
#    x 1.911860 0.000000 0.000000 
#    y 0.000000 1.878030 0.000000 
#    z 0.000000 0.000000 1.937820 
# 
# From -- ./inp_files/1815.got.cif
#   From: 2010.03.12/outbox.cif.g09.slc.cpg/sg64_1_cif.got.tgz:1815.got - 2010.04.10 20:19:32.
