data_PCOD8263249
_publ_section_title
;
Structure prediction by ZEFSAII (Michael W. Deem and Ramdas Pophale) SiO2 
 PCOD8263249
Probable space group: C M C A
;
_chemical_formula_sum "Si O2"
_cell_formula_units_Z 72
_cell_length_a 13.646899
_cell_length_b 9.321404
_cell_length_c 27.931792
_cell_angle_alpha 90.000000
_cell_angle_beta 90.000000
_cell_angle_gamma 90.000000
_cell_volume 3553.154629
_symmetry_space_group_name_H-M "C M C A"
_symmetry_group_IT_number 64
_symmetry_cell_setting 'orthorhombic'
loop_
_space_group_symop_operation_xyz
x,y,z
-x,1/2-y,1/2+z
x,-y,-z
-x,1/2+y,1/2-z
-x,-y,-z
x,1/2+y,1/2-z
-x,y,z
x,1/2-y,1/2+z
1/2+x,1/2+y,z
1/2-x,-y,1/2+z
1/2+x,1/2-y,-z
1/2-x,y,1/2-z
1/2-x,1/2-y,-z
1/2+x,y,1/2-z
1/2-x,1/2+y,z
1/2+x,-y,1/2+z
loop_
_atom_site_type_symbol
_atom_site_label
_atom_site_fract_x
_atom_site_fract_y
_atom_site_fract_z
Si Si1 0.111472 0.777056 0.374441
Si Si2 0.719177 0.878761 0.033298
Si Si3 0.250000 0.579475 0.250000
Si Si4 0.109557 0.953382 0.100021
Si Si5 0.294829 0.830401 0.314068
O O1 0.141340 0.837881 0.426262
O O2 0.122180 0.606380 0.374971
O O3 0.181571 0.836087 0.332407
O O4 0.000000 0.824274 0.363404
O O5 0.818661 0.942364 0.055460
O O6 0.750000 0.750000 0.000000
O O7 0.669892 0.000000 0.000000
O O8 0.315162 0.685407 0.283664
O O9 0.316095 0.472571 0.217759
O O10 0.134312 0.832165 0.139953
O O11 0.000000 0.927995 0.080994
#
# Coordination Sequence:
#
# PCOD8263249 Si02
#       5
#    16  16   8  16  16
#     4  10  21  38  60  85 118 153 190 237 289 340
#     4  11  22  38  59  86 118 153 193 239 282 338
#     4  10  20  36  62  84 118 148 190 232 292 334
#     4  10  21  38  61  85 116 155 191 233 290 346
#     4  10  20  39  58  86 115 155 183 239 284 345
#
# _framework density 20.263684000000001
#
# number of rings (size 3 to 8) (size 9 to 14) (size 15 to 20)
#    0.000    1.778    4.444    0.000    0.000    1.778 
#    0.000   10.000    0.000    0.000    0.000    0.000 
#    0.000    0.000    0.000    0.000    0.000    0.000 
#
# Total GULP energy -446292.458656 kJ/mol
# GULP energy per Si atom -12397.012740 kJ/mol
# Density = 2.021756 g / cm^3
# Si number density = 20.263684 Si / 1000 Ang^3
#
#
#
# Elastic Constant Matrix: (Units=GPa)
#
#
# Indices 1 2 3 4 5 6 
#
# 1 101.9878 13.5903 22.5755 0.0000 0.0000 0.0000
# 2 13.5903 96.5081 24.5302 0.0000 0.0000 0.0000
# 3 22.5755 24.5302 85.8240 0.0000 0.0000 0.0000
# 4 0.0000 0.0000 0.0000 45.4750 0.0000 0.0000
# 5 0.0000 0.0000 0.0000 0.0000 14.4196 0.0000
# 6 0.0000 0.0000 0.0000 0.0000 0.0000 20.7961
#
#
#
# Elastic Compliance Matrix: (Units=1/GPa)
#
#
# Indices 1 2 3 4 5 6 
#
# 1 0.010473 -0.000835 -0.002516 0.000000 0.000000 0.000000
# 2 -0.000835 0.011240 -0.002993 0.000000 0.000000 0.000000
# 3 -0.002516 -0.002993 0.013169 0.000000 0.000000 0.000000
# 4 0.000000 0.000000 0.000000 0.021990 0.000000 0.000000
# 5 0.000000 0.000000 0.000000 0.000000 0.069350 0.000000
# 6 0.000000 0.000000 0.000000 0.000000 0.000000 0.048086
#
#
# Mechanical properties :
#
#
# Convention : Reuss Voigt Hill
#
# Bulk Modulus (GPa) = 45.05780 45.07910 45.06845
# Shear Modulus (GPa) = 25.72076 31.04641 28.38358
#
# Velocity S-wave (km/s) = 3.56659 3.91848 3.74667
# Velocity P-wave (km/s) = 6.26457 6.53966 6.40359
#
# Compressibility (1/GPa) = 0.02219372
#
# Stress axis : x y z
#
# Youngs Moduli (GPa) = 95.48019 88.96647 75.93552
#
# Poissons Ratio (x) = 0.07431 0.19107
# Poissons Ratio (y) = 0.07975 0.22727
# Poissons Ratio (z) = 0.24025 0.26627
#
# Static dielectric constant tensor:
#      x y z
#    x 3.402300 0.000000 0.000000 
#    y 0.000000 4.007570 0.000000 
#    z 0.000000 0.000000 4.424610 
# 
# 
# High freq. dielectric constant tensor:
#      x y z
#    x 1.752280 0.000000 0.000000 
#    y 0.000000 1.797710 0.000000 
#    z 0.000000 0.000000 1.809900 
# 
# From -- ./inp_files/53132.got.cif
#   From: 2010.03.12/outbox.cif.g09.slc.cpg/sg64_27_cif.got.tgz:53132.got - 2010.04.10 20:19:32.
