data_PCOD8263486
_publ_section_title
;
Structure prediction by ZEFSAII (Michael W. Deem and Ramdas Pophale) SiO2 
 PCOD8263486
Probable space group: C M C A
;
_chemical_formula_sum "Si O2"
_cell_formula_units_Z 64
_cell_length_a 10.048909
_cell_length_b 19.650837
_cell_length_c 17.875815
_cell_angle_alpha 90.000000
_cell_angle_beta 90.000000
_cell_angle_gamma 90.000000
_cell_volume 3529.927764
_symmetry_space_group_name_H-M "C M C A"
_symmetry_group_IT_number 64
_symmetry_cell_setting 'orthorhombic'
loop_
_space_group_symop_operation_xyz
x,y,z
-x,1/2-y,1/2+z
x,-y,-z
-x,1/2+y,1/2-z
-x,-y,-z
x,1/2+y,1/2-z
-x,y,z
x,1/2-y,1/2+z
1/2+x,1/2+y,z
1/2-x,-y,1/2+z
1/2+x,1/2-y,-z
1/2-x,y,1/2-z
1/2-x,1/2-y,-z
1/2+x,y,1/2-z
1/2-x,1/2+y,z
1/2+x,-y,1/2+z
loop_
_atom_site_type_symbol
_atom_site_label
_atom_site_fract_x
_atom_site_fract_y
_atom_site_fract_z
Si Si1 0.228217 0.895720 0.038638
Si Si2 0.500000 0.825871 0.823782
Si Si3 0.250000 0.108275 0.250000
Si Si4 0.000000 0.201522 0.917707
Si Si5 0.000000 0.337491 0.990072
Si Si6 0.346651 0.532289 0.106331
O O1 0.131968 0.843537 0.080601
O O2 0.238346 0.965753 0.084916
O O3 0.373412 0.863298 0.035581
O O4 0.172732 0.908949 0.955356
O O5 0.369571 0.843939 0.776710
O O6 0.500000 0.744679 0.840141
O O7 0.500000 0.865979 0.904009
O O8 0.299855 0.058841 0.314463
O O9 0.000000 0.254930 0.987464
O O10 0.500000 0.510300 0.108750
#
# Coordination Sequence:
#
# PCOD8263486 Si02
#       6
#    16   8   8   8   8  16
#     4  11  20  38  62  91 118 149 206 243 302 339
#     4  10  24  37  63  85 118 161 194 243 288 362
#     4  12  22  42  58  88 122 160 200 236 310 352
#     4  10  20  39  60  86 118 154 199 247 291 355
#     4  10  22  34  58  97 116 147 191 260 290 341
#     4  11  21  36  64  86 119 160 192 253 291 367
#
# _framework density 18.130682
#
# number of rings (size 3 to 8) (size 9 to 14) (size 15 to 20)
#    0.750    0.500    6.250    1.500    0.000    3.000 
#    0.000    2.500    0.000    0.000    0.000    0.000 
#    0.000    0.000    0.000    0.000    0.000    0.000 
#
# Total GULP energy -396827.663259 kJ/mol
# GULP energy per Si atom -12400.864477 kJ/mol
# Density = 1.808942 g / cm^3
# Si number density = 18.130682 Si / 1000 Ang^3
#
#
#
# Elastic Constant Matrix: (Units=GPa)
#
#
# Indices 1 2 3 4 5 6 
#
# 1 138.8352 43.3341 31.5267 0.0000 0.0000 0.0000
# 2 43.3341 96.2925 36.6184 0.0000 0.0000 0.0000
# 3 31.5267 36.6184 84.9371 0.0000 0.0000 0.0000
# 4 0.0000 0.0000 0.0000 30.7063 0.0000 0.0000
# 5 0.0000 0.0000 0.0000 0.0000 14.9552 0.0000
# 6 0.0000 0.0000 0.0000 0.0000 0.0000 12.5204
#
#
#
# Elastic Compliance Matrix: (Units=1/GPa)
#
#
# Indices 1 2 3 4 5 6 
#
# 1 0.008610 -0.003181 -0.001824 0.000000 0.000000 0.000000
# 2 -0.003181 0.013597 -0.004681 0.000000 0.000000 0.000000
# 3 -0.001824 -0.004681 0.014469 0.000000 0.000000 0.000000
# 4 0.000000 0.000000 0.000000 0.032567 0.000000 0.000000
# 5 0.000000 0.000000 0.000000 0.000000 0.066866 0.000000
# 6 0.000000 0.000000 0.000000 0.000000 0.000000 0.079870
#
#
# Mechanical properties :
#
#
# Convention : Reuss Voigt Hill
#
# Bulk Modulus (GPa) = 57.79559 60.33590 59.06574
# Shear Modulus (GPa) = 20.73670 25.54210 23.13940
#
# Velocity S-wave (km/s) = 3.38558 3.75744 3.57635
# Velocity P-wave (km/s) = 6.87236 7.22323 7.04998
#
# Compressibility (1/GPa) = 0.01730236
#
# Stress axis : x y z
#
# Youngs Moduli (GPa) = 116.14522 73.54740 69.11432
#
# Poissons Ratio (x) = 0.23394 0.12610
# Poissons Ratio (y) = 0.36944 0.32354
# Poissons Ratio (z) = 0.21190 0.34429
#
# Static dielectric constant tensor:
#      x y z
#    x 3.375690 0.000000 0.000000 
#    y 0.000000 3.265570 0.000000 
#    z 0.000000 0.000000 3.204740 
# 
# 
# High freq. dielectric constant tensor:
#      x y z
#    x 1.714340 0.000000 0.000000 
#    y 0.000000 1.701020 0.000000 
#    z 0.000000 0.000000 1.683150 
# 
# From -- ./inp_files/29315.got.cif
#   From: 2010.03.12/outbox.cif.g09.slc.cpg/sg64_15_cif.got.tgz:29315.got - 2010.04.10 20:19:32.
