data_PCOD8263926
_publ_section_title
;
Structure prediction by ZEFSAII (Michael W. Deem and Ramdas Pophale) SiO2 
 PCOD8263926
Probable space group: C M C A
;
_chemical_formula_sum "Si O2"
_cell_formula_units_Z 80
_cell_length_a 29.242573
_cell_length_b 9.472503
_cell_length_c 14.110616
_cell_angle_alpha 90.000000
_cell_angle_beta 90.000000
_cell_angle_gamma 90.000000
_cell_volume 3908.645718
_symmetry_space_group_name_H-M "C M C A"
_symmetry_group_IT_number 64
_symmetry_cell_setting 'orthorhombic'
loop_
_space_group_symop_operation_xyz
x,y,z
-x,1/2-y,1/2+z
x,-y,-z
-x,1/2+y,1/2-z
-x,-y,-z
x,1/2+y,1/2-z
-x,y,z
x,1/2-y,1/2+z
1/2+x,1/2+y,z
1/2-x,-y,1/2+z
1/2+x,1/2-y,-z
1/2-x,y,1/2-z
1/2-x,1/2-y,-z
1/2+x,y,1/2-z
1/2-x,1/2+y,z
1/2+x,-y,1/2+z
loop_
_atom_site_type_symbol
_atom_site_label
_atom_site_fract_x
_atom_site_fract_y
_atom_site_fract_z
Si Si1 0.289291 0.089335 0.412104
Si Si2 0.924812 0.273957 0.288533
Si Si3 0.000000 0.321621 0.917541
Si Si4 0.138455 0.517085 0.258337
Si Si5 0.000000 0.644234 0.861004
Si Si6 0.719103 0.380864 0.340317
O O1 0.280535 0.257881 0.421296
O O2 0.309713 0.000000 0.500000
O O3 0.325757 0.085098 0.328866
O O4 0.241432 0.018888 0.385277
O O5 0.955611 0.259329 0.381165
O O6 0.895874 0.412567 0.310868
O O7 0.955005 0.295847 0.192587
O O8 0.891140 0.140993 0.286856
O O9 0.000000 0.474870 0.866732
O O10 0.000000 0.307786 0.030211
O O11 0.166943 0.424274 0.182230
O O12 0.750000 0.330652 0.250000
#
# Coordination Sequence:
#
# PCOD8263926 Si02
#       6
#    16  16   8  16   8  16
#     4  11  23  38  58  88 124 157 206 256 303 353
#     4  11  22  41  64  92 122 162 199 258 306 366
#     4  10  22  41  64  93 120 167 199 246 312 374
#     4  11  22  39  63  86 122 160 207 245 306 365
#     4  10  22  41  66  89 128 159 202 245 310 382
#     4  10  21  39  60  83 119 167 201 245 306 372
#
# _framework density 20.467448000000001
#
# number of rings (size 3 to 8) (size 9 to 14) (size 15 to 20)
#    0.000    1.400    4.000    2.400    2.800    1.600 
#    0.000    1.000    0.000    0.000    0.000    0.000 
#    0.000    0.000    0.000    0.000    0.000    0.000 
#
# Total GULP energy -495797.093649 kJ/mol
# GULP energy per Si atom -12394.927341 kJ/mol
# Density = 2.042086 g / cm^3
# Si number density = 20.467448 Si / 1000 Ang^3
#
#
#
# Elastic Constant Matrix: (Units=GPa)
#
#
# Indices 1 2 3 4 5 6 
#
# 1 91.1267 13.7410 13.3413 0.0000 0.0000 0.0000
# 2 13.7410 69.3328 2.9084 0.0000 0.0000 0.0000
# 3 13.3413 2.9084 59.0671 0.0000 0.0000 0.0000
# 4 0.0000 0.0000 0.0000 28.2461 0.0000 0.0000
# 5 0.0000 0.0000 0.0000 0.0000 3.7040 0.0000
# 6 0.0000 0.0000 0.0000 0.0000 0.0000 12.7748
#
#
#
# Elastic Compliance Matrix: (Units=1/GPa)
#
#
# Indices 1 2 3 4 5 6 
#
# 1 0.011677 -0.002208 -0.002529 0.000000 0.000000 0.000000
# 2 -0.002208 0.014871 -0.000233 0.000000 0.000000 0.000000
# 3 -0.002529 -0.000233 0.017513 0.000000 0.000000 0.000000
# 4 0.000000 0.000000 0.000000 0.035403 0.000000 0.000000
# 5 0.000000 0.000000 0.000000 0.000000 0.269982 0.000000
# 6 0.000000 0.000000 0.000000 0.000000 0.000000 0.078279
#
#
# Mechanical properties :
#
#
# Convention : Reuss Voigt Hill
#
# Bulk Modulus (GPa) = 29.30883 31.05645 30.18264
# Shear Modulus (GPa) = 11.13492 21.58069 16.35780
#
# Velocity S-wave (km/s) = 2.33498 3.25066 2.83010
# Velocity P-wave (km/s) = 4.64976 5.41254 5.04559
#
# Compressibility (1/GPa) = 0.03411941
#
# Stress axis : x y z
#
# Youngs Moduli (GPa) = 85.63902 67.24671 57.10193
#
# Poissons Ratio (x) = 0.14849 0.14439
# Poissons Ratio (y) = 0.18911 0.01333
# Poissons Ratio (z) = 0.21656 0.01570
#
# Static dielectric constant tensor:
#      x y z
#    x 3.911260 0.000000 0.000000 
#    y 0.000000 3.890570 0.000000 
#    z 0.000000 0.000000 3.567960 
# 
# 
# High freq. dielectric constant tensor:
#      x y z
#    x 1.811640 0.000000 0.000000 
#    y 0.000000 1.817130 0.000000 
#    z 0.000000 0.000000 1.774300 
# 
# From -- ./inp_files/35410.got.cif
#   From: 2010.03.12/outbox.cif.g09.slc.cpg/sg64_18_cif.got.tgz:35410.got - 2010.04.10 20:19:32.
