data_PCOD8263038
_publ_section_title
;
Structure prediction by ZEFSAII (Michael W. Deem and Ramdas Pophale) SiO2 
 PCOD8263038
Probable space group: C M C A
;
_chemical_formula_sum "Si O2"
_cell_formula_units_Z 88
_cell_length_a 12.743483
_cell_length_b 31.610558
_cell_length_c 11.588047
_cell_angle_alpha 90.000000
_cell_angle_beta 90.000000
_cell_angle_gamma 90.000000
_cell_volume 4667.996848
_symmetry_space_group_name_H-M "C M C A"
_symmetry_group_IT_number 64
_symmetry_cell_setting 'orthorhombic'
loop_
_space_group_symop_operation_xyz
x,y,z
-x,1/2-y,1/2+z
x,-y,-z
-x,1/2+y,1/2-z
-x,-y,-z
x,1/2+y,1/2-z
-x,y,z
x,1/2-y,1/2+z
1/2+x,1/2+y,z
1/2-x,-y,1/2+z
1/2+x,1/2-y,-z
1/2-x,y,1/2-z
1/2-x,1/2-y,-z
1/2+x,y,1/2-z
1/2-x,1/2+y,z
1/2+x,-y,1/2+z
loop_
_atom_site_type_symbol
_atom_site_label
_atom_site_fract_x
_atom_site_fract_y
_atom_site_fract_z
Si Si1 0.619253 0.130804 0.067413
Si Si2 0.878359 0.453786 0.542388
Si Si3 0.785314 0.786691 0.628650
Si Si4 0.875851 0.202698 0.932897
Si Si5 0.219065 0.886798 0.120698
Si Si6 0.250000 0.582630 0.250000
O O1 0.500000 0.116895 0.058057
O O2 0.630653 0.181613 0.071305
O O3 0.667164 0.111739 0.183742
O O4 0.674601 0.113660 0.952826
O O5 0.845792 0.500000 0.500000
O O6 0.857432 0.420824 0.438597
O O7 0.811737 0.445635 0.657628
O O8 0.000000 0.451097 0.575895
O O9 0.750000 0.805317 0.750000
O O10 0.840014 0.741188 0.649720
O O11 0.678773 0.786167 0.554067
O O12 0.838258 0.158598 0.878518
O O13 0.000000 0.201498 0.950794
O O14 0.250000 0.900310 0.250000
#
# Coordination Sequence:
#
# PCOD8263038 Si02
#       6
#    16  16  16  16  16   8
#     4  10  20  35  57  85 114 152 191 230 283 332
#     4  10  22  39  63  89 113 149 190 232 291 350
#     4  10  20  36  52  80 113 147 192 239 279 328
#     4  10  21  35  54  80 112 151 192 234 284 336
#     4  10  22  39  58  83 117 151 188 239 282 342
#     4  10  20  38  60  86 120 146 182 246 280 336
#
# _framework density 18.851769999999998
#
# number of rings (size 3 to 8) (size 9 to 14) (size 15 to 20)
#    0.000    2.000    0.909    2.182    1.273    2.909 
#    0.000    0.000    0.000    2.727    0.000    0.000 
#    0.000    0.000    0.000    0.000    0.000    0.000 
#
# Total GULP energy -545589.608411 kJ/mol
# GULP energy per Si atom -12399.763828 kJ/mol
# Density = 1.880886 g / cm^3
# Si number density = 18.851770 Si / 1000 Ang^3
#
#
#
# Elastic Constant Matrix: (Units=GPa)
#
#
# Indices 1 2 3 4 5 6 
#
# 1 135.4460 37.5913 40.4840 0.0000 0.0000 0.0000
# 2 37.5913 115.0376 35.2028 0.0000 0.0000 0.0000
# 3 40.4840 35.2028 111.1613 0.0000 0.0000 0.0000
# 4 0.0000 0.0000 0.0000 -10.2750 0.0000 0.0000
# 5 0.0000 0.0000 0.0000 0.0000 17.1232 0.0000
# 6 0.0000 0.0000 0.0000 0.0000 0.0000 23.7308
#
#
#
# Elastic Compliance Matrix: (Units=1/GPa)
#
#
# Indices 1 2 3 4 5 6 
#
# 1 0.008711 -0.002077 -0.002515 0.000000 0.000000 0.000000
# 2 -0.002077 0.010121 -0.002449 0.000000 0.000000 0.000000
# 3 -0.002515 -0.002449 0.010687 0.000000 0.000000 0.000000
# 4 0.000000 0.000000 0.000000 -0.097324 0.000000 0.000000
# 5 0.000000 0.000000 0.000000 0.000000 0.058400 0.000000
# 6 0.000000 0.000000 0.000000 0.000000 0.000000 0.042139
#
#
# Mechanical properties :
#
#
# Convention : Reuss Voigt Hill
#
# Bulk Modulus (GPa) = 64.77389 65.35568 65.06478
# Shear Modulus (GPa) = 96.22390 22.67358 59.44874
#
# Velocity S-wave (km/s) = 7.15215 3.47180 5.62168
# Velocity P-wave (km/s) = 10.13106 7.12844 8.75937
#
# Compressibility (1/GPa) = 0.01543832
#
# Stress axis : x y z
#
# Youngs Moduli (GPa) = 114.79594 98.80602 93.56951
#
# Poissons Ratio (x) = 0.20522 0.23530
# Poissons Ratio (y) = 0.23843 0.22912
# Poissons Ratio (z) = 0.28868 0.24194
#
# Static dielectric constant tensor:
#      x y z
#    x 3.339360 0.000000 0.000000 
#    y 0.000000 3.518200 0.000000 
#    z 0.000000 0.000000 3.369980 
# 
# 
# High freq. dielectric constant tensor:
#      x y z
#    x 1.731720 0.000000 0.000000 
#    y 0.000000 1.735970 0.000000 
#    z 0.000000 0.000000 1.730960 
# 
# From -- ./inp_files/13305.got.cif
#   From: 2010.03.12/outbox.cif.g09.slc.cpg/sg64_7_cif.got.tgz:13305.got - 2010.04.10 20:19:32.
