data_PCOD8263223
_publ_section_title
;
Structure prediction by ZEFSAII (Michael W. Deem and Ramdas Pophale) SiO2 
 PCOD8263223
Probable space group: C M C A
;
_chemical_formula_sum "Si O2"
_cell_formula_units_Z 96
_cell_length_a 8.755965
_cell_length_b 19.908662
_cell_length_c 28.093104
_cell_angle_alpha 90.000000
_cell_angle_beta 90.000000
_cell_angle_gamma 90.000000
_cell_volume 4897.177182
_symmetry_space_group_name_H-M "C M C A"
_symmetry_group_IT_number 64
_symmetry_cell_setting 'orthorhombic'
loop_
_space_group_symop_operation_xyz
x,y,z
-x,1/2-y,1/2+z
x,-y,-z
-x,1/2+y,1/2-z
-x,-y,-z
x,1/2+y,1/2-z
-x,y,z
x,1/2-y,1/2+z
1/2+x,1/2+y,z
1/2-x,-y,1/2+z
1/2+x,1/2-y,-z
1/2-x,y,1/2-z
1/2-x,1/2-y,-z
1/2+x,y,1/2-z
1/2-x,1/2+y,z
1/2+x,-y,1/2+z
loop_
_atom_site_type_symbol
_atom_site_label
_atom_site_fract_x
_atom_site_fract_y
_atom_site_fract_z
Si Si1 0.322791 0.128892 0.800424
Si Si2 0.679249 0.747856 0.135571
Si Si3 0.179432 0.621857 0.302684
Si Si4 0.819262 0.701755 0.539752
Si Si5 0.820217 0.552157 0.959523
Si Si6 0.320446 0.001206 0.856503
O O1 0.500000 0.121462 0.793191
O O2 0.250000 0.131063 0.750000
O O3 0.277091 0.195054 0.827727
O O4 0.260620 0.066892 0.830131
O O5 0.500000 0.747050 0.122314
O O6 0.734006 0.681199 0.162529
O O7 0.776214 0.761463 0.088636
O O8 0.250000 0.625709 0.250000
O O9 0.225692 0.556895 0.331969
O O10 0.000000 0.624165 0.294828
O O11 0.750000 0.750000 0.500000
O O12 0.758719 0.625043 0.536208
O O13 0.000000 0.699102 0.533890
O O14 0.776935 0.512780 0.911390
O O15 0.000000 0.566727 0.962041
O O16 0.766052 0.500000 0.000000
O O17 0.500000 0.987161 0.850282
#
# Coordination Sequence:
#
# PCOD8263223 Si02
#       6
#    16  16  16  16  16  16
#     4  10  20  36  60  86 118 157 200 251 305 365
#     4  10  22  43  64  88 124 164 207 260 314 367
#     4  11  24  40  62  91 128 168 211 261 310 370
#     4  12  26  43  67  96 128 166 209 259 315 380
#     4  10  22  43  69  96 128 166 208 258 318 379
#     4  10  21  39  62  89 126 165 205 256 311 372
#
# _framework density 19.60313
#
# number of rings (size 3 to 8) (size 9 to 14) (size 15 to 20)
#    0.000    1.500    1.667    3.000    2.333    5.000 
#    0.000    0.000    0.000    0.000    0.000    0.000 
#    0.000    0.000    0.000    0.000    0.000    0.000 
#
# Total GULP energy -595090.472539 kJ/mol
# GULP energy per Si atom -12397.718178 kJ/mol
# Density = 1.955851 g / cm^3
# Si number density = 19.603130 Si / 1000 Ang^3
#
#
#
# Elastic Constant Matrix: (Units=GPa)
#
#
# Indices 1 2 3 4 5 6 
#
# 1 73.4262 59.5028 57.3121 0.0000 0.0000 0.0000
# 2 59.5028 197.8600 117.7613 0.0000 0.0000 0.0000
# 3 57.3121 117.7613 220.7122 0.0000 0.0000 0.0000
# 4 0.0000 0.0000 0.0000 112.1666 0.0000 0.0000
# 5 0.0000 0.0000 0.0000 0.0000 31.5518 0.0000
# 6 0.0000 0.0000 0.0000 0.0000 0.0000 -59.4935
#
#
#
# Elastic Compliance Matrix: (Units=1/GPa)
#
#
# Indices 1 2 3 4 5 6 
#
# 1 0.019103 -0.004092 -0.002777 0.000000 0.000000 0.000000
# 2 -0.004092 0.008282 -0.003357 0.000000 0.000000 0.000000
# 3 -0.002777 -0.003357 0.007043 0.000000 0.000000 0.000000
# 4 0.000000 0.000000 0.000000 0.008915 0.000000 0.000000
# 5 0.000000 0.000000 0.000000 0.000000 0.031694 0.000000
# 6 0.000000 0.000000 0.000000 0.000000 0.000000 -0.016809
#
#
# Mechanical properties :
#
#
# Convention : Reuss Voigt Hill
#
# Bulk Modulus (GPa) = 71.54730 106.79454 89.17092
# Shear Modulus (GPa) = 59.99608 34.00646 47.00127
#
# Velocity S-wave (km/s) = 5.53821 4.16955 4.90188
# Velocity P-wave (km/s) = 8.80187 8.81911 8.81049
#
# Compressibility (1/GPa) = 0.01397677
#
# Stress axis : x y z
#
# Youngs Moduli (GPa) = 52.34836 120.73831 141.98893
#
# Poissons Ratio (x) = 0.49405 0.39432
# Poissons Ratio (y) = 0.21421 0.47659
# Poissons Ratio (z) = 0.14538 0.40526
#
# Static dielectric constant tensor:
#      x y z
#    x 3.462830 0.000000 0.000000 
#    y 0.000000 3.694000 0.000000 
#    z 0.000000 0.000000 3.778220 
# 
# 
# High freq. dielectric constant tensor:
#      x y z
#    x 1.755660 0.000000 0.000000 
#    y 0.000000 1.783030 0.000000 
#    z 0.000000 0.000000 1.784400 
# 
# From -- ./inp_files/48149.got.cif
#   From: 2010.03.12/outbox.cif.g09.slc.cpg/sg64_25_cif.got.tgz:48149.got - 2010.04.10 20:19:32.
