data_PCOD8263156
_publ_section_title
;
Structure prediction by ZEFSAII (Michael W. Deem and Ramdas Pophale) SiO2 
 PCOD8263156
Probable space group: C M C A
;
_chemical_formula_sum "Si O2"
_cell_formula_units_Z 112
_cell_length_a 9.594642
_cell_length_b 20.551725
_cell_length_c 30.724323
_cell_angle_alpha 90.000000
_cell_angle_beta 90.000000
_cell_angle_gamma 90.000000
_cell_volume 6058.419992
_symmetry_space_group_name_H-M "C M C A"
_symmetry_group_IT_number 64
_symmetry_cell_setting 'orthorhombic'
loop_
_space_group_symop_operation_xyz
x,y,z
-x,1/2-y,1/2+z
x,-y,-z
-x,1/2+y,1/2-z
-x,-y,-z
x,1/2+y,1/2-z
-x,y,z
x,1/2-y,1/2+z
1/2+x,1/2+y,z
1/2-x,-y,1/2+z
1/2+x,1/2-y,-z
1/2-x,y,1/2-z
1/2-x,1/2-y,-z
1/2+x,y,1/2-z
1/2-x,1/2+y,z
1/2+x,-y,1/2+z
loop_
_atom_site_type_symbol
_atom_site_label
_atom_site_fract_x
_atom_site_fract_y
_atom_site_fract_z
Si Si1 0.336778 0.088218 0.138601
Si Si2 0.841953 0.745407 0.437459
Si Si3 0.334637 0.555249 0.638015
Si Si4 0.843073 0.794247 0.838475
Si Si5 0.161506 0.627883 0.042982
Si Si6 0.163366 0.110395 0.550077
Si Si7 0.334864 0.837289 0.207170
O O1 0.500000 0.100426 0.146116
O O2 0.255901 0.142728 0.166435
O O3 0.298177 0.090499 0.087095
O O4 0.287777 0.016578 0.154265
O O5 0.833955 0.734743 0.386165
O O6 0.746025 0.694342 0.462395
O O7 0.779631 0.816268 0.446793
O O8 0.000000 0.737478 0.454284
O O9 0.500000 0.555482 0.635256
O O10 0.271101 0.567525 0.589256
O O11 0.283451 0.611163 0.670777
O O12 0.795178 0.736298 0.806482
O O13 0.000000 0.816598 0.827334
O O14 0.000000 0.647197 0.043571
O O15 0.194566 0.584577 0.999339
O O16 0.000000 0.112468 0.559022
O O17 0.500000 0.843891 0.215207
O O18 0.250000 0.855476 0.250000
#
# Coordination Sequence:
#
# PCOD8263156 Si02
#       7
#    16  16  16  16  16  16  16
#     4   9  18  31  49  74 105 136 165 203 245 282
#     4   9  15  26  45  66  91 128 168 201 238 287
#     4   9  17  32  52  73 100 135 169 200 244 300
#     4   9  17  32  53  73  95 128 165 198 240 298
#     4   9  17  26  40  69 102 130 164 208 245 273
#     4   9  15  25  44  68  96 130 170 206 238 283
#     4  10  20  36  58  80  98 122 160 205 250 298
#
# _framework density 18.486668999999999
#
# number of rings (size 3 to 8) (size 9 to 14) (size 15 to 20)
#    0.000    2.857    1.429    0.429    0.000    1.143 
#    0.000    4.286    0.000    6.000    0.000    4.000 
#    0.000    0.000    0.000    0.000    0.000    0.000 
#
# Total GULP energy -693909.164951 kJ/mol
# GULP energy per Si atom -12391.235088 kJ/mol
# Density = 1.844459 g / cm^3
# Si number density = 18.486669 Si / 1000 Ang^3
#
#
#
# Elastic Constant Matrix: (Units=GPa)
#
#
# Indices 1 2 3 4 5 6 
#
# 1 35.8337 36.2304 19.7598 0.0000 0.0000 0.0000
# 2 36.2304 114.8002 39.4601 0.0000 0.0000 0.0000
# 3 19.7598 39.4601 57.4493 0.0000 0.0000 0.0000
# 4 0.0000 0.0000 0.0000 13.2714 0.0000 0.0000
# 5 0.0000 0.0000 0.0000 0.0000 21.6376 0.0000
# 6 0.0000 0.0000 0.0000 0.0000 0.0000 19.9616
#
#
#
# Elastic Compliance Matrix: (Units=1/GPa)
#
#
# Indices 1 2 3 4 5 6 
#
# 1 0.043135 -0.011145 -0.007181 0.000000 0.000000 0.000000
# 2 -0.011145 0.014282 -0.005977 0.000000 0.000000 0.000000
# 3 -0.007181 -0.005977 0.023982 0.000000 0.000000 0.000000
# 4 0.000000 0.000000 0.000000 0.075350 0.000000 0.000000
# 5 0.000000 0.000000 0.000000 0.000000 0.046216 0.000000
# 6 0.000000 0.000000 0.000000 0.000000 0.000000 0.050096
#
#
# Mechanical properties :
#
#
# Convention : Reuss Voigt Hill
#
# Bulk Modulus (GPa) = 30.49396 44.33154 37.41275
# Shear Modulus (GPa) = 15.99497 18.48298 17.23898
#
# Velocity S-wave (km/s) = 2.94465 3.16539 3.05701
# Velocity P-wave (km/s) = 5.30021 6.11490 5.72207
#
# Compressibility (1/GPa) = 0.03279338
#
# Stress axis : x y z
#
# Youngs Moduli (GPa) = 23.18312 70.01598 41.69783
#
# Poissons Ratio (x) = 0.78031 0.29945
# Poissons Ratio (y) = 0.25837 0.24923
# Poissons Ratio (z) = 0.16649 0.41848
#
# Static dielectric constant tensor:
#      x y z
#    x 3.122860 0.000000 0.000000 
#    y 0.000000 3.521340 0.000000 
#    z 0.000000 0.000000 3.401360 
# 
# 
# High freq. dielectric constant tensor:
#      x y z
#    x 1.674290 0.000000 0.000000 
#    y 0.000000 1.714680 0.000000 
#    z 0.000000 0.000000 1.710610 
# 
# From -- ./inp_files/49500.got.cif
#   From: 2010.03.12/outbox.cif.g09.slc.cpg/sg64_25_cif.got.tgz:49500.got - 2010.04.10 20:19:32.
