data_PCOD8263869
_publ_section_title
;
Structure prediction by ZEFSAII (Michael W. Deem and Ramdas Pophale) SiO2 
 PCOD8263869
Probable space group: C M C A
;
_chemical_formula_sum "Si O2"
_cell_formula_units_Z 56
_cell_length_a 16.293281
_cell_length_b 31.097370
_cell_length_c 5.021532
_cell_angle_alpha 90.000000
_cell_angle_beta 90.000000
_cell_angle_gamma 90.000000
_cell_volume 2544.300734
_symmetry_space_group_name_H-M "C M C A"
_symmetry_group_IT_number 64
_symmetry_cell_setting 'orthorhombic'
loop_
_space_group_symop_operation_xyz
x,y,z
-x,1/2-y,1/2+z
x,-y,-z
-x,1/2+y,1/2-z
-x,-y,-z
x,1/2+y,1/2-z
-x,y,z
x,1/2-y,1/2+z
1/2+x,1/2+y,z
1/2-x,-y,1/2+z
1/2+x,1/2-y,-z
1/2-x,y,1/2-z
1/2-x,1/2-y,-z
1/2+x,y,1/2-z
1/2-x,1/2+y,z
1/2+x,-y,1/2+z
loop_
_atom_site_type_symbol
_atom_site_label
_atom_site_fract_x
_atom_site_fract_y
_atom_site_fract_z
Si Si1 0.841515 0.629875 0.838173
Si Si2 0.095147 0.777689 0.346595
Si Si3 0.405832 0.416297 0.852680
Si Si4 0.305793 0.500000 0.000000
O O1 0.750000 0.619107 0.750000
O O2 0.851434 0.680173 0.900806
O O3 0.902513 0.616564 0.600318
O O4 0.858465 0.602974 0.102104
O O5 0.117803 0.741240 0.559884
O O6 0.000000 0.790628 0.371392
O O7 0.500000 0.424303 0.774631
O O8 0.364326 0.460772 0.929510
O O9 0.250000 0.513183 0.750000
#
# Coordination Sequence:
#
# PCOD8263869 Si02
#       4
#    16  16  16   8
#     4  12  25  42  66  97 132 170 215 269 325 377
#     4  10  21  38  61  90 126 168 213 262 318 380
#     4  12  25  44  68  96 130 172 218 261 316 386
#     4  12  25  44  69  98 134 168 210 266 325 378
#
# _framework density 22.009978
#
# number of rings (size 3 to 8) (size 9 to 14) (size 15 to 20)
#    0.000    0.571    0.000    9.857    0.000    3.429 
#    0.000    4.286    0.000    0.000    0.000    0.000 
#    0.000    0.000    0.000    0.000    0.000    0.000 
#
# Total GULP energy -347477.797489 kJ/mol
# GULP energy per Si atom -12409.921339 kJ/mol
# Density = 2.195988 g / cm^3
# Si number density = 22.009978 Si / 1000 Ang^3
#
#
#
# Elastic Constant Matrix: (Units=GPa)
#
#
# Indices 1 2 3 4 5 6 
#
# 1 74.5082 72.2361 24.1613 0.0000 0.0000 0.0000
# 2 72.2361 136.2642 53.1743 0.0000 0.0000 0.0000
# 3 24.1613 53.1743 135.3491 0.0000 0.0000 0.0000
# 4 0.0000 0.0000 0.0000 33.2615 0.0000 0.0000
# 5 0.0000 0.0000 0.0000 0.0000 64.5457 0.0000
# 6 0.0000 0.0000 0.0000 0.0000 0.0000 21.1826
#
#
#
# Elastic Compliance Matrix: (Units=1/GPa)
#
#
# Indices 1 2 3 4 5 6 
#
# 1 0.027722 -0.015076 0.000974 0.000000 0.000000 0.000000
# 2 -0.015076 0.016866 -0.003935 0.000000 0.000000 0.000000
# 3 0.000974 -0.003935 0.008760 0.000000 0.000000 0.000000
# 4 0.000000 0.000000 0.000000 0.030065 0.000000 0.000000
# 5 0.000000 0.000000 0.000000 0.000000 0.015493 0.000000
# 6 0.000000 0.000000 0.000000 0.000000 0.000000 0.047209
#
#
# Mechanical properties :
#
#
# Convention : Reuss Voigt Hill
#
# Bulk Modulus (GPa) = 57.88766 71.69610 64.79188
# Shear Modulus (GPa) = 26.60338 36.90127 31.75232
#
# Velocity S-wave (km/s) = 3.48040 4.09904 3.80232
# Velocity P-wave (km/s) = 6.51987 7.41943 6.98414
#
# Compressibility (1/GPa) = 0.01727484
#
# Stress axis : x y z
#
# Youngs Moduli (GPa) = 36.07297 59.29010 114.15108
#
# Poissons Ratio (x) = 0.89385 -0.11121
# Poissons Ratio (y) = 0.54383 0.44918
# Poissons Ratio (z) = -0.03514 0.23331
#
# Static dielectric constant tensor:
#      x y z
#    x 3.923260 0.000000 0.000000 
#    y 0.000000 3.922490 0.000000 
#    z 0.000000 0.000000 4.174010 
# 
# 
# High freq. dielectric constant tensor:
#      x y z
#    x 1.866910 0.000000 0.000000 
#    y 0.000000 1.879350 0.000000 
#    z 0.000000 0.000000 1.883800 
# 
# From -- ./inp_files/846.got.cif
#   From: 2010.03.12/outbox.cif.g09.slc.cpg/sg64_1_cif.got.tgz:846.got - 2010.04.10 20:19:32.
