data_PCOD8263312
_publ_section_title
;
Structure prediction by ZEFSAII (Michael W. Deem and Ramdas Pophale) SiO2 
 PCOD8263312
Probable space group: C M C A
;
_chemical_formula_sum "Si O2"
_cell_formula_units_Z 96
_cell_length_a 8.587337
_cell_length_b 20.442368
_cell_length_c 28.345494
_cell_angle_alpha 90.000000
_cell_angle_beta 90.000000
_cell_angle_gamma 90.000000
_cell_volume 4975.924005
_symmetry_space_group_name_H-M "C M C A"
_symmetry_group_IT_number 64
_symmetry_cell_setting 'orthorhombic'
loop_
_space_group_symop_operation_xyz
x,y,z
-x,1/2-y,1/2+z
x,-y,-z
-x,1/2+y,1/2-z
-x,-y,-z
x,1/2+y,1/2-z
-x,y,z
x,1/2-y,1/2+z
1/2+x,1/2+y,z
1/2-x,-y,1/2+z
1/2+x,1/2-y,-z
1/2-x,y,1/2-z
1/2-x,1/2-y,-z
1/2+x,y,1/2-z
1/2-x,1/2+y,z
1/2+x,-y,1/2+z
loop_
_atom_site_type_symbol
_atom_site_label
_atom_site_fract_x
_atom_site_fract_y
_atom_site_fract_z
Si Si1 0.185019 0.433228 0.942300
Si Si2 0.315986 0.112280 0.156877
Si Si3 0.682969 0.982805 0.299732
Si Si4 0.817035 0.578827 0.955674
Si Si5 0.682923 0.743524 0.199172
Si Si6 0.816926 0.631794 0.859303
O O1 0.249845 0.394178 0.896831
O O2 0.249323 0.507663 0.940785
O O3 0.000000 0.432983 0.938367
O O4 0.243806 0.400490 0.991880
O O5 0.500000 0.120063 0.158158
O O6 0.242334 0.174739 0.181066
O O7 0.269264 0.049219 0.186588
O O8 0.500000 0.995557 0.296784
O O9 0.750000 0.958514 0.250000
O O10 0.718478 0.926205 0.336817
O O11 0.775297 0.632001 0.915442
O O12 0.000000 0.570348 0.960425
O O13 0.500000 0.740478 0.203936
O O14 0.750000 0.761654 0.250000
O O15 0.735640 0.799177 0.162182
O O16 0.000000 0.618236 0.851107
#
# Coordination Sequence:
#
# PCOD8263312 Si02
#       6
#    16  16  16  16  16  16
#     4   8  14  26  53  86 113 142 181 225 268 325
#     4  11  21  37  59  83 112 147 189 232 276 330
#     4  12  24  37  56  82 112 142 183 236 285 335
#     4   8  13  27  53  86 114 141 181 224 269 326
#     4  11  24  40  57  79 110 151 190 233 284 336
#     4  10  20  37  60  84 113 147 188 231 277 331
#
# _framework density 19.292898000000001
#
# number of rings (size 3 to 8) (size 9 to 14) (size 15 to 20)
#    0.000    2.000    1.667    4.500    0.000    2.667 
#    0.000    0.833    0.000    3.000    0.000    0.000 
#    0.000    0.000    0.000    0.000    0.000    0.000 
#
# Total GULP energy -594992.486039 kJ/mol
# GULP energy per Si atom -12395.676792 kJ/mol
# Density = 1.924899 g / cm^3
# Si number density = 19.292898 Si / 1000 Ang^3
#
#
#
# Elastic Constant Matrix: (Units=GPa)
#
#
# Indices 1 2 3 4 5 6 
#
# 1 30.0820 14.4713 17.1870 0.0000 0.0000 0.0000
# 2 14.4713 62.3942 1.8761 0.0000 0.0000 0.0000
# 3 17.1870 1.8761 99.0565 0.0000 0.0000 0.0000
# 4 0.0000 0.0000 0.0000 34.1477 0.0000 0.0000
# 5 0.0000 0.0000 0.0000 0.0000 14.0053 0.0000
# 6 0.0000 0.0000 0.0000 0.0000 0.0000 19.3125
#
#
#
# Elastic Compliance Matrix: (Units=1/GPa)
#
#
# Indices 1 2 3 4 5 6 
#
# 1 0.041857 -0.009495 -0.007083 0.000000 0.000000 0.000000
# 2 -0.009495 0.018190 0.001303 0.000000 0.000000 0.000000
# 3 -0.007083 0.001303 0.011299 0.000000 0.000000 0.000000
# 4 0.000000 0.000000 0.000000 0.029285 0.000000 0.000000
# 5 0.000000 0.000000 0.000000 0.000000 0.071402 0.000000
# 6 0.000000 0.000000 0.000000 0.000000 0.000000 0.051780
#
#
# Mechanical properties :
#
#
# Convention : Reuss Voigt Hill
#
# Bulk Modulus (GPa) = 24.51162 28.73349 26.62256
# Shear Modulus (GPa) = 18.65945 24.02633 21.34289
#
# Velocity S-wave (km/s) = 3.11330 3.53277 3.32965
# Velocity P-wave (km/s) = 5.06519 5.61839 5.34894
#
# Compressibility (1/GPa) = 0.04079698
#
# Stress axis : x y z
#
# Youngs Moduli (GPa) = 23.89105 54.97480 88.49986
#
# Poissons Ratio (x) = 0.52199 0.62681
# Poissons Ratio (y) = 0.22685 -0.11531
# Poissons Ratio (z) = 0.16921 -0.07163
#
# Static dielectric constant tensor:
#      x y z
#    x 3.243130 0.000000 0.000000 
#    y 0.000000 3.463410 0.000000 
#    z 0.000000 0.000000 4.195920 
# 
# 
# High freq. dielectric constant tensor:
#      x y z
#    x 1.721980 0.000000 0.000000 
#    y 0.000000 1.729070 0.000000 
#    z 0.000000 0.000000 1.776550 
# 
# From -- ./inp_files/48030.got.cif
#   From: 2010.03.12/outbox.cif.g09.slc.cpg/sg64_25_cif.got.tgz:48030.got - 2010.04.10 20:19:32.
