data_PCOD8263594
_publ_section_title
;
Structure prediction by ZEFSAII (Michael W. Deem and Ramdas Pophale) SiO2 
 PCOD8263594
Probable space group: C M C A
;
_chemical_formula_sum "Si O2"
_cell_formula_units_Z 80
_cell_length_a 21.430601
_cell_length_b 11.151696
_cell_length_c 14.585543
_cell_angle_alpha 90.000000
_cell_angle_beta 90.000000
_cell_angle_gamma 90.000000
_cell_volume 3485.763150
_symmetry_space_group_name_H-M "C M C A"
_symmetry_group_IT_number 64
_symmetry_cell_setting 'orthorhombic'
loop_
_space_group_symop_operation_xyz
x,y,z
-x,1/2-y,1/2+z
x,-y,-z
-x,1/2+y,1/2-z
-x,-y,-z
x,1/2+y,1/2-z
-x,y,z
x,1/2-y,1/2+z
1/2+x,1/2+y,z
1/2-x,-y,1/2+z
1/2+x,1/2-y,-z
1/2-x,y,1/2-z
1/2-x,1/2-y,-z
1/2+x,y,1/2-z
1/2-x,1/2+y,z
1/2+x,-y,1/2+z
loop_
_atom_site_type_symbol
_atom_site_label
_atom_site_fract_x
_atom_site_fract_y
_atom_site_fract_z
Si Si1 0.308666 0.831214 0.476696
Si Si2 0.628997 0.146159 0.143455
Si Si3 0.724384 0.452104 0.348383
Si Si4 0.500000 0.694273 0.686398
Si Si5 0.500000 0.420618 0.676592
Si Si6 0.367719 0.230150 0.347234
O O1 0.250000 0.750000 0.500000
O O2 0.358079 0.770141 0.407097
O O3 0.281852 0.944898 0.420770
O O4 0.347429 0.858885 0.569777
O O5 0.630452 0.155769 0.253733
O O6 0.682213 0.056167 0.109665
O O7 0.561923 0.091474 0.114451
O O8 0.750000 0.491274 0.250000
O O9 0.685072 0.331079 0.337711
O O10 0.500000 0.554784 0.724353
O O11 0.435718 0.712272 0.629389
O O12 0.500000 0.800755 0.760707
#
# Coordination Sequence:
#
# PCOD8263594 Si02
#       6
#    16  16  16   8   8  16
#     4  10  24  40  59  95 136 172 222 281 351 422
#     4  11  23  43  66  98 131 187 229 296 348 430
#     4  11  22  38  64  89 134 175 225 274 357 420
#     4  10  20  43  69 105 136 188 238 303 351 436
#     4  10  22  41  75  99 142 182 248 293 366 415
#     4  10  22  42  64  95 135 173 234 278 360 404
#
# _framework density 22.950499000000001
#
# number of rings (size 3 to 8) (size 9 to 14) (size 15 to 20)
#    0.000    1.600    4.000    0.000    5.600    4.000 
#    0.000    1.000    0.000    0.000    0.000    9.800 
#    0.000    0.000    0.000    0.000    0.000    0.000 
#
# Total GULP energy -495595.653036 kJ/mol
# GULP energy per Si atom -12389.891326 kJ/mol
# Density = 2.289826 g / cm^3
# Si number density = 22.950499 Si / 1000 Ang^3
#
#
#
# Elastic Constant Matrix: (Units=GPa)
#
#
# Indices 1 2 3 4 5 6 
#
# 1 139.0196 45.5757 39.1241 0.0000 0.0000 0.0000
# 2 45.5757 91.6129 11.9101 0.0000 0.0000 0.0000
# 3 39.1241 11.9101 110.7308 0.0000 0.0000 0.0000
# 4 0.0000 0.0000 0.0000 16.8121 0.0000 0.0000
# 5 0.0000 0.0000 0.0000 0.0000 23.3768 0.0000
# 6 0.0000 0.0000 0.0000 0.0000 0.0000 41.8520
#
#
#
# Elastic Compliance Matrix: (Units=1/GPa)
#
#
# Indices 1 2 3 4 5 6 
#
# 1 0.009412 -0.004310 -0.002862 0.000000 0.000000 0.000000
# 2 -0.004310 0.013044 0.000120 0.000000 0.000000 0.000000
# 3 -0.002862 0.000120 0.010029 0.000000 0.000000 0.000000
# 4 0.000000 0.000000 0.000000 0.059481 0.000000 0.000000
# 5 0.000000 0.000000 0.000000 0.000000 0.042778 0.000000
# 6 0.000000 0.000000 0.000000 0.000000 0.000000 0.023894
#
#
# Mechanical properties :
#
#
# Convention : Reuss Voigt Hill
#
# Bulk Modulus (GPa) = 54.40437 59.39812 56.90124
# Shear Modulus (GPa) = 27.95355 32.72506 30.33931
#
# Velocity S-wave (km/s) = 3.49376 3.78020 3.63980
# Velocity P-wave (km/s) = 6.32706 6.70749 6.52005
#
# Compressibility (1/GPa) = 0.01838088
#
# Stress axis : x y z
#
# Youngs Moduli (GPa) = 106.25168 76.66310 99.70924
#
# Poissons Ratio (x) = 0.33042 0.28535
# Poissons Ratio (y) = 0.45795 -0.01195
# Poissons Ratio (z) = 0.30407 -0.00919
#
# Static dielectric constant tensor:
#      x y z
#    x 5.046980 0.000000 0.000000 
#    y 0.000000 4.024740 0.000000 
#    z 0.000000 0.000000 4.185640 
# 
# 
# High freq. dielectric constant tensor:
#      x y z
#    x 1.925660 0.000000 0.000000 
#    y 0.000000 1.899150 0.000000 
#    z 0.000000 0.000000 1.886950 
# 
# From -- ./inp_files/27104.got.cif
#   From: 2010.03.12/outbox.cif.g09.slc.cpg/sg64_14_cif.got.tgz:27104.got - 2010.04.10 20:19:32.
