data_PCOD8263626
_publ_section_title
;
Structure prediction by ZEFSAII (Michael W. Deem and Ramdas Pophale) SiO2 
 PCOD8263626
Probable space group: C M C A
;
_chemical_formula_sum "Si O2"
_cell_formula_units_Z 96
_cell_length_a 9.132416
_cell_length_b 20.072158
_cell_length_c 27.458490
_cell_angle_alpha 90.000000
_cell_angle_beta 90.000000
_cell_angle_gamma 90.000000
_cell_volume 5033.341578
_symmetry_space_group_name_H-M "C M C A"
_symmetry_group_IT_number 64
_symmetry_cell_setting 'orthorhombic'
loop_
_space_group_symop_operation_xyz
x,y,z
-x,1/2-y,1/2+z
x,-y,-z
-x,1/2+y,1/2-z
-x,-y,-z
x,1/2+y,1/2-z
-x,y,z
x,1/2-y,1/2+z
1/2+x,1/2+y,z
1/2-x,-y,1/2+z
1/2+x,1/2-y,-z
1/2-x,y,1/2-z
1/2-x,1/2-y,-z
1/2+x,y,1/2-z
1/2-x,1/2+y,z
1/2+x,-y,1/2+z
loop_
_atom_site_type_symbol
_atom_site_label
_atom_site_fract_x
_atom_site_fract_y
_atom_site_fract_z
Si Si1 0.669851 0.066598 0.061167
Si Si2 0.829153 0.414962 0.048665
Si Si3 0.168331 0.028416 0.798185
Si Si4 0.672504 0.745700 0.199351
Si Si5 0.669928 0.151242 0.632051
Si Si6 0.170803 0.605424 0.346461
O O1 0.500000 0.070666 0.073596
O O2 0.754725 0.110502 0.100779
O O3 0.721187 0.989728 0.062462
O O4 0.701620 0.097886 0.008265
O O5 0.733491 0.361348 0.078185
O O6 0.000000 0.405237 0.060788
O O7 0.250000 0.051936 0.750000
O O8 0.194324 0.083610 0.838637
O O9 0.000000 0.020009 0.784359
O O10 0.233322 0.958543 0.817586
O O11 0.500000 0.759648 0.204394
O O12 0.750000 0.763847 0.250000
O O13 0.738900 0.790064 0.156602
O O14 0.706714 0.669565 0.185886
O O15 0.500000 0.171693 0.628992
O O16 0.000000 0.597192 0.356244
#
# Coordination Sequence:
#
# PCOD8263626 Si02
#       6
#    16  16  16  16  16  16
#     4   9  18  33  57  87 117 149 185 230 283 340
#     4   9  18  34  56  86 119 149 185 230 285 339
#     4  10  21  35  53  80 109 139 181 232 280 329
#     4  11  24  41  60  81 113 154 192 234 283 339
#     4  11  22  37  58  84 114 149 191 235 282 338
#     4  10  21  38  57  82 114 147 187 234 283 335
#
# _framework density 19.072816
#
# number of rings (size 3 to 8) (size 9 to 14) (size 15 to 20)
#    0.000    2.000    1.667    3.000    0.000    5.333 
#    0.000    2.500    0.000    0.000    0.000    0.000 
#    0.000    0.000    0.000    0.000    0.000    0.000 
#
# Total GULP energy -595371.342663 kJ/mol
# GULP energy per Si atom -12403.569639 kJ/mol
# Density = 1.902941 g / cm^3
# Si number density = 19.072816 Si / 1000 Ang^3
#
#
#
# Elastic Constant Matrix: (Units=GPa)
#
#
# Indices 1 2 3 4 5 6 
#
# 1 67.7219 23.8361 34.3358 0.0000 0.0000 0.0000
# 2 23.8361 44.7492 -3.5508 0.0000 0.0000 0.0000
# 3 34.3358 -3.5508 79.2581 0.0000 0.0000 0.0000
# 4 0.0000 0.0000 0.0000 28.5712 0.0000 0.0000
# 5 0.0000 0.0000 0.0000 0.0000 40.7178 0.0000
# 6 0.0000 0.0000 0.0000 0.0000 0.0000 27.6393
#
#
#
# Elastic Compliance Matrix: (Units=1/GPa)
#
#
# Indices 1 2 3 4 5 6 
#
# 1 0.026037 -0.014816 -0.011943 0.000000 0.000000 0.000000
# 2 -0.014816 0.030858 0.007801 0.000000 0.000000 0.000000
# 3 -0.011943 0.007801 0.018140 0.000000 0.000000 0.000000
# 4 0.000000 0.000000 0.000000 0.035000 0.000000 0.000000
# 5 0.000000 0.000000 0.000000 0.000000 0.024559 0.000000
# 6 0.000000 0.000000 0.000000 0.000000 0.000000 0.036180
#
#
# Mechanical properties :
#
#
# Convention : Reuss Voigt Hill
#
# Bulk Modulus (GPa) = 26.94108 33.44128 30.19118
# Shear Modulus (GPa) = 22.61786 28.52620 25.57203
#
# Velocity S-wave (km/s) = 3.44738 3.87155 3.66561
# Velocity P-wave (km/s) = 5.47740 6.12836 5.81200
#
# Compressibility (1/GPa) = 0.03711803
#
# Stress axis : x y z
#
# Youngs Moduli (GPa) = 38.40762 32.40666 55.12539
#
# Poissons Ratio (x) = 0.48015 0.65837
# Poissons Ratio (y) = 0.56906 -0.43004
# Poissons Ratio (z) = 0.45871 -0.25281
#
# Static dielectric constant tensor:
#      x y z
#    x 3.422200 0.000000 0.000000 
#    y 0.000000 3.424840 0.000000 
#    z 0.000000 0.000000 3.524070 
# 
# 
# High freq. dielectric constant tensor:
#      x y z
#    x 1.739680 0.000000 0.000000 
#    y 0.000000 1.728120 0.000000 
#    z 0.000000 0.000000 1.749410 
# 
# From -- ./inp_files/48029.got.cif
#   From: 2010.03.12/outbox.cif.g09.slc.cpg/sg64_25_cif.got.tgz:48029.got - 2010.04.10 20:19:32.
