data_PCOD8263002
_publ_section_title
;
Structure prediction by ZEFSAII (Michael W. Deem and Ramdas Pophale) SiO2 
 PCOD8263002
Probable space group: C M C A
;
_chemical_formula_sum "Si O2"
_cell_formula_units_Z 80
_cell_length_a 12.957347
_cell_length_b 26.420515
_cell_length_c 12.338964
_cell_angle_alpha 90.000000
_cell_angle_beta 90.000000
_cell_angle_gamma 90.000000
_cell_volume 4224.118231
_symmetry_space_group_name_H-M "C M C A"
_symmetry_group_IT_number 64
_symmetry_cell_setting 'orthorhombic'
loop_
_space_group_symop_operation_xyz
x,y,z
-x,1/2-y,1/2+z
x,-y,-z
-x,1/2+y,1/2-z
-x,-y,-z
x,1/2+y,1/2-z
-x,y,z
x,1/2-y,1/2+z
1/2+x,1/2+y,z
1/2-x,-y,1/2+z
1/2+x,1/2-y,-z
1/2-x,y,1/2-z
1/2-x,1/2-y,-z
1/2+x,y,1/2-z
1/2-x,1/2+y,z
1/2+x,-y,1/2+z
loop_
_atom_site_type_symbol
_atom_site_label
_atom_site_fract_x
_atom_site_fract_y
_atom_site_fract_z
Si Si1 0.250000 0.921263 0.250000
Si Si2 0.879639 0.839255 0.369492
Si Si3 0.808319 0.166766 0.388641
Si Si4 0.250000 0.757568 0.250000
Si Si5 0.379762 0.499339 0.878450
Si Si6 0.616545 0.613070 0.182371
O O1 0.183425 0.888259 0.333177
O O2 0.328117 0.955266 0.315754
O O3 0.864184 0.831611 0.497211
O O4 0.839252 0.790680 0.304724
O O5 0.000000 0.846419 0.344025
O O6 0.805331 0.223521 0.341315
O O7 0.691066 0.145322 0.396714
O O8 0.870941 0.130424 0.306781
O O9 0.500000 0.511226 0.878450
O O10 0.354531 0.445968 0.822160
O O11 0.335640 0.500000 0.000000
O O12 0.500000 0.622316 0.141676
#
# Coordination Sequence:
#
# PCOD8263002 Si02
#       6
#     8  16  16   8  16  16
#     4  11  22  37  54  80 112 141 178 225 266 312
#     4  11  23  38  56  79 108 141 178 224 275 320
#     4  10  20  37  58  82 110 140 176 223 272 321
#     4   9  22  39  56  80 106 139 182 219 264 328
#     4  10  20  35  56  80 109 147 183 215 258 313
#     4   9  18  33  56  84 111 143 182 219 260 315
#
# _framework density 18.938863999999999
#
# number of rings (size 3 to 8) (size 9 to 14) (size 15 to 20)
#    0.000    2.200    0.000    4.200    0.000    4.000 
#    0.000    4.000    0.000    6.000    0.000    0.000 
#    0.000    0.000    0.000    0.000    0.000    0.000 
#
# Total GULP energy -496054.267359 kJ/mol
# GULP energy per Si atom -12401.356684 kJ/mol
# Density = 1.889576 g / cm^3
# Si number density = 18.938864 Si / 1000 Ang^3
#
#
#
# Elastic Constant Matrix: (Units=GPa)
#
#
# Indices 1 2 3 4 5 6 
#
# 1 78.8709 34.0617 18.2096 0.0000 0.0000 0.0000
# 2 34.0617 124.0969 38.4151 0.0000 0.0000 0.0000
# 3 18.2096 38.4151 80.5582 0.0000 0.0000 0.0000
# 4 0.0000 0.0000 0.0000 21.5056 0.0000 0.0000
# 5 0.0000 0.0000 0.0000 0.0000 29.4227 0.0000
# 6 0.0000 0.0000 0.0000 0.0000 0.0000 -10.6802
#
#
#
# Elastic Compliance Matrix: (Units=1/GPa)
#
#
# Indices 1 2 3 4 5 6 
#
# 1 0.014563 -0.003494 -0.001626 0.000000 0.000000 0.000000
# 2 -0.003494 0.010292 -0.004118 0.000000 0.000000 0.000000
# 3 -0.001626 -0.004118 0.014745 0.000000 0.000000 0.000000
# 4 0.000000 0.000000 0.000000 0.046499 0.000000 0.000000
# 5 0.000000 0.000000 0.000000 0.000000 0.033987 0.000000
# 6 0.000000 0.000000 0.000000 0.000000 0.000000 -0.093631
#
#
# Mechanical properties :
#
#
# Convention : Reuss Voigt Hill
#
# Bulk Modulus (GPa) = 47.33902 51.65541 49.49721
# Shear Modulus (GPa) = 96.20373 20.90559 58.55466
#
# Velocity S-wave (km/s) = 7.13493 3.32602 5.56640
# Velocity P-wave (km/s) = 9.63983 6.48721 8.21615
#
# Compressibility (1/GPa) = 0.02112422
#
# Stress axis : x y z
#
# Youngs Moduli (GPa) = 68.66604 97.16263 67.82131
#
# Poissons Ratio (x) = 0.33949 0.11026
# Poissons Ratio (y) = 0.23992 0.27929
# Poissons Ratio (z) = 0.11163 0.40012
#
# Static dielectric constant tensor:
#      x y z
#    x 3.473530 0.000000 0.000000 
#    y 0.000000 3.571510 0.000000 
#    z 0.000000 0.000000 3.527030 
# 
# 
# High freq. dielectric constant tensor:
#      x y z
#    x 1.739520 0.000000 0.000000 
#    y 0.000000 1.748430 0.000000 
#    z 0.000000 0.000000 1.732140 
# 
# From -- ./inp_files/14512.got.cif
#   From: 2010.03.12/outbox.cif.g09.slc.cpg/sg64_8_cif.got.tgz:14512.got - 2010.04.10 20:19:32.
