data_PCOD8263113
_publ_section_title
;
Structure prediction by ZEFSAII (Michael W. Deem and Ramdas Pophale) SiO2 
 PCOD8263113
Probable space group: C M C A
;
_chemical_formula_sum "Si O2"
_cell_formula_units_Z 112
_cell_length_a 28.518256
_cell_length_b 14.194881
_cell_length_c 14.705661
_cell_angle_alpha 90.000000
_cell_angle_beta 90.000000
_cell_angle_gamma 90.000000
_cell_volume 5953.046426
_symmetry_space_group_name_H-M "C M C A"
_symmetry_group_IT_number 64
_symmetry_cell_setting 'orthorhombic'
loop_
_space_group_symop_operation_xyz
x,y,z
-x,1/2-y,1/2+z
x,-y,-z
-x,1/2+y,1/2-z
-x,-y,-z
x,1/2+y,1/2-z
-x,y,z
x,1/2-y,1/2+z
1/2+x,1/2+y,z
1/2-x,-y,1/2+z
1/2+x,1/2-y,-z
1/2-x,y,1/2-z
1/2-x,1/2-y,-z
1/2+x,y,1/2-z
1/2-x,1/2+y,z
1/2+x,-y,1/2+z
loop_
_atom_site_type_symbol
_atom_site_label
_atom_site_fract_x
_atom_site_fract_y
_atom_site_fract_z
Si Si1 0.357174 0.227385 0.631832
Si Si2 0.947455 0.137950 0.933150
Si Si3 0.355671 0.120506 0.275381
Si Si4 0.240865 0.903953 0.471242
Si Si5 0.808356 0.274632 0.562798
Si Si6 0.447245 0.574037 0.129789
Si Si7 0.297513 0.564525 0.804782
O O1 0.412137 0.205757 0.620102
O O2 0.351199 0.329224 0.678055
O O3 0.334441 0.227701 0.533101
O O4 0.333066 0.152489 0.700188
O O5 0.000000 0.172551 0.910803
O O6 0.939352 0.032828 0.898961
O O7 0.938738 0.140058 0.041734
O O8 0.340540 0.189692 0.356479
O O9 0.410176 0.096994 0.291560
O O10 0.323321 0.028681 0.269910
O O11 0.207400 0.833067 0.414408
O O12 0.262625 0.842955 0.554896
O O13 0.283478 0.945262 0.410530
O O14 0.213236 0.000000 0.500000
O O15 0.500000 0.589503 0.167452
O O16 0.250000 0.584006 0.750000
#
# Coordination Sequence:
#
# PCOD8263113 Si02
#       7
#    16  16  16  16  16  16  16
#     4  11  23  36  58  85 114 153 189 239 286 349
#     4   9  17  34  61  90 114 141 182 240 299 348
#     4  12  22  36  59  82 114 150 192 236 289 346
#     4  10  20  36  56  74 105 155 185 239 282 321
#     4  10  22  37  55  84 108 141 206 233 279 346
#     4   9  18  34  62  89 111 141 186 240 299 351
#     4  11  24  37  55  79 115 150 195 239 289 328
#
# _framework density 18.813897000000001
#
# number of rings (size 3 to 8) (size 9 to 14) (size 15 to 20)
#    0.000    1.714    4.286    1.714    2.000    2.286 
#    0.000    0.000    0.000    0.000    0.000    0.000 
#    0.000    5.714    0.000    0.000    0.000    0.000 
#
# Total GULP energy -694164.845164 kJ/mol
# GULP energy per Si atom -12395.800807 kJ/mol
# Density = 1.877108 g / cm^3
# Si number density = 18.813897 Si / 1000 Ang^3
#
#
#
# Elastic Constant Matrix: (Units=GPa)
#
#
# Indices 1 2 3 4 5 6 
#
# 1 99.4967 28.7491 11.5268 0.0000 0.0000 0.0000
# 2 28.7491 93.4342 7.0938 0.0000 0.0000 0.0000
# 3 11.5268 7.0938 38.0696 0.0000 0.0000 0.0000
# 4 0.0000 0.0000 0.0000 28.1989 0.0000 0.0000
# 5 0.0000 0.0000 0.0000 0.0000 27.7304 0.0000
# 6 0.0000 0.0000 0.0000 0.0000 0.0000 27.8794
#
#
#
# Elastic Compliance Matrix: (Units=1/GPa)
#
#
# Indices 1 2 3 4 5 6 
#
# 1 0.011322 -0.003270 -0.002819 0.000000 0.000000 0.000000
# 2 -0.003270 0.011801 -0.001209 0.000000 0.000000 0.000000
# 3 -0.002819 -0.001209 0.027346 0.000000 0.000000 0.000000
# 4 0.000000 0.000000 0.000000 0.035462 0.000000 0.000000
# 5 0.000000 0.000000 0.000000 0.000000 0.036061 0.000000
# 6 0.000000 0.000000 0.000000 0.000000 0.000000 0.035869
#
#
# Mechanical properties :
#
#
# Convention : Reuss Voigt Hill
#
# Bulk Modulus (GPa) = 27.87524 36.19333 32.03428
# Shear Modulus (GPa) = 27.11287 29.00380 28.05833
#
# Velocity S-wave (km/s) = 3.80031 3.93060 3.86601
# Velocity P-wave (km/s) = 5.83995 6.31497 6.08210
#
# Compressibility (1/GPa) = 0.03587414
#
# Stress axis : x y z
#
# Youngs Moduli (GPa) = 88.32434 84.74173 36.56787
#
# Poissons Ratio (x) = 0.27708 0.10308
# Poissons Ratio (y) = 0.28879 0.04421
# Poissons Ratio (z) = 0.24897 0.10244
#
# Static dielectric constant tensor:
#      x y z
#    x 3.566420 0.000000 0.000000 
#    y 0.000000 3.423280 0.000000 
#    z 0.000000 0.000000 3.212990 
# 
# 
# High freq. dielectric constant tensor:
#      x y z
#    x 1.726690 0.000000 0.000000 
#    y 0.000000 1.724630 0.000000 
#    z 0.000000 0.000000 1.710120 
# 
# From -- ./inp_files/28049.got.cif
#   From: 2010.03.12/outbox.cif.g09.slc.cpg/sg64_15_cif.got.tgz:28049.got - 2010.04.10 20:19:32.
