data_PCOD8263360
_publ_section_title
;
Structure prediction by ZEFSAII (Michael W. Deem and Ramdas Pophale) SiO2 
 PCOD8263360
Probable space group: C M C A
;
_chemical_formula_sum "Si O2"
_cell_formula_units_Z 104
_cell_length_a 21.547707
_cell_length_b 17.753931
_cell_length_c 13.686707
_cell_angle_alpha 90.000000
_cell_angle_beta 90.000000
_cell_angle_gamma 90.000000
_cell_volume 5235.938771
_symmetry_space_group_name_H-M "C M C A"
_symmetry_group_IT_number 64
_symmetry_cell_setting 'orthorhombic'
loop_
_space_group_symop_operation_xyz
x,y,z
-x,1/2-y,1/2+z
x,-y,-z
-x,1/2+y,1/2-z
-x,-y,-z
x,1/2+y,1/2-z
-x,y,z
x,1/2-y,1/2+z
1/2+x,1/2+y,z
1/2-x,-y,1/2+z
1/2+x,1/2-y,-z
1/2-x,y,1/2-z
1/2-x,1/2-y,-z
1/2+x,y,1/2-z
1/2-x,1/2+y,z
1/2+x,-y,1/2+z
loop_
_atom_site_type_symbol
_atom_site_label
_atom_site_fract_x
_atom_site_fract_y
_atom_site_fract_z
Si Si1 0.253242 0.700389 0.634061
Si Si2 0.312406 0.546209 0.593827
Si Si3 0.571223 0.359443 0.417549
Si Si4 0.341660 0.666663 0.148151
Si Si5 0.068624 0.755601 0.233788
Si Si6 0.750000 0.053561 0.250000
Si Si7 0.875350 0.224753 0.962296
O O1 0.250000 0.695725 0.750000
O O2 0.268980 0.619309 0.590928
O O3 0.308358 0.757161 0.609974
O O4 0.192741 0.734392 0.584194
O O5 0.292157 0.500000 0.500000
O O6 0.385584 0.566305 0.589575
O O7 0.298023 0.497221 0.690034
O O8 0.500000 0.382323 0.441759
O O9 0.575831 0.320663 0.312767
O O10 0.597799 0.304499 0.500585
O O11 0.385595 0.685225 0.240585
O O12 0.291990 0.603553 0.176570
O O13 0.379813 0.656741 0.045021
O O14 0.081922 0.795812 0.130468
O O15 0.000000 0.720953 0.234812
#
# Coordination Sequence:
#
# PCOD8263360 Si02
#       7
#    16  16  16  16  16   8  16
#     4  12  20  39  64  85 124 165 203 259 324 371
#     4  12  26  39  61  93 132 173 206 256 324 395
#     4  10  23  43  63  92 126 168 213 260 317 387
#     4  11  22  38  63  92 122 163 211 267 310 371
#     4  10  20  37  64  93 121 157 208 262 316 369
#     4  12  26  42  58  96 134 164 216 266 316 384
#     4  11  20  34  65  93 118 157 212 263 316 367
#
# _framework density 19.862722999999999
#
# number of rings (size 3 to 8) (size 9 to 14) (size 15 to 20)
#    0.000    0.923    6.154    1.846    4.308    0.923 
#    0.000    0.769    0.000    0.000    0.000    2.154 
#    0.000    0.000    0.000    0.000    0.000    0.000 
#
# Total GULP energy -644490.700394 kJ/mol
# GULP energy per Si atom -12394.051931 kJ/mol
# Density = 1.981751 g / cm^3
# Si number density = 19.862723 Si / 1000 Ang^3
#
#
#
# Elastic Constant Matrix: (Units=GPa)
#
#
# Indices 1 2 3 4 5 6 
#
# 1 111.5117 44.2435 56.8546 0.0000 0.0000 0.0000
# 2 44.2435 71.2387 37.1478 0.0000 0.0000 0.0000
# 3 56.8546 37.1478 132.8361 0.0000 0.0000 0.0000
# 4 0.0000 0.0000 0.0000 24.6539 0.0000 0.0000
# 5 0.0000 0.0000 0.0000 0.0000 21.6062 0.0000
# 6 0.0000 0.0000 0.0000 0.0000 0.0000 24.7326
#
#
#
# Elastic Compliance Matrix: (Units=1/GPa)
#
#
# Indices 1 2 3 4 5 6 
#
# 1 0.013518 -0.006297 -0.004025 0.000000 0.000000 0.000000
# 2 -0.006297 0.019367 -0.002721 0.000000 0.000000 0.000000
# 3 -0.004025 -0.002721 0.010012 0.000000 0.000000 0.000000
# 4 0.000000 0.000000 0.000000 0.040562 0.000000 0.000000
# 5 0.000000 0.000000 0.000000 0.000000 0.046283 0.000000
# 6 0.000000 0.000000 0.000000 0.000000 0.000000 0.040433
#
#
# Mechanical properties :
#
#
# Convention : Reuss Voigt Hill
#
# Bulk Modulus (GPa) = 59.48337 65.78647 62.63492
# Shear Modulus (GPa) = 24.76934 26.02125 25.39530
#
# Velocity S-wave (km/s) = 3.53516 3.62339 3.57955
# Velocity P-wave (km/s) = 6.83194 7.12024 6.97758
#
# Compressibility (1/GPa) = 0.01681142
#
# Stress axis : x y z
#
# Youngs Moduli (GPa) = 73.97502 51.63476 99.88332
#
# Poissons Ratio (x) = 0.32513 0.40202
# Poissons Ratio (y) = 0.46580 0.27178
# Poissons Ratio (z) = 0.29774 0.14049
#
# Static dielectric constant tensor:
#      x y z
#    x 3.926130 0.000000 0.000000 
#    y 0.000000 3.408090 0.000000 
#    z 0.000000 0.000000 4.075140 
# 
# 
# High freq. dielectric constant tensor:
#      x y z
#    x 1.781060 0.000000 0.000000 
#    y 0.000000 1.729240 0.000000 
#    z 0.000000 0.000000 1.803980 
# 
# From -- ./inp_files/26561.got.cif
#   From: 2010.03.12/outbox.cif.g09.slc.cpg/sg64_14_cif.got.tgz:26561.got - 2010.04.10 20:19:32.
