data_PCOD8263458
_publ_section_title
;
Structure prediction by ZEFSAII (Michael W. Deem and Ramdas Pophale) SiO2 
 PCOD8263458
Probable space group: C M C A
;
_chemical_formula_sum "Si O2"
_cell_formula_units_Z 112
_cell_length_a 13.822762
_cell_length_b 32.211458
_cell_length_c 12.118288
_cell_angle_alpha 90.000000
_cell_angle_beta 90.000000
_cell_angle_gamma 90.000000
_cell_volume 5395.683699
_symmetry_space_group_name_H-M "C M C A"
_symmetry_group_IT_number 64
_symmetry_cell_setting 'orthorhombic'
loop_
_space_group_symop_operation_xyz
x,y,z
-x,1/2-y,1/2+z
x,-y,-z
-x,1/2+y,1/2-z
-x,-y,-z
x,1/2+y,1/2-z
-x,y,z
x,1/2-y,1/2+z
1/2+x,1/2+y,z
1/2-x,-y,1/2+z
1/2+x,1/2-y,-z
1/2-x,y,1/2-z
1/2-x,1/2-y,-z
1/2+x,y,1/2-z
1/2-x,1/2+y,z
1/2+x,-y,1/2+z
loop_
_atom_site_type_symbol
_atom_site_label
_atom_site_fract_x
_atom_site_fract_y
_atom_site_fract_z
Si Si1 0.172611 0.947918 0.344002
Si Si2 0.391076 0.967920 0.759834
Si Si3 0.105561 0.217862 0.004688
Si Si4 0.390604 0.862188 0.226290
Si Si5 0.107981 0.873454 0.018872
Si Si6 0.207187 0.720074 0.856623
Si Si7 0.258596 0.558536 0.076037
O O1 0.250000 0.941837 0.250000
O O2 0.114968 0.904344 0.346714
O O3 0.222770 0.960091 0.459933
O O4 0.103518 0.986266 0.313112
O O5 0.500000 0.951406 0.742624
O O6 0.334787 0.970975 0.642088
O O7 0.334459 0.936331 0.842726
O O8 0.102406 0.170321 0.045028
O O9 0.198563 0.220581 0.930525
O O10 0.000000 0.227426 0.948345
O O11 0.119076 0.251580 0.101314
O O12 0.500000 0.846201 0.228876
O O13 0.356323 0.869306 0.353333
O O14 0.327441 0.826819 0.167539
O O15 0.000000 0.894103 0.018072
O O16 0.186291 0.898751 0.948891
O O17 0.250000 0.742390 0.750000
#
# Coordination Sequence:
#
# PCOD8263458 Si02
#       7
#    16  16  16  16  16  16  16
#     4  12  22  39  64  99 131 167 210 271 329 386
#     4  11  26  45  64  92 130 176 221 266 327 390
#     4  10  22  38  60  90 124 163 207 253 311 377
#     4  11  22  37  65 101 132 161 203 264 327 388
#     4  10  20  38  65  95 126 165 209 262 321 386
#     4  11  21  38  62  92 125 165 202 255 315 377
#     4  11  23  42  68  90 127 171 217 268 321 386
#
# _framework density 20.757332000000002
#
# number of rings (size 3 to 8) (size 9 to 14) (size 15 to 20)
#    0.000    1.143    4.286    3.000    0.000    2.286 
#    2.571    0.714    0.000    0.857    0.000    0.000 
#    0.000    0.000    0.000    0.000    0.000    0.000 
#
# Total GULP energy -693737.177995 kJ/mol
# GULP energy per Si atom -12388.163893 kJ/mol
# Density = 2.071009 g / cm^3
# Si number density = 20.757332 Si / 1000 Ang^3
#
#
#
# Elastic Constant Matrix: (Units=GPa)
#
#
# Indices 1 2 3 4 5 6 
#
# 1 132.9461 41.1862 47.6255 0.0000 0.0000 0.0000
# 2 41.1862 114.5006 50.5567 0.0000 0.0000 0.0000
# 3 47.6255 50.5567 107.7136 0.0000 0.0000 0.0000
# 4 0.0000 0.0000 0.0000 36.4129 0.0000 0.0000
# 5 0.0000 0.0000 0.0000 0.0000 25.5745 0.0000
# 6 0.0000 0.0000 0.0000 0.0000 0.0000 34.9944
#
#
#
# Elastic Compliance Matrix: (Units=1/GPa)
#
#
# Indices 1 2 3 4 5 6 
#
# 1 0.009261 -0.001921 -0.003193 0.000000 0.000000 0.000000
# 2 -0.001921 0.011415 -0.004508 0.000000 0.000000 0.000000
# 3 -0.003193 -0.004508 0.012812 0.000000 0.000000 0.000000
# 4 0.000000 0.000000 0.000000 0.027463 0.000000 0.000000
# 5 0.000000 0.000000 0.000000 0.000000 0.039101 0.000000
# 6 0.000000 0.000000 0.000000 0.000000 0.000000 0.028576
#
#
# Mechanical properties :
#
#
# Convention : Reuss Voigt Hill
#
# Bulk Modulus (GPa) = 70.21189 70.43303 70.32246
# Shear Modulus (GPa) = 32.76090 33.78248 33.27169
#
# Velocity S-wave (km/s) = 3.97707 4.03860 4.00795
# Velocity P-wave (km/s) = 7.41539 7.46675 7.44111
#
# Compressibility (1/GPa) = 0.01424260
#
# Stress axis : x y z
#
# Youngs Moduli (GPa) = 107.98125 87.60133 78.05386
#
# Poissons Ratio (x) = 0.16832 0.24922
# Poissons Ratio (y) = 0.20747 0.35190
# Poissons Ratio (z) = 0.34477 0.39494
#
# Static dielectric constant tensor:
#      x y z
#    x 3.982740 0.000000 0.000000 
#    y 0.000000 4.077430 0.000000 
#    z 0.000000 0.000000 4.085700 
# 
# 
# High freq. dielectric constant tensor:
#      x y z
#    x 1.831000 0.000000 0.000000 
#    y 0.000000 1.801320 0.000000 
#    z 0.000000 0.000000 1.795680 
# 
# From -- ./inp_files/14979.got.cif
#   From: 2010.03.12/outbox.cif.g09.slc.cpg/sg64_8_cif.got.tgz:14979.got - 2010.04.10 20:19:32.
