data_PCOD8263057
_publ_section_title
;
Structure prediction by ZEFSAII (Michael W. Deem and Ramdas Pophale) SiO2 
 PCOD8263057
Probable space group: C M C A
;
_chemical_formula_sum "Si O2"
_cell_formula_units_Z 96
_cell_length_a 19.068288
_cell_length_b 9.541429
_cell_length_c 27.303211
_cell_angle_alpha 90.000000
_cell_angle_beta 90.000000
_cell_angle_gamma 90.000000
_cell_volume 4967.511155
_symmetry_space_group_name_H-M "C M C A"
_symmetry_group_IT_number 64
_symmetry_cell_setting 'orthorhombic'
loop_
_space_group_symop_operation_xyz
x,y,z
-x,1/2-y,1/2+z
x,-y,-z
-x,1/2+y,1/2-z
-x,-y,-z
x,1/2+y,1/2-z
-x,y,z
x,1/2-y,1/2+z
1/2+x,1/2+y,z
1/2-x,-y,1/2+z
1/2+x,1/2-y,-z
1/2-x,y,1/2-z
1/2-x,1/2-y,-z
1/2+x,y,1/2-z
1/2-x,1/2+y,z
1/2+x,-y,1/2+z
loop_
_atom_site_type_symbol
_atom_site_label
_atom_site_fract_x
_atom_site_fract_y
_atom_site_fract_z
Si Si1 0.918822 0.526888 0.383676
Si Si2 0.183823 0.605038 0.799308
Si Si3 0.181082 0.432172 0.704085
Si Si4 0.420160 0.730435 0.036288
Si Si5 0.919626 0.541017 0.884333
Si Si6 0.081229 0.764315 0.570499
O O1 0.882123 0.567254 0.333655
O O2 0.885224 0.610624 0.429728
O O3 0.907960 0.365088 0.393957
O O4 0.000000 0.570327 0.377463
O O5 0.155974 0.514386 0.752988
O O6 0.200276 0.768079 0.785325
O O7 0.253299 0.521528 0.817358
O O8 0.125792 0.608969 0.841513
O O9 0.500000 0.683562 0.026449
O O10 0.414773 0.874957 0.065082
O O11 0.382720 0.742585 0.983028
O O12 0.886069 0.391645 0.898729
O O13 0.000000 0.533080 0.865665
O O14 0.000000 0.800779 0.561224
#
# Coordination Sequence:
#
# PCOD8263057 Si02
#       6
#    16  16  16  16  16  16
#     4  10  20  35  58  88 117 146 186 234 279 322
#     4  11  24  41  62  82 109 148 187 230 281 341
#     4  11  24  41  62  82 109 148 187 230 281 341
#     4   9  16  32  54  83 118 150 187 225 274 329
#     4  10  20  35  58  88 117 146 186 234 279 322
#     4   9  18  30  54  87 118 152 185 225 272 329
#
# _framework density 19.325572000000001
#
# number of rings (size 3 to 8) (size 9 to 14) (size 15 to 20)
#    0.000    2.000    1.667    3.000    4.667    4.667 
#    0.000    0.000    0.000    6.000    0.000    0.000 
#    0.000    0.000    0.000    0.000    0.000    0.000 
#
# Total GULP energy -594816.645292 kJ/mol
# GULP energy per Si atom -12392.013444 kJ/mol
# Density = 1.928159 g / cm^3
# Si number density = 19.325572 Si / 1000 Ang^3
#
#
#
# Elastic Constant Matrix: (Units=GPa)
#
#
# Indices 1 2 3 4 5 6 
#
# 1 40.4313 19.1335 40.6920 0.0000 0.0000 0.0000
# 2 19.1335 131.2443 24.2758 0.0000 0.0000 0.0000
# 3 40.6920 24.2758 87.1119 0.0000 0.0000 0.0000
# 4 0.0000 0.0000 0.0000 31.6496 0.0000 0.0000
# 5 0.0000 0.0000 0.0000 0.0000 4.4123 0.0000
# 6 0.0000 0.0000 0.0000 0.0000 0.0000 19.9303
#
#
#
# Elastic Compliance Matrix: (Units=1/GPa)
#
#
# Indices 1 2 3 4 5 6 
#
# 1 0.047766 -0.002991 -0.021479 0.000000 0.000000 0.000000
# 2 -0.002991 0.008221 -0.000894 0.000000 0.000000 0.000000
# 3 -0.021479 -0.000894 0.021762 0.000000 0.000000 0.000000
# 4 0.000000 0.000000 0.000000 0.031596 0.000000 0.000000
# 5 0.000000 0.000000 0.000000 0.000000 0.226642 0.000000
# 6 0.000000 0.000000 0.000000 0.000000 0.000000 0.050175
#
#
# Mechanical properties :
#
#
# Convention : Reuss Voigt Hill
#
# Bulk Modulus (GPa) = 37.00776 47.44333 42.22555
# Shear Modulus (GPa) = 11.21336 22.84418 17.02877
#
# Velocity S-wave (km/s) = 2.41142 3.44185 2.97164
# Velocity P-wave (km/s) = 5.19080 6.35594 5.80269
#
# Compressibility (1/GPa) = 0.02702136
#
# Stress axis : x y z
#
# Youngs Moduli (GPa) = 20.93522 121.64387 45.95151
#
# Poissons Ratio (x) = 0.36380 0.98701
# Poissons Ratio (y) = 0.06261 0.04107
# Poissons Ratio (z) = 0.44967 0.10873
#
# Static dielectric constant tensor:
#      x y z
#    x 3.083610 0.000000 0.000000 
#    y 0.000000 3.764050 0.000000 
#    z 0.000000 0.000000 3.548700 
# 
# 
# High freq. dielectric constant tensor:
#      x y z
#    x 1.696880 0.000000 0.000000 
#    y 0.000000 1.779400 0.000000 
#    z 0.000000 0.000000 1.758280 
# 
# From -- ./inp_files/50680.got.cif
#   From: 2010.03.12/outbox.cif.g09.slc.cpg/sg64_26_cif.got.tgz:50680.got - 2010.04.10 20:19:32.
