data_PCOD8263351
_publ_section_title
;
Structure prediction by ZEFSAII (Michael W. Deem and Ramdas Pophale) SiO2 
 PCOD8263351
Probable space group: C M C A
;
_chemical_formula_sum "Si O2"
_cell_formula_units_Z 64
_cell_length_a 16.965762
_cell_length_b 8.730176
_cell_length_c 21.856185
_cell_angle_alpha 90.000000
_cell_angle_beta 90.000000
_cell_angle_gamma 90.000000
_cell_volume 3237.208914
_symmetry_space_group_name_H-M "C M C A"
_symmetry_group_IT_number 64
_symmetry_cell_setting 'orthorhombic'
loop_
_space_group_symop_operation_xyz
x,y,z
-x,1/2-y,1/2+z
x,-y,-z
-x,1/2+y,1/2-z
-x,-y,-z
x,1/2+y,1/2-z
-x,y,z
x,1/2-y,1/2+z
1/2+x,1/2+y,z
1/2-x,-y,1/2+z
1/2+x,1/2-y,-z
1/2-x,y,1/2-z
1/2-x,1/2-y,-z
1/2+x,y,1/2-z
1/2-x,1/2+y,z
1/2+x,-y,1/2+z
loop_
_atom_site_type_symbol
_atom_site_label
_atom_site_fract_x
_atom_site_fract_y
_atom_site_fract_z
Si Si1 0.168959 0.034772 0.067081
Si Si2 0.590502 0.530352 0.293857
Si Si3 0.304158 0.140048 0.882965
Si Si4 0.850475 0.141199 0.818988
O O1 0.260343 0.977764 0.070927
O O2 0.118818 0.941888 0.118468
O O3 0.165022 0.215155 0.079361
O O4 0.134146 0.000000 0.000000
O O5 0.500000 0.487097 0.282966
O O6 0.620467 0.442013 0.353810
O O7 0.597816 0.711522 0.303641
O O8 0.641560 0.482139 0.235086
O O9 0.241765 0.188272 0.829029
#
# Coordination Sequence:
#
# PCOD8263351 Si02
#       4
#    16  16  16  16
#     4  10  20  37  66  91 118 156 210 257 291 350
#     4  12  23  39  61  91 128 159 196 252 314 365
#     4  10  20  37  62  94 118 152 204 250 299 354
#     4  10  22  37  58  91 119 158 202 249 296 363
#
# _framework density 19.770116999999999
#
# number of rings (size 3 to 8) (size 9 to 14) (size 15 to 20)
#    1.500    0.000    2.500    3.750    0.000    2.000 
#    0.000    1.250    0.000   12.000    0.000    0.000 
#    0.000    0.000    0.000    0.000    0.000    0.000 
#
# Total GULP energy -396668.067077 kJ/mol
# GULP energy per Si atom -12395.877096 kJ/mol
# Density = 1.972512 g / cm^3
# Si number density = 19.770117 Si / 1000 Ang^3
#
#
#
# Elastic Constant Matrix: (Units=GPa)
#
#
# Indices 1 2 3 4 5 6 
#
# 1 43.0487 -0.6971 -2.0502 0.0000 0.0000 0.0000
# 2 -0.6971 110.0987 48.5911 0.0000 0.0000 0.0000
# 3 -2.0502 48.5911 109.7725 0.0000 0.0000 0.0000
# 4 0.0000 0.0000 0.0000 35.3661 0.0000 0.0000
# 5 0.0000 0.0000 0.0000 0.0000 10.0409 0.0000
# 6 0.0000 0.0000 0.0000 0.0000 0.0000 17.6794
#
#
#
# Elastic Compliance Matrix: (Units=1/GPa)
#
#
# Indices 1 2 3 4 5 6 
#
# 1 0.023250 -0.000055 0.000459 0.000000 0.000000 0.000000
# 2 -0.000055 0.011288 -0.004998 0.000000 0.000000 0.000000
# 3 0.000459 -0.004998 0.011331 0.000000 0.000000 0.000000
# 4 0.000000 0.000000 0.000000 0.028276 0.000000 0.000000
# 5 0.000000 0.000000 0.000000 0.000000 0.099593 0.000000
# 6 0.000000 0.000000 0.000000 0.000000 0.000000 0.056563
#
#
# Mechanical properties :
#
#
# Convention : Reuss Voigt Hill
#
# Bulk Modulus (GPa) = 27.26236 39.40083 33.33160
# Shear Modulus (GPa) = 19.86361 27.08899 23.47630
#
# Velocity S-wave (km/s) = 3.17318 3.70564 3.44970
# Velocity P-wave (km/s) = 5.21968 6.18722 5.72393
#
# Compressibility (1/GPa) = 0.03668061
#
# Stress axis : x y z
#
# Youngs Moduli (GPa) = 43.00987 88.58868 88.25668
#
# Poissons Ratio (x) = 0.00489 -0.04048
# Poissons Ratio (y) = 0.00238 0.44108
# Poissons Ratio (z) = -0.01973 0.44274
#
# Static dielectric constant tensor:
#      x y z
#    x 3.096390 0.000000 0.000000 
#    y 0.000000 3.495410 0.000000 
#    z 0.000000 0.000000 3.453270 
# 
# 
# High freq. dielectric constant tensor:
#      x y z
#    x 1.724990 0.000000 0.000000 
#    y 0.000000 1.782820 0.000000 
#    z 0.000000 0.000000 1.764600 
# 
# From -- ./inp_files/45576.got.cif
#   From: 2010.03.12/outbox.cif.g09.slc.cpg/sg64_23_cif.got.tgz:45576.got - 2010.04.10 20:19:32.
