data_PCOD8263913
_publ_section_title
;
Structure prediction by ZEFSAII (Michael W. Deem and Ramdas Pophale) SiO2 
 PCOD8263913
Probable space group: C M C A
;
_chemical_formula_sum "Si O2"
_cell_formula_units_Z 64
_cell_length_a 17.037345
_cell_length_b 19.765367
_cell_length_c 9.080057
_cell_angle_alpha 90.000000
_cell_angle_beta 90.000000
_cell_angle_gamma 90.000000
_cell_volume 3057.703535
_symmetry_space_group_name_H-M "C M C A"
_symmetry_group_IT_number 64
_symmetry_cell_setting 'orthorhombic'
loop_
_space_group_symop_operation_xyz
x,y,z
-x,1/2-y,1/2+z
x,-y,-z
-x,1/2+y,1/2-z
-x,-y,-z
x,1/2+y,1/2-z
-x,y,z
x,1/2-y,1/2+z
1/2+x,1/2+y,z
1/2-x,-y,1/2+z
1/2+x,1/2-y,-z
1/2-x,y,1/2-z
1/2-x,1/2-y,-z
1/2+x,y,1/2-z
1/2-x,1/2+y,z
1/2+x,-y,1/2+z
loop_
_atom_site_type_symbol
_atom_site_label
_atom_site_fract_x
_atom_site_fract_y
_atom_site_fract_z
Si Si1 0.908408 0.117167 0.744612
Si Si2 0.308717 0.771044 0.126917
Si Si3 0.089025 0.148551 0.082072
Si Si4 0.326970 0.982713 0.664765
O O1 0.867348 0.163721 0.617145
O O2 0.867282 0.044115 0.747400
O O3 0.000000 0.108614 0.705255
O O4 0.897882 0.150926 0.905865
O O5 0.250000 0.794521 0.250000
O O6 0.360870 0.705895 0.163609
O O7 0.250000 0.750000 0.000000
O O8 0.000000 0.164028 0.121509
O O9 0.110140 0.077183 0.154865
O O10 0.250000 0.957860 0.750000
O O11 0.300186 0.000000 0.500000
#
# Coordination Sequence:
#
# PCOD8263913 Si02
#       4
#    16  16  16  16
#     4  10  21  39  63  92 125 164 208 260 314 371
#     4  12  23  39  63  92 127 165 209 256 316 379
#     4  10  21  39  62  92 123 163 211 258 311 376
#     4  10  21  38  66  91 124 165 213 261 316 374
#
# _framework density 20.930741000000001
#
# number of rings (size 3 to 8) (size 9 to 14) (size 15 to 20)
#    0.000    1.500    2.500    3.000    3.500    3.000 
#    0.000    0.000    0.000    1.500    0.000    0.000 
#    0.000    0.000    0.000    0.000    0.000    0.000 
#
# Total GULP energy -396588.384059 kJ/mol
# GULP energy per Si atom -12393.387002 kJ/mol
# Density = 2.088310 g / cm^3
# Si number density = 20.930741 Si / 1000 Ang^3
#
#
#
# Elastic Constant Matrix: (Units=GPa)
#
#
# Indices 1 2 3 4 5 6 
#
# 1 148.8604 47.4006 38.4323 0.0000 0.0000 0.0000
# 2 47.4006 121.2528 24.4046 0.0000 0.0000 0.0000
# 3 38.4323 24.4046 40.2419 0.0000 0.0000 0.0000
# 4 0.0000 0.0000 0.0000 32.8386 0.0000 0.0000
# 5 0.0000 0.0000 0.0000 0.0000 33.8983 0.0000
# 6 0.0000 0.0000 0.0000 0.0000 0.0000 40.8262
#
#
#
# Elastic Compliance Matrix: (Units=1/GPa)
#
#
# Indices 1 2 3 4 5 6 
#
# 1 0.009372 -0.002121 -0.007664 0.000000 0.000000 0.000000
# 2 -0.002121 0.009874 -0.003962 0.000000 0.000000 0.000000
# 3 -0.007664 -0.003962 0.034572 0.000000 0.000000 0.000000
# 4 0.000000 0.000000 0.000000 0.030452 0.000000 0.000000
# 5 0.000000 0.000000 0.000000 0.000000 0.029500 0.000000
# 6 0.000000 0.000000 0.000000 0.000000 0.000000 0.024494
#
#
# Mechanical properties :
#
#
# Convention : Reuss Voigt Hill
#
# Bulk Modulus (GPa) = 37.98971 58.98112 48.48541
# Shear Modulus (GPa) = 28.64790 34.85379 31.75085
#
# Velocity S-wave (km/s) = 3.70361 4.08511 3.89903
# Velocity P-wave (km/s) = 6.03975 7.10571 6.59431
#
# Compressibility (1/GPa) = 0.02632292
#
# Stress axis : x y z
#
# Youngs Moduli (GPa) = 106.70322 101.27694 28.92513
#
# Poissons Ratio (x) = 0.21482 0.22168
# Poissons Ratio (y) = 0.22633 0.11461
# Poissons Ratio (z) = 0.81778 0.40129
#
# Static dielectric constant tensor:
#      x y z
#    x 4.027210 0.000000 0.000000 
#    y 0.000000 3.822140 0.000000 
#    z 0.000000 0.000000 3.388190 
# 
# 
# High freq. dielectric constant tensor:
#      x y z
#    x 1.844710 0.000000 0.000000 
#    y 0.000000 1.826720 0.000000 
#    z 0.000000 0.000000 1.782830 
# 
# From -- ./inp_files/5562.got.cif
#   From: 2010.03.12/outbox.cif.g09.slc.cpg/sg64_3_cif.got.tgz:5562.got - 2010.04.10 20:19:32.
