data_PCOD8263167
_publ_section_title
;
Structure prediction by ZEFSAII (Michael W. Deem and Ramdas Pophale) SiO2 
 PCOD8263167
Probable space group: C M C A
;
_chemical_formula_sum "Si O2"
_cell_formula_units_Z 96
_cell_length_a 8.984931
_cell_length_b 30.493584
_cell_length_c 18.353668
_cell_angle_alpha 90.000000
_cell_angle_beta 90.000000
_cell_angle_gamma 90.000000
_cell_volume 5028.588398
_symmetry_space_group_name_H-M "C M C A"
_symmetry_group_IT_number 64
_symmetry_cell_setting 'orthorhombic'
loop_
_space_group_symop_operation_xyz
x,y,z
-x,1/2-y,1/2+z
x,-y,-z
-x,1/2+y,1/2-z
-x,-y,-z
x,1/2+y,1/2-z
-x,y,z
x,1/2-y,1/2+z
1/2+x,1/2+y,z
1/2-x,-y,1/2+z
1/2+x,1/2-y,-z
1/2-x,y,1/2-z
1/2-x,1/2-y,-z
1/2+x,y,1/2-z
1/2-x,1/2+y,z
1/2+x,-y,1/2+z
loop_
_atom_site_type_symbol
_atom_site_label
_atom_site_fract_x
_atom_site_fract_y
_atom_site_fract_z
Si Si1 0.825906 0.671796 0.064277
Si Si2 0.826708 0.583073 0.431078
Si Si3 0.175520 0.827972 0.397616
Si Si4 0.823962 0.006454 0.173553
Si Si5 0.323360 0.246970 0.174841
Si Si6 0.173825 0.582761 0.598524
O O1 0.750406 0.627881 0.094480
O O2 0.773985 0.712526 0.113063
O O3 0.000000 0.664044 0.069310
O O4 0.777437 0.681351 0.981174
O O5 0.765797 0.542910 0.383102
O O6 0.790135 0.571963 0.514651
O O7 0.000000 0.589819 0.418444
O O8 0.260251 0.794237 0.346126
O O9 0.228933 0.876277 0.374255
O O10 0.000000 0.823584 0.385290
O O11 0.750000 0.016780 0.250000
O O12 0.000000 0.008696 0.181333
O O13 0.774429 0.958755 0.145527
O O14 0.500000 0.249606 0.183409
O O15 0.250000 0.231268 0.250000
O O16 0.000000 0.593582 0.608989
#
# Coordination Sequence:
#
# PCOD8263167 Si02
#       6
#    16  16  16  16  16  16
#     4   9  20  37  57  81 108 138 175 220 266 315
#     4   9  18  34  57  80 102 135 179 222 261 306
#     4  10  20  36  58  83 108 136 175 221 268 317
#     4  10  21  35  52  77 108 141 176 215 262 315
#     4  11  23  38  55  78 109 144 179 216 263 316
#     4   9  18  35  57  78 103 138 180 221 260 307
#
# _framework density 19.090845000000002
#
# number of rings (size 3 to 8) (size 9 to 14) (size 15 to 20)
#    0.000    2.333    0.000    2.000    0.000    6.667 
#    0.000    5.000    0.000    5.000    0.000    0.000 
#    0.000    0.000    0.000    0.000    0.000    0.000 
#
# Total GULP energy -595390.637638 kJ/mol
# GULP energy per Si atom -12403.971617 kJ/mol
# Density = 1.904739 g / cm^3
# Si number density = 19.090845 Si / 1000 Ang^3
#
#
#
# Elastic Constant Matrix: (Units=GPa)
#
#
# Indices 1 2 3 4 5 6 
#
# 1 43.6208 26.6247 18.2045 0.0000 0.0000 0.0000
# 2 26.6247 84.0961 18.9849 0.0000 0.0000 0.0000
# 3 18.2045 18.9849 50.0331 0.0000 0.0000 0.0000
# 4 0.0000 0.0000 0.0000 16.2149 0.0000 0.0000
# 5 0.0000 0.0000 0.0000 0.0000 31.9224 0.0000
# 6 0.0000 0.0000 0.0000 0.0000 0.0000 34.6718
#
#
#
# Elastic Compliance Matrix: (Units=1/GPa)
#
#
# Indices 1 2 3 4 5 6 
#
# 1 0.031308 -0.008028 -0.008345 0.000000 0.000000 0.000000
# 2 -0.008028 0.015064 -0.002795 0.000000 0.000000 0.000000
# 3 -0.008345 -0.002795 0.024084 0.000000 0.000000 0.000000
# 4 0.000000 0.000000 0.000000 0.061671 0.000000 0.000000
# 5 0.000000 0.000000 0.000000 0.000000 0.031326 0.000000
# 6 0.000000 0.000000 0.000000 0.000000 0.000000 0.028842
#
#
# Mechanical properties :
#
#
# Convention : Reuss Voigt Hill
#
# Bulk Modulus (GPa) = 31.13415 33.93089 32.53252
# Shear Modulus (GPa) = 20.71796 24.15757 22.43776
#
# Velocity S-wave (km/s) = 3.29786 3.56111 3.43201
# Velocity P-wave (km/s) = 5.55383 5.89242 5.72563
#
# Compressibility (1/GPa) = 0.03211907
#
# Stress axis : x y z
#
# Youngs Moduli (GPa) = 31.94119 66.38445 41.52197
#
# Poissons Ratio (x) = 0.53293 0.34650
# Poissons Ratio (y) = 0.25642 0.11605
# Poissons Ratio (z) = 0.26655 0.18554
#
# Static dielectric constant tensor:
#      x y z
#    x 3.377330 0.000000 0.000000 
#    y 0.000000 3.624570 0.000000 
#    z 0.000000 0.000000 3.534500 
# 
# 
# High freq. dielectric constant tensor:
#      x y z
#    x 1.736460 0.000000 0.000000 
#    y 0.000000 1.752110 0.000000 
#    z 0.000000 0.000000 1.739460 
# 
# From -- ./inp_files/37099.got.cif
#   From: 2010.03.12/outbox.cif.g09.slc.cpg/sg64_19_cif.got.tgz:37099.got - 2010.04.10 20:19:32.
