data_PCOD8263667
_publ_section_title
;
Structure prediction by ZEFSAII (Michael W. Deem and Ramdas Pophale) SiO2 
 PCOD8263667
Probable space group: C M C A
;
_chemical_formula_sum "Si O2"
_cell_formula_units_Z 80
_cell_length_a 8.470683
_cell_length_b 15.504324
_cell_length_c 29.752652
_cell_angle_alpha 90.000000
_cell_angle_beta 90.000000
_cell_angle_gamma 90.000000
_cell_volume 3907.481652
_symmetry_space_group_name_H-M "C M C A"
_symmetry_group_IT_number 64
_symmetry_cell_setting 'orthorhombic'
loop_
_space_group_symop_operation_xyz
x,y,z
-x,1/2-y,1/2+z
x,-y,-z
-x,1/2+y,1/2-z
-x,-y,-z
x,1/2+y,1/2-z
-x,y,z
x,1/2-y,1/2+z
1/2+x,1/2+y,z
1/2-x,-y,1/2+z
1/2+x,1/2-y,-z
1/2-x,y,1/2-z
1/2-x,1/2-y,-z
1/2+x,y,1/2-z
1/2-x,1/2+y,z
1/2+x,-y,1/2+z
loop_
_atom_site_type_symbol
_atom_site_label
_atom_site_fract_x
_atom_site_fract_y
_atom_site_fract_z
Si Si1 0.320672 0.724037 0.952749
Si Si2 0.186291 0.375471 0.700197
Si Si3 0.181216 0.046507 0.546414
Si Si4 0.313671 0.527642 0.863817
Si Si5 0.314458 0.781360 0.139756
O O1 0.500000 0.756331 0.949804
O O2 0.309323 0.621583 0.950708
O O3 0.225999 0.759076 0.909427
O O4 0.250000 0.750000 0.000000
O O5 0.250000 0.377386 0.750000
O O6 0.243162 0.462737 0.675279
O O7 0.248405 0.288628 0.675627
O O8 0.000000 0.372495 0.701012
O O9 0.222648 0.992405 0.591238
O O10 0.000000 0.079516 0.548384
O O11 0.213589 0.000000 0.500000
O O12 0.500000 0.521112 0.871272
O O13 0.268276 0.626320 0.851400
O O14 0.500000 0.796135 0.143360
#
# Coordination Sequence:
#
# PCOD8263667 Si02
#       5
#    16  16  16  16  16
#     4  11  22  36  56  84 117 157 198 241 294 353
#     4  10  24  42  63  90 119 154 201 248 303 361
#     4  10  21  36  55  85 118 153 198 241 291 353
#     4  10  21  39  60  87 119 157 199 244 299 357
#     4  10  21  40  61  87 120 157 198 248 300 357
#
# _framework density 20.473545000000001
#
# number of rings (size 3 to 8) (size 9 to 14) (size 15 to 20)
#    0.000    1.800    0.000    6.000    2.800    5.600 
#    0.000    4.000    0.000    0.000    0.000    0.000 
#    0.000    0.000    0.000    0.000    0.000    0.000 
#
# Total GULP energy -495747.489122 kJ/mol
# GULP energy per Si atom -12393.687228 kJ/mol
# Density = 2.042695 g / cm^3
# Si number density = 20.473545 Si / 1000 Ang^3
#
#
#
# Elastic Constant Matrix: (Units=GPa)
#
#
# Indices 1 2 3 4 5 6 
#
# 1 61.4526 23.4474 29.7123 0.0000 0.0000 0.0000
# 2 23.4474 103.4263 86.1907 0.0000 0.0000 0.0000
# 3 29.7123 86.1907 200.6453 0.0000 0.0000 0.0000
# 4 0.0000 0.0000 0.0000 39.3259 0.0000 0.0000
# 5 0.0000 0.0000 0.0000 0.0000 36.4550 0.0000
# 6 0.0000 0.0000 0.0000 0.0000 0.0000 28.2207
#
#
#
# Elastic Compliance Matrix: (Units=1/GPa)
#
#
# Indices 1 2 3 4 5 6 
#
# 1 0.018072 -0.002908 -0.001427 0.000000 0.000000 0.000000
# 2 -0.002908 0.015528 -0.006240 0.000000 0.000000 0.000000
# 3 -0.001427 -0.006240 0.007876 0.000000 0.000000 0.000000
# 4 0.000000 0.000000 0.000000 0.025429 0.000000 0.000000
# 5 0.000000 0.000000 0.000000 0.000000 0.027431 0.000000
# 6 0.000000 0.000000 0.000000 0.000000 0.000000 0.035435
#
#
# Mechanical properties :
#
#
# Convention : Reuss Voigt Hill
#
# Bulk Modulus (GPa) = 49.19689 71.58057 60.38873
# Shear Modulus (GPa) = 31.70685 35.87858 33.79272
#
# Velocity S-wave (km/s) = 3.93959 4.19075 4.06711
# Velocity P-wave (km/s) = 6.69145 7.64558 7.18437
#
# Compressibility (1/GPa) = 0.02032649
#
# Stress axis : x y z
#
# Youngs Moduli (GPa) = 55.33361 64.40083 126.97460
#
# Poissons Ratio (x) = 0.18726 0.18121
# Poissons Ratio (y) = 0.16090 0.79227
# Poissons Ratio (z) = 0.07897 0.40184
#
# Static dielectric constant tensor:
#      x y z
#    x 3.652250 0.000000 0.000000 
#    y 0.000000 3.458270 0.000000 
#    z 0.000000 0.000000 3.214730 
# 
# 
# High freq. dielectric constant tensor:
#      x y z
#    x 1.802360 0.000000 0.000000 
#    y 0.000000 1.792810 0.000000 
#    z 0.000000 0.000000 1.811420 
# 
# From -- ./inp_files/47888.got.cif
#   From: 2010.03.12/outbox.cif.g09.slc.cpg/sg64_24_cif.got.tgz:47888.got - 2010.04.10 20:19:32.
