data_PCOD8263452
_publ_section_title
;
Structure prediction by ZEFSAII (Michael W. Deem and Ramdas Pophale) SiO2 
 PCOD8263452
Probable space group: C M C A
;
_chemical_formula_sum "Si O2"
_cell_formula_units_Z 112
_cell_length_a 14.074398
_cell_length_b 15.116116
_cell_length_c 23.982637
_cell_angle_alpha 90.000000
_cell_angle_beta 90.000000
_cell_angle_gamma 90.000000
_cell_volume 5102.311605
_symmetry_space_group_name_H-M "C M C A"
_symmetry_group_IT_number 64
_symmetry_cell_setting 'orthorhombic'
loop_
_space_group_symop_operation_xyz
x,y,z
-x,1/2-y,1/2+z
x,-y,-z
-x,1/2+y,1/2-z
-x,-y,-z
x,1/2+y,1/2-z
-x,y,z
x,1/2-y,1/2+z
1/2+x,1/2+y,z
1/2-x,-y,1/2+z
1/2+x,1/2-y,-z
1/2-x,y,1/2-z
1/2-x,1/2-y,-z
1/2+x,y,1/2-z
1/2-x,1/2+y,z
1/2+x,-y,1/2+z
loop_
_atom_site_type_symbol
_atom_site_label
_atom_site_fract_x
_atom_site_fract_y
_atom_site_fract_z
Si Si1 0.279830 0.282146 0.560968
Si Si2 0.887022 0.457613 0.264879
Si Si3 0.887575 0.044347 0.445213
Si Si4 0.394461 0.221112 0.373588
Si Si5 0.114059 0.704145 0.660361
Si Si6 0.608287 0.655379 0.247617
Si Si7 0.890368 0.082999 0.646058
O O1 0.250000 0.250000 0.500000
O O2 0.361384 0.353973 0.555749
O O3 0.185564 0.326186 0.589134
O O4 0.327498 0.209091 0.602173
O O5 0.854510 0.391456 0.314448
O O6 0.845707 0.558670 0.265530
O O7 0.844759 0.416485 0.207633
O O8 0.000000 0.459529 0.267814
O O9 0.000000 0.035026 0.445586
O O10 0.843060 0.000000 0.500000
O O11 0.843990 0.993687 0.391767
O O12 0.500000 0.187467 0.390952
O O13 0.379492 0.212294 0.307890
O O14 0.380646 0.324851 0.386552
O O15 0.149692 0.785805 0.700913
O O16 0.000000 0.709062 0.651411
O O17 0.500000 0.638860 0.263448
O O18 0.000000 0.059847 0.655618
#
# Coordination Sequence:
#
# PCOD8263452 Si02
#       7
#    16  16  16  16  16  16  16
#     4  12  26  41  59  90 127 167 217 267 317 381
#     4   9  16  30  58  92 122 156 196 246 317 388
#     4  10  21  40  67  95 123 162 218 274 322 369
#     4  10  21  40  64  87 122 166 206 256 322 389
#     4  10  20  38  64  93 130 165 206 266 328 392
#     4   9  17  34  61  93 126 162 203 253 319 396
#     4   9  16  33  62  92 120 157 204 256 315 376
#
# _framework density 21.950834
#
# number of rings (size 3 to 8) (size 9 to 14) (size 15 to 20)
#    0.000    2.143    1.429    2.143    0.000    5.143 
#    5.143    0.000    0.000    0.429    0.000    0.000 
#    0.000    0.000    0.000    0.000    0.000    0.000 
#
# Total GULP energy -693790.083599 kJ/mol
# GULP energy per Si atom -12389.108636 kJ/mol
# Density = 2.190087 g / cm^3
# Si number density = 21.950834 Si / 1000 Ang^3
#
#
#
# Elastic Constant Matrix: (Units=GPa)
#
#
# Indices 1 2 3 4 5 6 
#
# 1 57.7740 7.6602 31.0937 0.0000 0.0000 0.0000
# 2 7.6602 115.3956 47.0805 0.0000 0.0000 0.0000
# 3 31.0937 47.0805 134.4383 0.0000 0.0000 0.0000
# 4 0.0000 0.0000 0.0000 36.8635 0.0000 0.0000
# 5 0.0000 0.0000 0.0000 0.0000 27.8786 0.0000
# 6 0.0000 0.0000 0.0000 0.0000 0.0000 7.7450
#
#
#
# Elastic Compliance Matrix: (Units=1/GPa)
#
#
# Indices 1 2 3 4 5 6 
#
# 1 0.019811 0.000647 -0.004808 0.000000 0.000000 0.000000
# 2 0.000647 0.010132 -0.003698 0.000000 0.000000 0.000000
# 3 -0.004808 -0.003698 0.009845 0.000000 0.000000 0.000000
# 4 0.000000 0.000000 0.000000 0.027127 0.000000 0.000000
# 5 0.000000 0.000000 0.000000 0.000000 0.035870 0.000000
# 6 0.000000 0.000000 0.000000 0.000000 0.000000 0.129116
#
#
# Mechanical properties :
#
#
# Convention : Reuss Voigt Hill
#
# Bulk Modulus (GPa) = 41.54701 53.25294 47.39998
# Shear Modulus (GPa) = 19.55854 29.28232 24.42043
#
# Velocity S-wave (km/s) = 2.98823 3.65635 3.33904
# Velocity P-wave (km/s) = 5.55647 6.49138 6.04204
#
# Compressibility (1/GPa) = 0.02406912
#
# Stress axis : x y z
#
# Youngs Moduli (GPa) = 50.47703 98.70188 101.57014
#
# Poissons Ratio (x) = -0.06383 0.48840
# Poissons Ratio (y) = -0.03265 0.37557
# Poissons Ratio (z) = 0.24272 0.36497
#
# Static dielectric constant tensor:
#      x y z
#    x 3.836600 0.000000 0.000000 
#    y 0.000000 4.008350 0.000000 
#    z 0.000000 0.000000 4.133300 
# 
# 
# High freq. dielectric constant tensor:
#      x y z
#    x 1.850720 0.000000 0.000000 
#    y 0.000000 1.855820 0.000000 
#    z 0.000000 0.000000 1.855740 
# 
# From -- ./inp_files/45268.got.cif
#   From: 2010.03.12/outbox.cif.g09.slc.cpg/sg64_23_cif.got.tgz:45268.got - 2010.04.10 20:19:32.
