data_PCOD8263700
_publ_section_title
;
Structure prediction by ZEFSAII (Michael W. Deem and Ramdas Pophale) SiO2 
 PCOD8263700
Probable space group: C M C A
;
_chemical_formula_sum "Si O2"
_cell_formula_units_Z 96
_cell_length_a 19.468017
_cell_length_b 11.956464
_cell_length_c 18.850602
_cell_angle_alpha 90.000000
_cell_angle_beta 90.000000
_cell_angle_gamma 90.000000
_cell_volume 4387.829074
_symmetry_space_group_name_H-M "C M C A"
_symmetry_group_IT_number 64
_symmetry_cell_setting 'orthorhombic'
loop_
_space_group_symop_operation_xyz
x,y,z
-x,1/2-y,1/2+z
x,-y,-z
-x,1/2+y,1/2-z
-x,-y,-z
x,1/2+y,1/2-z
-x,y,z
x,1/2-y,1/2+z
1/2+x,1/2+y,z
1/2-x,-y,1/2+z
1/2+x,1/2-y,-z
1/2-x,y,1/2-z
1/2-x,1/2-y,-z
1/2+x,y,1/2-z
1/2-x,1/2+y,z
1/2+x,-y,1/2+z
loop_
_atom_site_type_symbol
_atom_site_label
_atom_site_fract_x
_atom_site_fract_y
_atom_site_fract_z
Si Si1 0.424176 0.633340 0.364901
Si Si2 0.797354 0.421198 0.436168
Si Si3 0.923699 0.435278 0.605884
Si Si4 0.079271 0.255162 0.721647
Si Si5 0.384132 0.750379 0.000774
Si Si6 0.843819 0.591214 0.873602
O O1 0.500000 0.584748 0.347260
O O2 0.401528 0.718528 0.302776
O O3 0.430091 0.700711 0.438023
O O4 0.369721 0.534928 0.371266
O O5 0.770478 0.500000 0.500000
O O6 0.867357 0.468219 0.401315
O O7 0.813185 0.297928 0.467556
O O8 0.739041 0.411709 0.375904
O O9 0.906566 0.367054 0.676873
O O10 0.923104 0.352201 0.538477
O O11 0.000000 0.489011 0.610472
O O12 0.129384 0.156278 0.695731
O O13 0.000000 0.216535 0.712544
O O14 0.370425 0.849697 0.055409
#
# Coordination Sequence:
#
# PCOD8263700 Si02
#       6
#    16  16  16  16  16  16
#     4  11  23  38  60  90 120 155 201 252 304 357
#     4  10  21  37  61  91 121 158 200 248 302 354
#     4   9  19  38  62  87 118 159 205 247 293 355
#     4   9  21  41  61  83 118 161 199 243 300 358
#     4  10  21  36  60  90 122 158 199 248 296 356
#     4  11  22  40  62  86 119 158 198 245 303 363
#
# _framework density 21.878701
#
# number of rings (size 3 to 8) (size 9 to 14) (size 15 to 20)
#    0.000    2.000    0.000    3.000    0.000   10.333 
#    0.000    8.333    0.000    0.000    0.000    0.000 
#    0.000    0.000    0.000    0.000    0.000    0.000 
#
# Total GULP energy -595270.714812 kJ/mol
# GULP energy per Si atom -12401.473225 kJ/mol
# Density = 2.182890 g / cm^3
# Si number density = 21.878701 Si / 1000 Ang^3
#
#
#
# Elastic Constant Matrix: (Units=GPa)
#
#
# Indices 1 2 3 4 5 6 
#
# 1 118.9153 38.1985 34.5595 0.0000 0.0000 0.0000
# 2 38.1985 72.5581 38.4990 0.0000 0.0000 0.0000
# 3 34.5595 38.4990 102.4456 0.0000 0.0000 0.0000
# 4 0.0000 0.0000 0.0000 27.6756 0.0000 0.0000
# 5 0.0000 0.0000 0.0000 0.0000 26.5952 0.0000
# 6 0.0000 0.0000 0.0000 0.0000 0.0000 25.1998
#
#
#
# Elastic Compliance Matrix: (Units=1/GPa)
#
#
# Indices 1 2 3 4 5 6 
#
# 1 0.010383 -0.004506 -0.001809 0.000000 0.000000 0.000000
# 2 -0.004506 0.019170 -0.005684 0.000000 0.000000 0.000000
# 3 -0.001809 -0.005684 0.012508 0.000000 0.000000 0.000000
# 4 0.000000 0.000000 0.000000 0.036133 0.000000 0.000000
# 5 0.000000 0.000000 0.000000 0.000000 0.037601 0.000000
# 6 0.000000 0.000000 0.000000 0.000000 0.000000 0.039683
#
#
# Mechanical properties :
#
#
# Convention : Reuss Voigt Hill
#
# Bulk Modulus (GPa) = 55.36495 57.38143 56.37319
# Shear Modulus (GPa) = 26.95475 28.07159 27.51317
#
# Velocity S-wave (km/s) = 3.51381 3.58586 3.55002
# Velocity P-wave (km/s) = 6.46705 6.59003 6.52883
#
# Compressibility (1/GPa) = 0.01806197
#
# Stress axis : x y z
#
# Youngs Moduli (GPa) = 96.31532 52.16427 79.95102
#
# Poissons Ratio (x) = 0.23505 0.14464
# Poissons Ratio (y) = 0.43400 0.45445
# Poissons Ratio (z) = 0.17425 0.29651
#
# Static dielectric constant tensor:
#      x y z
#    x 3.797470 0.000000 0.000000 
#    y 0.000000 3.793240 0.000000 
#    z 0.000000 0.000000 4.026820 
# 
# 
# High freq. dielectric constant tensor:
#      x y z
#    x 1.853120 0.000000 0.000000 
#    y 0.000000 1.855440 0.000000 
#    z 0.000000 0.000000 1.858330 
# 
# From -- ./inp_files/40870.got.cif
#   From: 2010.03.12/outbox.cif.g09.slc.cpg/sg64_21_cif.got.tgz:40870.got - 2010.04.10 20:19:32.
