data_PCOD8263081
_publ_section_title
;
Structure prediction by ZEFSAII (Michael W. Deem and Ramdas Pophale) SiO2 
 PCOD8263081
Probable space group: C M C A
;
_chemical_formula_sum "Si O2"
_cell_formula_units_Z 120
_cell_length_a 23.475529
_cell_length_b 22.472927
_cell_length_c 11.711834
_cell_angle_alpha 90.000000
_cell_angle_beta 90.000000
_cell_angle_gamma 90.000000
_cell_volume 6178.740230
_symmetry_space_group_name_H-M "C M C A"
_symmetry_group_IT_number 64
_symmetry_cell_setting 'orthorhombic'
loop_
_space_group_symop_operation_xyz
x,y,z
-x,1/2-y,1/2+z
x,-y,-z
-x,1/2+y,1/2-z
-x,-y,-z
x,1/2+y,1/2-z
-x,y,z
x,1/2-y,1/2+z
1/2+x,1/2+y,z
1/2-x,-y,1/2+z
1/2+x,1/2-y,-z
1/2-x,y,1/2-z
1/2-x,1/2-y,-z
1/2+x,y,1/2-z
1/2-x,1/2+y,z
1/2+x,-y,1/2+z
loop_
_atom_site_type_symbol
_atom_site_label
_atom_site_fract_x
_atom_site_fract_y
_atom_site_fract_z
Si Si1 0.375331 0.561178 0.935892
Si Si2 0.241831 0.569307 0.487053
Si Si3 0.750000 0.374572 0.750000
Si Si4 0.063208 0.649983 0.416929
Si Si5 0.064297 0.775071 0.130476
Si Si6 0.869276 0.159777 0.309485
Si Si7 0.432780 0.605920 0.730796
Si Si8 0.368359 0.571698 0.508240
O O1 0.312904 0.593956 0.941153
O O2 0.397796 0.556905 0.805771
O O3 0.365808 0.500000 0.000000
O O4 0.425440 0.594279 0.002168
O O5 0.246721 0.500000 0.500000
O O6 0.230580 0.583529 0.354113
O O7 0.303021 0.592824 0.533246
O O8 0.801407 0.333326 0.794307
O O9 0.068991 0.707753 0.497402
O O10 0.107044 0.649290 0.315581
O O11 0.000000 0.645350 0.365923
O O12 0.107710 0.721354 0.142340
O O13 0.080623 0.829013 0.216165
O O14 0.000000 0.754166 0.159593
O O15 0.885917 0.103217 0.388718
O O16 0.500000 0.592304 0.732332
O O17 0.409480 0.599975 0.603037
O O18 0.375970 0.500000 0.500000
#
# Coordination Sequence:
#
# PCOD8263081 Si02
#       8
#    16  16   8  16  16  16  16  16
#     4  10  20  35  61  89 116 157 194 246 302 354
#     4   9  19  35  60  84 118 161 203 242 289 366
#     4  10  20  38  56  90 126 150 198 260 306 360
#     4  10  21  37  59  88 115 150 206 250 291 363
#     4   9  21  41  62  85 111 154 208 251 296 356
#     4  11  22  39  64  86 119 162 198 253 309 362
#     4  10  23  41  59  85 125 157 197 258 303 358
#     4  10  24  40  59  91 123 163 202 243 309 378
#
# _framework density 19.421434000000001
#
# number of rings (size 3 to 8) (size 9 to 14) (size 15 to 20)
#    0.000    2.133    1.333    1.600    3.733    6.133 
#    0.000    3.333    0.000    0.000    0.000    0.000 
#    0.000    0.000    0.000    0.000    0.000    0.000 
#
# Total GULP energy -743569.563848 kJ/mol
# GULP energy per Si atom -12392.826064 kJ/mol
# Density = 1.937723 g / cm^3
# Si number density = 19.421434 Si / 1000 Ang^3
#
#
#
# Elastic Constant Matrix: (Units=GPa)
#
#
# Indices 1 2 3 4 5 6 
#
# 1 122.5292 44.6551 60.4025 0.0000 0.0000 0.0000
# 2 44.6551 78.7873 29.3440 0.0000 0.0000 0.0000
# 3 60.4025 29.3440 102.4822 0.0000 0.0000 0.0000
# 4 0.0000 0.0000 0.0000 21.9396 0.0000 0.0000
# 5 0.0000 0.0000 0.0000 0.0000 38.6021 0.0000
# 6 0.0000 0.0000 0.0000 0.0000 0.0000 25.3538
#
#
#
# Elastic Compliance Matrix: (Units=1/GPa)
#
#
# Indices 1 2 3 4 5 6 
#
# 1 0.013107 -0.005095 -0.006267 0.000000 0.000000 0.000000
# 2 -0.005095 0.016188 -0.001632 0.000000 0.000000 0.000000
# 3 -0.006267 -0.001632 0.013919 0.000000 0.000000 0.000000
# 4 0.000000 0.000000 0.000000 0.045580 0.000000 0.000000
# 5 0.000000 0.000000 0.000000 0.000000 0.025905 0.000000
# 6 0.000000 0.000000 0.000000 0.000000 0.000000 0.039442
#
#
# Mechanical properties :
#
#
# Convention : Reuss Voigt Hill
#
# Bulk Modulus (GPa) = 58.05006 63.62243 60.83624
# Shear Modulus (GPa) = 26.90045 28.47225 27.68635
#
# Velocity S-wave (km/s) = 3.72572 3.83302 3.77975
# Velocity P-wave (km/s) = 6.96150 7.24012 7.10218
#
# Compressibility (1/GPa) = 0.01722651
#
# Stress axis : x y z
#
# Youngs Moduli (GPa) = 76.29301 61.77385 71.84629
#
# Poissons Ratio (x) = 0.31474 0.45023
# Poissons Ratio (y) = 0.38872 0.11727
# Poissons Ratio (z) = 0.47809 0.10083
#
# Static dielectric constant tensor:
#      x y z
#    x 4.082940 0.000000 0.000000 
#    y 0.000000 3.142890 0.000000 
#    z 0.000000 0.000000 3.776800 
# 
# 
# High freq. dielectric constant tensor:
#      x y z
#    x 1.772800 0.000000 0.000000 
#    y 0.000000 1.730800 0.000000 
#    z 0.000000 0.000000 1.759470 
# 
# From -- ./inp_files/18573.got.cif
#   From: 2010.03.12/outbox.cif.g09.slc.cpg/sg64_10_cif.got.tgz:18573.got - 2010.04.10 20:19:32.
