data_PCOD8263879
_publ_section_title
;
Structure prediction by ZEFSAII (Michael W. Deem and Ramdas Pophale) SiO2 
 PCOD8263879
Probable space group: C M C A
;
_chemical_formula_sum "Si O2"
_cell_formula_units_Z 80
_cell_length_a 8.796801
_cell_length_b 24.728362
_cell_length_c 18.378716
_cell_angle_alpha 90.000000
_cell_angle_beta 90.000000
_cell_angle_gamma 90.000000
_cell_volume 3997.930905
_symmetry_space_group_name_H-M "C M C A"
_symmetry_group_IT_number 64
_symmetry_cell_setting 'orthorhombic'
loop_
_space_group_symop_operation_xyz
x,y,z
-x,1/2-y,1/2+z
x,-y,-z
-x,1/2+y,1/2-z
-x,-y,-z
x,1/2+y,1/2-z
-x,y,z
x,1/2-y,1/2+z
1/2+x,1/2+y,z
1/2-x,-y,1/2+z
1/2+x,1/2-y,-z
1/2-x,y,1/2-z
1/2-x,1/2-y,-z
1/2+x,y,1/2-z
1/2-x,1/2+y,z
1/2+x,-y,1/2+z
loop_
_atom_site_type_symbol
_atom_site_label
_atom_site_fract_x
_atom_site_fract_y
_atom_site_fract_z
Si Si1 0.821333 0.901000 0.827679
Si Si2 0.322926 0.812666 0.922543
Si Si3 0.822608 0.812772 0.073871
Si Si4 0.677260 0.601516 0.673282
Si Si5 0.824782 0.994693 0.583794
O O1 0.750000 0.914239 0.750000
O O2 0.758858 0.844334 0.857789
O O3 0.781271 0.949087 0.882362
O O4 0.000000 0.896482 0.818613
O O5 0.500000 0.826323 0.920913
O O6 0.288521 0.749783 0.910087
O O7 0.259508 0.832054 0.000293
O O8 0.756680 0.845248 0.141761
O O9 0.000000 0.824145 0.064636
O O10 0.500000 0.613304 0.682876
O O11 0.750000 0.586694 0.750000
O O12 0.709855 0.551842 0.620289
O O13 0.000000 0.977431 0.594317
O O14 0.780999 0.000000 0.500000
#
# Coordination Sequence:
#
# PCOD8263879 Si02
#       5
#    16  16  16  16  16
#     4  12  25  40  61  88 120 157 197 244 296 350
#     4  10  21  39  62  88 120 156 195 241 292 348
#     4  10  21  38  62  90 119 154 197 243 291 347
#     4  11  23  38  59  86 120 159 196 241 294 349
#     4  10  22  41  64  89 118 153 193 239 293 351
#
# _framework density 20.010351
#
# number of rings (size 3 to 8) (size 9 to 14) (size 15 to 20)
#    0.000    1.400    0.000    5.400    0.000    8.400 
#    0.000    0.000    0.000    0.000    0.000    0.000 
#    0.000    0.000    0.000    0.000    0.000    0.000 
#
# Total GULP energy -496334.747662 kJ/mol
# GULP energy per Si atom -12408.368692 kJ/mol
# Density = 1.996481 g / cm^3
# Si number density = 20.010351 Si / 1000 Ang^3
#
#
#
# Elastic Constant Matrix: (Units=GPa)
#
#
# Indices 1 2 3 4 5 6 
#
# 1 134.3717 57.8063 61.5068 0.0000 0.0000 0.0000
# 2 57.8063 90.0863 57.4388 0.0000 0.0000 0.0000
# 3 61.5068 57.4388 146.0344 0.0000 0.0000 0.0000
# 4 0.0000 0.0000 0.0000 24.1795 0.0000 0.0000
# 5 0.0000 0.0000 0.0000 0.0000 39.3885 0.0000
# 6 0.0000 0.0000 0.0000 0.0000 0.0000 32.6060
#
#
#
# Elastic Compliance Matrix: (Units=1/GPa)
#
#
# Indices 1 2 3 4 5 6 
#
# 1 0.010902 -0.005430 -0.002456 0.000000 0.000000 0.000000
# 2 -0.005430 0.017520 -0.004604 0.000000 0.000000 0.000000
# 3 -0.002456 -0.004604 0.009693 0.000000 0.000000 0.000000
# 4 0.000000 0.000000 0.000000 0.041357 0.000000 0.000000
# 5 0.000000 0.000000 0.000000 0.000000 0.025388 0.000000
# 6 0.000000 0.000000 0.000000 0.000000 0.000000 0.030669
#
#
# Mechanical properties :
#
#
# Convention : Reuss Voigt Hill
#
# Bulk Modulus (GPa) = 76.13015 80.44403 78.28709
# Shear Modulus (GPa) = 30.32349 32.15083 31.23716
#
# Velocity S-wave (km/s) = 3.89702 4.01273 3.95530
# Velocity P-wave (km/s) = 7.64049 7.85861 7.75032
#
# Compressibility (1/GPa) = 0.01313540
#
# Stress axis : x y z
#
# Youngs Moduli (GPa) = 91.72534 57.07707 103.16554
#
# Poissons Ratio (x) = 0.30991 0.25339
# Poissons Ratio (y) = 0.49803 0.47500
# Poissons Ratio (z) = 0.22529 0.26280
#
# Static dielectric constant tensor:
#      x y z
#    x 3.718450 0.000000 0.000000 
#    y 0.000000 3.659370 0.000000 
#    z 0.000000 0.000000 3.657940 
# 
# 
# High freq. dielectric constant tensor:
#      x y z
#    x 1.791920 0.000000 0.000000 
#    y 0.000000 1.790270 0.000000 
#    z 0.000000 0.000000 1.788710 
# 
# From -- ./inp_files/29731.got.cif
#   From: 2010.03.12/outbox.cif.g09.slc.cpg/sg64_15_cif.got.tgz:29731.got - 2010.04.10 20:19:32.
