data_PCOD8263621
_publ_section_title
;
Structure prediction by ZEFSAII (Michael W. Deem and Ramdas Pophale) SiO2 
 PCOD8263621
Probable space group: C M C A
;
_chemical_formula_sum "Si O2"
_cell_formula_units_Z 88
_cell_length_a 23.795255
_cell_length_b 12.652970
_cell_length_c 14.006914
_cell_angle_alpha 90.000000
_cell_angle_beta 90.000000
_cell_angle_gamma 90.000000
_cell_volume 4217.210739
_symmetry_space_group_name_H-M "C M C A"
_symmetry_group_IT_number 64
_symmetry_cell_setting 'orthorhombic'
loop_
_space_group_symop_operation_xyz
x,y,z
-x,1/2-y,1/2+z
x,-y,-z
-x,1/2+y,1/2-z
-x,-y,-z
x,1/2+y,1/2-z
-x,y,z
x,1/2-y,1/2+z
1/2+x,1/2+y,z
1/2-x,-y,1/2+z
1/2+x,1/2-y,-z
1/2-x,y,1/2-z
1/2-x,1/2-y,-z
1/2+x,y,1/2-z
1/2-x,1/2+y,z
1/2+x,-y,1/2+z
loop_
_atom_site_type_symbol
_atom_site_label
_atom_site_fract_x
_atom_site_fract_y
_atom_site_fract_z
Si Si1 0.937401 0.383169 0.962586
Si Si2 0.330432 0.380775 0.019559
Si Si3 0.628290 0.782221 0.122910
Si Si4 0.361983 0.276484 0.680827
Si Si5 0.250000 0.390398 0.750000
Si Si6 0.282482 0.550911 0.591759
O O1 0.893291 0.370952 0.875137
O O2 0.000000 0.351991 0.927753
O O3 0.935669 0.500000 0.000000
O O4 0.922018 0.309044 0.051690
O O5 0.359760 0.323856 0.110076
O O6 0.264553 0.376821 0.042117
O O7 0.353253 0.500000 0.000000
O O8 0.338045 0.316123 0.921941
O O9 0.601615 0.755197 0.226056
O O10 0.671623 0.878530 0.144874
O O11 0.303293 0.315166 0.728600
O O12 0.248435 0.468502 0.658480
O O13 0.314722 0.500000 0.500000
#
# Coordination Sequence:
#
# PCOD8263621 Si02
#       6
#    16  16  16  16   8  16
#     4  10  23  43  64  85 111 149 199 248 294 348
#     4  10  21  35  52  81 122 163 196 229 282 353
#     4  11  21  36  59  84 115 152 195 241 293 345
#     4  11  22  37  59  87 121 153 193 243 295 352
#     4  12  22  34  58  92 124 156 194 236 300 368
#     4  11  20  33  54  84 124 158 191 232 286 354
#
# _framework density 20.866872999999998
#
# number of rings (size 3 to 8) (size 9 to 14) (size 15 to 20)
#    0.000    1.273    0.000    8.727    0.000    2.182 
#    0.000    0.000    0.000    8.727    0.000    0.000 
#    0.000    0.727    0.000    0.000    0.000    0.000 
#
# Total GULP energy -545251.976457 kJ/mol
# GULP energy per Si atom -12392.090374 kJ/mol
# Density = 2.081938 g / cm^3
# Si number density = 20.866873 Si / 1000 Ang^3
#
#
#
# Elastic Constant Matrix: (Units=GPa)
#
#
# Indices 1 2 3 4 5 6 
#
# 1 79.5134 30.3369 35.1761 0.0000 0.0000 0.0000
# 2 30.3369 103.0114 47.2362 0.0000 0.0000 0.0000
# 3 35.1761 47.2362 165.6177 0.0000 0.0000 0.0000
# 4 0.0000 0.0000 0.0000 30.0332 0.0000 0.0000
# 5 0.0000 0.0000 0.0000 0.0000 -99.6355 0.0000
# 6 0.0000 0.0000 0.0000 0.0000 0.0000 22.6197
#
#
#
# Elastic Compliance Matrix: (Units=1/GPa)
#
#
# Indices 1 2 3 4 5 6 
#
# 1 0.014828 -0.003363 -0.002190 0.000000 0.000000 0.000000
# 2 -0.003363 0.011931 -0.002689 0.000000 0.000000 0.000000
# 3 -0.002190 -0.002689 0.007270 0.000000 0.000000 0.000000
# 4 0.000000 0.000000 0.000000 0.033296 0.000000 0.000000
# 5 0.000000 0.000000 0.000000 0.000000 -0.010037 0.000000
# 6 0.000000 0.000000 0.000000 0.000000 0.000000 0.044209
#
#
# Mechanical properties :
#
#
# Convention : Reuss Voigt Hill
#
# Bulk Modulus (GPa) = 56.99271 63.73788 60.36530
# Shear Modulus (GPa) = 40.37782 6.29638 23.33710
#
# Velocity S-wave (km/s) = 4.40366 1.73895 3.34785
# Velocity P-wave (km/s) = 7.29576 5.88585 6.62840
#
# Compressibility (1/GPa) = 0.01754610
#
# Stress axis : x y z
#
# Youngs Moduli (GPa) = 67.43794 83.81658 137.55042
#
# Poissons Ratio (x) = 0.28184 0.30129
# Poissons Ratio (y) = 0.22676 0.36982
# Poissons Ratio (z) = 0.14772 0.22535
#
# Static dielectric constant tensor:
#      x y z
#    x 3.642610 0.000000 0.000000 
#    y 0.000000 4.009660 0.000000 
#    z 0.000000 0.000000 4.122300 
# 
# 
# High freq. dielectric constant tensor:
#      x y z
#    x 1.771940 0.000000 0.000000 
#    y 0.000000 1.825340 0.000000 
#    z 0.000000 0.000000 1.838410 
# 
# From -- ./inp_files/27963.got.cif
#   From: 2010.03.12/outbox.cif.g09.slc.cpg/sg64_14_cif.got.tgz:27963.got - 2010.04.10 20:19:32.
