data_PCOD8263481
_publ_section_title
;
Structure prediction by ZEFSAII (Michael W. Deem and Ramdas Pophale) SiO2 
 PCOD8263481
Probable space group: C M C A
;
_chemical_formula_sum "Si O2"
_cell_formula_units_Z 112
_cell_length_a 17.411048
_cell_length_b 19.740173
_cell_length_c 17.706592
_cell_angle_alpha 90.000000
_cell_angle_beta 90.000000
_cell_angle_gamma 90.000000
_cell_volume 6085.704315
_symmetry_space_group_name_H-M "C M C A"
_symmetry_group_IT_number 64
_symmetry_cell_setting 'orthorhombic'
loop_
_space_group_symop_operation_xyz
x,y,z
-x,1/2-y,1/2+z
x,-y,-z
-x,1/2+y,1/2-z
-x,-y,-z
x,1/2+y,1/2-z
-x,y,z
x,1/2-y,1/2+z
1/2+x,1/2+y,z
1/2-x,-y,1/2+z
1/2+x,1/2-y,-z
1/2-x,y,1/2-z
1/2-x,1/2-y,-z
1/2+x,y,1/2-z
1/2-x,1/2+y,z
1/2+x,-y,1/2+z
loop_
_atom_site_type_symbol
_atom_site_label
_atom_site_fract_x
_atom_site_fract_y
_atom_site_fract_z
Si Si1 0.163027 0.840874 0.667447
Si Si2 0.413948 0.850702 0.988523
Si Si3 0.740219 0.702854 0.669041
Si Si4 0.277092 0.447578 0.892502
Si Si5 0.765372 0.410142 0.052796
Si Si6 0.583986 0.250539 0.385865
Si Si7 0.586380 0.612120 0.180167
O O1 0.103347 0.839746 0.599025
O O2 0.210559 0.771380 0.667430
O O3 0.222052 0.902542 0.659386
O O4 0.115653 0.852133 0.743523
O O5 0.500000 0.880549 0.997386
O O6 0.354724 0.902674 0.028401
O O7 0.406527 0.777177 0.028355
O O8 0.750000 0.666289 0.750000
O O9 0.765413 0.653609 0.600866
O O10 0.649711 0.717451 0.665532
O O11 0.242868 0.522935 0.896389
O O12 0.359947 0.448546 0.850779
O O13 0.284919 0.415741 0.976608
O O14 0.500000 0.272977 0.353758
O O15 0.589325 0.169275 0.385163
O O16 0.500000 0.584043 0.192078
#
# Coordination Sequence:
#
# PCOD8263481 Si02
#       7
#    16  16  16  16  16  16  16
#     4  11  20  33  57  84 114 140 189 232 282 335
#     4   9  19  35  56  82 114 143 180 232 284 332
#     4  11  19  33  54  82 109 148 180 233 284 338
#     4  10  20  39  56  80 109 148 189 240 271 334
#     4   9  22  36  58  80 110 145 195 231 280 333
#     4   9  18  32  51  79 109 142 177 222 278 330
#     4  11  21  34  56  81 113 149 183 228 281 333
#
# _framework density 18.403786
#
# number of rings (size 3 to 8) (size 9 to 14) (size 15 to 20)
#    0.000    2.000    2.857    0.857    2.000    2.857 
#    0.000    7.857    0.000    6.857    0.000    0.000 
#    0.000    0.000    0.000    0.000    0.000    0.000 
#
# Total GULP energy -694095.532896 kJ/mol
# GULP energy per Si atom -12394.563087 kJ/mol
# Density = 1.836190 g / cm^3
# Si number density = 18.403786 Si / 1000 Ang^3
#
#
#
# Elastic Constant Matrix: (Units=GPa)
#
#
# Indices 1 2 3 4 5 6 
#
# 1 126.3763 46.3769 58.4284 0.0000 0.0000 0.0000
# 2 46.3769 84.9645 40.9337 0.0000 0.0000 0.0000
# 3 58.4284 40.9337 81.8210 0.0000 0.0000 0.0000
# 4 0.0000 0.0000 0.0000 24.5225 0.0000 0.0000
# 5 0.0000 0.0000 0.0000 0.0000 26.5164 0.0000
# 6 0.0000 0.0000 0.0000 0.0000 0.0000 22.0096
#
#
#
# Elastic Compliance Matrix: (Units=1/GPa)
#
#
# Indices 1 2 3 4 5 6 
#
# 1 0.012485 -0.003320 -0.007255 0.000000 0.000000 0.000000
# 2 -0.003320 0.016390 -0.005829 0.000000 0.000000 0.000000
# 3 -0.007255 -0.005829 0.020319 0.000000 0.000000 0.000000
# 4 0.000000 0.000000 0.000000 0.040779 0.000000 0.000000
# 5 0.000000 0.000000 0.000000 0.000000 0.037712 0.000000
# 6 0.000000 0.000000 0.000000 0.000000 0.000000 0.045435
#
#
# Mechanical properties :
#
#
# Convention : Reuss Voigt Hill
#
# Bulk Modulus (GPa) = 61.02547 64.95997 62.99272
# Shear Modulus (GPa) = 23.65299 24.43790 24.04544
#
# Velocity S-wave (km/s) = 3.58889 3.64795 3.61854
# Velocity P-wave (km/s) = 7.09963 7.28815 7.19451
#
# Compressibility (1/GPa) = 0.01638660
#
# Stress axis : x y z
#
# Youngs Moduli (GPa) = 80.09367 61.01311 49.21562
#
# Poissons Ratio (x) = 0.20255 0.35706
# Poissons Ratio (y) = 0.26589 0.28688
# Poissons Ratio (z) = 0.58108 0.35565
#
# Static dielectric constant tensor:
#      x y z
#    x 3.539530 0.000000 0.000000 
#    y 0.000000 3.230370 0.000000 
#    z 0.000000 0.000000 3.558420 
# 
# 
# High freq. dielectric constant tensor:
#      x y z
#    x 1.716180 0.000000 0.000000 
#    y 0.000000 1.687810 0.000000 
#    z 0.000000 0.000000 1.719210 
# 
# From -- ./inp_files/33611.got.cif
#   From: 2010.03.12/outbox.cif.g09.slc.cpg/sg64_17_cif.got.tgz:33611.got - 2010.04.10 20:19:32.
