data_PCOD8263945
_publ_section_title
;
Structure prediction by ZEFSAII (Michael W. Deem and Ramdas Pophale) SiO2 
 PCOD8263945
Probable space group: C M C A
;
_chemical_formula_sum "Si O2"
_cell_formula_units_Z 112
_cell_length_a 13.720224
_cell_length_b 14.574102
_cell_length_c 25.891429
_cell_angle_alpha 90.000000
_cell_angle_beta 90.000000
_cell_angle_gamma 90.000000
_cell_volume 5177.248694
_symmetry_space_group_name_H-M "C M C A"
_symmetry_group_IT_number 64
_symmetry_cell_setting 'orthorhombic'
loop_
_space_group_symop_operation_xyz
x,y,z
-x,1/2-y,1/2+z
x,-y,-z
-x,1/2+y,1/2-z
-x,-y,-z
x,1/2+y,1/2-z
-x,y,z
x,1/2-y,1/2+z
1/2+x,1/2+y,z
1/2-x,-y,1/2+z
1/2+x,1/2-y,-z
1/2-x,y,1/2-z
1/2-x,1/2-y,-z
1/2+x,y,1/2-z
1/2-x,1/2+y,z
1/2+x,-y,1/2+z
loop_
_atom_site_type_symbol
_atom_site_label
_atom_site_fract_x
_atom_site_fract_y
_atom_site_fract_z
Si Si1 0.615806 0.950399 0.106938
Si Si2 0.251854 0.399490 0.483381
Si Si3 0.211678 0.143628 0.404022
Si Si4 0.114061 0.442431 0.304617
Si Si5 0.114751 0.672443 0.599236
Si Si6 0.113204 0.143497 0.168586
Si Si7 0.885557 0.660684 0.793945
O O1 0.500000 0.954039 0.103101
O O2 0.655165 0.903922 0.054657
O O3 0.654501 0.890211 0.155078
O O4 0.657363 0.052150 0.114020
O O5 0.216603 0.500000 0.500000
O O6 0.283080 0.343882 0.534189
O O7 0.161323 0.351371 0.455790
O O8 0.149416 0.227776 0.381382
O O9 0.321938 0.145931 0.382850
O O10 0.152569 0.402188 0.358947
O O11 0.137125 0.550776 0.299538
O O12 0.162105 0.386450 0.256870
O O13 0.000000 0.424126 0.303324
O O14 0.000000 0.671823 0.592179
O O15 0.138821 0.230770 0.204681
O O16 0.000000 0.145889 0.150989
O O17 0.000000 0.644654 0.792652
#
# Coordination Sequence:
#
# PCOD8263945 Si02
#       7
#    16  16  16  16  16  16  16
#     4  10  21  39  62  88 120 157 198 244 296 354
#     4  10  22  39  59  84 116 154 201 252 295 350
#     4  11  23  39  59  89 122 153 198 249 296 356
#     4   9  19  37  60  86 118 154 194 244 298 351
#     4  11  23  39  59  86 122 159 195 243 302 357
#     4  10  21  39  63  88 118 158 200 245 298 352
#     4   9  19  37  62  88 116 155 199 243 294 353
#
# _framework density 21.633112000000001
#
# number of rings (size 3 to 8) (size 9 to 14) (size 15 to 20)
#    0.000    2.000    0.000    3.429    0.000    5.143 
#    0.000   13.571    0.000    0.000    0.000    0.000 
#    0.000    0.000    0.000    0.000    0.000    0.000 
#
# Total GULP energy -694464.929494 kJ/mol
# GULP energy per Si atom -12401.159455 kJ/mol
# Density = 2.158387 g / cm^3
# Si number density = 21.633112 Si / 1000 Ang^3
#
#
#
# Elastic Constant Matrix: (Units=GPa)
#
#
# Indices 1 2 3 4 5 6 
#
# 1 86.5419 41.4138 10.3985 0.0000 0.0000 0.0000
# 2 41.4138 164.8203 66.5841 0.0000 0.0000 0.0000
# 3 10.3985 66.5841 87.6955 0.0000 0.0000 0.0000
# 4 0.0000 0.0000 0.0000 31.5013 0.0000 0.0000
# 5 0.0000 0.0000 0.0000 0.0000 -28.8550 0.0000
# 6 0.0000 0.0000 0.0000 0.0000 0.0000 26.6765
#
#
#
# Elastic Compliance Matrix: (Units=1/GPa)
#
#
# Indices 1 2 3 4 5 6 
#
# 1 0.013249 -0.003887 0.001380 0.000000 0.000000 0.000000
# 2 -0.003887 0.009892 -0.007050 0.000000 0.000000 0.000000
# 3 0.001380 -0.007050 0.016592 0.000000 0.000000 0.000000
# 4 0.000000 0.000000 0.000000 0.031745 0.000000 0.000000
# 5 0.000000 0.000000 0.000000 0.000000 -0.034656 0.000000
# 6 0.000000 0.000000 0.000000 0.000000 0.000000 0.037486
#
#
# Mechanical properties :
#
#
# Convention : Reuss Voigt Hill
#
# Bulk Modulus (GPa) = 48.49567 63.98339 56.23953
# Shear Modulus (GPa) = 49.85378 20.57533 35.21455
#
# Velocity S-wave (km/s) = 4.80574 3.08734 4.03899
# Velocity P-wave (km/s) = 7.29791 6.50767 6.91409
#
# Compressibility (1/GPa) = 0.02062040
#
# Stress axis : x y z
#
# Youngs Moduli (GPa) = 75.47658 101.09561 60.27024
#
# Poissons Ratio (x) = 0.39291 -0.08317
# Poissons Ratio (y) = 0.29334 0.42488
# Poissons Ratio (z) = -0.10415 0.71268
#
# Static dielectric constant tensor:
#      x y z
#    x 3.760920 0.000000 0.000000 
#    y 0.000000 4.103550 0.000000 
#    z 0.000000 0.000000 4.021060 
# 
# 
# High freq. dielectric constant tensor:
#      x y z
#    x 1.852520 0.000000 0.000000 
#    y 0.000000 1.864170 0.000000 
#    z 0.000000 0.000000 1.841080 
# 
# From -- ./inp_files/45228.got.cif
#   From: 2010.03.12/outbox.cif.g09.slc.cpg/sg64_23_cif.got.tgz:45228.got - 2010.04.10 20:19:32.
