data_PCOD8263586
_publ_section_title
;
Structure prediction by ZEFSAII (Michael W. Deem and Ramdas Pophale) SiO2 
 PCOD8263586
Probable space group: C M C A
;
_chemical_formula_sum "Si O2"
_cell_formula_units_Z 72
_cell_length_a 28.195613
_cell_length_b 10.514719
_cell_length_c 11.722791
_cell_angle_alpha 90.000000
_cell_angle_beta 90.000000
_cell_angle_gamma 90.000000
_cell_volume 3475.443512
_symmetry_space_group_name_H-M "C M C A"
_symmetry_group_IT_number 64
_symmetry_cell_setting 'orthorhombic'
loop_
_space_group_symop_operation_xyz
x,y,z
-x,1/2-y,1/2+z
x,-y,-z
-x,1/2+y,1/2-z
-x,-y,-z
x,1/2+y,1/2-z
-x,y,z
x,1/2-y,1/2+z
1/2+x,1/2+y,z
1/2-x,-y,1/2+z
1/2+x,1/2-y,-z
1/2-x,y,1/2-z
1/2-x,1/2-y,-z
1/2+x,y,1/2-z
1/2-x,1/2+y,z
1/2+x,-y,1/2+z
loop_
_atom_site_type_symbol
_atom_site_label
_atom_site_fract_x
_atom_site_fract_y
_atom_site_fract_z
Si Si1 0.934071 0.591944 0.098266
Si Si2 0.299207 0.128202 0.689153
Si Si3 0.000000 0.307507 0.466679
Si Si4 0.670840 0.902142 0.836122
Si Si5 0.500000 0.049561 0.305365
Si Si6 0.749704 0.000000 0.500000
O O1 0.877470 0.583933 0.094341
O O2 0.953754 0.554848 0.223805
O O3 0.952255 0.731436 0.064451
O O4 0.954210 0.500000 0.000000
O O5 0.250000 0.147950 0.750000
O O6 0.328829 0.257087 0.709185
O O7 0.285809 0.101058 0.558079
O O8 0.328527 0.006834 0.735958
O O9 0.000000 0.425916 0.382592
O O10 0.000000 0.336000 0.602332
O O11 0.717225 0.922091 0.913443
#
# Coordination Sequence:
#
# PCOD8263586 Si02
#       6
#    16  16   8  16   8   8
#     4  11  25  42  68  98 131 168 214 268 335 387
#     4  10  22  40  63  90 127 176 214 265 321 379
#     4  10  24  45  69  93 132 166 215 266 338 393
#     4  11  23  40  64  96 127 168 220 269 319 391
#     4  10  24  45  69  95 128 172 209 270 332 407
#     4  10  20  42  60  89 132 171 218 268 324 384
#
# _framework density 20.716778999999999
#
# number of rings (size 3 to 8) (size 9 to 14) (size 15 to 20)
#    0.000    1.556    1.111    4.000    9.333    1.778 
#    4.000    0.000    0.000    0.000    0.000    0.000 
#    0.000    0.000    0.000    0.000    0.000    0.000 
#
# Total GULP energy -446247.716746 kJ/mol
# GULP energy per Si atom -12395.769910 kJ/mol
# Density = 2.066963 g / cm^3
# Si number density = 20.716779 Si / 1000 Ang^3
#
#
#
# Elastic Constant Matrix: (Units=GPa)
#
#
# Indices 1 2 3 4 5 6 
#
# 1 84.4506 40.0378 24.3917 0.0000 0.0000 0.0000
# 2 40.0378 145.0147 60.8550 0.0000 0.0000 0.0000
# 3 24.3917 60.8550 129.2495 0.0000 0.0000 0.0000
# 4 0.0000 0.0000 0.0000 35.2892 0.0000 0.0000
# 5 0.0000 0.0000 0.0000 0.0000 59.8170 0.0000
# 6 0.0000 0.0000 0.0000 0.0000 0.0000 18.6217
#
#
#
# Elastic Compliance Matrix: (Units=1/GPa)
#
#
# Indices 1 2 3 4 5 6 
#
# 1 0.013729 -0.003369 -0.001005 0.000000 0.000000 0.000000
# 2 -0.003369 0.009421 -0.003800 0.000000 0.000000 0.000000
# 3 -0.001005 -0.003800 0.009716 0.000000 0.000000 0.000000
# 4 0.000000 0.000000 0.000000 0.028337 0.000000 0.000000
# 5 0.000000 0.000000 0.000000 0.000000 0.016718 0.000000
# 6 0.000000 0.000000 0.000000 0.000000 0.000000 0.053701
#
#
# Mechanical properties :
#
#
# Convention : Reuss Voigt Hill
#
# Bulk Modulus (GPa) = 60.53901 67.69818 64.11859
# Shear Modulus (GPa) = 32.57901 38.30758 35.44330
#
# Velocity S-wave (km/s) = 3.96989 4.30479 4.14073
# Velocity P-wave (km/s) = 7.09218 7.58005 7.34017
#
# Compressibility (1/GPa) = 0.01651828
#
# Stress axis : x y z
#
# Youngs Moduli (GPa) = 72.84090 106.15146 102.92694
#
# Poissons Ratio (x) = 0.35760 0.10341
# Poissons Ratio (y) = 0.24538 0.39110
# Poissons Ratio (z) = 0.07318 0.40335
#
# Static dielectric constant tensor:
#      x y z
#    x 3.566510 0.000000 0.000000 
#    y 0.000000 3.924660 0.000000 
#    z 0.000000 0.000000 1.807210 
# 
# 
# High freq. dielectric constant tensor:
#      x y z
#    x 1.800460 0.000000 0.000000 
#    y 0.000000 1.820100 0.000000 
#    z 0.000000 0.000000 1.815280 
# 
# From -- ./inp_files/18964.got.cif
#   From: 2010.03.12/outbox.cif.g09.slc.cpg/sg64_10_cif.got.tgz:18964.got - 2010.04.10 20:19:32.
