data_PCOD8263648
_publ_section_title
;
Structure prediction by ZEFSAII (Michael W. Deem and Ramdas Pophale) SiO2 
 PCOD8263648
Probable space group: C M C A
;
_chemical_formula_sum "Si O2"
_cell_formula_units_Z 72
_cell_length_a 21.903191
_cell_length_b 21.216903
_cell_length_c 7.435708
_cell_angle_alpha 90.000000
_cell_angle_beta 90.000000
_cell_angle_gamma 90.000000
_cell_volume 3455.506449
_symmetry_space_group_name_H-M "C M C A"
_symmetry_group_IT_number 64
_symmetry_cell_setting 'orthorhombic'
loop_
_space_group_symop_operation_xyz
x,y,z
-x,1/2-y,1/2+z
x,-y,-z
-x,1/2+y,1/2-z
-x,-y,-z
x,1/2+y,1/2-z
-x,y,z
x,1/2-y,1/2+z
1/2+x,1/2+y,z
1/2-x,-y,1/2+z
1/2+x,1/2-y,-z
1/2-x,y,1/2-z
1/2-x,1/2-y,-z
1/2+x,y,1/2-z
1/2-x,1/2+y,z
1/2+x,-y,1/2+z
loop_
_atom_site_type_symbol
_atom_site_label
_atom_site_fract_x
_atom_site_fract_y
_atom_site_fract_z
Si Si1 0.645614 0.500000 0.000000
Si Si2 0.644998 0.844937 0.981480
Si Si3 0.769153 0.888760 0.046188
Si Si4 0.069212 0.048771 0.659640
Si Si5 0.815983 0.780387 0.841727
O O1 0.689370 0.441821 0.953861
O O2 0.605580 0.478998 0.170927
O O3 0.704568 0.888163 0.943052
O O4 0.592481 0.884910 0.078139
O O5 0.660073 0.788519 0.116903
O O6 0.632248 0.814243 0.785307
O O7 0.750000 0.902794 0.250000
O O8 0.805823 0.822430 0.022193
O O9 0.000000 0.059588 0.723266
O O10 0.073849 0.000000 0.500000
O O11 0.750000 0.774578 0.750000
#
# Coordination Sequence:
#
# PCOD8263648 Si02
#       5
#     8  16  16  16  16
#     4  12  25  40  72  96 131 170 218 278 324 402
#     4  11  21  39  63  93 131 169 215 266 327 401
#     4  11  21  36  59 100 134 161 206 265 336 395
#     4  11  26  47  66  90 128 179 226 273 328 392
#     4  10  21  35  62  92 135 173 199 260 339 399
#
# _framework density 20.836309
#
# number of rings (size 3 to 8) (size 9 to 14) (size 15 to 20)
#    0.000    1.111    2.222    6.333    1.556    2.667 
#    0.000    1.111    0.000    0.000    0.000    0.000 
#    0.000    0.000    0.000    0.000    0.000    0.000 
#
# Total GULP energy -446023.507058 kJ/mol
# GULP energy per Si atom -12389.541863 kJ/mol
# Density = 2.078889 g / cm^3
# Si number density = 20.836309 Si / 1000 Ang^3
#
#
#
# Elastic Constant Matrix: (Units=GPa)
#
#
# Indices 1 2 3 4 5 6 
#
# 1 103.1447 70.5863 39.4224 0.0000 0.0000 0.0000
# 2 70.5863 130.3276 37.0564 0.0000 0.0000 0.0000
# 3 39.4224 37.0564 98.3430 0.0000 0.0000 0.0000
# 4 0.0000 0.0000 0.0000 33.6556 0.0000 0.0000
# 5 0.0000 0.0000 0.0000 0.0000 9.3979 0.0000
# 6 0.0000 0.0000 0.0000 0.0000 0.0000 644.7584
#
#
#
# Elastic Compliance Matrix: (Units=1/GPa)
#
#
# Indices 1 2 3 4 5 6 
#
# 1 0.016488 -0.007897 -0.003634 0.000000 0.000000 0.000000
# 2 -0.007897 0.012376 -0.001498 0.000000 0.000000 0.000000
# 3 -0.003634 -0.001498 0.012190 0.000000 0.000000 0.000000
# 4 0.000000 0.000000 0.000000 0.029713 0.000000 0.000000
# 5 0.000000 0.000000 0.000000 0.000000 0.106407 0.000000
# 6 0.000000 0.000000 0.000000 0.000000 0.000000 0.001551
#
#
# Mechanical properties :
#
#
# Convention : Reuss Voigt Hill
#
# Bulk Modulus (GPa) = 66.68221 69.54950 68.11586
# Shear Modulus (GPa) = 23.83444 149.87906 86.85675
#
# Velocity S-wave (km/s) = 3.38581 8.49046 6.46342
# Velocity P-wave (km/s) = 6.88167 11.38282 9.40547
#
# Compressibility (1/GPa) = 0.01499650
#
# Stress axis : x y z
#
# Youngs Moduli (GPa) = 60.64944 80.80282 82.03726
#
# Poissons Ratio (x) = 0.63809 0.29812
# Poissons Ratio (y) = 0.47894 0.12287
# Poissons Ratio (z) = 0.22040 0.12102
#
# Static dielectric constant tensor:
#      x y z
#    x 3.662730 0.000000 0.000000 
#    y 0.000000 4.193330 0.000000 
#    z 0.000000 0.000000 4.268750 
# 
# 
# High freq. dielectric constant tensor:
#      x y z
#    x 1.767720 0.000000 0.000000 
#    y 0.000000 1.832400 0.000000 
#    z 0.000000 0.000000 1.833980 
# 
# From -- ./inp_files/9209.got.cif
#   From: 2010.03.12/outbox.cif.g09.slc.cpg/sg64_5_cif.got.tgz:9209.got - 2010.04.10 20:19:32.
