data_PCOD8263065
_publ_section_title
;
Structure prediction by ZEFSAII (Michael W. Deem and Ramdas Pophale) SiO2 
 PCOD8263065
Probable space group: C M C A
;
_chemical_formula_sum "Si O2"
_cell_formula_units_Z 88
_cell_length_a 31.229662
_cell_length_b 8.912651
_cell_length_c 14.803226
_cell_angle_alpha 90.000000
_cell_angle_beta 90.000000
_cell_angle_gamma 90.000000
_cell_volume 4120.316280
_symmetry_space_group_name_H-M "C M C A"
_symmetry_group_IT_number 64
_symmetry_cell_setting 'orthorhombic'
loop_
_space_group_symop_operation_xyz
x,y,z
-x,1/2-y,1/2+z
x,-y,-z
-x,1/2+y,1/2-z
-x,-y,-z
x,1/2+y,1/2-z
-x,y,z
x,1/2-y,1/2+z
1/2+x,1/2+y,z
1/2-x,-y,1/2+z
1/2+x,1/2-y,-z
1/2-x,y,1/2-z
1/2-x,1/2-y,-z
1/2+x,y,1/2-z
1/2-x,1/2+y,z
1/2+x,-y,1/2+z
loop_
_atom_site_type_symbol
_atom_site_label
_atom_site_fract_x
_atom_site_fract_y
_atom_site_fract_z
Si Si1 0.250000 0.384620 0.250000
Si Si2 0.365479 0.272044 0.449465
Si Si3 0.547185 0.030971 0.207694
Si Si4 0.365146 0.406220 0.634733
Si Si5 0.191150 0.364892 0.688386
Si Si6 0.952899 0.784845 0.874159
O O1 0.220459 0.487253 0.314762
O O2 0.221217 0.281380 0.185731
O O3 0.351799 0.294960 0.553246
O O4 0.356474 0.422243 0.392177
O O5 0.338090 0.140225 0.401588
O O6 0.415758 0.226649 0.448781
O O7 0.500000 0.086017 0.174353
O O8 0.584173 0.115267 0.151601
O O9 0.552881 0.065555 0.314212
O O10 0.551379 0.852702 0.196356
O O11 0.337880 0.362091 0.721830
O O12 0.000000 0.782976 0.921401
#
# Coordination Sequence:
#
# PCOD8263065 Si02
#       6
#     8  16  16  16  16  16
#     4  10  24  38  66  82 110 144 180 230 310 338
#     4  10  20  35  59  87 117 151 188 232 277 329
#     4   9  17  30  52  82 115 152 190 227 268 318
#     4  10  20  35  59  87 117 151 188 232 277 329
#     4  11  20  42  59  86 110 146 181 238 284 353
#     4   9  17  30  52  82 115 152 190 227 268 318
#
# _framework density 21.357583000000002
#
# number of rings (size 3 to 8) (size 9 to 14) (size 15 to 20)
#    0.000    2.182    3.636    0.000    0.000    0.727 
#    0.000   10.000    0.000    0.000    0.000    5.091 
#    0.000    0.000    0.000    0.000    0.000    0.000 
#
# Total GULP energy -545394.924325 kJ/mol
# GULP energy per Si atom -12395.339189 kJ/mol
# Density = 2.130897 g / cm^3
# Si number density = 21.357583 Si / 1000 Ang^3
#
#
#
# Elastic Constant Matrix: (Units=GPa)
#
#
# Indices 1 2 3 4 5 6 
#
# 1 112.7520 22.1307 19.1462 0.0000 0.0000 0.0000
# 2 22.1307 45.8832 -6.7215 0.0000 0.0000 0.0000
# 3 19.1462 -6.7215 47.3085 0.0000 0.0000 0.0000
# 4 0.0000 0.0000 0.0000 22.5349 0.0000 0.0000
# 5 0.0000 0.0000 0.0000 0.0000 15.3301 0.0000
# 6 0.0000 0.0000 0.0000 0.0000 0.0000 26.3949
#
#
#
# Elastic Compliance Matrix: (Units=1/GPa)
#
#
# Indices 1 2 3 4 5 6 
#
# 1 0.010958 -0.006061 -0.005296 0.000000 0.000000 0.000000
# 2 -0.006061 0.025610 0.006092 0.000000 0.000000 0.000000
# 3 -0.005296 0.006092 0.024147 0.000000 0.000000 0.000000
# 4 0.000000 0.000000 0.000000 0.044376 0.000000 0.000000
# 5 0.000000 0.000000 0.000000 0.000000 0.065231 0.000000
# 6 0.000000 0.000000 0.000000 0.000000 0.000000 0.037886
#
#
# Mechanical properties :
#
#
# Convention : Reuss Voigt Hill
#
# Bulk Modulus (GPa) = 19.92663 30.56161 25.24412
# Shear Modulus (GPa) = 21.23444 24.27788 22.75616
#
# Velocity S-wave (km/s) = 3.15657 3.37521 3.26772
# Velocity P-wave (km/s) = 4.75768 5.43414 5.10712
#
# Compressibility (1/GPa) = 0.05018411
#
# Stress axis : x y z
#
# Youngs Moduli (GPa) = 91.25762 39.04678 41.41356
#
# Poissons Ratio (x) = 0.23667 0.21932
# Poissons Ratio (y) = 0.55313 -0.25228
# Poissons Ratio (z) = 0.48330 -0.23786
#
# Static dielectric constant tensor:
#      x y z
#    x 4.212970 0.000000 0.000000 
#    y 0.000000 3.789610 0.000000 
#    z 0.000000 0.000000 3.333790 
# 
# 
# High freq. dielectric constant tensor:
#      x y z
#    x 1.856360 0.000000 0.000000 
#    y 0.000000 1.825720 0.000000 
#    z 0.000000 0.000000 1.793620 
# 
# From -- ./inp_files/28305.got.cif
#   From: 2010.03.12/outbox.cif.g09.slc.cpg/sg64_15_cif.got.tgz:28305.got - 2010.04.10 20:19:32.
