data_PCOD8263510
_publ_section_title
;
Structure prediction by ZEFSAII (Michael W. Deem and Ramdas Pophale) SiO2 
 PCOD8263510
Probable space group: C M C A
;
_chemical_formula_sum "Si O2"
_cell_formula_units_Z 96
_cell_length_a 14.721950
_cell_length_b 21.662891
_cell_length_c 13.948206
_cell_angle_alpha 90.000000
_cell_angle_beta 90.000000
_cell_angle_gamma 90.000000
_cell_volume 4448.361832
_symmetry_space_group_name_H-M "C M C A"
_symmetry_group_IT_number 64
_symmetry_cell_setting 'orthorhombic'
loop_
_space_group_symop_operation_xyz
x,y,z
-x,1/2-y,1/2+z
x,-y,-z
-x,1/2+y,1/2-z
-x,-y,-z
x,1/2+y,1/2-z
-x,y,z
x,1/2-y,1/2+z
1/2+x,1/2+y,z
1/2-x,-y,1/2+z
1/2+x,1/2-y,-z
1/2-x,y,1/2-z
1/2-x,1/2-y,-z
1/2+x,y,1/2-z
1/2-x,1/2+y,z
1/2+x,-y,1/2+z
loop_
_atom_site_type_symbol
_atom_site_label
_atom_site_fract_x
_atom_site_fract_y
_atom_site_fract_z
Si Si1 0.750000 0.106951 0.250000
Si Si2 0.000000 0.924828 0.242283
Si Si3 0.662640 0.150976 0.986272
Si Si4 0.352106 0.828709 0.230982
Si Si5 0.694486 0.435646 0.944008
Si Si6 0.000000 0.537295 0.404760
Si Si7 0.500000 0.932965 0.034855
Si Si8 0.894286 0.301588 0.821436
O O1 0.748973 0.062979 0.343328
O O2 0.839570 0.150027 0.255640
O O3 0.910938 0.883551 0.221943
O O4 0.000000 0.940095 0.352400
O O5 0.000000 0.988467 0.183046
O O6 0.638245 0.180440 0.883814
O O7 0.589612 0.098113 0.007718
O O8 0.763578 0.119974 0.991422
O O9 0.649367 0.200974 0.071198
O O10 0.250000 0.847470 0.250000
O O11 0.382987 0.765905 0.278842
O O12 0.590732 0.421087 0.911172
O O13 0.704798 0.500000 0.000000
O O14 0.000000 0.500000 0.500000
O O15 0.500000 0.000000 0.000000
O O16 0.000000 0.320547 0.822857
#
# Coordination Sequence:
#
# PCOD8263510 Si02
#       8
#     8   8  16  16  16   8   8  16
#     4  10  24  42  66 100 126 170 224 264 336 396
#     4  10  24  43  64  99 129 170 221 268 320 395
#     4  10  23  42  67  98 130 167 225 270 327 400
#     4  11  24  42  70  98 132 173 217 276 335 389
#     4  10  23  43  64  93 132 172 217 274 325 393
#     4  10  24  42  60  90 134 171 218 257 326 390
#     4  10  20  39  66  95 123 165 215 273 323 375
#     4  11  22  43  69  94 132 173 218 275 329 394
#
# _framework density 21.580978999999999
#
# number of rings (size 3 to 8) (size 9 to 14) (size 15 to 20)
#    0.000    1.667    2.500    0.500    5.833    6.000 
#    0.000    0.000    0.000    0.000    0.000    0.000 
#    0.000    0.000    0.000    0.000    0.000    0.000 
#
# Total GULP energy -594942.175366 kJ/mol
# GULP energy per Si atom -12394.628653 kJ/mol
# Density = 2.153186 g / cm^3
# Si number density = 21.580979 Si / 1000 Ang^3
#
#
#
# Elastic Constant Matrix: (Units=GPa)
#
#
# Indices 1 2 3 4 5 6 
#
# 1 160.6147 51.6735 24.6800 0.0000 0.0000 0.0000
# 2 51.6735 80.7061 26.5217 0.0000 0.0000 0.0000
# 3 24.6800 26.5217 69.8758 0.0000 0.0000 0.0000
# 4 0.0000 0.0000 0.0000 38.7011 0.0000 0.0000
# 5 0.0000 0.0000 0.0000 0.0000 30.1633 0.0000
# 6 0.0000 0.0000 0.0000 0.0000 0.0000 -115.5538
#
#
#
# Elastic Compliance Matrix: (Units=1/GPa)
#
#
# Indices 1 2 3 4 5 6 
#
# 1 0.007901 -0.004732 -0.000995 0.000000 0.000000 0.000000
# 2 -0.004732 0.016990 -0.004777 0.000000 0.000000 0.000000
# 3 -0.000995 -0.004777 0.016476 0.000000 0.000000 0.000000
# 4 0.000000 0.000000 0.000000 0.025839 0.000000 0.000000
# 5 0.000000 0.000000 0.000000 0.000000 0.033153 0.000000
# 6 0.000000 0.000000 0.000000 0.000000 0.000000 -0.008654
#
#
# Mechanical properties :
#
#
# Convention : Reuss Voigt Hill
#
# Bulk Modulus (GPa) = 49.11809 57.43858 53.27834
# Shear Modulus (GPa) = 41.84094 4.55020 23.19557
#
# Velocity S-wave (km/s) = 4.40794 1.45362 3.28199
# Velocity P-wave (km/s) = 6.97968 5.43052 6.25326
#
# Compressibility (1/GPa) = 0.02035910
#
# Stress axis : x y z
#
# Youngs Moduli (GPa) = 126.56063 58.85668 60.69544
#
# Poissons Ratio (x) = 0.27852 0.06037
# Poissons Ratio (y) = 0.59890 0.28997
# Poissons Ratio (z) = 0.12588 0.28118
#
# Static dielectric constant tensor:
#      x y z
#    x -276.998230 0.000000 0.000000 
#    y 0.000000 3.433950 0.000000 
#    z 0.000000 0.000000 4.004320 
# 
# 
# High freq. dielectric constant tensor:
#      x y z
#    x 1.866350 0.000000 0.000000 
#    y 0.000000 1.822570 0.000000 
#    z 0.000000 0.000000 1.861240 
# 
# From -- ./inp_files/24018.got.cif
#   From: 2010.03.12/outbox.cif.g09.slc.cpg/sg64_13_cif.got.tgz:24018.got - 2010.04.10 20:19:32.
