data_PCOD8263151
_publ_section_title
;
Structure prediction by ZEFSAII (Michael W. Deem and Ramdas Pophale) SiO2 
 PCOD8263151
Probable space group: C M C A
;
_chemical_formula_sum "Si O2"
_cell_formula_units_Z 96
_cell_length_a 8.921089
_cell_length_b 28.692122
_cell_length_c 20.348311
_cell_angle_alpha 90.000000
_cell_angle_beta 90.000000
_cell_angle_gamma 90.000000
_cell_volume 5208.454895
_symmetry_space_group_name_H-M "C M C A"
_symmetry_group_IT_number 64
_symmetry_cell_setting 'orthorhombic'
loop_
_space_group_symop_operation_xyz
x,y,z
-x,1/2-y,1/2+z
x,-y,-z
-x,1/2+y,1/2-z
-x,-y,-z
x,1/2+y,1/2-z
-x,y,z
x,1/2-y,1/2+z
1/2+x,1/2+y,z
1/2-x,-y,1/2+z
1/2+x,1/2-y,-z
1/2-x,y,1/2-z
1/2-x,1/2-y,-z
1/2+x,y,1/2-z
1/2-x,1/2+y,z
1/2+x,-y,1/2+z
loop_
_atom_site_type_symbol
_atom_site_label
_atom_site_fract_x
_atom_site_fract_y
_atom_site_fract_z
Si Si1 0.323604 0.624981 0.023077
Si Si2 0.324224 0.221391 0.682057
Si Si3 0.822801 0.219757 0.442989
Si Si4 0.675532 0.531153 0.683583
Si Si5 0.674750 0.967753 0.939306
Si Si6 0.676488 0.878070 0.371314
O O1 0.500000 0.632822 0.030571
O O2 0.238183 0.667559 0.056714
O O3 0.273670 0.578577 0.060657
O O4 0.275522 0.621336 0.947271
O O5 0.500000 0.220949 0.692496
O O6 0.250000 0.236703 0.750000
O O7 0.277008 0.258443 0.626853
O O8 0.268959 0.170390 0.659848
O O9 0.750000 0.250000 0.500000
O O10 0.000000 0.220507 0.453482
O O11 0.500000 0.536028 0.693959
O O12 0.750000 0.512056 0.750000
O O13 0.715474 0.494643 0.626997
O O14 0.738283 0.581800 0.666998
O O15 0.500000 0.954538 0.943887
O O16 0.722882 0.000000 0.000000
O O17 0.500000 0.885784 0.363666
#
# Coordination Sequence:
#
# PCOD8263151 Si02
#       6
#    16  16  16  16  16  16
#     4  11  22  37  60  91 120 149 193 244 291 343
#     4  10  22  39  57  84 119 154 193 237 286 345
#     4  11  22  39  61  86 119 155 196 243 290 344
#     4  11  23  38  58  85 119 155 194 238 291 349
#     4  10  21  39  60  85 116 152 196 239 287 346
#     4  10  20  36  57  86 122 151 188 237 290 348
#
# _framework density 18.431570000000001
#
# number of rings (size 3 to 8) (size 9 to 14) (size 15 to 20)
#    0.000    1.500    3.333    2.000    0.000    5.667 
#    0.000    0.833    0.000    0.000    0.000    0.000 
#    0.000    0.000    0.000    0.000    0.000    0.000 
#
# Total GULP energy -595482.864483 kJ/mol
# GULP energy per Si atom -12405.893010 kJ/mol
# Density = 1.838962 g / cm^3
# Si number density = 18.431570 Si / 1000 Ang^3
#
#
#
# Elastic Constant Matrix: (Units=GPa)
#
#
# Indices 1 2 3 4 5 6 
#
# 1 62.9422 46.8865 58.8806 0.0000 0.0000 0.0000
# 2 46.8865 125.8439 73.1702 0.0000 0.0000 0.0000
# 3 58.8806 73.1702 153.2627 0.0000 0.0000 0.0000
# 4 0.0000 0.0000 0.0000 28.6817 0.0000 0.0000
# 5 0.0000 0.0000 0.0000 0.0000 33.3697 0.0000
# 6 0.0000 0.0000 0.0000 0.0000 0.0000 33.6237
#
#
#
# Elastic Compliance Matrix: (Units=1/GPa)
#
#
# Indices 1 2 3 4 5 6 
#
# 1 0.027440 -0.005667 -0.007836 0.000000 0.000000 0.000000
# 2 -0.005667 0.012170 -0.003633 0.000000 0.000000 0.000000
# 3 -0.007836 -0.003633 0.011270 0.000000 0.000000 0.000000
# 4 0.000000 0.000000 0.000000 0.034865 0.000000 0.000000
# 5 0.000000 0.000000 0.000000 0.000000 0.029967 0.000000
# 6 0.000000 0.000000 0.000000 0.000000 0.000000 0.029741
#
#
# Mechanical properties :
#
#
# Convention : Reuss Voigt Hill
#
# Bulk Modulus (GPa) = 60.21625 77.76928 68.99277
# Shear Modulus (GPa) = 26.98887 30.00913 28.49900
#
# Velocity S-wave (km/s) = 3.83073 4.03940 3.93645
# Velocity P-wave (km/s) = 7.23237 8.00255 7.62718
#
# Compressibility (1/GPa) = 0.01660681
#
# Stress axis : x y z
#
# Youngs Moduli (GPa) = 36.44362 82.16816 88.73314
#
# Poissons Ratio (x) = 0.46566 0.69533
# Poissons Ratio (y) = 0.20653 0.32237
# Poissons Ratio (z) = 0.28558 0.29852
#
# Static dielectric constant tensor:
#      x y z
#    x 3.393160 0.000000 0.000000 
#    y 0.000000 3.488000 0.000000 
#    z 0.000000 0.000000 3.433610 
# 
# 
# High freq. dielectric constant tensor:
#      x y z
#    x 1.718650 0.000000 0.000000 
#    y 0.000000 1.717440 0.000000 
#    z 0.000000 0.000000 1.718620 
# 
# From -- ./inp_files/37042.got.cif
#   From: 2010.03.12/outbox.cif.g09.slc.cpg/sg64_19_cif.got.tgz:37042.got - 2010.04.10 20:19:32.
