data_PCOD8263896
_publ_section_title
;
Structure prediction by ZEFSAII (Michael W. Deem and Ramdas Pophale) SiO2 
 PCOD8263896
Probable space group: C M C A
;
_chemical_formula_sum "Si O2"
_cell_formula_units_Z 80
_cell_length_a 26.719134
_cell_length_b 17.804507
_cell_length_c 8.947077
_cell_angle_alpha 90.000000
_cell_angle_beta 90.000000
_cell_angle_gamma 90.000000
_cell_volume 4256.312492
_symmetry_space_group_name_H-M "C M C A"
_symmetry_group_IT_number 64
_symmetry_cell_setting 'orthorhombic'
loop_
_space_group_symop_operation_xyz
x,y,z
-x,1/2-y,1/2+z
x,-y,-z
-x,1/2+y,1/2-z
-x,-y,-z
x,1/2+y,1/2-z
-x,y,z
x,1/2-y,1/2+z
1/2+x,1/2+y,z
1/2-x,-y,1/2+z
1/2+x,1/2-y,-z
1/2-x,y,1/2-z
1/2-x,1/2-y,-z
1/2+x,y,1/2-z
1/2-x,1/2+y,z
1/2+x,-y,1/2+z
loop_
_atom_site_type_symbol
_atom_site_label
_atom_site_fract_x
_atom_site_fract_y
_atom_site_fract_z
Si Si1 0.118983 0.789266 0.017754
Si Si2 0.558729 0.578971 0.072352
Si Si3 0.375583 0.655276 0.293935
Si Si4 0.227033 0.181001 0.911713
Si Si5 0.279125 0.434928 0.605281
O O1 0.075840 0.853149 0.038739
O O2 0.134927 0.786844 0.843099
O O3 0.100465 0.706826 0.073680
O O4 0.167795 0.811078 0.112605
O O5 0.500000 0.582394 0.099415
O O6 0.586079 0.590672 0.234214
O O7 0.575172 0.500000 0.000000
O O8 0.324118 0.619568 0.348897
O O9 0.250000 0.172745 0.750000
O O10 0.250000 0.250000 0.000000
O O11 0.237364 0.107359 0.008858
O O12 0.301568 0.500000 0.500000
O O13 0.250000 0.467181 0.750000
#
# Coordination Sequence:
#
# PCOD8263896 Si02
#       5
#    16  16  16  16  16
#     4  10  21  38  63  91 122 159 212 255 307 379
#     4   9  21  42  66  88 125 166 203 260 327 380
#     4  10  22  39  62  91 123 155 207 262 312 374
#     4  12  22  35  60  84 124 167 202 251 313 371
#     4  12  24  40  55  86 124 168 213 257 311 378
#
# _framework density 18.795611999999998
#
# number of rings (size 3 to 8) (size 9 to 14) (size 15 to 20)
#    1.200    0.200    4.000    2.400    0.000    5.600 
#    0.000    0.000    0.000    0.600    0.000    0.000 
#    0.000    0.000    0.000    0.000    0.000    0.000 
#
# Total GULP energy -495659.934051 kJ/mol
# GULP energy per Si atom -12391.498351 kJ/mol
# Density = 1.875283 g / cm^3
# Si number density = 18.795612 Si / 1000 Ang^3
#
#
#
# Elastic Constant Matrix: (Units=GPa)
#
#
# Indices 1 2 3 4 5 6 
#
# 1 66.1460 27.4907 21.4896 0.0000 0.0000 0.0000
# 2 27.4907 106.4512 51.2855 0.0000 0.0000 0.0000
# 3 21.4896 51.2855 109.7493 0.0000 0.0000 0.0000
# 4 0.0000 0.0000 0.0000 49.1333 0.0000 0.0000
# 5 0.0000 0.0000 0.0000 0.0000 21.0785 0.0000
# 6 0.0000 0.0000 0.0000 0.0000 0.0000 29.9595
#
#
#
# Elastic Compliance Matrix: (Units=1/GPa)
#
#
# Indices 1 2 3 4 5 6 
#
# 1 0.017168 -0.003632 -0.001665 0.000000 0.000000 0.000000
# 2 -0.003632 0.012892 -0.005313 0.000000 0.000000 0.000000
# 3 -0.001665 -0.005313 0.011920 0.000000 0.000000 0.000000
# 4 0.000000 0.000000 0.000000 0.020353 0.000000 0.000000
# 5 0.000000 0.000000 0.000000 0.000000 0.047442 0.000000
# 6 0.000000 0.000000 0.000000 0.000000 0.000000 0.033378
#
#
# Mechanical properties :
#
#
# Convention : Reuss Voigt Hill
#
# Bulk Modulus (GPa) = 48.16610 53.65313 50.90962
# Shear Modulus (GPa) = 29.18990 32.17297 30.68143
#
# Velocity S-wave (km/s) = 3.94511 4.14179 4.04465
# Velocity P-wave (km/s) = 6.81423 7.17496 6.99692
#
# Compressibility (1/GPa) = 0.02076149
#
# Stress axis : x y z
#
# Youngs Moduli (GPa) = 58.24717 77.57017 83.88981
#
# Poissons Ratio (x) = 0.28171 0.13964
# Poissons Ratio (y) = 0.21154 0.44571
# Poissons Ratio (z) = 0.09696 0.41214
#
# Static dielectric constant tensor:
#      x y z
#    x 3.242290 0.000000 0.000000 
#    y 0.000000 3.476670 0.000000 
#    z 0.000000 0.000000 4.550930 
# 
# 
# High freq. dielectric constant tensor:
#      x y z
#    x 1.710980 0.000000 0.000000 
#    y 0.000000 1.728970 0.000000 
#    z 0.000000 0.000000 1.728240 
# 
# From -- ./inp_files/11024.got.cif
#   From: 2010.03.12/outbox.cif.g09.slc.cpg/sg64_6_cif.got.tgz:11024.got - 2010.04.10 20:19:32.
