data_PCOD8263196
_publ_section_title
;
Structure prediction by ZEFSAII (Michael W. Deem and Ramdas Pophale) SiO2 
 PCOD8263196
Probable space group: C M C A
;
_chemical_formula_sum "Si O2"
_cell_formula_units_Z 96
_cell_length_a 26.235031
_cell_length_b 11.519290
_cell_length_c 17.420660
_cell_angle_alpha 90.000000
_cell_angle_beta 90.000000
_cell_angle_gamma 90.000000
_cell_volume 5264.679023
_symmetry_space_group_name_H-M "C M C A"
_symmetry_group_IT_number 64
_symmetry_cell_setting 'orthorhombic'
loop_
_space_group_symop_operation_xyz
x,y,z
-x,1/2-y,1/2+z
x,-y,-z
-x,1/2+y,1/2-z
-x,-y,-z
x,1/2+y,1/2-z
-x,y,z
x,1/2-y,1/2+z
1/2+x,1/2+y,z
1/2-x,-y,1/2+z
1/2+x,1/2-y,-z
1/2-x,y,1/2-z
1/2-x,1/2-y,-z
1/2+x,y,1/2-z
1/2-x,1/2+y,z
1/2+x,-y,1/2+z
loop_
_atom_site_type_symbol
_atom_site_label
_atom_site_fract_x
_atom_site_fract_y
_atom_site_fract_z
Si Si1 0.641534 0.966545 0.143758
Si Si2 0.210067 0.820289 0.613717
Si Si3 0.811244 0.068381 0.075474
Si Si4 0.303708 0.897176 0.286737
Si Si5 0.136143 0.730049 0.982519
Si Si6 0.056482 0.906118 0.566471
O O1 0.649837 0.904597 0.225558
O O2 0.643288 0.872609 0.077334
O O3 0.688413 0.053181 0.132238
O O4 0.588546 0.039190 0.137608
O O5 0.269975 0.834812 0.599506
O O6 0.201204 0.735143 0.685596
O O7 0.184697 0.767416 0.538257
O O8 0.863187 0.143137 0.058266
O O9 0.820873 0.979277 0.143820
O O10 0.792922 0.000000 0.000000
O O11 0.250000 0.937999 0.250000
O O12 0.084878 0.708121 0.032461
O O13 0.000000 0.870785 0.595593
O O14 0.051973 0.000000 0.500000
#
# Coordination Sequence:
#
# PCOD8263196 Si02
#       6
#    16  16  16  16  16  16
#     4  10  21  35  57  84 112 147 189 243 296 341
#     4  11  22  36  52  75 113 154 196 236 277 344
#     4  12  23  36  52  77 113 160 202 236 283 347
#     4  12  25  35  48  79 117 160 194 234 289 339
#     4  10  20  36  59  82 106 145 194 243 286 343
#     4   8  16  35  63  90 108 134 186 242 294 346
#
# _framework density 18.234729000000002
#
# number of rings (size 3 to 8) (size 9 to 14) (size 15 to 20)
#    0.000    1.500    3.333    4.000    4.667    0.000 
#    0.000    0.000    0.000    5.500    0.000    0.000 
#    0.000    0.000    0.000    0.000    0.000    0.000 
#
# Total GULP energy -595051.077073 kJ/mol
# GULP energy per Si atom -12396.897439 kJ/mol
# Density = 1.819323 g / cm^3
# Si number density = 18.234729 Si / 1000 Ang^3
#
#
#
# Elastic Constant Matrix: (Units=GPa)
#
#
# Indices 1 2 3 4 5 6 
#
# 1 98.9117 30.7573 40.4057 0.0000 0.0000 0.0000
# 2 30.7573 87.7312 35.4230 0.0000 0.0000 0.0000
# 3 40.4057 35.4230 105.2615 0.0000 0.0000 0.0000
# 4 0.0000 0.0000 0.0000 39.8898 0.0000 0.0000
# 5 0.0000 0.0000 0.0000 0.0000 18.3903 0.0000
# 6 0.0000 0.0000 0.0000 0.0000 0.0000 16.8656
#
#
#
# Elastic Compliance Matrix: (Units=1/GPa)
#
#
# Indices 1 2 3 4 5 6 
#
# 1 0.012576 -0.002847 -0.003869 0.000000 0.000000 0.000000
# 2 -0.002847 0.013835 -0.003563 0.000000 0.000000 0.000000
# 3 -0.003869 -0.003563 0.012185 0.000000 0.000000 0.000000
# 4 0.000000 0.000000 0.000000 0.025069 0.000000 0.000000
# 5 0.000000 0.000000 0.000000 0.000000 0.054377 0.000000
# 6 0.000000 0.000000 0.000000 0.000000 0.000000 0.059292
#
#
# Mechanical properties :
#
#
# Convention : Reuss Voigt Hill
#
# Bulk Modulus (GPa) = 55.44094 56.11958 55.78026
# Shear Modulus (GPa) = 24.52134 27.38371 25.95253
#
# Velocity S-wave (km/s) = 3.67108 3.87943 3.77669
# Velocity P-wave (km/s) = 6.95982 7.13510 7.04800
#
# Compressibility (1/GPa) = 0.01803721
#
# Stress axis : x y z
#
# Youngs Moduli (GPa) = 79.51737 72.27989 82.07114
#
# Poissons Ratio (x) = 0.20575 0.31757
# Poissons Ratio (y) = 0.22635 0.29243
# Poissons Ratio (z) = 0.30769 0.25754
#
# Static dielectric constant tensor:
#      x y z
#    x 3.360080 0.000000 0.000000 
#    y 0.000000 3.416950 0.000000 
#    z 0.000000 0.000000 3.494930 
# 
# 
# High freq. dielectric constant tensor:
#      x y z
#    x 1.666040 0.000000 0.000000 
#    y 0.000000 1.710430 0.000000 
#    z 0.000000 0.000000 1.706880 
# 
# From -- ./inp_files/35437.got.cif
#   From: 2010.03.12/outbox.cif.g09.slc.cpg/sg64_18_cif.got.tgz:35437.got - 2010.04.10 20:19:32.
