data_PCOD8263426
_publ_section_title
;
Structure prediction by ZEFSAII (Michael W. Deem and Ramdas Pophale) SiO2 
 PCOD8263426
Probable space group: C M C A
;
_chemical_formula_sum "Si O2"
_cell_formula_units_Z 96
_cell_length_a 14.697743
_cell_length_b 19.026267
_cell_length_c 15.931648
_cell_angle_alpha 90.000000
_cell_angle_beta 90.000000
_cell_angle_gamma 90.000000
_cell_volume 4455.176751
_symmetry_space_group_name_H-M "C M C A"
_symmetry_group_IT_number 64
_symmetry_cell_setting 'orthorhombic'
loop_
_space_group_symop_operation_xyz
x,y,z
-x,1/2-y,1/2+z
x,-y,-z
-x,1/2+y,1/2-z
-x,-y,-z
x,1/2+y,1/2-z
-x,y,z
x,1/2-y,1/2+z
1/2+x,1/2+y,z
1/2-x,-y,1/2+z
1/2+x,1/2-y,-z
1/2-x,y,1/2-z
1/2-x,1/2-y,-z
1/2+x,y,1/2-z
1/2-x,1/2+y,z
1/2+x,-y,1/2+z
loop_
_atom_site_type_symbol
_atom_site_label
_atom_site_fract_x
_atom_site_fract_y
_atom_site_fract_z
Si Si1 0.101081 0.736928 0.715317
Si Si2 0.333899 0.390370 0.308835
Si Si3 0.396368 0.376569 0.796583
Si Si4 0.397627 0.537747 0.372599
Si Si5 0.779640 0.193515 0.934305
Si Si6 0.210798 0.568878 0.452143
O O1 0.099801 0.659193 0.754950
O O2 0.140230 0.796458 0.779817
O O3 0.153953 0.734242 0.628188
O O4 0.000000 0.761055 0.692255
O O5 0.250000 0.414675 0.250000
O O6 0.385053 0.457050 0.345237
O O7 0.303356 0.341182 0.385068
O O8 0.500000 0.375939 0.830210
O O9 0.387990 0.414934 0.708620
O O10 0.334763 0.419665 0.861682
O O11 0.500000 0.545558 0.411204
O O12 0.320823 0.562058 0.439531
O O13 0.750000 0.250000 0.000000
O O14 0.824216 0.131281 0.988415
O O15 0.174541 0.500000 0.500000
#
# Coordination Sequence:
#
# PCOD8263426 Si02
#       6
#    16  16  16  16  16  16
#     4  10  22  42  66  93 123 163 219 272 319 387
#     4  10  20  38  62  90 122 165 220 267 318 387
#     4  10  23  42  67  94 128 175 221 266 324 395
#     4  11  23  41  65  92 126 177 228 270 320 390
#     4  11  23  39  63  92 125 169 207 260 331 390
#     4  12  24  41  63  97 138 170 212 273 338 396
#
# _framework density 21.547965999999999
#
# number of rings (size 3 to 8) (size 9 to 14) (size 15 to 20)
#    0.000    1.333    1.667    4.000    2.333    4.000 
#    0.000    1.667    0.000    0.000    0.000    1.167 
#    0.000    0.000    0.000    0.000    0.000    0.000 
#
# Total GULP energy -595005.622921 kJ/mol
# GULP energy per Si atom -12395.950478 kJ/mol
# Density = 2.149892 g / cm^3
# Si number density = 21.547966 Si / 1000 Ang^3
#
#
#
# Elastic Constant Matrix: (Units=GPa)
#
#
# Indices 1 2 3 4 5 6 
#
# 1 80.5805 28.3744 20.3007 0.0000 0.0000 0.0000
# 2 28.3744 112.1990 28.1124 0.0000 0.0000 0.0000
# 3 20.3007 28.1124 72.9105 0.0000 0.0000 0.0000
# 4 0.0000 0.0000 0.0000 45.8936 0.0000 0.0000
# 5 0.0000 0.0000 0.0000 0.0000 2.6134 0.0000
# 6 0.0000 0.0000 0.0000 0.0000 0.0000 11.6179
#
#
#
# Elastic Compliance Matrix: (Units=1/GPa)
#
#
# Indices 1 2 3 4 5 6 
#
# 1 0.014132 -0.002865 -0.002830 0.000000 0.000000 0.000000
# 2 -0.002865 0.010447 -0.003230 0.000000 0.000000 0.000000
# 3 -0.002830 -0.003230 0.015749 0.000000 0.000000 0.000000
# 4 0.000000 0.000000 0.000000 0.021790 0.000000 0.000000
# 5 0.000000 0.000000 0.000000 0.000000 0.382638 0.000000
# 6 0.000000 0.000000 0.000000 0.000000 0.000000 0.086074
#
#
# Mechanical properties :
#
#
# Convention : Reuss Voigt Hill
#
# Bulk Modulus (GPa) = 44.49014 46.58502 45.53758
# Shear Modulus (GPa) = 8.99004 24.61848 16.80426
#
# Velocity S-wave (km/s) = 2.04479 3.38375 2.79562
# Velocity P-wave (km/s) = 5.12511 6.07721 5.62135
#
# Compressibility (1/GPa) = 0.02247689
#
# Stress axis : x y z
#
# Youngs Moduli (GPa) = 70.76298 95.72517 63.49616
#
# Poissons Ratio (x) = 0.27422 0.17971
# Poissons Ratio (y) = 0.20271 0.20511
# Poissons Ratio (z) = 0.20027 0.30922
#
# Static dielectric constant tensor:
#      x y z
#    x 3.868640 0.000000 0.000000 
#    y 0.000000 4.353980 0.000000 
#    z 0.000000 0.000000 4.195800 
# 
# 
# High freq. dielectric constant tensor:
#      x y z
#    x 1.828570 0.000000 0.000000 
#    y 0.000000 1.868410 0.000000 
#    z 0.000000 0.000000 1.849620 
# 
# From -- ./inp_files/23931.got.cif
#   From: 2010.03.12/outbox.cif.g09.slc.cpg/sg64_12_cif.got.tgz:23931.got - 2010.04.10 20:19:32.
