data_PCOD8263407
_publ_section_title
;
Structure prediction by ZEFSAII (Michael W. Deem and Ramdas Pophale) SiO2 
 PCOD8263407
Probable space group: C M C A
;
_chemical_formula_sum "Si O2"
_cell_formula_units_Z 88
_cell_length_a 17.933986
_cell_length_b 11.365868
_cell_length_c 22.831548
_cell_angle_alpha 90.000000
_cell_angle_beta 90.000000
_cell_angle_gamma 90.000000
_cell_volume 4653.875838
_symmetry_space_group_name_H-M "C M C A"
_symmetry_group_IT_number 64
_symmetry_cell_setting 'orthorhombic'
loop_
_space_group_symop_operation_xyz
x,y,z
-x,1/2-y,1/2+z
x,-y,-z
-x,1/2+y,1/2-z
-x,-y,-z
x,1/2+y,1/2-z
-x,y,z
x,1/2-y,1/2+z
1/2+x,1/2+y,z
1/2-x,-y,1/2+z
1/2+x,1/2-y,-z
1/2-x,y,1/2-z
1/2-x,1/2-y,-z
1/2+x,y,1/2-z
1/2-x,1/2+y,z
1/2+x,-y,1/2+z
loop_
_atom_site_type_symbol
_atom_site_label
_atom_site_fract_x
_atom_site_fract_y
_atom_site_fract_z
Si Si1 0.875397 0.500000 0.500000
Si Si2 0.160420 0.594886 0.852252
Si Si3 0.270003 0.323691 0.056852
Si Si4 0.500000 0.104675 0.891897
Si Si5 0.344457 0.828330 0.846509
Si Si6 0.000000 0.188813 0.013256
Si Si7 0.250000 0.285969 0.250000
Si Si8 0.000000 0.335249 0.893750
O O1 0.819317 0.441646 0.452900
O O2 0.927458 0.394083 0.524909
O O3 0.191829 0.649006 0.912195
O O4 0.072214 0.622488 0.850534
O O5 0.180544 0.459894 0.856624
O O6 0.200968 0.638453 0.794192
O O7 0.317466 0.243380 0.098520
O O8 0.250000 0.250000 0.000000
O O9 0.500000 0.201366 0.943020
O O10 0.500000 0.970840 0.918200
O O11 0.310521 0.790231 0.784662
O O12 0.433114 0.813989 0.848369
O O13 0.000000 0.242412 0.947535
#
# Coordination Sequence:
#
# PCOD8263407 Si02
#       8
#     8  16  16   8  16   8   8   8
#     4  11  22  34  58  85 130 160 196 243 300 360
#     4  10  22  38  60  86 114 157 203 251 303 361
#     4  11  21  36  57  88 123 161 198 245 300 364
#     4  10  22  38  61  86 119 161 206 248 304 366
#     4  10  21  38  60  83 116 155 200 247 303 360
#     4  11  21  38  56  88 132 161 199 247 298 376
#     4  10  22  40  62  84 116 150 204 266 304 356
#     4  10  20  38  61  86 120 163 199 245 304 368
#
# _framework density 18.908971000000001
#
# number of rings (size 3 to 8) (size 9 to 14) (size 15 to 20)
#    0.000    1.636    1.818    3.000    0.000    2.182 
#    0.000    0.000    0.000    0.000    0.000    0.000 
#    0.000    0.000    0.000    0.000    0.000    0.000 
#
# Total GULP energy -545313.169743 kJ/mol
# GULP energy per Si atom -12393.481131 kJ/mol
# Density = 1.886593 g / cm^3
# Si number density = 18.908971 Si / 1000 Ang^3
#
#
#
# Elastic Constant Matrix: (Units=GPa)
#
#
# Indices 1 2 3 4 5 6 
#
# 1 151.1140 67.2005 66.6820 0.0000 0.0000 0.0000
# 2 67.2005 111.0273 58.3964 0.0000 0.0000 0.0000
# 3 66.6820 58.3964 121.2446 0.0000 0.0000 0.0000
# 4 0.0000 0.0000 0.0000 -6.9637 0.0000 0.0000
# 5 0.0000 0.0000 0.0000 0.0000 20.3131 0.0000
# 6 0.0000 0.0000 0.0000 0.0000 0.0000 32.3775
#
#
#
# Elastic Compliance Matrix: (Units=1/GPa)
#
#
# Indices 1 2 3 4 5 6 
#
# 1 0.010041 -0.004249 -0.003476 0.000000 0.000000 0.000000
# 2 -0.004249 0.013861 -0.004339 0.000000 0.000000 0.000000
# 3 -0.003476 -0.004339 0.012249 0.000000 0.000000 0.000000
# 4 0.000000 0.000000 0.000000 -0.143602 0.000000 0.000000
# 5 0.000000 0.000000 0.000000 0.000000 0.049229 0.000000
# 6 0.000000 0.000000 0.000000 0.000000 0.000000 0.030886
#
#
# Mechanical properties :
#
#
# Convention : Reuss Voigt Hill
#
# Bulk Modulus (GPa) = 83.17306 85.32707 84.25007
# Shear Modulus (GPa) = 6255.42016 21.88586 3138.65301
#
# Velocity S-wave (km/s) = 57.57914 3.40580 40.78576
# Velocity P-wave (km/s) = 66.81735 7.79032 47.56704
#
# Compressibility (1/GPa) = 0.01202312
#
# Stress axis : x y z
#
# Youngs Moduli (GPa) = 99.59295 72.14567 81.63840
#
# Poissons Ratio (x) = 0.30657 0.28375
# Poissons Ratio (y) = 0.42320 0.35422
# Poissons Ratio (z) = 0.34615 0.31304
#
# Static dielectric constant tensor:
#      x y z
#    x 3.736830 0.000000 0.000000 
#    y 0.000000 3.446100 0.000000 
#    z 0.000000 0.000000 3.201370 
# 
# 
# High freq. dielectric constant tensor:
#      x y z
#    x 1.756750 0.000000 0.000000 
#    y 0.000000 1.749940 0.000000 
#    z 0.000000 0.000000 1.714340 
# 
# From -- ./inp_files/40111.got.cif
#   From: 2010.03.12/outbox.cif.g09.slc.cpg/sg64_21_cif.got.tgz:40111.got - 2010.04.10 20:19:32.
