data_PCOD8263441
_publ_section_title
;
Structure prediction by ZEFSAII (Michael W. Deem and Ramdas Pophale) SiO2 
 PCOD8263441
Probable space group: C M C A
;
_chemical_formula_sum "Si O2"
_cell_formula_units_Z 104
_cell_length_a 23.922353
_cell_length_b 8.633153
_cell_length_c 27.038377
_cell_angle_alpha 90.000000
_cell_angle_beta 90.000000
_cell_angle_gamma 90.000000
_cell_volume 5584.109829
_symmetry_space_group_name_H-M "C M C A"
_symmetry_group_IT_number 64
_symmetry_cell_setting 'orthorhombic'
loop_
_space_group_symop_operation_xyz
x,y,z
-x,1/2-y,1/2+z
x,-y,-z
-x,1/2+y,1/2-z
-x,-y,-z
x,1/2+y,1/2-z
-x,y,z
x,1/2-y,1/2+z
1/2+x,1/2+y,z
1/2-x,-y,1/2+z
1/2+x,1/2-y,-z
1/2-x,y,1/2-z
1/2-x,1/2-y,-z
1/2+x,y,1/2-z
1/2-x,1/2+y,z
1/2+x,-y,1/2+z
loop_
_atom_site_type_symbol
_atom_site_label
_atom_site_fract_x
_atom_site_fract_y
_atom_site_fract_z
Si Si1 0.696844 0.420711 0.948576
Si Si2 0.709667 0.258845 0.094329
Si Si3 0.292883 0.765897 0.681476
Si Si4 0.108650 0.566308 0.052664
Si Si5 0.891402 0.748473 0.895872
Si Si6 0.500000 0.767836 0.467810
Si Si7 0.750000 0.013286 0.750000
Si Si8 0.000000 0.399907 0.577637
O O1 0.703458 0.555154 0.907181
O O2 0.747846 0.300575 0.947823
O O3 0.640086 0.325684 0.942237
O O4 0.691532 0.500000 0.000000
O O5 0.737615 0.218533 0.146931
O O6 0.651945 0.172985 0.082845
O O7 0.350778 0.759825 0.651471
O O8 0.289406 0.612537 0.714260
O O9 0.293210 0.911805 0.717972
O O10 0.094017 0.427426 0.090197
O O11 0.053858 0.665534 0.042928
O O12 0.131870 0.500000 0.000000
O O13 0.947409 0.848608 0.888701
O O14 0.500000 0.811286 0.525383
O O15 0.500000 0.916448 0.431853
#
# Coordination Sequence:
#
# PCOD8263441 Si02
#       8
#    16  16  16  16  16   8   8   8
#     4  11  21  33  48  78 112 160 191 230 270 322
#     4  11  21  34  53  78 118 144 195 231 283 331
#     4  10  21  38  58  90 109 147 175 234 290 361
#     4  12  21  35  53  80 114 164 198 241 264 320
#     4  11  22  36  58  80 116 146 198 232 283 324
#     4  11  24  37  54  79 113 159 220 225 272 302
#     4  10  20  38  64  82 116 134 178 222 304 366
#     4  11  23  40  57  78 112 160 195 252 259 323
#
# _framework density 18.624275000000001
#
# number of rings (size 3 to 8) (size 9 to 14) (size 15 to 20)
#    0.000    1.077    1.538    8.077    2.154    0.000 
#    0.000    0.000    0.000    0.923    0.000    4.308 
#    0.000    0.000    0.000    0.000    0.000    0.000 
#
# Total GULP energy -644720.038690 kJ/mol
# GULP energy per Si atom -12398.462283 kJ/mol
# Density = 1.858189 g / cm^3
# Si number density = 18.624275 Si / 1000 Ang^3
#
#
#
# Elastic Constant Matrix: (Units=GPa)
#
#
# Indices 1 2 3 4 5 6 
#
# 1 115.3760 42.4169 35.6247 0.0000 0.0000 0.0000
# 2 42.4169 108.8193 32.0457 0.0000 0.0000 0.0000
# 3 35.6247 32.0457 96.7037 0.0000 0.0000 0.0000
# 4 0.0000 0.0000 0.0000 -17.6680 0.0000 0.0000
# 5 0.0000 0.0000 0.0000 0.0000 21.3360 0.0000
# 6 0.0000 0.0000 0.0000 0.0000 0.0000 29.6008
#
#
#
# Elastic Compliance Matrix: (Units=1/GPa)
#
#
# Indices 1 2 3 4 5 6 
#
# 1 0.010786 -0.003362 -0.002859 0.000000 0.000000 0.000000
# 2 -0.003362 0.011231 -0.002483 0.000000 0.000000 0.000000
# 3 -0.002859 -0.002483 0.012217 0.000000 0.000000 0.000000
# 4 0.000000 0.000000 0.000000 -0.056599 0.000000 0.000000
# 5 0.000000 0.000000 0.000000 0.000000 0.046869 0.000000
# 6 0.000000 0.000000 0.000000 0.000000 0.000000 0.033783
#
#
# Mechanical properties :
#
#
# Convention : Reuss Voigt Hill
#
# Bulk Modulus (GPa) = 59.43539 60.11930 59.77735
# Shear Modulus (GPa) = 61.49634 20.70788 41.10211
#
# Velocity S-wave (km/s) = 5.75249 3.33810 4.70287
# Velocity P-wave (km/s) = 8.72374 6.87076 7.85210
#
# Compressibility (1/GPa) = 0.01682499
#
# Stress axis : x y z
#
# Youngs Moduli (GPa) = 92.70976 89.03567 81.85246
#
# Poissons Ratio (x) = 0.29937 0.23404
# Poissons Ratio (y) = 0.31173 0.20326
# Poissons Ratio (z) = 0.26509 0.22109
#
# Static dielectric constant tensor:
#      x y z
#    x 3.408570 0.000000 0.000000 
#    y 0.000000 4.044940 0.000000 
#    z 0.000000 0.000000 3.601270 
# 
# 
# High freq. dielectric constant tensor:
#      x y z
#    x 1.711400 0.000000 0.000000 
#    y 0.000000 1.753330 0.000000 
#    z 0.000000 0.000000 1.697700 
# 
# From -- ./inp_files/50817.got.cif
#   From: 2010.03.12/outbox.cif.g09.slc.cpg/sg64_26_cif.got.tgz:50817.got - 2010.04.10 20:19:32.
