data_PCOD8263511
_publ_section_title
;
Structure prediction by ZEFSAII (Michael W. Deem and Ramdas Pophale) SiO2 
 PCOD8263511
Probable space group: C M C A
;
_chemical_formula_sum "Si O2"
_cell_formula_units_Z 96
_cell_length_a 14.085210
_cell_length_b 13.564212
_cell_length_c 22.917488
_cell_angle_alpha 90.000000
_cell_angle_beta 90.000000
_cell_angle_gamma 90.000000
_cell_volume 4378.495502
_symmetry_space_group_name_H-M "C M C A"
_symmetry_group_IT_number 64
_symmetry_cell_setting 'orthorhombic'
loop_
_space_group_symop_operation_xyz
x,y,z
-x,1/2-y,1/2+z
x,-y,-z
-x,1/2+y,1/2-z
-x,-y,-z
x,1/2+y,1/2-z
-x,y,z
x,1/2-y,1/2+z
1/2+x,1/2+y,z
1/2-x,-y,1/2+z
1/2+x,1/2-y,-z
1/2-x,y,1/2-z
1/2-x,1/2-y,-z
1/2+x,y,1/2-z
1/2-x,1/2+y,z
1/2+x,-y,1/2+z
loop_
_atom_site_type_symbol
_atom_site_label
_atom_site_fract_x
_atom_site_fract_y
_atom_site_fract_z
Si Si1 0.775322 0.599909 0.426950
Si Si2 0.610504 0.403526 0.273582
Si Si3 0.610092 0.225240 0.882145
Si Si4 0.392407 0.806263 0.340221
Si Si5 0.269806 0.877345 0.441284
Si Si6 0.107431 0.412278 0.844343
O O1 0.844617 0.665275 0.386655
O O2 0.808998 0.487029 0.429846
O O3 0.779306 0.649725 0.490784
O O4 0.668300 0.594572 0.403267
O O5 0.500000 0.418216 0.261860
O O6 0.626936 0.311191 0.316329
O O7 0.655303 0.376383 0.209963
O O8 0.651521 0.505863 0.300028
O O9 0.500000 0.229807 0.899531
O O10 0.660460 0.144204 0.923991
O O11 0.500000 0.838563 0.354641
O O12 0.333051 0.806811 0.400227
O O13 0.391606 0.695187 0.314398
O O14 0.000000 0.443780 0.861753
#
# Coordination Sequence:
#
# PCOD8263511 Si02
#       6
#    16  16  16  16  16  16
#     4  11  24  42  62  95 130 167 223 273 317 389
#     4   9  20  40  64  95 131 164 215 273 324 391
#     4  11  23  41  64  93 130 172 213 268 328 379
#     4  10  22  40  65  94 128 169 212 268 333 391
#     4  11  24  42  63  92 133 170 218 272 321 390
#     4  10  20  39  66  95 128 170 218 271 328 388
#
# _framework density 21.925339000000001
#
# number of rings (size 3 to 8) (size 9 to 14) (size 15 to 20)
#    0.000    1.667    3.333    0.500    0.000    4.000 
#    0.000    8.333    0.000    0.000    0.000    0.000 
#    0.000    0.000    0.000    0.000    0.000    0.000 
#
# Total GULP energy -594956.991407 kJ/mol
# GULP energy per Si atom -12394.937321 kJ/mol
# Density = 2.187544 g / cm^3
# Si number density = 21.925339 Si / 1000 Ang^3
#
#
#
# Elastic Constant Matrix: (Units=GPa)
#
#
# Indices 1 2 3 4 5 6 
#
# 1 97.4501 34.3607 50.6782 0.0000 0.0000 0.0000
# 2 34.3607 92.4839 25.7163 0.0000 0.0000 0.0000
# 3 50.6782 25.7163 122.0567 0.0000 0.0000 0.0000
# 4 0.0000 0.0000 0.0000 26.0095 0.0000 0.0000
# 5 0.0000 0.0000 0.0000 0.0000 24.3201 0.0000
# 6 0.0000 0.0000 0.0000 0.0000 0.0000 29.6533
#
#
#
# Elastic Compliance Matrix: (Units=1/GPa)
#
#
# Indices 1 2 3 4 5 6 
#
# 1 0.014293 -0.003888 -0.005115 0.000000 0.000000 0.000000
# 2 -0.003888 0.012543 -0.001028 0.000000 0.000000 0.000000
# 3 -0.005115 -0.001028 0.010533 0.000000 0.000000 0.000000
# 4 0.000000 0.000000 0.000000 0.038447 0.000000 0.000000
# 5 0.000000 0.000000 0.000000 0.000000 0.041118 0.000000
# 6 0.000000 0.000000 0.000000 0.000000 0.000000 0.033723
#
#
# Mechanical properties :
#
#
# Convention : Reuss Voigt Hill
#
# Bulk Modulus (GPa) = 57.78285 59.27790 58.53037
# Shear Modulus (GPa) = 28.33024 29.41227 28.87126
#
# Velocity S-wave (km/s) = 3.59851 3.66659 3.63271
# Velocity P-wave (km/s) = 6.60888 6.70970 6.65948
#
# Compressibility (1/GPa) = 0.01730617
#
# Stress axis : x y z
#
# Youngs Moduli (GPa) = 69.96620 79.72491 94.93568
#
# Poissons Ratio (x) = 0.30996 0.48561
# Poissons Ratio (y) = 0.27202 0.09764
# Poissons Ratio (z) = 0.35789 0.08200
#
# Static dielectric constant tensor:
#      x y z
#    x 3.844880 0.000000 0.000000 
#    y 0.000000 4.216620 0.000000 
#    z 0.000000 0.000000 3.908650 
# 
# 
# High freq. dielectric constant tensor:
#      x y z
#    x 1.851100 0.000000 0.000000 
#    y 0.000000 1.878580 0.000000 
#    z 0.000000 0.000000 1.849530 
# 
# From -- ./inp_files/39190.got.cif
#   From: 2010.03.12/outbox.cif.g09.slc.cpg/sg64_20_cif.got.tgz:39190.got - 2010.04.10 20:19:32.
