data_PCOD8263546
_publ_section_title
;
Structure prediction by ZEFSAII (Michael W. Deem and Ramdas Pophale) SiO2 
 PCOD8263546
Probable space group: C M C A
;
_chemical_formula_sum "Si O2"
_cell_formula_units_Z 64
_cell_length_a 16.073266
_cell_length_b 14.363749
_cell_length_c 11.421745
_cell_angle_alpha 90.000000
_cell_angle_beta 90.000000
_cell_angle_gamma 90.000000
_cell_volume 2636.965206
_symmetry_space_group_name_H-M "C M C A"
_symmetry_group_IT_number 64
_symmetry_cell_setting 'orthorhombic'
loop_
_space_group_symop_operation_xyz
x,y,z
-x,1/2-y,1/2+z
x,-y,-z
-x,1/2+y,1/2-z
-x,-y,-z
x,1/2+y,1/2-z
-x,y,z
x,1/2-y,1/2+z
1/2+x,1/2+y,z
1/2-x,-y,1/2+z
1/2+x,1/2-y,-z
1/2-x,y,1/2-z
1/2-x,1/2-y,-z
1/2+x,y,1/2-z
1/2-x,1/2+y,z
1/2+x,-y,1/2+z
loop_
_atom_site_type_symbol
_atom_site_label
_atom_site_fract_x
_atom_site_fract_y
_atom_site_fract_z
Si Si1 0.250000 0.787772 0.750000
Si Si2 0.591763 0.292159 0.638185
Si Si3 0.807959 0.000000 0.000000
Si Si4 0.906107 0.922308 0.207565
Si Si5 0.184089 0.855503 0.426135
O O1 0.336744 0.841791 0.779536
O O2 0.236612 0.726261 0.866430
O O3 0.500000 0.330252 0.672156
O O4 0.595306 0.181782 0.656837
O O5 0.608319 0.314731 0.502276
O O6 0.864363 0.006692 0.884111
O O7 0.748562 0.090178 0.009966
O O8 0.854436 0.924874 0.328574
O O9 0.000000 0.956034 0.230752
#
# Coordination Sequence:
#
# PCOD8263546 Si02
#       5
#     8  16   8  16  16
#     4  10  20  40  64  94 126 166 204 268 322 374
#     4  10  21  40  69  96 123 165 214 268 325 380
#     4  12  21  38  63  92 126 178 212 246 318 384
#     4  10  22  42  65  93 128 164 213 268 318 377
#     4  11  21  41  62  92 128 168 209 259 325 377
#
# _framework density 24.270325
#
# number of rings (size 3 to 8) (size 9 to 14) (size 15 to 20)
#    0.000    1.500    5.000    1.875    0.000    1.000 
#    4.500    2.500    0.000    0.000    0.000    0.000 
#    0.000    0.000    0.000    0.000    0.000    0.000 
#
# Total GULP energy -396644.486189 kJ/mol
# GULP energy per Si atom -12395.140193 kJ/mol
# Density = 2.421508 g / cm^3
# Si number density = 24.270325 Si / 1000 Ang^3
#
#
#
# Elastic Constant Matrix: (Units=GPa)
#
#
# Indices 1 2 3 4 5 6 
#
# 1 229.7308 8.8206 67.3003 0.0000 0.0000 0.0000
# 2 8.8206 22.3224 17.2964 0.0000 0.0000 0.0000
# 3 67.3003 17.2964 102.5485 0.0000 0.0000 0.0000
# 4 0.0000 0.0000 0.0000 43.9370 0.0000 0.0000
# 5 0.0000 0.0000 0.0000 0.0000 47.6622 0.0000
# 6 0.0000 0.0000 0.0000 0.0000 0.0000 20.4064
#
#
#
# Elastic Compliance Matrix: (Units=1/GPa)
#
#
# Indices 1 2 3 4 5 6 
#
# 1 0.005399 0.000704 -0.003662 0.000000 0.000000 0.000000
# 2 0.000704 0.051625 -0.009169 0.000000 0.000000 0.000000
# 3 -0.003662 -0.009169 0.013701 0.000000 0.000000 0.000000
# 4 0.000000 0.000000 0.000000 0.022760 0.000000 0.000000
# 5 0.000000 0.000000 0.000000 0.000000 0.020981 0.000000
# 6 0.000000 0.000000 0.000000 0.000000 0.000000 0.049004
#
#
# Mechanical properties :
#
#
# Convention : Reuss Voigt Hill
#
# Bulk Modulus (GPa) = 21.51906 60.15959 40.83933
# Shear Modulus (GPa) = 24.60461 39.81342 32.20902
#
# Velocity S-wave (km/s) = 3.18744 4.05460 3.64688
# Velocity P-wave (km/s) = 4.73624 6.83819 5.88187
#
# Compressibility (1/GPa) = 0.04647042
#
# Stress axis : x y z
#
# Youngs Moduli (GPa) = 185.23308 19.37052 72.98647
#
# Poissons Ratio (x) = -0.01364 0.26726
# Poissons Ratio (y) = -0.13041 0.66924
# Poissons Ratio (z) = 0.67827 0.17762
#
# Static dielectric constant tensor:
#      x y z
#    x 5.102170 0.000000 0.000000 
#    y 0.000000 3.833880 0.000000 
#    z 0.000000 0.000000 4.284990 
# 
# 
# High freq. dielectric constant tensor:
#      x y z
#    x 1.990230 0.000000 0.000000 
#    y 0.000000 1.920790 0.000000 
#    z 0.000000 0.000000 1.965720 
# 
# From -- ./inp_files/15668.got.cif
#   From: 2010.03.12/outbox.cif.g09.slc.cpg/sg64_8_cif.got.tgz:15668.got - 2010.04.10 20:19:32.
