data_PCOD8263216
_publ_section_title
;
Structure prediction by ZEFSAII (Michael W. Deem and Ramdas Pophale) SiO2 
 PCOD8263216
Probable space group: C M C A
;
_chemical_formula_sum "Si O2"
_cell_formula_units_Z 96
_cell_length_a 16.501730
_cell_length_b 18.521007
_cell_length_c 17.095166
_cell_angle_alpha 90.000000
_cell_angle_beta 90.000000
_cell_angle_gamma 90.000000
_cell_volume 5224.772623
_symmetry_space_group_name_H-M "C M C A"
_symmetry_group_IT_number 64
_symmetry_cell_setting 'orthorhombic'
loop_
_space_group_symop_operation_xyz
x,y,z
-x,1/2-y,1/2+z
x,-y,-z
-x,1/2+y,1/2-z
-x,-y,-z
x,1/2+y,1/2-z
-x,y,z
x,1/2-y,1/2+z
1/2+x,1/2+y,z
1/2-x,-y,1/2+z
1/2+x,1/2-y,-z
1/2-x,y,1/2-z
1/2-x,1/2-y,-z
1/2+x,y,1/2-z
1/2-x,1/2+y,z
1/2+x,-y,1/2+z
loop_
_atom_site_type_symbol
_atom_site_label
_atom_site_fract_x
_atom_site_fract_y
_atom_site_fract_z
Si Si1 0.259062 0.298671 0.424739
Si Si2 0.712916 0.539865 0.922953
Si Si3 0.092847 0.057342 0.780546
Si Si4 0.171524 0.210217 0.302186
Si Si5 0.180738 0.051118 0.314867
Si Si6 0.407457 0.197199 0.814598
O O1 0.250000 0.250000 0.500000
O O2 0.244917 0.381519 0.446914
O O3 0.188611 0.271073 0.366832
O O4 0.349014 0.289392 0.388413
O O5 0.641851 0.547530 0.860221
O O6 0.787468 0.492105 0.890385
O O7 0.678418 0.500000 0.000000
O O8 0.123889 0.126528 0.731709
O O9 0.000000 0.066333 0.804439
O O10 0.103862 0.989099 0.723196
O O11 0.250000 0.201122 0.250000
O O12 0.152352 0.131714 0.339632
O O13 0.098073 0.236262 0.246658
O O14 0.250000 0.052470 0.250000
O O15 0.500000 0.189774 0.844176
#
# Coordination Sequence:
#
# PCOD8263216 Si02
#       6
#    16  16  16  16  16  16
#     4  11  21  36  58  85 118 157 197 246 296 352
#     4  11  21  35  57  85 119 152 195 249 296 349
#     4  10  20  36  60  85 113 157 200 238 292 355
#     4   9  18  33  56  83 110 147 201 245 281 342
#     4   9  18  33  55  82 111 147 196 240 278 346
#     4  10  20  37  61  85 115 158 201 241 293 356
#
# _framework density 18.374006000000001
#
# number of rings (size 3 to 8) (size 9 to 14) (size 15 to 20)
#    0.000    2.000    3.333    1.000    0.000    2.333 
#    0.000    1.667    0.000    4.000    0.000    0.000 
#    0.000    0.000    0.000    0.000    0.000    0.000 
#
# Total GULP energy -595083.484578 kJ/mol
# GULP energy per Si atom -12397.572595 kJ/mol
# Density = 1.833219 g / cm^3
# Si number density = 18.374006 Si / 1000 Ang^3
#
#
#
# Elastic Constant Matrix: (Units=GPa)
#
#
# Indices 1 2 3 4 5 6 
#
# 1 69.2199 26.8956 44.5816 0.0000 0.0000 0.0000
# 2 26.8956 145.1449 47.5664 0.0000 0.0000 0.0000
# 3 44.5816 47.5664 105.6881 0.0000 0.0000 0.0000
# 4 0.0000 0.0000 0.0000 40.0323 0.0000 0.0000
# 5 0.0000 0.0000 0.0000 0.0000 19.5148 0.0000
# 6 0.0000 0.0000 0.0000 0.0000 0.0000 19.7361
#
#
#
# Elastic Compliance Matrix: (Units=1/GPa)
#
#
# Indices 1 2 3 4 5 6 
#
# 1 0.019985 -0.001103 -0.007934 0.000000 0.000000 0.000000
# 2 -0.001103 0.008143 -0.003199 0.000000 0.000000 0.000000
# 3 -0.007934 -0.003199 0.014248 0.000000 0.000000 0.000000
# 4 0.000000 0.000000 0.000000 0.024980 0.000000 0.000000
# 5 0.000000 0.000000 0.000000 0.000000 0.051243 0.000000
# 6 0.000000 0.000000 0.000000 0.000000 0.000000 0.050669
#
#
# Mechanical properties :
#
#
# Convention : Reuss Voigt Hill
#
# Bulk Modulus (GPa) = 55.85485 62.01557 58.93521
# Shear Modulus (GPa) = 25.03658 29.25726 27.14692
#
# Velocity S-wave (km/s) = 3.69536 3.99471 3.84795
# Velocity P-wave (km/s) = 6.97656 7.42308 7.20328
#
# Compressibility (1/GPa) = 0.01790355
#
# Stress axis : x y z
#
# Youngs Moduli (GPa) = 50.03734 122.81138 70.18409
#
# Poissons Ratio (x) = 0.13550 0.55681
# Poissons Ratio (y) = 0.05521 0.22454
# Poissons Ratio (z) = 0.39698 0.39291
#
# Static dielectric constant tensor:
#      x y z
#    x 3.054540 0.000000 0.000000 
#    y 0.000000 3.841950 0.000000 
#    z 0.000000 0.000000 3.310490 
# 
# 
# High freq. dielectric constant tensor:
#      x y z
#    x 1.683460 0.000000 0.000000 
#    y 0.000000 1.733270 0.000000 
#    z 0.000000 0.000000 1.699540 
# 
# From -- ./inp_files/33270.got.cif
#   From: 2010.03.12/outbox.cif.g09.slc.cpg/sg64_17_cif.got.tgz:33270.got - 2010.04.10 20:19:32.
