data_PCOD8263696
_publ_section_title
;
Structure prediction by ZEFSAII (Michael W. Deem and Ramdas Pophale) SiO2 
 PCOD8263696
Probable space group: C M C A
;
_chemical_formula_sum "Si O2"
_cell_formula_units_Z 96
_cell_length_a 18.957243
_cell_length_b 24.584194
_cell_length_c 9.852437
_cell_angle_alpha 90.000000
_cell_angle_beta 90.000000
_cell_angle_gamma 90.000000
_cell_volume 4591.713876
_symmetry_space_group_name_H-M "C M C A"
_symmetry_group_IT_number 64
_symmetry_cell_setting 'orthorhombic'
loop_
_space_group_symop_operation_xyz
x,y,z
-x,1/2-y,1/2+z
x,-y,-z
-x,1/2+y,1/2-z
-x,-y,-z
x,1/2+y,1/2-z
-x,y,z
x,1/2-y,1/2+z
1/2+x,1/2+y,z
1/2-x,-y,1/2+z
1/2+x,1/2-y,-z
1/2-x,y,1/2-z
1/2-x,1/2-y,-z
1/2+x,y,1/2-z
1/2-x,1/2+y,z
1/2+x,-y,1/2+z
loop_
_atom_site_type_symbol
_atom_site_label
_atom_site_fract_x
_atom_site_fract_y
_atom_site_fract_z
Si Si1 0.579920 0.464155 0.215272
Si Si2 0.349383 0.403366 0.447815
Si Si3 0.584646 0.208917 0.968946
Si Si4 0.297427 0.438613 0.015750
Si Si5 0.420677 0.702293 0.232696
Si Si6 0.623760 0.416175 0.763107
O O1 0.500000 0.443644 0.190772
O O2 0.606652 0.448218 0.364826
O O3 0.630953 0.435784 0.104683
O O4 0.579691 0.529587 0.201565
O O5 0.380812 0.345120 0.405905
O O6 0.265970 0.405698 0.411527
O O7 0.354961 0.416907 0.606666
O O8 0.500000 0.201841 0.969651
O O9 0.613985 0.260892 0.885446
O O10 0.614517 0.215546 0.121955
O O11 0.270265 0.500000 0.000000
O O12 0.309488 0.414619 0.864701
O O13 0.500000 0.723063 0.239293
O O14 0.419961 0.638145 0.201871
#
# Coordination Sequence:
#
# PCOD8263696 Si02
#       6
#    16  16  16  16  16  16
#     4  11  23  37  57  88 122 154 193 240 288 342
#     4  11  21  37  60  87 117 153 196 239 288 343
#     4   9  19  35  56  83 114 150 193 238 285 340
#     4  10  22  39  58  83 119 159 193 232 289 352
#     4   9  18  34  55  81 115 153 192 237 288 339
#     4  10  21  36  60  87 116 154 197 239 286 343
#
# _framework density 20.907226999999999
#
# number of rings (size 3 to 8) (size 9 to 14) (size 15 to 20)
#    0.000    2.000    0.000    3.500    0.000   10.333 
#    0.000    2.500    0.000    2.000    0.000    0.000 
#    0.000    0.000    0.000    0.000    0.000    0.000 
#
# Total GULP energy -594981.420920 kJ/mol
# GULP energy per Si atom -12395.446269 kJ/mol
# Density = 2.085964 g / cm^3
# Si number density = 20.907227 Si / 1000 Ang^3
#
#
#
# Elastic Constant Matrix: (Units=GPa)
#
#
# Indices 1 2 3 4 5 6 
#
# 1 108.2532 29.5805 34.6408 0.0000 0.0000 0.0000
# 2 29.5805 101.7912 62.8634 0.0000 0.0000 0.0000
# 3 34.6408 62.8634 100.3143 0.0000 0.0000 0.0000
# 4 0.0000 0.0000 0.0000 39.6773 0.0000 0.0000
# 5 0.0000 0.0000 0.0000 0.0000 23.1204 0.0000
# 6 0.0000 0.0000 0.0000 0.0000 0.0000 17.5635
#
#
#
# Elastic Compliance Matrix: (Units=1/GPa)
#
#
# Indices 1 2 3 4 5 6 
#
# 1 0.010493 -0.001324 -0.002794 0.000000 0.000000 0.000000
# 2 -0.001324 0.016193 -0.009691 0.000000 0.000000 0.000000
# 3 -0.002794 -0.009691 0.017006 0.000000 0.000000 0.000000
# 4 0.000000 0.000000 0.000000 0.025203 0.000000 0.000000
# 5 0.000000 0.000000 0.000000 0.000000 0.043252 0.000000
# 6 0.000000 0.000000 0.000000 0.000000 0.000000 0.056936
#
#
# Mechanical properties :
#
#
# Convention : Reuss Voigt Hill
#
# Bulk Modulus (GPa) = 62.20433 62.72534 62.46483
# Shear Modulus (GPa) = 24.74508 28.29051 26.51779
#
# Velocity S-wave (km/s) = 3.44403 3.68250 3.56526
# Velocity P-wave (km/s) = 6.75517 6.93887 6.84764
#
# Compressibility (1/GPa) = 0.01607605
#
# Stress axis : x y z
#
# Youngs Moduli (GPa) = 95.29772 61.75335 58.80178
#
# Poissons Ratio (x) = 0.08176 0.16429
# Poissons Ratio (y) = 0.12617 0.56983
# Poissons Ratio (z) = 0.26626 0.59843
#
# Static dielectric constant tensor:
#      x y z
#    x 3.534110 0.000000 0.000000 
#    y 0.000000 3.751510 0.000000 
#    z 0.000000 0.000000 3.985170 
# 
# 
# High freq. dielectric constant tensor:
#      x y z
#    x 1.796390 0.000000 0.000000 
#    y 0.000000 1.806900 0.000000 
#    z 0.000000 0.000000 1.830000 
# 
# From -- ./inp_files/8399.got.cif
#   From: 2010.03.12/outbox.cif.g09.slc.cpg/sg64_5_cif.got.tgz:8399.got - 2010.04.10 20:19:32.
