data_PCOD8263743
_publ_section_title
;
Structure prediction by ZEFSAII (Michael W. Deem and Ramdas Pophale) SiO2 
 PCOD8263743
Probable space group: C M C A
;
_chemical_formula_sum "Si O2"
_cell_formula_units_Z 80
_cell_length_a 25.955876
_cell_length_b 16.804890
_cell_length_c 9.578214
_cell_angle_alpha 90.000000
_cell_angle_beta 90.000000
_cell_angle_gamma 90.000000
_cell_volume 4177.879414
_symmetry_space_group_name_H-M "C M C A"
_symmetry_group_IT_number 64
_symmetry_cell_setting 'orthorhombic'
loop_
_space_group_symop_operation_xyz
x,y,z
-x,1/2-y,1/2+z
x,-y,-z
-x,1/2+y,1/2-z
-x,-y,-z
x,1/2+y,1/2-z
-x,y,z
x,1/2-y,1/2+z
1/2+x,1/2+y,z
1/2-x,-y,1/2+z
1/2+x,1/2-y,-z
1/2-x,y,1/2-z
1/2-x,1/2-y,-z
1/2+x,y,1/2-z
1/2-x,1/2+y,z
1/2+x,-y,1/2+z
loop_
_atom_site_type_symbol
_atom_site_label
_atom_site_fract_x
_atom_site_fract_y
_atom_site_fract_z
Si Si1 0.715773 0.787632 0.880564
Si Si2 0.057926 0.332912 0.800941
Si Si3 0.558012 0.910541 0.510275
Si Si4 0.377169 0.317452 0.207668
Si Si5 0.363612 0.905462 0.008872
O O1 0.750000 0.816445 0.750000
O O2 0.677890 0.717957 0.831847
O O3 0.686217 0.864788 0.939141
O O4 0.750000 0.750000 0.000000
O O5 0.058691 0.392964 0.673324
O O6 0.085162 0.253218 0.745506
O O7 0.085583 0.374898 0.930616
O O8 0.000000 0.312745 0.849515
O O9 0.500000 0.899431 0.449289
O O10 0.598555 0.856963 0.428850
O O11 0.577313 0.000000 0.500000
O O12 0.369773 0.381106 0.330048
O O13 0.357599 0.000000 0.000000
#
# Coordination Sequence:
#
# PCOD8263743 Si02
#       5
#    16  16  16  16  16
#     4  11  23  45  66  86 118 157 205 259 309 370
#     4  10  21  37  61  90 123 166 205 242 297 364
#     4  10  21  37  57  88 125 160 198 243 299 361
#     4  11  22  38  64  87 120 158 206 252 298 368
#     4  11  24  41  61  94 127 157 204 261 317 367
#
# _framework density 19.148472000000002
#
# number of rings (size 3 to 8) (size 9 to 14) (size 15 to 20)
#    0.000    1.400    2.000    4.200    2.800    3.600 
#    3.600    0.000    0.000    0.000    0.000    0.000 
#    0.000    0.000    0.000    0.000    0.000    0.000 
#
# Total GULP energy -496139.547480 kJ/mol
# GULP energy per Si atom -12403.488687 kJ/mol
# Density = 1.910489 g / cm^3
# Si number density = 19.148472 Si / 1000 Ang^3
#
#
#
# Elastic Constant Matrix: (Units=GPa)
#
#
# Indices 1 2 3 4 5 6 
#
# 1 127.2704 44.4079 46.2318 0.0000 0.0000 0.0000
# 2 44.4079 122.9018 31.4730 0.0000 0.0000 0.0000
# 3 46.2318 31.4730 93.9491 0.0000 0.0000 0.0000
# 4 0.0000 0.0000 0.0000 32.7762 0.0000 0.0000
# 5 0.0000 0.0000 0.0000 0.0000 98.3101 0.0000
# 6 0.0000 0.0000 0.0000 0.0000 0.0000 19.6652
#
#
#
# Elastic Compliance Matrix: (Units=1/GPa)
#
#
# Indices 1 2 3 4 5 6 
#
# 1 0.010301 -0.002651 -0.004181 0.000000 0.000000 0.000000
# 2 -0.002651 0.009583 -0.001905 0.000000 0.000000 0.000000
# 3 -0.004181 -0.001905 0.013340 0.000000 0.000000 0.000000
# 4 0.000000 0.000000 0.000000 0.030510 0.000000 0.000000
# 5 0.000000 0.000000 0.000000 0.000000 0.010172 0.000000
# 6 0.000000 0.000000 0.000000 0.000000 0.000000 0.050851
#
#
# Mechanical properties :
#
#
# Convention : Reuss Voigt Hill
#
# Bulk Modulus (GPa) = 63.50013 65.37182 64.43597
# Shear Modulus (GPa) = 33.90258 44.95088 39.42673
#
# Velocity S-wave (km/s) = 4.21231 4.85035 4.54255
# Velocity P-wave (km/s) = 7.54268 8.09823 7.82539
#
# Compressibility (1/GPa) = 0.01574800
#
# Stress axis : x y z
#
# Youngs Moduli (GPa) = 97.07617 104.35623 74.96379
#
# Poissons Ratio (x) = 0.27670 0.31342
# Poissons Ratio (y) = 0.25739 0.14284
# Poissons Ratio (z) = 0.40587 0.19884
#
# Static dielectric constant tensor:
#      x y z
#    x 3.672820 0.000000 0.000000 
#    y 0.000000 3.694490 0.000000 
#    z 0.000000 0.000000 3.506620 
# 
# 
# High freq. dielectric constant tensor:
#      x y z
#    x 1.753250 0.000000 0.000000 
#    y 0.000000 1.745210 0.000000 
#    z 0.000000 0.000000 1.755660 
# 
# From -- ./inp_files/10203.got.cif
#   From: 2010.03.12/outbox.cif.g09.slc.cpg/sg64_6_cif.got.tgz:10203.got - 2010.04.10 20:19:32.
