data_PCOD8263359
_publ_section_title
;
Structure prediction by ZEFSAII (Michael W. Deem and Ramdas Pophale) SiO2 
 PCOD8263359
Probable space group: C M C A
;
_chemical_formula_sum "Si O2"
_cell_formula_units_Z 120
_cell_length_a 14.722017
_cell_length_b 18.941573
_cell_length_c 20.085786
_cell_angle_alpha 90.000000
_cell_angle_beta 90.000000
_cell_angle_gamma 90.000000
_cell_volume 5601.085320
_symmetry_space_group_name_H-M "C M C A"
_symmetry_group_IT_number 64
_symmetry_cell_setting 'orthorhombic'
loop_
_space_group_symop_operation_xyz
x,y,z
-x,1/2-y,1/2+z
x,-y,-z
-x,1/2+y,1/2-z
-x,-y,-z
x,1/2+y,1/2-z
-x,y,z
x,1/2-y,1/2+z
1/2+x,1/2+y,z
1/2-x,-y,1/2+z
1/2+x,1/2-y,-z
1/2-x,y,1/2-z
1/2-x,1/2-y,-z
1/2+x,y,1/2-z
1/2-x,1/2+y,z
1/2+x,-y,1/2+z
loop_
_atom_site_type_symbol
_atom_site_label
_atom_site_fract_x
_atom_site_fract_y
_atom_site_fract_z
Si Si1 0.788262 0.418014 0.498997
Si Si2 0.603265 0.859187 0.381677
Si Si3 0.104481 0.597167 0.763720
Si Si4 0.250000 0.511731 0.250000
Si Si5 0.778591 0.371920 0.647523
Si Si6 0.398440 0.294784 0.618794
Si Si7 0.396050 0.240221 0.837189
Si Si8 0.664625 0.799174 0.020020
O O1 0.766545 0.500000 0.500000
O O2 0.868679 0.401741 0.447403
O O3 0.812695 0.388387 0.572514
O O4 0.700435 0.378791 0.468992
O O5 0.500000 0.838725 0.393548
O O6 0.617291 0.905271 0.315995
O O7 0.648665 0.782269 0.368931
O O8 0.172784 0.535637 0.787017
O O9 0.135530 0.672110 0.794555
O O10 0.000000 0.580835 0.784157
O O11 0.205549 0.559683 0.307363
O O12 0.671276 0.352287 0.648271
O O13 0.835959 0.308405 0.680780
O O14 0.500000 0.304674 0.650176
O O15 0.407851 0.301674 0.539217
O O16 0.500000 0.257689 0.819394
O O17 0.387080 0.225925 0.915175
O O18 0.750000 0.750000 0.000000
#
# Coordination Sequence:
#
# PCOD8263359 Si02
#       8
#    16  16  16   8  16  16  16  16
#     4  11  22  37  61  91 134 165 209 273 327 395
#     4  10  20  38  64  92 122 165 215 273 331 382
#     4  10  26  45  65  97 128 174 229 267 323 402
#     4  12  28  42  70  88 136 186 206 268 344 398
#     4  11  25  42  61 104 125 173 224 269 332 393
#     4  10  20  37  64  92 124 163 212 271 325 375
#     4  11  23  42  70  96 129 169 220 281 326 380
#     4  11  19  38  62  92 127 163 217 267 316 387
#
# _framework density 21.424420000000001
#
# number of rings (size 3 to 8) (size 9 to 14) (size 15 to 20)
#    0.000    1.333    4.000    1.200    7.467    2.933 
#    0.000    0.000    0.000    2.000    0.000    0.000 
#    0.000    0.000    0.000    0.000    0.000    0.000 
#
# Total GULP energy -743813.866149 kJ/mol
# GULP energy per Si atom -12396.897769 kJ/mol
# Density = 2.137566 g / cm^3
# Si number density = 21.424420 Si / 1000 Ang^3
#
#
#
# Elastic Constant Matrix: (Units=GPa)
#
#
# Indices 1 2 3 4 5 6 
#
# 1 79.0388 53.1117 20.8514 0.0000 0.0000 0.0000
# 2 53.1117 148.6227 25.1873 0.0000 0.0000 0.0000
# 3 20.8514 25.1873 72.6511 0.0000 0.0000 0.0000
# 4 0.0000 0.0000 0.0000 33.7833 0.0000 0.0000
# 5 0.0000 0.0000 0.0000 0.0000 25.6116 0.0000
# 6 0.0000 0.0000 0.0000 0.0000 0.0000 25.7554
#
#
#
# Elastic Compliance Matrix: (Units=1/GPa)
#
#
# Indices 1 2 3 4 5 6 
#
# 1 0.017240 -0.005654 -0.002988 0.000000 0.000000 0.000000
# 2 -0.005654 0.009003 -0.001498 0.000000 0.000000 0.000000
# 3 -0.002988 -0.001498 0.015141 0.000000 0.000000 0.000000
# 4 0.000000 0.000000 0.000000 0.029600 0.000000 0.000000
# 5 0.000000 0.000000 0.000000 0.000000 0.039045 0.000000
# 6 0.000000 0.000000 0.000000 0.000000 0.000000 0.038827
#
#
# Mechanical properties :
#
#
# Convention : Reuss Voigt Hill
#
# Bulk Modulus (GPa) = 47.38599 55.40149 51.39374
# Shear Modulus (GPa) = 28.38141 30.44088 29.41114
#
# Velocity S-wave (km/s) = 3.64362 3.77350 3.70913
# Velocity P-wave (km/s) = 6.31404 6.70082 6.51030
#
# Compressibility (1/GPa) = 0.02110328
#
# Stress axis : x y z
#
# Youngs Moduli (GPa) = 58.00519 111.07326 66.04430
#
# Poissons Ratio (x) = 0.62806 0.19731
# Poissons Ratio (y) = 0.32799 0.09896
# Poissons Ratio (z) = 0.17330 0.16643
#
# Static dielectric constant tensor:
#      x y z
#    x 3.765100 0.000000 0.000000 
#    y 0.000000 3.955380 0.000000 
#    z 0.000000 0.000000 3.913400 
# 
# 
# High freq. dielectric constant tensor:
#      x y z
#    x 1.828960 0.000000 0.000000 
#    y 0.000000 1.838330 0.000000 
#    z 0.000000 0.000000 1.843270 
# 
# From -- ./inp_files/39644.got.cif
#   From: 2010.03.12/outbox.cif.g09.slc.cpg/sg64_20_cif.got.tgz:39644.got - 2010.04.10 20:19:32.
