data_PCOD8263324
_publ_section_title
;
Structure prediction by ZEFSAII (Michael W. Deem and Ramdas Pophale) SiO2 
 PCOD8263324
Probable space group: C M C A
;
_chemical_formula_sum "Si O2"
_cell_formula_units_Z 80
_cell_length_a 16.278430
_cell_length_b 27.736540
_cell_length_c 8.005245
_cell_angle_alpha 90.000000
_cell_angle_beta 90.000000
_cell_angle_gamma 90.000000
_cell_volume 3614.426755
_symmetry_space_group_name_H-M "C M C A"
_symmetry_group_IT_number 64
_symmetry_cell_setting 'orthorhombic'
loop_
_space_group_symop_operation_xyz
x,y,z
-x,1/2-y,1/2+z
x,-y,-z
-x,1/2+y,1/2-z
-x,-y,-z
x,1/2+y,1/2-z
-x,y,z
x,1/2-y,1/2+z
1/2+x,1/2+y,z
1/2-x,-y,1/2+z
1/2+x,1/2-y,-z
1/2-x,y,1/2-z
1/2-x,1/2-y,-z
1/2+x,y,1/2-z
1/2-x,1/2+y,z
1/2+x,-y,1/2+z
loop_
_atom_site_type_symbol
_atom_site_label
_atom_site_fract_x
_atom_site_fract_y
_atom_site_fract_z
Si Si1 0.838332 0.945447 0.055916
Si Si2 0.653916 0.608858 0.254472
Si Si3 0.094838 0.795155 0.873479
Si Si4 0.842225 0.093900 0.612852
Si Si5 0.904388 0.191720 0.739376
O O1 0.883496 0.939120 0.238257
O O2 0.752622 0.919170 0.089125
O O3 0.887041 0.918214 0.905921
O O4 0.826427 0.000000 0.000000
O O5 0.750000 0.596716 0.250000
O O6 0.639845 0.666046 0.244080
O O7 0.615998 0.587882 0.428885
O O8 0.129073 0.741913 0.835875
O O9 0.000000 0.796349 0.821932
O O10 0.109660 0.808797 0.063691
O O11 0.849178 0.149883 0.661354
O O12 0.000000 0.183424 0.693926
#
# Coordination Sequence:
#
# PCOD8263324 Si02
#       5
#    16  16  16  16  16
#     4  10  22  38  59  86 116 151 196 247 306 358
#     4  10  21  37  56  91 120 154 199 248 301 349
#     4  10  20  37  60  86 123 167 202 239 291 359
#     4  10  21  35  59  87 116 151 193 246 292 354
#     4  10  20  37  60  87 121 161 202 242 292 355
#
# _framework density 22.133521999999999
#
# number of rings (size 3 to 8) (size 9 to 14) (size 15 to 20)
#    0.000    2.000    2.000    1.200    8.400    2.400 
#    3.600    3.000    0.000    3.000    0.000    0.000 
#    0.000    0.000    0.000    0.000    0.000    0.000 
#
# Total GULP energy -495615.255825 kJ/mol
# GULP energy per Si atom -12390.381396 kJ/mol
# Density = 2.208315 g / cm^3
# Si number density = 22.133522 Si / 1000 Ang^3
#
#
#
# Elastic Constant Matrix: (Units=GPa)
#
#
# Indices 1 2 3 4 5 6 
#
# 1 12.0734 27.6532 15.9323 0.0000 0.0000 0.0000
# 2 27.6532 160.6204 87.5718 0.0000 0.0000 0.0000
# 3 15.9323 87.5718 211.6614 0.0000 0.0000 0.0000
# 4 0.0000 0.0000 0.0000 37.6867 0.0000 0.0000
# 5 0.0000 0.0000 0.0000 0.0000 12.6799 0.0000
# 6 0.0000 0.0000 0.0000 0.0000 0.0000 0.7696
#
#
#
# Elastic Compliance Matrix: (Units=1/GPa)
#
#
# Indices 1 2 3 4 5 6 
#
# 1 0.136836 -0.023169 -0.000714 0.000000 0.000000 0.000000
# 2 -0.023169 0.011962 -0.003205 0.000000 0.000000 0.000000
# 3 -0.000714 -0.003205 0.006104 0.000000 0.000000 0.000000
# 4 0.000000 0.000000 0.000000 0.026535 0.000000 0.000000
# 5 0.000000 0.000000 0.000000 0.000000 0.078865 0.000000
# 6 0.000000 0.000000 0.000000 0.000000 0.000000 1.299348
#
#
# Mechanical properties :
#
#
# Convention : Reuss Voigt Hill
#
# Bulk Modulus (GPa) = 9.92792 71.85221 40.89007
# Shear Modulus (GPa) = 3.03508 27.10709 15.07108
#
# Velocity S-wave (km/s) = 1.17228 3.50338 2.61227
# Velocity P-wave (km/s) = 2.51546 6.99274 5.25480
#
# Compressibility (1/GPa) = 0.10072599
#
# Stress axis : x y z
#
# Youngs Moduli (GPa) = 7.30801 83.59606 163.81633
#
# Poissons Ratio (x) = 1.93684 0.11699
# Poissons Ratio (y) = 0.16932 0.52507
# Poissons Ratio (z) = 0.00522 0.26794
#
# Static dielectric constant tensor:
#      x y z
#    x 3.381060 0.000000 0.000000 
#    y 0.000000 3.914610 0.000000 
#    z 0.000000 0.000000 5.459460 
# 
# 
# High freq. dielectric constant tensor:
#      x y z
#    x 1.804560 0.000000 0.000000 
#    y 0.000000 1.868360 0.000000 
#    z 0.000000 0.000000 1.911100 
# 
# From -- ./inp_files/7022.got.cif
#   From: 2010.03.12/outbox.cif.g09.slc.cpg/sg64_4_cif.got.tgz:7022.got - 2010.04.10 20:19:32.
