data_PCOD8263233
_publ_section_title
;
Structure prediction by ZEFSAII (Michael W. Deem and Ramdas Pophale) SiO2 
 PCOD8263233
Probable space group: C M C A
;
_chemical_formula_sum "Si O2"
_cell_formula_units_Z 72
_cell_length_a 14.183043
_cell_length_b 27.085836
_cell_length_c 8.513018
_cell_angle_alpha 90.000000
_cell_angle_beta 90.000000
_cell_angle_gamma 90.000000
_cell_volume 3270.357391
_symmetry_space_group_name_H-M "C M C A"
_symmetry_group_IT_number 64
_symmetry_cell_setting 'orthorhombic'
loop_
_space_group_symop_operation_xyz
x,y,z
-x,1/2-y,1/2+z
x,-y,-z
-x,1/2+y,1/2-z
-x,-y,-z
x,1/2+y,1/2-z
-x,y,z
x,1/2-y,1/2+z
1/2+x,1/2+y,z
1/2-x,-y,1/2+z
1/2+x,1/2-y,-z
1/2-x,y,1/2-z
1/2-x,1/2-y,-z
1/2+x,y,1/2-z
1/2-x,1/2+y,z
1/2+x,-y,1/2+z
loop_
_atom_site_type_symbol
_atom_site_label
_atom_site_fract_x
_atom_site_fract_y
_atom_site_fract_z
Si Si1 0.706833 0.298179 0.924187
Si Si2 0.250000 0.455148 0.750000
Si Si3 0.605265 0.973425 0.169501
Si Si4 0.000000 0.729094 0.352842
Si Si5 0.500000 0.322735 0.533792
Si Si6 0.317271 0.115413 0.983457
O O1 0.750000 0.306863 0.750000
O O2 0.593726 0.295644 0.926078
O O3 0.738104 0.342528 0.042533
O O4 0.750000 0.250000 0.000000
O O5 0.338024 0.491522 0.789154
O O6 0.270522 0.421642 0.603946
O O7 0.500000 0.967038 0.233916
O O8 0.652878 0.918466 0.164686
O O9 0.605544 0.000000 0.000000
O O10 0.000000 0.719221 0.167676
O O11 0.000000 0.788848 0.376161
O O12 0.589801 0.357853 0.550867
#
# Coordination Sequence:
#
# PCOD8263233 Si02
#       6
#    16   8  16   8   8  16
#     4  12  23  40  63  94 130 178 219 269 324 395
#     4  10  20  36  60  90 116 150 208 270 316 374
#     4   9  19  35  61  89 116 155 212 269 315 388
#     4  12  22  40  60  95 135 175 229 274 326 387
#     4  12  22  38  69  93 127 183 228 266 328 401
#     4  11  20  39  63  90 122 171 217 259 326 401
#
# _framework density 22.015941999999999
#
# number of rings (size 3 to 8) (size 9 to 14) (size 15 to 20)
#    0.000    1.111    6.667    0.000    1.556    0.000 
#    4.000    0.000    2.444    2.000    0.000    0.000 
#    0.000    0.000    0.000    0.000    0.000    0.000 
#
# Total GULP energy -446102.747603 kJ/mol
# GULP energy per Si atom -12391.742989 kJ/mol
# Density = 2.196583 g / cm^3
# Si number density = 22.015942 Si / 1000 Ang^3
#
#
#
# Elastic Constant Matrix: (Units=GPa)
#
#
# Indices 1 2 3 4 5 6 
#
# 1 185.4728 80.0203 19.6051 0.0000 0.0000 0.0000
# 2 80.0203 178.3003 32.3697 0.0000 0.0000 0.0000
# 3 19.6051 32.3697 25.1229 0.0000 0.0000 0.0000
# 4 0.0000 0.0000 0.0000 37.1510 0.0000 0.0000
# 5 0.0000 0.0000 0.0000 0.0000 26.1743 0.0000
# 6 0.0000 0.0000 0.0000 0.0000 0.0000 24.5107
#
#
#
# Elastic Compliance Matrix: (Units=1/GPa)
#
#
# Indices 1 2 3 4 5 6 
#
# 1 0.006747 -0.002705 -0.001780 0.000000 0.000000 0.000000
# 2 -0.002705 0.008405 -0.008719 0.000000 0.000000 0.000000
# 3 -0.001780 -0.008719 0.052428 0.000000 0.000000 0.000000
# 4 0.000000 0.000000 0.000000 0.026917 0.000000 0.000000
# 5 0.000000 0.000000 0.000000 0.000000 0.038205 0.000000
# 6 0.000000 0.000000 0.000000 0.000000 0.000000 0.040799
#
#
# Mechanical properties :
#
#
# Convention : Reuss Voigt Hill
#
# Bulk Modulus (GPa) = 24.28844 72.54289 48.41567
# Shear Modulus (GPa) = 23.40467 34.69390 29.04929
#
# Velocity S-wave (km/s) = 3.26403 3.97401 3.63639
# Velocity P-wave (km/s) = 5.02606 7.35382 6.29841
#
# Compressibility (1/GPa) = 0.04117185
#
# Stress axis : x y z
#
# Youngs Moduli (GPa) = 148.22039 118.97226 19.07394
#
# Poissons Ratio (x) = 0.32179 0.03395
# Poissons Ratio (y) = 0.40090 0.16631
# Poissons Ratio (z) = 0.26383 1.03734
#
# Static dielectric constant tensor:
#      x y z
#    x 4.723420 0.000000 0.000000 
#    y 0.000000 4.820190 0.000000 
#    z 0.000000 0.000000 3.650090 
# 
# 
# High freq. dielectric constant tensor:
#      x y z
#    x 1.885490 0.000000 0.000000 
#    y 0.000000 1.890050 0.000000 
#    z 0.000000 0.000000 1.810990 
# 
# From -- ./inp_files/14389.got.cif
#   From: 2010.03.12/outbox.cif.g09.slc.cpg/sg64_8_cif.got.tgz:14389.got - 2010.04.10 20:19:32.
