data_PCOD8263801
_publ_section_title
;
Structure prediction by ZEFSAII (Michael W. Deem and Ramdas Pophale) SiO2 
 PCOD8263801
Probable space group: C M C A
;
_chemical_formula_sum "Si O2"
_cell_formula_units_Z 72
_cell_length_a 24.738204
_cell_length_b 34.273486
_cell_length_c 5.021697
_cell_angle_alpha 90.000000
_cell_angle_beta 90.000000
_cell_angle_gamma 90.000000
_cell_volume 4257.718558
_symmetry_space_group_name_H-M "C M C A"
_symmetry_group_IT_number 64
_symmetry_cell_setting 'orthorhombic'
loop_
_space_group_symop_operation_xyz
x,y,z
-x,1/2-y,1/2+z
x,-y,-z
-x,1/2+y,1/2-z
-x,-y,-z
x,1/2+y,1/2-z
-x,y,z
x,1/2-y,1/2+z
1/2+x,1/2+y,z
1/2-x,-y,1/2+z
1/2+x,1/2-y,-z
1/2-x,y,1/2-z
1/2-x,1/2-y,-z
1/2+x,y,1/2-z
1/2-x,1/2+y,z
1/2+x,-y,1/2+z
loop_
_atom_site_type_symbol
_atom_site_label
_atom_site_fract_x
_atom_site_fract_y
_atom_site_fract_z
Si Si1 0.287734 0.958570 0.006237
Si Si2 0.062814 0.724092 0.315411
Si Si3 0.685913 0.879754 0.226578
Si Si4 0.652808 0.664050 0.226596
Si Si5 0.250000 0.722564 0.250000
O O1 0.250000 0.947409 0.750000
O O2 0.250000 0.968342 0.250000
O O3 0.325642 0.922636 0.099906
O O4 0.320969 0.000000 0.000000
O O5 0.079399 0.751369 0.558776
O O6 0.094616 0.683328 0.323136
O O7 0.000000 0.712825 0.320430
O O8 0.750000 0.872555 0.250000
O O9 0.660843 0.871998 0.518900
O O10 0.656513 0.850249 0.028862
O O11 0.698176 0.696395 0.194676
O O12 0.250000 0.750000 0.500000
#
# Coordination Sequence:
#
# PCOD8263801 Si02
#       5
#    16  16  16  16   8
#     4   9  17  29  46  67  95 134 169 192 222 281
#     4  10  21  38  55  69  89 123 167 214 253 283
#     4  11  19  32  46  71 103 131 156 191 243 288
#     4  12  21  33  49  71  97 127 161 200 245 290
#     4  12  22  32  44  64  94 126 158 188 232 292
#
# _framework density 16.910464999999999
#
# number of rings (size 3 to 8) (size 9 to 14) (size 15 to 20)
#    0.000    1.333    2.222    6.667    0.000    0.000 
#    0.000    0.000    0.000    0.000    0.000    0.000 
#    0.000    5.333    0.000    0.000    0.000    0.000 
#
# Total GULP energy -446028.017330 kJ/mol
# GULP energy per Si atom -12389.667148 kJ/mol
# Density = 1.687198 g / cm^3
# Si number density = 16.910465 Si / 1000 Ang^3
#
#
#
# Elastic Constant Matrix: (Units=GPa)
#
#
# Indices 1 2 3 4 5 6 
#
# 1 55.1088 32.8541 13.1180 0.0000 0.0000 0.0000
# 2 32.8541 104.2214 27.9739 0.0000 0.0000 0.0000
# 3 13.1180 27.9739 110.7344 0.0000 0.0000 0.0000
# 4 0.0000 0.0000 0.0000 28.4218 0.0000 0.0000
# 5 0.0000 0.0000 0.0000 0.0000 27.0699 0.0000
# 6 0.0000 0.0000 0.0000 0.0000 0.0000 16.0517
#
#
#
# Elastic Compliance Matrix: (Units=1/GPa)
#
#
# Indices 1 2 3 4 5 6 
#
# 1 0.022435 -0.006821 -0.000934 0.000000 0.000000 0.000000
# 2 -0.006821 0.012367 -0.002316 0.000000 0.000000 0.000000
# 3 -0.000934 -0.002316 0.009726 0.000000 0.000000 0.000000
# 4 0.000000 0.000000 0.000000 0.035184 0.000000 0.000000
# 5 0.000000 0.000000 0.000000 0.000000 0.036941 0.000000
# 6 0.000000 0.000000 0.000000 0.000000 0.000000 0.062299
#
#
# Mechanical properties :
#
#
# Convention : Reuss Voigt Hill
#
# Bulk Modulus (GPa) = 41.00982 46.43965 43.72473
# Shear Modulus (GPa) = 24.12837 27.38327 25.75582
#
# Velocity S-wave (km/s) = 3.78144 4.02843 3.90689
# Velocity P-wave (km/s) = 6.58555 7.01137 6.80180
#
# Compressibility (1/GPa) = 0.02438441
#
# Stress axis : x y z
#
# Youngs Moduli (GPa) = 44.57298 80.86054 102.81286
#
# Poissons Ratio (x) = 0.55159 0.09608
# Poissons Ratio (y) = 0.30405 0.23812
# Poissons Ratio (z) = 0.04165 0.18728
#
# Static dielectric constant tensor:
#      x y z
#    x 2.770980 0.000000 0.000000 
#    y 0.000000 3.484390 0.000000 
#    z 0.000000 0.000000 3.422530 
# 
# 
# High freq. dielectric constant tensor:
#      x y z
#    x 1.592400 0.000000 0.000000 
#    y 0.000000 1.659440 0.000000 
#    z 0.000000 0.000000 1.684250 
# 
# From -- ./inp_files/2319.got.cif
#   From: 2010.03.12/outbox.cif.g09.slc.cpg/sg64_2_cif.got.tgz:2319.got - 2010.04.10 20:19:32.
