data_PCOD8263092
_publ_section_title
;
Structure prediction by ZEFSAII (Michael W. Deem and Ramdas Pophale) SiO2 
 PCOD8263092
Probable space group: C M C A
;
_chemical_formula_sum "Si O2"
_cell_formula_units_Z 56
_cell_length_a 16.122064
_cell_length_b 16.589874
_cell_length_c 10.020650
_cell_angle_alpha 90.000000
_cell_angle_beta 90.000000
_cell_angle_gamma 90.000000
_cell_volume 2680.153215
_symmetry_space_group_name_H-M "C M C A"
_symmetry_group_IT_number 64
_symmetry_cell_setting 'orthorhombic'
loop_
_space_group_symop_operation_xyz
x,y,z
-x,1/2-y,1/2+z
x,-y,-z
-x,1/2+y,1/2-z
-x,-y,-z
x,1/2+y,1/2-z
-x,y,z
x,1/2-y,1/2+z
1/2+x,1/2+y,z
1/2-x,-y,1/2+z
1/2+x,1/2-y,-z
1/2-x,y,1/2-z
1/2-x,1/2-y,-z
1/2+x,y,1/2-z
1/2-x,1/2+y,z
1/2+x,-y,1/2+z
loop_
_atom_site_type_symbol
_atom_site_label
_atom_site_fract_x
_atom_site_fract_y
_atom_site_fract_z
Si Si1 0.500000 0.602861 0.302481
Si Si2 0.133029 0.717521 0.085450
Si Si3 0.500000 0.342452 0.997023
Si Si4 0.827252 0.332878 0.186985
Si Si5 0.000000 0.081111 0.735948
O O1 0.419208 0.639625 0.370935
O O2 0.500000 0.619197 0.146581
O O3 0.500000 0.507396 0.325026
O O4 0.175149 0.753416 0.217603
O O5 0.079571 0.787214 0.016453
O O6 0.195339 0.689185 0.966795
O O7 0.500000 0.415881 0.103547
O O8 0.750000 0.385768 0.250000
O O9 0.917448 0.373786 0.184596
#
# Coordination Sequence:
#
# PCOD8263092 Si02
#       5
#     8  16   8  16   8
#     4  11  19  36  65  90 122 156 204 246 308 372
#     4  10  20  35  63  90 115 156 206 250 300 351
#     4   9  17  35  61  92 116 157 201 246 301 362
#     4  11  22  40  61  88 123 157 204 254 298 359
#     4  10  23  37  62  89 123 166 191 244 315 369
#
# _framework density 20.894328000000002
#
# number of rings (size 3 to 8) (size 9 to 14) (size 15 to 20)
#    0.000    1.714    2.857    3.857    0.000    2.286 
#    0.000    1.429   12.571    0.000    0.000    0.000 
#    0.000    0.000    0.000    0.000    0.000    0.000 
#
# Total GULP energy -346915.735639 kJ/mol
# GULP energy per Si atom -12389.847701 kJ/mol
# Density = 2.084677 g / cm^3
# Si number density = 20.894328 Si / 1000 Ang^3
#
#
#
# Elastic Constant Matrix: (Units=GPa)
#
#
# Indices 1 2 3 4 5 6 
#
# 1 97.5914 28.1775 16.6595 0.0000 0.0000 0.0000
# 2 28.1775 96.2189 38.3507 0.0000 0.0000 0.0000
# 3 16.6595 38.3507 147.1219 0.0000 0.0000 0.0000
# 4 0.0000 0.0000 0.0000 18.3343 0.0000 0.0000
# 5 0.0000 0.0000 0.0000 0.0000 33.0817 0.0000
# 6 0.0000 0.0000 0.0000 0.0000 0.0000 5.6687
#
#
#
# Elastic Compliance Matrix: (Units=1/GPa)
#
#
# Indices 1 2 3 4 5 6 
#
# 1 0.011221 -0.003102 -0.000462 0.000000 0.000000 0.000000
# 2 -0.003102 0.012455 -0.002896 0.000000 0.000000 0.000000
# 3 -0.000462 -0.002896 0.007604 0.000000 0.000000 0.000000
# 4 0.000000 0.000000 0.000000 0.054543 0.000000 0.000000
# 5 0.000000 0.000000 0.000000 0.000000 0.030228 0.000000
# 6 0.000000 0.000000 0.000000 0.000000 0.000000 0.176409
#
#
# Mechanical properties :
#
#
# Convention : Reuss Voigt Hill
#
# Bulk Modulus (GPa) = 54.46082 56.36751 55.41417
# Shear Modulus (GPa) = 16.05136 28.59991 22.32564
#
# Velocity S-wave (km/s) = 2.77468 3.70373 3.27234
# Velocity P-wave (km/s) = 6.03213 6.73247 6.39190
#
# Compressibility (1/GPa) = 0.01836182
#
# Stress axis : x y z
#
# Youngs Moduli (GPa) = 89.11616 80.28599 131.50630
#
# Poissons Ratio (x) = 0.24904 0.06076
# Poissons Ratio (y) = 0.27644 0.38078
# Poissons Ratio (z) = 0.04118 0.23247
#
# Static dielectric constant tensor:
#      x y z
#    x 4.015120 0.000000 0.000000 
#    y 0.000000 3.409760 0.000000 
#    z 0.000000 0.000000 4.109400 
# 
# 
# High freq. dielectric constant tensor:
#      x y z
#    x 1.819150 0.000000 0.000000 
#    y 0.000000 1.772870 0.000000 
#    z 0.000000 0.000000 1.850690 
# 
# From -- ./inp_files/6472.got.cif
#   From: 2010.03.12/outbox.cif.g09.slc.cpg/sg64_4_cif.got.tgz:6472.got - 2010.04.10 20:19:32.
