data_PCOD8263976
_publ_section_title
;
Structure prediction by ZEFSAII (Michael W. Deem and Ramdas Pophale) SiO2 
 PCOD8263976
Probable space group: C M C A
;
_chemical_formula_sum "Si O2"
_cell_formula_units_Z 96
_cell_length_a 8.584282
_cell_length_b 20.369934
_cell_length_c 26.500004
_cell_angle_alpha 90.000000
_cell_angle_beta 90.000000
_cell_angle_gamma 90.000000
_cell_volume 4633.824031
_symmetry_space_group_name_H-M "C M C A"
_symmetry_group_IT_number 64
_symmetry_cell_setting 'orthorhombic'
loop_
_space_group_symop_operation_xyz
x,y,z
-x,1/2-y,1/2+z
x,-y,-z
-x,1/2+y,1/2-z
-x,-y,-z
x,1/2+y,1/2-z
-x,y,z
x,1/2-y,1/2+z
1/2+x,1/2+y,z
1/2-x,-y,1/2+z
1/2+x,1/2-y,-z
1/2-x,y,1/2-z
1/2-x,1/2-y,-z
1/2+x,y,1/2-z
1/2-x,1/2+y,z
1/2+x,-y,1/2+z
loop_
_atom_site_type_symbol
_atom_site_label
_atom_site_fract_x
_atom_site_fract_y
_atom_site_fract_z
Si Si1 0.183539 0.049346 0.805390
Si Si2 0.815173 0.308336 0.467117
Si Si3 0.184060 0.325987 0.142328
Si Si4 0.316561 0.796012 0.803295
Si Si5 0.184965 0.564559 0.474012
Si Si6 0.183798 0.083822 0.139600
O O1 0.250000 0.060427 0.750000
O O2 0.253458 0.102260 0.843733
O O3 0.000000 0.058990 0.804379
O O4 0.229580 0.977178 0.824864
O O5 0.750000 0.250000 0.500000
O O6 0.748510 0.303405 0.411300
O O7 0.754757 0.374411 0.493517
O O8 0.000000 0.304848 0.464622
O O9 0.239751 0.273522 0.183502
O O10 0.000000 0.327564 0.140942
O O11 0.500000 0.786722 0.800459
O O12 0.250000 0.820130 0.750000
O O13 0.274326 0.851382 0.843755
O O14 0.256573 0.500000 0.500000
O O15 0.243438 0.568550 0.416640
O O16 0.000000 0.561506 0.474467
O O17 0.000000 0.097963 0.141278
#
# Coordination Sequence:
#
# PCOD8263976 Si02
#       6
#    16  16  16  16  16  16
#     4  11  23  40  63  91 124 161 203 251 305 366
#     4  11  22  38  62  91 123 160 203 251 306 364
#     4  12  25  42  63  88 122 162 207 256 308 364
#     4  12  25  42  64  90 122 158 202 253 308 369
#     4   9  18  35  60  88 118 155 198 243 292 349
#     4  10  21  39  64  93 125 161 202 248 302 364
#
# _framework density 20.717231000000002
#
# number of rings (size 3 to 8) (size 9 to 14) (size 15 to 20)
#    0.000    1.167    0.000    7.000    0.000    6.667 
#    0.000    0.833    0.000    3.500    0.000    0.000 
#    0.000    0.000    0.000    0.000    0.000    0.000 
#
# Total GULP energy -595523.547042 kJ/mol
# GULP energy per Si atom -12406.740563 kJ/mol
# Density = 2.067008 g / cm^3
# Si number density = 20.717231 Si / 1000 Ang^3
#
#
#
# Elastic Constant Matrix: (Units=GPa)
#
#
# Indices 1 2 3 4 5 6 
#
# 1 102.5043 41.8529 24.2823 0.0000 0.0000 0.0000
# 2 41.8529 117.2094 21.4485 0.0000 0.0000 0.0000
# 3 24.2823 21.4485 105.9723 0.0000 0.0000 0.0000
# 4 0.0000 0.0000 0.0000 50.0949 0.0000 0.0000
# 5 0.0000 0.0000 0.0000 0.0000 29.9130 0.0000
# 6 0.0000 0.0000 0.0000 0.0000 0.0000 32.0895
#
#
#
# Elastic Compliance Matrix: (Units=1/GPa)
#
#
# Indices 1 2 3 4 5 6 
#
# 1 0.011785 -0.003857 -0.001920 0.000000 0.000000 0.000000
# 2 -0.003857 0.010122 -0.001165 0.000000 0.000000 0.000000
# 3 -0.001920 -0.001165 0.010112 0.000000 0.000000 0.000000
# 4 0.000000 0.000000 0.000000 0.019962 0.000000 0.000000
# 5 0.000000 0.000000 0.000000 0.000000 0.033430 0.000000
# 6 0.000000 0.000000 0.000000 0.000000 0.000000 0.031163
#
#
# Mechanical properties :
#
#
# Convention : Reuss Voigt Hill
#
# Bulk Modulus (GPa) = 55.13849 55.65037 55.39443
# Shear Modulus (GPa) = 36.62908 38.29296 37.46102
#
# Velocity S-wave (km/s) = 4.20938 4.30392 4.25691
# Velocity P-wave (km/s) = 7.09209 7.18460 7.13850
#
# Compressibility (1/GPa) = 0.01813615
#
# Stress axis : x y z
#
# Youngs Moduli (GPa) = 84.85164 98.79329 98.89139
#
# Poissons Ratio (x) = 0.38104 0.18985
# Poissons Ratio (y) = 0.32727 0.11520
# Poissons Ratio (z) = 0.16290 0.11509
#
# Static dielectric constant tensor:
#      x y z
#    x 3.631620 0.000000 0.000000 
#    y 0.000000 3.934210 0.000000 
#    z 0.000000 0.000000 3.941520 
# 
# 
# High freq. dielectric constant tensor:
#      x y z
#    x 1.801430 0.000000 0.000000 
#    y 0.000000 1.828570 0.000000 
#    z 0.000000 0.000000 1.828900 
# 
# From -- ./inp_files/48032.got.cif
#   From: 2010.03.12/outbox.cif.g09.slc.cpg/sg64_25_cif.got.tgz:48032.got - 2010.04.10 20:19:32.
