data_PCOD8263876
_publ_section_title
;
Structure prediction by ZEFSAII (Michael W. Deem and Ramdas Pophale) SiO2 
 PCOD8263876
Probable space group: C M C A
;
_chemical_formula_sum "Si O2"
_cell_formula_units_Z 64
_cell_length_a 17.977552
_cell_length_b 17.353420
_cell_length_c 10.016477
_cell_angle_alpha 90.000000
_cell_angle_beta 90.000000
_cell_angle_gamma 90.000000
_cell_volume 3124.860467
_symmetry_space_group_name_H-M "C M C A"
_symmetry_group_IT_number 64
_symmetry_cell_setting 'orthorhombic'
loop_
_space_group_symop_operation_xyz
x,y,z
-x,1/2-y,1/2+z
x,-y,-z
-x,1/2+y,1/2-z
-x,-y,-z
x,1/2+y,1/2-z
-x,y,z
x,1/2-y,1/2+z
1/2+x,1/2+y,z
1/2-x,-y,1/2+z
1/2+x,1/2-y,-z
1/2-x,y,1/2-z
1/2-x,1/2-y,-z
1/2+x,y,1/2-z
1/2-x,1/2+y,z
1/2+x,-y,1/2+z
loop_
_atom_site_type_symbol
_atom_site_label
_atom_site_fract_x
_atom_site_fract_y
_atom_site_fract_z
Si Si1 0.586546 0.571109 0.210187
Si Si2 0.662183 0.085352 0.748974
Si Si3 0.086663 0.358142 0.993861
Si Si4 0.913262 0.818030 0.031894
O O1 0.500000 0.549259 0.204397
O O2 0.633223 0.494108 0.185621
O O3 0.608304 0.610056 0.349331
O O4 0.608067 0.630642 0.094834
O O5 0.750000 0.085595 0.750000
O O6 0.632792 0.156088 0.660730
O O7 0.632769 0.093211 0.899342
O O8 0.109194 0.268951 0.002698
O O9 0.000000 0.370226 0.024662
O O10 0.000000 0.823604 0.068659
#
# Coordination Sequence:
#
# PCOD8263876 Si02
#       4
#    16  16  16  16
#     4  10  21  38  62  88 114 150 197 246 290 336
#     4  12  25  38  56  86 124 160 191 230 286 352
#     4  10  21  40  65  89 113 147 196 248 292 338
#     4  10  21  40  65  89 113 147 196 248 292 338
#
# _framework density 20.480913999999999
#
# number of rings (size 3 to 8) (size 9 to 14) (size 15 to 20)
#    0.000    1.500    0.000    5.250    0.000   13.000 
#    0.000    2.500    0.000    0.000    0.000    0.000 
#    0.000    0.000    0.000    0.000    0.000    0.000 
#
# Total GULP energy -397068.183130 kJ/mol
# GULP energy per Si atom -12408.380723 kJ/mol
# Density = 2.043430 g / cm^3
# Si number density = 20.480914 Si / 1000 Ang^3
#
#
#
# Elastic Constant Matrix: (Units=GPa)
#
#
# Indices 1 2 3 4 5 6 
#
# 1 70.6411 22.3782 27.1186 0.0000 0.0000 0.0000
# 2 22.3782 81.7309 -1.3811 0.0000 0.0000 0.0000
# 3 27.1186 -1.3811 85.3791 0.0000 0.0000 0.0000
# 4 0.0000 0.0000 0.0000 38.2097 0.0000 0.0000
# 5 0.0000 0.0000 0.0000 0.0000 -352.2520 0.0000
# 6 0.0000 0.0000 0.0000 0.0000 0.0000 15.5964
#
#
#
# Elastic Compliance Matrix: (Units=1/GPa)
#
#
# Indices 1 2 3 4 5 6 
#
# 1 0.017968 -0.005017 -0.005788 0.000000 0.000000 0.000000
# 2 -0.005017 0.013640 0.001814 0.000000 0.000000 0.000000
# 3 -0.005788 0.001814 0.013580 0.000000 0.000000 0.000000
# 4 0.000000 0.000000 0.000000 0.026171 0.000000 0.000000
# 5 0.000000 0.000000 0.000000 0.000000 -0.002839 0.000000
# 6 0.000000 0.000000 0.000000 0.000000 0.000000 0.064117
#
#
# Mechanical properties :
#
#
# Convention : Reuss Voigt Hill
#
# Bulk Modulus (GPa) = 36.75782 37.10916 36.93349
# Shear Modulus (GPa) = 31.31107 -47.04681 -7.86787
#
# Velocity S-wave (km/s) = 3.91422 -4.79801 -1.96212
# Velocity P-wave (km/s) = 6.19794 3.54067 3.59709
#
# Compressibility (1/GPa) = 0.02720510
#
# Stress axis : x y z
#
# Youngs Moduli (GPa) = 55.65595 73.31537 73.63623
#
# Poissons Ratio (x) = 0.36785 0.42622
# Poissons Ratio (y) = 0.27925 -0.13360
# Poissons Ratio (z) = 0.32214 -0.13301
#
# Static dielectric constant tensor:
#      x y z
#    x 3.458270 0.000000 0.000000 
#    y 0.000000 3.845290 0.000000 
#    z 0.000000 0.000000 3.797840 
# 
# 
# High freq. dielectric constant tensor:
#      x y z
#    x 1.776040 0.000000 0.000000 
#    y 0.000000 1.816390 0.000000 
#    z 0.000000 0.000000 1.816620 
# 
# From -- ./inp_files/6582.got.cif
#   From: 2010.03.12/outbox.cif.g09.slc.cpg/sg64_4_cif.got.tgz:6582.got - 2010.04.10 20:19:32.
