data_PCOD8263605
_publ_section_title
;
Structure prediction by ZEFSAII (Michael W. Deem and Ramdas Pophale) SiO2 
 PCOD8263605
Probable space group: C M C A
;
_chemical_formula_sum "Si O2"
_cell_formula_units_Z 96
_cell_length_a 23.463881
_cell_length_b 23.486889
_cell_length_c 8.777465
_cell_angle_alpha 90.000000
_cell_angle_beta 90.000000
_cell_angle_gamma 90.000000
_cell_volume 4837.204510
_symmetry_space_group_name_H-M "C M C A"
_symmetry_group_IT_number 64
_symmetry_cell_setting 'orthorhombic'
loop_
_space_group_symop_operation_xyz
x,y,z
-x,1/2-y,1/2+z
x,-y,-z
-x,1/2+y,1/2-z
-x,-y,-z
x,1/2+y,1/2-z
-x,y,z
x,1/2-y,1/2+z
1/2+x,1/2+y,z
1/2-x,-y,1/2+z
1/2+x,1/2-y,-z
1/2-x,y,1/2-z
1/2-x,1/2-y,-z
1/2+x,y,1/2-z
1/2-x,1/2+y,z
1/2+x,-y,1/2+z
loop_
_atom_site_type_symbol
_atom_site_label
_atom_site_fract_x
_atom_site_fract_y
_atom_site_fract_z
Si Si1 0.309081 0.521541 0.672492
Si Si2 0.500000 0.061136 0.924930
Si Si3 0.565194 0.172034 0.446544
Si Si4 0.934723 0.714751 0.780564
Si Si5 0.617093 0.382091 0.450923
Si Si6 0.884463 0.576966 0.269661
Si Si7 0.000000 0.985624 0.824189
O O1 0.301368 0.500000 0.500000
O O2 0.250000 0.537996 0.750000
O O3 0.346392 0.579049 0.664844
O O4 0.338843 0.474473 0.783232
O O5 0.445831 0.095564 0.972348
O O6 0.500000 0.049696 0.743265
O O7 0.500000 0.000000 0.000000
O O8 0.500000 0.148487 0.445361
O O9 0.572348 0.218401 0.312096
O O10 0.579846 0.202174 0.605204
O O11 0.609846 0.120400 0.413450
O O12 0.888404 0.681300 0.883652
O O13 0.000000 0.695801 0.817753
O O14 0.638140 0.385482 0.625572
O O15 0.946110 0.548086 0.256548
O O16 0.000000 0.000000 0.000000
#
# Coordination Sequence:
#
# PCOD8263605 Si02
#       7
#    16   8  16  16  16  16   8
#     4  10  23  40  58  82 110 147 189 232 284 335
#     4  12  18  34  51  78 113 148 179 217 277 345
#     4  10  21  34  51  79 116 149 188 225 272 329
#     4  10  21  34  52  81 113 152 187 225 273 331
#     4  11  20  34  58  79 110 150 185 224 281 338
#     4  11  21  36  54  80 113 150 184 228 279 335
#     4  12  24  30  49  82 119 144 181 227 275 333
#
# _framework density 19.846173
#
# number of rings (size 3 to 8) (size 9 to 14) (size 15 to 20)
#    0.000    1.333    5.000    1.500    2.333    3.333 
#    0.000    0.000    0.000    1.000    0.000    7.000 
#    0.000    0.000    0.000    0.000    0.000    0.000 
#
# Total GULP energy -594711.020161 kJ/mol
# GULP energy per Si atom -12389.812920 kJ/mol
# Density = 1.980100 g / cm^3
# Si number density = 19.846173 Si / 1000 Ang^3
#
#
#
# Elastic Constant Matrix: (Units=GPa)
#
#
# Indices 1 2 3 4 5 6 
#
# 1 77.5506 18.6785 5.3477 0.0000 0.0000 0.0000
# 2 18.6785 52.4512 7.2413 0.0000 0.0000 0.0000
# 3 5.3477 7.2413 62.2234 0.0000 0.0000 0.0000
# 4 0.0000 0.0000 0.0000 38.1812 0.0000 0.0000
# 5 0.0000 0.0000 0.0000 0.0000 18.2133 0.0000
# 6 0.0000 0.0000 0.0000 0.0000 0.0000 -14.4188
#
#
#
# Elastic Compliance Matrix: (Units=1/GPa)
#
#
# Indices 1 2 3 4 5 6 
#
# 1 0.014130 -0.004943 -0.000639 0.000000 0.000000 0.000000
# 2 -0.004943 0.021106 -0.002031 0.000000 0.000000 0.000000
# 3 -0.000639 -0.002031 0.016362 0.000000 0.000000 0.000000
# 4 0.000000 0.000000 0.000000 0.026191 0.000000 0.000000
# 5 0.000000 0.000000 0.000000 0.000000 0.054905 0.000000
# 6 0.000000 0.000000 0.000000 0.000000 0.000000 -0.069354
#
#
# Mechanical properties :
#
#
# Convention : Reuss Voigt Hill
#
# Bulk Modulus (GPa) = 27.49490 28.30669 27.90079
# Shear Modulus (GPa) = 55.13212 19.12566 37.12889
#
# Velocity S-wave (km/s) = 5.27637 3.10771 4.33001
# Velocity P-wave (km/s) = 7.14172 5.21260 6.25201
#
# Compressibility (1/GPa) = 0.03637038
#
# Stress axis : x y z
#
# Youngs Moduli (GPa) = 70.77374 47.37943 61.11558
#
# Poissons Ratio (x) = 0.23422 0.03906
# Poissons Ratio (y) = 0.34987 0.12415
# Poissons Ratio (z) = 0.04523 0.09625
#
# Static dielectric constant tensor:
#      x y z
#    x 3.250250 0.000000 0.000000 
#    y 0.000000 3.865480 0.000000 
#    z 0.000000 0.000000 3.856950 
# 
# 
# High freq. dielectric constant tensor:
#      x y z
#    x 1.719880 0.000000 0.000000 
#    y 0.000000 1.773540 0.000000 
#    z 0.000000 0.000000 1.783060 
# 
# From -- ./inp_files/9545.got.cif
#   From: 2010.03.12/outbox.cif.g09.slc.cpg/sg64_5_cif.got.tgz:9545.got - 2010.04.10 20:19:32.
