data_PCOD8263369
_publ_section_title
;
Structure prediction by ZEFSAII (Michael W. Deem and Ramdas Pophale) SiO2 
 PCOD8263369
Probable space group: C M C A
;
_chemical_formula_sum "Si O2"
_cell_formula_units_Z 56
_cell_length_a 15.154724
_cell_length_b 17.705977
_cell_length_c 10.620548
_cell_angle_alpha 90.000000
_cell_angle_beta 90.000000
_cell_angle_gamma 90.000000
_cell_volume 2849.803091
_symmetry_space_group_name_H-M "C M C A"
_symmetry_group_IT_number 64
_symmetry_cell_setting 'orthorhombic'
loop_
_space_group_symop_operation_xyz
x,y,z
-x,1/2-y,1/2+z
x,-y,-z
-x,1/2+y,1/2-z
-x,-y,-z
x,1/2+y,1/2-z
-x,y,z
x,1/2-y,1/2+z
1/2+x,1/2+y,z
1/2-x,-y,1/2+z
1/2+x,1/2-y,-z
1/2-x,y,1/2-z
1/2-x,1/2-y,-z
1/2+x,y,1/2-z
1/2-x,1/2+y,z
1/2+x,-y,1/2+z
loop_
_atom_site_type_symbol
_atom_site_label
_atom_site_fract_x
_atom_site_fract_y
_atom_site_fract_z
Si Si1 0.400826 0.414945 0.286602
Si Si2 0.192952 0.635241 0.030480
Si Si3 0.323116 0.215014 0.647085
Si Si4 0.250000 0.525459 0.250000
O O1 0.500000 0.447205 0.283027
O O2 0.371908 0.404299 0.431430
O O3 0.399069 0.334999 0.212370
O O4 0.334074 0.472556 0.217652
O O5 0.139926 0.704706 0.096854
O O6 0.225712 0.574142 0.129550
O O7 0.281105 0.667792 0.967055
O O8 0.250000 0.234664 0.750000
#
# Coordination Sequence:
#
# PCOD8263369 Si02
#       4
#    16  16  16   8
#     4  11  24  40  61  92 127 160 201 253 305 363
#     4  10  20  37  66  86 116 163 204 248 299 358
#     4   9  18  39  63  89 113 156 206 249 297 353
#     4  12  22  38  62  90 124 164 194 248 312 368
#
# _framework density 19.650479000000001
#
# number of rings (size 3 to 8) (size 9 to 14) (size 15 to 20)
#    0.000    1.714    5.714    0.857    0.000    3.429 
#    0.000    2.857    0.000    0.000    0.000    0.000 
#    0.000    0.000    0.000    0.000    0.000    0.000 
#
# Total GULP energy -347136.057383 kJ/mol
# GULP energy per Si atom -12397.716335 kJ/mol
# Density = 1.960575 g / cm^3
# Si number density = 19.650479 Si / 1000 Ang^3
#
#
#
# Elastic Constant Matrix: (Units=GPa)
#
#
# Indices 1 2 3 4 5 6 
#
# 1 116.6278 48.3904 24.5658 0.0000 0.0000 0.0000
# 2 48.3904 114.3251 54.1545 0.0000 0.0000 0.0000
# 3 24.5658 54.1545 93.8764 0.0000 0.0000 0.0000
# 4 0.0000 0.0000 0.0000 36.4053 0.0000 0.0000
# 5 0.0000 0.0000 0.0000 0.0000 14.7357 0.0000
# 6 0.0000 0.0000 0.0000 0.0000 0.0000 10.0172
#
#
#
# Elastic Compliance Matrix: (Units=1/GPa)
#
#
# Indices 1 2 3 4 5 6 
#
# 1 0.010405 -0.004285 -0.000251 0.000000 0.000000 0.000000
# 2 -0.004285 0.013801 -0.006840 0.000000 0.000000 0.000000
# 3 -0.000251 -0.006840 0.014664 0.000000 0.000000 0.000000
# 4 0.000000 0.000000 0.000000 0.027469 0.000000 0.000000
# 5 0.000000 0.000000 0.000000 0.000000 0.067862 0.000000
# 6 0.000000 0.000000 0.000000 0.000000 0.000000 0.099829
#
#
# Mechanical properties :
#
#
# Convention : Reuss Voigt Hill
#
# Bulk Modulus (GPa) = 62.04396 64.33898 63.19147
# Shear Modulus (GPa) = 19.07278 25.41287 22.24283
#
# Velocity S-wave (km/s) = 3.11883 3.60007 3.36806
# Velocity P-wave (km/s) = 6.67920 7.07767 6.88132
#
# Compressibility (1/GPa) = 0.01611760
#
# Stress axis : x y z
#
# Youngs Moduli (GPa) = 96.10600 72.45920 68.19589
#
# Poissons Ratio (x) = 0.31052 0.01710
# Poissons Ratio (y) = 0.41186 0.46645
# Poissons Ratio (z) = 0.02409 0.49561
#
# Static dielectric constant tensor:
#      x y z
#    x 3.130340 0.000000 0.000000 
#    y 0.000000 3.885710 0.000000 
#    z 0.000000 0.000000 3.897020 
# 
# 
# High freq. dielectric constant tensor:
#      x y z
#    x 1.716280 0.000000 0.000000 
#    y 0.000000 1.782460 0.000000 
#    z 0.000000 0.000000 1.777360 
# 
# From -- ./inp_files/13880.got.cif
#   From: 2010.03.12/outbox.cif.g09.slc.cpg/sg64_7_cif.got.tgz:13880.got - 2010.04.10 20:19:32.
