data_PCOD8263544
_publ_section_title
;
Structure prediction by ZEFSAII (Michael W. Deem and Ramdas Pophale) SiO2 
 PCOD8263544
Probable space group: C M C A
;
_chemical_formula_sum "Si O2"
_cell_formula_units_Z 112
_cell_length_a 22.378558
_cell_length_b 14.271683
_cell_length_c 15.768463
_cell_angle_alpha 90.000000
_cell_angle_beta 90.000000
_cell_angle_gamma 90.000000
_cell_volume 5036.126758
_symmetry_space_group_name_H-M "C M C A"
_symmetry_group_IT_number 64
_symmetry_cell_setting 'orthorhombic'
loop_
_space_group_symop_operation_xyz
x,y,z
-x,1/2-y,1/2+z
x,-y,-z
-x,1/2+y,1/2-z
-x,-y,-z
x,1/2+y,1/2-z
-x,y,z
x,1/2-y,1/2+z
1/2+x,1/2+y,z
1/2-x,-y,1/2+z
1/2+x,1/2-y,-z
1/2-x,y,1/2-z
1/2-x,1/2-y,-z
1/2+x,y,1/2-z
1/2-x,1/2+y,z
1/2+x,-y,1/2+z
loop_
_atom_site_type_symbol
_atom_site_label
_atom_site_fract_x
_atom_site_fract_y
_atom_site_fract_z
Si Si1 0.066886 0.780608 0.469567
Si Si2 0.120169 0.036243 0.587391
Si Si3 0.748902 0.700606 0.408378
Si Si4 0.618524 0.341492 0.639263
Si Si5 0.241599 0.103729 0.657998
Si Si6 0.571830 0.357000 0.819984
Si Si7 0.161307 0.970259 0.910011
O O1 0.070550 0.884832 0.430231
O O2 0.097846 0.773209 0.562381
O O3 0.091630 0.708595 0.399367
O O4 0.000000 0.753458 0.488610
O O5 0.174730 0.080310 0.635207
O O6 0.148287 0.000000 0.500000
O O7 0.090392 0.946806 0.634197
O O8 0.750000 0.750000 0.500000
O O9 0.689158 0.647596 0.377018
O O10 0.755852 0.783938 0.341324
O O11 0.801089 0.625362 0.406812
O O12 0.597099 0.308453 0.732931
O O13 0.250000 0.061668 0.750000
O O14 0.294798 0.058208 0.604227
O O15 0.500000 0.370891 0.813682
O O16 0.606899 0.454939 0.841781
O O17 0.132191 0.000000 0.000000
#
# Coordination Sequence:
#
# PCOD8263544 Si02
#       7
#    16  16  16  16  16  16  16
#     4  10  23  42  68  97 131 180 232 291 350 411
#     4  10  20  40  64  93 130 168 220 282 340 406
#     4  12  24  41  65 101 138 179 224 281 353 423
#     4  11  23  41  70  97 138 180 229 293 351 415
#     4  12  25  38  63 101 135 171 218 279 343 416
#     4  11  26  47  68  98 139 184 241 292 343 417
#     4  12  25  44  69  98 137 184 226 278 356 426
#
# _framework density 22.239312999999999
#
# number of rings (size 3 to 8) (size 9 to 14) (size 15 to 20)
#    0.000    0.857    2.857    5.143    4.000    3.429 
#    0.000    0.000    0.000    0.000    0.000    0.000 
#    0.000    0.000    0.000    0.000    0.000    0.000 
#
# Total GULP energy -693788.578668 kJ/mol
# GULP energy per Si atom -12389.081762 kJ/mol
# Density = 2.218870 g / cm^3
# Si number density = 22.239313 Si / 1000 Ang^3
#
#
#
# Elastic Constant Matrix: (Units=GPa)
#
#
# Indices 1 2 3 4 5 6 
#
# 1 94.8521 15.7109 42.4016 0.0000 0.0000 0.0000
# 2 15.7109 78.4048 15.8164 0.0000 0.0000 0.0000
# 3 42.4016 15.8164 130.1789 0.0000 0.0000 0.0000
# 4 0.0000 0.0000 0.0000 38.0486 0.0000 0.0000
# 5 0.0000 0.0000 0.0000 0.0000 97.2174 0.0000
# 6 0.0000 0.0000 0.0000 0.0000 0.0000 27.5568
#
#
#
# Elastic Compliance Matrix: (Units=1/GPa)
#
#
# Indices 1 2 3 4 5 6 
#
# 1 0.012565 -0.001735 -0.003882 0.000000 0.000000 0.000000
# 2 -0.001735 0.013314 -0.001053 0.000000 0.000000 0.000000
# 3 -0.003882 -0.001053 0.009074 0.000000 0.000000 0.000000
# 4 0.000000 0.000000 0.000000 0.026282 0.000000 0.000000
# 5 0.000000 0.000000 0.000000 0.000000 0.010286 0.000000
# 6 0.000000 0.000000 0.000000 0.000000 0.000000 0.036289
#
#
# Mechanical properties :
#
#
# Convention : Reuss Voigt Hill
#
# Bulk Modulus (GPa) = 46.26420 50.14374 48.20397
# Shear Modulus (GPa) = 38.95456 47.86503 43.40980
#
# Velocity S-wave (km/s) = 4.18976 4.64429 4.42287
# Velocity P-wave (km/s) = 6.65233 7.16628 6.91408
#
# Compressibility (1/GPa) = 0.02161499
#
# Stress axis : x y z
#
# Youngs Moduli (GPa) = 79.58333 75.10738 110.20411
#
# Poissons Ratio (x) = 0.13029 0.42782
# Poissons Ratio (y) = 0.13806 0.11600
# Poissons Ratio (z) = 0.30894 0.07906
#
# Static dielectric constant tensor:
#      x y z
#    x 3.807580 0.000000 0.000000 
#    y 0.000000 4.204810 0.000000 
#    z 0.000000 0.000000 4.278170 
# 
# 
# High freq. dielectric constant tensor:
#      x y z
#    x 1.867890 0.000000 0.000000 
#    y 0.000000 1.869380 0.000000 
#    z 0.000000 0.000000 1.884590 
# 
# From -- ./inp_files/27451.got.cif
#   From: 2010.03.12/outbox.cif.g09.slc.cpg/sg64_14_cif.got.tgz:27451.got - 2010.04.10 20:19:32.
