data_PCOD8263666
_publ_section_title
;
Structure prediction by ZEFSAII (Michael W. Deem and Ramdas Pophale) SiO2 
 PCOD8263666
Probable space group: C M C A
;
_chemical_formula_sum "Si O2"
_cell_formula_units_Z 56
_cell_length_a 18.815621
_cell_length_b 25.647728
_cell_length_c 5.039953
_cell_angle_alpha 90.000000
_cell_angle_beta 90.000000
_cell_angle_gamma 90.000000
_cell_volume 2432.170084
_symmetry_space_group_name_H-M "C M C A"
_symmetry_group_IT_number 64
_symmetry_cell_setting 'orthorhombic'
loop_
_space_group_symop_operation_xyz
x,y,z
-x,1/2-y,1/2+z
x,-y,-z
-x,1/2+y,1/2-z
-x,-y,-z
x,1/2+y,1/2-z
-x,y,z
x,1/2-y,1/2+z
1/2+x,1/2+y,z
1/2-x,-y,1/2+z
1/2+x,1/2-y,-z
1/2-x,y,1/2-z
1/2-x,1/2-y,-z
1/2+x,y,1/2-z
1/2-x,1/2+y,z
1/2+x,-y,1/2+z
loop_
_atom_site_type_symbol
_atom_site_label
_atom_site_fract_x
_atom_site_fract_y
_atom_site_fract_z
Si Si1 0.500000 0.213737 0.713659
Si Si2 0.921499 0.861603 0.537484
Si Si3 0.827380 0.715528 0.310967
Si Si4 0.296575 0.439113 0.498177
O O1 0.500000 0.264514 0.914189
O O2 0.568873 0.177679 0.784050
O O3 0.886014 0.828944 0.774536
O O4 0.872208 0.910607 0.471313
O O5 0.000000 0.881255 0.633115
O O6 0.837073 0.736363 0.607462
O O7 0.750000 0.690635 0.250000
O O8 0.314698 0.500000 0.500000
O O9 0.250000 0.422651 0.750000
O O10 0.250000 0.422079 0.250000
#
# Coordination Sequence:
#
# PCOD8263666 Si02
#       4
#     8  16  16  16
#     4  10  22  38  57  88 129 168 202 246 306 362
#     4  10  23  39  64  95 123 173 203 269 308 389
#     4  10  21  36  55  83 120 162 207 251 297 361
#     4  10  23  45  69  93 125 163 210 268 325 381
#
# _framework density 23.024705000000001
#
# number of rings (size 3 to 8) (size 9 to 14) (size 15 to 20)
#    0.857    1.143    0.000    2.571    0.000    8.571 
#    0.000    0.000    0.000    5.143    0.000    0.000 
#    0.000    0.000    0.000    0.000    0.000    0.000 
#
# Total GULP energy -346990.858982 kJ/mol
# GULP energy per Si atom -12392.530678 kJ/mol
# Density = 2.297230 g / cm^3
# Si number density = 23.024705 Si / 1000 Ang^3
#
#
#
# Elastic Constant Matrix: (Units=GPa)
#
#
# Indices 1 2 3 4 5 6 
#
# 1 207.5036 84.7369 40.2689 0.0000 0.0000 0.0000
# 2 84.7369 89.1171 20.7865 0.0000 0.0000 0.0000
# 3 40.2689 20.7865 104.6720 0.0000 0.0000 0.0000
# 4 0.0000 0.0000 0.0000 20.8136 0.0000 0.0000
# 5 0.0000 0.0000 0.0000 0.0000-1693.0425 0.0000
# 6 0.0000 0.0000 0.0000 0.0000 0.0000 61.7857
#
#
#
# Elastic Compliance Matrix: (Units=1/GPa)
#
#
# Indices 1 2 3 4 5 6 
#
# 1 0.008149 -0.007358 -0.001674 0.000000 0.000000 0.000000
# 2 -0.007358 0.018410 -0.000825 0.000000 0.000000 0.000000
# 3 -0.001674 -0.000825 0.010361 0.000000 0.000000 0.000000
# 4 0.000000 0.000000 0.000000 0.048046 0.000000 0.000000
# 5 0.000000 0.000000 0.000000 0.000000 -0.000591 0.000000
# 6 0.000000 0.000000 0.000000 0.000000 0.000000 0.016185
#
#
# Mechanical properties :
#
#
# Convention : Reuss Voigt Hill
#
# Bulk Modulus (GPa) = 58.11824 76.98636 67.55230
# Shear Modulus (GPa) = 39.67981 -305.05527 -132.68773
#
# Velocity S-wave (km/s) = 4.15584 -11.52294 -7.59957
# Velocity P-wave (km/s) = 6.95158 11.98033 6.89942
#
# Compressibility (1/GPa) = 0.01720630
#
# Stress axis : x y z
#
# Youngs Moduli (GPa) = 122.72008 54.31904 96.51137
#
# Poissons Ratio (x) = 0.39966 0.16154
# Poissons Ratio (y) = 0.90294 0.07965
# Poissons Ratio (z) = 0.20540 0.04483
#
# Static dielectric constant tensor:
#      x y z
#    x 4.594840 0.000000 0.000000 
#    y 0.000000 3.886140 0.000000 
#    z 0.000000 0.000000 3.956290 
# 
# 
# High freq. dielectric constant tensor:
#      x y z
#    x 1.934810 0.000000 0.000000 
#    y 0.000000 1.883000 0.000000 
#    z 0.000000 0.000000 1.906870 
# 
# From -- ./inp_files/1624.got.cif
#   From: 2010.03.12/outbox.cif.g09.slc.cpg/sg64_1_cif.got.tgz:1624.got - 2010.04.10 20:19:32.
