data_PCOD8263629
_publ_section_title
;
Structure prediction by ZEFSAII (Michael W. Deem and Ramdas Pophale) SiO2 
 PCOD8263629
Probable space group: C M C A
;
_chemical_formula_sum "Si O2"
_cell_formula_units_Z 88
_cell_length_a 14.143181
_cell_length_b 23.069202
_cell_length_c 13.157832
_cell_angle_alpha 90.000000
_cell_angle_beta 90.000000
_cell_angle_gamma 90.000000
_cell_volume 4293.030839
_symmetry_space_group_name_H-M "C M C A"
_symmetry_group_IT_number 64
_symmetry_cell_setting 'orthorhombic'
loop_
_space_group_symop_operation_xyz
x,y,z
-x,1/2-y,1/2+z
x,-y,-z
-x,1/2+y,1/2-z
-x,-y,-z
x,1/2+y,1/2-z
-x,y,z
x,1/2-y,1/2+z
1/2+x,1/2+y,z
1/2-x,-y,1/2+z
1/2+x,1/2-y,-z
1/2-x,y,1/2-z
1/2-x,1/2-y,-z
1/2+x,y,1/2-z
1/2-x,1/2+y,z
1/2+x,-y,1/2+z
loop_
_atom_site_type_symbol
_atom_site_label
_atom_site_fract_x
_atom_site_fract_y
_atom_site_fract_z
Si Si1 0.351077 0.224202 0.716508
Si Si2 0.889612 0.048383 0.084402
Si Si3 0.605796 0.156387 0.128322
Si Si4 0.111709 0.668571 0.514859
Si Si5 0.750000 0.576871 0.250000
Si Si6 0.605690 0.787313 0.066355
O O1 0.250000 0.246878 0.750000
O O2 0.407818 0.280797 0.681748
O O3 0.343330 0.176271 0.627385
O O4 0.394961 0.193063 0.816408
O O5 0.856353 0.109533 0.037679
O O6 0.817136 0.036962 0.177955
O O7 0.000000 0.049420 0.120135
O O8 0.873759 0.000000 0.000000
O O9 0.500000 0.128190 0.127249
O O10 0.677441 0.115464 0.186259
O O11 0.650702 0.166801 0.014058
O O12 0.148604 0.722181 0.444979
O O13 0.000000 0.667399 0.529404
O O14 0.500000 0.783180 0.024073
#
# Coordination Sequence:
#
# PCOD8263629 Si02
#       6
#    16  16  16  16   8  16
#     4  11  20  29  50  84 119 158 193 230 280 344
#     4  10  23  44  66  87 114 151 197 250 303 352
#     4  10  21  35  53  83 120 156 192 231 281 346
#     4   9  19  35  56  78 110 155 196 234 286 346
#     4  12  22  38  66  90 112 146 196 242 286 348
#     4   9  18  32  50  76 118 157 187 226 278 341
#
# _framework density 20.498339000000001
#
# number of rings (size 3 to 8) (size 9 to 14) (size 15 to 20)
#    0.000    2.000    0.909    4.364    2.545    2.909 
#    1.636    0.000    0.000    2.182    0.000    0.000 
#    0.000    0.000    0.000    0.000    0.000    0.000 
#
# Total GULP energy -545181.770577 kJ/mol
# GULP energy per Si atom -12390.494786 kJ/mol
# Density = 2.045168 g / cm^3
# Si number density = 20.498339 Si / 1000 Ang^3
#
#
#
# Elastic Constant Matrix: (Units=GPa)
#
#
# Indices 1 2 3 4 5 6 
#
# 1 78.9553 23.0640 38.7184 0.0000 0.0000 0.0000
# 2 23.0640 44.3031 19.0238 0.0000 0.0000 0.0000
# 3 38.7184 19.0238 148.3709 0.0000 0.0000 0.0000
# 4 0.0000 0.0000 0.0000 25.1634 0.0000 0.0000
# 5 0.0000 0.0000 0.0000 0.0000 38.0909 0.0000
# 6 0.0000 0.0000 0.0000 0.0000 0.0000 89.6381
#
#
#
# Elastic Compliance Matrix: (Units=1/GPa)
#
#
# Indices 1 2 3 4 5 6 
#
# 1 0.016386 -0.007085 -0.003368 0.000000 0.000000 0.000000
# 2 -0.007085 0.026950 -0.001607 0.000000 0.000000 0.000000
# 3 -0.003368 -0.001607 0.007825 0.000000 0.000000 0.000000
# 4 0.000000 0.000000 0.000000 0.039740 0.000000 0.000000
# 5 0.000000 0.000000 0.000000 0.000000 0.026253 0.000000
# 6 0.000000 0.000000 0.000000 0.000000 0.000000 0.011156
#
#
# Mechanical properties :
#
#
# Convention : Reuss Voigt Hill
#
# Bulk Modulus (GPa) = 36.97820 48.13795 42.55807
# Shear Modulus (GPa) = 30.97077 43.30003 37.13540
#
# Velocity S-wave (km/s) = 3.89124 4.60104 4.26094
# Velocity P-wave (km/s) = 6.18609 7.19450 6.70927
#
# Compressibility (1/GPa) = 0.02704296
#
# Stress axis : x y z
#
# Youngs Moduli (GPa) = 61.02625 37.10591 127.80020
#
# Poissons Ratio (x) = 0.26288 0.43040
# Poissons Ratio (y) = 0.43234 0.20534
# Poissons Ratio (z) = 0.20552 0.05962
#
# Static dielectric constant tensor:
#      x y z
#    x 10.973280 0.000000 0.000000 
#    y 0.000000 3.243480 0.000000 
#    z 0.000000 0.000000 4.158910 
# 
# 
# High freq. dielectric constant tensor:
#      x y z
#    x 1.818570 0.000000 0.000000 
#    y 0.000000 1.732840 0.000000 
#    z 0.000000 0.000000 1.818120 
# 
# From -- ./inp_files/14582.got.cif
#   From: 2010.03.12/outbox.cif.g09.slc.cpg/sg64_8_cif.got.tgz:14582.got - 2010.04.10 20:19:32.
