data_PCOD8263635
_publ_section_title
;
Structure prediction by ZEFSAII (Michael W. Deem and Ramdas Pophale) SiO2 
 PCOD8263635
Probable space group: C M C A
;
_chemical_formula_sum "Si O2"
_cell_formula_units_Z 80
_cell_length_a 13.875292
_cell_length_b 25.907788
_cell_length_c 11.324864
_cell_angle_alpha 90.000000
_cell_angle_beta 90.000000
_cell_angle_gamma 90.000000
_cell_volume 4071.040860
_symmetry_space_group_name_H-M "C M C A"
_symmetry_group_IT_number 64
_symmetry_cell_setting 'orthorhombic'
loop_
_space_group_symop_operation_xyz
x,y,z
-x,1/2-y,1/2+z
x,-y,-z
-x,1/2+y,1/2-z
-x,-y,-z
x,1/2+y,1/2-z
-x,y,z
x,1/2-y,1/2+z
1/2+x,1/2+y,z
1/2-x,-y,1/2+z
1/2+x,1/2-y,-z
1/2-x,y,1/2-z
1/2-x,1/2-y,-z
1/2+x,y,1/2-z
1/2-x,1/2+y,z
1/2+x,-y,1/2+z
loop_
_atom_site_type_symbol
_atom_site_label
_atom_site_fract_x
_atom_site_fract_y
_atom_site_fract_z
Si Si1 0.779488 0.410292 0.432337
Si Si2 0.253269 0.305770 0.944902
Si Si3 0.390072 0.444189 0.842021
Si Si4 0.109317 0.333730 0.755061
Si Si5 0.387863 0.449354 0.281037
O O1 0.767826 0.349571 0.456679
O O2 0.819636 0.441431 0.545461
O O3 0.677188 0.435766 0.395029
O O4 0.857421 0.412421 0.326951
O O5 0.153246 0.317161 0.879321
O O6 0.341146 0.304916 0.853545
O O7 0.250000 0.250000 0.000000
O O8 0.500000 0.447580 0.889185
O O9 0.375710 0.394987 0.758179
O O10 0.364198 0.492559 0.760282
O O11 0.000000 0.316171 0.754459
O O12 0.500000 0.441509 0.313569
#
# Coordination Sequence:
#
# PCOD8263635 Si02
#       5
#    16  16  16  16  16
#     4  10  21  35  56  79 108 147 182 219 269 321
#     4  10  22  39  57  80 109 141 183 232 273 312
#     4   9  18  36  59  80 107 145 183 216 258 322
#     4   9  20  38  59  81 106 142 186 223 262 322
#     4  10  21  35  55  86 117 141 173 220 271 325
#
# _framework density 19.650994000000001
#
# number of rings (size 3 to 8) (size 9 to 14) (size 15 to 20)
#    0.000    2.400    0.000    1.200    0.000   15.200 
#    0.000    2.000    0.000   14.400    0.000    0.000 
#    0.000    0.000    0.000    0.000    0.000    0.000 
#
# Total GULP energy -496062.220313 kJ/mol
# GULP energy per Si atom -12401.555508 kJ/mol
# Density = 1.960627 g / cm^3
# Si number density = 19.650994 Si / 1000 Ang^3
#
#
#
# Elastic Constant Matrix: (Units=GPa)
#
#
# Indices 1 2 3 4 5 6 
#
# 1 143.0703 51.4997 52.1154 0.0000 0.0000 0.0000
# 2 51.4997 145.6147 64.8701 0.0000 0.0000 0.0000
# 3 52.1154 64.8701 88.9574 0.0000 0.0000 0.0000
# 4 0.0000 0.0000 0.0000 26.7499 0.0000 0.0000
# 5 0.0000 0.0000 0.0000 0.0000 31.0390 0.0000
# 6 0.0000 0.0000 0.0000 0.0000 0.0000 22.6472
#
#
#
# Elastic Compliance Matrix: (Units=1/GPa)
#
#
# Indices 1 2 3 4 5 6 
#
# 1 0.009035 -0.001240 -0.004388 0.000000 0.000000 0.000000
# 2 -0.001240 0.010342 -0.006815 0.000000 0.000000 0.000000
# 3 -0.004388 -0.006815 0.018782 0.000000 0.000000 0.000000
# 4 0.000000 0.000000 0.000000 0.037383 0.000000 0.000000
# 5 0.000000 0.000000 0.000000 0.000000 0.032218 0.000000
# 6 0.000000 0.000000 0.000000 0.000000 0.000000 0.044156
#
#
# Mechanical properties :
#
#
# Convention : Reuss Voigt Hill
#
# Bulk Modulus (GPa) = 75.35184 79.40143 77.37663
# Shear Modulus (GPa) = 27.58971 30.03102 28.81037
#
# Velocity S-wave (km/s) = 3.75104 3.91348 3.83313
# Velocity P-wave (km/s) = 7.56232 7.80474 7.68449
#
# Compressibility (1/GPa) = 0.01327108
#
# Stress axis : x y z
#
# Youngs Moduli (GPa) = 110.68599 96.69135 53.24209
#
# Poissons Ratio (x) = 0.11992 0.23365
# Poissons Ratio (y) = 0.13728 0.36286
# Poissons Ratio (z) = 0.48574 0.65897
#
# Static dielectric constant tensor:
#      x y z
#    x 3.789320 0.000000 0.000000 
#    y 0.000000 3.473050 0.000000 
#    z 0.000000 0.000000 3.503310 
# 
# 
# High freq. dielectric constant tensor:
#      x y z
#    x 1.777730 0.000000 0.000000 
#    y 0.000000 1.757260 0.000000 
#    z 0.000000 0.000000 1.759430 
# 
# From -- ./inp_files/14419.got.cif
#   From: 2010.03.12/outbox.cif.g09.slc.cpg/sg64_8_cif.got.tgz:14419.got - 2010.04.10 20:19:32.
