data_PCOD8263296
_publ_section_title
;
Structure prediction by ZEFSAII (Michael W. Deem and Ramdas Pophale) SiO2 
 PCOD8263296
Probable space group: C M C A
;
_chemical_formula_sum "Si O2"
_cell_formula_units_Z 80
_cell_length_a 9.152708
_cell_length_b 24.817433
_cell_length_c 18.585912
_cell_angle_alpha 90.000000
_cell_angle_beta 90.000000
_cell_angle_gamma 90.000000
_cell_volume 4221.728904
_symmetry_space_group_name_H-M "C M C A"
_symmetry_group_IT_number 64
_symmetry_cell_setting 'orthorhombic'
loop_
_space_group_symop_operation_xyz
x,y,z
-x,1/2-y,1/2+z
x,-y,-z
-x,1/2+y,1/2-z
-x,-y,-z
x,1/2+y,1/2-z
-x,y,z
x,1/2-y,1/2+z
1/2+x,1/2+y,z
1/2-x,-y,1/2+z
1/2+x,1/2-y,-z
1/2-x,y,1/2-z
1/2-x,1/2-y,-z
1/2+x,y,1/2-z
1/2-x,1/2+y,z
1/2+x,-y,1/2+z
loop_
_atom_site_type_symbol
_atom_site_label
_atom_site_fract_x
_atom_site_fract_y
_atom_site_fract_z
Si Si1 0.327441 0.945338 0.674693
Si Si2 0.828578 0.733737 0.824319
Si Si3 0.670892 0.838059 0.590448
Si Si4 0.329451 0.473856 0.424024
Si Si5 0.829304 0.648957 0.944355
O O1 0.500000 0.950735 0.686408
O O2 0.250000 0.935770 0.750000
O O3 0.285863 0.895137 0.624372
O O4 0.265916 0.999206 0.638360
O O5 0.750000 0.722098 0.750000
O O6 0.776835 0.791060 0.855885
O O7 0.781907 0.686558 0.878603
O O8 0.000000 0.733444 0.809967
O O9 0.500000 0.833368 0.575818
O O10 0.749419 0.830026 0.514972
O O11 0.287922 0.500000 0.500000
O O12 0.500000 0.482023 0.406392
O O13 0.283361 0.411685 0.425162
O O14 0.000000 0.652704 0.960543
#
# Coordination Sequence:
#
# PCOD8263296 Si02
#       5
#    16  16  16  16  16
#     4  11  23  37  57  85 116 150 190 235 285 338
#     4  10  22  39  57  82 115 149 188 233 283 337
#     4  10  21  37  58  85 114 146 188 235 282 337
#     4  10  20  37  59  83 114 151 189 231 281 337
#     4  10  21  37  60  86 113 148 190 233 281 339
#
# _framework density 18.949583000000001
#
# number of rings (size 3 to 8) (size 9 to 14) (size 15 to 20)
#    0.000    1.800    2.000    1.800    0.000    4.400 
#    0.000    2.000    0.000    0.000    0.000    0.000 
#    0.000    0.000    0.000    0.000    0.000    0.000 
#
# Total GULP energy -496236.981580 kJ/mol
# GULP energy per Si atom -12405.924540 kJ/mol
# Density = 1.890645 g / cm^3
# Si number density = 18.949583 Si / 1000 Ang^3
#
#
#
# Elastic Constant Matrix: (Units=GPa)
#
#
# Indices 1 2 3 4 5 6 
#
# 1 55.7175 32.6397 61.1629 0.0000 0.0000 0.0000
# 2 32.6397 85.6107 54.5274 0.0000 0.0000 0.0000
# 3 61.1629 54.5274 150.3740 0.0000 0.0000 0.0000
# 4 0.0000 0.0000 0.0000 27.9414 0.0000 0.0000
# 5 0.0000 0.0000 0.0000 0.0000 40.5512 0.0000
# 6 0.0000 0.0000 0.0000 0.0000 0.0000 20.4490
#
#
#
# Elastic Compliance Matrix: (Units=1/GPa)
#
#
# Indices 1 2 3 4 5 6 
#
# 1 0.034272 -0.005446 -0.011965 0.000000 0.000000 0.000000
# 2 -0.005446 0.016054 -0.003606 0.000000 0.000000 0.000000
# 3 -0.011965 -0.003606 0.012825 0.000000 0.000000 0.000000
# 4 0.000000 0.000000 0.000000 0.035789 0.000000 0.000000
# 5 0.000000 0.000000 0.000000 0.000000 0.024660 0.000000
# 6 0.000000 0.000000 0.000000 0.000000 0.000000 0.048902
#
#
# Mechanical properties :
#
#
# Convention : Reuss Voigt Hill
#
# Bulk Modulus (GPa) = 47.35677 65.37359 56.36518
# Shear Modulus (GPa) = 22.56565 27.34648 24.95606
#
# Velocity S-wave (km/s) = 3.45458 3.80296 3.63295
# Velocity P-wave (km/s) = 6.39979 7.33873 6.88528
#
# Compressibility (1/GPa) = 0.02111630
#
# Stress axis : x y z
#
# Youngs Moduli (GPa) = 29.17800 62.28986 77.97544
#
# Poissons Ratio (x) = 0.33921 0.93300
# Poissons Ratio (y) = 0.15889 0.28121
# Poissons Ratio (z) = 0.34912 0.22464
#
# Static dielectric constant tensor:
#      x y z
#    x 3.356440 0.000000 0.000000 
#    y 0.000000 3.746590 0.000000 
#    z 0.000000 0.000000 3.403400 
# 
# 
# High freq. dielectric constant tensor:
#      x y z
#    x 1.730380 0.000000 0.000000 
#    y 0.000000 1.751290 0.000000 
#    z 0.000000 0.000000 1.742280 
# 
# From -- ./inp_files/29753.got.cif
#   From: 2010.03.12/outbox.cif.g09.slc.cpg/sg64_15_cif.got.tgz:29753.got - 2010.04.10 20:19:32.
