data_PCOD8263303
_publ_section_title
;
Structure prediction by ZEFSAII (Michael W. Deem and Ramdas Pophale) SiO2 
 PCOD8263303
Probable space group: C M C A
;
_chemical_formula_sum "Si O2"
_cell_formula_units_Z 88
_cell_length_a 13.005400
_cell_length_b 19.076534
_cell_length_c 18.204665
_cell_angle_alpha 90.000000
_cell_angle_beta 90.000000
_cell_angle_gamma 90.000000
_cell_volume 4516.540163
_symmetry_space_group_name_H-M "C M C A"
_symmetry_group_IT_number 64
_symmetry_cell_setting 'orthorhombic'
loop_
_space_group_symop_operation_xyz
x,y,z
-x,1/2-y,1/2+z
x,-y,-z
-x,1/2+y,1/2-z
-x,-y,-z
x,1/2+y,1/2-z
-x,y,z
x,1/2-y,1/2+z
1/2+x,1/2+y,z
1/2-x,-y,1/2+z
1/2+x,1/2-y,-z
1/2-x,y,1/2-z
1/2-x,1/2-y,-z
1/2+x,y,1/2-z
1/2-x,1/2+y,z
1/2+x,-y,1/2+z
loop_
_atom_site_type_symbol
_atom_site_label
_atom_site_fract_x
_atom_site_fract_y
_atom_site_fract_z
Si Si1 0.750000 0.847052 0.750000
Si Si2 0.380041 0.555960 0.160381
Si Si3 0.782139 0.261644 0.376428
Si Si4 0.381969 0.400367 0.131421
Si Si5 0.732040 0.923317 0.512601
Si Si6 0.118916 0.298303 0.013283
O O1 0.654637 0.897940 0.730086
O O2 0.787977 0.798817 0.683506
O O3 0.500000 0.566675 0.145261
O O4 0.355768 0.473304 0.173410
O O5 0.315852 0.586817 0.092559
O O6 0.811298 0.336338 0.338563
O O7 0.865413 0.250097 0.441608
O O8 0.669345 0.262797 0.414273
O O9 0.500000 0.380233 0.143426
O O10 0.359840 0.410640 0.045042
O O11 0.827348 0.872151 0.501925
O O12 0.779080 0.000000 0.500000
O O13 0.000000 0.309804 0.030051
#
# Coordination Sequence:
#
# PCOD8263303 Si02
#       6
#     8  16  16  16  16  16
#     4  12  24  40  56  86 124 158 194 240 312 368
#     4  10  21  37  58  85 118 155 197 243 296 357
#     4  10  22  38  58  86 118 159 196 252 299 356
#     4   9  18  35  61  86 110 149 199 245 291 345
#     4   9  17  34  59  88 117 148 194 249 298 347
#     4  10  20  37  59  86 118 157 203 250 301 354
#
# _framework density 19.48394
#
# number of rings (size 3 to 8) (size 9 to 14) (size 15 to 20)
#    0.000    2.182    1.818    1.091    0.000    5.455 
#    0.000    0.000    0.000    5.455    0.000    0.000 
#    0.000    0.000    0.000    0.000    0.000    0.000 
#
# Total GULP energy -545519.795627 kJ/mol
# GULP energy per Si atom -12398.177173 kJ/mol
# Density = 1.943959 g / cm^3
# Si number density = 19.483940 Si / 1000 Ang^3
#
#
#
# Elastic Constant Matrix: (Units=GPa)
#
#
# Indices 1 2 3 4 5 6 
#
# 1 114.3299 50.2755 44.3354 0.0000 0.0000 0.0000
# 2 50.2755 136.8957 58.8181 0.0000 0.0000 0.0000
# 3 44.3354 58.8181 76.9385 0.0000 0.0000 0.0000
# 4 0.0000 0.0000 0.0000 38.1016 0.0000 0.0000
# 5 0.0000 0.0000 0.0000 0.0000 17.1479 0.0000
# 6 0.0000 0.0000 0.0000 0.0000 0.0000 26.9692
#
#
#
# Elastic Compliance Matrix: (Units=1/GPa)
#
#
# Indices 1 2 3 4 5 6 
#
# 1 0.011647 -0.002075 -0.005125 0.000000 0.000000 0.000000
# 2 -0.002075 0.011248 -0.007403 0.000000 0.000000 0.000000
# 3 -0.005125 -0.007403 0.021610 0.000000 0.000000 0.000000
# 4 0.000000 0.000000 0.000000 0.026246 0.000000 0.000000
# 5 0.000000 0.000000 0.000000 0.000000 0.058316 0.000000
# 6 0.000000 0.000000 0.000000 0.000000 0.000000 0.037079
#
#
# Mechanical properties :
#
#
# Convention : Reuss Voigt Hill
#
# Bulk Modulus (GPa) = 65.36643 70.55802 67.96222
# Shear Modulus (GPa) = 24.94392 28.09276 26.51834
#
# Velocity S-wave (km/s) = 3.58191 3.80128 3.69322
# Velocity P-wave (km/s) = 7.12239 7.45375 7.28995
#
# Compressibility (1/GPa) = 0.01529837
#
# Stress axis : x y z
#
# Youngs Moduli (GPa) = 85.86264 88.90755 46.27562
#
# Poissons Ratio (x) = 0.18452 0.23715
# Poissons Ratio (y) = 0.17820 0.34256
# Poissons Ratio (z) = 0.44001 0.65815
#
# Static dielectric constant tensor:
#      x y z
#    x 3.243090 0.000000 0.000000 
#    y 0.000000 4.052300 0.000000 
#    z 0.000000 0.000000 3.355440 
# 
# 
# High freq. dielectric constant tensor:
#      x y z
#    x 1.737460 0.000000 0.000000 
#    y 0.000000 1.787230 0.000000 
#    z 0.000000 0.000000 1.733690 
# 
# From -- ./inp_files/30912.got.cif
#   From: 2010.03.12/outbox.cif.g09.slc.cpg/sg64_16_cif.got.tgz:30912.got - 2010.04.10 20:19:32.
