data_PCOD8263287
_publ_section_title
;
Structure prediction by ZEFSAII (Michael W. Deem and Ramdas Pophale) SiO2 
 PCOD8263287
Probable space group: C M C A
;
_chemical_formula_sum "Si O2"
_cell_formula_units_Z 96
_cell_length_a 10.105679
_cell_length_b 24.497713
_cell_length_c 21.642307
_cell_angle_alpha 90.000000
_cell_angle_beta 90.000000
_cell_angle_gamma 90.000000
_cell_volume 5357.899890
_symmetry_space_group_name_H-M "C M C A"
_symmetry_group_IT_number 64
_symmetry_cell_setting 'orthorhombic'
loop_
_space_group_symop_operation_xyz
x,y,z
-x,1/2-y,1/2+z
x,-y,-z
-x,1/2+y,1/2-z
-x,-y,-z
x,1/2+y,1/2-z
-x,y,z
x,1/2-y,1/2+z
1/2+x,1/2+y,z
1/2-x,-y,1/2+z
1/2+x,1/2-y,-z
1/2-x,y,1/2-z
1/2-x,1/2-y,-z
1/2+x,y,1/2-z
1/2-x,1/2+y,z
1/2+x,-y,1/2+z
loop_
_atom_site_type_symbol
_atom_site_label
_atom_site_fract_x
_atom_site_fract_y
_atom_site_fract_z
Si Si1 0.150860 0.832274 0.302375
Si Si2 0.000000 0.016364 0.896193
Si Si3 0.150455 0.235958 0.579264
Si Si4 0.751482 0.339823 0.523616
Si Si5 0.500000 0.981096 0.099077
Si Si6 0.500000 0.411457 0.518571
Si Si7 0.240989 0.951655 0.322238
Si Si8 0.500000 0.083136 0.478819
O O1 0.250000 0.811495 0.250000
O O2 0.149822 0.783487 0.350776
O O3 0.209801 0.887752 0.330785
O O4 0.000000 0.842999 0.278296
O O5 0.875561 0.032222 0.855112
O O6 0.000000 0.952481 0.915518
O O7 0.000000 0.047301 0.960340
O O8 0.219780 0.295282 0.577113
O O9 0.234326 0.192670 0.540163
O O10 0.000000 0.239304 0.553228
O O11 0.624443 0.375738 0.538630
O O12 0.871858 0.380317 0.518370
O O13 0.373792 0.984510 0.143369
O O14 0.500000 0.033423 0.056420
O O15 0.500000 0.926843 0.054894
O O16 0.250000 0.967481 0.250000
#
# Coordination Sequence:
#
# PCOD8263287 Si02
#       8
#    16   8  16  16   8   8  16   8
#     4  10  21  37  58  84 111 145 185 231 284 330
#     4  11  23  36  56  85 117 147 190 228 283 338
#     4  10  20  37  58  82 116 148 181 229 283 338
#     4  11  21  36  56  86 112 147 185 223 285 337
#     4  11  21  38  58  85 115 151 184 230 287 336
#     4  11  22  35  60  85 116 149 186 230 281 343
#     4  11  22  37  58  83 113 151 185 232 281 336
#     4  11  22  37  56  85 116 149 182 238 283 333
#
# _framework density 17.917468
#
# number of rings (size 3 to 8) (size 9 to 14) (size 15 to 20)
#    0.000    1.333    2.500    4.500    3.500    2.667 
#    3.000    0.000    0.000    6.000    0.000    0.000 
#    0.000    0.000    0.000    0.000    0.000    0.000 
#
# Total GULP energy -595185.763018 kJ/mol
# GULP energy per Si atom -12399.703396 kJ/mol
# Density = 1.787669 g / cm^3
# Si number density = 17.917468 Si / 1000 Ang^3
#
#
#
# Elastic Constant Matrix: (Units=GPa)
#
#
# Indices 1 2 3 4 5 6 
#
# 1 175.5903 63.7924 60.6787 0.0000 0.0000 0.0000
# 2 63.7924 98.7892 43.2274 0.0000 0.0000 0.0000
# 3 60.6787 43.2274 98.0718 0.0000 0.0000 0.0000
# 4 0.0000 0.0000 0.0000 25.6111 0.0000 0.0000
# 5 0.0000 0.0000 0.0000 0.0000 9.3671 0.0000
# 6 0.0000 0.0000 0.0000 0.0000 0.0000 48.3558
#
#
#
# Elastic Compliance Matrix: (Units=1/GPa)
#
#
# Indices 1 2 3 4 5 6 
#
# 1 0.008276 -0.003845 -0.003426 0.000000 0.000000 0.000000
# 2 -0.003845 0.014328 -0.003936 0.000000 0.000000 0.000000
# 3 -0.003426 -0.003936 0.014051 0.000000 0.000000 0.000000
# 4 0.000000 0.000000 0.000000 0.039046 0.000000 0.000000
# 5 0.000000 0.000000 0.000000 0.000000 0.106757 0.000000
# 6 0.000000 0.000000 0.000000 0.000000 0.000000 0.020680
#
#
# Mechanical properties :
#
#
# Convention : Reuss Voigt Hill
#
# Bulk Modulus (GPa) = 70.22062 78.64982 74.43522
# Shear Modulus (GPa) = 21.71097 30.31700 26.01398
#
# Velocity S-wave (km/s) = 3.48475 4.11790 3.81449
# Velocity P-wave (km/s) = 7.44766 8.16090 7.81242
#
# Compressibility (1/GPa) = 0.01424083
#
# Stress axis : x y z
#
# Youngs Moduli (GPa) = 120.83459 69.79370 71.16889
#
# Poissons Ratio (x) = 0.26836 0.24379
# Poissons Ratio (y) = 0.46462 0.28014
# Poissons Ratio (z) = 0.41392 0.27473
#
# Static dielectric constant tensor:
#      x y z
#    x 3.667090 0.000000 0.000000 
#    y 0.000000 3.434610 0.000000 
#    z 0.000000 0.000000 3.368750 
# 
# 
# High freq. dielectric constant tensor:
#      x y z
#    x 1.715740 0.000000 0.000000 
#    y 0.000000 1.692270 0.000000 
#    z 0.000000 0.000000 1.680370 
# 
# From -- ./inp_files/43281.got.cif
#   From: 2010.03.12/outbox.cif.g09.slc.cpg/sg64_22_cif.got.tgz:43281.got - 2010.04.10 20:19:32.
