data_PCOD8263981
_publ_section_title
;
Structure prediction by ZEFSAII (Michael W. Deem and Ramdas Pophale) SiO2 
 PCOD8263981
Probable space group: C M C A
;
_chemical_formula_sum "Si O2"
_cell_formula_units_Z 64
_cell_length_a 15.395724
_cell_length_b 18.509233
_cell_length_c 9.698821
_cell_angle_alpha 90.000000
_cell_angle_beta 90.000000
_cell_angle_gamma 90.000000
_cell_volume 2763.805543
_symmetry_space_group_name_H-M "C M C A"
_symmetry_group_IT_number 64
_symmetry_cell_setting 'orthorhombic'
loop_
_space_group_symop_operation_xyz
x,y,z
-x,1/2-y,1/2+z
x,-y,-z
-x,1/2+y,1/2-z
-x,-y,-z
x,1/2+y,1/2-z
-x,y,z
x,1/2-y,1/2+z
1/2+x,1/2+y,z
1/2-x,-y,1/2+z
1/2+x,1/2-y,-z
1/2-x,y,1/2-z
1/2-x,1/2-y,-z
1/2+x,y,1/2-z
1/2-x,1/2+y,z
1/2+x,-y,1/2+z
loop_
_atom_site_type_symbol
_atom_site_label
_atom_site_fract_x
_atom_site_fract_y
_atom_site_fract_z
Si Si1 0.353469 0.822170 0.772609
Si Si2 0.901907 0.936527 0.104817
Si Si3 0.842060 0.710499 0.519241
Si Si4 0.336921 0.020026 0.159722
O O1 0.250000 0.817519 0.750000
O O2 0.393868 0.802000 0.623717
O O3 0.393467 0.763796 0.878511
O O4 0.380197 0.900831 0.828043
O O5 0.834879 0.869531 0.086835
O O6 0.899703 0.963139 0.263869
O O7 0.000000 0.911320 0.071106
O O8 0.872568 0.000000 0.000000
O O9 0.750000 0.750000 0.500000
O O10 0.250000 0.017849 0.250000
O O11 0.322335 0.000000 0.000000
#
# Coordination Sequence:
#
# PCOD8263981 Si02
#       4
#    16  16  16  16
#     4   9  20  36  59  97 129 168 218 285 342 403
#     4  11  24  45  70  98 140 188 230 286 363 432
#     4  10  21  39  64  95 135 174 232 284 344 415
#     4  11  24  39  68 102 138 180 237 297 351 422
#
# _framework density 23.156476999999999
#
# number of rings (size 3 to 8) (size 9 to 14) (size 15 to 20)
#    0.000    1.750    2.500    0.750   10.500    1.500 
#    0.000    2.500    0.000    0.000    0.000    0.000 
#    0.000    0.000    0.000    0.000    0.000    0.000 
#
# Total GULP energy -396484.810545 kJ/mol
# GULP energy per Si atom -12390.150330 kJ/mol
# Density = 2.310377 g / cm^3
# Si number density = 23.156477 Si / 1000 Ang^3
#
#
#
# Elastic Constant Matrix: (Units=GPa)
#
#
# Indices 1 2 3 4 5 6 
#
# 1 44.4234 31.9705 9.8751 0.0000 0.0000 0.0000
# 2 31.9705 223.6214 107.8719 0.0000 0.0000 0.0000
# 3 9.8751 107.8719 235.4905 0.0000 0.0000 0.0000
# 4 0.0000 0.0000 0.0000 53.7136 0.0000 0.0000
# 5 0.0000 0.0000 0.0000 0.0000 9.5125 0.0000
# 6 0.0000 0.0000 0.0000 0.0000 0.0000 12.8830
#
#
#
# Elastic Compliance Matrix: (Units=1/GPa)
#
#
# Indices 1 2 3 4 5 6 
#
# 1 0.025198 -0.003970 0.000762 0.000000 0.000000 0.000000
# 2 -0.003970 0.006366 -0.002750 0.000000 0.000000 0.000000
# 3 0.000762 -0.002750 0.005474 0.000000 0.000000 0.000000
# 4 0.000000 0.000000 0.000000 0.018617 0.000000 0.000000
# 5 0.000000 0.000000 0.000000 0.000000 0.105125 0.000000
# 6 0.000000 0.000000 0.000000 0.000000 0.000000 0.077621
#
#
# Mechanical properties :
#
#
# Convention : Reuss Voigt Hill
#
# Bulk Modulus (GPa) = 39.80442 89.21893 64.51167
# Shear Modulus (GPa) = 19.32807 38.80968 29.06887
#
# Velocity S-wave (km/s) = 2.89220 4.09831 3.54690
# Velocity P-wave (km/s) = 5.32727 7.81071 6.68532
#
# Compressibility (1/GPa) = 0.02512284
#
# Stress axis : x y z
#
# Youngs Moduli (GPa) = 39.68497 157.09049 182.68243
#
# Poissons Ratio (x) = 0.62366 -0.13919
# Poissons Ratio (y) = 0.15755 0.50229
# Poissons Ratio (z) = -0.03024 0.43192
#
# Static dielectric constant tensor:
#      x y z
#    x 3.498350 0.000000 0.000000 
#    y 0.000000 4.503120 0.000000 
#    z 0.000000 0.000000 5.392950 
# 
# 
# High freq. dielectric constant tensor:
#      x y z
#    x 1.859050 0.000000 0.000000 
#    y 0.000000 1.927710 0.000000 
#    z 0.000000 0.000000 1.932960 
# 
# From -- ./inp_files/7774.got.cif
#   From: 2010.03.12/outbox.cif.g09.slc.cpg/sg64_4_cif.got.tgz:7774.got - 2010.04.10 20:19:32.
