data_PCOD8263889
_publ_section_title
;
Structure prediction by ZEFSAII (Michael W. Deem and Ramdas Pophale) SiO2 
 PCOD8263889
Probable space group: C M C A
;
_chemical_formula_sum "Si O2"
_cell_formula_units_Z 112
_cell_length_a 16.846652
_cell_length_b 23.475667
_cell_length_c 14.237590
_cell_angle_alpha 90.000000
_cell_angle_beta 90.000000
_cell_angle_gamma 90.000000
_cell_volume 5630.773106
_symmetry_space_group_name_H-M "C M C A"
_symmetry_group_IT_number 64
_symmetry_cell_setting 'orthorhombic'
loop_
_space_group_symop_operation_xyz
x,y,z
-x,1/2-y,1/2+z
x,-y,-z
-x,1/2+y,1/2-z
-x,-y,-z
x,1/2+y,1/2-z
-x,y,z
x,1/2-y,1/2+z
1/2+x,1/2+y,z
1/2-x,-y,1/2+z
1/2+x,1/2-y,-z
1/2-x,y,1/2-z
1/2-x,1/2-y,-z
1/2+x,y,1/2-z
1/2-x,1/2+y,z
1/2+x,-y,1/2+z
loop_
_atom_site_type_symbol
_atom_site_label
_atom_site_fract_x
_atom_site_fract_y
_atom_site_fract_z
Si Si1 0.908117 0.335060 0.477396
Si Si2 0.675932 0.046249 0.929553
Si Si3 0.665737 0.225047 0.974914
Si Si4 0.092905 0.547721 0.430744
Si Si5 0.760558 0.851446 0.142572
Si Si6 0.340887 0.541328 0.273713
Si Si7 0.907806 0.878920 0.571997
O O1 0.896570 0.276977 0.538516
O O2 0.880254 0.388473 0.540302
O O3 0.848733 0.329882 0.387182
O O4 0.000000 0.340019 0.444374
O O5 0.747997 0.088872 0.910338
O O6 0.644879 0.016368 0.834137
O O7 0.604199 0.078461 0.983440
O O8 0.713478 0.000000 0.000000
O O9 0.686049 0.190534 0.879998
O O10 0.750000 0.250000 0.000000
O O11 0.634393 0.181665 0.054450
O O12 0.130591 0.500000 0.500000
O O13 0.114103 0.533950 0.323807
O O14 0.000000 0.544622 0.440505
O O15 0.750000 0.864071 0.250000
O O16 0.250000 0.552241 0.250000
O O17 0.372648 0.595293 0.332061
O O18 0.000000 0.867766 0.585878
#
# Coordination Sequence:
#
# PCOD8263889 Si02
#       7
#    16  16  16  16  16  16  16
#     4  10  22  41  63  85 121 164 203 250 312 371
#     4   9  21  36  59  92 120 164 203 253 310 368
#     4   9  20  40  65  87 119 160 200 253 306 374
#     4  10  24  41  59  85 123 163 200 252 306 365
#     4  10  21  38  62  93 123 158 208 259 306 362
#     4  11  24  35  61  93 121 162 208 255 305 375
#     4  10  21  40  63  91 126 161 205 261 320 373
#
# _framework density 19.890696999999999
#
# number of rings (size 3 to 8) (size 9 to 14) (size 15 to 20)
#    0.000    2.143    0.000    1.286   12.000    3.143 
#    5.143    3.571    0.000    0.000    0.000    0.000 
#    0.000    0.000    0.000    0.000    0.000    0.000 
#
# Total GULP energy -693991.376613 kJ/mol
# GULP energy per Si atom -12392.703154 kJ/mol
# Density = 1.984542 g / cm^3
# Si number density = 19.890697 Si / 1000 Ang^3
#
#
#
# Elastic Constant Matrix: (Units=GPa)
#
#
# Indices 1 2 3 4 5 6 
#
# 1 78.8488 44.6969 33.5757 0.0000 0.0000 0.0000
# 2 44.6969 151.1917 58.8732 0.0000 0.0000 0.0000
# 3 33.5757 58.8732 117.0605 0.0000 0.0000 0.0000
# 4 0.0000 0.0000 0.0000 17.2001 0.0000 0.0000
# 5 0.0000 0.0000 0.0000 0.0000 28.3381 0.0000
# 6 0.0000 0.0000 0.0000 0.0000 0.0000 1680.0310
#
#
#
# Elastic Compliance Matrix: (Units=1/GPa)
#
#
# Indices 1 2 3 4 5 6 
#
# 1 0.015909 -0.003639 -0.002733 0.000000 0.000000 0.000000
# 2 -0.003639 0.009057 -0.003511 0.000000 0.000000 0.000000
# 3 -0.002733 -0.003511 0.011092 0.000000 0.000000 0.000000
# 4 0.000000 0.000000 0.000000 0.058139 0.000000 0.000000
# 5 0.000000 0.000000 0.000000 0.000000 0.035288 0.000000
# 6 0.000000 0.000000 0.000000 0.000000 0.000000 0.000595
#
#
# Mechanical properties :
#
#
# Convention : Reuss Voigt Hill
#
# Bulk Modulus (GPa) = 61.37954 69.04363 65.21159
# Shear Modulus (GPa) = 32.20017 359.11087 195.65552
#
# Velocity S-wave (km/s) = 4.02787 13.45117 9.92869
# Velocity P-wave (km/s) = 7.24962 16.61422 12.81775
#
# Compressibility (1/GPa) = 0.01629207
#
# Stress axis : x y z
#
# Youngs Moduli (GPa) = 62.85715 110.40892 90.15145
#
# Poissons Ratio (x) = 0.40178 0.24638
# Poissons Ratio (y) = 0.22874 0.31656
# Poissons Ratio (z) = 0.17178 0.38769
#
# Static dielectric constant tensor:
#      x y z
#    x 3.738250 0.000000 0.000000 
#    y 0.000000 4.307850 0.000000 
#    z 0.000000 0.000000 2.915670 
# 
# 
# High freq. dielectric constant tensor:
#      x y z
#    x 1.773690 0.000000 0.000000 
#    y 0.000000 1.792950 0.000000 
#    z 0.000000 0.000000 1.757540 
# 
# From -- ./inp_files/24242.got.cif
#   From: 2010.03.12/outbox.cif.g09.slc.cpg/sg64_13_cif.got.tgz:24242.got - 2010.04.10 20:19:32.
