data_PCOD8263772
_publ_section_title
;
Structure prediction by ZEFSAII (Michael W. Deem and Ramdas Pophale) SiO2 
 PCOD8263772
Probable space group: C M C A
;
_chemical_formula_sum "Si O2"
_cell_formula_units_Z 112
_cell_length_a 14.223621
_cell_length_b 27.221345
_cell_length_c 14.119585
_cell_angle_alpha 90.000000
_cell_angle_beta 90.000000
_cell_angle_gamma 90.000000
_cell_volume 5466.906971
_symmetry_space_group_name_H-M "C M C A"
_symmetry_group_IT_number 64
_symmetry_cell_setting 'orthorhombic'
loop_
_space_group_symop_operation_xyz
x,y,z
-x,1/2-y,1/2+z
x,-y,-z
-x,1/2+y,1/2-z
-x,-y,-z
x,1/2+y,1/2-z
-x,y,z
x,1/2-y,1/2+z
1/2+x,1/2+y,z
1/2-x,-y,1/2+z
1/2+x,1/2-y,-z
1/2-x,y,1/2-z
1/2-x,1/2-y,-z
1/2+x,y,1/2-z
1/2-x,1/2+y,z
1/2+x,-y,1/2+z
loop_
_atom_site_type_symbol
_atom_site_label
_atom_site_fract_x
_atom_site_fract_y
_atom_site_fract_z
Si Si1 0.111816 0.465603 0.414047
Si Si2 0.893421 0.761595 0.754920
Si Si3 0.733286 0.121748 0.521895
Si Si4 0.104689 0.035295 0.245378
Si Si5 0.249297 0.725216 0.898626
Si Si6 0.336879 0.365609 0.817059
Si Si7 0.390977 0.052044 0.048689
O O1 0.144558 0.500000 0.500000
O O2 0.158433 0.412894 0.426138
O O3 0.149739 0.491537 0.317337
O O4 0.000000 0.459404 0.412212
O O5 0.848589 0.735599 0.846032
O O6 0.835600 0.748032 0.660766
O O7 0.893339 0.819968 0.773505
O O8 0.000000 0.743486 0.741565
O O9 0.745889 0.166564 0.593928
O O10 0.694144 0.144684 0.424418
O O11 0.831742 0.093517 0.505737
O O12 0.100305 0.085237 0.183629
O O13 0.154841 0.045251 0.346239
O O14 0.000000 0.018322 0.270851
O O15 0.250000 0.750000 0.000000
O O16 0.250000 0.376752 0.750000
O O17 0.500000 0.069509 0.051049
O O18 0.379814 0.000000 0.000000
#
# Coordination Sequence:
#
# PCOD8263772 Si02
#       7
#    16  16  16  16  16  16  16
#     4  10  21  37  59  96 134 164 207 256 316 394
#     4  11  25  46  70  95 132 176 220 274 340 403
#     4  12  23  39  69  93 130 176 213 272 336 386
#     4  10  21  38  61  92 128 164 204 262 319 380
#     4  11  24  47  66  99 136 169 227 287 335 402
#     4  12  20  37  66  99 126 158 211 269 324 397
#     4  10  23  42  62  92 128 167 220 265 316 395
#
# _framework density 20.486903999999999
#
# number of rings (size 3 to 8) (size 9 to 14) (size 15 to 20)
#    0.000    1.143    5.714    0.857    0.000    2.286 
#    5.143    0.000    0.000    0.000    0.000    0.000 
#    0.000    0.000    0.000    0.000    0.000    0.000 
#
# Total GULP energy -694377.792296 kJ/mol
# GULP energy per Si atom -12399.603434 kJ/mol
# Density = 2.044027 g / cm^3
# Si number density = 20.486904 Si / 1000 Ang^3
#
#
#
# Elastic Constant Matrix: (Units=GPa)
#
#
# Indices 1 2 3 4 5 6 
#
# 1 94.7113 37.7407 39.3752 0.0000 0.0000 0.0000
# 2 37.7407 135.4255 54.0563 0.0000 0.0000 0.0000
# 3 39.3752 54.0563 108.1379 0.0000 0.0000 0.0000
# 4 0.0000 0.0000 0.0000 40.9398 0.0000 0.0000
# 5 0.0000 0.0000 0.0000 0.0000 16.3071 0.0000
# 6 0.0000 0.0000 0.0000 0.0000 0.0000 19.8836
#
#
#
# Elastic Compliance Matrix: (Units=1/GPa)
#
#
# Indices 1 2 3 4 5 6 
#
# 1 0.012926 -0.002153 -0.003630 0.000000 0.000000 0.000000
# 2 -0.002153 0.009583 -0.004007 0.000000 0.000000 0.000000
# 3 -0.003630 -0.004007 0.012572 0.000000 0.000000 0.000000
# 4 0.000000 0.000000 0.000000 0.024426 0.000000 0.000000
# 5 0.000000 0.000000 0.000000 0.000000 0.061323 0.000000
# 6 0.000000 0.000000 0.000000 0.000000 0.000000 0.050293
#
#
# Mechanical properties :
#
#
# Convention : Reuss Voigt Hill
#
# Bulk Modulus (GPa) = 64.51047 66.73544 65.62295
# Shear Modulus (GPa) = 25.52717 29.23295 27.38006
#
# Velocity S-wave (km/s) = 3.53374 3.78154 3.65974
# Velocity P-wave (km/s) = 6.94311 7.19112 7.06820
#
# Compressibility (1/GPa) = 0.01550136
#
# Stress axis : x y z
#
# Youngs Moduli (GPa) = 77.36600 104.34669 79.54122
#
# Poissons Ratio (x) = 0.22467 0.28875
# Poissons Ratio (y) = 0.16658 0.31869
# Poissons Ratio (z) = 0.28085 0.41808
#
# Static dielectric constant tensor:
#      x y z
#    x 3.631880 0.000000 0.000000 
#    y 0.000000 3.730880 0.000000 
#    z 0.000000 0.000000 3.887010 
# 
# 
# High freq. dielectric constant tensor:
#      x y z
#    x 1.796720 0.000000 0.000000 
#    y 0.000000 1.800900 0.000000 
#    z 0.000000 0.000000 1.805850 
# 
# From -- ./inp_files/24256.got.cif
#   From: 2010.03.12/outbox.cif.g09.slc.cpg/sg64_13_cif.got.tgz:24256.got - 2010.04.10 20:19:32.
