data_PCOD8263725
_publ_section_title
;
Structure prediction by ZEFSAII (Michael W. Deem and Ramdas Pophale) SiO2 
 PCOD8263725
Probable space group: C M C A
;
_chemical_formula_sum "Si O2"
_cell_formula_units_Z 96
_cell_length_a 8.926250
_cell_length_b 23.155517
_cell_length_c 25.543813
_cell_angle_alpha 90.000000
_cell_angle_beta 90.000000
_cell_angle_gamma 90.000000
_cell_volume 5279.700101
_symmetry_space_group_name_H-M "C M C A"
_symmetry_group_IT_number 64
_symmetry_cell_setting 'orthorhombic'
loop_
_space_group_symop_operation_xyz
x,y,z
-x,1/2-y,1/2+z
x,-y,-z
-x,1/2+y,1/2-z
-x,-y,-z
x,1/2+y,1/2-z
-x,y,z
x,1/2-y,1/2+z
1/2+x,1/2+y,z
1/2-x,-y,1/2+z
1/2+x,1/2-y,-z
1/2-x,y,1/2-z
1/2-x,1/2-y,-z
1/2+x,y,1/2-z
1/2-x,1/2+y,z
1/2+x,-y,1/2+z
loop_
_atom_site_type_symbol
_atom_site_label
_atom_site_fract_x
_atom_site_fract_y
_atom_site_fract_z
Si Si1 0.173647 0.932786 0.502695
Si Si2 0.324737 0.434215 0.197333
Si Si3 0.327534 0.873382 0.407976
Si Si4 0.677282 0.134435 0.404650
Si Si5 0.323440 0.565364 0.196792
Si Si6 0.172964 0.746069 0.056129
O O1 0.218248 0.904700 0.448002
O O2 0.274441 0.905952 0.547807
O O3 0.000000 0.920096 0.514246
O O4 0.208858 0.000000 0.500000
O O5 0.500000 0.432784 0.206538
O O6 0.250000 0.409888 0.250000
O O7 0.276854 0.393157 0.149631
O O8 0.270482 0.499689 0.185629
O O9 0.500000 0.891273 0.419226
O O10 0.306674 0.804921 0.411880
O O11 0.500000 0.141939 0.406947
O O12 0.731692 0.105235 0.350835
O O13 0.752673 0.196841 0.408627
O O14 0.500000 0.568760 0.203124
O O15 0.250000 0.589081 0.250000
O O16 0.000000 0.731116 0.046536
O O17 0.250000 0.750000 0.000000
#
# Coordination Sequence:
#
# PCOD8263725 Si02
#       6
#    16  16  16  16  16  16
#     4  11  23  35  52  82 114 142 178 228 281 332
#     4   9  18  35  57  82 109 141 181 225 276 334
#     4  10  21  37  57  79 108 147 186 224 275 334
#     4  11  22  37  57  81 110 148 188 228 279 335
#     4   9  19  35  57  82 109 142 182 226 276 333
#     4  11  22  37  57  81 110 149 191 232 277 330
#
# _framework density 18.182850999999999
#
# number of rings (size 3 to 8) (size 9 to 14) (size 15 to 20)
#    0.000    1.833    1.667    2.500    0.000    5.333 
#    0.000    4.167    0.000    4.000    0.000    0.000 
#    0.000    0.000    0.000    0.000    0.000    0.000 
#
# Total GULP energy -595388.041113 kJ/mol
# GULP energy per Si atom -12403.917523 kJ/mol
# Density = 1.814147 g / cm^3
# Si number density = 18.182851 Si / 1000 Ang^3
#
#
#
# Elastic Constant Matrix: (Units=GPa)
#
#
# Indices 1 2 3 4 5 6 
#
# 1 62.9379 45.2335 45.2466 0.0000 0.0000 0.0000
# 2 45.2335 116.6902 72.9137 0.0000 0.0000 0.0000
# 3 45.2466 72.9137 157.0537 0.0000 0.0000 0.0000
# 4 0.0000 0.0000 0.0000 375.5637 0.0000 0.0000
# 5 0.0000 0.0000 0.0000 0.0000 31.9888 0.0000
# 6 0.0000 0.0000 0.0000 0.0000 0.0000 106.1717
#
#
#
# Elastic Compliance Matrix: (Units=1/GPa)
#
#
# Indices 1 2 3 4 5 6 
#
# 1 0.023355 -0.006831 -0.003557 0.000000 0.000000 0.000000
# 2 -0.006831 0.014069 -0.004564 0.000000 0.000000 0.000000
# 3 -0.003557 -0.004564 0.009511 0.000000 0.000000 0.000000
# 4 0.000000 0.000000 0.000000 0.002663 0.000000 0.000000
# 5 0.000000 0.000000 0.000000 0.000000 0.031261 0.000000
# 6 0.000000 0.000000 0.000000 0.000000 0.000000 0.009419
#
#
# Mechanical properties :
#
#
# Convention : Reuss Voigt Hill
#
# Bulk Modulus (GPa) = 58.71402 73.71882 66.21642
# Shear Modulus (GPa) = 39.72710 114.29738 77.01224
#
# Velocity S-wave (km/s) = 4.67933 7.93703 6.51508
# Velocity P-wave (km/s) = 7.84575 11.16362 9.64837
#
# Compressibility (1/GPa) = 0.01703171
#
# Stress axis : x y z
#
# Youngs Moduli (GPa) = 42.81694 71.07712 105.14171
#
# Poissons Ratio (x) = 0.48549 0.37403
# Poissons Ratio (y) = 0.29246 0.47986
# Poissons Ratio (z) = 0.15232 0.32439
#
# Static dielectric constant tensor:
#      x y z
#    x 3.424110 0.000000 0.000000 
#    y 0.000000 3.509630 0.000000 
#    z 0.000000 0.000000 3.430260 
# 
# 
# High freq. dielectric constant tensor:
#      x y z
#    x 1.709420 0.000000 0.000000 
#    y 0.000000 1.705960 0.000000 
#    z 0.000000 0.000000 1.705600 
# 
# From -- ./inp_files/42981.got.cif
#   From: 2010.03.12/outbox.cif.g09.slc.cpg/sg64_22_cif.got.tgz:42981.got - 2010.04.10 20:19:32.
