data_PCOD8263468
_publ_section_title
;
Structure prediction by ZEFSAII (Michael W. Deem and Ramdas Pophale) SiO2 
 PCOD8263468
Probable space group: C M C A
;
_chemical_formula_sum "Si O2"
_cell_formula_units_Z 72
_cell_length_a 23.066532
_cell_length_b 17.547875
_cell_length_c 8.506298
_cell_angle_alpha 90.000000
_cell_angle_beta 90.000000
_cell_angle_gamma 90.000000
_cell_volume 3443.082505
_symmetry_space_group_name_H-M "C M C A"
_symmetry_group_IT_number 64
_symmetry_cell_setting 'orthorhombic'
loop_
_space_group_symop_operation_xyz
x,y,z
-x,1/2-y,1/2+z
x,-y,-z
-x,1/2+y,1/2-z
-x,-y,-z
x,1/2+y,1/2-z
-x,y,z
x,1/2-y,1/2+z
1/2+x,1/2+y,z
1/2-x,-y,1/2+z
1/2+x,1/2-y,-z
1/2-x,y,1/2-z
1/2-x,1/2-y,-z
1/2+x,y,1/2-z
1/2-x,1/2+y,z
1/2+x,-y,1/2+z
loop_
_atom_site_type_symbol
_atom_site_label
_atom_site_fract_x
_atom_site_fract_y
_atom_site_fract_z
Si Si1 0.000000 0.374030 0.553560
Si Si2 0.500000 0.025511 0.749234
Si Si3 0.589511 0.500000 0.500000
Si Si4 0.375870 0.296992 0.915839
Si Si5 0.845228 0.353400 0.921909
Si Si6 0.234764 0.668013 0.568729
O O1 0.000000 0.439333 0.684464
O O2 0.000000 0.410778 0.382697
O O3 0.942644 0.322576 0.571444
O O4 0.554681 0.039527 0.859763
O O5 0.622880 0.566953 0.413676
O O6 0.349884 0.309909 0.743177
O O7 0.371632 0.206490 0.950704
O O8 0.333653 0.346510 0.033298
O O9 0.780018 0.381929 0.967094
O O10 0.250000 0.657521 0.750000
O O11 0.250000 0.750000 0.500000
#
# Coordination Sequence:
#
# PCOD8263468 Si02
#       6
#     8   8   8  16  16  16
#     4  11  24  42  68  96 127 174 227 262 324 398
#     4  10  24  44  62  89 139 183 202 269 339 392
#     4  11  24  44  66  92 140 173 216 266 340 393
#     4  11  23  41  68  99 131 171 227 272 319 387
#     4  11  23  42  67  99 131 172 220 273 330 386
#     4  10  20  38  66  96 129 170 211 273 330 373
#
# _framework density 20.911494999999999
#
# number of rings (size 3 to 8) (size 9 to 14) (size 15 to 20)
#    0.000    1.333    2.222    6.000    6.222    2.667 
#    0.000    4.444    0.000    0.000    0.000    0.000 
#    0.000    0.000    0.000    0.000    0.000    0.000 
#
# Total GULP energy -446006.771746 kJ/mol
# GULP energy per Si atom -12389.076993 kJ/mol
# Density = 2.086390 g / cm^3
# Si number density = 20.911495 Si / 1000 Ang^3
#
#
#
# Elastic Constant Matrix: (Units=GPa)
#
#
# Indices 1 2 3 4 5 6 
#
# 1 154.2171 12.4485 38.7872 0.0000 0.0000 0.0000
# 2 12.4485 55.7137 15.8214 0.0000 0.0000 0.0000
# 3 38.7872 15.8214 126.4877 0.0000 0.0000 0.0000
# 4 0.0000 0.0000 0.0000 23.3607 0.0000 0.0000
# 5 0.0000 0.0000 0.0000 0.0000 81.3806 0.0000
# 6 0.0000 0.0000 0.0000 0.0000 0.0000 22.3025
#
#
#
# Elastic Compliance Matrix: (Units=1/GPa)
#
#
# Indices 1 2 3 4 5 6 
#
# 1 0.007080 -0.001001 -0.002046 0.000000 0.000000 0.000000
# 2 -0.001001 0.018751 -0.002039 0.000000 0.000000 0.000000
# 3 -0.002046 -0.002039 0.008788 0.000000 0.000000 0.000000
# 4 0.000000 0.000000 0.000000 0.042807 0.000000 0.000000
# 5 0.000000 0.000000 0.000000 0.000000 0.012288 0.000000
# 6 0.000000 0.000000 0.000000 0.000000 0.000000 0.044838
#
#
# Mechanical properties :
#
#
# Convention : Reuss Voigt Hill
#
# Bulk Modulus (GPa) = 40.90167 52.28141 46.59154
# Shear Modulus (GPa) = 32.70702 43.36618 38.03660
#
# Velocity S-wave (km/s) = 3.95912 4.55884 4.26952
# Velocity P-wave (km/s) = 6.36407 7.26403 6.82889
#
# Compressibility (1/GPa) = 0.02444888
#
# Stress axis : x y z
#
# Youngs Moduli (GPa) = 141.24904 53.32924 113.78856
#
# Poissons Ratio (x) = 0.05338 0.23279
# Poissons Ratio (y) = 0.14138 0.23196
# Poissons Ratio (z) = 0.28896 0.10871
#
# Static dielectric constant tensor:
#      x y z
#    x 5.084440 0.000000 0.000000 
#    y 0.000000 3.370330 0.000000 
#    z 0.000000 0.000000 3.905400 
# 
# 
# High freq. dielectric constant tensor:
#      x y z
#    x 1.835810 0.000000 0.000000 
#    y 0.000000 1.783510 0.000000 
#    z 0.000000 0.000000 1.836230 
# 
# From -- ./inp_files/9167.got.cif
#   From: 2010.03.12/outbox.cif.g09.slc.cpg/sg64_5_cif.got.tgz:9167.got - 2010.04.10 20:19:32.
