data_PCOD8263326
_publ_section_title
;
Structure prediction by ZEFSAII (Michael W. Deem and Ramdas Pophale) SiO2 
 PCOD8263326
Probable space group: C M C A
;
_chemical_formula_sum "Si O2"
_cell_formula_units_Z 96
_cell_length_a 8.737371
_cell_length_b 28.660723
_cell_length_c 20.368091
_cell_angle_alpha 90.000000
_cell_angle_beta 90.000000
_cell_angle_gamma 90.000000
_cell_volume 5100.564516
_symmetry_space_group_name_H-M "C M C A"
_symmetry_group_IT_number 64
_symmetry_cell_setting 'orthorhombic'
loop_
_space_group_symop_operation_xyz
x,y,z
-x,1/2-y,1/2+z
x,-y,-z
-x,1/2+y,1/2-z
-x,-y,-z
x,1/2+y,1/2-z
-x,y,z
x,1/2-y,1/2+z
1/2+x,1/2+y,z
1/2-x,-y,1/2+z
1/2+x,1/2-y,-z
1/2-x,y,1/2-z
1/2-x,1/2-y,-z
1/2+x,y,1/2-z
1/2-x,1/2+y,z
1/2+x,-y,1/2+z
loop_
_atom_site_type_symbol
_atom_site_label
_atom_site_fract_x
_atom_site_fract_y
_atom_site_fract_z
Si Si1 0.677123 0.875435 0.880703
Si Si2 0.178782 0.466032 0.059511
Si Si3 0.819418 0.277170 0.061092
Si Si4 0.179386 0.028894 0.318973
Si Si5 0.179174 0.129264 0.978540
Si Si6 0.177512 0.776720 0.680459
O O1 0.500000 0.882272 0.901622
O O2 0.740069 0.920508 0.842037
O O3 0.699917 0.831351 0.833870
O O4 0.775830 0.868718 0.945517
O O5 0.225721 0.490461 0.127422
O O6 0.277205 0.419534 0.054270
O O7 0.000000 0.453388 0.056701
O O8 0.222665 0.500000 0.000000
O O9 0.766376 0.330603 0.061205
O O10 0.766187 0.253959 0.128001
O O11 0.000000 0.274569 0.055014
O O12 0.750000 0.250000 0.000000
O O13 0.250000 0.013956 0.250000
O O14 0.000000 0.031539 0.309891
O O15 0.000000 0.137853 0.972080
O O16 0.250000 0.764683 0.750000
O O17 0.000000 0.762856 0.679649
#
# Coordination Sequence:
#
# PCOD8263326 Si02
#       6
#    16  16  16  16  16  16
#     4  10  20  37  60  87 123 164 199 241 299 363
#     4  10  20  39  63  84 117 161 203 244 297 360
#     4  12  24  41  64  90 122 160 205 253 305 365
#     4  10  21  37  59  87 120 161 198 242 300 357
#     4  12  24  37  60  93 123 154 201 256 305 354
#     4  11  23  39  62  91 127 166 204 248 303 364
#
# _framework density 18.821446000000002
#
# number of rings (size 3 to 8) (size 9 to 14) (size 15 to 20)
#    0.000    1.167    3.333    4.000    0.000    2.333 
#    0.000    0.833    0.000    2.000    0.000    0.000 
#    0.000    0.000    0.000    0.000    0.000    0.000 
#
# Total GULP energy -595489.297680 kJ/mol
# GULP energy per Si atom -12406.027035 kJ/mol
# Density = 1.877861 g / cm^3
# Si number density = 18.821446 Si / 1000 Ang^3
#
#
#
# Elastic Constant Matrix: (Units=GPa)
#
#
# Indices 1 2 3 4 5 6 
#
# 1 122.1230 56.8491 60.0794 0.0000 0.0000 0.0000
# 2 56.8491 106.3880 54.8889 0.0000 0.0000 0.0000
# 3 60.0794 54.8889 136.3721 0.0000 0.0000 0.0000
# 4 0.0000 0.0000 0.0000 36.1324 0.0000 0.0000
# 5 0.0000 0.0000 0.0000 0.0000 32.1604 0.0000
# 6 0.0000 0.0000 0.0000 0.0000 0.0000 29.7084
#
#
#
# Elastic Compliance Matrix: (Units=1/GPa)
#
#
# Indices 1 2 3 4 5 6 
#
# 1 0.012049 -0.004669 -0.003429 0.000000 0.000000 0.000000
# 2 -0.004669 0.013673 -0.003446 0.000000 0.000000 0.000000
# 3 -0.003429 -0.003446 0.010230 0.000000 0.000000 0.000000
# 4 0.000000 0.000000 0.000000 0.027676 0.000000 0.000000
# 5 0.000000 0.000000 0.000000 0.000000 0.031094 0.000000
# 6 0.000000 0.000000 0.000000 0.000000 0.000000 0.033661
#
#
# Mechanical properties :
#
#
# Convention : Reuss Voigt Hill
#
# Bulk Modulus (GPa) = 77.73906 78.72420 78.23163
# Shear Modulus (GPa) = 32.10089 32.47128 32.28609
#
# Velocity S-wave (km/s) = 4.13431 4.15809 4.14622
# Velocity P-wave (km/s) = 8.01144 8.06044 8.03597
#
# Compressibility (1/GPa) = 0.01286355
#
# Stress axis : x y z
#
# Youngs Moduli (GPa) = 82.99483 73.13907 97.74734
#
# Poissons Ratio (x) = 0.34152 0.33516
# Poissons Ratio (y) = 0.38754 0.33684
# Poissons Ratio (z) = 0.28457 0.25204
#
# Static dielectric constant tensor:
#      x y z
#    x 3.446700 0.000000 0.000000 
#    y 0.000000 3.704380 0.000000 
#    z 0.000000 0.000000 3.415570 
# 
# 
# High freq. dielectric constant tensor:
#      x y z
#    x 1.733550 0.000000 0.000000 
#    y 0.000000 1.737860 0.000000 
#    z 0.000000 0.000000 1.731070 
# 
# From -- ./inp_files/37115.got.cif
#   From: 2010.03.12/outbox.cif.g09.slc.cpg/sg64_19_cif.got.tgz:37115.got - 2010.04.10 20:19:32.
