data_PCOD8263358
_publ_section_title
;
Structure prediction by ZEFSAII (Michael W. Deem and Ramdas Pophale) SiO2 
 PCOD8263358
Probable space group: C M C A
;
_chemical_formula_sum "Si O2"
_cell_formula_units_Z 104
_cell_length_a 13.372531
_cell_length_b 21.083397
_cell_length_c 17.609232
_cell_angle_alpha 90.000000
_cell_angle_beta 90.000000
_cell_angle_gamma 90.000000
_cell_volume 4964.718343
_symmetry_space_group_name_H-M "C M C A"
_symmetry_group_IT_number 64
_symmetry_cell_setting 'orthorhombic'
loop_
_space_group_symop_operation_xyz
x,y,z
-x,1/2-y,1/2+z
x,-y,-z
-x,1/2+y,1/2-z
-x,-y,-z
x,1/2+y,1/2-z
-x,y,z
x,1/2-y,1/2+z
1/2+x,1/2+y,z
1/2-x,-y,1/2+z
1/2+x,1/2-y,-z
1/2-x,y,1/2-z
1/2-x,1/2-y,-z
1/2+x,y,1/2-z
1/2-x,1/2+y,z
1/2+x,-y,1/2+z
loop_
_atom_site_type_symbol
_atom_site_label
_atom_site_fract_x
_atom_site_fract_y
_atom_site_fract_z
Si Si1 0.114524 0.742861 0.033774
Si Si2 0.115273 0.614444 0.512794
Si Si3 0.750000 0.556693 0.250000
Si Si4 0.887158 0.611808 0.798370
Si Si5 0.751065 0.351417 0.876386
Si Si6 0.615132 0.754467 0.135945
Si Si7 0.311705 0.554226 0.843124
O O1 0.128553 0.817292 0.054632
O O2 0.163791 0.693970 0.091286
O O3 0.000000 0.722870 0.033783
O O4 0.159583 0.732803 0.948939
O O5 0.190220 0.609539 0.441295
O O6 0.144170 0.558212 0.572194
O O7 0.000000 0.605136 0.486569
O O8 0.800711 0.600559 0.184735
O O9 0.672394 0.513047 0.201089
O O10 0.866090 0.685468 0.812089
O O11 0.807824 0.569000 0.844932
O O12 0.871284 0.604991 0.708196
O O13 0.000000 0.593269 0.823538
O O14 0.672354 0.306646 0.830902
O O15 0.500000 0.735427 0.128989
#
# Coordination Sequence:
#
# PCOD8263358 Si02
#       7
#    16  16   8  16  16  16  16
#     4   9  18  32  55  88 116 141 180 228 282 347
#     4  10  20  37  64  90 109 141 192 240 284 333
#     4  10  26  40  52  76 114 152 194 230 276 338
#     4   9  17  31  55  82 109 146 186 231 292 342
#     4  11  20  37  55  80 118 153 177 225 288 346
#     4   9  17  31  55  87 114 138 176 226 285 349
#     4  10  21  39  54  77 111 149 198 255 276 308
#
# _framework density 20.947814000000001
#
# number of rings (size 3 to 8) (size 9 to 14) (size 15 to 20)
#    0.000    2.462    0.000    5.538    0.000    3.077 
#    0.000   15.385    0.000    0.000    0.000   18.308 
#    0.000    0.000    0.000    0.000    0.000    0.000 
#
# Total GULP energy -644312.348269 kJ/mol
# GULP energy per Si atom -12390.622082 kJ/mol
# Density = 2.090014 g / cm^3
# Si number density = 20.947814 Si / 1000 Ang^3
#
#
#
# Elastic Constant Matrix: (Units=GPa)
#
#
# Indices 1 2 3 4 5 6 
#
# 1 67.5060 27.6229 20.5081 0.0000 0.0000 0.0000
# 2 27.6229 96.1166 57.0310 0.0000 0.0000 0.0000
# 3 20.5081 57.0310 86.7962 0.0000 0.0000 0.0000
# 4 0.0000 0.0000 0.0000 46.9691 0.0000 0.0000
# 5 0.0000 0.0000 0.0000 0.0000 18.5068 0.0000
# 6 0.0000 0.0000 0.0000 0.0000 0.0000 16.3400
#
#
#
# Elastic Compliance Matrix: (Units=1/GPa)
#
#
# Indices 1 2 3 4 5 6 
#
# 1 0.016878 -0.004072 -0.001312 0.000000 0.000000 0.000000
# 2 -0.004072 0.018035 -0.010888 0.000000 0.000000 0.000000
# 3 -0.001312 -0.010888 0.018985 0.000000 0.000000 0.000000
# 4 0.000000 0.000000 0.000000 0.021291 0.000000 0.000000
# 5 0.000000 0.000000 0.000000 0.000000 0.054034 0.000000
# 6 0.000000 0.000000 0.000000 0.000000 0.000000 0.061199
#
#
# Mechanical properties :
#
#
# Convention : Reuss Voigt Hill
#
# Bulk Modulus (GPa) = 46.82978 51.19363 49.01170
# Shear Modulus (GPa) = 21.73110 26.04697 23.88904
#
# Velocity S-wave (km/s) = 3.22435 3.53004 3.38065
# Velocity P-wave (km/s) = 6.02212 6.41145 6.21983
#
# Compressibility (1/GPa) = 0.02135393
#
# Stress axis : x y z
#
# Youngs Moduli (GPa) = 59.24720 55.44902 52.67210
#
# Poissons Ratio (x) = 0.22578 0.06913
# Poissons Ratio (y) = 0.24125 0.57348
# Poissons Ratio (z) = 0.07776 0.60372
#
# Static dielectric constant tensor:
#      x y z
#    x 3.779430 0.000000 0.000000 
#    y 0.000000 3.796740 0.000000 
#    z 0.000000 0.000000 3.666390 
# 
# 
# High freq. dielectric constant tensor:
#      x y z
#    x 1.811820 0.000000 0.000000 
#    y 0.000000 1.809530 0.000000 
#    z 0.000000 0.000000 1.805090 
# 
# From -- ./inp_files/32364.got.cif
#   From: 2010.03.12/outbox.cif.g09.slc.cpg/sg64_17_cif.got.tgz:32364.got - 2010.04.10 20:19:32.
