data_PCOD8263952
_publ_section_title
;
Structure prediction by ZEFSAII (Michael W. Deem and Ramdas Pophale) SiO2 
 PCOD8263952
Probable space group: C M C A
;
_chemical_formula_sum "Si O2"
_cell_formula_units_Z 96
_cell_length_a 8.506688
_cell_length_b 30.486792
_cell_length_c 17.237902
_cell_angle_alpha 90.000000
_cell_angle_beta 90.000000
_cell_angle_gamma 90.000000
_cell_volume 4470.505562
_symmetry_space_group_name_H-M "C M C A"
_symmetry_group_IT_number 64
_symmetry_cell_setting 'orthorhombic'
loop_
_space_group_symop_operation_xyz
x,y,z
-x,1/2-y,1/2+z
x,-y,-z
-x,1/2+y,1/2-z
-x,-y,-z
x,1/2+y,1/2-z
-x,y,z
x,1/2-y,1/2+z
1/2+x,1/2+y,z
1/2-x,-y,1/2+z
1/2+x,1/2-y,-z
1/2-x,y,1/2-z
1/2-x,1/2-y,-z
1/2+x,y,1/2-z
1/2-x,1/2+y,z
1/2+x,-y,1/2+z
loop_
_atom_site_type_symbol
_atom_site_label
_atom_site_fract_x
_atom_site_fract_y
_atom_site_fract_z
Si Si1 0.182804 0.047354 0.332729
Si Si2 0.677379 0.798765 0.095481
Si Si3 0.813006 0.611544 0.662604
Si Si4 0.674955 0.790750 0.911868
Si Si5 0.819818 0.132030 0.167382
Si Si6 0.181967 0.973953 0.073908
O O1 0.250000 0.061644 0.250000
O O2 0.224689 0.092495 0.377986
O O3 0.000000 0.035366 0.336334
O O4 0.287452 0.006023 0.354816
O O5 0.500000 0.797503 0.128560
O O6 0.759268 0.842338 0.127869
O O7 0.775772 0.756517 0.122812
O O8 0.675448 0.795156 0.003644
O O9 0.750000 0.603921 0.750000
O O10 0.750810 0.573357 0.602337
O O11 0.000000 0.609289 0.667017
O O12 0.500000 0.800974 0.879881
O O13 0.804164 0.825249 0.884789
O O14 0.750000 0.145171 0.250000
O O15 0.000000 0.117705 0.174868
O O16 0.000000 0.968153 0.054828
O O17 0.263153 0.000000 0.000000
#
# Coordination Sequence:
#
# PCOD8263952 Si02
#       6
#    16  16  16  16  16  16
#     4  11  22  38  60  87 120 160 202 248 304 362
#     4  10  22  40  63  91 123 161 205 252 306 367
#     4  11  24  42  65  92 126 167 212 261 315 374
#     4  10  21  39  62  91 126 161 203 253 307 368
#     4  11  22  37  59  87 121 159 201 248 302 360
#     4  10  23  42  63  92 124 161 205 255 312 371
#
# _framework density 21.474081000000002
#
# number of rings (size 3 to 8) (size 9 to 14) (size 15 to 20)
#    0.000    1.500    0.000    6.000    2.333    5.667 
#    0.000    3.333    0.000    0.000    0.000    0.000 
#    0.000    0.000    0.000    0.000    0.000    0.000 
#
# Total GULP energy -594791.180038 kJ/mol
# GULP energy per Si atom -12391.482917 kJ/mol
# Density = 2.142521 g / cm^3
# Si number density = 21.474081 Si / 1000 Ang^3
#
#
#
# Elastic Constant Matrix: (Units=GPa)
#
#
# Indices 1 2 3 4 5 6 
#
# 1 77.7308 21.1351 23.3570 0.0000 0.0000 0.0000
# 2 21.1351 158.3054 41.8961 0.0000 0.0000 0.0000
# 3 23.3570 41.8961 43.2525 0.0000 0.0000 0.0000
# 4 0.0000 0.0000 0.0000 27.9298 0.0000 0.0000
# 5 0.0000 0.0000 0.0000 0.0000 27.7436 0.0000
# 6 0.0000 0.0000 0.0000 0.0000 0.0000 31.8880
#
#
#
# Elastic Compliance Matrix: (Units=1/GPa)
#
#
# Indices 1 2 3 4 5 6 
#
# 1 0.015361 0.000194 -0.008484 0.000000 0.000000 0.000000
# 2 0.000194 0.008497 -0.008335 0.000000 0.000000 0.000000
# 3 -0.008484 -0.008335 0.035775 0.000000 0.000000 0.000000
# 4 0.000000 0.000000 0.000000 0.035804 0.000000 0.000000
# 5 0.000000 0.000000 0.000000 0.000000 0.036044 0.000000
# 6 0.000000 0.000000 0.000000 0.000000 0.000000 0.031360
#
#
# Mechanical properties :
#
#
# Convention : Reuss Voigt Hill
#
# Bulk Modulus (GPa) = 37.90143 50.22948 44.06545
# Shear Modulus (GPa) = 24.40382 30.37230 27.38806
#
# Velocity S-wave (km/s) = 3.37476 3.76489 3.57515
# Velocity P-wave (km/s) = 5.73354 6.50698 6.13246
#
# Compressibility (1/GPa) = 0.02638423
#
# Stress axis : x y z
#
# Youngs Moduli (GPa) = 65.09877 117.68901 27.95217
#
# Poissons Ratio (x) = -0.02287 0.23713
# Poissons Ratio (y) = -0.01265 0.23299
# Poissons Ratio (z) = 0.55227 0.98099
#
# Static dielectric constant tensor:
#      x y z
#    x 3.978000 0.000000 0.000000 
#    y 0.000000 4.165550 0.000000 
#    z 0.000000 0.000000 3.800710 
# 
# 
# High freq. dielectric constant tensor:
#      x y z
#    x 1.842280 0.000000 0.000000 
#    y 0.000000 1.866460 0.000000 
#    z 0.000000 0.000000 1.825640 
# 
# From -- ./inp_files/36969.got.cif
#   From: 2010.03.12/outbox.cif.g09.slc.cpg/sg64_19_cif.got.tgz:36969.got - 2010.04.10 20:19:32.
