data_PCOD8263529
_publ_section_title
;
Structure prediction by ZEFSAII (Michael W. Deem and Ramdas Pophale) SiO2 
 PCOD8263529
Probable space group: C M C A
;
_chemical_formula_sum "Si O2"
_cell_formula_units_Z 112
_cell_length_a 24.235194
_cell_length_b 16.138772
_cell_length_c 14.169888
_cell_angle_alpha 90.000000
_cell_angle_beta 90.000000
_cell_angle_gamma 90.000000
_cell_volume 5542.215445
_symmetry_space_group_name_H-M "C M C A"
_symmetry_group_IT_number 64
_symmetry_cell_setting 'orthorhombic'
loop_
_space_group_symop_operation_xyz
x,y,z
-x,1/2-y,1/2+z
x,-y,-z
-x,1/2+y,1/2-z
-x,-y,-z
x,1/2+y,1/2-z
-x,y,z
x,1/2-y,1/2+z
1/2+x,1/2+y,z
1/2-x,-y,1/2+z
1/2+x,1/2-y,-z
1/2-x,y,1/2-z
1/2-x,1/2-y,-z
1/2+x,y,1/2-z
1/2-x,1/2+y,z
1/2+x,-y,1/2+z
loop_
_atom_site_type_symbol
_atom_site_label
_atom_site_fract_x
_atom_site_fract_y
_atom_site_fract_z
Si Si1 0.286399 0.325779 0.909738
Si Si2 0.435550 0.700487 0.110902
Si Si3 0.820324 0.930306 0.574439
Si Si4 0.815694 0.956390 0.257338
Si Si5 0.858683 0.266814 0.956272
Si Si6 0.125510 0.042233 0.092852
Si Si7 0.151517 0.272972 0.238310
O O1 0.224600 0.358413 0.904394
O O2 0.321536 0.405755 0.938694
O O3 0.304749 0.292146 0.806253
O O4 0.301155 0.256716 0.989268
O O5 0.500000 0.716519 0.111002
O O6 0.421413 0.604088 0.134347
O O7 0.408207 0.758615 0.190713
O O8 0.410393 0.723857 0.008289
O O9 0.868617 0.867636 0.539421
O O10 0.801719 0.000000 0.500000
O O11 0.838829 0.977414 0.667889
O O12 0.750000 0.971694 0.250000
O O13 0.826431 0.863372 0.290663
O O14 0.852188 0.972729 0.164756
O O15 0.853892 0.234766 0.849798
O O16 0.099985 0.000000 0.000000
#
# Coordination Sequence:
#
# PCOD8263529 Si02
#       7
#    16  16  16  16  16  16  16
#     4  10  21  37  54  85 123 167 194 238 284 360
#     4  10  23  45  65  86 117 157 207 267 312 348
#     4  12  23  35  55  86 126 166 201 240 296 354
#     4  12  24  35  59  91 130 169 194 238 302 370
#     4  10  22  38  62  84 117 156 204 251 297 364
#     4  10  20  40  61  90 124 151 199 255 299 360
#     4  10  23  40  60  90 123 159 207 248 295 368
#
# _framework density 20.208524000000001
#
# number of rings (size 3 to 8) (size 9 to 14) (size 15 to 20)
#    0.000    1.714    1.429    6.000    4.000    0.857 
#    0.000    0.714    0.000    3.857    0.000    0.000 
#    0.000    0.000    0.000    0.000    0.000    0.000 
#
# Total GULP energy -694029.840463 kJ/mol
# GULP energy per Si atom -12393.390008 kJ/mol
# Density = 2.016253 g / cm^3
# Si number density = 20.208524 Si / 1000 Ang^3
#
#
#
# Elastic Constant Matrix: (Units=GPa)
#
#
# Indices 1 2 3 4 5 6 
#
# 1 82.8940 29.4169 32.6291 0.0000 0.0000 0.0000
# 2 29.4169 103.1748 20.0298 0.0000 0.0000 0.0000
# 3 32.6291 20.0298 118.3620 0.0000 0.0000 0.0000
# 4 0.0000 0.0000 0.0000 40.1218 0.0000 0.0000
# 5 0.0000 0.0000 0.0000 0.0000 10.7860 0.0000
# 6 0.0000 0.0000 0.0000 0.0000 0.0000 16.3216
#
#
#
# Elastic Compliance Matrix: (Units=1/GPa)
#
#
# Indices 1 2 3 4 5 6 
#
# 1 0.014668 -0.003512 -0.003449 0.000000 0.000000 0.000000
# 2 -0.003512 0.010863 -0.000870 0.000000 0.000000 0.000000
# 3 -0.003449 -0.000870 0.009547 0.000000 0.000000 0.000000
# 4 0.000000 0.000000 0.000000 0.024924 0.000000 0.000000
# 5 0.000000 0.000000 0.000000 0.000000 0.092713 0.000000
# 6 0.000000 0.000000 0.000000 0.000000 0.000000 0.061268
#
#
# Mechanical properties :
#
#
# Convention : Reuss Voigt Hill
#
# Bulk Modulus (GPa) = 51.50894 52.06470 51.78682
# Shear Modulus (GPa) = 21.17596 28.26955 24.72275
#
# Velocity S-wave (km/s) = 3.24060 3.74423 3.50148
# Velocity P-wave (km/s) = 6.28856 6.67174 6.48298
#
# Compressibility (1/GPa) = 0.01941411
#
# Stress axis : x y z
#
# Youngs Moduli (GPa) = 68.17700 92.05880 104.74831
#
# Poissons Ratio (x) = 0.32335 0.36129
# Poissons Ratio (y) = 0.23947 0.09113
# Poissons Ratio (z) = 0.23515 0.08009
#
# Static dielectric constant tensor:
#      x y z
#    x 3.267600 0.000000 0.000000 
#    y 0.000000 4.034200 0.000000 
#    z 0.000000 0.000000 3.737330 
# 
# 
# High freq. dielectric constant tensor:
#      x y z
#    x 1.734260 0.000000 0.000000 
#    y 0.000000 1.813870 0.000000 
#    z 0.000000 0.000000 1.797890 
# 
# From -- ./inp_files/28081.got.cif
#   From: 2010.03.12/outbox.cif.g09.slc.cpg/sg64_15_cif.got.tgz:28081.got - 2010.04.10 20:19:32.
