data_PCOD8263257
_publ_section_title
;
Structure prediction by ZEFSAII (Michael W. Deem and Ramdas Pophale) SiO2 
 PCOD8263257
Probable space group: C M C A
;
_chemical_formula_sum "Si O2"
_cell_formula_units_Z 104
_cell_length_a 20.775734
_cell_length_b 24.708114
_cell_length_c 9.997300
_cell_angle_alpha 90.000000
_cell_angle_beta 90.000000
_cell_angle_gamma 90.000000
_cell_volume 5131.906052
_symmetry_space_group_name_H-M "C M C A"
_symmetry_group_IT_number 64
_symmetry_cell_setting 'orthorhombic'
loop_
_space_group_symop_operation_xyz
x,y,z
-x,1/2-y,1/2+z
x,-y,-z
-x,1/2+y,1/2-z
-x,-y,-z
x,1/2+y,1/2-z
-x,y,z
x,1/2-y,1/2+z
1/2+x,1/2+y,z
1/2-x,-y,1/2+z
1/2+x,1/2-y,-z
1/2-x,y,1/2-z
1/2-x,1/2-y,-z
1/2+x,y,1/2-z
1/2-x,1/2+y,z
1/2+x,-y,1/2+z
loop_
_atom_site_type_symbol
_atom_site_label
_atom_site_fract_x
_atom_site_fract_y
_atom_site_fract_z
Si Si1 0.000000 0.366755 0.938303
Si Si2 0.500000 0.725989 0.637934
Si Si3 0.639027 0.375354 0.520253
Si Si4 0.633527 0.133813 0.476746
Si Si5 0.132828 0.185044 0.744402
Si Si6 0.177907 0.700584 0.250161
Si Si7 0.244684 0.949374 0.905380
Si Si8 0.500000 0.853672 0.626106
O O1 0.000000 0.366049 0.780839
O O2 0.934969 0.397157 0.990302
O O3 0.000000 0.305608 0.996845
O O4 0.561246 0.708368 0.725938
O O5 0.500000 0.789078 0.601633
O O6 0.660087 0.346683 0.383267
O O7 0.637748 0.330593 0.637308
O O8 0.687857 0.423343 0.550097
O O9 0.638514 0.143207 0.634135
O O10 0.646847 0.189465 0.395338
O O11 0.684045 0.089763 0.425223
O O12 0.560865 0.116639 0.441684
O O13 0.178965 0.235573 0.776495
O O14 0.250000 0.677115 0.250000
O O15 0.250000 0.966732 0.750000
O O16 0.231810 0.000000 0.000000
#
# Coordination Sequence:
#
# PCOD8263257 Si02
#       8
#     8   8  16  16  16  16  16   8
#     4  10  20  36  63  87 126 169 212 246 314 381
#     4  10  21  36  51  95 138 181 209 246 295 390
#     4  11  22  43  63  93 131 168 214 266 318 395
#     4  12  24  41  63  96 132 171 221 269 320 386
#     4  11  25  34  61  96 138 176 213 250 317 386
#     4  12  22  38  57  91 138 173 213 260 305 391
#     4  12  27  50  73  93 122 164 225 286 344 392
#     4  12  21  34  66  88 133 178 215 251 311 375
#
# _framework density 20.265376
#
# number of rings (size 3 to 8) (size 9 to 14) (size 15 to 20)
#    0.000    0.615    6.154    1.385    8.615    1.231 
#    0.000    0.769    0.000    0.000    0.000    0.000 
#    0.000    0.000    0.000    0.000    0.000    0.000 
#
# Total GULP energy -644922.377824 kJ/mol
# GULP energy per Si atom -12402.353420 kJ/mol
# Density = 2.021925 g / cm^3
# Si number density = 20.265376 Si / 1000 Ang^3
#
#
#
# Elastic Constant Matrix: (Units=GPa)
#
#
# Indices 1 2 3 4 5 6 
#
# 1 134.4570 28.4926 22.3809 0.0000 0.0000 0.0000
# 2 28.4926 63.0894 35.3203 0.0000 0.0000 0.0000
# 3 22.3809 35.3203 122.7524 0.0000 0.0000 0.0000
# 4 0.0000 0.0000 0.0000 24.2813 0.0000 0.0000
# 5 0.0000 0.0000 0.0000 0.0000 24.1139 0.0000
# 6 0.0000 0.0000 0.0000 0.0000 0.0000 14.6414
#
#
#
# Elastic Compliance Matrix: (Units=1/GPa)
#
#
# Indices 1 2 3 4 5 6 
#
# 1 0.008252 -0.003438 -0.000515 0.000000 0.000000 0.000000
# 2 -0.003438 0.020327 -0.005222 0.000000 0.000000 0.000000
# 3 -0.000515 -0.005222 0.009743 0.000000 0.000000 0.000000
# 4 0.000000 0.000000 0.000000 0.041184 0.000000 0.000000
# 5 0.000000 0.000000 0.000000 0.000000 0.041470 0.000000
# 6 0.000000 0.000000 0.000000 0.000000 0.000000 0.068299
#
#
# Mechanical properties :
#
#
# Convention : Reuss Voigt Hill
#
# Bulk Modulus (GPa) = 50.07312 54.74293 52.40803
# Shear Modulus (GPa) = 23.33372 28.21430 25.77401
#
# Velocity S-wave (km/s) = 3.39692 3.73532 3.57013
# Velocity P-wave (km/s) = 6.33623 6.75834 6.55069
#
# Compressibility (1/GPa) = 0.01997079
#
# Stress axis : x y z
#
# Youngs Moduli (GPa) = 121.18765 49.19633 102.63847
#
# Poissons Ratio (x) = 0.16915 0.05288
# Poissons Ratio (y) = 0.41667 0.53596
# Poissons Ratio (z) = 0.06243 0.25690
#
# Static dielectric constant tensor:
#      x y z
#    x 4.026940 0.000000 0.000000 
#    y 0.000000 3.282180 0.000000 
#    z 0.000000 0.000000 3.766520 
# 
# 
# High freq. dielectric constant tensor:
#      x y z
#    x 1.816560 0.000000 0.000000 
#    y 0.000000 1.739820 0.000000 
#    z 0.000000 0.000000 1.805940 
# 
# From -- ./inp_files/8578.got.cif
#   From: 2010.03.12/outbox.cif.g09.slc.cpg/sg64_5_cif.got.tgz:8578.got - 2010.04.10 20:19:32.
