data_PCOD8263220
_publ_section_title
;
Structure prediction by ZEFSAII (Michael W. Deem and Ramdas Pophale) SiO2 
 PCOD8263220
Probable space group: C M C A
;
_chemical_formula_sum "Si O2"
_cell_formula_units_Z 96
_cell_length_a 22.929190
_cell_length_b 12.695966
_cell_length_c 15.996253
_cell_angle_alpha 90.000000
_cell_angle_beta 90.000000
_cell_angle_gamma 90.000000
_cell_volume 4656.640684
_symmetry_space_group_name_H-M "C M C A"
_symmetry_group_IT_number 64
_symmetry_cell_setting 'orthorhombic'
loop_
_space_group_symop_operation_xyz
x,y,z
-x,1/2-y,1/2+z
x,-y,-z
-x,1/2+y,1/2-z
-x,-y,-z
x,1/2+y,1/2-z
-x,y,z
x,1/2-y,1/2+z
1/2+x,1/2+y,z
1/2-x,-y,1/2+z
1/2+x,1/2-y,-z
1/2-x,y,1/2-z
1/2-x,1/2-y,-z
1/2+x,y,1/2-z
1/2-x,1/2+y,z
1/2+x,-y,1/2+z
loop_
_atom_site_type_symbol
_atom_site_label
_atom_site_fract_x
_atom_site_fract_y
_atom_site_fract_z
Si Si1 0.565939 0.428150 0.337111
Si Si2 0.659211 0.604576 0.961952
Si Si3 0.876844 0.646799 0.198568
Si Si4 0.735995 0.236990 0.660155
Si Si5 0.936671 0.353896 0.349632
Si Si6 0.865798 0.724143 0.379211
O O1 0.500000 0.439493 0.375522
O O2 0.602043 0.536741 0.339851
O O3 0.559021 0.396060 0.242644
O O4 0.603861 0.339008 0.384209
O O5 0.709636 0.660557 0.909440
O O6 0.607656 0.570665 0.898836
O O7 0.688212 0.500000 0.000000
O O8 0.623565 0.670440 0.031811
O O9 0.808071 0.665547 0.179287
O O10 0.912639 0.735135 0.148980
O O11 0.889118 0.658470 0.298632
O O12 0.750000 0.179701 0.750000
O O13 0.795885 0.276057 0.622327
O O14 0.000000 0.355754 0.392484
#
# Coordination Sequence:
#
# PCOD8263220 Si02
#       6
#    16  16  16  16  16  16
#     4  10  20  36  60  86 114 153 199 244 290 347
#     4  11  22  36  56  84 118 153 193 247 306 355
#     4   9  18  36  60  83 109 151 198 239 289 352
#     4   9  20  39  60  83 114 152 195 240 292 358
#     4   9  19  35  53  77 112 150 191 239 289 351
#     4  10  21  36  56  87 119 148 193 247 297 350
#
# _framework density 20.615718999999999
#
# number of rings (size 3 to 8) (size 9 to 14) (size 15 to 20)
#    0.000    2.333    0.000    3.000    0.000    3.000 
#    0.000   13.333    0.000    5.000    0.000    0.000 
#    0.000    0.000    0.000    0.000    0.000    0.000 
#
# Total GULP energy -594750.798083 kJ/mol
# GULP energy per Si atom -12390.641627 kJ/mol
# Density = 2.056880 g / cm^3
# Si number density = 20.615719 Si / 1000 Ang^3
#
#
#
# Elastic Constant Matrix: (Units=GPa)
#
#
# Indices 1 2 3 4 5 6 
#
# 1 104.7903 24.7995 4.3346 0.0000 0.0000 0.0000
# 2 24.7995 107.8151 23.8930 0.0000 0.0000 0.0000
# 3 4.3346 23.8930 62.3996 0.0000 0.0000 0.0000
# 4 0.0000 0.0000 0.0000 22.7709 0.0000 0.0000
# 5 0.0000 0.0000 0.0000 0.0000 14.8197 0.0000
# 6 0.0000 0.0000 0.0000 0.0000 0.0000 17.1494
#
#
#
# Elastic Compliance Matrix: (Units=1/GPa)
#
#
# Indices 1 2 3 4 5 6 
#
# 1 0.010095 -0.002367 0.000205 0.000000 0.000000 0.000000
# 2 -0.002367 0.010690 -0.003929 0.000000 0.000000 0.000000
# 3 0.000205 -0.003929 0.017516 0.000000 0.000000 0.000000
# 4 0.000000 0.000000 0.000000 0.043916 0.000000 0.000000
# 5 0.000000 0.000000 0.000000 0.000000 0.067478 0.000000
# 6 0.000000 0.000000 0.000000 0.000000 0.000000 0.058311
#
#
# Mechanical properties :
#
#
# Convention : Reuss Voigt Hill
#
# Bulk Modulus (GPa) = 38.28672 42.33993 40.31333
# Shear Modulus (GPa) = 21.84416 25.74651 23.79533
#
# Velocity S-wave (km/s) = 3.25866 3.53778 3.40109
# Velocity P-wave (km/s) = 5.72455 6.10493 5.91779
#
# Compressibility (1/GPa) = 0.02611871
#
# Stress axis : x y z
#
# Youngs Moduli (GPa) = 99.06234 93.54188 57.09103
#
# Poissons Ratio (x) = 0.22146 -0.01172
# Poissons Ratio (y) = 0.23453 0.22431
# Poissons Ratio (z) = -0.02034 0.36752
#
# Static dielectric constant tensor:
#      x y z
#    x 4.048770 0.000000 0.000000 
#    y 0.000000 3.568990 0.000000 
#    z 0.000000 0.000000 3.850250 
# 
# 
# High freq. dielectric constant tensor:
#      x y z
#    x 1.814480 0.000000 0.000000 
#    y 0.000000 1.784330 0.000000 
#    z 0.000000 0.000000 1.803070 
# 
# From -- ./inp_files/34953.got.cif
#   From: 2010.03.12/outbox.cif.g09.slc.cpg/sg64_18_cif.got.tgz:34953.got - 2010.04.10 20:19:32.
