data_PCOD8263209
_publ_section_title
;
Structure prediction by ZEFSAII (Michael W. Deem and Ramdas Pophale) SiO2 
 PCOD8263209
Probable space group: C M C A
;
_chemical_formula_sum "Si O2"
_cell_formula_units_Z 112
_cell_length_a 14.922325
_cell_length_b 14.629960
_cell_length_c 26.939470
_cell_angle_alpha 90.000000
_cell_angle_beta 90.000000
_cell_angle_gamma 90.000000
_cell_volume 5881.236995
_symmetry_space_group_name_H-M "C M C A"
_symmetry_group_IT_number 64
_symmetry_cell_setting 'orthorhombic'
loop_
_space_group_symop_operation_xyz
x,y,z
-x,1/2-y,1/2+z
x,-y,-z
-x,1/2+y,1/2-z
-x,-y,-z
x,1/2+y,1/2-z
-x,y,z
x,1/2-y,1/2+z
1/2+x,1/2+y,z
1/2-x,-y,1/2+z
1/2+x,1/2-y,-z
1/2-x,y,1/2-z
1/2-x,1/2-y,-z
1/2+x,y,1/2-z
1/2-x,1/2+y,z
1/2+x,-y,1/2+z
loop_
_atom_site_type_symbol
_atom_site_label
_atom_site_fract_x
_atom_site_fract_y
_atom_site_fract_z
Si Si1 0.738086 0.415753 0.375288
Si Si2 0.178113 0.147614 0.207263
Si Si3 0.396577 0.843779 0.206020
Si Si4 0.806625 0.221451 0.953415
Si Si5 0.252470 0.117191 0.101634
Si Si6 0.101295 0.903006 0.978286
Si Si7 0.102375 0.954227 0.196611
O O1 0.661257 0.380354 0.339337
O O2 0.746578 0.347138 0.420807
O O3 0.708181 0.515156 0.395693
O O4 0.834318 0.423644 0.348429
O O5 0.250000 0.133113 0.250000
O O6 0.120003 0.237531 0.216877
O O7 0.230449 0.156253 0.155639
O O8 0.111453 0.061693 0.207299
O O9 0.500000 0.860380 0.192811
O O10 0.367845 0.898800 0.254885
O O11 0.827263 0.313665 0.921679
O O12 0.750000 0.250000 0.000000
O O13 0.893037 0.169912 0.976043
O O14 0.162466 0.121915 0.068555
O O15 0.000000 0.906086 0.958580
O O16 0.132495 0.000000 0.000000
O O17 0.000000 0.932040 0.181739
#
# Coordination Sequence:
#
# PCOD8263209 Si02
#       7
#    16  16  16  16  16  16  16
#     4  11  20  38  60  83 119 156 196 249 302 361
#     4  11  21  37  62  88 118 157 199 242 300 364
#     4  11  23  39  58  85 120 160 203 248 296 354
#     4  10  21  37  55  86 114 149 196 240 300 363
#     4  10  21  36  60  87 114 156 196 241 297 369
#     4  10  20  36  59  88 121 152 192 254 309 353
#     4  10  22  37  57  87 119 154 198 245 297 361
#
# _framework density 19.043613000000001
#
# number of rings (size 3 to 8) (size 9 to 14) (size 15 to 20)
#    0.000    1.571    2.857    3.429    0.000    3.429 
#    0.000    0.714    0.000    0.000    0.000    4.000 
#    0.000    0.000    0.000    0.000    0.000    0.000 
#
# Total GULP energy -694362.494479 kJ/mol
# GULP energy per Si atom -12399.330259 kJ/mol
# Density = 1.900027 g / cm^3
# Si number density = 19.043613 Si / 1000 Ang^3
#
#
#
# Elastic Constant Matrix: (Units=GPa)
#
#
# Indices 1 2 3 4 5 6 
#
# 1 60.0467 21.9945 29.7611 0.0000 0.0000 0.0000
# 2 21.9945 117.7033 45.4188 0.0000 0.0000 0.0000
# 3 29.7611 45.4188 110.6491 0.0000 0.0000 0.0000
# 4 0.0000 0.0000 0.0000 43.1180 0.0000 0.0000
# 5 0.0000 0.0000 0.0000 0.0000 23.8454 0.0000
# 6 0.0000 0.0000 0.0000 0.0000 0.0000 21.7355
#
#
#
# Elastic Compliance Matrix: (Units=1/GPa)
#
#
# Indices 1 2 3 4 5 6 
#
# 1 0.019578 -0.001933 -0.004473 0.000000 0.000000 0.000000
# 2 -0.001933 0.010286 -0.003702 0.000000 0.000000 0.000000
# 3 -0.004473 -0.003702 0.011760 0.000000 0.000000 0.000000
# 4 0.000000 0.000000 0.000000 0.023192 0.000000 0.000000
# 5 0.000000 0.000000 0.000000 0.000000 0.041937 0.000000
# 6 0.000000 0.000000 0.000000 0.000000 0.000000 0.046008
#
#
# Mechanical properties :
#
#
# Convention : Reuss Voigt Hill
#
# Bulk Modulus (GPa) = 46.70861 53.63868 50.17364
# Shear Modulus (GPa) = 27.76044 30.48809 29.12427
#
# Velocity S-wave (km/s) = 3.82216 4.00554 3.91493
# Velocity P-wave (km/s) = 6.63770 7.04414 6.84393
#
# Compressibility (1/GPa) = 0.02140933
#
# Stress axis : x y z
#
# Youngs Moduli (GPa) = 51.07668 97.22271 85.03210
#
# Poissons Ratio (x) = 0.18789 0.38032
# Poissons Ratio (y) = 0.09871 0.31481
# Poissons Ratio (z) = 0.22845 0.35994
#
# Static dielectric constant tensor:
#      x y z
#    x 3.239430 0.000000 0.000000 
#    y 0.000000 4.001500 0.000000 
#    z 0.000000 0.000000 3.696470 
# 
# 
# High freq. dielectric constant tensor:
#      x y z
#    x 1.708000 0.000000 0.000000 
#    y 0.000000 1.762800 0.000000 
#    z 0.000000 0.000000 1.754430 
# 
# From -- ./inp_files/45227.got.cif
#   From: 2010.03.12/outbox.cif.g09.slc.cpg/sg64_23_cif.got.tgz:45227.got - 2010.04.10 20:19:32.
