data_PCOD8263072
_publ_section_title
;
Structure prediction by ZEFSAII (Michael W. Deem and Ramdas Pophale) SiO2 
 PCOD8263072
Probable space group: C M C A
;
_chemical_formula_sum "Si O2"
_cell_formula_units_Z 96
_cell_length_a 8.731687
_cell_length_b 19.828969
_cell_length_c 27.995088
_cell_angle_alpha 90.000000
_cell_angle_beta 90.000000
_cell_angle_gamma 90.000000
_cell_volume 4847.079358
_symmetry_space_group_name_H-M "C M C A"
_symmetry_group_IT_number 64
_symmetry_cell_setting 'orthorhombic'
loop_
_space_group_symop_operation_xyz
x,y,z
-x,1/2-y,1/2+z
x,-y,-z
-x,1/2+y,1/2-z
-x,-y,-z
x,1/2+y,1/2-z
-x,y,z
x,1/2-y,1/2+z
1/2+x,1/2+y,z
1/2-x,-y,1/2+z
1/2+x,1/2-y,-z
1/2-x,y,1/2-z
1/2-x,1/2-y,-z
1/2+x,y,1/2-z
1/2-x,1/2+y,z
1/2+x,-y,1/2+z
loop_
_atom_site_type_symbol
_atom_site_label
_atom_site_fract_x
_atom_site_fract_y
_atom_site_fract_z
Si Si1 0.175942 0.980160 0.946938
Si Si2 0.320179 0.357871 0.605433
Si Si3 0.176636 0.117830 0.894106
Si Si4 0.819501 0.235995 0.551006
Si Si5 0.679653 0.169376 0.799938
Si Si6 0.679380 0.326491 0.799847
O O1 0.197284 0.041071 0.910165
O O2 0.000000 0.955638 0.948614
O O3 0.280843 0.919317 0.929272
O O4 0.230694 0.000000 0.000000
O O5 0.500000 0.345888 0.605375
O O6 0.236930 0.290440 0.588672
O O7 0.259563 0.371033 0.659033
O O8 0.269487 0.162555 0.931702
O O9 0.242929 0.125213 0.841108
O O10 0.000000 0.140100 0.894855
O O11 0.750000 0.250000 0.500000
O O12 0.000000 0.239032 0.547388
O O13 0.500000 0.155477 0.799871
O O14 0.750000 0.144828 0.750000
O O15 0.716613 0.247860 0.808549
O O16 0.500000 0.341128 0.799824
O O17 0.750000 0.350915 0.750000
#
# Coordination Sequence:
#
# PCOD8263072 Si02
#       6
#    16  16  16  16  16  16
#     4  10  23  43  64  86 120 165 207 252 308 364
#     4  12  24  39  62  91 123 161 204 251 302 364
#     4  11  22  38  62  91 122 159 202 250 304 365
#     4  12  24  39  60  88 121 156 200 255 305 357
#     4  10  20  35  59  89 123 161 198 249 304 361
#     4  10  20  36  60  90 124 161 199 249 305 361
#
# _framework density 19.805741000000001
#
# number of rings (size 3 to 8) (size 9 to 14) (size 15 to 20)
#    0.000    1.167    1.667    5.500    0.000    4.333 
#    0.000    0.833    0.000    4.000    0.000    0.000 
#    0.000    0.000    0.000    0.000    0.000    0.000 
#
# Total GULP energy -595529.747625 kJ/mol
# GULP energy per Si atom -12406.869742 kJ/mol
# Density = 1.976066 g / cm^3
# Si number density = 19.805741 Si / 1000 Ang^3
#
#
#
# Elastic Constant Matrix: (Units=GPa)
#
#
# Indices 1 2 3 4 5 6 
#
# 1 136.0176 18.6401 38.3985 0.0000 0.0000 0.0000
# 2 18.6401 34.4714 5.0579 0.0000 0.0000 0.0000
# 3 38.3985 5.0579 125.5167 0.0000 0.0000 0.0000
# 4 0.0000 0.0000 0.0000 33.6060 0.0000 0.0000
# 5 0.0000 0.0000 0.0000 0.0000 40.7207 0.0000
# 6 0.0000 0.0000 0.0000 0.0000 0.0000 29.0386
#
#
#
# Elastic Compliance Matrix: (Units=1/GPa)
#
#
# Indices 1 2 3 4 5 6 
#
# 1 0.008640 -0.004310 -0.002469 0.000000 0.000000 0.000000
# 2 -0.004310 0.031332 0.000056 0.000000 0.000000 0.000000
# 3 -0.002469 0.000056 0.008720 0.000000 0.000000 0.000000
# 4 0.000000 0.000000 0.000000 0.029757 0.000000 0.000000
# 5 0.000000 0.000000 0.000000 0.000000 0.024558 0.000000
# 6 0.000000 0.000000 0.000000 0.000000 0.000000 0.034437
#
#
# Mechanical properties :
#
#
# Convention : Reuss Voigt Hill
#
# Bulk Modulus (GPa) = 28.37245 46.68874 37.53059
# Shear Modulus (GPa) = 30.74322 36.26701 33.50512
#
# Velocity S-wave (km/s) = 3.94412 4.28382 4.11747
# Velocity P-wave (km/s) = 5.92435 6.93489 6.44944
#
# Compressibility (1/GPa) = 0.03524546
#
# Stress axis : x y z
#
# Youngs Moduli (GPa) = 115.74462 31.91652 114.67533
#
# Poissons Ratio (x) = 0.13755 0.28318
# Poissons Ratio (y) = 0.49880 -0.00640
# Poissons Ratio (z) = 0.28582 -0.00178
#
# Static dielectric constant tensor:
#      x y z
#    x 3.688540 0.000000 0.000000 
#    y 0.000000 3.397500 0.000000 
#    z 0.000000 0.000000 4.160020 
# 
# 
# High freq. dielectric constant tensor:
#      x y z
#    x 1.785640 0.000000 0.000000 
#    y 0.000000 1.748450 0.000000 
#    z 0.000000 0.000000 1.793410 
# 
# From -- ./inp_files/48082.got.cif
#   From: 2010.03.12/outbox.cif.g09.slc.cpg/sg64_25_cif.got.tgz:48082.got - 2010.04.10 20:19:32.
