data_PCOD8263778
_publ_section_title
;
Structure prediction by ZEFSAII (Michael W. Deem and Ramdas Pophale) SiO2 
 PCOD8263778
Probable space group: C M C A
;
_chemical_formula_sum "Si O2"
_cell_formula_units_Z 56
_cell_length_a 14.504521
_cell_length_b 22.052347
_cell_length_c 8.076497
_cell_angle_alpha 90.000000
_cell_angle_beta 90.000000
_cell_angle_gamma 90.000000
_cell_volume 2583.338075
_symmetry_space_group_name_H-M "C M C A"
_symmetry_group_IT_number 64
_symmetry_cell_setting 'orthorhombic'
loop_
_space_group_symop_operation_xyz
x,y,z
-x,1/2-y,1/2+z
x,-y,-z
-x,1/2+y,1/2-z
-x,-y,-z
x,1/2+y,1/2-z
-x,y,z
x,1/2-y,1/2+z
1/2+x,1/2+y,z
1/2-x,-y,1/2+z
1/2+x,1/2-y,-z
1/2-x,y,1/2-z
1/2-x,1/2-y,-z
1/2+x,y,1/2-z
1/2-x,1/2+y,z
1/2+x,-y,1/2+z
loop_
_atom_site_type_symbol
_atom_site_label
_atom_site_fract_x
_atom_site_fract_y
_atom_site_fract_z
Si Si1 0.814983 0.438475 0.904697
Si Si2 0.841697 0.338858 0.167484
Si Si3 0.500000 0.220342 0.019355
Si Si4 0.000000 0.398005 0.765399
Si Si5 0.000000 0.140809 0.895901
O O1 0.750000 0.428039 0.750000
O O2 0.916884 0.438082 0.831583
O O3 0.792450 0.500000 0.000000
O O4 0.800601 0.383866 0.031824
O O5 0.750000 0.309043 0.250000
O O6 0.906365 0.287004 0.087940
O O7 0.906905 0.376753 0.295469
O O8 0.500000 0.170619 0.165620
O O9 0.500000 0.286604 0.091824
O O10 0.000000 0.394894 0.567203
#
# Coordination Sequence:
#
# PCOD8263778 Si02
#       5
#    16  16   8   8   8
#     4  11  23  41  62  87 118 152 194 243 295 349
#     4  10  21  38  60  88 119 155 198 240 286 344
#     4   9  21  38  58  87 123 158 197 241 284 339
#     4  10  21  37  60  89 120 156 196 238 286 345
#     4  11  21  39  61  86 122 158 193 239 289 338
#
# _framework density 21.677378999999998
#
# number of rings (size 3 to 8) (size 9 to 14) (size 15 to 20)
#    0.000    1.714    0.000    5.571    0.000    1.143 
#    0.000    9.286    0.000    0.000    0.000    0.000 
#    0.000    0.000    0.000    0.000    0.000    0.000 
#
# Total GULP energy -347166.598574 kJ/mol
# GULP energy per Si atom -12398.807092 kJ/mol
# Density = 2.162804 g / cm^3
# Si number density = 21.677379 Si / 1000 Ang^3
#
#
#
# Elastic Constant Matrix: (Units=GPa)
#
#
# Indices 1 2 3 4 5 6 
#
# 1 157.7864 19.2317 52.5508 0.0000 0.0000 0.0000
# 2 19.2317 66.3569 24.8086 0.0000 0.0000 0.0000
# 3 52.5508 24.8086 138.9389 0.0000 0.0000 0.0000
# 4 0.0000 0.0000 0.0000 31.6497 0.0000 0.0000
# 5 0.0000 0.0000 0.0000 0.0000 34.7967 0.0000
# 6 0.0000 0.0000 0.0000 0.0000 0.0000 17.9639
#
#
#
# Elastic Compliance Matrix: (Units=1/GPa)
#
#
# Indices 1 2 3 4 5 6 
#
# 1 0.007334 -0.001166 -0.002566 0.000000 0.000000 0.000000
# 2 -0.001166 0.016333 -0.002475 0.000000 0.000000 0.000000
# 3 -0.002566 -0.002475 0.008610 0.000000 0.000000 0.000000
# 4 0.000000 0.000000 0.000000 0.031596 0.000000 0.000000
# 5 0.000000 0.000000 0.000000 0.000000 0.028738 0.000000
# 6 0.000000 0.000000 0.000000 0.000000 0.000000 0.055667
#
#
# Mechanical properties :
#
#
# Convention : Reuss Voigt Hill
#
# Bulk Modulus (GPa) = 50.34559 61.80716 56.07637
# Shear Modulus (GPa) = 29.88372 34.64814 32.26593
#
# Velocity S-wave (km/s) = 3.71693 4.00228 3.86224
# Velocity P-wave (km/s) = 6.45726 7.06625 6.76860
#
# Compressibility (1/GPa) = 0.01986271
#
# Stress axis : x y z
#
# Youngs Moduli (GPa) = 136.34396 61.22390 116.14590
#
# Poissons Ratio (x) = 0.07141 0.29801
# Poissons Ratio (y) = 0.15903 0.28750
# Poissons Ratio (z) = 0.34983 0.15155
#
# Static dielectric constant tensor:
#      x y z
#    x 4.026810 0.000000 0.000000 
#    y 0.000000 3.409070 0.000000 
#    z 0.000000 0.000000 4.311430 
# 
# 
# High freq. dielectric constant tensor:
#      x y z
#    x 1.866100 0.000000 0.000000 
#    y 0.000000 1.813910 0.000000 
#    z 0.000000 0.000000 1.878060 
# 
# From -- ./inp_files/5407.got.cif
#   From: 2010.03.12/outbox.cif.g09.slc.cpg/sg64_3_cif.got.tgz:5407.got - 2010.04.10 20:19:32.
