data_PCOD8263439
_publ_section_title
;
Structure prediction by ZEFSAII (Michael W. Deem and Ramdas Pophale) SiO2 
 PCOD8263439
Probable space group: C M C A
;
_chemical_formula_sum "Si O2"
_cell_formula_units_Z 104
_cell_length_a 21.507812
_cell_length_b 29.790408
_cell_length_c 7.721027
_cell_angle_alpha 90.000000
_cell_angle_beta 90.000000
_cell_angle_gamma 90.000000
_cell_volume 4947.066565
_symmetry_space_group_name_H-M "C M C A"
_symmetry_group_IT_number 64
_symmetry_cell_setting 'orthorhombic'
loop_
_space_group_symop_operation_xyz
x,y,z
-x,1/2-y,1/2+z
x,-y,-z
-x,1/2+y,1/2-z
-x,-y,-z
x,1/2+y,1/2-z
-x,y,z
x,1/2-y,1/2+z
1/2+x,1/2+y,z
1/2-x,-y,1/2+z
1/2+x,1/2-y,-z
1/2-x,y,1/2-z
1/2-x,1/2-y,-z
1/2+x,y,1/2-z
1/2-x,1/2+y,z
1/2+x,-y,1/2+z
loop_
_atom_site_type_symbol
_atom_site_label
_atom_site_fract_x
_atom_site_fract_y
_atom_site_fract_z
Si Si1 0.931147 0.196457 0.203552
Si Si2 0.885036 0.896989 0.751081
Si Si3 0.069154 0.709128 0.893147
Si Si4 0.750000 0.917694 0.250000
Si Si5 0.711864 0.541443 0.086674
Si Si6 0.500000 0.543035 0.278924
Si Si7 0.000000 0.558365 0.815092
Si Si8 0.619793 0.883442 0.157941
O O1 0.894521 0.151190 0.155959
O O2 0.936094 0.197419 0.408272
O O3 0.000000 0.193087 0.121359
O O4 0.897828 0.242163 0.135294
O O5 0.825648 0.916197 0.847157
O O6 0.940351 0.931293 0.795825
O O7 0.873373 0.892396 0.546838
O O8 0.105728 0.668839 0.800698
O O9 0.000000 0.712020 0.810042
O O10 0.757571 0.944469 0.430135
O O11 0.815530 0.891010 0.240638
O O12 0.750000 0.522036 0.250000
O O13 0.672485 0.500000 0.000000
O O14 0.500000 0.490508 0.220935
O O15 0.500000 0.548450 0.483243
O O16 0.937137 0.586053 0.767063
#
# Coordination Sequence:
#
# PCOD8263439 Si02
#       8
#    16  16  16   8  16   8   8  16
#     4   9  17  32  59  92 126 166 206 265 324 388
#     4  10  20  39  64  89 129 168 212 264 335 388
#     4   9  17  32  58  90 124 165 214 259 327 392
#     4  12  26  42  66  94 128 170 220 268 326 382
#     4  12  26  45  65  90 124 171 220 270 318 382
#     4   9  18  32  59  89 120 165 207 255 325 393
#     4   9  18  32  58  90 123 165 210 258 330 381
#     4  10  20  38  63  93 127 168 216 274 326 394
#
# _framework density 21.022559000000001
#
# number of rings (size 3 to 8) (size 9 to 14) (size 15 to 20)
#    0.000    2.000    3.846    0.000    2.154    1.231 
#    0.000    1.154    1.692    2.769    0.000    0.000 
#    0.000    0.000    0.000    0.000    0.000    0.000 
#
# Total GULP energy -644219.137935 kJ/mol
# GULP energy per Si atom -12388.829576 kJ/mol
# Density = 2.097471 g / cm^3
# Si number density = 21.022559 Si / 1000 Ang^3
#
#
#
# Elastic Constant Matrix: (Units=GPa)
#
#
# Indices 1 2 3 4 5 6 
#
# 1 98.4224 57.6861 22.0824 0.0000 0.0000 0.0000
# 2 57.6861 198.7036 31.9046 0.0000 0.0000 0.0000
# 3 22.0824 31.9046 56.3859 0.0000 0.0000 0.0000
# 4 0.0000 0.0000 0.0000 30.5544 0.0000 0.0000
# 5 0.0000 0.0000 0.0000 0.0000 19.2437 0.0000
# 6 0.0000 0.0000 0.0000 0.0000 0.0000 22.6829
#
#
#
# Elastic Compliance Matrix: (Units=1/GPa)
#
#
# Indices 1 2 3 4 5 6 
#
# 1 0.012744 -0.003188 -0.003187 0.000000 0.000000 0.000000
# 2 -0.003188 0.006333 -0.002335 0.000000 0.000000 0.000000
# 3 -0.003187 -0.002335 0.020304 0.000000 0.000000 0.000000
# 4 0.000000 0.000000 0.000000 0.032728 0.000000 0.000000
# 5 0.000000 0.000000 0.000000 0.000000 0.051965 0.000000
# 6 0.000000 0.000000 0.000000 0.000000 0.000000 0.044086
#
#
# Mechanical properties :
#
#
# Convention : Reuss Voigt Hill
#
# Bulk Modulus (GPa) = 45.53464 64.09534 54.81499
# Shear Modulus (GPa) = 25.92006 30.61880 28.26943
#
# Velocity S-wave (km/s) = 3.51517 3.82052 3.67102
# Velocity P-wave (km/s) = 6.17917 7.07226 6.64074
#
# Compressibility (1/GPa) = 0.02196130
#
# Stress axis : x y z
#
# Youngs Moduli (GPa) = 78.46937 157.90232 49.25086
#
# Poissons Ratio (x) = 0.50339 0.15696
# Poissons Ratio (y) = 0.25016 0.11500
# Poissons Ratio (z) = 0.25008 0.36869
#
# Static dielectric constant tensor:
#      x y z
#    x 3.522680 0.000000 0.000000 
#    y 0.000000 4.253770 0.000000 
#    z 0.000000 0.000000 3.647240 
# 
# 
# High freq. dielectric constant tensor:
#      x y z
#    x 1.783330 0.000000 0.000000 
#    y 0.000000 1.840230 0.000000 
#    z 0.000000 0.000000 1.815640 
# 
# From -- ./inp_files/8722.got.cif
#   From: 2010.03.12/outbox.cif.g09.slc.cpg/sg64_5_cif.got.tgz:8722.got - 2010.04.10 20:19:32.
