data_PCOD8263556
_publ_section_title
;
Structure prediction by ZEFSAII (Michael W. Deem and Ramdas Pophale) SiO2 
 PCOD8263556
Probable space group: C M C A
;
_chemical_formula_sum "Si O2"
_cell_formula_units_Z 112
_cell_length_a 22.580434
_cell_length_b 21.478477
_cell_length_c 11.279347
_cell_angle_alpha 90.000000
_cell_angle_beta 90.000000
_cell_angle_gamma 90.000000
_cell_volume 5470.408088
_symmetry_space_group_name_H-M "C M C A"
_symmetry_group_IT_number 64
_symmetry_cell_setting 'orthorhombic'
loop_
_space_group_symop_operation_xyz
x,y,z
-x,1/2-y,1/2+z
x,-y,-z
-x,1/2+y,1/2-z
-x,-y,-z
x,1/2+y,1/2-z
-x,y,z
x,1/2-y,1/2+z
1/2+x,1/2+y,z
1/2-x,-y,1/2+z
1/2+x,1/2-y,-z
1/2-x,y,1/2-z
1/2-x,1/2-y,-z
1/2+x,y,1/2-z
1/2-x,1/2+y,z
1/2+x,-y,1/2+z
loop_
_atom_site_type_symbol
_atom_site_label
_atom_site_fract_x
_atom_site_fract_y
_atom_site_fract_z
Si Si1 0.066267 0.001591 0.867391
Si Si2 0.433092 0.196173 0.598827
Si Si3 0.353133 0.894526 0.276771
Si Si4 0.655422 0.572826 0.511405
Si Si5 0.394313 0.628234 0.133363
Si Si6 0.287205 0.072959 0.496873
Si Si7 0.069914 0.164834 0.375751
O O1 0.102853 0.047646 0.787608
O O2 0.000000 0.027337 0.868723
O O3 0.070279 0.932008 0.817500
O O4 0.093223 0.000000 0.000000
O O5 0.500000 0.190453 0.647507
O O6 0.388799 0.169631 0.699116
O O7 0.427196 0.155839 0.480090
O O8 0.418921 0.267657 0.565826
O O9 0.332260 0.900180 0.142547
O O10 0.299253 0.899896 0.370743
O O11 0.637735 0.500000 0.500000
O O12 0.719891 0.583321 0.452312
O O13 0.603899 0.612159 0.449739
O O14 0.327264 0.609120 0.099887
O O15 0.400188 0.673552 0.245559
O O16 0.301858 0.000000 0.500000
O O17 0.000000 0.148681 0.371156
#
# Coordination Sequence:
#
# PCOD8263556 Si02
#       7
#    16  16  16  16  16  16  16
#     4  11  18  29  57  96 125 149 201 263 307 349
#     4  10  22  39  64  91 120 166 213 257 303 363
#     4  11  20  38  61  94 128 162 208 254 314 369
#     4  11  26  41  64  93 129 169 201 254 322 384
#     4  11  20  39  65  90 121 160 209 262 302 359
#     4  10  20  40  67  96 120 157 213 259 306 359
#     4  11  26  43  61  91 129 168 207 249 310 381
#
# _framework density 20.473793000000001
#
# number of rings (size 3 to 8) (size 9 to 14) (size 15 to 20)
#    0.000    1.286    4.286    3.000    2.000    2.000 
#    0.000    2.857    6.286    0.000    0.000    0.000 
#    0.000    0.000    0.000    0.000    0.000    0.000 
#
# Total GULP energy -694191.680621 kJ/mol
# GULP energy per Si atom -12396.280011 kJ/mol
# Density = 2.042719 g / cm^3
# Si number density = 20.473793 Si / 1000 Ang^3
#
#
#
# Elastic Constant Matrix: (Units=GPa)
#
#
# Indices 1 2 3 4 5 6 
#
# 1 118.4677 56.6309 30.8274 0.0000 0.0000 0.0000
# 2 56.6309 110.9024 13.4120 0.0000 0.0000 0.0000
# 3 30.8274 13.4120 62.5433 0.0000 0.0000 0.0000
# 4 0.0000 0.0000 0.0000 22.9687 0.0000 0.0000
# 5 0.0000 0.0000 0.0000 0.0000 20.3891 0.0000
# 6 0.0000 0.0000 0.0000 0.0000 0.0000 20.5327
#
#
#
# Elastic Compliance Matrix: (Units=1/GPa)
#
#
# Indices 1 2 3 4 5 6 
#
# 1 0.012483 -0.005780 -0.004913 0.000000 0.000000 0.000000
# 2 -0.005780 0.011933 0.000290 0.000000 0.000000 0.000000
# 3 -0.004913 0.000290 0.018348 0.000000 0.000000 0.000000
# 4 0.000000 0.000000 0.000000 0.043537 0.000000 0.000000
# 5 0.000000 0.000000 0.000000 0.000000 0.049046 0.000000
# 6 0.000000 0.000000 0.000000 0.000000 0.000000 0.048703
#
#
# Mechanical properties :
#
#
# Convention : Reuss Voigt Hill
#
# Bulk Modulus (GPa) = 45.54157 54.85044 50.19600
# Shear Modulus (GPa) = 23.56534 25.51431 24.53982
#
# Velocity S-wave (km/s) = 3.39632 3.53398 3.46583
# Velocity P-wave (km/s) = 6.13776 6.59551 6.37075
#
# Compressibility (1/GPa) = 0.02195796
#
# Stress axis : x y z
#
# Youngs Moduli (GPa) = 80.11185 83.79913 54.50053
#
# Poissons Ratio (x) = 0.48435 0.26777
# Poissons Ratio (y) = 0.46304 -0.01580
# Poissons Ratio (z) = 0.39360 -0.02429
#
# Static dielectric constant tensor:
#      x y z
#    x 3.673110 0.000000 0.000000 
#    y 0.000000 3.795460 0.000000 
#    z 0.000000 0.000000 3.627990 
# 
# 
# High freq. dielectric constant tensor:
#      x y z
#    x 1.805710 0.000000 0.000000 
#    y 0.000000 1.796070 0.000000 
#    z 0.000000 0.000000 1.783470 
# 
# From -- ./inp_files/18557.got.cif
#   From: 2010.03.12/outbox.cif.g09.slc.cpg/sg64_10_cif.got.tgz:18557.got - 2010.04.10 20:19:32.
