data_PCOD8263031
_publ_section_title
;
Structure prediction by ZEFSAII (Michael W. Deem and Ramdas Pophale) SiO2 
 PCOD8263031
Probable space group: C M C A
;
_chemical_formula_sum "Si O2"
_cell_formula_units_Z 104
_cell_length_a 20.947604
_cell_length_b 26.184541
_cell_length_c 10.069638
_cell_angle_alpha 90.000000
_cell_angle_beta 90.000000
_cell_angle_gamma 90.000000
_cell_volume 5523.230637
_symmetry_space_group_name_H-M "C M C A"
_symmetry_group_IT_number 64
_symmetry_cell_setting 'orthorhombic'
loop_
_space_group_symop_operation_xyz
x,y,z
-x,1/2-y,1/2+z
x,-y,-z
-x,1/2+y,1/2-z
-x,-y,-z
x,1/2+y,1/2-z
-x,y,z
x,1/2-y,1/2+z
1/2+x,1/2+y,z
1/2-x,-y,1/2+z
1/2+x,1/2-y,-z
1/2-x,y,1/2-z
1/2-x,1/2-y,-z
1/2+x,y,1/2-z
1/2-x,1/2+y,z
1/2+x,-y,1/2+z
loop_
_atom_site_type_symbol
_atom_site_label
_atom_site_fract_x
_atom_site_fract_y
_atom_site_fract_z
Si Si1 0.179586 0.886866 0.258513
Si Si2 0.652650 0.121305 0.059790
Si Si3 0.250000 0.922270 0.750000
Si Si4 0.153230 0.005762 0.850827
Si Si5 0.072802 0.193567 0.790895
Si Si6 0.427433 0.717313 0.492681
Si Si7 0.425938 0.970705 0.874523
O O1 0.250000 0.860495 0.250000
O O2 0.162777 0.897971 0.410591
O O3 0.185106 0.939324 0.175712
O O4 0.124148 0.851715 0.195316
O O5 0.718098 0.115602 0.142327
O O6 0.624947 0.178279 0.064252
O O7 0.600743 0.086182 0.131526
O O8 0.201256 0.959471 0.823882
O O9 0.091124 0.001422 0.758240
O O10 0.129123 0.000000 0.000000
O O11 0.084968 0.229859 0.916881
O O12 0.082707 0.223928 0.651521
O O13 0.000000 0.171724 0.795944
O O14 0.500000 0.698238 0.464612
O O15 0.500000 0.966868 0.891928
O O16 0.395030 0.000000 0.000000
#
# Coordination Sequence:
#
# PCOD8263031 Si02
#       7
#    16  16   8  16  16  16  16
#     4  11  21  37  59  84 117 155 197 236 288 351
#     4  10  20  37  58  85 109 155 195 236 283 348
#     4  10  22  34  56  82 114 152 194 234 280 340
#     4  11  22  36  56  80 117 156 188 234 291 345
#     4   9  20  39  62  86 110 149 192 240 294 350
#     4   9  18  38  63  84 112 145 190 240 293 347
#     4  10  20  35  57  83 111 145 192 240 279 337
#
# _framework density 18.829560000000001
#
# number of rings (size 3 to 8) (size 9 to 14) (size 15 to 20)
#    0.000    2.000    2.308    1.385    0.000    1.538 
#    9.692    1.538    0.000    0.000    0.000    0.000 
#    0.000    0.000    0.000    0.000    0.000    0.000 
#
# Total GULP energy -644671.902598 kJ/mol
# GULP energy per Si atom -12397.536588 kJ/mol
# Density = 1.878670 g / cm^3
# Si number density = 18.829560 Si / 1000 Ang^3
#
#
#
# Elastic Constant Matrix: (Units=GPa)
#
#
# Indices 1 2 3 4 5 6 
#
# 1 85.5501 38.0305 22.6651 0.0000 0.0000 0.0000
# 2 38.0305 57.6243 24.5227 0.0000 0.0000 0.0000
# 3 22.6651 24.5227 97.6574 0.0000 0.0000 0.0000
# 4 0.0000 0.0000 0.0000 26.9930 0.0000 0.0000
# 5 0.0000 0.0000 0.0000 0.0000 28.5938 0.0000
# 6 0.0000 0.0000 0.0000 0.0000 0.0000 25.4105
#
#
#
# Elastic Compliance Matrix: (Units=1/GPa)
#
#
# Indices 1 2 3 4 5 6 
#
# 1 0.016675 -0.010478 -0.001239 0.000000 0.000000 0.000000
# 2 -0.010478 0.026014 -0.004101 0.000000 0.000000 0.000000
# 3 -0.001239 -0.004101 0.011557 0.000000 0.000000 0.000000
# 4 0.000000 0.000000 0.000000 0.037047 0.000000 0.000000
# 5 0.000000 0.000000 0.000000 0.000000 0.034973 0.000000
# 6 0.000000 0.000000 0.000000 0.000000 0.000000 0.039354
#
#
# Mechanical properties :
#
#
# Convention : Reuss Voigt Hill
#
# Bulk Modulus (GPa) = 44.22558 45.69647 44.96103
# Shear Modulus (GPa) = 24.41511 26.57370 25.49441
#
# Velocity S-wave (km/s) = 3.60479 3.76077 3.68361
# Velocity P-wave (km/s) = 6.39252 6.57107 6.48241
#
# Compressibility (1/GPa) = 0.02261135
#
# Stress axis : x y z
#
# Youngs Moduli (GPa) = 59.96947 38.44090 86.52665
#
# Poissons Ratio (x) = 0.40278 0.10721
# Poissons Ratio (y) = 0.62835 0.35481
# Poissons Ratio (z) = 0.07430 0.15763
#
# Static dielectric constant tensor:
#      x y z
#    x 3.511160 0.000000 0.000000 
#    y 0.000000 3.223860 0.000000 
#    z 0.000000 0.000000 3.575010 
# 
# 
# High freq. dielectric constant tensor:
#      x y z
#    x 1.733700 0.000000 0.000000 
#    y 0.000000 1.711020 0.000000 
#    z 0.000000 0.000000 1.735580 
# 
# From -- ./inp_files/8493.got.cif
#   From: 2010.03.12/outbox.cif.g09.slc.cpg/sg64_5_cif.got.tgz:8493.got - 2010.04.10 20:19:32.
