data_PCOD8263870
_publ_section_title
;
Structure prediction by ZEFSAII (Michael W. Deem and Ramdas Pophale) SiO2 
 PCOD8263870
Probable space group: C M C A
;
_chemical_formula_sum "Si O2"
_cell_formula_units_Z 40
_cell_length_a 15.914216
_cell_length_b 18.631177
_cell_length_c 5.298705
_cell_angle_alpha 90.000000
_cell_angle_beta 90.000000
_cell_angle_gamma 90.000000
_cell_volume 1571.069080
_symmetry_space_group_name_H-M "C M C A"
_symmetry_group_IT_number 64
_symmetry_cell_setting 'orthorhombic'
loop_
_space_group_symop_operation_xyz
x,y,z
-x,1/2-y,1/2+z
x,-y,-z
-x,1/2+y,1/2-z
-x,-y,-z
x,1/2+y,1/2-z
-x,y,z
x,1/2-y,1/2+z
1/2+x,1/2+y,z
1/2-x,-y,1/2+z
1/2+x,1/2-y,-z
1/2-x,y,1/2-z
1/2-x,1/2-y,-z
1/2+x,y,1/2-z
1/2-x,1/2+y,z
1/2+x,-y,1/2+z
loop_
_atom_site_type_symbol
_atom_site_label
_atom_site_fract_x
_atom_site_fract_y
_atom_site_fract_z
Si Si1 0.156543 0.718684 0.290353
Si Si2 0.500000 0.046821 0.753025
Si Si3 0.828949 0.081601 0.915703
O O1 0.110936 0.760202 0.525992
O O2 0.250000 0.750670 0.250000
O O3 0.160259 0.632760 0.339433
O O4 0.586235 0.092315 0.750247
O O5 0.500000 0.000000 0.500000
O O6 0.500000 0.000000 0.000000
O O7 0.750000 0.107582 0.750000
O O8 0.814590 0.000000 0.000000
#
# Coordination Sequence:
#
# PCOD8263870 Si02
#       3
#    16   8  16
#     4  10  21  38  61  91 127 165 206 259 321 378
#     4  10  24  42  60  92 132 162 203 270 325 370
#     4  11  22  39  67  95 124 167 218 263 318 389
#
# _framework density 25.460367999999999
#
# number of rings (size 3 to 8) (size 9 to 14) (size 15 to 20)
#    0.000    1.600    0.000    6.000    0.000    9.600 
#    0.000    2.000    0.000    0.000    0.000    2.800 
#    0.000    0.000    0.000    0.000    0.000    0.000 
#
# Total GULP energy -247802.253314 kJ/mol
# GULP energy per Si atom -12390.112666 kJ/mol
# Density = 2.540242 g / cm^3
# Si number density = 25.460368 Si / 1000 Ang^3
#
#
#
# Elastic Constant Matrix: (Units=GPa)
#
#
# Indices 1 2 3 4 5 6 
#
# 1 153.4539 -10.2860 27.5673 0.0000 0.0000 0.0000
# 2 -10.2860 174.1853 61.7921 0.0000 0.0000 0.0000
# 3 27.5673 61.7921 196.9362 0.0000 0.0000 0.0000
# 4 0.0000 0.0000 0.0000 61.1037 0.0000 0.0000
# 5 0.0000 0.0000 0.0000 0.0000 19.5746 0.0000
# 6 0.0000 0.0000 0.0000 0.0000 0.0000 -0.9329
#
#
#
# Elastic Compliance Matrix: (Units=1/GPa)
#
#
# Indices 1 2 3 4 5 6 
#
# 1 0.006790 0.000831 -0.001211 0.000000 0.000000 0.000000
# 2 0.000831 0.006562 -0.002175 0.000000 0.000000 0.000000
# 3 -0.001211 -0.002175 0.005930 0.000000 0.000000 0.000000
# 4 0.000000 0.000000 0.000000 0.016366 0.000000 0.000000
# 5 0.000000 0.000000 0.000000 0.000000 0.051087 0.000000
# 6 0.000000 0.000000 0.000000 0.000000 0.000000 -1.071955
#
#
# Mechanical properties :
#
#
# Convention : Reuss Voigt Hill
#
# Bulk Modulus (GPa) = 70.57090 75.85802 73.21446
# Shear Modulus (GPa) = -5.12617 45.64922 20.26152
#
# Velocity S-wave (km/s) = -1.42048 4.23892 2.82406
# Velocity P-wave (km/s) = 5.00877 7.33602 6.28112
#
# Compressibility (1/GPa) = 0.01417015
#
# Stress axis : x y z
#
# Youngs Moduli (GPa) = 147.27867 152.40004 168.64005
#
# Poissons Ratio (x) = -0.12658 0.20423
# Poissons Ratio (y) = -0.12233 0.36681
# Poissons Ratio (z) = 0.17836 0.33149
#
# Static dielectric constant tensor:
#      x y z
#    x 4.989400 0.000000 0.000000 
#    y 0.000000 4.286020 0.000000 
#    z 0.000000 0.000000 4.990060 
# 
# 
# High freq. dielectric constant tensor:
#      x y z
#    x 1.981630 0.000000 0.000000 
#    y 0.000000 2.016110 0.000000 
#    z 0.000000 0.000000 2.028520 
# 
# From -- ./inp_files/1055.got.cif
#   From: 2010.03.12/outbox.cif.g09.slc.cpg/sg64_1_cif.got.tgz:1055.got - 2010.04.10 20:19:32.
