data_PCOD8263062
_publ_section_title
;
Structure prediction by ZEFSAII (Michael W. Deem and Ramdas Pophale) SiO2 
 PCOD8263062
Probable space group: C M C A
;
_chemical_formula_sum "Si O2"
_cell_formula_units_Z 88
_cell_length_a 13.314719
_cell_length_b 13.033118
_cell_length_c 27.436284
_cell_angle_alpha 90.000000
_cell_angle_beta 90.000000
_cell_angle_gamma 90.000000
_cell_volume 4761.081572
_symmetry_space_group_name_H-M "C M C A"
_symmetry_group_IT_number 64
_symmetry_cell_setting 'orthorhombic'
loop_
_space_group_symop_operation_xyz
x,y,z
-x,1/2-y,1/2+z
x,-y,-z
-x,1/2+y,1/2-z
-x,-y,-z
x,1/2+y,1/2-z
-x,y,z
x,1/2-y,1/2+z
1/2+x,1/2+y,z
1/2-x,-y,1/2+z
1/2+x,1/2-y,-z
1/2-x,y,1/2-z
1/2-x,1/2-y,-z
1/2+x,y,1/2-z
1/2-x,1/2+y,z
1/2+x,-y,1/2+z
loop_
_atom_site_type_symbol
_atom_site_label
_atom_site_fract_x
_atom_site_fract_y
_atom_site_fract_z
Si Si1 0.616992 0.005817 0.321931
Si Si2 0.613194 0.661573 0.422888
Si Si3 0.385201 0.730648 0.820477
Si Si4 0.250000 0.136025 0.250000
Si Si5 0.615660 0.354159 0.017673
Si Si6 0.193197 0.542657 0.426860
O O1 0.500000 0.020591 0.311545
O O2 0.648796 0.887245 0.320190
O O3 0.676675 0.064487 0.280467
O O4 0.642885 0.052901 0.374376
O O5 0.500000 0.617794 0.426031
O O6 0.628530 0.728652 0.374823
O O7 0.637318 0.736215 0.468648
O O8 0.687786 0.565313 0.423539
O O9 0.500000 0.742237 0.803001
O O10 0.315180 0.792697 0.784517
O O11 0.500000 0.381671 0.028869
O O12 0.682434 0.429561 0.050871
O O13 0.640133 0.371886 0.960949
#
# Coordination Sequence:
#
# PCOD8263062 Si02
#       6
#    16  16  16   8  16  16
#     4  11  22  37  59  83 110 144 184 232 273 320
#     4  10  20  36  56  79 112 150 180 216 277 332
#     4  10  21  38  56  79 111 144 181 222 275 333
#     4  12  22  38  58  84 106 144 186 230 276 322
#     4  10  20  35  59  85 111 144 183 228 270 327
#     4  11  19  34  58  87 108 141 189 227 267 320
#
# _framework density 18.483196
#
# number of rings (size 3 to 8) (size 9 to 14) (size 15 to 20)
#    0.000    1.455    3.636    3.818    0.000    0.000 
#    0.000    1.818    0.000    6.545    0.000    0.000 
#    0.000    0.000    0.000    0.000    0.000    0.000 
#
# Total GULP energy -545737.178775 kJ/mol
# GULP energy per Si atom -12403.117699 kJ/mol
# Density = 1.844113 g / cm^3
# Si number density = 18.483196 Si / 1000 Ang^3
#
#
#
# Elastic Constant Matrix: (Units=GPa)
#
#
# Indices 1 2 3 4 5 6 
#
# 1 117.5706 69.0266 46.1848 0.0000 0.0000 0.0000
# 2 69.0266 76.8165 32.5213 0.0000 0.0000 0.0000
# 3 46.1848 32.5213 81.5625 0.0000 0.0000 0.0000
# 4 0.0000 0.0000 0.0000 48.9283 0.0000 0.0000
# 5 0.0000 0.0000 0.0000 0.0000 33.1947 0.0000
# 6 0.0000 0.0000 0.0000 0.0000 0.0000 40.6219
#
#
#
# Elastic Compliance Matrix: (Units=1/GPa)
#
#
# Indices 1 2 3 4 5 6 
#
# 1 0.019493 -0.015452 -0.004877 0.000000 0.000000 0.000000
# 2 -0.015452 0.027910 -0.002379 0.000000 0.000000 0.000000
# 3 -0.004877 -0.002379 0.015971 0.000000 0.000000 0.000000
# 4 0.000000 0.000000 0.000000 0.020438 0.000000 0.000000
# 5 0.000000 0.000000 0.000000 0.000000 0.030125 0.000000
# 6 0.000000 0.000000 0.000000 0.000000 0.000000 0.024617
#
#
# Mechanical properties :
#
#
# Convention : Reuss Voigt Hill
#
# Bulk Modulus (GPa) = 55.68379 63.49055 59.58717
# Shear Modulus (GPa) = 26.32196 33.09677 29.70937
#
# Velocity S-wave (km/s) = 3.77782 4.23619 4.01355
# Velocity P-wave (km/s) = 7.01579 7.63885 7.33394
#
# Compressibility (1/GPa) = 0.01795855
#
# Stress axis : x y z
#
# Youngs Moduli (GPa) = 51.30034 35.82964 62.61469
#
# Poissons Ratio (x) = 0.55362 0.30537
# Poissons Ratio (y) = 0.79267 0.14896
# Poissons Ratio (z) = 0.25019 0.08524
#
# Static dielectric constant tensor:
#      x y z
#    x 3.308670 0.000000 0.000000 
#    y 0.000000 3.265590 0.000000 
#    z 0.000000 0.000000 3.525560 
# 
# 
# High freq. dielectric constant tensor:
#      x y z
#    x 1.724010 0.000000 0.000000 
#    y 0.000000 1.706570 0.000000 
#    z 0.000000 0.000000 1.724380 
# 
# From -- ./inp_files/44092.got.cif
#   From: 2010.03.12/outbox.cif.g09.slc.cpg/sg64_23_cif.got.tgz:44092.got - 2010.04.10 20:19:32.
