data_PCOD8263528
_publ_section_title
;
Structure prediction by ZEFSAII (Michael W. Deem and Ramdas Pophale) SiO2 
 PCOD8263528
Probable space group: C M C A
;
_chemical_formula_sum "Si O2"
_cell_formula_units_Z 104
_cell_length_a 26.625752
_cell_length_b 20.980639
_cell_length_c 9.108144
_cell_angle_alpha 90.000000
_cell_angle_beta 90.000000
_cell_angle_gamma 90.000000
_cell_volume 5088.039591
_symmetry_space_group_name_H-M "C M C A"
_symmetry_group_IT_number 64
_symmetry_cell_setting 'orthorhombic'
loop_
_space_group_symop_operation_xyz
x,y,z
-x,1/2-y,1/2+z
x,-y,-z
-x,1/2+y,1/2-z
-x,-y,-z
x,1/2+y,1/2-z
-x,y,z
x,1/2-y,1/2+z
1/2+x,1/2+y,z
1/2-x,-y,1/2+z
1/2+x,1/2-y,-z
1/2-x,y,1/2-z
1/2-x,1/2-y,-z
1/2+x,y,1/2-z
1/2-x,1/2+y,z
1/2+x,-y,1/2+z
loop_
_atom_site_type_symbol
_atom_site_label
_atom_site_fract_x
_atom_site_fract_y
_atom_site_fract_z
Si Si1 0.091667 0.146808 0.716068
Si Si2 0.369742 0.718888 0.216259
Si Si3 0.329875 0.000000 0.000000
Si Si4 0.092925 0.901536 0.610488
Si Si5 0.193171 0.234935 0.478856
Si Si6 0.801890 0.114500 0.670053
Si Si7 0.000000 0.947581 0.787897
Si Si8 0.000000 0.408621 0.390462
O O1 0.089982 0.223832 0.720582
O O2 0.078176 0.123985 0.550746
O O3 0.146691 0.118248 0.766877
O O4 0.050165 0.124456 0.830801
O O5 0.393479 0.654714 0.276223
O O6 0.345179 0.714216 0.054532
O O7 0.320074 0.738205 0.308874
O O8 0.363077 0.953601 0.898780
O O9 0.294668 0.043555 0.895806
O O10 0.047051 0.937343 0.683603
O O11 0.250000 0.250000 0.500000
O O12 0.183681 0.163647 0.539576
O O13 0.750000 0.134041 0.750000
O O14 0.000000 0.019241 0.841228
O O15 0.000000 0.902242 0.932130
#
# Coordination Sequence:
#
# PCOD8263528 Si02
#       8
#    16  16   8  16  16  16   8   8
#     4  10  22  41  67  88 129 168 210 264 328 384
#     4  11  21  39  61  96 124 165 213 269 324 387
#     4  10  20  41  62  86 128 165 224 258 312 392
#     4  11  22  42  66  92 126 177 216 268 320 399
#     4  11  21  38  63  90 127 168 216 266 328 386
#     4  10  20  40  60  91 127 170 211 264 318 388
#     4  11  25  40  65  96 125 160 228 253 322 382
#     4  11  25  44  65 100 125 167 210 275 316 374
#
# _framework density 20.440092
#
# number of rings (size 3 to 8) (size 9 to 14) (size 15 to 20)
#    0.000    1.385    4.615    4.615    2.154    1.538 
#    2.769    1.538    0.000    0.000    0.000    0.000 
#    0.000    0.000    0.000    0.000    0.000    0.000 
#
# Total GULP energy -644524.303133 kJ/mol
# GULP energy per Si atom -12394.698137 kJ/mol
# Density = 2.039357 g / cm^3
# Si number density = 20.440092 Si / 1000 Ang^3
#
#
#
# Elastic Constant Matrix: (Units=GPa)
#
#
# Indices 1 2 3 4 5 6 
#
# 1 97.8351 6.8465 17.4249 0.0000 0.0000 0.0000
# 2 6.8465 84.9458 16.4769 0.0000 0.0000 0.0000
# 3 17.4249 16.4769 47.9874 0.0000 0.0000 0.0000
# 4 0.0000 0.0000 0.0000 34.5707 0.0000 0.0000
# 5 0.0000 0.0000 0.0000 0.0000 24.2449 0.0000
# 6 0.0000 0.0000 0.0000 0.0000 0.0000 30.9077
#
#
#
# Elastic Compliance Matrix: (Units=1/GPa)
#
#
# Indices 1 2 3 4 5 6 
#
# 1 0.010929 -0.000119 -0.003928 0.000000 0.000000 0.000000
# 2 -0.000119 0.012614 -0.004288 0.000000 0.000000 0.000000
# 3 -0.003928 -0.004288 0.023737 0.000000 0.000000 0.000000
# 4 0.000000 0.000000 0.000000 0.028926 0.000000 0.000000
# 5 0.000000 0.000000 0.000000 0.000000 0.041246 0.000000
# 6 0.000000 0.000000 0.000000 0.000000 0.000000 0.032354
#
#
# Mechanical properties :
#
#
# Convention : Reuss Voigt Hill
#
# Bulk Modulus (GPa) = 32.66796 34.69609 33.68202
# Shear Modulus (GPa) = 28.29993 30.61265 29.45629
#
# Velocity S-wave (km/s) = 3.72496 3.87418 3.80031
# Velocity P-wave (km/s) = 5.87516 6.08471 5.98085
#
# Compressibility (1/GPa) = 0.03061103
#
# Stress axis : x y z
#
# Youngs Moduli (GPa) = 91.49845 79.28011 42.12789
#
# Poissons Ratio (x) = 0.00944 0.16546
# Poissons Ratio (y) = 0.01089 0.18063
# Poissons Ratio (z) = 0.35937 0.33993
#
# Static dielectric constant tensor:
#      x y z
#    x 3.309960 0.000000 0.000000 
#    y 0.000000 3.745110 0.000000 
#    z 0.000000 0.000000 3.846340 
# 
# 
# High freq. dielectric constant tensor:
#      x y z
#    x 1.798050 0.000000 0.000000 
#    y 0.000000 1.804750 0.000000 
#    z 0.000000 0.000000 1.794670 
# 
# From -- ./inp_files/11238.got.cif
#   From: 2010.03.12/outbox.cif.g09.slc.cpg/sg64_6_cif.got.tgz:11238.got - 2010.04.10 20:19:32.
