data_PCOD8263658
_publ_section_title
;
Structure prediction by ZEFSAII (Michael W. Deem and Ramdas Pophale) SiO2 
 PCOD8263658
Probable space group: C M C A
;
_chemical_formula_sum "Si O2"
_cell_formula_units_Z 64
_cell_length_a 35.705178
_cell_length_b 18.120322
_cell_length_c 4.993944
_cell_angle_alpha 90.000000
_cell_angle_beta 90.000000
_cell_angle_gamma 90.000000
_cell_volume 3231.028445
_symmetry_space_group_name_H-M "C M C A"
_symmetry_group_IT_number 64
_symmetry_cell_setting 'orthorhombic'
loop_
_space_group_symop_operation_xyz
x,y,z
-x,1/2-y,1/2+z
x,-y,-z
-x,1/2+y,1/2-z
-x,-y,-z
x,1/2+y,1/2-z
-x,y,z
x,1/2-y,1/2+z
1/2+x,1/2+y,z
1/2-x,-y,1/2+z
1/2+x,1/2-y,-z
1/2-x,y,1/2-z
1/2-x,1/2-y,-z
1/2+x,y,1/2-z
1/2-x,1/2+y,z
1/2+x,-y,1/2+z
loop_
_atom_site_type_symbol
_atom_site_label
_atom_site_fract_x
_atom_site_fract_y
_atom_site_fract_z
Si Si1 0.957023 0.701746 0.111271
Si Si2 0.705991 0.705057 0.778895
Si Si3 0.604844 0.914539 0.002852
Si Si4 0.652849 0.914607 0.499206
O O1 0.947760 0.733310 0.402927
O O2 0.932404 0.630034 0.060658
O O3 0.000000 0.676429 0.084024
O O4 0.693061 0.729685 0.483092
O O5 0.750000 0.692358 0.750000
O O6 0.688846 0.629935 0.895561
O O7 0.638155 0.894086 0.794821
O O8 0.619000 0.895338 0.298708
O O9 0.593732 0.000000 0.000000
O O10 0.664753 0.000000 0.500000
#
# Coordination Sequence:
#
# PCOD8263658 Si02
#       4
#    16  16  16  16
#     4  10  21  36  54  79 109 140 179 224 268 320
#     4  10  21  37  56  80 109 140 177 220 265 317
#     4  10  21  36  55  79 108 141 179 222 267 319
#     4  10  21  37  55  80 110 140 179 223 266 318
#
# _framework density 19.807935000000001
#
# number of rings (size 3 to 8) (size 9 to 14) (size 15 to 20)
#    0.000    2.000    0.000    3.000    0.000    6.500 
#    0.000    7.500    0.000    9.000    0.000    0.000 
#    0.000    0.000    0.000    0.000    0.000    0.000 
#
# Total GULP energy -396724.490354 kJ/mol
# GULP energy per Si atom -12397.640324 kJ/mol
# Density = 1.976285 g / cm^3
# Si number density = 19.807935 Si / 1000 Ang^3
#
#
#
# Elastic Constant Matrix: (Units=GPa)
#
#
# Indices 1 2 3 4 5 6 
#
# 1 73.5481 65.0279 27.6251 0.0000 0.0000 0.0000
# 2 65.0279 89.9455 26.6216 0.0000 0.0000 0.0000
# 3 27.6251 26.6216 85.0830 0.0000 0.0000 0.0000
# 4 0.0000 0.0000 0.0000 25.0967 0.0000 0.0000
# 5 0.0000 0.0000 0.0000 0.0000 28.0287 0.0000
# 6 0.0000 0.0000 0.0000 0.0000 0.0000 31.7844
#
#
#
# Elastic Compliance Matrix: (Units=1/GPa)
#
#
# Indices 1 2 3 4 5 6 
#
# 1 0.039024 -0.026959 -0.004235 0.000000 0.000000 0.000000
# 2 -0.026959 0.030877 -0.000908 0.000000 0.000000 0.000000
# 3 -0.004235 -0.000908 0.013412 0.000000 0.000000 0.000000
# 4 0.000000 0.000000 0.000000 0.039846 0.000000 0.000000
# 5 0.000000 0.000000 0.000000 0.000000 0.035678 0.000000
# 6 0.000000 0.000000 0.000000 0.000000 0.000000 0.031462
#
#
# Mechanical properties :
#
#
# Convention : Reuss Voigt Hill
#
# Bulk Modulus (GPa) = 52.33237 54.12507 53.22872
# Shear Modulus (GPa) = 19.16641 25.60209 22.38425
#
# Velocity S-wave (km/s) = 3.11402 3.59906 3.36529
# Velocity P-wave (km/s) = 6.27748 6.68246 6.48313
#
# Compressibility (1/GPa) = 0.01910863
#
# Stress axis : x y z
#
# Youngs Moduli (GPa) = 25.62557 32.38615 74.55813
#
# Poissons Ratio (x) = 0.87311 0.31575
# Poissons Ratio (y) = 0.69085 0.06770
# Poissons Ratio (z) = 0.10852 0.02941
#
# Static dielectric constant tensor:
#      x y z
#    x 3.370440 0.000000 0.000000 
#    y 0.000000 3.449460 0.000000 
#    z 0.000000 0.000000 4.067940 
# 
# 
# High freq. dielectric constant tensor:
#      x y z
#    x 1.758590 0.000000 0.000000 
#    y 0.000000 1.764020 0.000000 
#    z 0.000000 0.000000 1.798750 
# 
# From -- ./inp_files/3150.got.cif
#   From: 2010.03.12/outbox.cif.g09.slc.cpg/sg64_2_cif.got.tgz:3150.got - 2010.04.10 20:19:32.
