data_PCOD8263129
_publ_section_title
;
Structure prediction by ZEFSAII (Michael W. Deem and Ramdas Pophale) SiO2 
 PCOD8263129
Probable space group: C M C A
;
_chemical_formula_sum "Si O2"
_cell_formula_units_Z 104
_cell_length_a 15.603910
_cell_length_b 19.555403
_cell_length_c 15.269382
_cell_angle_alpha 90.000000
_cell_angle_beta 90.000000
_cell_angle_gamma 90.000000
_cell_volume 4659.310651
_symmetry_space_group_name_H-M "C M C A"
_symmetry_group_IT_number 64
_symmetry_cell_setting 'orthorhombic'
loop_
_space_group_symop_operation_xyz
x,y,z
-x,1/2-y,1/2+z
x,-y,-z
-x,1/2+y,1/2-z
-x,-y,-z
x,1/2+y,1/2-z
-x,y,z
x,1/2-y,1/2+z
1/2+x,1/2+y,z
1/2-x,-y,1/2+z
1/2+x,1/2-y,-z
1/2-x,y,1/2-z
1/2-x,1/2-y,-z
1/2+x,y,1/2-z
1/2-x,1/2+y,z
1/2+x,-y,1/2+z
loop_
_atom_site_type_symbol
_atom_site_label
_atom_site_fract_x
_atom_site_fract_y
_atom_site_fract_z
Si Si1 0.646493 0.593221 0.452232
Si Si2 0.000000 0.239555 0.259577
Si Si3 0.328154 0.631085 0.120087
Si Si4 0.168509 0.782004 0.303401
Si Si5 0.596966 0.039468 0.233160
Si Si6 0.500000 0.672085 0.067528
Si Si7 0.500000 0.305411 0.549608
Si Si8 0.600846 0.414261 0.368934
O O1 0.745967 0.609972 0.435512
O O2 0.601173 0.564849 0.366454
O O3 0.588473 0.659100 0.479827
O O4 0.637353 0.547918 0.542235
O O5 0.913345 0.283572 0.261921
O O6 0.000000 0.192809 0.344528
O O7 0.000000 0.197328 0.168711
O O8 0.315938 0.708611 0.152370
O O9 0.338048 0.579190 0.202912
O O10 0.412937 0.627079 0.058091
O O11 0.250000 0.803881 0.250000
O O12 0.151859 0.842688 0.370939
O O13 0.500000 0.048951 0.268518
O O14 0.620353 0.959061 0.219266
O O15 0.500000 0.730651 0.994629
O O16 0.500000 0.400488 0.376775
#
# Coordination Sequence:
#
# PCOD8263129 Si02
#       8
#    16   8  16  16  16   8   8  16
#     4  12  22  37  64 100 132 170 222 276 333 399
#     4  10  20  36  56  84 131 176 217 273 324 393
#     4  11  23  40  66  97 133 178 225 275 329 408
#     4  11  22  38  62  92 132 176 223 269 335 403
#     4  11  22  41  67  93 129 176 232 275 333 399
#     4  10  22  40  60  92 137 180 223 271 338 395
#     4  12  22  34  63  98 137 176 212 276 344 390
#     4  11  24  42  64  96 136 177 217 282 344 398
#
# _framework density 22.320899000000001
#
# number of rings (size 3 to 8) (size 9 to 14) (size 15 to 20)
#    0.000    0.923    3.077    6.462    0.000    6.154 
#    0.000    0.000    0.000    0.000    0.000    4.308 
#    0.000    0.000    0.000    0.000    0.000    0.000 
#
# Total GULP energy -644275.522667 kJ/mol
# GULP energy per Si atom -12389.913897 kJ/mol
# Density = 2.227010 g / cm^3
# Si number density = 22.320899 Si / 1000 Ang^3
#
#
#
# Elastic Constant Matrix: (Units=GPa)
#
#
# Indices 1 2 3 4 5 6 
#
# 1 151.7538 18.4724 24.8651 0.0000 0.0000 0.0000
# 2 18.4724 57.2196 15.0164 0.0000 0.0000 0.0000
# 3 24.8651 15.0164 42.4874 0.0000 0.0000 0.0000
# 4 0.0000 0.0000 0.0000 32.6285 0.0000 0.0000
# 5 0.0000 0.0000 0.0000 0.0000 34.5780 0.0000
# 6 0.0000 0.0000 0.0000 0.0000 0.0000 6.8742
#
#
#
# Elastic Compliance Matrix: (Units=1/GPa)
#
#
# Indices 1 2 3 4 5 6 
#
# 1 0.007386 -0.001378 -0.003835 0.000000 0.000000 0.000000
# 2 -0.001378 0.019520 -0.006093 0.000000 0.000000 0.000000
# 3 -0.003835 -0.006093 0.027934 0.000000 0.000000 0.000000
# 4 0.000000 0.000000 0.000000 0.030648 0.000000 0.000000
# 5 0.000000 0.000000 0.000000 0.000000 0.028920 0.000000
# 6 0.000000 0.000000 0.000000 0.000000 0.000000 0.145472
#
#
# Mechanical properties :
#
#
# Convention : Reuss Voigt Hill
#
# Bulk Modulus (GPa) = 31.02850 40.90762 35.96806
# Shear Modulus (GPa) = 17.05113 27.68993 22.37053
#
# Velocity S-wave (km/s) = 2.76689 3.52595 3.16923
# Velocity P-wave (km/s) = 4.91313 5.91128 5.43517
#
# Compressibility (1/GPa) = 0.03222843
#
# Stress axis : x y z
#
# Youngs Moduli (GPa) = 135.39530 51.22876 35.79816
#
# Poissons Ratio (x) = 0.07058 0.13730
# Poissons Ratio (y) = 0.18655 0.21811
# Poissons Ratio (z) = 0.51930 0.31212
#
# Static dielectric constant tensor:
#      x y z
#    x 4.440300 0.000000 0.000000 
#    y 0.000000 4.073600 0.000000 
#    z 0.000000 0.000000 3.903800 
# 
# 
# High freq. dielectric constant tensor:
#      x y z
#    x 1.891080 0.000000 0.000000 
#    y 0.000000 1.870610 0.000000 
#    z 0.000000 0.000000 1.863370 
# 
# From -- ./inp_files/25670.got.cif
#   From: 2010.03.12/outbox.cif.g09.slc.cpg/sg64_13_cif.got.tgz:25670.got - 2010.04.10 20:19:32.
