data_PCOD8263724
_publ_section_title
;
Structure prediction by ZEFSAII (Michael W. Deem and Ramdas Pophale) SiO2 
 PCOD8263724
Probable space group: C M C A
;
_chemical_formula_sum "Si O2"
_cell_formula_units_Z 112
_cell_length_a 26.814768
_cell_length_b 36.328744
_cell_length_c 5.150510
_cell_angle_alpha 90.000000
_cell_angle_beta 90.000000
_cell_angle_gamma 90.000000
_cell_volume 5017.353052
_symmetry_space_group_name_H-M "C M C A"
_symmetry_group_IT_number 64
_symmetry_cell_setting 'orthorhombic'
loop_
_space_group_symop_operation_xyz
x,y,z
-x,1/2-y,1/2+z
x,-y,-z
-x,1/2+y,1/2-z
-x,-y,-z
x,1/2+y,1/2-z
-x,y,z
x,1/2-y,1/2+z
1/2+x,1/2+y,z
1/2-x,-y,1/2+z
1/2+x,1/2-y,-z
1/2-x,y,1/2-z
1/2-x,1/2-y,-z
1/2+x,y,1/2-z
1/2-x,1/2+y,z
1/2+x,-y,1/2+z
loop_
_atom_site_type_symbol
_atom_site_label
_atom_site_fract_x
_atom_site_fract_y
_atom_site_fract_z
Si Si1 0.841617 0.598750 0.229930
Si Si2 0.940391 0.730455 0.982617
Si Si3 0.191119 0.642534 0.727394
Si Si4 0.190838 0.771549 0.245484
Si Si5 0.807168 0.981633 0.748753
Si Si6 0.944919 0.652754 0.880459
Si Si7 0.444264 0.890913 0.606561
O O1 0.823799 0.626973 0.447971
O O2 0.808468 0.562375 0.234725
O O3 0.898767 0.584073 0.284501
O O4 0.837899 0.620513 0.956596
O O5 0.921155 0.740692 0.268152
O O6 0.000000 0.727402 0.986641
O O7 0.916509 0.691702 0.890417
O O8 0.250000 0.636610 0.750000
O O9 0.175954 0.685390 0.739017
O O10 0.168752 0.751293 0.500615
O O11 0.250000 0.768159 0.250000
O O12 0.750000 0.994340 0.750000
O O13 0.834047 0.000000 0.500000
O O14 0.833508 0.000000 0.000000
O O15 0.922169 0.624772 0.667338
O O16 0.000000 0.658671 0.763617
O O17 0.948143 0.640419 0.177235
O O18 0.500000 0.909856 0.577921
#
# Coordination Sequence:
#
# PCOD8263724 Si02
#       7
#    16  16  16  16  16  16  16
#     4  12  23  38  62  90 122 158 199 244 292 345
#     4   9  15  23  40  66  91 121 170 230 291 353
#     4  11  22  36  59  92 124 154 196 249 301 357
#     4   9  17  31  52  78 112 155 195 235 294 360
#     4  10  21  38  61  90 125 159 185 218 279 359
#     4   9  17  31  50  71  98 134 181 240 298 341
#     4  10  21  37  57  79 107 147 195 244 285 329
#
# _framework density 22.322527000000001
#
# number of rings (size 3 to 8) (size 9 to 14) (size 15 to 20)
#    0.000    2.000    0.000    4.714    0.000    6.857 
#    0.000    0.000    0.000   18.000    0.000    0.000 
#    0.000    0.000    0.000    0.000    0.000    0.000 
#
# Total GULP energy -693799.468931 kJ/mol
# GULP energy per Si atom -12389.276231 kJ/mol
# Density = 2.227172 g / cm^3
# Si number density = 22.322527 Si / 1000 Ang^3
#
#
#
# Elastic Constant Matrix: (Units=GPa)
#
#
# Indices 1 2 3 4 5 6 
#
# 1 54.5648 0.1621 12.6649 0.0000 0.0000 0.0000
# 2 0.1621 101.8145 54.4811 0.0000 0.0000 0.0000
# 3 12.6649 54.4811 170.6923 0.0000 0.0000 0.0000
# 4 0.0000 0.0000 0.0000 27.5457 0.0000 0.0000
# 5 0.0000 0.0000 0.0000 0.0000 26.4694 0.0000
# 6 0.0000 0.0000 0.0000 0.0000 0.0000 -21.3323
#
#
#
# Elastic Compliance Matrix: (Units=1/GPa)
#
#
# Indices 1 2 3 4 5 6 
#
# 1 0.018710 0.000860 -0.001663 0.000000 0.000000 0.000000
# 2 0.000860 0.011884 -0.003857 0.000000 0.000000 0.000000
# 3 -0.001663 -0.003857 0.007213 0.000000 0.000000 0.000000
# 4 0.000000 0.000000 0.000000 0.036303 0.000000 0.000000
# 5 0.000000 0.000000 0.000000 0.000000 0.037779 0.000000
# 6 0.000000 0.000000 0.000000 0.000000 0.000000 -0.046877
#
#
# Mechanical properties :
#
#
# Convention : Reuss Voigt Hill
#
# Bulk Modulus (GPa) = 35.10266 51.29865 43.20065
# Shear Modulus (GPa) = 59.64554 23.85412 41.74983
#
# Velocity S-wave (km/s) = 5.17474 3.27251 4.32939
# Velocity P-wave (km/s) = 7.17379 6.10816 6.66231
#
# Compressibility (1/GPa) = 0.02848787
#
# Stress axis : x y z
#
# Youngs Moduli (GPa) = 53.44672 84.14463 138.63991
#
# Poissons Ratio (x) = -0.07236 0.23052
# Poissons Ratio (y) = -0.04596 0.53473
# Poissons Ratio (z) = 0.08887 0.32455
#
# Static dielectric constant tensor:
#      x y z
#    x 4.312260 0.000000 0.000000 
#    y 0.000000 3.567750 0.000000 
#    z 0.000000 0.000000 4.378720 
# 
# 
# High freq. dielectric constant tensor:
#      x y z
#    x 1.888330 0.000000 0.000000 
#    y 0.000000 1.831800 0.000000 
#    z 0.000000 0.000000 1.904400 
# 
# From -- ./inp_files/3491.got.cif
#   From: 2010.03.12/outbox.cif.g09.slc.cpg/sg64_2_cif.got.tgz:3491.got - 2010.04.10 20:19:32.
