data_PCOD8263812
_publ_section_title
;
Structure prediction by ZEFSAII (Michael W. Deem and Ramdas Pophale) SiO2 
 PCOD8263812
Probable space group: C M C A
;
_chemical_formula_sum "Si O2"
_cell_formula_units_Z 112
_cell_length_a 14.213741
_cell_length_b 14.015664
_cell_length_c 28.698328
_cell_angle_alpha 90.000000
_cell_angle_beta 90.000000
_cell_angle_gamma 90.000000
_cell_volume 5717.137930
_symmetry_space_group_name_H-M "C M C A"
_symmetry_group_IT_number 64
_symmetry_cell_setting 'orthorhombic'
loop_
_space_group_symop_operation_xyz
x,y,z
-x,1/2-y,1/2+z
x,-y,-z
-x,1/2+y,1/2-z
-x,-y,-z
x,1/2+y,1/2-z
-x,y,z
x,1/2-y,1/2+z
1/2+x,1/2+y,z
1/2-x,-y,1/2+z
1/2+x,1/2-y,-z
1/2-x,y,1/2-z
1/2-x,1/2-y,-z
1/2+x,y,1/2-z
1/2-x,1/2+y,z
1/2+x,-y,1/2+z
loop_
_atom_site_type_symbol
_atom_site_label
_atom_site_fract_x
_atom_site_fract_y
_atom_site_fract_z
Si Si1 0.892229 0.188784 0.445515
Si Si2 0.608520 0.313310 0.454421
Si Si3 0.753626 0.356318 0.695173
Si Si4 0.759279 0.442083 0.350875
Si Si5 0.612474 0.216380 0.854599
Si Si6 0.280570 0.000178 0.949612
Si Si7 0.392085 0.223891 0.650300
O O1 0.865119 0.236598 0.495995
O O2 0.879706 0.267556 0.405638
O O3 0.000000 0.152296 0.447212
O O4 0.824911 0.100405 0.435174
O O5 0.500000 0.312801 0.445204
O O6 0.647422 0.259783 0.408164
O O7 0.637106 0.423467 0.457434
O O8 0.750000 0.345894 0.750000
O O9 0.760590 0.466580 0.681883
O O10 0.845707 0.299856 0.677166
O O11 0.657616 0.313745 0.674370
O O12 0.659788 0.386645 0.343378
O O13 0.781139 0.469339 0.404968
O O14 0.843964 0.374247 0.333811
O O15 0.500000 0.210279 0.847177
O O16 0.224963 0.000000 0.000000
O O17 0.500000 0.223268 0.666054
#
# Coordination Sequence:
#
# PCOD8263812 Si02
#       7
#    16  16  16  16  16  16  16
#     4   9  15  27  52  83 117 154 190 231 278 334
#     4   8  14  26  49  84 118 150 188 232 281 333
#     4  11  24  42  61  83 112 148 194 245 295 346
#     4  10  21  38  57  87 119 154 190 240 292 340
#     4   9  20  39  62  87 117 150 191 240 289 345
#     4   9  15  27  48  82 116 155 191 231 275 338
#     4  10  22  40  61  86 118 153 191 236 288 349
#
# _framework density 19.590222000000001
#
# number of rings (size 3 to 8) (size 9 to 14) (size 15 to 20)
#    0.000    2.571    1.429    0.429    0.000    6.286 
#    2.571    2.857    0.000    0.429    0.000    0.000 
#    0.000    0.000    0.000    0.000    0.000    0.000 
#
# Total GULP energy -693809.874439 kJ/mol
# GULP energy per Si atom -12389.462044 kJ/mol
# Density = 1.954563 g / cm^3
# Si number density = 19.590222 Si / 1000 Ang^3
#
#
#
# Elastic Constant Matrix: (Units=GPa)
#
#
# Indices 1 2 3 4 5 6 
#
# 1 104.7642 62.5119 38.0205 0.0000 0.0000 0.0000
# 2 62.5119 189.5286 65.7268 0.0000 0.0000 0.0000
# 3 38.0205 65.7268 125.4082 0.0000 0.0000 0.0000
# 4 0.0000 0.0000 0.0000 -10.5528 0.0000 0.0000
# 5 0.0000 0.0000 0.0000 0.0000 17.7254 0.0000
# 6 0.0000 0.0000 0.0000 0.0000 0.0000 15.7611
#
#
#
# Elastic Compliance Matrix: (Units=1/GPa)
#
#
# Indices 1 2 3 4 5 6 
#
# 1 0.012263 -0.003368 -0.001953 0.000000 0.000000 0.000000
# 2 -0.003368 0.007373 -0.002843 0.000000 0.000000 0.000000
# 3 -0.001953 -0.002843 0.010056 0.000000 0.000000 0.000000
# 4 0.000000 0.000000 0.000000 -0.094761 0.000000 0.000000
# 5 0.000000 0.000000 0.000000 0.000000 0.056416 0.000000
# 6 0.000000 0.000000 0.000000 0.000000 0.000000 0.063447
#
#
# Mechanical properties :
#
#
# Convention : Reuss Voigt Hill
#
# Bulk Modulus (GPa) = 74.82226 83.57994 79.20110
# Shear Modulus (GPa) = 66.15741 21.48286 43.82013
#
# Velocity S-wave (km/s) = 5.81755 3.31510 4.73465
# Velocity P-wave (km/s) = 9.13246 7.57694 8.39082
#
# Compressibility (1/GPa) = 0.01336501
#
# Stress axis : x y z
#
# Youngs Moduli (GPa) = 81.54348 135.63056 99.44093
#
# Poissons Ratio (x) = 0.45674 0.19421
# Poissons Ratio (y) = 0.27460 0.28274
# Poissons Ratio (z) = 0.15926 0.38563
#
# Static dielectric constant tensor:
#      x y z
#    x 3.378800 0.000000 0.000000 
#    y 0.000000 3.351490 0.000000 
#    z 0.000000 0.000000 3.832400 
# 
# 
# High freq. dielectric constant tensor:
#      x y z
#    x 1.743160 0.000000 0.000000 
#    y 0.000000 1.746020 0.000000 
#    z 0.000000 0.000000 1.769740 
# 
# From -- ./inp_files/53377.got.cif
#   From: 2010.03.12/outbox.cif.g09.slc.cpg/sg64_27_cif.got.tgz:53377.got - 2010.04.10 20:19:32.
