data_PCOD8263636
_publ_section_title
;
Structure prediction by ZEFSAII (Michael W. Deem and Ramdas Pophale) SiO2 
 PCOD8263636
Probable space group: C M C A
;
_chemical_formula_sum "Si O2"
_cell_formula_units_Z 104
_cell_length_a 25.616299
_cell_length_b 14.880406
_cell_length_c 15.134240
_cell_angle_alpha 90.000000
_cell_angle_beta 90.000000
_cell_angle_gamma 90.000000
_cell_volume 5768.883668
_symmetry_space_group_name_H-M "C M C A"
_symmetry_group_IT_number 64
_symmetry_cell_setting 'orthorhombic'
loop_
_space_group_symop_operation_xyz
x,y,z
-x,1/2-y,1/2+z
x,-y,-z
-x,1/2+y,1/2-z
-x,-y,-z
x,1/2+y,1/2-z
-x,y,z
x,1/2-y,1/2+z
1/2+x,1/2+y,z
1/2-x,-y,1/2+z
1/2+x,1/2-y,-z
1/2-x,y,1/2-z
1/2-x,1/2-y,-z
1/2+x,y,1/2-z
1/2-x,1/2+y,z
1/2+x,-y,1/2+z
loop_
_atom_site_type_symbol
_atom_site_label
_atom_site_fract_x
_atom_site_fract_y
_atom_site_fract_z
Si Si1 0.686617 0.075700 0.568422
Si Si2 0.561154 0.023601 0.143088
Si Si3 0.133503 0.293925 0.566726
Si Si4 0.641981 0.056148 0.298303
Si Si5 0.940035 0.359604 0.020968
Si Si6 0.250000 0.643884 0.250000
Si Si7 0.238203 0.278777 0.098412
O O1 0.654542 0.152418 0.518082
O O2 0.737107 0.122455 0.614953
O O3 0.707038 0.000000 0.500000
O O4 0.649432 0.032740 0.642255
O O5 0.500000 0.037106 0.168895
O O6 0.598936 0.034582 0.225795
O O7 0.569778 0.924203 0.104304
O O8 0.579992 0.095064 0.069559
O O9 0.117957 0.363557 0.643201
O O10 0.084437 0.237461 0.535898
O O11 0.175501 0.222913 0.607201
O O12 0.699066 0.081902 0.261288
O O13 0.000000 0.340096 0.008557
O O14 0.262084 0.705904 0.334534
O O15 0.250000 0.250000 0.000000
#
# Coordination Sequence:
#
# PCOD8263636 Si02
#       7
#    16  16  16  16  16   8  16
#     4   9  19  36  53  77 114 147 177 222 270 323
#     4   9  20  38  57  79 108 143 182 230 278 324
#     4   9  19  36  56  81 108 144 182 222 276 323
#     4  10  21  35  56  82 115 146 182 227 273 332
#     4   9  19  38  58  79 106 138 184 232 273 327
#     4  10  22  34  52  84 112 148 188 228 272 326
#     4   9  19  35  52  74 111 145 181 224 263 325
#
# _framework density 18.027750999999999
#
# number of rings (size 3 to 8) (size 9 to 14) (size 15 to 20)
#    0.000    2.769    0.000    1.846    4.308    4.923 
#    2.769    0.769    0.000    2.769    0.000    0.000 
#    0.000    0.000    0.000    0.000    0.000    0.000 
#
# Total GULP energy -644543.173959 kJ/mol
# GULP energy per Si atom -12395.061038 kJ/mol
# Density = 1.798672 g / cm^3
# Si number density = 18.027751 Si / 1000 Ang^3
#
#
#
# Elastic Constant Matrix: (Units=GPa)
#
#
# Indices 1 2 3 4 5 6 
#
# 1 72.5218 55.5450 54.6105 0.0000 0.0000 0.0000
# 2 55.5450 106.4167 46.3473 0.0000 0.0000 0.0000
# 3 54.6105 46.3473 108.6136 0.0000 0.0000 0.0000
# 4 0.0000 0.0000 0.0000 19.7671 0.0000 0.0000
# 5 0.0000 0.0000 0.0000 0.0000 32.9828 0.0000
# 6 0.0000 0.0000 0.0000 0.0000 0.0000 31.4905
#
#
#
# Elastic Compliance Matrix: (Units=1/GPa)
#
#
# Indices 1 2 3 4 5 6 
#
# 1 0.030243 -0.011255 -0.010404 0.000000 0.000000 0.000000
# 2 -0.011255 0.015730 -0.001054 0.000000 0.000000 0.000000
# 3 -0.010404 -0.001054 0.014887 0.000000 0.000000 0.000000
# 4 0.000000 0.000000 0.000000 0.050589 0.000000 0.000000
# 5 0.000000 0.000000 0.000000 0.000000 0.030319 0.000000
# 6 0.000000 0.000000 0.000000 0.000000 0.000000 0.031756
#
#
# Mechanical properties :
#
#
# Convention : Reuss Voigt Hill
#
# Bulk Modulus (GPa) = 64.77843 66.72862 65.75353
# Shear Modulus (GPa) = 22.31213 25.58470 23.94842
#
# Velocity S-wave (km/s) = 3.52185 3.77129 3.64870
# Velocity P-wave (km/s) = 7.24904 7.48721 7.36908
#
# Compressibility (1/GPa) = 0.01543724
#
# Stress axis : x y z
#
# Youngs Moduli (GPa) = 33.06556 63.57157 67.17079
#
# Poissons Ratio (x) = 0.71547 0.69881
# Poissons Ratio (y) = 0.37214 0.07078
# Poissons Ratio (z) = 0.34400 0.06698
#
# Static dielectric constant tensor:
#      x y z
#    x 3.223890 0.000000 0.000000 
#    y 0.000000 3.552990 0.000000 
#    z 0.000000 0.000000 3.386510 
# 
# 
# High freq. dielectric constant tensor:
#      x y z
#    x 1.682890 0.000000 0.000000 
#    y 0.000000 1.700430 0.000000 
#    z 0.000000 0.000000 1.701330 
# 
# From -- ./inp_files/34350.got.cif
#   From: 2010.03.12/outbox.cif.g09.slc.cpg/sg64_18_cif.got.tgz:34350.got - 2010.04.10 20:19:32.
