data_PCOD8263921
_publ_section_title
;
Structure prediction by ZEFSAII (Michael W. Deem and Ramdas Pophale) SiO2 
 PCOD8263921
Probable space group: C M C A
;
_chemical_formula_sum "Si O2"
_cell_formula_units_Z 96
_cell_length_a 9.058060
_cell_length_b 20.033158
_cell_length_c 27.890706
_cell_angle_alpha 90.000000
_cell_angle_beta 90.000000
_cell_angle_gamma 90.000000
_cell_volume 5061.090662
_symmetry_space_group_name_H-M "C M C A"
_symmetry_group_IT_number 64
_symmetry_cell_setting 'orthorhombic'
loop_
_space_group_symop_operation_xyz
x,y,z
-x,1/2-y,1/2+z
x,-y,-z
-x,1/2+y,1/2-z
-x,-y,-z
x,1/2+y,1/2-z
-x,y,z
x,1/2-y,1/2+z
1/2+x,1/2+y,z
1/2-x,-y,1/2+z
1/2+x,1/2-y,-z
1/2-x,y,1/2-z
1/2-x,1/2-y,-z
1/2+x,y,1/2-z
1/2-x,1/2+y,z
1/2+x,-y,1/2+z
loop_
_atom_site_type_symbol
_atom_site_label
_atom_site_fract_x
_atom_site_fract_y
_atom_site_fract_z
Si Si1 0.829216 0.573608 0.703669
Si Si2 0.327212 0.887731 0.400122
Si Si3 0.827405 0.921843 0.797053
Si Si4 0.830762 0.511258 0.055998
Si Si5 0.328553 0.234251 0.950475
Si Si6 0.670703 0.129964 0.398799
O O1 0.750000 0.605585 0.750000
O O2 0.796398 0.618234 0.656825
O O3 0.773150 0.497928 0.694568
O O4 0.000000 0.572550 0.715722
O O5 0.500000 0.880647 0.411818
O O6 0.237447 0.832142 0.427953
O O7 0.273611 0.960126 0.416342
O O8 0.750000 0.891039 0.750000
O O9 0.781354 0.878896 0.843480
O O10 0.000000 0.918216 0.788067
O O11 0.772873 0.585313 0.067101
O O12 0.000000 0.503423 0.072998
O O13 0.816133 0.500000 0.000000
O O14 0.500000 0.222050 0.961019
O O15 0.302846 0.293578 0.912865
O O16 0.250000 0.250000 0.000000
O O17 0.500000 0.108833 0.406076
#
# Coordination Sequence:
#
# PCOD8263921 Si02
#       6
#    16  16  16  16  16  16
#     4   9  18  33  56  84 114 147 186 232 283 341
#     4  11  22  39  60  84 116 154 193 237 288 344
#     4   9  17  33  55  83 113 144 185 229 281 341
#     4  11  23  36  55  85 115 143 188 244 288 337
#     4  11  24  41  61  84 115 157 197 239 290 347
#     4  10  21  39  59  81 113 152 190 231 286 344
#
# _framework density 18.968243999999999
#
# number of rings (size 3 to 8) (size 9 to 14) (size 15 to 20)
#    0.000    1.833    1.667    2.500    0.000    7.333 
#    0.000    0.833    0.000    4.000    0.000    0.000 
#    0.000    0.000    0.000    0.000    0.000    0.000 
#
# Total GULP energy -595339.405616 kJ/mol
# GULP energy per Si atom -12402.904284 kJ/mol
# Density = 1.892507 g / cm^3
# Si number density = 18.968244 Si / 1000 Ang^3
#
#
#
# Elastic Constant Matrix: (Units=GPa)
#
#
# Indices 1 2 3 4 5 6 
#
# 1 77.5103 23.1916 44.4112 0.0000 0.0000 0.0000
# 2 23.1916 44.8939 11.2074 0.0000 0.0000 0.0000
# 3 44.4112 11.2074 101.2035 0.0000 0.0000 0.0000
# 4 0.0000 0.0000 0.0000 30.2314 0.0000 0.0000
# 5 0.0000 0.0000 0.0000 0.0000 35.6367 0.0000
# 6 0.0000 0.0000 0.0000 0.0000 0.0000 29.1814
#
#
#
# Elastic Compliance Matrix: (Units=1/GPa)
#
#
# Indices 1 2 3 4 5 6 
#
# 1 0.019852 -0.008310 -0.007792 0.000000 0.000000 0.000000
# 2 -0.008310 0.026387 0.000725 0.000000 0.000000 0.000000
# 3 -0.007792 0.000725 0.013220 0.000000 0.000000 0.000000
# 4 0.000000 0.000000 0.000000 0.033078 0.000000 0.000000
# 5 0.000000 0.000000 0.000000 0.000000 0.028061 0.000000
# 6 0.000000 0.000000 0.000000 0.000000 0.000000 0.034268
#
#
# Mechanical properties :
#
#
# Convention : Reuss Voigt Hill
#
# Bulk Modulus (GPa) = 34.83728 42.35867 38.59798
# Shear Modulus (GPa) = 25.61615 28.66307 27.13961
#
# Velocity S-wave (km/s) = 3.67887 3.89151 3.78668
# Velocity P-wave (km/s) = 6.03750 6.52470 6.28582
#
# Compressibility (1/GPa) = 0.02870488
#
# Stress axis : x y z
#
# Youngs Moduli (GPa) = 50.37184 37.89764 75.64308
#
# Poissons Ratio (x) = 0.31494 0.58937
# Poissons Ratio (y) = 0.41861 -0.05482
# Poissons Ratio (z) = 0.39247 -0.02747
#
# Static dielectric constant tensor:
#      x y z
#    x 3.534250 0.000000 0.000000 
#    y 0.000000 3.340000 0.000000 
#    z 0.000000 0.000000 3.541720 
# 
# 
# High freq. dielectric constant tensor:
#      x y z
#    x 1.742510 0.000000 0.000000 
#    y 0.000000 1.715770 0.000000 
#    z 0.000000 0.000000 1.751780 
# 
# From -- ./inp_files/44224.got.cif
#   From: 2010.03.12/outbox.cif.g09.slc.cpg/sg64_23_cif.got.tgz:44224.got - 2010.04.10 20:19:32.
