data_PCOD8263014
_publ_section_title
;
Structure prediction by ZEFSAII (Michael W. Deem and Ramdas Pophale) SiO2 
 PCOD8263014
Probable space group: C M C A
;
_chemical_formula_sum "Si O2"
_cell_formula_units_Z 96
_cell_length_a 17.491852
_cell_length_b 24.019075
_cell_length_c 11.955115
_cell_angle_alpha 90.000000
_cell_angle_beta 90.000000
_cell_angle_gamma 90.000000
_cell_volume 5022.799362
_symmetry_space_group_name_H-M "C M C A"
_symmetry_group_IT_number 64
_symmetry_cell_setting 'orthorhombic'
loop_
_space_group_symop_operation_xyz
x,y,z
-x,1/2-y,1/2+z
x,-y,-z
-x,1/2+y,1/2-z
-x,-y,-z
x,1/2+y,1/2-z
-x,y,z
x,1/2-y,1/2+z
1/2+x,1/2+y,z
1/2-x,-y,1/2+z
1/2+x,1/2-y,-z
1/2-x,y,1/2-z
1/2-x,1/2-y,-z
1/2+x,y,1/2-z
1/2-x,1/2+y,z
1/2+x,-y,1/2+z
loop_
_atom_site_type_symbol
_atom_site_label
_atom_site_fract_x
_atom_site_fract_y
_atom_site_fract_z
Si Si1 0.839921 0.461359 0.759090
Si Si2 0.589552 0.899846 0.961898
Si Si3 0.409036 0.635671 0.126215
Si Si4 0.410300 0.792825 0.830701
Si Si5 0.090281 0.077698 0.714635
Si Si6 0.409094 0.327919 0.115048
O O1 0.750000 0.457308 0.750000
O O2 0.865979 0.442378 0.882294
O O3 0.876528 0.424009 0.661703
O O4 0.866960 0.524061 0.737885
O O5 0.500000 0.911843 0.944956
O O6 0.609108 0.836055 0.930097
O O7 0.615917 0.909833 0.088157
O O8 0.500000 0.631410 0.129127
O O9 0.379279 0.682613 0.213342
O O10 0.377151 0.651468 0.004358
O O11 0.500000 0.784268 0.819634
O O12 0.373214 0.732795 0.857347
O O13 0.117207 0.129717 0.789104
O O14 0.000000 0.068067 0.723109
O O15 0.500000 0.324312 0.108279
#
# Coordination Sequence:
#
# PCOD8263014 Si02
#       6
#    16  16  16  16  16  16
#     4  11  22  37  54  77 106 143 185 226 269 320
#     4   9  18  35  60  84 106 139 181 226 269 312
#     4   9  18  34  55  79 110 143 176 217 269 323
#     4   8  15  28  52  83 111 136 170 217 266 316
#     4  10  20  35  56  83 111 139 180 226 269 315
#     4   9  18  30  51  86 114 138 170 213 270 323
#
# _framework density 19.112848
#
# number of rings (size 3 to 8) (size 9 to 14) (size 15 to 20)
#    0.000    2.667    0.000    3.000    2.333    2.000 
#    6.000    2.500    0.000    8.000    0.000    0.000 
#    0.000    0.000    0.000    0.000    0.000    0.000 
#
# Total GULP energy -595185.957262 kJ/mol
# GULP energy per Si atom -12399.707443 kJ/mol
# Density = 1.906935 g / cm^3
# Si number density = 19.112848 Si / 1000 Ang^3
#
#
#
# Elastic Constant Matrix: (Units=GPa)
#
#
# Indices 1 2 3 4 5 6 
#
# 1 38.0207 29.8881 26.4198 0.0000 0.0000 0.0000
# 2 29.8881 155.6295 61.2351 0.0000 0.0000 0.0000
# 3 26.4198 61.2351 117.2917 0.0000 0.0000 0.0000
# 4 0.0000 0.0000 0.0000 23.6998 0.0000 0.0000
# 5 0.0000 0.0000 0.0000 0.0000 -28.5594 0.0000
# 6 0.0000 0.0000 0.0000 0.0000 0.0000 -0.1465
#
#
#
# Elastic Compliance Matrix: (Units=1/GPa)
#
#
# Indices 1 2 3 4 5 6 
#
# 1 0.033361 -0.004342 -0.005248 0.000000 0.000000 0.000000
# 2 -0.004342 0.008652 -0.003539 0.000000 0.000000 0.000000
# 3 -0.005248 -0.003539 0.011555 0.000000 0.000000 0.000000
# 4 0.000000 0.000000 0.000000 0.042195 0.000000 0.000000
# 5 0.000000 0.000000 0.000000 0.000000 -0.035015 0.000000
# 6 0.000000 0.000000 0.000000 0.000000 0.000000 -6.826840
#
#
# Mechanical properties :
#
#
# Convention : Reuss Voigt Hill
#
# Bulk Modulus (GPa) = 36.61504 60.66975 48.64240
# Shear Modulus (GPa) = -0.74286 11.89204 5.57459
#
# Velocity S-wave (km/s) = -0.62411 2.49710 1.70968
# Velocity P-wave (km/s) = 4.32198 6.33450 5.42242
#
# Compressibility (1/GPa) = 0.02731118
#
# Stress axis : x y z
#
# Youngs Moduli (GPa) = 29.97480 115.58252 86.54008
#
# Poissons Ratio (x) = 0.50187 0.45414
# Poissons Ratio (y) = 0.13015 0.30625
# Poissons Ratio (z) = 0.15730 0.40903
#
# Static dielectric constant tensor:
#      x y z
#    x 2.982800 0.000000 0.000000 
#    y 0.000000 3.726840 0.000000 
#    z 0.000000 0.000000 3.692810 
# 
# 
# High freq. dielectric constant tensor:
#      x y z
#    x 1.690100 0.000000 0.000000 
#    y 0.000000 1.756110 0.000000 
#    z 0.000000 0.000000 1.749520 
# 
# From -- ./inp_files/16187.got.cif
#   From: 2010.03.12/outbox.cif.g09.slc.cpg/sg64_9_cif.got.tgz:16187.got - 2010.04.10 20:19:32.
