data_PCOD8263483
_publ_section_title
;
Structure prediction by ZEFSAII (Michael W. Deem and Ramdas Pophale) SiO2 
 PCOD8263483
Probable space group: C M C A
;
_chemical_formula_sum "Si O2"
_cell_formula_units_Z 96
_cell_length_a 17.804388
_cell_length_b 16.045258
_cell_length_c 18.052436
_cell_angle_alpha 90.000000
_cell_angle_beta 90.000000
_cell_angle_gamma 90.000000
_cell_volume 5157.147689
_symmetry_space_group_name_H-M "C M C A"
_symmetry_group_IT_number 64
_symmetry_cell_setting 'orthorhombic'
loop_
_space_group_symop_operation_xyz
x,y,z
-x,1/2-y,1/2+z
x,-y,-z
-x,1/2+y,1/2-z
-x,-y,-z
x,1/2+y,1/2-z
-x,y,z
x,1/2-y,1/2+z
1/2+x,1/2+y,z
1/2-x,-y,1/2+z
1/2+x,1/2-y,-z
1/2-x,y,1/2-z
1/2-x,1/2-y,-z
1/2+x,y,1/2-z
1/2-x,1/2+y,z
1/2+x,-y,1/2+z
loop_
_atom_site_type_symbol
_atom_site_label
_atom_site_fract_x
_atom_site_fract_y
_atom_site_fract_z
Si Si1 0.685964 0.678750 0.416928
Si Si2 0.348825 0.637056 0.670130
Si Si3 0.414896 0.586190 0.969459
Si Si4 0.326587 0.656951 0.836235
Si Si5 0.913128 0.980161 0.585540
Si Si6 0.650334 0.723293 0.062217
O O1 0.663176 0.745904 0.354881
O O2 0.642544 0.595241 0.393791
O O3 0.664645 0.707613 0.499240
O O4 0.776107 0.668830 0.416736
O O5 0.365385 0.640284 0.757463
O O6 0.259826 0.629775 0.658644
O O7 0.391768 0.558744 0.635821
O O8 0.378625 0.723175 0.632511
O O9 0.500000 0.577062 0.943892
O O10 0.367107 0.602661 0.897211
O O11 0.382862 0.500000 0.000000
O O12 0.410428 0.657674 0.032556
O O13 0.000000 0.955561 0.600848
O O14 0.900833 0.000000 0.500000
#
# Coordination Sequence:
#
# PCOD8263483 Si02
#       6
#    16  16  16  16  16  16
#     4   9  18  35  56  85 111 146 193 231 280 340
#     4  10  20  39  59  88 117 146 194 237 291 347
#     4  10  22  37  56  83 111 149 198 236 277 338
#     4   9  21  39  60  83 113 155 192 235 285 340
#     4  11  23  35  56  90 122 149 186 238 296 352
#     4   9  18  34  60  81 108 148 189 237 280 337
#
# _framework density 18.614941000000002
#
# number of rings (size 3 to 8) (size 9 to 14) (size 15 to 20)
#    0.000    2.333    1.667    1.000    2.333    4.000 
#    3.000    1.667    0.000    0.000    0.000    0.000 
#    0.000    0.000    0.000    0.000    0.000    0.000 
#
# Total GULP energy -595089.038570 kJ/mol
# GULP energy per Si atom -12397.688304 kJ/mol
# Density = 1.857257 g / cm^3
# Si number density = 18.614941 Si / 1000 Ang^3
#
#
#
# Elastic Constant Matrix: (Units=GPa)
#
#
# Indices 1 2 3 4 5 6 
#
# 1 54.2149 42.3731 34.5244 0.0000 0.0000 0.0000
# 2 42.3731 105.2717 51.5732 0.0000 0.0000 0.0000
# 3 34.5244 51.5732 121.8495 0.0000 0.0000 0.0000
# 4 0.0000 0.0000 0.0000 25.0464 0.0000 0.0000
# 5 0.0000 0.0000 0.0000 0.0000 6.1269 0.0000
# 6 0.0000 0.0000 0.0000 0.0000 0.0000 24.8996
#
#
#
# Elastic Compliance Matrix: (Units=1/GPa)
#
#
# Indices 1 2 3 4 5 6 
#
# 1 0.028411 -0.009452 -0.004049 0.000000 0.000000 0.000000
# 2 -0.009452 0.015129 -0.003725 0.000000 0.000000 0.000000
# 3 -0.004049 -0.003725 0.010931 0.000000 0.000000 0.000000
# 4 0.000000 0.000000 0.000000 0.039926 0.000000 0.000000
# 5 0.000000 0.000000 0.000000 0.000000 0.163214 0.000000
# 6 0.000000 0.000000 0.000000 0.000000 0.000000 0.040161
#
#
# Mechanical properties :
#
#
# Convention : Reuss Voigt Hill
#
# Bulk Modulus (GPa) = 49.95567 59.80858 54.88213
# Shear Modulus (GPa) = 14.75369 21.40561 18.07965
#
# Velocity S-wave (km/s) = 2.81832 3.39472 3.11986
# Velocity P-wave (km/s) = 6.12251 6.89671 6.52111
#
# Compressibility (1/GPa) = 0.02001775
#
# Stress axis : x y z
#
# Youngs Moduli (GPa) = 35.19728 66.09907 91.48407
#
# Poissons Ratio (x) = 0.62477 0.37045
# Poissons Ratio (y) = 0.33269 0.34080
# Poissons Ratio (z) = 0.14253 0.24623
#
# Static dielectric constant tensor:
#      x y z
#    x 3.351760 0.000000 0.000000 
#    y 0.000000 3.375620 0.000000 
#    z 0.000000 0.000000 3.475480 
# 
# 
# High freq. dielectric constant tensor:
#      x y z
#    x 1.713230 0.000000 0.000000 
#    y 0.000000 1.720990 0.000000 
#    z 0.000000 0.000000 1.716530 
# 
# From -- ./inp_files/33291.got.cif
#   From: 2010.03.12/outbox.cif.g09.slc.cpg/sg64_17_cif.got.tgz:33291.got - 2010.04.10 20:19:32.
