data_PCOD8263972
_publ_section_title
;
Structure prediction by ZEFSAII (Michael W. Deem and Ramdas Pophale) SiO2 
 PCOD8263972
Probable space group: C M C A
;
_chemical_formula_sum "Si O2"
_cell_formula_units_Z 88
_cell_length_a 17.377752
_cell_length_b 15.455620
_cell_length_c 16.298067
_cell_angle_alpha 90.000000
_cell_angle_beta 90.000000
_cell_angle_gamma 90.000000
_cell_volume 4377.398909
_symmetry_space_group_name_H-M "C M C A"
_symmetry_group_IT_number 64
_symmetry_cell_setting 'orthorhombic'
loop_
_space_group_symop_operation_xyz
x,y,z
-x,1/2-y,1/2+z
x,-y,-z
-x,1/2+y,1/2-z
-x,-y,-z
x,1/2+y,1/2-z
-x,y,z
x,1/2-y,1/2+z
1/2+x,1/2+y,z
1/2-x,-y,1/2+z
1/2+x,1/2-y,-z
1/2-x,y,1/2-z
1/2-x,1/2-y,-z
1/2+x,y,1/2-z
1/2-x,1/2+y,z
1/2+x,-y,1/2+z
loop_
_atom_site_type_symbol
_atom_site_label
_atom_site_fract_x
_atom_site_fract_y
_atom_site_fract_z
Si Si1 0.758690 0.655982 0.466627
Si Si2 0.590746 0.496752 0.677496
Si Si3 0.836076 0.500000 0.000000
Si Si4 0.414957 0.400389 0.018319
Si Si5 0.409661 0.647444 0.797828
Si Si6 0.325789 0.828318 0.799798
O O1 0.750000 0.750000 0.500000
O O2 0.720440 0.580594 0.521121
O O3 0.850823 0.640102 0.457317
O O4 0.705344 0.652102 0.388733
O O5 0.500000 0.491641 0.686000
O O6 0.611113 0.495431 0.580999
O O7 0.621348 0.581680 0.727116
O O8 0.624332 0.412447 0.724470
O O9 0.500000 0.357365 0.003806
O O10 0.387394 0.387761 0.112132
O O11 0.422337 0.500000 0.000000
O O12 0.500000 0.657409 0.788661
O O13 0.374722 0.742138 0.787286
O O14 0.250000 0.815882 0.750000
#
# Coordination Sequence:
#
# PCOD8263972 Si02
#       6
#    16  16   8  16  16  16
#     4  11  22  40  62  93 125 162 204 258 308 371
#     4  10  23  43  66  92 124 164 208 261 317 376
#     4  10  23  40  65  92 124 162 212 258 311 378
#     4  10  21  39  64  92 124 164 207 255 312 370
#     4  10  22  41  63  89 124 162 202 259 315 371
#     4  11  25  39  62  91 124 164 207 255 312 371
#
# _framework density 20.103262999999998
#
# number of rings (size 3 to 8) (size 9 to 14) (size 15 to 20)
#    0.000    1.636    2.727    0.818    5.091    0.727 
#    0.000    1.818    0.000    0.000    0.000    0.000 
#    0.000    0.000    0.000    0.000    0.000    0.000 
#
# Total GULP energy -545169.887501 kJ/mol
# GULP energy per Si atom -12390.224716 kJ/mol
# Density = 2.005751 g / cm^3
# Si number density = 20.103263 Si / 1000 Ang^3
#
#
#
# Elastic Constant Matrix: (Units=GPa)
#
#
# Indices 1 2 3 4 5 6 
#
# 1 89.4886 52.2294 11.6953 0.0000 0.0000 0.0000
# 2 52.2294 142.0787 39.3512 0.0000 0.0000 0.0000
# 3 11.6953 39.3512 42.0874 0.0000 0.0000 0.0000
# 4 0.0000 0.0000 0.0000 32.5388 0.0000 0.0000
# 5 0.0000 0.0000 0.0000 0.0000 42.1026 0.0000
# 6 0.0000 0.0000 0.0000 0.0000 0.0000 96.3477
#
#
#
# Elastic Compliance Matrix: (Units=1/GPa)
#
#
# Indices 1 2 3 4 5 6 
#
# 1 0.014277 -0.005600 0.001268 0.000000 0.000000 0.000000
# 2 -0.005600 0.011694 -0.009378 0.000000 0.000000 0.000000
# 3 0.001268 -0.009378 0.032176 0.000000 0.000000 0.000000
# 4 0.000000 0.000000 0.000000 0.030733 0.000000 0.000000
# 5 0.000000 0.000000 0.000000 0.000000 0.023751 0.000000
# 6 0.000000 0.000000 0.000000 0.000000 0.000000 0.010379
#
#
# Mechanical properties :
#
#
# Convention : Reuss Voigt Hill
#
# Bulk Modulus (GPa) = 32.54295 53.35629 42.94962
# Shear Modulus (GPa) = 31.11934 45.55641 38.33788
#
# Velocity S-wave (km/s) = 3.93870 4.76554 4.37171
# Velocity P-wave (km/s) = 6.07515 7.54183 6.84787
#
# Compressibility (1/GPa) = 0.03072862
#
# Stress axis : x y z
#
# Youngs Moduli (GPa) = 70.04248 85.51229 31.07911
#
# Poissons Ratio (x) = 0.47884 -0.03942
# Poissons Ratio (y) = 0.39221 0.29146
# Poissons Ratio (z) = -0.08883 0.80193
#
# Static dielectric constant tensor:
#      x y z
#    x 3.811870 0.000000 0.000000 
#    y 0.000000 3.758690 0.000000 
#    z 0.000000 0.000000 3.620450 
# 
# 
# High freq. dielectric constant tensor:
#      x y z
#    x 1.800280 0.000000 0.000000 
#    y 0.000000 1.796750 0.000000 
#    z 0.000000 0.000000 1.773440 
# 
# From -- ./inp_files/33126.got.cif
#   From: 2010.03.12/outbox.cif.g09.slc.cpg/sg64_17_cif.got.tgz:33126.got - 2010.04.10 20:19:32.
