data_PCOD8263197
_publ_section_title
;
Structure prediction by ZEFSAII (Michael W. Deem and Ramdas Pophale) SiO2 
 PCOD8263197
Probable space group: C M C A
;
_chemical_formula_sum "Si O2"
_cell_formula_units_Z 96
_cell_length_a 8.916310
_cell_length_b 18.695485
_cell_length_c 30.122553
_cell_angle_alpha 90.000000
_cell_angle_beta 90.000000
_cell_angle_gamma 90.000000
_cell_volume 5021.271136
_symmetry_space_group_name_H-M "C M C A"
_symmetry_group_IT_number 64
_symmetry_cell_setting 'orthorhombic'
loop_
_space_group_symop_operation_xyz
x,y,z
-x,1/2-y,1/2+z
x,-y,-z
-x,1/2+y,1/2-z
-x,-y,-z
x,1/2+y,1/2-z
-x,y,z
x,1/2-y,1/2+z
1/2+x,1/2+y,z
1/2-x,-y,1/2+z
1/2+x,1/2-y,-z
1/2-x,y,1/2-z
1/2-x,1/2-y,-z
1/2+x,y,1/2-z
1/2-x,1/2+y,z
1/2+x,-y,1/2+z
loop_
_atom_site_type_symbol
_atom_site_label
_atom_site_fract_x
_atom_site_fract_y
_atom_site_fract_z
Si Si1 0.174162 0.825019 0.447863
Si Si2 0.173993 0.677830 0.050894
Si Si3 0.675642 0.829971 0.704973
Si Si4 0.823347 0.833855 0.295467
Si Si5 0.325375 0.084418 0.624438
Si Si6 0.174489 0.417526 0.620032
O O1 0.203401 0.839394 0.499517
O O2 0.233423 0.747135 0.433669
O O3 0.264865 0.885584 0.421996
O O4 0.000000 0.829105 0.435024
O O5 0.230776 0.609841 0.078227
O O6 0.000000 0.692608 0.060095
O O7 0.500000 0.837885 0.711357
O O8 0.750000 0.858959 0.750000
O O9 0.723052 0.748226 0.695675
O O10 0.732944 0.877630 0.664120
O O11 0.750000 0.861779 0.250000
O O12 0.763481 0.880763 0.335415
O O13 0.000000 0.843213 0.291678
O O14 0.500000 0.102223 0.629163
O O15 0.293512 0.000636 0.625657
O O16 0.000000 0.401291 0.611433
#
# Coordination Sequence:
#
# PCOD8263197 Si02
#       6
#    16  16  16  16  16  16
#     4  10  21  38  59  83 112 145 184 232 282 332
#     4  10  21  37  60  86 109 141 187 233 278 334
#     4   9  19  36  57  80 105 138 180 225 274 325
#     4  10  20  36  59  83 109 144 186 235 286 334
#     4  11  23  37  55  82 115 151 190 230 277 333
#     4  10  22  38  55  80 116 151 183 226 280 333
#
# _framework density 19.118666000000001
#
# number of rings (size 3 to 8) (size 9 to 14) (size 15 to 20)
#    0.000    2.000    0.000    3.000    0.000    7.333 
#    0.000    5.000    0.000    0.000    0.000    0.000 
#    0.000    0.000    0.000    0.000    0.000    0.000 
#
# Total GULP energy -595486.789742 kJ/mol
# GULP energy per Si atom -12405.974786 kJ/mol
# Density = 1.907515 g / cm^3
# Si number density = 19.118666 Si / 1000 Ang^3
#
#
#
# Elastic Constant Matrix: (Units=GPa)
#
#
# Indices 1 2 3 4 5 6 
#
# 1 72.9192 46.2680 48.8964 0.0000 0.0000 0.0000
# 2 46.2680 96.8041 64.9934 0.0000 0.0000 0.0000
# 3 48.8964 64.9934 114.0159 0.0000 0.0000 0.0000
# 4 0.0000 0.0000 0.0000 12.3243 0.0000 0.0000
# 5 0.0000 0.0000 0.0000 0.0000 38.9077 0.0000
# 6 0.0000 0.0000 0.0000 0.0000 0.0000 28.7612
#
#
#
# Elastic Compliance Matrix: (Units=1/GPa)
#
#
# Indices 1 2 3 4 5 6 
#
# 1 0.021604 -0.006651 -0.005474 0.000000 0.000000 0.000000
# 2 -0.006651 0.018782 -0.007854 0.000000 0.000000 0.000000
# 3 -0.005474 -0.007854 0.015596 0.000000 0.000000 0.000000
# 4 0.000000 0.000000 0.000000 0.081140 0.000000 0.000000
# 5 0.000000 0.000000 0.000000 0.000000 0.025702 0.000000
# 6 0.000000 0.000000 0.000000 0.000000 0.000000 0.034769
#
#
# Mechanical properties :
#
#
# Convention : Reuss Voigt Hill
#
# Bulk Modulus (GPa) = 62.40655 67.11721 64.76188
# Shear Modulus (GPa) = 20.58519 24.23740 22.41130
#
# Velocity S-wave (km/s) = 3.28488 3.56439 3.42749
# Velocity P-wave (km/s) = 6.86293 7.21953 7.04349
#
# Compressibility (1/GPa) = 0.01602396
#
# Stress axis : x y z
#
# Youngs Moduli (GPa) = 46.28687 53.24177 64.12074
#
# Poissons Ratio (x) = 0.35410 0.35100
# Poissons Ratio (y) = 0.30784 0.50363
# Poissons Ratio (z) = 0.25338 0.41818
#
# Static dielectric constant tensor:
#      x y z
#    x 3.553930 0.000000 0.000000 
#    y 0.000000 3.442250 0.000000 
#    z 0.000000 0.000000 3.649310 
# 
# 
# High freq. dielectric constant tensor:
#      x y z
#    x 1.751370 0.000000 0.000000 
#    y 0.000000 1.737360 0.000000 
#    z 0.000000 0.000000 1.755140 
# 
# From -- ./inp_files/48138.got.cif
#   From: 2010.03.12/outbox.cif.g09.slc.cpg/sg64_25_cif.got.tgz:48138.got - 2010.04.10 20:19:32.
