data_PCOD8263925
_publ_section_title
;
Structure prediction by ZEFSAII (Michael W. Deem and Ramdas Pophale) SiO2 
 PCOD8263925
Probable space group: C M C A
;
_chemical_formula_sum "Si O2"
_cell_formula_units_Z 80
_cell_length_a 14.605957
_cell_length_b 9.732962
_cell_length_c 28.670059
_cell_angle_alpha 90.000000
_cell_angle_beta 90.000000
_cell_angle_gamma 90.000000
_cell_volume 4075.713353
_symmetry_space_group_name_H-M "C M C A"
_symmetry_group_IT_number 64
_symmetry_cell_setting 'orthorhombic'
loop_
_space_group_symop_operation_xyz
x,y,z
-x,1/2-y,1/2+z
x,-y,-z
-x,1/2+y,1/2-z
-x,-y,-z
x,1/2+y,1/2-z
-x,y,z
x,1/2-y,1/2+z
1/2+x,1/2+y,z
1/2-x,-y,1/2+z
1/2+x,1/2-y,-z
1/2-x,y,1/2-z
1/2-x,1/2-y,-z
1/2+x,y,1/2-z
1/2-x,1/2+y,z
1/2+x,-y,1/2+z
loop_
_atom_site_type_symbol
_atom_site_label
_atom_site_fract_x
_atom_site_fract_y
_atom_site_fract_z
Si Si1 0.661520 0.088596 0.779254
Si Si2 0.759641 0.988297 0.866019
Si Si3 0.901620 0.621022 0.293611
Si Si4 0.724480 0.764201 0.428213
Si Si5 0.607987 0.338953 0.489504
O O1 0.750000 0.135163 0.750000
O O2 0.596091 0.219303 0.780149
O O3 0.680633 0.046413 0.832602
O O4 0.615684 0.960310 0.754039
O O5 0.831405 0.909278 0.834212
O O6 0.718967 0.881128 0.902494
O O7 0.806555 0.114242 0.893598
O O8 0.000000 0.579258 0.313439
O O9 0.648602 0.754739 0.468827
O O10 0.828568 0.798268 0.445289
O O11 0.620046 0.500000 0.500000
O O12 0.500000 0.303895 0.480882
#
# Coordination Sequence:
#
# PCOD8263925 Si02
#       5
#    16  16  16  16  16
#     4  10  21  39  60  82 118 163 198 236 298 358
#     4  11  22  39  63  87 117 162 202 240 299 357
#     4  11  23  38  58  88 122 155 200 251 295 346
#     4  11  22  41  64  91 122 157 198 253 300 355
#     4  10  22  41  65  91 122 160 197 242 308 372
#
# _framework density 19.628464999999998
#
# number of rings (size 3 to 8) (size 9 to 14) (size 15 to 20)
#    0.000    1.400    4.000    2.400    2.800    1.600 
#    0.000    3.000    0.000    0.000    0.000    0.000 
#    0.000    0.000    0.000    0.000    0.000    0.000 
#
# Total GULP energy -495942.192259 kJ/mol
# GULP energy per Si atom -12398.554806 kJ/mol
# Density = 1.958379 g / cm^3
# Si number density = 19.628465 Si / 1000 Ang^3
#
#
#
# Elastic Constant Matrix: (Units=GPa)
#
#
# Indices 1 2 3 4 5 6 
#
# 1 92.5393 19.9343 16.8176 0.0000 0.0000 0.0000
# 2 19.9343 108.0854 35.1877 0.0000 0.0000 0.0000
# 3 16.8176 35.1877 83.7176 0.0000 0.0000 0.0000
# 4 0.0000 0.0000 0.0000 38.7633 0.0000 0.0000
# 5 0.0000 0.0000 0.0000 0.0000 4.6665 0.0000
# 6 0.0000 0.0000 0.0000 0.0000 0.0000 6.0632
#
#
#
# Elastic Compliance Matrix: (Units=1/GPa)
#
#
# Indices 1 2 3 4 5 6 
#
# 1 0.011443 -0.001578 -0.001636 0.000000 0.000000 0.000000
# 2 -0.001578 0.010936 -0.004280 0.000000 0.000000 0.000000
# 3 -0.001636 -0.004280 0.014072 0.000000 0.000000 0.000000
# 4 0.000000 0.000000 0.000000 0.025798 0.000000 0.000000
# 5 0.000000 0.000000 0.000000 0.000000 0.214295 0.000000
# 6 0.000000 0.000000 0.000000 0.000000 0.000000 0.164929
#
#
# Mechanical properties :
#
#
# Convention : Reuss Voigt Hill
#
# Bulk Modulus (GPa) = 46.58652 47.58015 47.08333
# Shear Modulus (GPa) = 10.78481 24.05879 17.42180
#
# Velocity S-wave (km/s) = 2.34657 3.50481 2.98246
# Velocity P-wave (km/s) = 5.57921 6.37740 5.99161
#
# Compressibility (1/GPa) = 0.02146544
#
# Stress axis : x y z
#
# Youngs Moduli (GPa) = 87.38670 91.43905 71.06176
#
# Poissons Ratio (x) = 0.14430 0.11622
# Poissons Ratio (y) = 0.13790 0.30412
# Poissons Ratio (z) = 0.14292 0.39133
#
# Static dielectric constant tensor:
#      x y z
#    x 3.466470 0.000000 0.000000 
#    y 0.000000 3.659300 0.000000 
#    z 0.000000 0.000000 3.806800 
# 
# 
# High freq. dielectric constant tensor:
#      x y z
#    x 1.745950 0.000000 0.000000 
#    y 0.000000 1.779200 0.000000 
#    z 0.000000 0.000000 1.772090 
# 
# From -- ./inp_files/50305.got.cif
#   From: 2010.03.12/outbox.cif.g09.slc.cpg/sg64_26_cif.got.tgz:50305.got - 2010.04.10 20:19:32.
