data_PCOD8263491
_publ_section_title
;
Structure prediction by ZEFSAII (Michael W. Deem and Ramdas Pophale) SiO2 
 PCOD8263491
Probable space group: C M C A
;
_chemical_formula_sum "Si O2"
_cell_formula_units_Z 80
_cell_length_a 17.204994
_cell_length_b 15.705877
_cell_length_c 14.426414
_cell_angle_alpha 90.000000
_cell_angle_beta 90.000000
_cell_angle_gamma 90.000000
_cell_volume 3898.298660
_symmetry_space_group_name_H-M "C M C A"
_symmetry_group_IT_number 64
_symmetry_cell_setting 'orthorhombic'
loop_
_space_group_symop_operation_xyz
x,y,z
-x,1/2-y,1/2+z
x,-y,-z
-x,1/2+y,1/2-z
-x,-y,-z
x,1/2+y,1/2-z
-x,y,z
x,1/2-y,1/2+z
1/2+x,1/2+y,z
1/2-x,-y,1/2+z
1/2+x,1/2-y,-z
1/2-x,y,1/2-z
1/2-x,1/2-y,-z
1/2+x,y,1/2-z
1/2-x,1/2+y,z
1/2+x,-y,1/2+z
loop_
_atom_site_type_symbol
_atom_site_label
_atom_site_fract_x
_atom_site_fract_y
_atom_site_fract_z
Si Si1 0.740956 0.377788 0.141309
Si Si2 0.914048 0.324846 0.430015
Si Si3 0.913650 0.329985 0.792586
Si Si4 0.822908 0.793518 0.891760
Si Si5 0.786063 0.057023 0.350286
O O1 0.750000 0.364762 0.250000
O O2 0.649651 0.387519 0.115243
O O3 0.776505 0.294618 0.091136
O O4 0.783148 0.463364 0.102354
O O5 0.917170 0.239184 0.371978
O O6 0.892070 0.301649 0.535169
O O7 0.000000 0.368023 0.429525
O O8 0.859840 0.294262 0.710386
O O9 0.875193 0.413899 0.838014
O O10 0.000000 0.353215 0.756869
O O11 0.762963 0.871865 0.906060
O O12 0.750000 0.042608 0.250000
#
# Coordination Sequence:
#
# PCOD8263491 Si02
#       5
#    16  16  16  16  16
#     4  11  20  39  63  88 118 161 202 243 297 361
#     4  11  23  38  61  92 119 154 202 251 304 353
#     4  10  20  39  61  87 124 158 196 252 300 346
#     4  11  20  40  61  85 120 163 202 241 299 361
#     4   9  20  36  60  88 116 159 203 238 291 361
#
# _framework density 20.521773
#
# number of rings (size 3 to 8) (size 9 to 14) (size 15 to 20)
#    0.000    1.600    4.000    1.800    0.000    0.800 
#    0.000   13.000    0.000    2.400    0.000    0.000 
#    0.000    0.000    0.000    0.000    0.000    0.000 
#
# Total GULP energy -495939.892306 kJ/mol
# GULP energy per Si atom -12398.497308 kJ/mol
# Density = 2.047507 g / cm^3
# Si number density = 20.521773 Si / 1000 Ang^3
#
#
#
# Elastic Constant Matrix: (Units=GPa)
#
#
# Indices 1 2 3 4 5 6 
#
# 1 142.4961 44.1639 22.0540 0.0000 0.0000 0.0000
# 2 44.1639 130.0010 17.0449 0.0000 0.0000 0.0000
# 3 22.0540 17.0449 62.1384 0.0000 0.0000 0.0000
# 4 0.0000 0.0000 0.0000 6.2422 0.0000 0.0000
# 5 0.0000 0.0000 0.0000 0.0000 32.5680 0.0000
# 6 0.0000 0.0000 0.0000 0.0000 0.0000 25.4962
#
#
#
# Elastic Compliance Matrix: (Units=1/GPa)
#
#
# Indices 1 2 3 4 5 6 
#
# 1 0.008125 -0.002471 -0.002206 0.000000 0.000000 0.000000
# 2 -0.002471 0.008731 -0.001518 0.000000 0.000000 0.000000
# 3 -0.002206 -0.001518 0.017292 0.000000 0.000000 0.000000
# 4 0.000000 0.000000 0.000000 0.160200 0.000000 0.000000
# 5 0.000000 0.000000 0.000000 0.000000 0.030705 0.000000
# 6 0.000000 0.000000 0.000000 0.000000 0.000000 0.039222
#
#
# Mechanical properties :
#
#
# Convention : Reuss Voigt Hill
#
# Bulk Modulus (GPa) = 45.95900 55.68459 50.82179
# Shear Modulus (GPa) = 17.61078 29.61944 23.61511
#
# Velocity S-wave (km/s) = 2.93260 3.80322 3.39593
# Velocity P-wave (km/s) = 5.82329 6.81757 6.33995
#
# Compressibility (1/GPa) = 0.02175853
#
# Stress axis : x y z
#
# Youngs Moduli (GPa) = 123.07725 114.53822 57.82893
#
# Poissons Ratio (x) = 0.28302 0.12756
# Poissons Ratio (y) = 0.30412 0.08778
# Poissons Ratio (z) = 0.27150 0.17386
#
# Static dielectric constant tensor:
#      x y z
#    x 4.143930 0.000000 0.000000 
#    y 0.000000 3.866290 0.000000 
#    z 0.000000 0.000000 3.586040 
# 
# 
# High freq. dielectric constant tensor:
#      x y z
#    x 1.798690 0.000000 0.000000 
#    y 0.000000 1.790400 0.000000 
#    z 0.000000 0.000000 1.806980 
# 
# From -- ./inp_files/25270.got.cif
#   From: 2010.03.12/outbox.cif.g09.slc.cpg/sg64_13_cif.got.tgz:25270.got - 2010.04.10 20:19:32.
