data_PCOD8263508
_publ_section_title
;
Structure prediction by ZEFSAII (Michael W. Deem and Ramdas Pophale) SiO2 
 PCOD8263508
Probable space group: C M C A
;
_chemical_formula_sum "Si O2"
_cell_formula_units_Z 104
_cell_length_a 22.378216
_cell_length_b 28.338941
_cell_length_c 8.029762
_cell_angle_alpha 90.000000
_cell_angle_beta 90.000000
_cell_angle_gamma 90.000000
_cell_volume 5092.273858
_symmetry_space_group_name_H-M "C M C A"
_symmetry_group_IT_number 64
_symmetry_cell_setting 'orthorhombic'
loop_
_space_group_symop_operation_xyz
x,y,z
-x,1/2-y,1/2+z
x,-y,-z
-x,1/2+y,1/2-z
-x,-y,-z
x,1/2+y,1/2-z
-x,y,z
x,1/2-y,1/2+z
1/2+x,1/2+y,z
1/2-x,-y,1/2+z
1/2+x,1/2-y,-z
1/2-x,y,1/2-z
1/2-x,1/2-y,-z
1/2+x,y,1/2-z
1/2-x,1/2+y,z
1/2+x,-y,1/2+z
loop_
_atom_site_type_symbol
_atom_site_label
_atom_site_fract_x
_atom_site_fract_y
_atom_site_fract_z
Si Si1 0.694409 0.964684 0.354861
Si Si2 0.400320 0.822255 0.373067
Si Si3 0.263898 0.893085 0.932960
Si Si4 0.772603 0.201261 0.934995
Si Si5 0.500000 0.628297 0.479610
Si Si6 0.000000 0.224491 0.682137
Si Si7 0.379517 0.095413 0.874187
Si Si8 0.000000 0.665271 0.387372
O O1 0.750000 0.987465 0.250000
O O2 0.719333 0.916540 0.434315
O O3 0.637262 0.950913 0.238502
O O4 0.673064 0.000000 0.500000
O O5 0.344148 0.796520 0.454280
O O6 0.440352 0.781460 0.290503
O O7 0.374124 0.858637 0.239857
O O8 0.440542 0.849764 0.510642
O O9 0.250000 0.912779 0.750000
O O10 0.253003 0.837503 0.939670
O O11 0.332621 0.903633 0.974930
O O12 0.750000 0.190496 0.750000
O O13 0.750000 0.250000 0.000000
O O14 0.500000 0.682052 0.546740
O O15 0.555154 0.596065 0.542357
O O16 0.500000 0.635403 0.281536
O O17 0.000000 0.277572 0.617147
#
# Coordination Sequence:
#
# PCOD8263508 Si02
#       8
#    16  16  16  16   8   8  16   8
#     4  10  20  39  65  95 123 157 200 255 312 378
#     4  10  21  39  56  77 116 160 203 252 312 360
#     4  11  22  38  61  90 121 159 204 254 310 372
#     4  12  24  38  54  84 122 165 202 250 316 377
#     4  10  22  36  59  85 116 163 206 258 324 354
#     4   9  21  39  55  76 110 157 215 272 293 350
#     4  10  21  41  61  84 126 159 199 253 314 366
#     4  11  23  35  59  87 109 160 226 266 290 366
#
# _framework density 20.423095
#
# number of rings (size 3 to 8) (size 9 to 14) (size 15 to 20)
#    0.000    1.538    3.077    2.769    4.308    1.231 
#    0.000    0.385    0.000    0.000    0.000   19.385 
#    0.000    0.000    0.000    0.000    0.000    0.000 
#
# Total GULP energy -644631.144784 kJ/mol
# GULP energy per Si atom -12396.752784 kJ/mol
# Density = 2.037661 g / cm^3
# Si number density = 20.423095 Si / 1000 Ang^3
#
#
#
# Elastic Constant Matrix: (Units=GPa)
#
#
# Indices 1 2 3 4 5 6 
#
# 1 153.8262 29.2922 61.6261 0.0000 0.0000 0.0000
# 2 29.2922 63.7425 23.5409 0.0000 0.0000 0.0000
# 3 61.6261 23.5409 123.0060 0.0000 0.0000 0.0000
# 4 0.0000 0.0000 0.0000 31.4162 0.0000 0.0000
# 5 0.0000 0.0000 0.0000 0.0000 34.7981 0.0000
# 6 0.0000 0.0000 0.0000 0.0000 0.0000 14.3296
#
#
#
# Elastic Compliance Matrix: (Units=1/GPa)
#
#
# Indices 1 2 3 4 5 6 
#
# 1 0.008490 -0.002508 -0.003774 0.000000 0.000000 0.000000
# 2 -0.002508 0.017622 -0.002116 0.000000 0.000000 0.000000
# 3 -0.003774 -0.002116 0.010425 0.000000 0.000000 0.000000
# 4 0.000000 0.000000 0.000000 0.031831 0.000000 0.000000
# 5 0.000000 0.000000 0.000000 0.000000 0.028737 0.000000
# 6 0.000000 0.000000 0.000000 0.000000 0.000000 0.069786
#
#
# Mechanical properties :
#
#
# Convention : Reuss Voigt Hill
#
# Bulk Modulus (GPa) = 50.65259 63.27703 56.96481
# Shear Modulus (GPa) = 26.27884 31.18314 28.73099
#
# Velocity S-wave (km/s) = 3.59098 3.91174 3.75479
# Velocity P-wave (km/s) = 6.48452 7.17305 6.83746
#
# Compressibility (1/GPa) = 0.01974233
#
# Stress axis : x y z
#
# Youngs Moduli (GPa) = 117.78267 56.74695 95.92099
#
# Poissons Ratio (x) = 0.14232 0.36197
# Poissons Ratio (y) = 0.29539 0.20297
# Poissons Ratio (z) = 0.44447 0.12008
#
# Static dielectric constant tensor:
#      x y z
#    x 3.958890 0.000000 0.000000 
#    y 0.000000 3.319960 0.000000 
#    z 0.000000 0.000000 4.066570 
# 
# 
# High freq. dielectric constant tensor:
#      x y z
#    x 1.798530 0.000000 0.000000 
#    y 0.000000 1.770340 0.000000 
#    z 0.000000 0.000000 1.807790 
# 
# From -- ./inp_files/9706.got.cif
#   From: 2010.03.12/outbox.cif.g09.slc.cpg/sg64_5_cif.got.tgz:9706.got - 2010.04.10 20:19:32.
