data_PCOD8263268
_publ_section_title
;
Structure prediction by ZEFSAII (Michael W. Deem and Ramdas Pophale) SiO2 
 PCOD8263268
Probable space group: C M C A
;
_chemical_formula_sum "Si O2"
_cell_formula_units_Z 72
_cell_length_a 17.170642
_cell_length_b 13.487730
_cell_length_c 14.765177
_cell_angle_alpha 90.000000
_cell_angle_beta 90.000000
_cell_angle_gamma 90.000000
_cell_volume 3419.511389
_symmetry_space_group_name_H-M "C M C A"
_symmetry_group_IT_number 64
_symmetry_cell_setting 'orthorhombic'
loop_
_space_group_symop_operation_xyz
x,y,z
-x,1/2-y,1/2+z
x,-y,-z
-x,1/2+y,1/2-z
-x,-y,-z
x,1/2+y,1/2-z
-x,y,z
x,1/2-y,1/2+z
1/2+x,1/2+y,z
1/2-x,-y,1/2+z
1/2+x,1/2-y,-z
1/2-x,y,1/2-z
1/2-x,1/2-y,-z
1/2+x,y,1/2-z
1/2-x,1/2+y,z
1/2+x,-y,1/2+z
loop_
_atom_site_type_symbol
_atom_site_label
_atom_site_fract_x
_atom_site_fract_y
_atom_site_fract_z
Si Si1 0.805535 0.489592 0.664572
Si Si2 0.411318 0.813523 0.722932
Si Si3 0.671544 0.207494 0.616537
Si Si4 0.347661 0.702551 0.567926
Si Si5 0.200275 0.500000 0.000000
O O1 0.750000 0.503201 0.750000
O O2 0.874152 0.412628 0.681913
O O3 0.846557 0.594522 0.643276
O O4 0.754684 0.453294 0.578465
O O5 0.500000 0.834202 0.750594
O O6 0.363880 0.782880 0.811429
O O7 0.409348 0.727373 0.646436
O O8 0.633854 0.229453 0.518825
O O9 0.763707 0.226724 0.611509
O O10 0.353540 0.586769 0.540662
#
# Coordination Sequence:
#
# PCOD8263268 Si02
#       5
#    16  16  16  16   8
#     4  11  21  37  61  86 111 147 196 245 288 335
#     4  12  25  38  55  85 125 160 187 226 287 354
#     4  10  21  39  64  87 111 147 198 249 288 329
#     4  10  20  39  63  89 114 146 195 245 288 336
#     4  10  20  36  66  92 108 140 198 254 290 326
#
# _framework density 21.05564
#
# number of rings (size 3 to 8) (size 9 to 14) (size 15 to 20)
#    0.000    1.333    0.000   10.000    0.000    1.778 
#    0.000    4.444    0.000    0.000    0.000    4.667 
#    0.000    0.000    0.000    0.000    0.000    0.000 
#
# Total GULP energy -446539.682240 kJ/mol
# GULP energy per Si atom -12403.880062 kJ/mol
# Density = 2.100772 g / cm^3
# Si number density = 21.055640 Si / 1000 Ang^3
#
#
#
# Elastic Constant Matrix: (Units=GPa)
#
#
# Indices 1 2 3 4 5 6 
#
# 1 51.8845 49.5549 39.8288 0.0000 0.0000 0.0000
# 2 49.5549 134.3040 47.8739 0.0000 0.0000 0.0000
# 3 39.8288 47.8739 132.9312 0.0000 0.0000 0.0000
# 4 0.0000 0.0000 0.0000 41.4433 0.0000 0.0000
# 5 0.0000 0.0000 0.0000 0.0000 13.3103 0.0000
# 6 0.0000 0.0000 0.0000 0.0000 0.0000 11.3801
#
#
#
# Elastic Compliance Matrix: (Units=1/GPa)
#
#
# Indices 1 2 3 4 5 6 
#
# 1 0.034060 -0.010245 -0.006515 0.000000 0.000000 0.000000
# 2 -0.010245 0.011624 -0.001117 0.000000 0.000000 0.000000
# 3 -0.006515 -0.001117 0.009877 0.000000 0.000000 0.000000
# 4 0.000000 0.000000 0.000000 0.024129 0.000000 0.000000
# 5 0.000000 0.000000 0.000000 0.000000 0.075130 0.000000
# 6 0.000000 0.000000 0.000000 0.000000 0.000000 0.087873
#
#
# Mechanical properties :
#
#
# Convention : Reuss Voigt Hill
#
# Bulk Modulus (GPa) = 50.48726 65.95944 58.22335
# Shear Modulus (GPa) = 17.54083 25.35088 21.44586
#
# Velocity S-wave (km/s) = 2.88943 3.47363 3.19491
# Velocity P-wave (km/s) = 5.92974 6.89075 6.42823
#
# Compressibility (1/GPa) = 0.01980698
#
# Stress axis : x y z
#
# Youngs Moduli (GPa) = 29.35995 86.02938 101.24504
#
# Poissons Ratio (x) = 0.88135 0.65966
# Poissons Ratio (y) = 0.30079 0.11306
# Poissons Ratio (z) = 0.19129 0.09607
#
# Static dielectric constant tensor:
#      x y z
#    x 3.249090 0.000000 0.000000 
#    y 0.000000 3.902230 0.000000 
#    z 0.000000 0.000000 4.159700 
# 
# 
# High freq. dielectric constant tensor:
#      x y z
#    x 1.767280 0.000000 0.000000 
#    y 0.000000 1.839810 0.000000 
#    z 0.000000 0.000000 1.852430 
# 
# From -- ./inp_files/25096.got.cif
#   From: 2010.03.12/outbox.cif.g09.slc.cpg/sg64_13_cif.got.tgz:25096.got - 2010.04.10 20:19:32.
