data_PCOD8263564
_publ_section_title
;
Structure prediction by ZEFSAII (Michael W. Deem and Ramdas Pophale) SiO2 
 PCOD8263564
Probable space group: C M C A
;
_chemical_formula_sum "Si O2"
_cell_formula_units_Z 112
_cell_length_a 14.389667
_cell_length_b 20.962788
_cell_length_c 16.854479
_cell_angle_alpha 90.000000
_cell_angle_beta 90.000000
_cell_angle_gamma 90.000000
_cell_volume 5084.112107
_symmetry_space_group_name_H-M "C M C A"
_symmetry_group_IT_number 64
_symmetry_cell_setting 'orthorhombic'
loop_
_space_group_symop_operation_xyz
x,y,z
-x,1/2-y,1/2+z
x,-y,-z
-x,1/2+y,1/2-z
-x,-y,-z
x,1/2+y,1/2-z
-x,y,z
x,1/2-y,1/2+z
1/2+x,1/2+y,z
1/2-x,-y,1/2+z
1/2+x,1/2-y,-z
1/2-x,y,1/2-z
1/2-x,1/2-y,-z
1/2+x,y,1/2-z
1/2-x,1/2+y,z
1/2+x,-y,1/2+z
loop_
_atom_site_type_symbol
_atom_site_label
_atom_site_fract_x
_atom_site_fract_y
_atom_site_fract_z
Si Si1 0.105771 0.643382 0.156910
Si Si2 0.101351 0.498174 0.906089
Si Si3 0.891557 0.124677 0.892884
Si Si4 0.220256 0.017753 0.835185
Si Si5 0.103224 0.800319 0.827361
Si Si6 0.227629 0.750632 0.091807
Si Si7 0.896856 0.419212 0.567082
O O1 0.124077 0.570467 0.133258
O O2 0.127934 0.658651 0.249127
O O3 0.173375 0.684972 0.103624
O O4 0.000000 0.661587 0.136829
O O5 0.184798 0.543477 0.877099
O O6 0.000000 0.521278 0.875151
O O7 0.100199 0.500000 0.000000
O O8 0.851140 0.076754 0.826177
O O9 0.838002 0.190930 0.884888
O O10 0.000000 0.138418 0.879284
O O11 0.871603 0.086549 0.974509
O O12 0.250000 0.990621 0.750000
O O13 0.177546 0.961144 0.887246
O O14 0.180990 0.747461 0.850386
O O15 0.103191 0.847649 0.901438
O O16 0.000000 0.768683 0.819074
O O17 0.250000 0.750000 0.000000
O O18 0.000000 0.449652 0.577807
#
# Coordination Sequence:
#
# PCOD8263564 Si02
#       7
#    16  16  16  16  16  16  16
#     4  10  22  40  65  95 129 172 216 271 333 394
#     4  10  22  40  65  96 133 170 214 268 330 398
#     4  11  25  45  67  95 130 172 224 277 329 395
#     4  12  25  39  63  95 132 173 215 265 329 398
#     4  10  21  39  65  98 131 165 219 276 329 390
#     4  12  24  39  65  94 127 173 222 278 326 389
#     4  10  20  40  68  97 125 165 219 276 329 388
#
# _framework density 22.029413000000002
#
# number of rings (size 3 to 8) (size 9 to 14) (size 15 to 20)
#    0.000    1.286    1.429    4.286    2.000    5.143 
#    0.000    0.714    0.000    0.000    0.000    0.000 
#    0.000    0.000    0.000    0.000    0.000    0.000 
#
# Total GULP energy -694229.712678 kJ/mol
# GULP energy per Si atom -12396.959155 kJ/mol
# Density = 2.197927 g / cm^3
# Si number density = 22.029413 Si / 1000 Ang^3
#
#
#
# Elastic Constant Matrix: (Units=GPa)
#
#
# Indices 1 2 3 4 5 6 
#
# 1 166.4349 51.1303 48.8650 0.0000 0.0000 0.0000
# 2 51.1303 59.4151 15.8486 0.0000 0.0000 0.0000
# 3 48.8650 15.8486 88.2569 0.0000 0.0000 0.0000
# 4 0.0000 0.0000 0.0000 35.5873 0.0000 0.0000
# 5 0.0000 0.0000 0.0000 0.0000 36.2853 0.0000
# 6 0.0000 0.0000 0.0000 0.0000 0.0000 32.9845
#
#
#
# Elastic Compliance Matrix: (Units=1/GPa)
#
#
# Indices 1 2 3 4 5 6 
#
# 1 0.009288 -0.006954 -0.003894 0.000000 0.000000 0.000000
# 2 -0.006954 0.022884 -0.000259 0.000000 0.000000 0.000000
# 3 -0.003894 -0.000259 0.013533 0.000000 0.000000 0.000000
# 4 0.000000 0.000000 0.000000 0.028100 0.000000 0.000000
# 5 0.000000 0.000000 0.000000 0.000000 0.027559 0.000000
# 6 0.000000 0.000000 0.000000 0.000000 0.000000 0.030317
#
#
# Mechanical properties :
#
#
# Convention : Reuss Voigt Hill
#
# Bulk Modulus (GPa) = 42.56900 60.64385 51.60643
# Shear Modulus (GPa) = 30.91649 34.18896 32.55273
#
# Velocity S-wave (km/s) = 3.75029 3.94378 3.84825
# Velocity P-wave (km/s) = 6.17402 6.95170 6.57437
#
# Compressibility (1/GPa) = 0.02349127
#
# Stress axis : x y z
#
# Youngs Moduli (GPa) = 107.66675 43.69793 73.89421
#
# Poissons Ratio (x) = 0.30388 0.28772
# Poissons Ratio (y) = 0.74874 0.01915
# Poissons Ratio (z) = 0.41921 0.01132
#
# Static dielectric constant tensor:
#      x y z
#    x 4.688880 0.000000 0.000000 
#    y 0.000000 3.727570 0.000000 
#    z 0.000000 0.000000 3.935950 
# 
# 
# High freq. dielectric constant tensor:
#      x y z
#    x 1.897920 0.000000 0.000000 
#    y 0.000000 1.836680 0.000000 
#    z 0.000000 0.000000 1.865950 
# 
# From -- ./inp_files/24291.got.cif
#   From: 2010.03.12/outbox.cif.g09.slc.cpg/sg64_13_cif.got.tgz:24291.got - 2010.04.10 20:19:32.
