data_PCOD8263269
_publ_section_title
;
Structure prediction by ZEFSAII (Michael W. Deem and Ramdas Pophale) SiO2 
 PCOD8263269
Probable space group: C M C A
;
_chemical_formula_sum "Si O2"
_cell_formula_units_Z 112
_cell_length_a 27.327275
_cell_length_b 15.825416
_cell_length_c 12.098829
_cell_angle_alpha 90.000000
_cell_angle_beta 90.000000
_cell_angle_gamma 90.000000
_cell_volume 5232.326073
_symmetry_space_group_name_H-M "C M C A"
_symmetry_group_IT_number 64
_symmetry_cell_setting 'orthorhombic'
loop_
_space_group_symop_operation_xyz
x,y,z
-x,1/2-y,1/2+z
x,-y,-z
-x,1/2+y,1/2-z
-x,-y,-z
x,1/2+y,1/2-z
-x,y,z
x,1/2-y,1/2+z
1/2+x,1/2+y,z
1/2-x,-y,1/2+z
1/2+x,1/2-y,-z
1/2-x,y,1/2-z
1/2-x,1/2-y,-z
1/2+x,y,1/2-z
1/2-x,1/2+y,z
1/2+x,-y,1/2+z
loop_
_atom_site_type_symbol
_atom_site_label
_atom_site_fract_x
_atom_site_fract_y
_atom_site_fract_z
Si Si1 0.103662 0.610664 0.634973
Si Si2 0.555486 0.563295 0.173138
Si Si3 0.190339 0.407534 0.531240
Si Si4 0.945864 0.722278 0.485240
Si Si5 0.632567 0.815279 0.150478
Si Si6 0.354118 0.137988 0.242604
Si Si7 0.701993 0.600201 0.481150
O O1 0.075897 0.522160 0.616376
O O2 0.150458 0.626793 0.555186
O O3 0.069719 0.693103 0.608830
O O4 0.116597 0.611663 0.764634
O O5 0.500000 0.549806 0.217746
O O6 0.556972 0.633819 0.078955
O O7 0.590803 0.598997 0.270793
O O8 0.205651 0.500000 0.500000
O O9 0.170005 0.411467 0.655095
O O10 0.242961 0.361190 0.525304
O O11 0.911117 0.793394 0.433907
O O12 0.000000 0.761363 0.486428
O O13 0.647637 0.736191 0.225689
O O14 0.678213 0.849188 0.082159
O O15 0.324856 0.123160 0.131884
O O16 0.697822 0.500000 0.500000
#
# Coordination Sequence:
#
# PCOD8263269 Si02
#       7
#    16  16  16  16  16  16  16
#     4  12  20  39  63  93 128 159 215 268 321 384
#     4  10  20  36  67  98 120 157 208 268 330 379
#     4  11  22  41  69  95 122 167 217 273 325 383
#     4  10  21  39  61  91 127 162 206 264 330 384
#     4  11  25  41  62  91 130 174 210 269 326 393
#     4  11  22  44  64  92 133 165 216 273 329 397
#     4  11  26  45  64  92 132 176 222 263 337 398
#
# _framework density 21.405394000000001
#
# number of rings (size 3 to 8) (size 9 to 14) (size 15 to 20)
#    0.000    1.143    4.286    3.000    0.000    3.429 
#    2.571    3.571    0.000    1.714    0.000    0.000 
#    0.000    0.000    0.000    0.000    0.000    0.000 
#
# Total GULP energy -694157.550925 kJ/mol
# GULP energy per Si atom -12395.670552 kJ/mol
# Density = 2.135667 g / cm^3
# Si number density = 21.405394 Si / 1000 Ang^3
#
#
#
# Elastic Constant Matrix: (Units=GPa)
#
#
# Indices 1 2 3 4 5 6 
#
# 1 168.6479 37.9512 39.0864 0.0000 0.0000 0.0000
# 2 37.9512 52.4540 27.6875 0.0000 0.0000 0.0000
# 3 39.0864 27.6875 69.9160 0.0000 0.0000 0.0000
# 4 0.0000 0.0000 0.0000 24.0274 0.0000 0.0000
# 5 0.0000 0.0000 0.0000 0.0000 25.0045 0.0000
# 6 0.0000 0.0000 0.0000 0.0000 0.0000 16.1508
#
#
#
# Elastic Compliance Matrix: (Units=1/GPa)
#
#
# Indices 1 2 3 4 5 6 
#
# 1 0.007428 -0.004023 -0.002559 0.000000 0.000000 0.000000
# 2 -0.004023 0.026282 -0.008159 0.000000 0.000000 0.000000
# 3 -0.002559 -0.008159 0.018965 0.000000 0.000000 0.000000
# 4 0.000000 0.000000 0.000000 0.041619 0.000000 0.000000
# 5 0.000000 0.000000 0.000000 0.000000 0.039993 0.000000
# 6 0.000000 0.000000 0.000000 0.000000 0.000000 0.061917
#
#
# Mechanical properties :
#
#
# Convention : Reuss Voigt Hill
#
# Bulk Modulus (GPa) = 43.11882 55.60758 49.36320
# Shear Modulus (GPa) = 21.42097 25.45606 23.43852
#
# Velocity S-wave (km/s) = 3.16686 3.45227 3.31264
# Velocity P-wave (km/s) = 5.79307 6.47500 6.14350
#
# Compressibility (1/GPa) = 0.02319173
#
# Stress axis : x y z
#
# Youngs Moduli (GPa) = 134.62459 38.04920 52.72990
#
# Poissons Ratio (x) = 0.15309 0.13495
# Poissons Ratio (y) = 0.54165 0.43020
# Poissons Ratio (z) = 0.34455 0.31043
#
# Static dielectric constant tensor:
#      x y z
#    x 4.307670 0.000000 0.000000 
#    y 0.000000 3.796240 0.000000 
#    z 0.000000 0.000000 3.689090 
# 
# 
# High freq. dielectric constant tensor:
#      x y z
#    x 1.853410 0.000000 0.000000 
#    y 0.000000 1.834380 0.000000 
#    z 0.000000 0.000000 1.827410 
# 
# From -- ./inp_files/19852.got.cif
#   From: 2010.03.12/outbox.cif.g09.slc.cpg/sg64_10_cif.got.tgz:19852.got - 2010.04.10 20:19:32.
