data_PCOD8263989
_publ_section_title
;
Structure prediction by ZEFSAII (Michael W. Deem and Ramdas Pophale) SiO2 
 PCOD8263989
Probable space group: C M C A
;
_chemical_formula_sum "Si O2"
_cell_formula_units_Z 112
_cell_length_a 17.044085
_cell_length_b 21.659364
_cell_length_c 14.260299
_cell_angle_alpha 90.000000
_cell_angle_beta 90.000000
_cell_angle_gamma 90.000000
_cell_volume 5264.389606
_symmetry_space_group_name_H-M "C M C A"
_symmetry_group_IT_number 64
_symmetry_cell_setting 'orthorhombic'
loop_
_space_group_symop_operation_xyz
x,y,z
-x,1/2-y,1/2+z
x,-y,-z
-x,1/2+y,1/2-z
-x,-y,-z
x,1/2+y,1/2-z
-x,y,z
x,1/2-y,1/2+z
1/2+x,1/2+y,z
1/2-x,-y,1/2+z
1/2+x,1/2-y,-z
1/2-x,y,1/2-z
1/2-x,1/2-y,-z
1/2+x,y,1/2-z
1/2-x,1/2+y,z
1/2+x,-y,1/2+z
loop_
_atom_site_type_symbol
_atom_site_label
_atom_site_fract_x
_atom_site_fract_y
_atom_site_fract_z
Si Si1 0.090373 0.653409 0.619102
Si Si2 0.087339 0.537499 0.239137
Si Si3 0.591378 0.120243 0.076324
Si Si4 0.675932 0.524595 0.899076
Si Si5 0.342278 0.743612 0.505960
Si Si6 0.591440 0.182852 0.825333
Si Si7 0.645103 0.443227 0.400607
O O1 0.138216 0.590325 0.623297
O O2 0.118364 0.694759 0.533390
O O3 0.103266 0.692934 0.714529
O O4 0.000000 0.635425 0.606403
O O5 0.107729 0.601316 0.184410
O O6 0.148510 0.525407 0.322080
O O7 0.085912 0.484262 0.160027
O O8 0.000000 0.540650 0.282469
O O9 0.500000 0.130351 0.056620
O O10 0.634607 0.183967 0.054973
O O11 0.622012 0.063493 0.010434
O O12 0.768702 0.528711 0.891163
O O13 0.648815 0.500000 0.000000
O O14 0.250000 0.750000 0.500000
O O15 0.372995 0.739168 0.613542
O O16 0.500000 0.173372 0.850670
O O17 0.642573 0.124653 0.856773
#
# Coordination Sequence:
#
# PCOD8263989 Si02
#       7
#    16  16  16  16  16  16  16
#     4  11  23  42  68  93 125 172 218 264 318 384
#     4  11  22  38  62  91 122 168 213 261 317 373
#     4  10  21  39  65  95 127 160 214 275 320 374
#     4  12  26  41  60  92 135 176 212 259 323 394
#     4  11  23  40  66  96 132 167 208 269 328 384
#     4  10  21  40  68  96 124 165 221 268 314 382
#     4  11  20  36  64  93 125 159 206 267 325 375
#
# _framework density 21.275020999999999
#
# number of rings (size 3 to 8) (size 9 to 14) (size 15 to 20)
#    0.000    1.143    1.429    7.286    0.000    4.000 
#    2.571    0.000    6.286    0.000    0.000    0.000 
#    0.000    0.000    0.000    0.000    0.000    0.000 
#
# Total GULP energy -694485.162920 kJ/mol
# GULP energy per Si atom -12401.520766 kJ/mol
# Density = 2.122660 g / cm^3
# Si number density = 21.275021 Si / 1000 Ang^3
#
#
#
# Elastic Constant Matrix: (Units=GPa)
#
#
# Indices 1 2 3 4 5 6 
#
# 1 131.0442 39.4831 52.7724 0.0000 0.0000 0.0000
# 2 39.4831 51.2719 26.8311 0.0000 0.0000 0.0000
# 3 52.7724 26.8311 101.7698 0.0000 0.0000 0.0000
# 4 0.0000 0.0000 0.0000 33.2161 0.0000 0.0000
# 5 0.0000 0.0000 0.0000 0.0000 30.0503 0.0000
# 6 0.0000 0.0000 0.0000 0.0000 0.0000 34.8527
#
#
#
# Elastic Compliance Matrix: (Units=1/GPa)
#
#
# Indices 1 2 3 4 5 6 
#
# 1 0.011250 -0.006509 -0.004118 0.000000 0.000000 0.000000
# 2 -0.006509 0.026391 -0.003583 0.000000 0.000000 0.000000
# 3 -0.004118 -0.003583 0.012906 0.000000 0.000000 0.000000
# 4 0.000000 0.000000 0.000000 0.030106 0.000000 0.000000
# 5 0.000000 0.000000 0.000000 0.000000 0.033278 0.000000
# 6 0.000000 0.000000 0.000000 0.000000 0.000000 0.028692
#
#
# Mechanical properties :
#
#
# Convention : Reuss Voigt Hill
#
# Bulk Modulus (GPa) = 45.19034 58.02878 51.60956
# Shear Modulus (GPa) = 28.02414 30.62377 29.32396
#
# Velocity S-wave (km/s) = 3.63331 3.79809 3.71661
# Velocity P-wave (km/s) = 6.23605 6.82413 6.53671
#
# Compressibility (1/GPa) = 0.02212862
#
# Stress axis : x y z
#
# Youngs Moduli (GPa) = 88.88631 37.89188 77.48348
#
# Poissons Ratio (x) = 0.24663 0.31907
# Poissons Ratio (y) = 0.57853 0.27761
# Poissons Ratio (z) = 0.36602 0.13576
#
# Static dielectric constant tensor:
#      x y z
#    x 3.855000 0.000000 0.000000 
#    y 0.000000 3.727230 0.000000 
#    z 0.000000 0.000000 4.087090 
# 
# 
# High freq. dielectric constant tensor:
#      x y z
#    x 1.842330 0.000000 0.000000 
#    y 0.000000 1.820820 0.000000 
#    z 0.000000 0.000000 1.840150 
# 
# From -- ./inp_files/24259.got.cif
#   From: 2010.03.12/outbox.cif.g09.slc.cpg/sg64_13_cif.got.tgz:24259.got - 2010.04.10 20:19:32.
