data_PCOD8263300
_publ_section_title
;
Structure prediction by ZEFSAII (Michael W. Deem and Ramdas Pophale) SiO2 
 PCOD8263300
Probable space group: C M C A
;
_chemical_formula_sum "Si O2"
_cell_formula_units_Z 112
_cell_length_a 13.952648
_cell_length_b 12.572221
_cell_length_c 31.808341
_cell_angle_alpha 90.000000
_cell_angle_beta 90.000000
_cell_angle_gamma 90.000000
_cell_volume 5579.684762
_symmetry_space_group_name_H-M "C M C A"
_symmetry_group_IT_number 64
_symmetry_cell_setting 'orthorhombic'
loop_
_space_group_symop_operation_xyz
x,y,z
-x,1/2-y,1/2+z
x,-y,-z
-x,1/2+y,1/2-z
-x,-y,-z
x,1/2+y,1/2-z
-x,y,z
x,1/2-y,1/2+z
1/2+x,1/2+y,z
1/2-x,-y,1/2+z
1/2+x,1/2-y,-z
1/2-x,y,1/2-z
1/2-x,1/2-y,-z
1/2+x,y,1/2-z
1/2-x,1/2+y,z
1/2+x,-y,1/2+z
loop_
_atom_site_type_symbol
_atom_site_label
_atom_site_fract_x
_atom_site_fract_y
_atom_site_fract_z
Si Si1 0.892533 0.836798 0.815268
Si Si2 0.892854 0.763059 0.909004
Si Si3 0.613259 0.260378 0.174588
Si Si4 0.388694 0.867014 0.238646
Si Si5 0.712359 0.462616 0.687195
Si Si6 0.764835 0.606401 0.611880
Si Si7 0.889485 0.524819 0.452924
O O1 0.881473 0.824109 0.864905
O O2 0.862999 0.726863 0.793732
O O3 0.821033 0.929532 0.800499
O O4 0.000000 0.871971 0.802272
O O5 0.817228 0.668627 0.913724
O O6 0.874510 0.849535 0.945312
O O7 0.000000 0.714849 0.912546
O O8 0.500000 0.262287 0.167355
O O9 0.642689 0.331378 0.214883
O O10 0.646047 0.140030 0.181123
O O11 0.665694 0.309760 0.134602
O O12 0.500000 0.894988 0.236092
O O13 0.329064 0.970109 0.225758
O O14 0.711226 0.528794 0.644175
O O15 0.825692 0.541630 0.578747
O O16 0.856008 0.500000 0.500000
O O17 0.000000 0.492595 0.445587
#
# Coordination Sequence:
#
# PCOD8263300 Si02
#       7
#    16  16  16  16  16  16  16
#     4  10  20  37  59  84 117 155 201 249 296 363
#     4  10  20  39  61  89 122 155 198 242 300 374
#     4  11  25  40  56  87 122 155 205 261 303 353
#     4  10  23  41  58  82 120 164 202 247 307 360
#     4  12  22  39  61  85 115 157 205 250 300 361
#     4  12  22  38  63  93 119 159 200 253 314 363
#     4  10  22  41  65  91 122 161 203 250 308 376
#
# _framework density 20.072818000000002
#
# number of rings (size 3 to 8) (size 9 to 14) (size 15 to 20)
#    0.000    1.286    4.286    0.857    0.000    6.286 
#    0.000    2.857    0.000    2.143    0.000    0.000 
#    0.000    0.000    0.000    0.000    0.000    0.000 
#
# Total GULP energy -694714.318814 kJ/mol
# GULP energy per Si atom -12405.612836 kJ/mol
# Density = 2.002713 g / cm^3
# Si number density = 20.072818 Si / 1000 Ang^3
#
#
#
# Elastic Constant Matrix: (Units=GPa)
#
#
# Indices 1 2 3 4 5 6 
#
# 1 89.6746 50.2605 23.1014 0.0000 0.0000 0.0000
# 2 50.2605 92.7224 19.0676 0.0000 0.0000 0.0000
# 3 23.1014 19.0676 54.5432 0.0000 0.0000 0.0000
# 4 0.0000 0.0000 0.0000 23.6392 0.0000 0.0000
# 5 0.0000 0.0000 0.0000 0.0000 19.5502 0.0000
# 6 0.0000 0.0000 0.0000 0.0000 0.0000 41.8953
#
#
#
# Elastic Compliance Matrix: (Units=1/GPa)
#
#
# Indices 1 2 3 4 5 6 
#
# 1 0.016889 -0.008279 -0.004259 0.000000 0.000000 0.000000
# 2 -0.008279 0.015678 -0.001975 0.000000 0.000000 0.000000
# 3 -0.004259 -0.001975 0.020828 0.000000 0.000000 0.000000
# 4 0.000000 0.000000 0.000000 0.042303 0.000000 0.000000
# 5 0.000000 0.000000 0.000000 0.000000 0.051150 0.000000
# 6 0.000000 0.000000 0.000000 0.000000 0.000000 0.023869
#
#
# Mechanical properties :
#
#
# Convention : Reuss Voigt Hill
#
# Bulk Modulus (GPa) = 41.03271 46.86661 43.94966
# Shear Modulus (GPa) = 24.05403 26.65099 25.35251
#
# Velocity S-wave (km/s) = 3.46546 3.64774 3.55776
# Velocity P-wave (km/s) = 6.04143 6.41407 6.23053
#
# Compressibility (1/GPa) = 0.02437080
#
# Stress axis : x y z
#
# Youngs Moduli (GPa) = 59.21147 63.78175 48.01177
#
# Poissons Ratio (x) = 0.52803 0.20448
# Poissons Ratio (y) = 0.49020 0.09480
# Poissons Ratio (z) = 0.25218 0.12594
#
# Static dielectric constant tensor:
#      x y z
#    x 3.907320 0.000000 0.000000 
#    y 0.000000 3.661910 0.000000 
#    z 0.000000 0.000000 3.562470 
# 
# 
# High freq. dielectric constant tensor:
#      x y z
#    x 1.800920 0.000000 0.000000 
#    y 0.000000 1.789010 0.000000 
#    z 0.000000 0.000000 1.762320 
# 
# From -- ./inp_files/53255.got.cif
#   From: 2010.03.12/outbox.cif.g09.slc.cpg/sg64_27_cif.got.tgz:53255.got - 2010.04.10 20:19:32.
