data_PCOD8263888
_publ_section_title
;
Structure prediction by ZEFSAII (Michael W. Deem and Ramdas Pophale) SiO2 
 PCOD8263888
Probable space group: C M C A
;
_chemical_formula_sum "Si O2"
_cell_formula_units_Z 64
_cell_length_a 16.587326
_cell_length_b 16.486348
_cell_length_c 9.848012
_cell_angle_alpha 90.000000
_cell_angle_beta 90.000000
_cell_angle_gamma 90.000000
_cell_volume 2693.080977
_symmetry_space_group_name_H-M "C M C A"
_symmetry_group_IT_number 64
_symmetry_cell_setting 'orthorhombic'
loop_
_space_group_symop_operation_xyz
x,y,z
-x,1/2-y,1/2+z
x,-y,-z
-x,1/2+y,1/2-z
-x,-y,-z
x,1/2+y,1/2-z
-x,y,z
x,1/2-y,1/2+z
1/2+x,1/2+y,z
1/2-x,-y,1/2+z
1/2+x,1/2-y,-z
1/2-x,y,1/2-z
1/2-x,1/2-y,-z
1/2+x,y,1/2-z
1/2-x,1/2+y,z
1/2+x,-y,1/2+z
loop_
_atom_site_type_symbol
_atom_site_label
_atom_site_fract_x
_atom_site_fract_y
_atom_site_fract_z
Si Si1 0.847373 0.847168 0.657074
Si Si2 0.910817 0.074257 0.576455
Si Si3 0.678696 0.588743 0.065295
Si Si4 0.096131 0.673299 0.675055
O O1 0.915147 0.857102 0.540891
O O2 0.762547 0.863094 0.580567
O O3 0.859390 0.911207 0.782107
O O4 0.856085 0.755661 0.710373
O O5 0.870248 0.108634 0.713076
O O6 0.000000 0.044466 0.615559
O O7 0.862733 0.000000 0.500000
O O8 0.688832 0.500000 0.000000
O O9 0.618103 0.640486 0.972620
O O10 0.000000 0.685273 0.690460
#
# Coordination Sequence:
#
# PCOD8263888 Si02
#       4
#    16  16  16  16
#     4  11  23  41  64  95 130 169 216 269 327 387
#     4  10  21  38  62  92 128 173 219 265 320 383
#     4  11  25  43  66  97 131 173 219 269 326 388
#     4  11  24  42  67  99 134 173 218 269 326 388
#
# _framework density 23.764603000000001
#
# number of rings (size 3 to 8) (size 9 to 14) (size 15 to 20)
#    0.000    1.250    0.000    5.250    0.000    9.500 
#    0.000    0.000    0.000    0.000    0.000    0.000 
#    0.000    0.000    0.000    0.000    0.000    0.000 
#
# Total GULP energy -396493.764204 kJ/mol
# GULP energy per Si atom -12390.430131 kJ/mol
# Density = 2.371051 g / cm^3
# Si number density = 23.764603 Si / 1000 Ang^3
#
#
#
# Elastic Constant Matrix: (Units=GPa)
#
#
# Indices 1 2 3 4 5 6 
#
# 1 66.4241 40.1650 33.1460 0.0000 0.0000 0.0000
# 2 40.1650 119.8683 33.7398 0.0000 0.0000 0.0000
# 3 33.1460 33.7398 153.1082 0.0000 0.0000 0.0000
# 4 0.0000 0.0000 0.0000 45.7207 0.0000 0.0000
# 5 0.0000 0.0000 0.0000 0.0000 31.0867 0.0000
# 6 0.0000 0.0000 0.0000 0.0000 0.0000 25.8524
#
#
#
# Elastic Compliance Matrix: (Units=1/GPa)
#
#
# Indices 1 2 3 4 5 6 
#
# 1 0.020143 -0.005887 -0.003063 0.000000 0.000000 0.000000
# 2 -0.005887 0.010615 -0.001065 0.000000 0.000000 0.000000
# 3 -0.003063 -0.001065 0.007429 0.000000 0.000000 0.000000
# 4 0.000000 0.000000 0.000000 0.021872 0.000000 0.000000
# 5 0.000000 0.000000 0.000000 0.000000 0.032168 0.000000
# 6 0.000000 0.000000 0.000000 0.000000 0.000000 0.038681
#
#
# Mechanical properties :
#
#
# Convention : Reuss Voigt Hill
#
# Bulk Modulus (GPa) = 55.07625 61.50023 58.28824
# Shear Modulus (GPa) = 31.84891 36.02197 33.93544
#
# Velocity S-wave (km/s) = 3.66482 3.89753 3.78297
# Velocity P-wave (km/s) = 6.41358 6.79628 6.60770
#
# Compressibility (1/GPa) = 0.01815665
#
# Stress axis : x y z
#
# Youngs Moduli (GPa) = 49.64424 94.20771 134.60530
#
# Poissons Ratio (x) = 0.55463 0.41235
# Poissons Ratio (y) = 0.29227 0.14330
# Poissons Ratio (z) = 0.15208 0.10030
#
# Static dielectric constant tensor:
#      x y z
#    x 3.927190 0.000000 0.000000 
#    y 0.000000 4.473300 0.000000 
#    z 0.000000 0.000000 4.629830 
# 
# 
# High freq. dielectric constant tensor:
#      x y z
#    x 1.920830 0.000000 0.000000 
#    y 0.000000 1.945620 0.000000 
#    z 0.000000 0.000000 1.963330 
# 
# From -- ./inp_files/8972.got.cif
#   From: 2010.03.12/outbox.cif.g09.slc.cpg/sg64_5_cif.got.tgz:8972.got - 2010.04.10 20:19:32.
