data_PCOD8263614
_publ_section_title
;
Structure prediction by ZEFSAII (Michael W. Deem and Ramdas Pophale) SiO2 
 PCOD8263614
Probable space group: C M C A
;
_chemical_formula_sum "Si O2"
_cell_formula_units_Z 80
_cell_length_a 19.252799
_cell_length_b 10.969285
_cell_length_c 18.145839
_cell_angle_alpha 90.000000
_cell_angle_beta 90.000000
_cell_angle_gamma 90.000000
_cell_volume 3832.209564
_symmetry_space_group_name_H-M "C M C A"
_symmetry_group_IT_number 64
_symmetry_cell_setting 'orthorhombic'
loop_
_space_group_symop_operation_xyz
x,y,z
-x,1/2-y,1/2+z
x,-y,-z
-x,1/2+y,1/2-z
-x,-y,-z
x,1/2+y,1/2-z
-x,y,z
x,1/2-y,1/2+z
1/2+x,1/2+y,z
1/2-x,-y,1/2+z
1/2+x,1/2-y,-z
1/2-x,y,1/2-z
1/2-x,1/2-y,-z
1/2+x,y,1/2-z
1/2-x,1/2+y,z
1/2+x,-y,1/2+z
loop_
_atom_site_type_symbol
_atom_site_label
_atom_site_fract_x
_atom_site_fract_y
_atom_site_fract_z
Si Si1 0.823736 0.796186 0.288460
Si Si2 0.339397 0.412659 0.898414
Si Si3 0.840483 0.255219 0.966496
Si Si4 0.219243 0.086235 0.573883
Si Si5 0.918798 0.647375 0.653738
O O1 0.750000 0.802987 0.250000
O O2 0.835023 0.662506 0.322768
O O3 0.825983 0.900166 0.352054
O O4 0.884951 0.827224 0.232532
O O5 0.263547 0.462391 0.924512
O O6 0.391345 0.523561 0.883640
O O7 0.366239 0.331992 0.966424
O O8 0.769934 0.206033 0.927343
O O9 0.899718 0.256847 0.903441
O O10 0.828642 0.392735 0.999694
O O11 0.000000 0.639376 0.666393
#
# Coordination Sequence:
#
# PCOD8263614 Si02
#       5
#    16  16  16  16  16
#     4  11  21  35  57  86 117 151 195 245 294 342
#     4  10  21  34  59  87 116 150 194 246 292 345
#     4   9  18  34  57  87 113 144 191 240 292 339
#     4   9  17  34  54  84 118 136 186 246 293 331
#     4  11  23  39  56  84 125 158 192 237 292 354
#
# _framework density 20.875686000000002
#
# number of rings (size 3 to 8) (size 9 to 14) (size 15 to 20)
#    0.000    2.000    4.000    2.400    2.800    2.400 
#    0.000    3.000    0.000    0.000    0.000    1.400 
#    0.000    0.000    0.000    0.000    0.000    0.000 
#
# Total GULP energy -495804.575613 kJ/mol
# GULP energy per Si atom -12395.114390 kJ/mol
# Density = 2.082817 g / cm^3
# Si number density = 20.875686 Si / 1000 Ang^3
#
#
#
# Elastic Constant Matrix: (Units=GPa)
#
#
# Indices 1 2 3 4 5 6 
#
# 1 113.5982 25.6534 64.9308 0.0000 0.0000 0.0000
# 2 25.6534 57.1754 23.3551 0.0000 0.0000 0.0000
# 3 64.9308 23.3551 146.8519 0.0000 0.0000 0.0000
# 4 0.0000 0.0000 0.0000 25.9199 0.0000 0.0000
# 5 0.0000 0.0000 0.0000 0.0000 29.7842 0.0000
# 6 0.0000 0.0000 0.0000 0.0000 0.0000 10.0548
#
#
#
# Elastic Compliance Matrix: (Units=1/GPa)
#
#
# Indices 1 2 3 4 5 6 
#
# 1 0.012423 -0.003562 -0.004926 0.000000 0.000000 0.000000
# 2 -0.003562 0.019726 -0.001562 0.000000 0.000000 0.000000
# 3 -0.004926 -0.001562 0.009236 0.000000 0.000000 0.000000
# 4 0.000000 0.000000 0.000000 0.038580 0.000000 0.000000
# 5 0.000000 0.000000 0.000000 0.000000 0.033575 0.000000
# 6 0.000000 0.000000 0.000000 0.000000 0.000000 0.099455
#
#
# Mechanical properties :
#
#
# Convention : Reuss Voigt Hill
#
# Bulk Modulus (GPa) = 46.98221 60.61155 53.79688
# Shear Modulus (GPa) = 20.81665 26.73087 23.77376
#
# Velocity S-wave (km/s) = 3.16123 3.58226 3.37831
# Velocity P-wave (km/s) = 5.98991 6.79762 6.40651
#
# Compressibility (1/GPa) = 0.02128465
#
# Stress axis : x y z
#
# Youngs Moduli (GPa) = 80.49488 50.69370 108.26819
#
# Poissons Ratio (x) = 0.18055 0.53338
# Poissons Ratio (y) = 0.28669 0.16917
# Poissons Ratio (z) = 0.39656 0.07921
#
# Static dielectric constant tensor:
#      x y z
#    x 3.391560 0.000000 0.000000 
#    y 0.000000 3.922530 0.000000 
#    z 0.000000 0.000000 4.373130 
# 
# 
# High freq. dielectric constant tensor:
#      x y z
#    x 1.756880 0.000000 0.000000 
#    y 0.000000 1.817520 0.000000 
#    z 0.000000 0.000000 1.849360 
# 
# From -- ./inp_files/32997.got.cif
#   From: 2010.03.12/outbox.cif.g09.slc.cpg/sg64_17_cif.got.tgz:32997.got - 2010.04.10 20:19:32.
