data_PCOD8263187
_publ_section_title
;
Structure prediction by ZEFSAII (Michael W. Deem and Ramdas Pophale) SiO2 
 PCOD8263187
Probable space group: C M C A
;
_chemical_formula_sum "Si O2"
_cell_formula_units_Z 112
_cell_length_a 13.942962
_cell_length_b 14.929758
_cell_length_c 27.092483
_cell_angle_alpha 90.000000
_cell_angle_beta 90.000000
_cell_angle_gamma 90.000000
_cell_volume 5639.708037
_symmetry_space_group_name_H-M "C M C A"
_symmetry_group_IT_number 64
_symmetry_cell_setting 'orthorhombic'
loop_
_space_group_symop_operation_xyz
x,y,z
-x,1/2-y,1/2+z
x,-y,-z
-x,1/2+y,1/2-z
-x,-y,-z
x,1/2+y,1/2-z
-x,y,z
x,1/2-y,1/2+z
1/2+x,1/2+y,z
1/2-x,-y,1/2+z
1/2+x,1/2-y,-z
1/2-x,y,1/2-z
1/2-x,1/2-y,-z
1/2+x,y,1/2-z
1/2-x,1/2+y,z
1/2+x,-y,1/2+z
loop_
_atom_site_type_symbol
_atom_site_label
_atom_site_fract_x
_atom_site_fract_y
_atom_site_fract_z
Si Si1 0.394429 0.084853 0.599024
Si Si2 0.111702 0.456548 0.050863
Si Si3 0.896144 0.185723 0.800777
Si Si4 0.776549 0.511623 0.134810
Si Si5 0.888822 0.857986 0.308498
Si Si6 0.232879 0.204469 0.154815
Si Si7 0.252524 0.792732 0.446454
O O1 0.500000 0.053241 0.581044
O O2 0.398710 0.113952 0.655816
O O3 0.356994 0.162299 0.562055
O O4 0.315367 0.007595 0.599610
O O5 0.136782 0.526027 0.095329
O O6 0.166967 0.363728 0.060600
O O7 0.000000 0.434302 0.050160
O O8 0.146034 0.500000 0.000000
O O9 0.873792 0.134226 0.749982
O O10 0.819600 0.260706 0.812139
O O11 0.000000 0.233441 0.796211
O O12 0.811961 0.428751 0.169139
O O13 0.742812 0.598350 0.165490
O O14 0.862481 0.756320 0.326306
O O15 0.000000 0.878062 0.323670
O O16 0.241682 0.217961 0.095921
O O17 0.250000 0.750000 0.500000
#
# Coordination Sequence:
#
# PCOD8263187 Si02
#       7
#    16  16  16  16  16  16  16
#     4   9  19  38  59  82 116 160 202 245 302 363
#     4  10  20  36  59  87 120 159 204 254 308 366
#     4   9  19  38  61  83 117 159 202 252 310 366
#     4  11  22  37  62  88 121 165 204 257 305 373
#     4  11  22  41  62  86 124 163 202 258 319 371
#     4  11  22  38  60  90 123 162 205 256 309 375
#     4  10  20  36  58  87 121 157 199 255 312 362
#
# _framework density 19.859185
#
# number of rings (size 3 to 8) (size 9 to 14) (size 15 to 20)
#    0.000    1.857    4.286    1.714    0.000    2.286 
#    5.143    2.857    0.000   14.571    0.000    0.000 
#    0.000    0.000    0.000    0.000    0.000    0.000 
#
# Total GULP energy -693769.277806 kJ/mol
# GULP energy per Si atom -12388.737104 kJ/mol
# Density = 1.981398 g / cm^3
# Si number density = 19.859185 Si / 1000 Ang^3
#
#
#
# Elastic Constant Matrix: (Units=GPa)
#
#
# Indices 1 2 3 4 5 6 
#
# 1 117.3383 29.1929 28.2076 0.0000 0.0000 0.0000
# 2 29.1929 89.2571 15.4481 0.0000 0.0000 0.0000
# 3 28.2076 15.4481 97.6920 0.0000 0.0000 0.0000
# 4 0.0000 0.0000 0.0000 19.8964 0.0000 0.0000
# 5 0.0000 0.0000 0.0000 0.0000 26.5118 0.0000
# 6 0.0000 0.0000 0.0000 0.0000 0.0000 15.7422
#
#
#
# Elastic Compliance Matrix: (Units=1/GPa)
#
#
# Indices 1 2 3 4 5 6 
#
# 1 0.009790 -0.002789 -0.002386 0.000000 0.000000 0.000000
# 2 -0.002789 0.012313 -0.001142 0.000000 0.000000 0.000000
# 3 -0.002386 -0.001142 0.011106 0.000000 0.000000 0.000000
# 4 0.000000 0.000000 0.000000 0.050260 0.000000 0.000000
# 5 0.000000 0.000000 0.000000 0.000000 0.037719 0.000000
# 6 0.000000 0.000000 0.000000 0.000000 0.000000 0.063523
#
#
# Mechanical properties :
#
#
# Convention : Reuss Voigt Hill
#
# Bulk Modulus (GPa) = 48.60075 49.99829 49.29952
# Shear Modulus (GPa) = 24.48543 27.85935 26.17239
#
# Velocity S-wave (km/s) = 3.51515 3.74952 3.63423
# Velocity P-wave (km/s) = 6.40319 6.63146 6.51833
#
# Compressibility (1/GPa) = 0.02057582
#
# Stress axis : x y z
#
# Youngs Moduli (GPa) = 102.14764 81.21233 90.04431
#
# Poissons Ratio (x) = 0.22650 0.21482
# Poissons Ratio (y) = 0.28489 0.10281
# Poissons Ratio (z) = 0.24369 0.09273
#
# Static dielectric constant tensor:
#      x y z
#    x 4.023940 0.000000 0.000000 
#    y 0.000000 3.330430 0.000000 
#    z 0.000000 0.000000 3.792290 
# 
# 
# High freq. dielectric constant tensor:
#      x y z
#    x 1.786490 0.000000 0.000000 
#    y 0.000000 1.740020 0.000000 
#    z 0.000000 0.000000 1.783150 
# 
# From -- ./inp_files/50099.got.cif
#   From: 2010.03.12/outbox.cif.g09.slc.cpg/sg64_26_cif.got.tgz:50099.got - 2010.04.10 20:19:32.
