data_PCOD8263124
_publ_section_title
;
Structure prediction by ZEFSAII (Michael W. Deem and Ramdas Pophale) SiO2 
 PCOD8263124
Probable space group: C M C A
;
_chemical_formula_sum "Si O2"
_cell_formula_units_Z 80
_cell_length_a 16.431010
_cell_length_b 26.558378
_cell_length_c 8.912839
_cell_angle_alpha 90.000000
_cell_angle_beta 90.000000
_cell_angle_gamma 90.000000
_cell_volume 3889.393368
_symmetry_space_group_name_H-M "C M C A"
_symmetry_group_IT_number 64
_symmetry_cell_setting 'orthorhombic'
loop_
_space_group_symop_operation_xyz
x,y,z
-x,1/2-y,1/2+z
x,-y,-z
-x,1/2+y,1/2-z
-x,-y,-z
x,1/2+y,1/2-z
-x,y,z
x,1/2-y,1/2+z
1/2+x,1/2+y,z
1/2-x,-y,1/2+z
1/2+x,1/2-y,-z
1/2-x,y,1/2-z
1/2-x,1/2-y,-z
1/2+x,y,1/2-z
1/2-x,1/2+y,z
1/2+x,-y,1/2+z
loop_
_atom_site_type_symbol
_atom_site_label
_atom_site_fract_x
_atom_site_fract_y
_atom_site_fract_z
Si Si1 0.404673 0.794998 0.141811
Si Si2 0.841186 0.405653 0.811602
Si Si3 0.905607 0.904905 0.358828
Si Si4 0.838400 0.994537 0.178094
Si Si5 0.903978 0.199933 0.310428
O O1 0.500000 0.784284 0.134015
O O2 0.387495 0.849832 0.216068
O O3 0.363532 0.747445 0.224870
O O4 0.367249 0.796882 0.976244
O O5 0.750000 0.406472 0.750000
O O6 0.883396 0.455428 0.741491
O O7 0.880586 0.354702 0.744461
O O8 0.849705 0.411106 0.992393
O O9 0.889320 0.945891 0.230549
O O10 0.000000 0.907078 0.411125
O O11 0.750000 0.988426 0.250000
O O12 0.833249 0.000000 0.000000
O O13 0.000000 0.204563 0.309957
#
# Coordination Sequence:
#
# PCOD8263124 Si02
#       5
#    16  16  16  16  16
#     4   8  16  31  52  78 108 144 183 228 281 330
#     4  10  20  36  56  80 112 150 189 230 282 340
#     4  10  21  39  61  84 114 152 193 235 282 337
#     4  11  23  39  58  82 114 151 188 232 289 343
#     4   9  17  32  53  75 104 144 187 228 276 333
#
# _framework density 20.568759
#
# number of rings (size 3 to 8) (size 9 to 14) (size 15 to 20)
#    0.000    2.400    0.000    4.800    0.000    4.400 
#    0.000    7.000    0.000    0.000    0.000    0.000 
#    0.000    0.000    0.000    0.000    0.000    0.000 
#
# Total GULP energy -495544.998849 kJ/mol
# GULP energy per Si atom -12388.624971 kJ/mol
# Density = 2.052194 g / cm^3
# Si number density = 20.568759 Si / 1000 Ang^3
#
#
#
# Elastic Constant Matrix: (Units=GPa)
#
#
# Indices 1 2 3 4 5 6 
#
# 1 38.6055 24.8228 27.3797 0.0000 0.0000 0.0000
# 2 24.8228 213.2510 64.6392 0.0000 0.0000 0.0000
# 3 27.3797 64.6392 94.3219 0.0000 0.0000 0.0000
# 4 0.0000 0.0000 0.0000 41.1130 0.0000 0.0000
# 5 0.0000 0.0000 0.0000 0.0000 22.5826 0.0000
# 6 0.0000 0.0000 0.0000 0.0000 0.0000 13.6360
#
#
#
# Elastic Compliance Matrix: (Units=1/GPa)
#
#
# Indices 1 2 3 4 5 6 
#
# 1 0.032851 -0.001178 -0.008729 0.000000 0.000000 0.000000
# 2 -0.001178 0.005961 -0.003743 0.000000 0.000000 0.000000
# 3 -0.008729 -0.003743 0.015701 0.000000 0.000000 0.000000
# 4 0.000000 0.000000 0.000000 0.024323 0.000000 0.000000
# 5 0.000000 0.000000 0.000000 0.000000 0.044282 0.000000
# 6 0.000000 0.000000 0.000000 0.000000 0.000000 0.073335
#
#
# Mechanical properties :
#
#
# Convention : Reuss Voigt Hill
#
# Bulk Modulus (GPa) = 36.74685 64.42910 50.58798
# Shear Modulus (GPa) = 21.47544 30.75544 26.11544
#
# Velocity S-wave (km/s) = 3.23473 3.87104 3.56710
# Velocity P-wave (km/s) = 5.64406 7.16741 6.45086
#
# Compressibility (1/GPa) = 0.02721322
#
# Stress axis : x y z
#
# Youngs Moduli (GPa) = 30.44045 167.75594 63.69065
#
# Poissons Ratio (x) = 0.19765 0.55593
# Poissons Ratio (y) = 0.03586 0.23840
# Poissons Ratio (z) = 0.26570 0.62793
#
# Static dielectric constant tensor:
#      x y z
#    x 3.317200 0.000000 0.000000 
#    y 0.000000 4.709750 0.000000 
#    z 0.000000 0.000000 3.721550 
# 
# 
# High freq. dielectric constant tensor:
#      x y z
#    x 1.765300 0.000000 0.000000 
#    y 0.000000 1.840320 0.000000 
#    z 0.000000 0.000000 1.785870 
# 
# From -- ./inp_files/7073.got.cif
#   From: 2010.03.12/outbox.cif.g09.slc.cpg/sg64_4_cif.got.tgz:7073.got - 2010.04.10 20:19:32.
