data_PCOD8263686
_publ_section_title
;
Structure prediction by ZEFSAII (Michael W. Deem and Ramdas Pophale) SiO2 
 PCOD8263686
Probable space group: C M C A
;
_chemical_formula_sum "Si O2"
_cell_formula_units_Z 80
_cell_length_a 18.797861
_cell_length_b 17.129895
_cell_length_c 12.543582
_cell_angle_alpha 90.000000
_cell_angle_beta 90.000000
_cell_angle_gamma 90.000000
_cell_volume 4039.100953
_symmetry_space_group_name_H-M "C M C A"
_symmetry_group_IT_number 64
_symmetry_cell_setting 'orthorhombic'
loop_
_space_group_symop_operation_xyz
x,y,z
-x,1/2-y,1/2+z
x,-y,-z
-x,1/2+y,1/2-z
-x,-y,-z
x,1/2+y,1/2-z
-x,y,z
x,1/2-y,1/2+z
1/2+x,1/2+y,z
1/2-x,-y,1/2+z
1/2+x,1/2-y,-z
1/2-x,y,1/2-z
1/2-x,1/2-y,-z
1/2+x,y,1/2-z
1/2-x,1/2+y,z
1/2+x,-y,1/2+z
loop_
_atom_site_type_symbol
_atom_site_label
_atom_site_fract_x
_atom_site_fract_y
_atom_site_fract_z
Si Si1 0.422560 0.645532 0.380377
Si Si2 0.327500 0.268863 0.461784
Si Si3 0.884553 0.000000 0.500000
Si Si4 0.916087 0.872719 0.862918
Si Si5 0.225192 0.421629 0.131992
Si Si6 0.342289 0.500000 0.000000
O O1 0.500000 0.685796 0.374031
O O2 0.367866 0.706316 0.430338
O O3 0.431433 0.572208 0.460960
O O4 0.398672 0.620093 0.262369
O O5 0.250000 0.250000 0.500000
O O6 0.370857 0.199969 0.406510
O O7 0.315014 0.338828 0.378393
O O8 0.834009 0.015051 0.601902
O O9 0.891944 0.953836 0.916647
O O10 0.000000 0.859261 0.884638
O O11 0.250000 0.436998 0.250000
O O12 0.294191 0.433370 0.056451
#
# Coordination Sequence:
#
# PCOD8263686 Si02
#       6
#    16  16   8  16  16   8
#     4  10  22  40  62  89 122 164 204 246 303 365
#     4  11  23  40  59  87 121 159 202 251 298 359
#     4   9  19  38  60  88 124 158 198 250 300 362
#     4  11  24  40  63  92 124 162 203 252 309 361
#     4  10  21  36  58  90 118 153 201 249 303 357
#     4  11  21  40  60  88 126 156 200 254 304 360
#
# _framework density 19.806387999999998
#
# number of rings (size 3 to 8) (size 9 to 14) (size 15 to 20)
#    0.000    1.600    2.000    2.400    2.800    0.000 
#    0.000    0.000    0.000    9.600    0.000    0.000 
#    0.000    0.000    0.000    0.000    0.000    0.000 
#
# Total GULP energy -495767.035891 kJ/mol
# GULP energy per Si atom -12394.175897 kJ/mol
# Density = 1.976131 g / cm^3
# Si number density = 19.806388 Si / 1000 Ang^3
#
#
#
# Elastic Constant Matrix: (Units=GPa)
#
#
# Indices 1 2 3 4 5 6 
#
# 1 126.3365 45.1347 55.7733 0.0000 0.0000 0.0000
# 2 45.1347 90.7244 40.1502 0.0000 0.0000 0.0000
# 3 55.7733 40.1502 138.6402 0.0000 0.0000 0.0000
# 4 0.0000 0.0000 0.0000 28.5343 0.0000 0.0000
# 5 0.0000 0.0000 0.0000 0.0000 29.3271 0.0000
# 6 0.0000 0.0000 0.0000 0.0000 0.0000 22.8262
#
#
#
# Elastic Compliance Matrix: (Units=1/GPa)
#
#
# Indices 1 2 3 4 5 6 
#
# 1 0.010720 -0.003928 -0.003175 0.000000 0.000000 0.000000
# 2 -0.003928 0.014082 -0.002498 0.000000 0.000000 0.000000
# 3 -0.003175 -0.002498 0.009214 0.000000 0.000000 0.000000
# 4 0.000000 0.000000 0.000000 0.035046 0.000000 0.000000
# 5 0.000000 0.000000 0.000000 0.000000 0.034098 0.000000
# 6 0.000000 0.000000 0.000000 0.000000 0.000000 0.043809
#
#
# Mechanical properties :
#
#
# Convention : Reuss Voigt Hill
#
# Bulk Modulus (GPa) = 67.50487 70.86860 69.18673
# Shear Modulus (GPa) = 29.22107 30.44706 29.83407
#
# Velocity S-wave (km/s) = 3.84518 3.92501 3.88530
# Velocity P-wave (km/s) = 7.33963 7.50995 7.42528
#
# Compressibility (1/GPa) = 0.01481375
#
# Stress axis : x y z
#
# Youngs Moduli (GPa) = 93.27968 71.01223 108.53503
#
# Poissons Ratio (x) = 0.27895 0.34461
# Poissons Ratio (y) = 0.36642 0.27111
# Poissons Ratio (z) = 0.29617 0.17738
#
# Static dielectric constant tensor:
#      x y z
#    x 3.924080 0.000000 0.000000 
#    y 0.000000 4.876710 0.000000 
#    z 0.000000 0.000000 3.454480 
# 
# 
# High freq. dielectric constant tensor:
#      x y z
#    x 1.786910 0.000000 0.000000 
#    y 0.000000 1.768120 0.000000 
#    z 0.000000 0.000000 1.772480 
# 
# From -- ./inp_files/17096.got.cif
#   From: 2010.03.12/outbox.cif.g09.slc.cpg/sg64_9_cif.got.tgz:17096.got - 2010.04.10 20:19:32.
