data_PCOD8263042
_publ_section_title
;
Structure prediction by ZEFSAII (Michael W. Deem and Ramdas Pophale) SiO2 
 PCOD8263042
Probable space group: C M C A
;
_chemical_formula_sum "Si O2"
_cell_formula_units_Z 88
_cell_length_a 9.317774
_cell_length_b 22.757279
_cell_length_c 19.841460
_cell_angle_alpha 90.000000
_cell_angle_beta 90.000000
_cell_angle_gamma 90.000000
_cell_volume 4207.325691
_symmetry_space_group_name_H-M "C M C A"
_symmetry_group_IT_number 64
_symmetry_cell_setting 'orthorhombic'
loop_
_space_group_symop_operation_xyz
x,y,z
-x,1/2-y,1/2+z
x,-y,-z
-x,1/2+y,1/2-z
-x,-y,-z
x,1/2+y,1/2-z
-x,y,z
x,1/2-y,1/2+z
1/2+x,1/2+y,z
1/2-x,-y,1/2+z
1/2+x,1/2-y,-z
1/2-x,y,1/2-z
1/2-x,1/2-y,-z
1/2+x,y,1/2-z
1/2-x,1/2+y,z
1/2+x,-y,1/2+z
loop_
_atom_site_type_symbol
_atom_site_label
_atom_site_fract_x
_atom_site_fract_y
_atom_site_fract_z
Si Si1 0.838456 0.252365 0.644482
Si Si2 0.655825 0.921777 0.363629
Si Si3 0.670502 0.348894 0.595783
Si Si4 0.334655 0.821174 0.462970
Si Si5 0.750000 0.164947 0.750000
Si Si6 0.167812 0.516644 0.074333
O O1 0.752935 0.314593 0.657182
O O2 0.741244 0.222179 0.588365
O O3 0.852732 0.209509 0.709031
O O4 0.000000 0.265263 0.619420
O O5 0.500000 0.951578 0.358870
O O6 0.670642 0.886474 0.433081
O O7 0.667119 0.877756 0.300628
O O8 0.770483 0.974209 0.367182
O O9 0.500000 0.338403 0.598456
O O10 0.739299 0.319650 0.529598
O O11 0.708199 0.417644 0.596480
O O12 0.500000 0.801739 0.475657
O O13 0.000000 0.506073 0.073916
O O14 0.229361 0.500000 0.000000
#
# Coordination Sequence:
#
# PCOD8263042 Si02
#       6
#    16  16  16  16   8  16
#     4  11  23  39  61  86 118 158 202 251 303 357
#     4  10  21  37  62  92 119 155 204 253 296 353
#     4  11  22  37  58  87 124 160 199 245 300 363
#     4  10  20  35  57  88 124 158 198 245 300 358
#     4  10  24  44  64  88 116 158 204 254 304 362
#     4  10  21  38  60  89 125 163 199 242 304 366
#
# _framework density 20.915897999999999
#
# number of rings (size 3 to 8) (size 9 to 14) (size 15 to 20)
#    0.000    1.636    1.818    2.727    0.000    7.636 
#    0.000    0.909    0.000    0.000    0.000    0.000 
#    0.000    0.000    0.000    0.000    0.000    0.000 
#
# Total GULP energy -545208.336173 kJ/mol
# GULP energy per Si atom -12391.098549 kJ/mol
# Density = 2.086829 g / cm^3
# Si number density = 20.915898 Si / 1000 Ang^3
#
#
#
# Elastic Constant Matrix: (Units=GPa)
#
#
# Indices 1 2 3 4 5 6 
#
# 1 116.9638 69.3707 23.9000 0.0000 0.0000 0.0000
# 2 69.3707 146.2888 47.8632 0.0000 0.0000 0.0000
# 3 23.9000 47.8632 69.9403 0.0000 0.0000 0.0000
# 4 0.0000 0.0000 0.0000 24.4711 0.0000 0.0000
# 5 0.0000 0.0000 0.0000 0.0000 9.7055 0.0000
# 6 0.0000 0.0000 0.0000 0.0000 0.0000 28.0804
#
#
#
# Elastic Compliance Matrix: (Units=1/GPa)
#
#
# Indices 1 2 3 4 5 6 
#
# 1 0.011899 -0.005556 -0.000264 0.000000 0.000000 0.000000
# 2 -0.005556 0.011402 -0.005905 0.000000 0.000000 0.000000
# 3 -0.000264 -0.005905 0.018429 0.000000 0.000000 0.000000
# 4 0.000000 0.000000 0.000000 0.040865 0.000000 0.000000
# 5 0.000000 0.000000 0.000000 0.000000 0.103034 0.000000
# 6 0.000000 0.000000 0.000000 0.000000 0.000000 0.035612
#
#
# Mechanical properties :
#
#
# Convention : Reuss Voigt Hill
#
# Bulk Modulus (GPa) = 54.70111 68.38453 61.54282
# Shear Modulus (GPa) = 19.93751 25.25533 22.59642
#
# Velocity S-wave (km/s) = 3.09078 3.47864 3.29043
# Velocity P-wave (km/s) = 6.24074 6.99289 6.62750
#
# Compressibility (1/GPa) = 0.01828116
#
# Stress axis : x y z
#
# Youngs Moduli (GPa) = 84.04127 87.70051 54.26307
#
# Poissons Ratio (x) = 0.48728 0.01431
# Poissons Ratio (y) = 0.46695 0.32040
# Poissons Ratio (z) = 0.02216 0.51783
#
# Static dielectric constant tensor:
#      x y z
#    x 3.696420 0.000000 0.000000 
#    y 0.000000 4.092600 0.000000 
#    z 0.000000 0.000000 3.871000 
# 
# 
# High freq. dielectric constant tensor:
#      x y z
#    x 1.823050 0.000000 0.000000 
#    y 0.000000 1.831650 0.000000 
#    z 0.000000 0.000000 1.791980 
# 
# From -- ./inp_files/36778.got.cif
#   From: 2010.03.12/outbox.cif.g09.slc.cpg/sg64_19_cif.got.tgz:36778.got - 2010.04.10 20:19:32.
