data_PCOD8263826
_publ_section_title
;
Structure prediction by ZEFSAII (Michael W. Deem and Ramdas Pophale) SiO2 
 PCOD8263826
Probable space group: C M C A
;
_chemical_formula_sum "Si O2"
_cell_formula_units_Z 96
_cell_length_a 8.553838
_cell_length_b 20.666103
_cell_length_c 26.697386
_cell_angle_alpha 90.000000
_cell_angle_beta 90.000000
_cell_angle_gamma 90.000000
_cell_volume 4719.416985
_symmetry_space_group_name_H-M "C M C A"
_symmetry_group_IT_number 64
_symmetry_cell_setting 'orthorhombic'
loop_
_space_group_symop_operation_xyz
x,y,z
-x,1/2-y,1/2+z
x,-y,-z
-x,1/2+y,1/2-z
-x,-y,-z
x,1/2+y,1/2-z
-x,y,z
x,1/2-y,1/2+z
1/2+x,1/2+y,z
1/2-x,-y,1/2+z
1/2+x,1/2-y,-z
1/2-x,y,1/2-z
1/2-x,1/2-y,-z
1/2+x,y,1/2-z
1/2-x,1/2+y,z
1/2+x,-y,1/2+z
loop_
_atom_site_type_symbol
_atom_site_label
_atom_site_fract_x
_atom_site_fract_y
_atom_site_fract_z
Si Si1 0.182290 0.569416 0.863567
Si Si2 0.814227 0.813552 0.642694
Si Si3 0.813951 0.812209 0.528221
Si Si4 0.185139 0.942709 0.694702
Si Si5 0.816904 0.186094 0.804109
Si Si6 0.319496 0.566340 0.971127
O O1 0.242397 0.504319 0.836863
O O2 0.277891 0.629195 0.842126
O O3 0.213318 0.563981 0.922162
O O4 0.000000 0.580818 0.853594
O O5 0.757797 0.807809 0.585612
O O6 0.746747 0.878779 0.667726
O O7 0.746386 0.752896 0.673996
O O8 0.000000 0.813842 0.644186
O O9 0.750000 0.750000 0.500000
O O10 0.736686 0.875899 0.506012
O O11 0.000000 0.816024 0.523164
O O12 0.250000 0.948489 0.750000
O O13 0.000000 0.939528 0.696878
O O14 0.750000 0.169894 0.750000
O O15 0.000000 0.192644 0.798896
O O16 0.500000 0.576652 0.956275
O O17 0.292812 0.500000 0.000000
#
# Coordination Sequence:
#
# PCOD8263826 Si02
#       6
#    16  16  16  16  16  16
#     4  11  23  39  61  87 116 154 198 243 295 356
#     4   9  20  38  59  83 113 151 192 238 288 343
#     4  11  22  39  63  89 120 158 202 249 300 357
#     4  10  21  38  59  84 113 147 190 236 287 344
#     4  11  22  38  60  86 119 155 194 241 293 351
#     4  11  24  41  61  88 122 158 199 249 304 361
#
# _framework density 20.341495999999999
#
# number of rings (size 3 to 8) (size 9 to 14) (size 15 to 20)
#    0.000    1.500    0.000    5.000    0.000    6.667 
#    0.000    5.000    0.000    0.000    0.000    0.000 
#    0.000    0.000    0.000    0.000    0.000    0.000 
#
# Total GULP energy -595455.004828 kJ/mol
# GULP energy per Si atom -12405.312601 kJ/mol
# Density = 2.029520 g / cm^3
# Si number density = 20.341496 Si / 1000 Ang^3
#
#
#
# Elastic Constant Matrix: (Units=GPa)
#
#
# Indices 1 2 3 4 5 6 
#
# 1 33.1246 34.6601 17.1481 0.0000 0.0000 0.0000
# 2 34.6601 145.4171 38.1054 0.0000 0.0000 0.0000
# 3 17.1481 38.1054 120.4512 0.0000 0.0000 0.0000
# 4 0.0000 0.0000 0.0000 40.2430 0.0000 0.0000
# 5 0.0000 0.0000 0.0000 0.0000 32.8768 0.0000
# 6 0.0000 0.0000 0.0000 0.0000 0.0000 27.1989
#
#
#
# Elastic Compliance Matrix: (Units=1/GPa)
#
#
# Indices 1 2 3 4 5 6 
#
# 1 0.041196 -0.009031 -0.003008 0.000000 0.000000 0.000000
# 2 -0.009031 0.009478 -0.001713 0.000000 0.000000 0.000000
# 3 -0.003008 -0.001713 0.009272 0.000000 0.000000 0.000000
# 4 0.000000 0.000000 0.000000 0.024849 0.000000 0.000000
# 5 0.000000 0.000000 0.000000 0.000000 0.030417 0.000000
# 6 0.000000 0.000000 0.000000 0.000000 0.000000 0.036766
#
#
# Mechanical properties :
#
#
# Convention : Reuss Voigt Hill
#
# Bulk Modulus (GPa) = 30.82330 53.20223 42.01277
# Shear Modulus (GPa) = 26.27500 34.00235 30.13867
#
# Velocity S-wave (km/s) = 3.59791 4.09293 3.85338
# Velocity P-wave (km/s) = 5.69612 6.96759 6.36369
#
# Compressibility (1/GPa) = 0.03244299
#
# Stress axis : x y z
#
# Youngs Moduli (GPa) = 24.27442 105.50676 107.84948
#
# Poissons Ratio (x) = 0.95281 0.32440
# Poissons Ratio (y) = 0.21922 0.18472
# Poissons Ratio (z) = 0.07302 0.18071
#
# Static dielectric constant tensor:
#      x y z
#    x 3.554130 0.000000 0.000000 
#    y 0.000000 3.996170 0.000000 
#    z 0.000000 0.000000 3.781470 
# 
# 
# High freq. dielectric constant tensor:
#      x y z
#    x 1.782840 0.000000 0.000000 
#    y 0.000000 1.817160 0.000000 
#    z 0.000000 0.000000 1.811980 
# 
# From -- ./inp_files/48139.got.cif
#   From: 2010.03.12/outbox.cif.g09.slc.cpg/sg64_25_cif.got.tgz:48139.got - 2010.04.10 20:19:32.
