data_PCOD8263555
_publ_section_title
;
Structure prediction by ZEFSAII (Michael W. Deem and Ramdas Pophale) SiO2 
 PCOD8263555
Probable space group: C M C A
;
_chemical_formula_sum "Si O2"
_cell_formula_units_Z 112
_cell_length_a 23.372174
_cell_length_b 14.876698
_cell_length_c 15.786758
_cell_angle_alpha 90.000000
_cell_angle_beta 90.000000
_cell_angle_gamma 90.000000
_cell_volume 5489.067979
_symmetry_space_group_name_H-M "C M C A"
_symmetry_group_IT_number 64
_symmetry_cell_setting 'orthorhombic'
loop_
_space_group_symop_operation_xyz
x,y,z
-x,1/2-y,1/2+z
x,-y,-z
-x,1/2+y,1/2-z
-x,-y,-z
x,1/2+y,1/2-z
-x,y,z
x,1/2-y,1/2+z
1/2+x,1/2+y,z
1/2-x,-y,1/2+z
1/2+x,1/2-y,-z
1/2-x,y,1/2-z
1/2-x,1/2-y,-z
1/2+x,y,1/2-z
1/2-x,1/2+y,z
1/2+x,-y,1/2+z
loop_
_atom_site_type_symbol
_atom_site_label
_atom_site_fract_x
_atom_site_fract_y
_atom_site_fract_z
Si Si1 0.063566 0.798983 0.346337
Si Si2 0.839922 0.478476 0.400937
Si Si3 0.853603 0.134945 0.329619
Si Si4 0.934862 0.099120 0.188932
Si Si5 0.125639 0.903107 0.483862
Si Si6 0.213146 0.459960 0.152126
Si Si7 0.661135 0.671043 0.779279
O O1 0.067823 0.692636 0.361602
O O2 0.081154 0.842234 0.434829
O O3 0.101820 0.837343 0.270843
O O4 0.000000 0.829062 0.322371
O O5 0.845376 0.500000 0.500000
O O6 0.889342 0.534105 0.354569
O O7 0.775833 0.498661 0.368685
O O8 0.848333 0.374227 0.372228
O O9 0.915537 0.120203 0.285580
O O10 0.860178 0.148220 0.429712
O O11 0.822370 0.224244 0.292540
O O12 0.817977 0.046125 0.308203
O O13 0.000000 0.060464 0.188481
O O14 0.184750 0.920816 0.433024
O O15 0.096441 0.000000 0.500000
O O16 0.209503 0.381624 0.224046
#
# Coordination Sequence:
#
# PCOD8263555 Si02
#       7
#    16  16  16  16  16  16  16
#     4   9  20  40  62  88 125 166 212 263 313 373
#     4  12  25  42  64  90 129 165 211 261 315 371
#     4  10  20  40  67  94 128 167 205 260 320 372
#     4  10  23  42  62  87 123 170 214 256 310 374
#     4   9  19  36  65  95 130 157 207 264 318 375
#     4  10  21  46  62  95 134 164 205 265 313 382
#     4  10  22  40  63  95 125 166 215 254 313 390
#
# _framework density 20.404192999999999
#
# number of rings (size 3 to 8) (size 9 to 14) (size 15 to 20)
#    0.000    2.000    1.429    1.714    2.000    1.714 
#   12.857    1.429    0.000    0.000    0.000    0.000 
#    0.000    0.000    0.000    0.000    0.000    0.000 
#
# Total GULP energy -693854.330297 kJ/mol
# GULP energy per Si atom -12390.255898 kJ/mol
# Density = 2.035775 g / cm^3
# Si number density = 20.404193 Si / 1000 Ang^3
#
#
#
# Elastic Constant Matrix: (Units=GPa)
#
#
# Indices 1 2 3 4 5 6 
#
# 1 138.0671 49.9752 42.7808 0.0000 0.0000 0.0000
# 2 49.9752 104.3504 53.1506 0.0000 0.0000 0.0000
# 3 42.7808 53.1506 130.9495 0.0000 0.0000 0.0000
# 4 0.0000 0.0000 0.0000 39.4852 0.0000 0.0000
# 5 0.0000 0.0000 0.0000 0.0000 21.6638 0.0000
# 6 0.0000 0.0000 0.0000 0.0000 0.0000 15.7683
#
#
#
# Elastic Compliance Matrix: (Units=1/GPa)
#
#
# Indices 1 2 3 4 5 6 
#
# 1 0.008989 -0.003541 -0.001499 0.000000 0.000000 0.000000
# 2 -0.003541 0.013476 -0.004313 0.000000 0.000000 0.000000
# 3 -0.001499 -0.004313 0.009877 0.000000 0.000000 0.000000
# 4 0.000000 0.000000 0.000000 0.025326 0.000000 0.000000
# 5 0.000000 0.000000 0.000000 0.000000 0.046160 0.000000
# 6 0.000000 0.000000 0.000000 0.000000 0.000000 0.063418
#
#
# Mechanical properties :
#
#
# Convention : Reuss Voigt Hill
#
# Bulk Modulus (GPa) = 73.34064 73.90890 73.62477
# Shear Modulus (GPa) = 26.24696 30.54748 28.39722
#
# Velocity S-wave (km/s) = 3.59046 3.87346 3.73464
# Velocity P-wave (km/s) = 7.29455 7.50373 7.39988
#
# Compressibility (1/GPa) = 0.01363500
#
# Stress axis : x y z
#
# Youngs Moduli (GPa) = 111.24328 74.20714 101.24716
#
# Poissons Ratio (x) = 0.26280 0.15181
# Poissons Ratio (y) = 0.39396 0.43664
# Poissons Ratio (z) = 0.16679 0.32003
#
# Static dielectric constant tensor:
#      x y z
#    x 3.743940 0.000000 0.000000 
#    y 0.000000 3.794450 0.000000 
#    z 0.000000 0.000000 3.867580 
# 
# 
# High freq. dielectric constant tensor:
#      x y z
#    x 1.793210 0.000000 0.000000 
#    y 0.000000 1.799340 0.000000 
#    z 0.000000 0.000000 1.800170 
# 
# From -- ./inp_files/27433.got.cif
#   From: 2010.03.12/outbox.cif.g09.slc.cpg/sg64_14_cif.got.tgz:27433.got - 2010.04.10 20:19:32.
