data_PCOD8263678
_publ_section_title
;
Structure prediction by ZEFSAII (Michael W. Deem and Ramdas Pophale) SiO2 
 PCOD8263678
Probable space group: C M C A
;
_chemical_formula_sum "Si O2"
_cell_formula_units_Z 72
_cell_length_a 18.116612
_cell_length_b 22.645814
_cell_length_c 8.940903
_cell_angle_alpha 90.000000
_cell_angle_beta 90.000000
_cell_angle_gamma 90.000000
_cell_volume 3668.143375
_symmetry_space_group_name_H-M "C M C A"
_symmetry_group_IT_number 64
_symmetry_cell_setting 'orthorhombic'
loop_
_space_group_symop_operation_xyz
x,y,z
-x,1/2-y,1/2+z
x,-y,-z
-x,1/2+y,1/2-z
-x,-y,-z
x,1/2+y,1/2-z
-x,y,z
x,1/2-y,1/2+z
1/2+x,1/2+y,z
1/2-x,-y,1/2+z
1/2+x,1/2-y,-z
1/2-x,y,1/2-z
1/2-x,1/2-y,-z
1/2+x,y,1/2-z
1/2-x,1/2+y,z
1/2+x,-y,1/2+z
loop_
_atom_site_type_symbol
_atom_site_label
_atom_site_fract_x
_atom_site_fract_y
_atom_site_fract_z
Si Si1 0.363723 0.329556 0.513929
Si Si2 0.000000 0.589412 0.004998
Si Si3 0.125130 0.000000 0.000000
Si Si4 0.719687 0.389562 0.085613
Si Si5 0.000000 0.992377 0.243886
Si Si6 0.165573 0.222305 0.788655
O O1 0.428231 0.374278 0.544461
O O2 0.287983 0.367207 0.515127
O O3 0.368241 0.281158 0.643917
O O4 0.378326 0.294354 0.360536
O O5 0.000000 0.536509 0.119950
O O6 0.000000 0.570864 0.828922
O O7 0.178089 0.942901 0.003285
O O8 0.073869 0.000366 0.146493
O O9 0.750000 0.408767 0.250000
O O10 0.662857 0.334447 0.100230
O O11 0.250000 0.235298 0.750000
#
# Coordination Sequence:
#
# PCOD8263678 Si02
#       6
#    16   8   8  16   8  16
#     4  10  21  36  58  83 115 153 191 233 287 344
#     4  11  24  42  56  80 122 163 192 238 298 341
#     4  11  22  40  66  89 110 152 202 239 280 352
#     4   9  19  36  59  87 116 146 186 240 294 340
#     4  10  24  42  58  82 122 154 188 246 298 330
#     4   9  18  36  57  82 115 145 182 242 294 335
#
# _framework density 19.628457999999998
#
# number of rings (size 3 to 8) (size 9 to 14) (size 15 to 20)
#    0.000    2.667    0.000    5.333    0.000    8.000 
#    0.000    2.222    0.000    0.000    0.000    0.000 
#    0.000    0.000    0.000    0.000    0.000    0.000 
#
# Total GULP energy -446252.456100 kJ/mol
# GULP energy per Si atom -12395.901558 kJ/mol
# Density = 1.958378 g / cm^3
# Si number density = 19.628458 Si / 1000 Ang^3
#
#
#
# Elastic Constant Matrix: (Units=GPa)
#
#
# Indices 1 2 3 4 5 6 
#
# 1 65.5642 55.5286 32.3311 0.0000 0.0000 0.0000
# 2 55.5286 132.9732 51.1658 0.0000 0.0000 0.0000
# 3 32.3311 51.1658 66.8418 0.0000 0.0000 0.0000
# 4 0.0000 0.0000 0.0000 28.0713 0.0000 0.0000
# 5 0.0000 0.0000 0.0000 0.0000 21.4722 0.0000
# 6 0.0000 0.0000 0.0000 0.0000 0.0000 24.9074
#
#
#
# Elastic Compliance Matrix: (Units=1/GPa)
#
#
# Indices 1 2 3 4 5 6 
#
# 1 0.025109 -0.008239 -0.005839 0.000000 0.000000 0.000000
# 2 -0.008239 0.013363 -0.006244 0.000000 0.000000 0.000000
# 3 -0.005839 -0.006244 0.022565 0.000000 0.000000 0.000000
# 4 0.000000 0.000000 0.000000 0.035624 0.000000 0.000000
# 5 0.000000 0.000000 0.000000 0.000000 0.046572 0.000000
# 6 0.000000 0.000000 0.000000 0.000000 0.000000 0.040149
#
#
# Mechanical properties :
#
#
# Convention : Reuss Voigt Hill
#
# Bulk Modulus (GPa) = 49.03441 60.38111 54.70776
# Shear Modulus (GPa) = 21.66166 23.31377 22.48771
#
# Velocity S-wave (km/s) = 3.32563 3.45012 3.38845
# Velocity P-wave (km/s) = 6.30729 6.83373 6.57578
#
# Compressibility (1/GPa) = 0.02039384
#
# Stress axis : x y z
#
# Youngs Moduli (GPa) = 39.82634 74.83085 44.31700
#
# Poissons Ratio (x) = 0.61651 0.25875
# Poissons Ratio (y) = 0.32812 0.27673
# Poissons Ratio (z) = 0.23253 0.46727
#
# Static dielectric constant tensor:
#      x y z
#    x 3.467280 0.000000 0.000000 
#    y 0.000000 3.738730 0.000000 
#    z 0.000000 0.000000 3.570050 
# 
# 
# High freq. dielectric constant tensor:
#      x y z
#    x 1.746680 0.000000 0.000000 
#    y 0.000000 1.774410 0.000000 
#    z 0.000000 0.000000 1.759020 
# 
# From -- ./inp_files/6920.got.cif
#   From: 2010.03.12/outbox.cif.g09.slc.cpg/sg64_4_cif.got.tgz:6920.got - 2010.04.10 20:19:32.
