data_PCOD8263507
_publ_section_title
;
Structure prediction by ZEFSAII (Michael W. Deem and Ramdas Pophale) SiO2 
 PCOD8263507
Probable space group: C M C A
;
_chemical_formula_sum "Si O2"
_cell_formula_units_Z 80
_cell_length_a 15.017496
_cell_length_b 17.194860
_cell_length_c 15.232737
_cell_angle_alpha 90.000000
_cell_angle_beta 90.000000
_cell_angle_gamma 90.000000
_cell_volume 3933.454338
_symmetry_space_group_name_H-M "C M C A"
_symmetry_group_IT_number 64
_symmetry_cell_setting 'orthorhombic'
loop_
_space_group_symop_operation_xyz
x,y,z
-x,1/2-y,1/2+z
x,-y,-z
-x,1/2+y,1/2-z
-x,-y,-z
x,1/2+y,1/2-z
-x,y,z
x,1/2-y,1/2+z
1/2+x,1/2+y,z
1/2-x,-y,1/2+z
1/2+x,1/2-y,-z
1/2-x,y,1/2-z
1/2-x,1/2-y,-z
1/2+x,y,1/2-z
1/2-x,1/2+y,z
1/2+x,-y,1/2+z
loop_
_atom_site_type_symbol
_atom_site_label
_atom_site_fract_x
_atom_site_fract_y
_atom_site_fract_z
Si Si1 0.307920 0.424195 0.049905
Si Si2 0.674134 0.796828 0.049812
Si Si3 0.500000 0.493271 0.354755
Si Si4 0.895839 0.650480 0.385775
Si Si5 0.500000 0.371523 0.509249
Si Si6 0.347265 0.993630 0.717158
O O1 0.221847 0.375405 0.083631
O O2 0.367053 0.451132 0.133099
O O3 0.268713 0.500000 0.000000
O O4 0.371417 0.376162 0.984681
O O5 0.638335 0.739590 0.127142
O O6 0.750000 0.750000 0.000000
O O7 0.589110 0.818586 0.988607
O O8 0.500000 0.420966 0.420020
O O9 0.500000 0.575019 0.405073
O O10 0.586186 0.486781 0.294583
O O11 0.851695 0.596543 0.311966
O O12 0.000000 0.645356 0.372016
O O13 0.250000 0.012338 0.750000
#
# Coordination Sequence:
#
# PCOD8263507 Si02
#       6
#    16  16   8  16   8  16
#     4   9  21  36  66  90 122 160 206 250 309 358
#     4  10  21  39  66  91 121 162 206 248 304 376
#     4  11  26  39  66  91 121 160 212 257 304 361
#     4  10  20  39  65  92 120 163 203 249 310 371
#     4  11  24  41  65  89 120 164 210 252 304 369
#     4  11  23  40  62  93 126 158 206 258 307 357
#
# _framework density 20.338357999999999
#
# number of rings (size 3 to 8) (size 9 to 14) (size 15 to 20)
#    0.000    1.800    2.000    1.200   12.600    1.200 
#    0.000    3.000    8.800    0.000    0.000    0.000 
#    0.000    0.000    0.000    0.000    0.000    0.000 
#
# Total GULP energy -495830.369750 kJ/mol
# GULP energy per Si atom -12395.759244 kJ/mol
# Density = 2.029207 g / cm^3
# Si number density = 20.338358 Si / 1000 Ang^3
#
#
#
# Elastic Constant Matrix: (Units=GPa)
#
#
# Indices 1 2 3 4 5 6 
#
# 1 122.5323 31.4807 36.8821 0.0000 0.0000 0.0000
# 2 31.4807 98.0670 27.1036 0.0000 0.0000 0.0000
# 3 36.8821 27.1036 91.9517 0.0000 0.0000 0.0000
# 4 0.0000 0.0000 0.0000 25.7981 0.0000 0.0000
# 5 0.0000 0.0000 0.0000 0.0000 25.2395 0.0000
# 6 0.0000 0.0000 0.0000 0.0000 0.0000 37.1568
#
#
#
# Elastic Compliance Matrix: (Units=1/GPa)
#
#
# Indices 1 2 3 4 5 6 
#
# 1 0.009707 -0.002221 -0.003239 0.000000 0.000000 0.000000
# 2 -0.002221 0.011610 -0.002531 0.000000 0.000000 0.000000
# 3 -0.003239 -0.002531 0.012920 0.000000 0.000000 0.000000
# 4 0.000000 0.000000 0.000000 0.038763 0.000000 0.000000
# 5 0.000000 0.000000 0.000000 0.000000 0.039620 0.000000
# 6 0.000000 0.000000 0.000000 0.000000 0.000000 0.026913
#
#
# Mechanical properties :
#
#
# Convention : Reuss Voigt Hill
#
# Bulk Modulus (GPa) = 54.77948 55.94264 55.36106
# Shear Modulus (GPa) = 30.94077 32.11119 31.52598
#
# Velocity S-wave (km/s) = 3.90462 3.97778 3.94137
# Velocity P-wave (km/s) = 6.87900 6.97587 6.92760
#
# Compressibility (1/GPa) = 0.01825501
#
# Stress axis : x y z
#
# Youngs Moduli (GPa) = 103.02343 86.13560 77.39670
#
# Poissons Ratio (x) = 0.19129 0.25067
# Poissons Ratio (y) = 0.22879 0.19591
# Poissons Ratio (z) = 0.33366 0.21803
#
# Static dielectric constant tensor:
#      x y z
#    x 3.712210 0.000000 0.000000 
#    y 0.000000 4.337830 0.000000 
#    z 0.000000 0.000000 3.577860 
# 
# 
# High freq. dielectric constant tensor:
#      x y z
#    x 1.805950 0.000000 0.000000 
#    y 0.000000 1.808550 0.000000 
#    z 0.000000 0.000000 1.764880 
# 
# From -- ./inp_files/32106.got.cif
#   From: 2010.03.12/outbox.cif.g09.slc.cpg/sg64_17_cif.got.tgz:32106.got - 2010.04.10 20:19:32.
