data_PCOD8263958
_publ_section_title
;
Structure prediction by ZEFSAII (Michael W. Deem and Ramdas Pophale) SiO2 
 PCOD8263958
Probable space group: C M C A
;
_chemical_formula_sum "Si O2"
_cell_formula_units_Z 64
_cell_length_a 19.954478
_cell_length_b 21.038455
_cell_length_c 7.462061
_cell_angle_alpha 90.000000
_cell_angle_beta 90.000000
_cell_angle_gamma 90.000000
_cell_volume 3132.658182
_symmetry_space_group_name_H-M "C M C A"
_symmetry_group_IT_number 64
_symmetry_cell_setting 'orthorhombic'
loop_
_space_group_symop_operation_xyz
x,y,z
-x,1/2-y,1/2+z
x,-y,-z
-x,1/2+y,1/2-z
-x,-y,-z
x,1/2+y,1/2-z
-x,y,z
x,1/2-y,1/2+z
1/2+x,1/2+y,z
1/2-x,-y,1/2+z
1/2+x,1/2-y,-z
1/2-x,y,1/2-z
1/2-x,1/2-y,-z
1/2+x,y,1/2-z
1/2-x,1/2+y,z
1/2+x,-y,1/2+z
loop_
_atom_site_type_symbol
_atom_site_label
_atom_site_fract_x
_atom_site_fract_y
_atom_site_fract_z
Si Si1 0.924403 0.797806 0.622558
Si Si2 0.750000 0.095982 0.750000
Si Si3 0.821954 0.500000 0.500000
Si Si4 0.882000 0.167876 0.758351
Si Si5 0.576619 0.904759 0.600229
O O1 0.924544 0.825564 0.422619
O O2 0.876720 0.736313 0.642780
O O3 0.900369 0.850290 0.763613
O O4 0.000000 0.776281 0.669770
O O5 0.726919 0.051056 0.588767
O O6 0.809919 0.142631 0.694476
O O7 0.872475 0.536694 0.363738
O O8 0.916592 0.118420 0.894346
O O9 0.500000 0.926203 0.635980
#
# Coordination Sequence:
#
# PCOD8263958 Si02
#       5
#    16   8   8  16  16
#     4  11  21  36  63  94 122 151 192 250 312 363
#     4  10  26  42  60  84 120 166 210 244 290 360
#     4  10  23  44  60  82 117 168 206 258 286 350
#     4  11  22  39  59  92 125 159 192 245 301 363
#     4  10  21  39  63  91 118 156 202 254 308 352
#
# _framework density 20.429932999999998
#
# number of rings (size 3 to 8) (size 9 to 14) (size 15 to 20)
#    0.000    1.500    2.500    2.625    3.500    1.000 
#    0.000    0.000    0.000    7.500    0.000    0.000 
#    0.000    0.000    0.000    0.000    0.000    0.000 
#
# Total GULP energy -396759.213846 kJ/mol
# GULP energy per Si atom -12398.725433 kJ/mol
# Density = 2.038343 g / cm^3
# Si number density = 20.429933 Si / 1000 Ang^3
#
#
#
# Elastic Constant Matrix: (Units=GPa)
#
#
# Indices 1 2 3 4 5 6 
#
# 1 66.0041 33.6765 8.3376 0.0000 0.0000 0.0000
# 2 33.6765 93.7359 21.4114 0.0000 0.0000 0.0000
# 3 8.3376 21.4114 87.5002 0.0000 0.0000 0.0000
# 4 0.0000 0.0000 0.0000 27.1251 0.0000 0.0000
# 5 0.0000 0.0000 0.0000 0.0000 20.8139 0.0000
# 6 0.0000 0.0000 0.0000 0.0000 0.0000 28.5005
#
#
#
# Elastic Compliance Matrix: (Units=1/GPa)
#
#
# Indices 1 2 3 4 5 6 
#
# 1 0.018553 -0.006632 -0.000145 0.000000 0.000000 0.000000
# 2 -0.006632 0.013671 -0.002713 0.000000 0.000000 0.000000
# 3 -0.000145 -0.002713 0.012106 0.000000 0.000000 0.000000
# 4 0.000000 0.000000 0.000000 0.036866 0.000000 0.000000
# 5 0.000000 0.000000 0.000000 0.000000 0.048045 0.000000
# 6 0.000000 0.000000 0.000000 0.000000 0.000000 0.035087
#
#
# Mechanical properties :
#
#
# Convention : Reuss Voigt Hill
#
# Bulk Modulus (GPa) = 39.44950 41.56568 40.50759
# Shear Modulus (GPa) = 26.07442 27.54222 26.80832
#
# Velocity S-wave (km/s) = 3.57639 3.67567 3.62637
# Velocity P-wave (km/s) = 6.03371 6.19708 6.11594
#
# Compressibility (1/GPa) = 0.02534886
#
# Stress axis : x y z
#
# Youngs Moduli (GPa) = 53.90012 73.14822 82.60166
#
# Poissons Ratio (x) = 0.48515 0.01197
# Poissons Ratio (y) = 0.35749 0.22412
# Poissons Ratio (z) = 0.00781 0.19847
#
# Static dielectric constant tensor:
#      x y z
#    x 3.789720 0.000000 0.000000 
#    y 0.000000 3.849650 0.000000 
#    z 0.000000 0.000000 3.541930 
# 
# 
# High freq. dielectric constant tensor:
#      x y z
#    x 1.792670 0.000000 0.000000 
#    y 0.000000 1.807720 0.000000 
#    z 0.000000 0.000000 1.788430 
# 
# From -- ./inp_files/6657.got.cif
#   From: 2010.03.12/outbox.cif.g09.slc.cpg/sg64_4_cif.got.tgz:6657.got - 2010.04.10 20:19:32.
