data_PCOD8263165
_publ_section_title
;
Structure prediction by ZEFSAII (Michael W. Deem and Ramdas Pophale) SiO2 
 PCOD8263165
Probable space group: C M C A
;
_chemical_formula_sum "Si O2"
_cell_formula_units_Z 64
_cell_length_a 8.798019
_cell_length_b 15.220771
_cell_length_c 25.926890
_cell_angle_alpha 90.000000
_cell_angle_beta 90.000000
_cell_angle_gamma 90.000000
_cell_volume 3471.938091
_symmetry_space_group_name_H-M "C M C A"
_symmetry_group_IT_number 64
_symmetry_cell_setting 'orthorhombic'
loop_
_space_group_symop_operation_xyz
x,y,z
-x,1/2-y,1/2+z
x,-y,-z
-x,1/2+y,1/2-z
-x,-y,-z
x,1/2+y,1/2-z
-x,y,z
x,1/2-y,1/2+z
1/2+x,1/2+y,z
1/2-x,-y,1/2+z
1/2+x,1/2-y,-z
1/2-x,y,1/2-z
1/2-x,1/2-y,-z
1/2+x,y,1/2-z
1/2-x,1/2+y,z
1/2+x,-y,1/2+z
loop_
_atom_site_type_symbol
_atom_site_label
_atom_site_fract_x
_atom_site_fract_y
_atom_site_fract_z
Si Si1 0.322810 0.027193 0.442376
Si Si2 0.820709 0.871392 0.385218
Si Si3 0.327276 0.201138 0.091978
Si Si4 0.172200 0.228719 0.802234
O O1 0.500000 0.015669 0.430973
O O2 0.274657 0.127380 0.434189
O O3 0.279988 0.000000 0.500000
O O4 0.228768 0.967576 0.402894
O O5 0.743319 0.797048 0.422390
O O6 0.762381 0.855231 0.326362
O O7 0.000000 0.862023 0.387980
O O8 0.500000 0.195403 0.071310
O O9 0.323049 0.192993 0.154877
O O10 0.250000 0.262301 0.750000
O O11 0.000000 0.200082 0.790584
#
# Coordination Sequence:
#
# PCOD8263165 Si02
#       4
#    16  16  16  16
#     4  11  23  38  57  82 112 147 189 234 279 330
#     4  10  20  36  58  82 113 148 185 229 276 329
#     4   9  20  37  57  82 113 145 186 230 273 331
#     4   9  18  34  58  84 112 145 183 226 275 329
#
# _framework density 18.433508
#
# number of rings (size 3 to 8) (size 9 to 14) (size 15 to 20)
#    1.500    0.750    0.000    3.750    0.000    3.000 
#    0.000    1.250    0.000    3.000    0.000    0.000 
#    0.000    0.000    0.000    0.000    0.000    0.000 
#
# Total GULP energy -396559.379826 kJ/mol
# GULP energy per Si atom -12392.480620 kJ/mol
# Density = 1.839155 g / cm^3
# Si number density = 18.433508 Si / 1000 Ang^3
#
#
#
# Elastic Constant Matrix: (Units=GPa)
#
#
# Indices 1 2 3 4 5 6 
#
# 1 119.6578 11.7514 29.2016 0.0000 0.0000 0.0000
# 2 11.7514 47.6161 -8.3953 0.0000 0.0000 0.0000
# 3 29.2016 -8.3953 38.6723 0.0000 0.0000 0.0000
# 4 0.0000 0.0000 0.0000 25.5318 0.0000 0.0000
# 5 0.0000 0.0000 0.0000 0.0000 20.7821 0.0000
# 6 0.0000 0.0000 0.0000 0.0000 0.0000 34.7869
#
#
#
# Elastic Compliance Matrix: (Units=1/GPa)
#
#
# Indices 1 2 3 4 5 6 
#
# 1 0.011055 -0.004367 -0.009295 0.000000 0.000000 0.000000
# 2 -0.004367 0.023562 0.008413 0.000000 0.000000 0.000000
# 3 -0.009295 0.008413 0.034704 0.000000 0.000000 0.000000
# 4 0.000000 0.000000 0.000000 0.039167 0.000000 0.000000
# 5 0.000000 0.000000 0.000000 0.000000 0.048118 0.000000
# 6 0.000000 0.000000 0.000000 0.000000 0.000000 0.028746
#
#
# Mechanical properties :
#
#
# Convention : Reuss Voigt Hill
#
# Bulk Modulus (GPa) = 17.00073 30.11795 23.55934
# Shear Modulus (GPa) = 23.20634 27.77940 25.49287
#
# Velocity S-wave (km/s) = 3.55198 3.88623 3.72286
# Velocity P-wave (km/s) = 5.10537 6.04245 5.59357
#
# Compressibility (1/GPa) = 0.05882102
#
# Stress axis : x y z
#
# Youngs Moduli (GPa) = 90.46073 42.44056 28.81548
#
# Poissons Ratio (x) = 0.18534 0.26785
# Poissons Ratio (y) = 0.39505 -0.24242
# Poissons Ratio (z) = 0.84087 -0.35704
#
# Static dielectric constant tensor:
#      x y z
#    x 3.415580 0.000000 0.000000 
#    y 0.000000 3.085380 0.000000 
#    z 0.000000 0.000000 3.208400 
# 
# 
# High freq. dielectric constant tensor:
#      x y z
#    x 1.735840 0.000000 0.000000 
#    y 0.000000 1.690110 0.000000 
#    z 0.000000 0.000000 1.697120 
# 
# From -- ./inp_files/42563.got.cif
#   From: 2010.03.12/outbox.cif.g09.slc.cpg/sg64_22_cif.got.tgz:42563.got - 2010.04.10 20:19:32.
