data_PCOD8263632
_publ_section_title
;
Structure prediction by ZEFSAII (Michael W. Deem and Ramdas Pophale) SiO2 
 PCOD8263632
Probable space group: C M C A
;
_chemical_formula_sum "Si O2"
_cell_formula_units_Z 80
_cell_length_a 9.191949
_cell_length_b 15.293754
_cell_length_c 29.028860
_cell_angle_alpha 90.000000
_cell_angle_beta 90.000000
_cell_angle_gamma 90.000000
_cell_volume 4080.859918
_symmetry_space_group_name_H-M "C M C A"
_symmetry_group_IT_number 64
_symmetry_cell_setting 'orthorhombic'
loop_
_space_group_symop_operation_xyz
x,y,z
-x,1/2-y,1/2+z
x,-y,-z
-x,1/2+y,1/2-z
-x,-y,-z
x,1/2+y,1/2-z
-x,y,z
x,1/2-y,1/2+z
1/2+x,1/2+y,z
1/2-x,-y,1/2+z
1/2+x,1/2-y,-z
1/2-x,y,1/2-z
1/2-x,1/2-y,-z
1/2+x,y,1/2-z
1/2-x,1/2+y,z
1/2+x,-y,1/2+z
loop_
_atom_site_type_symbol
_atom_site_label
_atom_site_fract_x
_atom_site_fract_y
_atom_site_fract_z
Si Si1 0.667391 0.713105 0.855568
Si Si2 0.834136 0.710013 0.542132
Si Si3 0.837663 0.959900 0.450059
Si Si4 0.670093 0.855106 0.702200
Si Si5 0.831626 0.510185 0.632844
O O1 0.500000 0.725867 0.840679
O O2 0.691157 0.752180 0.907419
O O3 0.770553 0.768054 0.822393
O O4 0.708266 0.609864 0.852134
O O5 0.750000 0.750000 0.500000
O O6 0.785775 0.611743 0.547574
O O7 0.000000 0.715305 0.527422
O O8 0.773697 0.021556 0.409423
O O9 0.000000 0.926793 0.436385
O O10 0.848034 0.000000 0.500000
O O11 0.500000 0.840775 0.710514
O O12 0.750000 0.868360 0.750000
O O13 0.701161 0.943436 0.673900
O O14 0.000000 0.505160 0.617406
#
# Coordination Sequence:
#
# PCOD8263632 Si02
#       5
#    16  16  16  16  16
#     4   9  20  40  61  84 119 156 194 244 297 351
#     4  10  21  36  56  83 118 157 197 241 295 353
#     4  10  21  35  54  84 118 155 199 240 290 350
#     4  11  24  41  63  91 118 152 200 247 302 361
#     4   9  21  41  61  85 118 157 198 244 299 356
#
# _framework density 19.603711000000001
#
# number of rings (size 3 to 8) (size 9 to 14) (size 15 to 20)
#    0.000    2.200    0.000    3.000    2.800    8.000 
#    0.000    2.000    0.000    0.000    0.000    0.000 
#    0.000    0.000    0.000    0.000    0.000    0.000 
#
# Total GULP energy -495674.373966 kJ/mol
# GULP energy per Si atom -12391.859349 kJ/mol
# Density = 1.955909 g / cm^3
# Si number density = 19.603711 Si / 1000 Ang^3
#
#
#
# Elastic Constant Matrix: (Units=GPa)
#
#
# Indices 1 2 3 4 5 6 
#
# 1 113.3552 46.6163 91.1344 0.0000 0.0000 0.0000
# 2 46.6163 81.0137 54.9353 0.0000 0.0000 0.0000
# 3 91.1344 54.9353 136.8938 0.0000 0.0000 0.0000
# 4 0.0000 0.0000 0.0000 27.9046 0.0000 0.0000
# 5 0.0000 0.0000 0.0000 0.0000 -44.0566 0.0000
# 6 0.0000 0.0000 0.0000 0.0000 0.0000 37.0018
#
#
#
# Elastic Compliance Matrix: (Units=1/GPa)
#
#
# Indices 1 2 3 4 5 6 
#
# 1 0.019618 -0.003342 -0.011719 0.000000 0.000000 0.000000
# 2 -0.003342 0.017527 -0.004809 0.000000 0.000000 0.000000
# 3 -0.011719 -0.004809 0.017037 0.000000 0.000000 0.000000
# 4 0.000000 0.000000 0.000000 0.035836 0.000000 0.000000
# 5 0.000000 0.000000 0.000000 0.000000 -0.022698 0.000000
# 6 0.000000 0.000000 0.000000 0.000000 0.000000 0.027026
#
#
# Mechanical properties :
#
#
# Convention : Reuss Voigt Hill
#
# Bulk Modulus (GPa) = 69.24208 79.62609 74.43409
# Shear Modulus (GPa) = 35.99695 13.40840 24.70268
#
# Velocity S-wave (km/s) = 4.28978 2.61812 3.55364
# Velocity P-wave (km/s) = 7.74169 7.06013 7.40875
#
# Compressibility (1/GPa) = 0.01444208
#
# Stress axis : x y z
#
# Youngs Moduli (GPa) = 50.97334 57.05336 58.69651
#
# Poissons Ratio (x) = 0.19065 0.68789
# Poissons Ratio (y) = 0.17033 0.28228
# Poissons Ratio (z) = 0.59738 0.27438
#
# Static dielectric constant tensor:
#      x y z
#    x 3.853140 0.000000 0.000000 
#    y 0.000000 2.997700 0.000000 
#    z 0.000000 0.000000 1.725210 
# 
# 
# High freq. dielectric constant tensor:
#      x y z
#    x 1.776690 0.000000 0.000000 
#    y 0.000000 1.751010 0.000000 
#    z 0.000000 0.000000 1.769980 
# 
# From -- ./inp_files/47887.got.cif
#   From: 2010.03.12/outbox.cif.g09.slc.cpg/sg64_24_cif.got.tgz:47887.got - 2010.04.10 20:19:32.
