data_PCOD8263974
_publ_section_title
;
Structure prediction by ZEFSAII (Michael W. Deem and Ramdas Pophale) SiO2 
 PCOD8263974
Probable space group: C M C A
;
_chemical_formula_sum "Si O2"
_cell_formula_units_Z 72
_cell_length_a 21.708110
_cell_length_b 30.180809
_cell_length_c 4.992226
_cell_angle_alpha 90.000000
_cell_angle_beta 90.000000
_cell_angle_gamma 90.000000
_cell_volume 3270.748330
_symmetry_space_group_name_H-M "C M C A"
_symmetry_group_IT_number 64
_symmetry_cell_setting 'orthorhombic'
loop_
_space_group_symop_operation_xyz
x,y,z
-x,1/2-y,1/2+z
x,-y,-z
-x,1/2+y,1/2-z
-x,-y,-z
x,1/2+y,1/2-z
-x,y,z
x,1/2-y,1/2+z
1/2+x,1/2+y,z
1/2-x,-y,1/2+z
1/2+x,1/2-y,-z
1/2-x,y,1/2-z
1/2-x,1/2-y,-z
1/2+x,y,1/2-z
1/2-x,1/2+y,z
1/2+x,-y,1/2+z
loop_
_atom_site_type_symbol
_atom_site_label
_atom_site_fract_x
_atom_site_fract_y
_atom_site_fract_z
Si Si1 0.000000 0.467516 0.746860
Si Si2 0.371950 0.579924 0.199298
Si Si3 0.320546 0.873765 0.214150
Si Si4 0.000000 0.722420 0.923317
Si Si5 0.789912 0.000000 0.000000
Si Si6 0.632500 0.780642 0.179603
O O1 0.000000 0.500000 0.500000
O O2 0.942203 0.434549 0.737455
O O3 0.000000 0.500000 0.000000
O O4 0.347916 0.596026 0.482896
O O5 0.332371 0.538990 0.101388
O O6 0.361927 0.618687 0.980480
O O7 0.250000 0.887910 0.250000
O O8 0.321558 0.821601 0.141983
O O9 0.063523 0.697655 0.847898
O O10 0.000000 0.732813 0.240034
O O11 0.750000 0.982578 0.250000
O O12 0.643660 0.742198 0.964278
#
# Coordination Sequence:
#
# PCOD8263974 Si02
#       6
#     8  16  16   8   8  16
#     4  12  26  48  72 100 136 172 224 280 329 411
#     4  12  26  45  68  99 133 176 219 280 342 389
#     4  12  26  44  65 100 141 175 230 285 328 401
#     4   8  16  32  56  86 116 153 211 270 311 383
#     4  12  24  41  70  97 130 176 222 260 330 414
#     4  10  21  39  64  92 129 179 225 274 336 394
#
# _framework density 22.013311000000002
#
# number of rings (size 3 to 8) (size 9 to 14) (size 15 to 20)
#    0.000    0.889    1.111    6.667    1.556    2.667 
#    0.000    2.222    0.000    0.000    0.000    0.000 
#    0.000    0.000    0.000    0.000    0.000    0.000 
#
# Total GULP energy -446397.806972 kJ/mol
# GULP energy per Si atom -12399.939083 kJ/mol
# Density = 2.196321 g / cm^3
# Si number density = 22.013311 Si / 1000 Ang^3
#
#
#
# Elastic Constant Matrix: (Units=GPa)
#
#
# Indices 1 2 3 4 5 6 
#
# 1 159.5190 60.0455 64.8096 0.0000 0.0000 0.0000
# 2 60.0455 90.7371 21.1520 0.0000 0.0000 0.0000
# 3 64.8096 21.1520 127.0190 0.0000 0.0000 0.0000
# 4 0.0000 0.0000 0.0000 37.1035 0.0000 0.0000
# 5 0.0000 0.0000 0.0000 0.0000 30.1810 0.0000
# 6 0.0000 0.0000 0.0000 0.0000 0.0000 26.7828
#
#
#
# Elastic Compliance Matrix: (Units=1/GPa)
#
#
# Indices 1 2 3 4 5 6 
#
# 1 0.010138 -0.005725 -0.004219 0.000000 0.000000 0.000000
# 2 -0.005725 0.014699 0.000473 0.000000 0.000000 0.000000
# 3 -0.004219 0.000473 0.009947 0.000000 0.000000 0.000000
# 4 0.000000 0.000000 0.000000 0.026952 0.000000 0.000000
# 5 0.000000 0.000000 0.000000 0.000000 0.033133 0.000000
# 6 0.000000 0.000000 0.000000 0.000000 0.000000 0.037337
#
#
# Mechanical properties :
#
#
# Convention : Reuss Voigt Hill
#
# Bulk Modulus (GPa) = 63.12461 74.36546 68.74503
# Shear Modulus (GPa) = 31.96310 34.23132 33.09721
#
# Velocity S-wave (km/s) = 3.81463 3.94766 3.88172
# Velocity P-wave (km/s) = 6.93828 7.39149 7.16847
#
# Compressibility (1/GPa) = 0.01584168
#
# Stress axis : x y z
#
# Youngs Moduli (GPa) = 98.63604 68.03053 100.53369
#
# Poissons Ratio (x) = 0.38950 0.42420
# Poissons Ratio (y) = 0.56473 -0.04760
# Poissons Ratio (z) = 0.41619 -0.03221
#
# Static dielectric constant tensor:
#      x y z
#    x 4.153250 0.000000 0.000000 
#    y 0.000000 3.597120 0.000000 
#    z 0.000000 0.000000 4.446460 
# 
# 
# High freq. dielectric constant tensor:
#      x y z
#    x 1.873600 0.000000 0.000000 
#    y 0.000000 1.855360 0.000000 
#    z 0.000000 0.000000 1.887860 
# 
# From -- ./inp_files/2297.got.cif
#   From: 2010.03.12/outbox.cif.g09.slc.cpg/sg64_2_cif.got.tgz:2297.got - 2010.04.10 20:19:32.
