data_PCOD8263273
_publ_section_title
;
Structure prediction by ZEFSAII (Michael W. Deem and Ramdas Pophale) SiO2 
 PCOD8263273
Probable space group: C M C A
;
_chemical_formula_sum "Si O2"
_cell_formula_units_Z 80
_cell_length_a 15.600720
_cell_length_b 20.887379
_cell_length_c 13.377378
_cell_angle_alpha 90.000000
_cell_angle_beta 90.000000
_cell_angle_gamma 90.000000
_cell_volume 4359.127664
_symmetry_space_group_name_H-M "C M C A"
_symmetry_group_IT_number 64
_symmetry_cell_setting 'orthorhombic'
loop_
_space_group_symop_operation_xyz
x,y,z
-x,1/2-y,1/2+z
x,-y,-z
-x,1/2+y,1/2-z
-x,-y,-z
x,1/2+y,1/2-z
-x,y,z
x,1/2-y,1/2+z
1/2+x,1/2+y,z
1/2-x,-y,1/2+z
1/2+x,1/2-y,-z
1/2-x,y,1/2-z
1/2-x,1/2-y,-z
1/2+x,y,1/2-z
1/2-x,1/2+y,z
1/2+x,-y,1/2+z
loop_
_atom_site_type_symbol
_atom_site_label
_atom_site_fract_x
_atom_site_fract_y
_atom_site_fract_z
Si Si1 0.840726 0.852941 0.227017
Si Si2 0.591792 0.295276 0.427413
Si Si3 0.000000 0.074303 0.872155
Si Si4 0.872029 0.328720 0.672532
Si Si5 0.317480 0.715472 0.368214
Si Si6 0.500000 0.928878 0.608815
O O1 0.750000 0.889678 0.250000
O O2 0.877216 0.837416 0.335564
O O3 0.912542 0.893854 0.169281
O O4 0.814735 0.790763 0.160486
O O5 0.500000 0.321466 0.465288
O O6 0.575724 0.223158 0.390498
O O7 0.658388 0.296452 0.517716
O O8 0.000000 0.999691 0.845177
O O9 0.000000 0.078314 0.990573
O O10 0.772935 0.319810 0.644249
O O11 0.884176 0.317451 0.791777
O O12 0.911982 0.397453 0.648623
#
# Coordination Sequence:
#
# PCOD8263273 Si02
#       6
#    16  16   8  16  16   8
#     4  11  22  39  59  87 124 156 194 251 296 355
#     4  11  20  31  57  91 120 153 185 241 312 361
#     4  11  26  43  59  87 115 161 215 234 288 347
#     4  10  20  37  55  86 118 151 192 240 295 353
#     4  10  21  34  58  91 121 147 189 240 311 363
#     4  11  24  41  65  81 115 159 201 252 278 349
#
# _framework density 18.352295000000002
#
# number of rings (size 3 to 8) (size 9 to 14) (size 15 to 20)
#    0.000    1.400    6.000    1.800    5.600    0.000 
#    3.600    0.000    0.000    2.400    0.000    0.000 
#    0.000    0.000    0.000    0.000    0.000    0.000 
#
# Total GULP energy -495568.995852 kJ/mol
# GULP energy per Si atom -12389.224896 kJ/mol
# Density = 1.831052 g / cm^3
# Si number density = 18.352295 Si / 1000 Ang^3
#
#
#
# Elastic Constant Matrix: (Units=GPa)
#
#
# Indices 1 2 3 4 5 6 
#
# 1 128.1647 53.8951 26.6034 0.0000 0.0000 0.0000
# 2 53.8951 102.0484 34.8726 0.0000 0.0000 0.0000
# 3 26.6034 34.8726 99.6664 0.0000 0.0000 0.0000
# 4 0.0000 0.0000 0.0000 17.5436 0.0000 0.0000
# 5 0.0000 0.0000 0.0000 0.0000 64.7527 0.0000
# 6 0.0000 0.0000 0.0000 0.0000 0.0000 19.0147
#
#
#
# Elastic Compliance Matrix: (Units=1/GPa)
#
#
# Indices 1 2 3 4 5 6 
#
# 1 0.010107 -0.005016 -0.000943 0.000000 0.000000 0.000000
# 2 -0.005016 0.013619 -0.003426 0.000000 0.000000 0.000000
# 3 -0.000943 -0.003426 0.011484 0.000000 0.000000 0.000000
# 4 0.000000 0.000000 0.000000 0.057001 0.000000 0.000000
# 5 0.000000 0.000000 0.000000 0.000000 0.015443 0.000000
# 6 0.000000 0.000000 0.000000 0.000000 0.000000 0.052591
#
#
# Mechanical properties :
#
#
# Convention : Reuss Voigt Hill
#
# Bulk Modulus (GPa) = 60.82605 62.29130 61.55868
# Shear Modulus (GPa) = 27.10082 34.56276 30.83179
#
# Velocity S-wave (km/s) = 3.84695 4.34440 4.10322
# Velocity P-wave (km/s) = 7.27651 7.69290 7.48760
#
# Compressibility (1/GPa) = 0.01644032
#
# Stress axis : x y z
#
# Youngs Moduli (GPa) = 98.93725 73.42578 87.07738
#
# Poissons Ratio (x) = 0.36829 0.08211
# Poissons Ratio (y) = 0.49625 0.29836
# Poissons Ratio (z) = 0.09329 0.25159
#
# Static dielectric constant tensor:
#      x y z
#    x 3.463480 0.000000 0.000000 
#    y 0.000000 3.087510 0.000000 
#    z 0.000000 0.000000 3.574010 
# 
# 
# High freq. dielectric constant tensor:
#      x y z
#    x 1.735780 0.000000 0.000000 
#    y 0.000000 1.656450 0.000000 
#    z 0.000000 0.000000 1.727840 
# 
# From -- ./inp_files/14510.got.cif
#   From: 2010.03.12/outbox.cif.g09.slc.cpg/sg64_8_cif.got.tgz:14510.got - 2010.04.10 20:19:32.
