data_PCOD8263818
_publ_section_title
;
Structure prediction by ZEFSAII (Michael W. Deem and Ramdas Pophale) SiO2 
 PCOD8263818
Probable space group: C M C A
;
_chemical_formula_sum "Si O2"
_cell_formula_units_Z 112
_cell_length_a 28.364812
_cell_length_b 11.582670
_cell_length_c 16.775741
_cell_angle_alpha 90.000000
_cell_angle_beta 90.000000
_cell_angle_gamma 90.000000
_cell_volume 5511.506260
_symmetry_space_group_name_H-M "C M C A"
_symmetry_group_IT_number 64
_symmetry_cell_setting 'orthorhombic'
loop_
_space_group_symop_operation_xyz
x,y,z
-x,1/2-y,1/2+z
x,-y,-z
-x,1/2+y,1/2-z
-x,-y,-z
x,1/2+y,1/2-z
-x,y,z
x,1/2-y,1/2+z
1/2+x,1/2+y,z
1/2-x,-y,1/2+z
1/2+x,1/2-y,-z
1/2-x,y,1/2-z
1/2-x,1/2-y,-z
1/2+x,y,1/2-z
1/2-x,1/2+y,z
1/2+x,-y,1/2+z
loop_
_atom_site_type_symbol
_atom_site_label
_atom_site_fract_x
_atom_site_fract_y
_atom_site_fract_z
Si Si1 0.947212 0.880380 0.029543
Si Si2 0.554249 0.213320 0.696259
Si Si3 0.129387 0.627149 0.812616
Si Si4 0.205472 0.704910 0.698089
Si Si5 0.863796 0.251194 0.027556
Si Si6 0.867303 0.373744 0.870298
Si Si7 0.223177 0.369942 0.473390
O O1 0.944488 0.880838 0.125581
O O2 0.000000 0.861574 0.998741
O O3 0.917798 0.781884 0.986284
O O4 0.926037 0.000000 0.000000
O O5 0.500000 0.248964 0.716036
O O6 0.578861 0.159990 0.774496
O O7 0.583809 0.321185 0.662730
O O8 0.169969 0.622327 0.746357
O O9 0.144337 0.717062 0.880948
O O10 0.126622 0.507245 0.856943
O O11 0.250000 0.742886 0.750000
O O12 0.177348 0.821348 0.676693
O O13 0.222818 0.630846 0.622378
O O14 0.855846 0.354300 0.963851
O O15 0.829563 0.143387 0.007693
O O16 0.242315 0.500000 0.500000
O O17 0.250000 0.250000 0.500000
#
# Coordination Sequence:
#
# PCOD8263818 Si02
#       7
#    16  16  16  16  16  16  16
#     4   9  18  35  59  82 108 147 190 233 284 345
#     4   9  20  37  54  81 117 149 191 245 298 350
#     4  11  22  36  59  88 115 151 197 244 295 351
#     4  10  23  40  59  87 118 150 190 242 297 349
#     4  10  21  38  58  83 118 153 192 237 289 354
#     4   9  21  39  58  82 116 156 193 237 295 358
#     4  11  25  43  64  89 119 160 203 243 294 358
#
# _framework density 20.321123
#
# number of rings (size 3 to 8) (size 9 to 14) (size 15 to 20)
#    0.000    2.143    0.000    2.571    0.000   12.000 
#    0.000    1.429    0.000    4.286    0.000    0.000 
#    0.000    0.000    0.000    0.000    0.000    0.000 
#
# Total GULP energy -693970.229641 kJ/mol
# GULP energy per Si atom -12392.325529 kJ/mol
# Density = 2.027487 g / cm^3
# Si number density = 20.321123 Si / 1000 Ang^3
#
#
#
# Elastic Constant Matrix: (Units=GPa)
#
#
# Indices 1 2 3 4 5 6 
#
# 1 112.0391 23.7723 41.8039 0.0000 0.0000 0.0000
# 2 23.7723 83.2144 38.4590 0.0000 0.0000 0.0000
# 3 41.8039 38.4590 126.7919 0.0000 0.0000 0.0000
# 4 0.0000 0.0000 0.0000 25.4996 0.0000 0.0000
# 5 0.0000 0.0000 0.0000 0.0000 30.7238 0.0000
# 6 0.0000 0.0000 0.0000 0.0000 0.0000 13.9076
#
#
#
# Elastic Compliance Matrix: (Units=1/GPa)
#
#
# Indices 1 2 3 4 5 6 
#
# 1 0.010359 -0.001606 -0.002928 0.000000 0.000000 0.000000
# 2 -0.001606 0.014225 -0.003785 0.000000 0.000000 0.000000
# 3 -0.002928 -0.003785 0.010001 0.000000 0.000000 0.000000
# 4 0.000000 0.000000 0.000000 0.039216 0.000000 0.000000
# 5 0.000000 0.000000 0.000000 0.000000 0.032548 0.000000
# 6 0.000000 0.000000 0.000000 0.000000 0.000000 0.071903
#
#
# Mechanical properties :
#
#
# Convention : Reuss Voigt Hill
#
# Bulk Modulus (GPa) = 55.72378 58.90174 57.31276
# Shear Modulus (GPa) = 24.89130 28.56021 26.72576
#
# Velocity S-wave (km/s) = 3.50365 3.75299 3.63046
# Velocity P-wave (km/s) = 6.62182 6.91580 6.77041
#
# Compressibility (1/GPa) = 0.01794566
#
# Stress axis : x y z
#
# Youngs Moduli (GPa) = 96.53654 70.29668 99.99400
#
# Poissons Ratio (x) = 0.11289 0.29280
# Poissons Ratio (y) = 0.15503 0.37852
# Poissons Ratio (z) = 0.28268 0.26610
#
# Static dielectric constant tensor:
#      x y z
#    x 3.885490 0.000000 0.000000 
#    y 0.000000 3.466890 0.000000 
#    z 0.000000 0.000000 3.844470 
# 
# 
# High freq. dielectric constant tensor:
#      x y z
#    x 1.804940 0.000000 0.000000 
#    y 0.000000 1.770510 0.000000 
#    z 0.000000 0.000000 1.802180 
# 
# From -- ./inp_files/28373.got.cif
#   From: 2010.03.12/outbox.cif.g09.slc.cpg/sg64_15_cif.got.tgz:28373.got - 2010.04.10 20:19:32.
