data_PCOD8263558
_publ_section_title
;
Structure prediction by ZEFSAII (Michael W. Deem and Ramdas Pophale) SiO2 
 PCOD8263558
Probable space group: C M C A
;
_chemical_formula_sum "Si O2"
_cell_formula_units_Z 96
_cell_length_a 20.807300
_cell_length_b 11.292645
_cell_length_c 18.404952
_cell_angle_alpha 90.000000
_cell_angle_beta 90.000000
_cell_angle_gamma 90.000000
_cell_volume 4324.601491
_symmetry_space_group_name_H-M "C M C A"
_symmetry_group_IT_number 64
_symmetry_cell_setting 'orthorhombic'
loop_
_space_group_symop_operation_xyz
x,y,z
-x,1/2-y,1/2+z
x,-y,-z
-x,1/2+y,1/2-z
-x,-y,-z
x,1/2+y,1/2-z
-x,y,z
x,1/2-y,1/2+z
1/2+x,1/2+y,z
1/2-x,-y,1/2+z
1/2+x,1/2-y,-z
1/2-x,y,1/2-z
1/2-x,1/2-y,-z
1/2+x,y,1/2-z
1/2-x,1/2+y,z
1/2+x,-y,1/2+z
loop_
_atom_site_type_symbol
_atom_site_label
_atom_site_fract_x
_atom_site_fract_y
_atom_site_fract_z
Si Si1 0.500000 0.032942 0.192881
Si Si2 0.074651 0.067816 0.073832
Si Si3 0.159000 0.221019 0.553742
Si Si4 0.000000 0.793241 0.214216
Si Si5 0.706394 0.205855 0.104698
Si Si6 0.129023 0.893007 0.181502
Si Si7 0.637313 0.011196 0.841597
O O1 0.500000 0.155112 0.243249
O O2 0.500000 0.904191 0.230612
O O3 0.564908 0.038126 0.145698
O O4 0.094225 0.204594 0.066904
O O5 0.000000 0.058115 0.092586
O O6 0.115742 0.015108 0.140036
O O7 0.092493 0.000000 0.000000
O O8 0.218591 0.296430 0.585469
O O9 0.165331 0.196999 0.468656
O O10 0.153977 0.096410 0.592594
O O11 0.933957 0.809174 0.169232
O O12 0.690188 0.327041 0.147337
O O13 0.688515 0.095580 0.156271
O O14 0.143775 0.920922 0.265213
#
# Coordination Sequence:
#
# PCOD8263558 Si02
#       7
#     8  16  16   8  16  16  16
#     4  10  22  40  70 101 146 185 229 288 363 427
#     4  11  24  44  71 103 136 185 239 289 341 426
#     4  11  27  46  73  98 137 189 238 288 357 429
#     4  10  20  40  68 102 142 189 221 285 363 427
#     4  11  25  49  70  95 143 185 231 287 358 428
#     4  11  23  43  69 101 141 179 230 289 354 415
#     4  11  26  44  70 106 136 184 234 292 358 427
#
# _framework density 22.198577
#
# number of rings (size 3 to 8) (size 9 to 14) (size 15 to 20)
#    0.000    1.167    4.167    0.500    5.833    2.000 
#    1.500    0.833    0.000    0.000    0.000    0.000 
#    0.000    0.000    0.000    0.000    0.000    0.000 
#
# Total GULP energy -595145.852087 kJ/mol
# GULP energy per Si atom -12398.871918 kJ/mol
# Density = 2.214805 g / cm^3
# Si number density = 22.198577 Si / 1000 Ang^3
#
#
#
# Elastic Constant Matrix: (Units=GPa)
#
#
# Indices 1 2 3 4 5 6 
#
# 1 47.4946 27.8812 22.3398 0.0000 0.0000 0.0000
# 2 27.8812 119.2329 26.5812 0.0000 0.0000 0.0000
# 3 22.3398 26.5812 89.3196 0.0000 0.0000 0.0000
# 4 0.0000 0.0000 0.0000 32.5501 0.0000 0.0000
# 5 0.0000 0.0000 0.0000 0.0000 26.0441 0.0000
# 6 0.0000 0.0000 0.0000 0.0000 0.0000 35.2502
#
#
#
# Elastic Compliance Matrix: (Units=1/GPa)
#
#
# Indices 1 2 3 4 5 6 
#
# 1 0.026415 -0.005038 -0.005107 0.000000 0.000000 0.000000
# 2 -0.005038 0.009944 -0.001699 0.000000 0.000000 0.000000
# 3 -0.005107 -0.001699 0.012979 0.000000 0.000000 0.000000
# 4 0.000000 0.000000 0.000000 0.030722 0.000000 0.000000
# 5 0.000000 0.000000 0.000000 0.000000 0.038396 0.000000
# 6 0.000000 0.000000 0.000000 0.000000 0.000000 0.028369
#
#
# Mechanical properties :
#
#
# Convention : Reuss Voigt Hill
#
# Bulk Modulus (GPa) = 38.98896 45.51682 42.25289
# Shear Modulus (GPa) = 27.92308 30.71855 29.32082
#
# Velocity S-wave (km/s) = 3.55050 3.72399 3.63828
# Velocity P-wave (km/s) = 5.86600 6.24818 6.06010
#
# Compressibility (1/GPa) = 0.02564829
#
# Stress axis : x y z
#
# Youngs Moduli (GPa) = 37.85734 100.56446 77.04876
#
# Poissons Ratio (x) = 0.50667 0.39351
# Poissons Ratio (y) = 0.19073 0.13092
# Poissons Ratio (z) = 0.19335 0.17087
#
# Static dielectric constant tensor:
#      x y z
#    x 4.291500 0.000000 0.000000 
#    y 0.000000 3.956060 0.000000 
#    z 0.000000 0.000000 3.837190 
# 
# 
# High freq. dielectric constant tensor:
#      x y z
#    x 1.879860 0.000000 0.000000 
#    y 0.000000 1.882150 0.000000 
#    z 0.000000 0.000000 1.859320 
# 
# From -- ./inp_files/34994.got.cif
#   From: 2010.03.12/outbox.cif.g09.slc.cpg/sg64_18_cif.got.tgz:34994.got - 2010.04.10 20:19:32.
