data_PCOD8263787
_publ_section_title
;
Structure prediction by ZEFSAII (Michael W. Deem and Ramdas Pophale) SiO2 
 PCOD8263787
Probable space group: C M C A
;
_chemical_formula_sum "Si O2"
_cell_formula_units_Z 72
_cell_length_a 14.589371
_cell_length_b 18.115818
_cell_length_c 13.393240
_cell_angle_alpha 90.000000
_cell_angle_beta 90.000000
_cell_angle_gamma 90.000000
_cell_volume 3539.811766
_symmetry_space_group_name_H-M "C M C A"
_symmetry_group_IT_number 64
_symmetry_cell_setting 'orthorhombic'
loop_
_space_group_symop_operation_xyz
x,y,z
-x,1/2-y,1/2+z
x,-y,-z
-x,1/2+y,1/2-z
-x,-y,-z
x,1/2+y,1/2-z
-x,y,z
x,1/2-y,1/2+z
1/2+x,1/2+y,z
1/2-x,-y,1/2+z
1/2+x,1/2-y,-z
1/2-x,y,1/2-z
1/2-x,1/2-y,-z
1/2+x,y,1/2-z
1/2-x,1/2+y,z
1/2+x,-y,1/2+z
loop_
_atom_site_type_symbol
_atom_site_label
_atom_site_fract_x
_atom_site_fract_y
_atom_site_fract_z
Si Si1 0.786299 0.027226 0.395772
Si Si2 0.151655 0.170778 0.287403
Si Si3 0.602875 0.819123 0.377667
Si Si4 0.601092 0.109377 0.414574
Si Si5 0.750000 0.905045 0.250000
O O1 0.841293 0.096572 0.353107
O O2 0.677219 0.045457 0.404042
O O3 0.827316 0.000000 0.500000
O O4 0.803112 0.957375 0.326267
O O5 0.250000 0.198515 0.250000
O O6 0.106379 0.231207 0.359414
O O7 0.093578 0.157000 0.187031
O O8 0.500000 0.847000 0.354396
O O9 0.628521 0.837313 0.492694
O O10 0.673831 0.856148 0.303041
O O11 0.500000 0.074115 0.432719
#
# Coordination Sequence:
#
# PCOD8263787 Si02
#       5
#    16  16  16  16   8
#     4  11  22  39  61  93 125 166 209 255 320 376
#     4  10  21  40  62  89 127 172 204 254 318 377
#     4  11  24  40  65  97 126 166 213 263 312 372
#     4  10  21  37  62  91 124 165 214 260 305 375
#     4  12  22  40  62  98 128 158 210 268 312 366
#
# _framework density 20.340064999999999
#
# number of rings (size 3 to 8) (size 9 to 14) (size 15 to 20)
#    0.000    1.333    6.667    0.667    0.000    6.667 
#    0.000    0.000    0.000    4.667    0.000    0.000 
#    0.000    0.000    0.000    0.000    0.000    0.000 
#
# Total GULP energy -446286.590692 kJ/mol
# GULP energy per Si atom -12396.849741 kJ/mol
# Density = 2.029377 g / cm^3
# Si number density = 20.340065 Si / 1000 Ang^3
#
#
#
# Elastic Constant Matrix: (Units=GPa)
#
#
# Indices 1 2 3 4 5 6 
#
# 1 80.2449 36.9262 40.9214 0.0000 0.0000 0.0000
# 2 36.9262 112.3672 66.1994 0.0000 0.0000 0.0000
# 3 40.9214 66.1994 168.7358 0.0000 0.0000 0.0000
# 4 0.0000 0.0000 0.0000 41.6343 0.0000 0.0000
# 5 0.0000 0.0000 0.0000 0.0000 20.9669 0.0000
# 6 0.0000 0.0000 0.0000 0.0000 0.0000 16.9805
#
#
#
# Elastic Compliance Matrix: (Units=1/GPa)
#
#
# Indices 1 2 3 4 5 6 
#
# 1 0.015319 -0.003701 -0.002263 0.000000 0.000000 0.000000
# 2 -0.003701 0.012469 -0.003994 0.000000 0.000000 0.000000
# 3 -0.002263 -0.003994 0.008042 0.000000 0.000000 0.000000
# 4 0.000000 0.000000 0.000000 0.024019 0.000000 0.000000
# 5 0.000000 0.000000 0.000000 0.000000 0.047694 0.000000
# 6 0.000000 0.000000 0.000000 0.000000 0.000000 0.058891
#
#
# Mechanical properties :
#
#
# Convention : Reuss Voigt Hill
#
# Bulk Modulus (GPa) = 62.83988 72.16021 67.50004
# Shear Modulus (GPa) = 26.08853 30.40306 28.24580
#
# Velocity S-wave (km/s) = 3.58525 3.87038 3.73054
# Velocity P-wave (km/s) = 6.93544 7.45164 7.19817
#
# Compressibility (1/GPa) = 0.01591346
#
# Stress axis : x y z
#
# Youngs Moduli (GPa) = 65.27848 80.20058 124.34167
#
# Poissons Ratio (x) = 0.29681 0.28141
# Poissons Ratio (y) = 0.24158 0.49666
# Poissons Ratio (z) = 0.14774 0.32034
#
# Static dielectric constant tensor:
#      x y z
#    x 3.564610 0.000000 0.000000 
#    y 0.000000 3.588170 0.000000 
#    z 0.000000 0.000000 3.948910 
# 
# 
# High freq. dielectric constant tensor:
#      x y z
#    x 1.778900 0.000000 0.000000 
#    y 0.000000 1.788800 0.000000 
#    z 0.000000 0.000000 1.811830 
# 
# From -- ./inp_files/23494.got.cif
#   From: 2010.03.12/outbox.cif.g09.slc.cpg/sg64_12_cif.got.tgz:23494.got - 2010.04.10 20:19:32.
