data_PCOD8263372
_publ_section_title
;
Structure prediction by ZEFSAII (Michael W. Deem and Ramdas Pophale) SiO2 
 PCOD8263372
Probable space group: C M C A
;
_chemical_formula_sum "Si O2"
_cell_formula_units_Z 80
_cell_length_a 32.600818
_cell_length_b 5.183487
_cell_length_c 19.181233
_cell_angle_alpha 90.000000
_cell_angle_beta 90.000000
_cell_angle_gamma 90.000000
_cell_volume 3241.358234
_symmetry_space_group_name_H-M "C M C A"
_symmetry_group_IT_number 64
_symmetry_cell_setting 'orthorhombic'
loop_
_space_group_symop_operation_xyz
x,y,z
-x,1/2-y,1/2+z
x,-y,-z
-x,1/2+y,1/2-z
-x,-y,-z
x,1/2+y,1/2-z
-x,y,z
x,1/2-y,1/2+z
1/2+x,1/2+y,z
1/2-x,-y,1/2+z
1/2+x,1/2-y,-z
1/2-x,y,1/2-z
1/2-x,1/2-y,-z
1/2+x,y,1/2-z
1/2-x,1/2+y,z
1/2+x,-y,1/2+z
loop_
_atom_site_type_symbol
_atom_site_label
_atom_site_fract_x
_atom_site_fract_y
_atom_site_fract_z
Si Si1 0.899685 0.500000 0.500000
Si Si2 0.222294 0.000000 0.500000
Si Si3 0.413995 0.992931 0.809632
Si Si4 0.547399 0.990250 0.364014
Si Si5 0.660661 0.517895 0.216683
Si Si6 0.348536 0.849980 0.088321
O O1 0.928022 0.566085 0.565435
O O2 0.870803 0.745622 0.481890
O O3 0.250000 0.250000 0.500000
O O4 0.193350 0.005083 0.568438
O O5 0.440620 0.245481 0.826031
O O6 0.377864 0.959439 0.867983
O O7 0.444582 0.748200 0.810918
O O8 0.388345 0.017098 0.736312
O O9 0.500000 0.001263 0.383849
O O10 0.681737 0.244576 0.235458
O O11 0.662464 0.597445 0.135971
#
# Coordination Sequence:
#
# PCOD8263372 Si02
#       6
#     8   8  16  16  16  16
#     4  10  20  38  64  91 120 172 234 269 314 392
#     4  12  27  44  66 101 141 170 201 261 342 410
#     4  10  21  39  65  92 118 167 228 273 320 388
#     4  11  22  37  59  90 132 171 212 277 342 388
#     4  10  20  37  67  95 118 155 219 281 320 371
#     4  10  22  42  69  96 128 173 227 277 324 403
#
# _framework density 24.681011000000002
#
# number of rings (size 3 to 8) (size 9 to 14) (size 15 to 20)
#    0.000    1.600    0.000    6.300    0.000    8.800 
#    0.000    5.000    0.000   98.400    0.000    0.000 
#    0.000    0.000    0.000    0.000    0.000    0.000 
#
# Total GULP energy -495804.607151 kJ/mol
# GULP energy per Si atom -12395.115179 kJ/mol
# Density = 2.462484 g / cm^3
# Si number density = 24.681011 Si / 1000 Ang^3
#
#
#
# Elastic Constant Matrix: (Units=GPa)
#
#
# Indices 1 2 3 4 5 6 
#
# 1 133.6203 49.2487 42.0572 0.0000 0.0000 0.0000
# 2 49.2487 153.2628 13.5355 0.0000 0.0000 0.0000
# 3 42.0572 13.5355 117.9279 0.0000 0.0000 0.0000
# 4 0.0000 0.0000 0.0000 38.9502 0.0000 0.0000
# 5 0.0000 0.0000 0.0000 0.0000 24.9189 0.0000
# 6 0.0000 0.0000 0.0000 0.0000 0.0000 36.8752
#
#
#
# Elastic Compliance Matrix: (Units=1/GPa)
#
#
# Indices 1 2 3 4 5 6 
#
# 1 0.009468 -0.002772 -0.003059 0.000000 0.000000 0.000000
# 2 -0.002772 0.007403 0.000139 0.000000 0.000000 0.000000
# 3 -0.003059 0.000139 0.009555 0.000000 0.000000 0.000000
# 4 0.000000 0.000000 0.000000 0.025674 0.000000 0.000000
# 5 0.000000 0.000000 0.000000 0.000000 0.040130 0.000000
# 6 0.000000 0.000000 0.000000 0.000000 0.000000 0.027118
#
#
# Mechanical properties :
#
#
# Convention : Reuss Voigt Hill
#
# Bulk Modulus (GPa) = 66.47872 68.27708 67.37790
# Shear Modulus (GPa) = 36.83324 40.14683 38.49004
#
# Velocity S-wave (km/s) = 3.86731 4.03752 3.95333
# Velocity P-wave (km/s) = 6.85092 7.03273 6.94242
#
# Compressibility (1/GPa) = 0.01504241
#
# Stress axis : x y z
#
# Youngs Moduli (GPa) = 105.61433 135.07425 104.66175
#
# Poissons Ratio (x) = 0.37448 0.32011
# Poissons Ratio (y) = 0.29281 -0.01455
# Poissons Ratio (z) = 0.32303 -0.01878
#
# Static dielectric constant tensor:
#      x y z
#    x 4.145660 0.000000 0.000000 
#    y 0.000000 5.188460 0.000000 
#    z 0.000000 0.000000 4.616790 
# 
# 
# High freq. dielectric constant tensor:
#      x y z
#    x 1.936060 0.000000 0.000000 
#    y 0.000000 2.010050 0.000000 
#    z 0.000000 0.000000 1.997510 
# 
# From -- ./inp_files/47047.got.cif
#   From: 2010.03.12/outbox.cif.g09.slc.cpg/sg64_24_cif.got.tgz:47047.got - 2010.04.10 20:19:32.
