data_PCOD8263670
_publ_section_title
;
Structure prediction by ZEFSAII (Michael W. Deem and Ramdas Pophale) SiO2 
 PCOD8263670
Probable space group: C M C A
;
_chemical_formula_sum "Si O2"
_cell_formula_units_Z 88
_cell_length_a 15.460422
_cell_length_b 17.310813
_cell_length_c 17.391706
_cell_angle_alpha 90.000000
_cell_angle_beta 90.000000
_cell_angle_gamma 90.000000
_cell_volume 4654.585306
_symmetry_space_group_name_H-M "C M C A"
_symmetry_group_IT_number 64
_symmetry_cell_setting 'orthorhombic'
loop_
_space_group_symop_operation_xyz
x,y,z
-x,1/2-y,1/2+z
x,-y,-z
-x,1/2+y,1/2-z
-x,-y,-z
x,1/2+y,1/2-z
-x,y,z
x,1/2-y,1/2+z
1/2+x,1/2+y,z
1/2-x,-y,1/2+z
1/2+x,1/2-y,-z
1/2-x,y,1/2-z
1/2-x,1/2-y,-z
1/2+x,y,1/2-z
1/2-x,1/2+y,z
1/2+x,-y,1/2+z
loop_
_atom_site_type_symbol
_atom_site_label
_atom_site_fract_x
_atom_site_fract_y
_atom_site_fract_z
Si Si1 0.398564 0.929198 0.447299
Si Si2 0.500000 0.805455 0.072094
Si Si3 0.500000 0.238896 0.271199
Si Si4 0.658720 0.979969 0.288342
Si Si5 0.660055 0.277539 0.966119
Si Si6 0.664843 0.659058 0.202513
Si Si7 0.500000 0.908845 0.208308
O O1 0.500000 0.936092 0.429940
O O2 0.348741 0.931019 0.366237
O O3 0.376246 0.850075 0.488248
O O4 0.366991 0.000000 0.500000
O O5 0.500000 0.736153 0.135276
O O6 0.588664 0.791757 0.024121
O O7 0.500000 0.888311 0.116501
O O8 0.413446 0.194090 0.245777
O O9 0.500000 0.328164 0.242590
O O10 0.750000 0.960912 0.250000
O O11 0.585043 0.957515 0.227257
O O12 0.647609 0.069033 0.310746
O O13 0.676212 0.297575 0.877653
O O14 0.750000 0.250000 0.000000
O O15 0.750000 0.674897 0.250000
#
# Coordination Sequence:
#
# PCOD8263670 Si02
#       7
#    16   8   8  16  16  16   8
#     4  11  22  37  64  91 123 156 210 263 307 364
#     4   8  20  39  51  85 124 155 198 240 304 361
#     4   8  19  33  59  77 119 154 186 244 303 343
#     4  11  23  37  61  91 122 158 206 254 306 367
#     4  11  22  39  62  88 124 167 194 251 318 366
#     4  10  21  40  59  86 121 162 201 247 308 370
#     4  10  21  36  56  89 120 155 195 249 305 354
#
# _framework density 18.906089000000001
#
# number of rings (size 3 to 8) (size 9 to 14) (size 15 to 20)
#    0.545    1.273    3.636    0.545    2.545    2.182 
#    0.000    0.909    0.000    0.000    0.000    3.818 
#    0.000    0.000    0.000    0.000    0.000    0.000 
#
# Total GULP energy -545470.145630 kJ/mol
# GULP energy per Si atom -12397.048764 kJ/mol
# Density = 1.886306 g / cm^3
# Si number density = 18.906089 Si / 1000 Ang^3
#
#
#
# Elastic Constant Matrix: (Units=GPa)
#
#
# Indices 1 2 3 4 5 6 
#
# 1 150.9453 42.8781 41.5593 0.0000 0.0000 0.0000
# 2 42.8781 41.3739 31.4444 0.0000 0.0000 0.0000
# 3 41.5593 31.4444 61.7581 0.0000 0.0000 0.0000
# 4 0.0000 0.0000 0.0000 30.7461 0.0000 0.0000
# 5 0.0000 0.0000 0.0000 0.0000 25.2802 0.0000
# 6 0.0000 0.0000 0.0000 0.0000 0.0000 32.3304
#
#
#
# Elastic Compliance Matrix: (Units=1/GPa)
#
#
# Indices 1 2 3 4 5 6 
#
# 1 0.009580 -0.008203 -0.002270 0.000000 0.000000 0.000000
# 2 -0.008203 0.046450 -0.018130 0.000000 0.000000 0.000000
# 3 -0.002270 -0.018130 0.026951 0.000000 0.000000 0.000000
# 4 0.000000 0.000000 0.000000 0.032524 0.000000 0.000000
# 5 0.000000 0.000000 0.000000 0.000000 0.039557 0.000000
# 6 0.000000 0.000000 0.000000 0.000000 0.000000 0.030931
#
#
# Mechanical properties :
#
#
# Convention : Reuss Voigt Hill
#
# Bulk Modulus (GPa) = 38.79821 53.98234 46.39028
# Shear Modulus (GPa) = 19.85770 26.88435 23.37102
#
# Velocity S-wave (km/s) = 3.24440 3.77502 3.51973
# Velocity P-wave (km/s) = 5.88226 6.90043 6.41159
#
# Compressibility (1/GPa) = 0.02577439
#
# Stress axis : x y z
#
# Youngs Moduli (GPa) = 104.38228 21.52844 37.10444
#
# Poissons Ratio (x) = 0.17660 0.08423
# Poissons Ratio (y) = 0.85626 0.67271
# Poissons Ratio (z) = 0.23697 0.39031
#
# Static dielectric constant tensor:
#      x y z
#    x 3.646180 0.000000 0.000000 
#    y 0.000000 6.348590 0.000000 
#    z 0.000000 0.000000 3.313760 
# 
# 
# High freq. dielectric constant tensor:
#      x y z
#    x 1.749200 0.000000 0.000000 
#    y 0.000000 1.726590 0.000000 
#    z 0.000000 0.000000 1.715430 
# 
# From -- ./inp_files/32216.got.cif
#   From: 2010.03.12/outbox.cif.g09.slc.cpg/sg64_17_cif.got.tgz:32216.got - 2010.04.10 20:19:32.
