data_PCOD8263140
_publ_section_title
;
Structure prediction by ZEFSAII (Michael W. Deem and Ramdas Pophale) SiO2 
 PCOD8263140
Probable space group: C M C A
;
_chemical_formula_sum "Si O2"
_cell_formula_units_Z 96
_cell_length_a 9.089350
_cell_length_b 19.707970
_cell_length_c 29.098745
_cell_angle_alpha 90.000000
_cell_angle_beta 90.000000
_cell_angle_gamma 90.000000
_cell_volume 5212.534929
_symmetry_space_group_name_H-M "C M C A"
_symmetry_group_IT_number 64
_symmetry_cell_setting 'orthorhombic'
loop_
_space_group_symop_operation_xyz
x,y,z
-x,1/2-y,1/2+z
x,-y,-z
-x,1/2+y,1/2-z
-x,-y,-z
x,1/2+y,1/2-z
-x,y,z
x,1/2-y,1/2+z
1/2+x,1/2+y,z
1/2-x,-y,1/2+z
1/2+x,1/2-y,-z
1/2-x,y,1/2-z
1/2-x,1/2-y,-z
1/2+x,y,1/2-z
1/2-x,1/2+y,z
1/2+x,-y,1/2+z
loop_
_atom_site_type_symbol
_atom_site_label
_atom_site_fract_x
_atom_site_fract_y
_atom_site_fract_z
Si Si1 0.174338 0.482730 0.201908
Si Si2 0.827794 0.697801 0.467566
Si Si3 0.326899 0.066921 0.522839
Si Si4 0.829772 0.137081 0.295849
Si Si5 0.670821 0.736493 0.377181
Si Si6 0.326650 0.605618 0.875842
O O1 0.250000 0.462441 0.250000
O O2 0.214315 0.560641 0.189103
O O3 0.237907 0.435696 0.162048
O O4 0.000000 0.471316 0.206201
O O5 0.750000 0.750000 0.500000
O O6 0.785833 0.624600 0.486769
O O7 0.769605 0.704563 0.416532
O O8 0.000000 0.711578 0.468836
O O9 0.500000 0.058398 0.528144
O O10 0.266242 0.083000 0.573928
O O11 0.255582 0.000000 0.500000
O O12 0.750000 0.160030 0.250000
O O13 0.784908 0.192321 0.333352
O O14 0.000000 0.139707 0.284769
O O15 0.500000 0.728244 0.390515
O O16 0.708587 0.815027 0.368725
O O17 0.500000 0.591327 0.870361
#
# Coordination Sequence:
#
# PCOD8263140 Si02
#       6
#    16  16  16  16  16  16
#     4  10  21  38  58  82 110 143 182 225 276 330
#     4  11  21  36  58  82 111 149 187 227 272 324
#     4   9  19  35  54  80 112 147 187 226 268 323
#     4   9  20  38  59  81 111 143 180 228 276 329
#     4  10  21  38  57  82 114 147 182 227 279 327
#     4  10  20  36  57  80 112 149 183 227 276 322
#
# _framework density 18.417141999999998
#
# number of rings (size 3 to 8) (size 9 to 14) (size 15 to 20)
#    0.000    2.167    1.667    1.000    2.333    2.667 
#    0.000    1.667    0.000    2.500    0.000    0.000 
#    0.000    0.000    0.000    0.000    0.000    0.000 
#
# Total GULP energy -595191.116113 kJ/mol
# GULP energy per Si atom -12399.814919 kJ/mol
# Density = 1.837522 g / cm^3
# Si number density = 18.417142 Si / 1000 Ang^3
#
#
#
# Elastic Constant Matrix: (Units=GPa)
#
#
# Indices 1 2 3 4 5 6 
#
# 1 61.2614 62.4389 65.6008 0.0000 0.0000 0.0000
# 2 62.4389 151.4596 108.2381 0.0000 0.0000 0.0000
# 3 65.6008 108.2381 160.2857 0.0000 0.0000 0.0000
# 4 0.0000 0.0000 0.0000 33.9738 0.0000 0.0000
# 5 0.0000 0.0000 0.0000 0.0000 35.7257 0.0000
# 6 0.0000 0.0000 0.0000 0.0000 0.0000 17.9866
#
#
#
# Elastic Compliance Matrix: (Units=1/GPa)
#
#
# Indices 1 2 3 4 5 6 
#
# 1 0.033097 -0.007661 -0.008373 0.000000 0.000000 0.000000
# 2 -0.007661 0.014534 -0.006679 0.000000 0.000000 0.000000
# 3 -0.008373 -0.006679 0.014176 0.000000 0.000000 0.000000
# 4 0.000000 0.000000 0.000000 0.029434 0.000000 0.000000
# 5 0.000000 0.000000 0.000000 0.000000 0.027991 0.000000
# 6 0.000000 0.000000 0.000000 0.000000 0.000000 0.055597
#
#
# Mechanical properties :
#
#
# Convention : Reuss Voigt Hill
#
# Bulk Modulus (GPa) = 61.04339 93.95138 77.49739
# Shear Modulus (GPa) = 22.15191 26.65249 24.40220
#
# Velocity S-wave (km/s) = 3.47189 3.80828 3.64397
# Velocity P-wave (km/s) = 7.02060 8.39411 7.73789
#
# Compressibility (1/GPa) = 0.01638179
#
# Stress axis : x y z
#
# Youngs Moduli (GPa) = 30.21390 68.80628 70.54366
#
# Poissons Ratio (x) = 0.52713 0.59063
# Poissons Ratio (y) = 0.23147 0.47115
# Poissons Ratio (z) = 0.25297 0.45954
#
# Static dielectric constant tensor:
#      x y z
#    x 3.224890 0.000000 0.000000 
#    y 0.000000 3.546770 0.000000 
#    z 0.000000 0.000000 3.412930 
# 
# 
# High freq. dielectric constant tensor:
#      x y z
#    x 1.700010 0.000000 0.000000 
#    y 0.000000 1.725400 0.000000 
#    z 0.000000 0.000000 1.723880 
# 
# From -- ./inp_files/48061.got.cif
#   From: 2010.03.12/outbox.cif.g09.slc.cpg/sg64_25_cif.got.tgz:48061.got - 2010.04.10 20:19:32.
