data_PCOD8263055
_publ_section_title
;
Structure prediction by ZEFSAII (Michael W. Deem and Ramdas Pophale) SiO2 
 PCOD8263055
Probable space group: C M C A
;
_chemical_formula_sum "Si O2"
_cell_formula_units_Z 112
_cell_length_a 17.082417
_cell_length_b 15.744091
_cell_length_c 19.241475
_cell_angle_alpha 90.000000
_cell_angle_beta 90.000000
_cell_angle_gamma 90.000000
_cell_volume 5174.939435
_symmetry_space_group_name_H-M "C M C A"
_symmetry_group_IT_number 64
_symmetry_cell_setting 'orthorhombic'
loop_
_space_group_symop_operation_xyz
x,y,z
-x,1/2-y,1/2+z
x,-y,-z
-x,1/2+y,1/2-z
-x,-y,-z
x,1/2+y,1/2-z
-x,y,z
x,1/2-y,1/2+z
1/2+x,1/2+y,z
1/2-x,-y,1/2+z
1/2+x,1/2-y,-z
1/2-x,y,1/2-z
1/2-x,1/2-y,-z
1/2+x,y,1/2-z
1/2-x,1/2+y,z
1/2+x,-y,1/2+z
loop_
_atom_site_type_symbol
_atom_site_label
_atom_site_fract_x
_atom_site_fract_y
_atom_site_fract_z
Si Si1 0.591157 0.814156 0.792678
Si Si2 0.798510 0.309617 0.914353
Si Si3 0.215901 0.443045 0.180073
Si Si4 0.181169 0.106703 0.169020
Si Si5 0.591751 0.023100 0.595257
Si Si6 0.220569 0.874591 0.040712
Si Si7 0.589785 0.618036 0.765543
O O1 0.500000 0.837874 0.791603
O O2 0.622615 0.829353 0.871124
O O3 0.638380 0.875477 0.741153
O O4 0.605663 0.718358 0.766853
O O5 0.723663 0.309243 0.861409
O O6 0.810789 0.221142 0.953257
O O7 0.776834 0.381875 0.972606
O O8 0.250000 0.395134 0.250000
O O9 0.247998 0.539035 0.178166
O O10 0.228392 0.396282 0.107793
O O11 0.123832 0.432467 0.198458
O O12 0.116275 0.073363 0.113370
O O13 0.500000 0.030787 0.576695
O O14 0.643853 0.063773 0.532822
O O15 0.621742 0.077738 0.662194
O O16 0.500000 0.595625 0.763215
#
# Coordination Sequence:
#
# PCOD8263055 Si02
#       7
#    16  16  16  16  16  16  16
#     4  11  22  38  62  89 119 157 198 249 305 352
#     4  11  22  38  56  86 119 158 204 244 292 351
#     4  11  18  35  57  86 115 150 198 243 293 347
#     4  11  23  37  60  93 120 152 197 252 301 349
#     4  10  20  38  60  87 120 152 192 243 301 357
#     4  10  22  37  60  83 117 164 203 240 290 357
#     4  10  20  35  58  86 116 153 198 245 298 351
#
# _framework density 21.642765000000001
#
# number of rings (size 3 to 8) (size 9 to 14) (size 15 to 20)
#    0.000    1.429    4.286    2.571    0.000    2.286 
#    0.000    2.857    0.000    2.571    0.000    6.000 
#    0.000    0.000    0.000    0.000    0.000    0.000 
#
# Total GULP energy -693949.951804 kJ/mol
# GULP energy per Si atom -12391.963425 kJ/mol
# Density = 2.159351 g / cm^3
# Si number density = 21.642765 Si / 1000 Ang^3
#
#
#
# Elastic Constant Matrix: (Units=GPa)
#
#
# Indices 1 2 3 4 5 6 
#
# 1 80.2508 30.2069 44.4116 0.0000 0.0000 0.0000
# 2 30.2069 55.6459 9.8729 0.0000 0.0000 0.0000
# 3 44.4116 9.8729 98.9014 0.0000 0.0000 0.0000
# 4 0.0000 0.0000 0.0000 31.0443 0.0000 0.0000
# 5 0.0000 0.0000 0.0000 0.0000 20.8214 0.0000
# 6 0.0000 0.0000 0.0000 0.0000 0.0000 25.1454
#
#
#
# Elastic Compliance Matrix: (Units=1/GPa)
#
#
# Indices 1 2 3 4 5 6 
#
# 1 0.020766 -0.009792 -0.008348 0.000000 0.000000 0.000000
# 2 -0.009792 0.022912 0.002110 0.000000 0.000000 0.000000
# 3 -0.008348 0.002110 0.013649 0.000000 0.000000 0.000000
# 4 0.000000 0.000000 0.000000 0.032212 0.000000 0.000000
# 5 0.000000 0.000000 0.000000 0.000000 0.048028 0.000000
# 6 0.000000 0.000000 0.000000 0.000000 0.000000 0.039769
#
#
# Mechanical properties :
#
#
# Convention : Reuss Voigt Hill
#
# Bulk Modulus (GPa) = 39.57587 44.86454 42.22021
# Shear Modulus (GPa) = 22.95505 25.42267 24.18886
#
# Velocity S-wave (km/s) = 3.26027 3.43103 3.34674
# Velocity P-wave (km/s) = 5.70071 6.03909 5.87234
#
# Compressibility (1/GPa) = 0.02526792
#
# Stress axis : x y z
#
# Youngs Moduli (GPa) = 48.15507 43.64559 73.26572
#
# Poissons Ratio (x) = 0.42737 0.61159
# Poissons Ratio (y) = 0.47152 -0.15457
# Poissons Ratio (z) = 0.40198 -0.09208
#
# Static dielectric constant tensor:
#      x y z
#    x 4.046900 0.000000 0.000000 
#    y 0.000000 3.852640 0.000000 
#    z 0.000000 0.000000 4.202870 
# 
# 
# High freq. dielectric constant tensor:
#      x y z
#    x 1.843400 0.000000 0.000000 
#    y 0.000000 1.842690 0.000000 
#    z 0.000000 0.000000 1.854040 
# 
# From -- ./inp_files/40394.got.cif
#   From: 2010.03.12/outbox.cif.g09.slc.cpg/sg64_21_cif.got.tgz:40394.got - 2010.04.10 20:19:32.
