data_PCOD8263210
_publ_section_title
;
Structure prediction by ZEFSAII (Michael W. Deem and Ramdas Pophale) SiO2 
 PCOD8263210
Probable space group: C M C A
;
_chemical_formula_sum "Si O2"
_cell_formula_units_Z 96
_cell_length_a 19.682402
_cell_length_b 19.713714
_cell_length_c 12.287634
_cell_angle_alpha 90.000000
_cell_angle_beta 90.000000
_cell_angle_gamma 90.000000
_cell_volume 4767.764728
_symmetry_space_group_name_H-M "C M C A"
_symmetry_group_IT_number 64
_symmetry_cell_setting 'orthorhombic'
loop_
_space_group_symop_operation_xyz
x,y,z
-x,1/2-y,1/2+z
x,-y,-z
-x,1/2+y,1/2-z
-x,-y,-z
x,1/2+y,1/2-z
-x,y,z
x,1/2-y,1/2+z
1/2+x,1/2+y,z
1/2-x,-y,1/2+z
1/2+x,1/2-y,-z
1/2-x,y,1/2-z
1/2-x,1/2-y,-z
1/2+x,y,1/2-z
1/2-x,1/2+y,z
1/2+x,-y,1/2+z
loop_
_atom_site_type_symbol
_atom_site_label
_atom_site_fract_x
_atom_site_fract_y
_atom_site_fract_z
Si Si1 0.575577 0.910298 0.707289
Si Si2 0.338965 0.576173 0.994780
Si Si3 0.754334 0.191482 0.082286
Si Si4 0.420076 0.485575 0.379320
Si Si5 0.862290 0.219401 0.264478
Si Si6 0.580732 0.129195 0.713533
O O1 0.500000 0.936978 0.692137
O O2 0.607847 0.914124 0.590028
O O3 0.575530 0.832533 0.748704
O O4 0.612010 0.959468 0.795452
O O5 0.273232 0.622701 0.018033
O O6 0.310942 0.500000 0.000000
O O7 0.377253 0.592215 0.881837
O O8 0.813074 0.215288 0.162580
O O9 0.680147 0.188091 0.135429
O O10 0.750000 0.250000 0.000000
O O11 0.388423 0.500000 0.500000
O O12 0.500000 0.497900 0.388443
O O13 0.405327 0.410541 0.327992
O O14 0.891486 0.294453 0.279219
O O15 0.500000 0.129452 0.687066
#
# Coordination Sequence:
#
# PCOD8263210 Si02
#       6
#    16  16  16  16  16  16
#     4  10  20  36  59  88 125 158 194 251 315 367
#     4  11  21  37  65  95 122 157 205 259 310 367
#     4  10  21  41  62  82 118 163 206 258 305 347
#     4   9  19  35  54  81 122 163 196 241 302 367
#     4  10  22  38  60  88 120 161 208 250 300 366
#     4  11  21  36  62  94 126 161 204 250 311 381
#
# _framework density 20.135221999999999
#
# number of rings (size 3 to 8) (size 9 to 14) (size 15 to 20)
#    0.000    1.833    3.333    1.000    0.000    2.000 
#    0.000    2.500    3.667    0.000    0.000    0.000 
#    0.000    0.000    0.000    0.000    0.000    0.000 
#
# Total GULP energy -594730.928678 kJ/mol
# GULP energy per Si atom -12390.227681 kJ/mol
# Density = 2.008939 g / cm^3
# Si number density = 20.135222 Si / 1000 Ang^3
#
#
#
# Elastic Constant Matrix: (Units=GPa)
#
#
# Indices 1 2 3 4 5 6 
#
# 1 35.1769 30.2624 19.9949 0.0000 0.0000 0.0000
# 2 30.2624 163.2561 40.8820 0.0000 0.0000 0.0000
# 3 19.9949 40.8820 110.0432 0.0000 0.0000 0.0000
# 4 0.0000 0.0000 0.0000 36.4551 0.0000 0.0000
# 5 0.0000 0.0000 0.0000 0.0000 -10.4174 0.0000
# 6 0.0000 0.0000 0.0000 0.0000 0.0000 29.3760
#
#
#
# Elastic Compliance Matrix: (Units=1/GPa)
#
#
# Indices 1 2 3 4 5 6 
#
# 1 0.035686 -0.005503 -0.004440 0.000000 0.000000 0.000000
# 2 -0.005503 0.007602 -0.001824 0.000000 0.000000 0.000000
# 3 -0.004440 -0.001824 0.010572 0.000000 0.000000 0.000000
# 4 0.000000 0.000000 0.000000 0.027431 0.000000 0.000000
# 5 0.000000 0.000000 0.000000 0.000000 -0.095994 0.000000
# 6 0.000000 0.000000 0.000000 0.000000 0.000000 0.034041
#
#
# Mechanical properties :
#
#
# Convention : Reuss Voigt Hill
#
# Bulk Modulus (GPa) = 32.97571 54.52830 43.75200
# Shear Modulus (GPa) = 94.37274 25.57189 59.97231
#
# Velocity S-wave (km/s) = 6.85356 3.56758 5.46346
# Velocity P-wave (km/s) = 8.89050 6.64154 7.84701
#
# Compressibility (1/GPa) = 0.03032535
#
# Stress axis : x y z
#
# Youngs Moduli (GPa) = 28.02245 131.53877 94.59131
#
# Poissons Ratio (x) = 0.72389 0.41995
# Poissons Ratio (y) = 0.15421 0.17257
# Poissons Ratio (z) = 0.12441 0.23998
#
# Static dielectric constant tensor:
#      x y z
#    x 3.715670 0.000000 0.000000 
#    y 0.000000 3.874940 0.000000 
#    z 0.000000 0.000000 3.887170 
# 
# 
# High freq. dielectric constant tensor:
#      x y z
#    x 1.763170 0.000000 0.000000 
#    y 0.000000 1.800510 0.000000 
#    z 0.000000 0.000000 1.797180 
# 
# From -- ./inp_files/17350.got.cif
#   From: 2010.03.12/outbox.cif.g09.slc.cpg/sg64_9_cif.got.tgz:17350.got - 2010.04.10 20:19:32.
