data_PCOD8263496
_publ_section_title
;
Structure prediction by ZEFSAII (Michael W. Deem and Ramdas Pophale) SiO2 
 PCOD8263496
Probable space group: C M C A
;
_chemical_formula_sum "Si O2"
_cell_formula_units_Z 96
_cell_length_a 22.271771
_cell_length_b 24.303048
_cell_length_c 8.563474
_cell_angle_alpha 90.000000
_cell_angle_beta 90.000000
_cell_angle_gamma 90.000000
_cell_volume 4635.168011
_symmetry_space_group_name_H-M "C M C A"
_symmetry_group_IT_number 64
_symmetry_cell_setting 'orthorhombic'
loop_
_space_group_symop_operation_xyz
x,y,z
-x,1/2-y,1/2+z
x,-y,-z
-x,1/2+y,1/2-z
-x,-y,-z
x,1/2+y,1/2-z
-x,y,z
x,1/2-y,1/2+z
1/2+x,1/2+y,z
1/2-x,-y,1/2+z
1/2+x,1/2-y,-z
1/2-x,y,1/2-z
1/2-x,1/2-y,-z
1/2+x,y,1/2-z
1/2-x,1/2+y,z
1/2+x,-y,1/2+z
loop_
_atom_site_type_symbol
_atom_site_label
_atom_site_fract_x
_atom_site_fract_y
_atom_site_fract_z
Si Si1 0.679537 0.588069 0.773749
Si Si2 0.626885 0.372564 0.540718
Si Si3 0.809252 0.973658 0.667755
Si Si4 0.628400 0.320722 0.047522
Si Si5 0.000000 0.796102 0.147260
Si Si6 0.500000 0.177009 0.012265
Si Si7 0.320341 0.221999 0.227075
O O1 0.750000 0.597128 0.750000
O O2 0.641608 0.616136 0.637508
O O3 0.664843 0.522764 0.777213
O O4 0.657498 0.618342 0.931603
O O5 0.642194 0.425418 0.648798
O O6 0.556914 0.359823 0.557949
O O7 0.667244 0.320618 0.588357
O O8 0.750000 0.948477 0.750000
O O9 0.791350 0.000000 0.500000
O O10 0.556907 0.324194 0.064502
O O11 0.654431 0.281457 0.182540
O O12 0.644817 0.298042 0.879122
O O13 0.000000 0.806171 0.331806
O O14 0.000000 0.730780 0.120243
O O15 0.250000 0.227073 0.250000
#
# Coordination Sequence:
#
# PCOD8263496 Si02
#       7
#    16  16  16  16   8   8  16
#     4  10  20  39  62  89 124 161 204 263 316 377
#     4  11  22  39  60  93 123 165 211 256 314 376
#     4   9  20  38  64  91 126 162 209 257 323 380
#     4  12  23  39  60  89 123 164 212 255 317 381
#     4  12  24  42  63  86 125 173 215 254 312 374
#     4  12  24  42  64  87 128 171 218 266 307 381
#     4  12  24  38  60  91 125 159 202 266 325 383
#
# _framework density 20.711223
#
# number of rings (size 3 to 8) (size 9 to 14) (size 15 to 20)
#    0.000    1.000    3.333    4.500    0.000    2.667 
#    0.000    4.583    0.000    0.000    0.000    2.917 
#    0.000    0.000    0.000    0.000    0.000    0.000 
#
# Total GULP energy -595349.017028 kJ/mol
# GULP energy per Si atom -12403.104521 kJ/mol
# Density = 2.066408 g / cm^3
# Si number density = 20.711223 Si / 1000 Ang^3
#
#
#
# Elastic Constant Matrix: (Units=GPa)
#
#
# Indices 1 2 3 4 5 6 
#
# 1 131.9904 27.2893 5.1898 0.0000 0.0000 0.0000
# 2 27.2893 84.7175 4.2431 0.0000 0.0000 0.0000
# 3 5.1898 4.2431 49.6243 0.0000 0.0000 0.0000
# 4 0.0000 0.0000 0.0000 31.6462 0.0000 0.0000
# 5 0.0000 0.0000 0.0000 0.0000 32.2384 0.0000
# 6 0.0000 0.0000 0.0000 0.0000 0.0000 26.4899
#
#
#
# Elastic Compliance Matrix: (Units=1/GPa)
#
#
# Indices 1 2 3 4 5 6 
#
# 1 0.008136 -0.002589 -0.000630 0.000000 0.000000 0.000000
# 2 -0.002589 0.012679 -0.000813 0.000000 0.000000 0.000000
# 3 -0.000630 -0.000813 0.020287 0.000000 0.000000 0.000000
# 4 0.000000 0.000000 0.000000 0.031599 0.000000 0.000000
# 5 0.000000 0.000000 0.000000 0.000000 0.031019 0.000000
# 6 0.000000 0.000000 0.000000 0.000000 0.000000 0.037750
#
#
# Mechanical properties :
#
#
# Convention : Reuss Voigt Hill
#
# Bulk Modulus (GPa) = 30.26853 37.75295 34.01074
# Shear Modulus (GPa) = 31.14345 33.38223 32.26284
#
# Velocity S-wave (km/s) = 3.88196 4.01907 3.95111
# Velocity P-wave (km/s) = 5.89399 6.30913 6.10509
#
# Compressibility (1/GPa) = 0.03303761
#
# Stress axis : x y z
#
# Youngs Moduli (GPa) = 122.90409 78.87205 49.29311
#
# Poissons Ratio (x) = 0.20423 0.03103
# Poissons Ratio (y) = 0.31825 0.04009
# Poissons Ratio (z) = 0.07737 0.06415
#
# Static dielectric constant tensor:
#      x y z
#    x 3.775130 0.000000 0.000000 
#    y 0.000000 4.034610 0.000000 
#    z 0.000000 0.000000 3.900400 
# 
# 
# High freq. dielectric constant tensor:
#      x y z
#    x 1.805580 0.000000 0.000000 
#    y 0.000000 1.814610 0.000000 
#    z 0.000000 0.000000 1.814100 
# 
# From -- ./inp_files/9536.got.cif
#   From: 2010.03.12/outbox.cif.g09.slc.cpg/sg64_5_cif.got.tgz:9536.got - 2010.04.10 20:19:32.
