data_PCOD8263639
_publ_section_title
;
Structure prediction by ZEFSAII (Michael W. Deem and Ramdas Pophale) SiO2 
 PCOD8263639
Probable space group: C M C A
;
_chemical_formula_sum "Si O2"
_cell_formula_units_Z 88
_cell_length_a 20.362298
_cell_length_b 18.614468
_cell_length_c 11.932253
_cell_angle_alpha 90.000000
_cell_angle_beta 90.000000
_cell_angle_gamma 90.000000
_cell_volume 4522.721762
_symmetry_space_group_name_H-M "C M C A"
_symmetry_group_IT_number 64
_symmetry_cell_setting 'orthorhombic'
loop_
_space_group_symop_operation_xyz
x,y,z
-x,1/2-y,1/2+z
x,-y,-z
-x,1/2+y,1/2-z
-x,-y,-z
x,1/2+y,1/2-z
-x,y,z
x,1/2-y,1/2+z
1/2+x,1/2+y,z
1/2-x,-y,1/2+z
1/2+x,1/2-y,-z
1/2-x,y,1/2-z
1/2-x,1/2-y,-z
1/2+x,y,1/2-z
1/2-x,1/2+y,z
1/2+x,-y,1/2+z
loop_
_atom_site_type_symbol
_atom_site_label
_atom_site_fract_x
_atom_site_fract_y
_atom_site_fract_z
Si Si1 0.367070 0.926150 0.436199
Si Si2 0.301027 0.734487 0.154480
Si Si3 0.763383 0.135420 0.516503
Si Si4 0.349784 0.000000 0.000000
Si Si5 0.424089 0.646470 0.145911
Si Si6 0.924349 0.000360 0.729005
O O1 0.297005 0.890513 0.405266
O O2 0.411027 0.874463 0.515686
O O3 0.353669 0.000000 0.500000
O O4 0.402338 0.939330 0.318187
O O5 0.250000 0.756694 0.250000
O O6 0.307660 0.803962 0.075168
O O7 0.375445 0.710719 0.187979
O O8 0.269196 0.665808 0.095578
O O9 0.806953 0.069765 0.476478
O O10 0.391457 0.014689 0.889624
O O11 0.500000 0.671479 0.157360
O O12 0.408997 0.578948 0.225453
O O13 0.000000 0.011641 0.708390
#
# Coordination Sequence:
#
# PCOD8263639 Si02
#       6
#    16  16  16   8  16  16
#     4   9  17  34  58  88 111 140 190 243 292 338
#     4  10  21  38  59  82 119 157 193 246 292 349
#     4  10  22  37  56  88 115 148 198 239 299 345
#     4  12  23  36  56  86 121 154 192 236 300 370
#     4   9  18  36  61  86 113 152 199 242 290 345
#     4  10  21  35  56  84 120 154 187 239 295 352
#
# _framework density 19.457311000000001
#
# number of rings (size 3 to 8) (size 9 to 14) (size 15 to 20)
#    0.000    2.182    0.909    1.909    2.545    2.182 
#    0.000    1.818    0.000    6.545    0.000    0.000 
#    0.000    0.000    0.000    0.000    0.000    0.000 
#
# Total GULP energy -545496.015501 kJ/mol
# GULP energy per Si atom -12397.636716 kJ/mol
# Density = 1.941302 g / cm^3
# Si number density = 19.457311 Si / 1000 Ang^3
#
#
#
# Elastic Constant Matrix: (Units=GPa)
#
#
# Indices 1 2 3 4 5 6 
#
# 1 93.4995 25.7669 18.9366 0.0000 0.0000 0.0000
# 2 25.7669 58.2926 10.4255 0.0000 0.0000 0.0000
# 3 18.9366 10.4255 71.3167 0.0000 0.0000 0.0000
# 4 0.0000 0.0000 0.0000 14.5958 0.0000 0.0000
# 5 0.0000 0.0000 0.0000 0.0000 21.8881 0.0000
# 6 0.0000 0.0000 0.0000 0.0000 0.0000 22.1890
#
#
#
# Elastic Compliance Matrix: (Units=1/GPa)
#
#
# Indices 1 2 3 4 5 6 
#
# 1 0.012634 -0.005118 -0.002606 0.000000 0.000000 0.000000
# 2 -0.005118 0.019689 -0.001519 0.000000 0.000000 0.000000
# 3 -0.002606 -0.001519 0.014936 0.000000 0.000000 0.000000
# 4 0.000000 0.000000 0.000000 0.068513 0.000000 0.000000
# 5 0.000000 0.000000 0.000000 0.000000 0.045687 0.000000
# 6 0.000000 0.000000 0.000000 0.000000 0.000000 0.045067
#
#
# Mechanical properties :
#
#
# Convention : Reuss Voigt Hill
#
# Bulk Modulus (GPa) = 34.75723 37.04078 35.89900
# Shear Modulus (GPa) = 21.31252 22.93323 22.12287
#
# Velocity S-wave (km/s) = 3.31319 3.43686 3.37559
# Velocity P-wave (km/s) = 5.70425 5.90149 5.80371
#
# Compressibility (1/GPa) = 0.02877100
#
# Stress axis : x y z
#
# Youngs Moduli (GPa) = 79.15382 50.78992 66.95187
#
# Poissons Ratio (x) = 0.25996 0.17450
# Poissons Ratio (y) = 0.40513 0.10171
# Poissons Ratio (z) = 0.20630 0.07716
#
# Static dielectric constant tensor:
#      x y z
#    x 3.640950 0.000000 0.000000 
#    y 0.000000 3.486250 0.000000 
#    z 0.000000 0.000000 3.383320 
# 
# 
# High freq. dielectric constant tensor:
#      x y z
#    x 1.761360 0.000000 0.000000 
#    y 0.000000 1.749390 0.000000 
#    z 0.000000 0.000000 1.746050 
# 
# From -- ./inp_files/16060.got.cif
#   From: 2010.03.12/outbox.cif.g09.slc.cpg/sg64_9_cif.got.tgz:16060.got - 2010.04.10 20:19:32.
