data_PCOD8263518
_publ_section_title
;
Structure prediction by ZEFSAII (Michael W. Deem and Ramdas Pophale) SiO2 
 PCOD8263518
Probable space group: C M C A
;
_chemical_formula_sum "Si O2"
_cell_formula_units_Z 56
_cell_length_a 19.395398
_cell_length_b 13.226155
_cell_length_c 8.429958
_cell_angle_alpha 90.000000
_cell_angle_beta 90.000000
_cell_angle_gamma 90.000000
_cell_volume 2162.507960
_symmetry_space_group_name_H-M "C M C A"
_symmetry_group_IT_number 64
_symmetry_cell_setting 'orthorhombic'
loop_
_space_group_symop_operation_xyz
x,y,z
-x,1/2-y,1/2+z
x,-y,-z
-x,1/2+y,1/2-z
-x,-y,-z
x,1/2+y,1/2-z
-x,y,z
x,1/2-y,1/2+z
1/2+x,1/2+y,z
1/2-x,-y,1/2+z
1/2+x,1/2-y,-z
1/2-x,y,1/2-z
1/2-x,1/2-y,-z
1/2+x,y,1/2-z
1/2-x,1/2+y,z
1/2+x,-y,1/2+z
loop_
_atom_site_type_symbol
_atom_site_label
_atom_site_fract_x
_atom_site_fract_y
_atom_site_fract_z
Si Si1 0.000000 0.125081 0.578591
Si Si2 0.358322 0.839580 0.558486
Si Si3 0.750000 0.966082 0.750000
Si Si4 0.500000 0.152875 0.294701
Si Si5 0.140293 0.117648 0.688642
O O1 0.000000 0.228376 0.674804
O O2 0.932208 0.065139 0.637385
O O3 0.000000 0.137686 0.391750
O O4 0.429068 0.888810 0.628070
O O5 0.358093 0.855372 0.372464
O O6 0.350233 0.719991 0.587340
O O7 0.293375 0.897098 0.631144
O O8 0.800250 0.037986 0.646558
#
# Coordination Sequence:
#
# PCOD8263518 Si02
#       5
#     8  16   8   8  16
#     4  10  20  39  68  97 128 168 218 271 326 387
#     4  11  24  44  69  97 132 172 219 273 329 390
#     4  12  28  42  64  96 132 178 220 266 324 392
#     4  10  20  39  68  97 128 168 218 271 326 387
#     4  11  24  44  69  97 132 172 219 273 329 390
#
# _framework density 25.895858
#
# number of rings (size 3 to 8) (size 9 to 14) (size 15 to 20)
#    0.000    1.143    0.000    9.429    0.000   12.571 
#    0.000    4.286    0.000    0.000    0.000    0.000 
#    0.000    0.000    0.000    0.000    0.000    0.000 
#
# Total GULP energy -347199.761782 kJ/mol
# GULP energy per Si atom -12399.991492 kJ/mol
# Density = 2.583692 g / cm^3
# Si number density = 25.895858 Si / 1000 Ang^3
#
#
#
# Elastic Constant Matrix: (Units=GPa)
#
#
# Indices 1 2 3 4 5 6 
#
# 1 198.1227 44.1178 15.7329 0.0000 0.0000 0.0000
# 2 44.1178 75.4577 1.6164 0.0000 0.0000 0.0000
# 3 15.7329 1.6164 84.9993 0.0000 0.0000 0.0000
# 4 0.0000 0.0000 0.0000 16.8749 0.0000 0.0000
# 5 0.0000 0.0000 0.0000 0.0000 12.8605 0.0000
# 6 0.0000 0.0000 0.0000 0.0000 0.0000 181.4438
#
#
#
# Elastic Compliance Matrix: (Units=1/GPa)
#
#
# Indices 1 2 3 4 5 6 
#
# 1 0.005891 -0.003422 -0.001025 0.000000 0.000000 0.000000
# 2 -0.003422 0.015246 0.000344 0.000000 0.000000 0.000000
# 3 -0.001025 0.000344 0.011948 0.000000 0.000000 0.000000
# 4 0.000000 0.000000 0.000000 0.059260 0.000000 0.000000
# 5 0.000000 0.000000 0.000000 0.000000 0.077757 0.000000
# 6 0.000000 0.000000 0.000000 0.000000 0.000000 0.005511
#
#
# Mechanical properties :
#
#
# Convention : Reuss Voigt Hill
#
# Bulk Modulus (GPa) = 40.19799 53.50154 46.84977
# Shear Modulus (GPa) = 26.02631 62.04335 44.03483
#
# Velocity S-wave (km/s) = 3.17367 4.90008 4.12814
# Velocity P-wave (km/s) = 5.38389 7.26082 6.39163
#
# Compressibility (1/GPa) = 0.02487686
#
# Stress axis : x y z
#
# Youngs Moduli (GPa) = 169.75453 65.59103 83.69569
#
# Poissons Ratio (x) = 0.22447 0.08581
# Poissons Ratio (y) = 0.58094 -0.02875
# Poissons Ratio (z) = 0.17405 -0.02253
#
# Static dielectric constant tensor:
#      x y z
#    x 6.032610 0.000000 0.000000 
#    y 0.000000 5.327040 0.000000 
#    z 0.000000 0.000000 4.521150 
# 
# 
# High freq. dielectric constant tensor:
#      x y z
#    x 2.065660 0.000000 0.000000 
#    y 0.000000 2.034440 0.000000 
#    z 0.000000 0.000000 2.047320 
# 
# From -- ./inp_files/7676.got.cif
#   From: 2010.03.12/outbox.cif.g09.slc.cpg/sg64_4_cif.got.tgz:7676.got - 2010.04.10 20:19:32.
