data_PCOD8263682
_publ_section_title
;
Structure prediction by ZEFSAII (Michael W. Deem and Ramdas Pophale) SiO2 
 PCOD8263682
Probable space group: C M C A
;
_chemical_formula_sum "Si O2"
_cell_formula_units_Z 88
_cell_length_a 32.323680
_cell_length_b 5.128432
_cell_length_c 25.988342
_cell_angle_alpha 90.000000
_cell_angle_beta 90.000000
_cell_angle_gamma 90.000000
_cell_volume 4308.082122
_symmetry_space_group_name_H-M "C M C A"
_symmetry_group_IT_number 64
_symmetry_cell_setting 'orthorhombic'
loop_
_space_group_symop_operation_xyz
x,y,z
-x,1/2-y,1/2+z
x,-y,-z
-x,1/2+y,1/2-z
-x,-y,-z
x,1/2+y,1/2-z
-x,y,z
x,1/2-y,1/2+z
1/2+x,1/2+y,z
1/2-x,-y,1/2+z
1/2+x,1/2-y,-z
1/2-x,y,1/2-z
1/2-x,1/2-y,-z
1/2+x,y,1/2-z
1/2-x,1/2+y,z
1/2+x,-y,1/2+z
loop_
_atom_site_type_symbol
_atom_site_label
_atom_site_fract_x
_atom_site_fract_y
_atom_site_fract_z
Si Si1 0.590240 0.500000 0.500000
Si Si2 0.842865 0.637104 0.283541
Si Si3 0.048657 0.566052 0.100346
Si Si4 0.344362 0.864131 0.551084
Si Si5 0.093804 0.046520 0.132298
Si Si6 0.222746 0.697833 0.370246
O O1 0.560949 0.647515 0.458603
O O2 0.620214 0.331266 0.465307
O O3 0.841073 0.343036 0.262568
O O4 0.885838 0.649193 0.314946
O O5 0.804024 0.713607 0.318758
O O6 0.064287 0.276305 0.112552
O O7 0.000000 0.569423 0.106671
O O8 0.067297 0.782560 0.139356
O O9 0.368741 0.039845 0.593162
O O10 0.304969 0.739421 0.579366
O O11 0.327032 0.000000 0.500000
O O12 0.240939 0.407425 0.371465
#
# Coordination Sequence:
#
# PCOD8263682 Si02
#       6
#     8  16  16  16  16  16
#     4  10  21  36  58  88 120 168 216 246 272 358
#     4  11  23  42  70  90 112 156 204 251 306 361
#     4  11  21  36  60  90 127 160 195 249 304 343
#     4  10  21  38  60  81 122 167 204 238 290 346
#     4  10  22  39  60  90 122 156 203 247 292 367
#     4  11  26  41  59  91 125 153 198 252 303 359
#
# _framework density 20.426722000000002
#
# number of rings (size 3 to 8) (size 9 to 14) (size 15 to 20)
#    0.000    1.455    1.818    3.000    2.545    5.818 
#    0.000    2.727    0.000   10.909    0.000    0.000 
#    0.000    0.000    0.000    0.000    0.000    0.000 
#
# Total GULP energy -545351.525659 kJ/mol
# GULP energy per Si atom -12394.352856 kJ/mol
# Density = 2.038023 g / cm^3
# Si number density = 20.426722 Si / 1000 Ang^3
#
#
#
# Elastic Constant Matrix: (Units=GPa)
#
#
# Indices 1 2 3 4 5 6 
#
# 1 85.3590 4.0902 17.1581 0.0000 0.0000 0.0000
# 2 4.0902 69.8747 -3.3726 0.0000 0.0000 0.0000
# 3 17.1581 -3.3726 63.9794 0.0000 0.0000 0.0000
# 4 0.0000 0.0000 0.0000 28.0148 0.0000 0.0000
# 5 0.0000 0.0000 0.0000 0.0000 45.6545 0.0000
# 6 0.0000 0.0000 0.0000 0.0000 0.0000 85.7048
#
#
#
# Elastic Compliance Matrix: (Units=1/GPa)
#
#
# Indices 1 2 3 4 5 6 
#
# 1 0.012438 -0.000891 -0.003383 0.000000 0.000000 0.000000
# 2 -0.000891 0.014412 0.000999 0.000000 0.000000 0.000000
# 3 -0.003383 0.000999 0.016590 0.000000 0.000000 0.000000
# 4 0.000000 0.000000 0.000000 0.035695 0.000000 0.000000
# 5 0.000000 0.000000 0.000000 0.000000 0.021904 0.000000
# 6 0.000000 0.000000 0.000000 0.000000 0.000000 0.011668
#
#
# Mechanical properties :
#
#
# Convention : Reuss Voigt Hill
#
# Bulk Modulus (GPa) = 27.10831 28.32937 27.71884
# Shear Modulus (GPa) = 38.00744 45.29731 41.65238
#
# Velocity S-wave (km/s) = 4.31823 4.71420 4.52055
# Velocity P-wave (km/s) = 6.17759 6.59776 6.39113
#
# Compressibility (1/GPa) = 0.03688905
#
# Stress axis : x y z
#
# Youngs Moduli (GPa) = 80.39953 69.38797 60.27786
#
# Poissons Ratio (x) = 0.06185 0.20390
# Poissons Ratio (y) = 0.07166 -0.06020
# Poissons Ratio (z) = 0.27196 -0.06930
#
# Static dielectric constant tensor:
#      x y z
#    x 3.700790 0.000000 0.000000 
#    y 0.000000 3.151250 0.000000 
#    z 0.000000 0.000000 3.933250 
# 
# 
# High freq. dielectric constant tensor:
#      x y z
#    x 1.802410 0.000000 0.000000 
#    y 0.000000 1.791980 0.000000 
#    z 0.000000 0.000000 1.797350 
# 
# From -- ./inp_files/47072.got.cif
#   From: 2010.03.12/outbox.cif.g09.slc.cpg/sg64_24_cif.got.tgz:47072.got - 2010.04.10 20:19:32.
