data_PCOD8263489
_publ_section_title
;
Structure prediction by ZEFSAII (Michael W. Deem and Ramdas Pophale) SiO2 
 PCOD8263489
Probable space group: C M C A
;
_chemical_formula_sum "Si O2"
_cell_formula_units_Z 96
_cell_length_a 8.799306
_cell_length_b 25.083301
_cell_length_c 23.266468
_cell_angle_alpha 90.000000
_cell_angle_beta 90.000000
_cell_angle_gamma 90.000000
_cell_volume 5135.273398
_symmetry_space_group_name_H-M "C M C A"
_symmetry_group_IT_number 64
_symmetry_cell_setting 'orthorhombic'
loop_
_space_group_symop_operation_xyz
x,y,z
-x,1/2-y,1/2+z
x,-y,-z
-x,1/2+y,1/2-z
-x,-y,-z
x,1/2+y,1/2-z
-x,y,z
x,1/2-y,1/2+z
1/2+x,1/2+y,z
1/2-x,-y,1/2+z
1/2+x,1/2-y,-z
1/2-x,y,1/2-z
1/2-x,1/2-y,-z
1/2+x,y,1/2-z
1/2-x,1/2+y,z
1/2+x,-y,1/2+z
loop_
_atom_site_type_symbol
_atom_site_label
_atom_site_fract_x
_atom_site_fract_y
_atom_site_fract_z
Si Si1 0.676758 0.895865 0.873323
Si Si2 0.177574 0.997182 0.310723
Si Si3 0.822021 0.938772 0.501820
Si Si4 0.679558 0.801305 0.689126
Si Si5 0.820876 0.189563 0.810341
Si Si6 0.322623 0.909294 0.388599
O O1 0.500000 0.880795 0.869119
O O2 0.717764 0.942700 0.828736
O O3 0.720797 0.914096 0.937019
O O4 0.777672 0.844781 0.858479
O O5 0.250000 0.982876 0.250000
O O6 0.000000 0.988443 0.305428
O O7 0.236801 0.958073 0.359441
O O8 0.731184 0.905052 0.454339
O O9 0.000000 0.934650 0.488657
O O10 0.768477 0.000000 0.500000
O O11 0.500000 0.796827 0.695460
O O12 0.750000 0.818781 0.750000
O O13 0.746833 0.744803 0.669081
O O14 0.750000 0.170653 0.750000
O O15 0.780285 0.145944 0.857931
O O16 0.000000 0.197498 0.802312
O O17 0.500000 0.920864 0.384906
#
# Coordination Sequence:
#
# PCOD8263489 Si02
#       6
#    16  16  16  16  16  16
#     4  10  21  38  59  83 114 150 190 234 283 339
#     4  11  22  36  55  82 116 150 187 232 286 344
#     4  10  20  39  61  83 112 154 196 233 285 340
#     4  11  22  37  60  87 115 149 190 234 287 341
#     4  10  21  38  59  84 115 150 190 233 286 341
#     4  11  23  37  57  86 116 150 191 237 285 338
#
# _framework density 18.694232
#
# number of rings (size 3 to 8) (size 9 to 14) (size 15 to 20)
#    0.000    1.500    1.667    5.000    0.000    7.667 
#    0.000    0.833    0.000    0.000    0.000    0.000 
#    0.000    0.000    0.000    0.000    0.000    0.000 
#
# Total GULP energy -595470.123312 kJ/mol
# GULP energy per Si atom -12405.627569 kJ/mol
# Density = 1.865168 g / cm^3
# Si number density = 18.694232 Si / 1000 Ang^3
#
#
#
# Elastic Constant Matrix: (Units=GPa)
#
#
# Indices 1 2 3 4 5 6 
#
# 1 98.9618 60.6105 43.1706 0.0000 0.0000 0.0000
# 2 60.6105 100.5702 49.7596 0.0000 0.0000 0.0000
# 3 43.1706 49.7596 99.1933 0.0000 0.0000 0.0000
# 4 0.0000 0.0000 0.0000 30.1374 0.0000 0.0000
# 5 0.0000 0.0000 0.0000 0.0000 34.7100 0.0000
# 6 0.0000 0.0000 0.0000 0.0000 0.0000 32.5541
#
#
#
# Elastic Compliance Matrix: (Units=1/GPa)
#
#
# Indices 1 2 3 4 5 6 
#
# 1 0.016638 -0.008572 -0.002941 0.000000 0.000000 0.000000
# 2 -0.008572 0.017642 -0.005119 0.000000 0.000000 0.000000
# 3 -0.002941 -0.005119 0.013929 0.000000 0.000000 0.000000
# 4 0.000000 0.000000 0.000000 0.033181 0.000000 0.000000
# 5 0.000000 0.000000 0.000000 0.000000 0.028810 0.000000
# 6 0.000000 0.000000 0.000000 0.000000 0.000000 0.030718
#
#
# Mechanical properties :
#
#
# Convention : Reuss Voigt Hill
#
# Bulk Modulus (GPa) = 66.91322 67.31185 67.11254
# Shear Modulus (GPa) = 27.90710 29.15930 28.53320
#
# Velocity S-wave (km/s) = 3.86789 3.95372 3.91104
# Velocity P-wave (km/s) = 7.47119 7.54503 7.50820
#
# Compressibility (1/GPa) = 0.01494473
#
# Stress axis : x y z
#
# Youngs Moduli (GPa) = 60.10368 56.68168 71.79030
#
# Poissons Ratio (x) = 0.48588 0.21114
# Poissons Ratio (y) = 0.51521 0.36753
# Poissons Ratio (z) = 0.17677 0.29018
#
# Static dielectric constant tensor:
#      x y z
#    x 3.451110 0.000000 0.000000 
#    y 0.000000 3.445890 0.000000 
#    z 0.000000 0.000000 3.458520 
# 
# 
# High freq. dielectric constant tensor:
#      x y z
#    x 1.734090 0.000000 0.000000 
#    y 0.000000 1.726890 0.000000 
#    z 0.000000 0.000000 1.726290 
# 
# From -- ./inp_files/42976.got.cif
#   From: 2010.03.12/outbox.cif.g09.slc.cpg/sg64_22_cif.got.tgz:42976.got - 2010.04.10 20:19:32.
