data_PCOD8263550
_publ_section_title
;
Structure prediction by ZEFSAII (Michael W. Deem and Ramdas Pophale) SiO2 
 PCOD8263550
Probable space group: C M C A
;
_chemical_formula_sum "Si O2"
_cell_formula_units_Z 96
_cell_length_a 15.098381
_cell_length_b 18.814928
_cell_length_c 15.962183
_cell_angle_alpha 90.000000
_cell_angle_beta 90.000000
_cell_angle_gamma 90.000000
_cell_volume 4534.456360
_symmetry_space_group_name_H-M "C M C A"
_symmetry_group_IT_number 64
_symmetry_cell_setting 'orthorhombic'
loop_
_space_group_symop_operation_xyz
x,y,z
-x,1/2-y,1/2+z
x,-y,-z
-x,1/2+y,1/2-z
-x,-y,-z
x,1/2+y,1/2-z
-x,y,z
x,1/2-y,1/2+z
1/2+x,1/2+y,z
1/2-x,-y,1/2+z
1/2+x,1/2-y,-z
1/2-x,y,1/2-z
1/2-x,1/2-y,-z
1/2+x,y,1/2-z
1/2-x,1/2+y,z
1/2+x,-y,1/2+z
loop_
_atom_site_type_symbol
_atom_site_label
_atom_site_fract_x
_atom_site_fract_y
_atom_site_fract_z
Si Si1 0.851900 0.712357 0.725446
Si Si2 0.599835 0.876448 0.129463
Si Si3 0.772187 0.917836 0.507300
Si Si4 0.099685 0.492719 0.251774
Si Si5 0.670270 0.132691 0.187620
Si Si6 0.397004 0.908540 0.404038
O O1 0.750000 0.704058 0.750000
O O2 0.903348 0.693733 0.811682
O O3 0.877131 0.790887 0.691849
O O4 0.882501 0.661815 0.650461
O O5 0.500000 0.892068 0.096666
O O6 0.644650 0.940931 0.183512
O O7 0.665578 0.868675 0.051345
O O8 0.790017 0.886547 0.598176
O O9 0.668062 0.908284 0.484176
O O10 0.801678 0.000000 0.500000
O O11 0.103212 0.573592 0.222487
O O12 0.134004 0.476660 0.346408
O O13 0.000000 0.464749 0.253692
O O14 0.750000 0.133013 0.250000
O O15 0.500000 0.913739 0.434160
#
# Coordination Sequence:
#
# PCOD8263550 Si02
#       6
#    16  16  16  16  16  16
#     4  10  20  40  65  89 126 172 213 260 322 394
#     4  10  21  39  64  96 126 164 214 264 322 388
#     4  12  23  39  69  99 129 170 214 276 329 373
#     4   9  19  36  61  91 127 164 209 265 322 386
#     4  11  24  39  61  95 129 168 218 267 322 390
#     4  10  22  41  67  95 127 172 219 259 318 395
#
# _framework density 21.171226999999998
#
# number of rings (size 3 to 8) (size 9 to 14) (size 15 to 20)
#    0.000    1.667    3.333    2.500    0.000    3.333 
#    0.000    0.833    0.000    1.000    0.000    0.000 
#    0.000    0.000    0.000    0.000    0.000    0.000 
#
# Total GULP energy -594879.661152 kJ/mol
# GULP energy per Si atom -12393.326274 kJ/mol
# Density = 2.112304 g / cm^3
# Si number density = 21.171227 Si / 1000 Ang^3
#
#
#
# Elastic Constant Matrix: (Units=GPa)
#
#
# Indices 1 2 3 4 5 6 
#
# 1 76.9607 34.6714 6.8233 0.0000 0.0000 0.0000
# 2 34.6714 126.1458 80.8360 0.0000 0.0000 0.0000
# 3 6.8233 80.8360 86.2462 0.0000 0.0000 0.0000
# 4 0.0000 0.0000 0.0000 28.0172 0.0000 0.0000
# 5 0.0000 0.0000 0.0000 0.0000 18.6892 0.0000
# 6 0.0000 0.0000 0.0000 0.0000 0.0000 22.7411
#
#
#
# Elastic Compliance Matrix: (Units=1/GPa)
#
#
# Indices 1 2 3 4 5 6 
#
# 1 0.016515 -0.009269 0.007381 0.000000 0.000000 0.000000
# 2 -0.009269 0.025051 -0.022746 0.000000 0.000000 0.000000
# 3 0.007381 -0.022746 0.032330 0.000000 0.000000 0.000000
# 4 0.000000 0.000000 0.000000 0.035692 0.000000 0.000000
# 5 0.000000 0.000000 0.000000 0.000000 0.053507 0.000000
# 6 0.000000 0.000000 0.000000 0.000000 0.000000 0.043973
#
#
# Mechanical properties :
#
#
# Convention : Reuss Voigt Hill
#
# Bulk Modulus (GPa) = 40.60474 59.33491 49.96983
# Shear Modulus (GPa) = 18.90022 25.02429 21.96225
#
# Velocity S-wave (km/s) = 2.99110 3.44175 3.22431
# Velocity P-wave (km/s) = 5.58120 6.62429 6.12499
#
# Compressibility (1/GPa) = 0.02462767
#
# Stress axis : x y z
#
# Youngs Moduli (GPa) = 60.55085 39.91826 30.93072
#
# Poissons Ratio (x) = 0.37001 -0.22830
# Poissons Ratio (y) = 0.56125 0.70356
# Poissons Ratio (z) = -0.44693 0.90800
#
# Static dielectric constant tensor:
#      x y z
#    x 4.010790 0.000000 0.000000 
#    y 0.000000 6.806620 0.000000 
#    z 0.000000 0.000000 3.919330 
# 
# 
# High freq. dielectric constant tensor:
#      x y z
#    x 1.829460 0.000000 0.000000 
#    y 0.000000 1.819710 0.000000 
#    z 0.000000 0.000000 1.824830 
# 
# From -- ./inp_files/23951.got.cif
#   From: 2010.03.12/outbox.cif.g09.slc.cpg/sg64_12_cif.got.tgz:23951.got - 2010.04.10 20:19:32.
