data_PCOD8263730
_publ_section_title
;
Structure prediction by ZEFSAII (Michael W. Deem and Ramdas Pophale) SiO2 
 PCOD8263730
Probable space group: C M C A
;
_chemical_formula_sum "Si O2"
_cell_formula_units_Z 80
_cell_length_a 8.355526
_cell_length_b 19.204128
_cell_length_c 25.617066
_cell_angle_alpha 90.000000
_cell_angle_beta 90.000000
_cell_angle_gamma 90.000000
_cell_volume 4110.529545
_symmetry_space_group_name_H-M "C M C A"
_symmetry_group_IT_number 64
_symmetry_cell_setting 'orthorhombic'
loop_
_space_group_symop_operation_xyz
x,y,z
-x,1/2-y,1/2+z
x,-y,-z
-x,1/2+y,1/2-z
-x,-y,-z
x,1/2+y,1/2-z
-x,y,z
x,1/2-y,1/2+z
1/2+x,1/2+y,z
1/2-x,-y,1/2+z
1/2+x,1/2-y,-z
1/2-x,y,1/2-z
1/2-x,1/2-y,-z
1/2+x,y,1/2-z
1/2-x,1/2+y,z
1/2+x,-y,1/2+z
loop_
_atom_site_type_symbol
_atom_site_label
_atom_site_fract_x
_atom_site_fract_y
_atom_site_fract_z
Si Si1 0.314185 0.527434 0.889544
Si Si2 0.814726 0.231804 0.887440
Si Si3 0.313459 0.126680 0.807583
Si Si4 0.814049 0.867510 0.470474
Si Si5 0.184747 0.126108 0.084369
O O1 0.500000 0.537411 0.903706
O O2 0.276708 0.560856 0.833324
O O3 0.209449 0.565792 0.933461
O O4 0.267463 0.446414 0.888217
O O5 0.718615 0.197049 0.840001
O O6 0.752202 0.201711 0.942467
O O7 0.788781 0.314487 0.887572
O O8 0.000000 0.213544 0.880316
O O9 0.500000 0.110379 0.807039
O O10 0.250000 0.138627 0.750000
O O11 0.717853 0.879690 0.523164
O O12 0.000000 0.857332 0.483383
O O13 0.000000 0.143978 0.093210
#
# Coordination Sequence:
#
# PCOD8263730 Si02
#       5
#    16  16  16  16  16
#     4  10  21  37  57  82 112 146 185 227 272 324
#     4  11  22  37  57  82 112 145 186 229 273 325
#     4  11  22  40  64  85 108 139 180 226 274 329
#     4  11  21  34  54  80 113 152 191 226 267 323
#     4  11  22  36  54  80 116 151 184 226 275 323
#
# _framework density 19.462213999999999
#
# number of rings (size 3 to 8) (size 9 to 14) (size 15 to 20)
#    0.000    1.200    0.000   10.200    0.000    5.600 
#    0.000    1.000    0.000    4.800    0.000    0.000 
#    0.000    0.000    0.000    0.000    0.000    0.000 
#
# Total GULP energy -496252.003013 kJ/mol
# GULP energy per Si atom -12406.300075 kJ/mol
# Density = 1.941792 g / cm^3
# Si number density = 19.462214 Si / 1000 Ang^3
#
#
#
# Elastic Constant Matrix: (Units=GPa)
#
#
# Indices 1 2 3 4 5 6 
#
# 1 63.1609 27.1769 0.3938 0.0000 0.0000 0.0000
# 2 27.1769 128.3966 31.9385 0.0000 0.0000 0.0000
# 3 0.3938 31.9385 96.4310 0.0000 0.0000 0.0000
# 4 0.0000 0.0000 0.0000 -7.5688 0.0000 0.0000
# 5 0.0000 0.0000 0.0000 0.0000 31.2215 0.0000
# 6 0.0000 0.0000 0.0000 0.0000 0.0000 31.4911
#
#
#
# Elastic Compliance Matrix: (Units=1/GPa)
#
#
# Indices 1 2 3 4 5 6 
#
# 1 0.017559 -0.004031 0.001263 0.000000 0.000000 0.000000
# 2 -0.004031 0.009413 -0.003101 0.000000 0.000000 0.000000
# 3 0.001263 -0.003101 0.011392 0.000000 0.000000 0.000000
# 4 0.000000 0.000000 0.000000 -0.132121 0.000000 0.000000
# 5 0.000000 0.000000 0.000000 0.000000 0.032029 0.000000
# 6 0.000000 0.000000 0.000000 0.000000 0.000000 0.031755
#
#
# Mechanical properties :
#
#
# Convention : Reuss Voigt Hill
#
# Bulk Modulus (GPa) = 37.55622 45.22300 41.38961
# Shear Modulus (GPa) = -534.19850 26.26070 -253.96890
#
# Velocity S-wave (km/s) = -16.58541 3.67729 -11.43576
# Velocity P-wave (km/s) = 18.63944 6.42781 12.37158
#
# Compressibility (1/GPa) = 0.02662675
#
# Stress axis : x y z
#
# Youngs Moduli (GPa) = 56.95044 106.23632 87.78034
#
# Poissons Ratio (x) = 0.42823 -0.11090
# Poissons Ratio (y) = 0.22956 0.27222
# Poissons Ratio (z) = -0.07195 0.32946
#
# Static dielectric constant tensor:
#      x y z
#    x 3.688100 0.000000 0.000000 
#    y 0.000000 3.626960 0.000000 
#    z 0.000000 0.000000 3.788170 
# 
# 
# High freq. dielectric constant tensor:
#      x y z
#    x 1.775030 0.000000 0.000000 
#    y 0.000000 1.763030 0.000000 
#    z 0.000000 0.000000 1.737520 
# 
# From -- ./inp_files/47889.got.cif
#   From: 2010.03.12/outbox.cif.g09.slc.cpg/sg64_24_cif.got.tgz:47889.got - 2010.04.10 20:19:32.
