data_PCOD8263449
_publ_section_title
;
Structure prediction by ZEFSAII (Michael W. Deem and Ramdas Pophale) SiO2 
 PCOD8263449
Probable space group: C M C A
;
_chemical_formula_sum "Si O2"
_cell_formula_units_Z 80
_cell_length_a 8.707571
_cell_length_b 24.738089
_cell_length_c 18.577459
_cell_angle_alpha 90.000000
_cell_angle_beta 90.000000
_cell_angle_gamma 90.000000
_cell_volume 4001.745668
_symmetry_space_group_name_H-M "C M C A"
_symmetry_group_IT_number 64
_symmetry_cell_setting 'orthorhombic'
loop_
_space_group_symop_operation_xyz
x,y,z
-x,1/2-y,1/2+z
x,-y,-z
-x,1/2+y,1/2-z
-x,-y,-z
x,1/2+y,1/2-z
-x,y,z
x,1/2-y,1/2+z
1/2+x,1/2+y,z
1/2-x,-y,1/2+z
1/2+x,1/2-y,-z
1/2-x,y,1/2-z
1/2-x,1/2-y,-z
1/2+x,y,1/2-z
1/2-x,1/2+y,z
1/2+x,-y,1/2+z
loop_
_atom_site_type_symbol
_atom_site_label
_atom_site_fract_x
_atom_site_fract_y
_atom_site_fract_z
Si Si1 0.676724 0.593852 0.099245
Si Si2 0.181684 0.984319 0.172179
Si Si3 0.176509 0.391598 0.435284
Si Si4 0.680471 0.306205 0.672743
Si Si5 0.680280 0.276717 0.429348
O O1 0.500000 0.606280 0.119869
O O2 0.740190 0.541424 0.140932
O O3 0.780981 0.644597 0.119728
O O4 0.692998 0.583168 0.014508
O O5 0.250000 0.973628 0.250000
O O6 0.237398 0.936402 0.120194
O O7 0.000000 0.985064 0.176429
O O8 0.282747 0.339699 0.425610
O O9 0.000000 0.375327 0.420128
O O10 0.500000 0.299047 0.679035
O O11 0.750000 0.319340 0.750000
O O12 0.751611 0.251186 0.641726
O O13 0.500000 0.267211 0.431423
O O14 0.750000 0.250000 0.500000
#
# Coordination Sequence:
#
# PCOD8263449 Si02
#       5
#    16  16  16  16  16
#     4  10  20  38  64  91 122 161 208 259 310 367
#     4  10  22  39  60  89 124 166 207 253 311 371
#     4  10  21  39  64  90 122 163 211 257 308 370
#     4  12  25  41  63  93 127 164 207 257 314 371
#     4  12  24  41  64  92 125 163 206 255 311 370
#
# _framework density 19.991275000000002
#
# number of rings (size 3 to 8) (size 9 to 14) (size 15 to 20)
#    0.000    1.200    2.000    4.800    0.000    6.400 
#    0.000    2.000    0.000    3.600    0.000    0.000 
#    0.000    0.000    0.000    0.000    0.000    0.000 
#
# Total GULP energy -496271.547813 kJ/mol
# GULP energy per Si atom -12406.788695 kJ/mol
# Density = 1.994577 g / cm^3
# Si number density = 19.991275 Si / 1000 Ang^3
#
#
#
# Elastic Constant Matrix: (Units=GPa)
#
#
# Indices 1 2 3 4 5 6 
#
# 1 111.0530 35.9277 34.0232 0.0000 0.0000 0.0000
# 2 35.9277 101.0398 42.6918 0.0000 0.0000 0.0000
# 3 34.0232 42.6918 119.1482 0.0000 0.0000 0.0000
# 4 0.0000 0.0000 0.0000 41.1429 0.0000 0.0000
# 5 0.0000 0.0000 0.0000 0.0000 33.0037 0.0000
# 6 0.0000 0.0000 0.0000 0.0000 0.0000 30.8305
#
#
#
# Elastic Compliance Matrix: (Units=1/GPa)
#
#
# Indices 1 2 3 4 5 6 
#
# 1 0.010552 -0.002921 -0.001967 0.000000 0.000000 0.000000
# 2 -0.002921 0.012471 -0.003634 0.000000 0.000000 0.000000
# 3 -0.001967 -0.003634 0.010257 0.000000 0.000000 0.000000
# 4 0.000000 0.000000 0.000000 0.024306 0.000000 0.000000
# 5 0.000000 0.000000 0.000000 0.000000 0.030300 0.000000
# 6 0.000000 0.000000 0.000000 0.000000 0.000000 0.032435
#
#
# Mechanical properties :
#
#
# Convention : Reuss Voigt Hill
#
# Bulk Modulus (GPa) = 61.59164 61.83626 61.71395
# Shear Modulus (GPa) = 35.01952 35.56865 35.29408
#
# Velocity S-wave (km/s) = 4.18992 4.22264 4.20631
# Velocity P-wave (km/s) = 7.36773 7.40088 7.38432
#
# Compressibility (1/GPa) = 0.01623597
#
# Stress axis : x y z
#
# Youngs Moduli (GPa) = 94.76631 80.18294 97.49719
#
# Poissons Ratio (x) = 0.23424 0.19173
# Poissons Ratio (y) = 0.27684 0.35435
# Poissons Ratio (z) = 0.18636 0.29142
#
# Static dielectric constant tensor:
#      x y z
#    x 3.568840 0.000000 0.000000 
#    y 0.000000 3.777700 0.000000 
#    z 0.000000 0.000000 3.388770 
# 
# 
# High freq. dielectric constant tensor:
#      x y z
#    x 1.774320 0.000000 0.000000 
#    y 0.000000 1.789280 0.000000 
#    z 0.000000 0.000000 1.790030 
# 
# From -- ./inp_files/29725.got.cif
#   From: 2010.03.12/outbox.cif.g09.slc.cpg/sg64_15_cif.got.tgz:29725.got - 2010.04.10 20:19:32.
