data_PCOD8263163
_publ_section_title
;
Structure prediction by ZEFSAII (Michael W. Deem and Ramdas Pophale) SiO2 
 PCOD8263163
Probable space group: C M C A
;
_chemical_formula_sum "Si O2"
_cell_formula_units_Z 96
_cell_length_a 8.942885
_cell_length_b 20.568371
_cell_length_c 26.645916
_cell_angle_alpha 90.000000
_cell_angle_beta 90.000000
_cell_angle_gamma 90.000000
_cell_volume 4901.265150
_symmetry_space_group_name_H-M "C M C A"
_symmetry_group_IT_number 64
_symmetry_cell_setting 'orthorhombic'
loop_
_space_group_symop_operation_xyz
x,y,z
-x,1/2-y,1/2+z
x,-y,-z
-x,1/2+y,1/2-z
-x,-y,-z
x,1/2+y,1/2-z
-x,y,z
x,1/2-y,1/2+z
1/2+x,1/2+y,z
1/2-x,-y,1/2+z
1/2+x,1/2-y,-z
1/2-x,y,1/2-z
1/2-x,1/2-y,-z
1/2+x,y,1/2-z
1/2-x,1/2+y,z
1/2+x,-y,1/2+z
loop_
_atom_site_type_symbol
_atom_site_label
_atom_site_fract_x
_atom_site_fract_y
_atom_site_fract_z
Si Si1 0.326776 0.696930 0.366602
Si Si2 0.177130 0.309913 0.527780
Si Si3 0.822801 0.950712 0.142056
Si Si4 0.322482 0.937512 0.471455
Si Si5 0.324379 0.320487 0.197139
Si Si6 0.173974 0.069359 0.303616
O O1 0.500000 0.699480 0.382975
O O2 0.225261 0.685607 0.414756
O O3 0.276026 0.764453 0.341536
O O4 0.296435 0.639622 0.327303
O O5 0.250000 0.250000 0.500000
O O6 0.237128 0.373773 0.499474
O O7 0.000000 0.303764 0.524518
O O8 0.766868 0.936938 0.085751
O O9 0.771645 0.889926 0.175905
O O10 0.000000 0.961021 0.144281
O O11 0.743294 0.015411 0.160443
O O12 0.500000 0.939242 0.473233
O O13 0.255282 0.000000 0.500000
O O14 0.500000 0.318814 0.205354
O O15 0.250000 0.306536 0.250000
O O16 0.250000 0.066329 0.250000
O O17 0.000000 0.054709 0.296760
#
# Coordination Sequence:
#
# PCOD8263163 Si02
#       6
#    16  16  16  16  16  16
#     4  10  22  40  59  82 113 147 186 232 280 330
#     4  11  22  37  60  87 115 148 186 229 278 333
#     4  10  20  36  58  82 111 146 185 229 275 327
#     4   9  18  34  57  83 110 145 188 228 269 324
#     4  10  21  37  57  80 109 146 187 233 280 329
#     4  11  23  38  58  84 115 149 186 232 282 334
#
# _framework density 19.586779
#
# number of rings (size 3 to 8) (size 9 to 14) (size 15 to 20)
#    0.000    1.833    0.000    4.000    0.000    8.000 
#    0.000    3.333    0.000    4.500    0.000    0.000 
#    0.000    0.000    0.000    0.000    0.000    0.000 
#
# Total GULP energy -595418.707344 kJ/mol
# GULP energy per Si atom -12404.556403 kJ/mol
# Density = 1.954220 g / cm^3
# Si number density = 19.586779 Si / 1000 Ang^3
#
#
#
# Elastic Constant Matrix: (Units=GPa)
#
#
# Indices 1 2 3 4 5 6 
#
# 1 51.6676 31.7455 34.3145 0.0000 0.0000 0.0000
# 2 31.7455 112.9745 23.2996 0.0000 0.0000 0.0000
# 3 34.3145 23.2996 113.3606 0.0000 0.0000 0.0000
# 4 0.0000 0.0000 0.0000 36.9248 0.0000 0.0000
# 5 0.0000 0.0000 0.0000 0.0000 33.8902 0.0000
# 6 0.0000 0.0000 0.0000 0.0000 0.0000 29.5527
#
#
#
# Elastic Compliance Matrix: (Units=1/GPa)
#
#
# Indices 1 2 3 4 5 6 
#
# 1 0.028055 -0.006403 -0.007176 0.000000 0.000000 0.000000
# 2 -0.006403 0.010705 -0.000262 0.000000 0.000000 0.000000
# 3 -0.007176 -0.000262 0.011047 0.000000 0.000000 0.000000
# 4 0.000000 0.000000 0.000000 0.027082 0.000000 0.000000
# 5 0.000000 0.000000 0.000000 0.000000 0.029507 0.000000
# 6 0.000000 0.000000 0.000000 0.000000 0.000000 0.033838
#
#
# Mechanical properties :
#
#
# Convention : Reuss Voigt Hill
#
# Bulk Modulus (GPa) = 45.19904 50.74688 47.97296
# Shear Modulus (GPa) = 28.52389 32.64975 30.58682
#
# Velocity S-wave (km/s) = 3.82027 4.08723 3.95600
# Velocity P-wave (km/s) = 6.52577 6.94543 6.73886
#
# Compressibility (1/GPa) = 0.02212436
#
# Stress axis : x y z
#
# Youngs Moduli (GPa) = 35.64454 93.41517 90.51845
#
# Poissons Ratio (x) = 0.59817 0.64957
# Poissons Ratio (y) = 0.22824 0.02371
# Poissons Ratio (z) = 0.25579 0.02447
#
# Static dielectric constant tensor:
#      x y z
#    x 3.541740 0.000000 0.000000 
#    y 0.000000 3.896100 0.000000 
#    z 0.000000 0.000000 3.603280 
# 
# 
# High freq. dielectric constant tensor:
#      x y z
#    x 1.742690 0.000000 0.000000 
#    y 0.000000 1.784140 0.000000 
#    z 0.000000 0.000000 1.780090 
# 
# From -- ./inp_files/48090.got.cif
#   From: 2010.03.12/outbox.cif.g09.slc.cpg/sg64_25_cif.got.tgz:48090.got - 2010.04.10 20:19:32.
