data_PCOD8263471
_publ_section_title
;
Structure prediction by ZEFSAII (Michael W. Deem and Ramdas Pophale) SiO2 
 PCOD8263471
Probable space group: C M C A
;
_chemical_formula_sum "Si O2"
_cell_formula_units_Z 112
_cell_length_a 14.337292
_cell_length_b 23.841406
_cell_length_c 14.301265
_cell_angle_alpha 90.000000
_cell_angle_beta 90.000000
_cell_angle_gamma 90.000000
_cell_volume 4888.475557
_symmetry_space_group_name_H-M "C M C A"
_symmetry_group_IT_number 64
_symmetry_cell_setting 'orthorhombic'
loop_
_space_group_symop_operation_xyz
x,y,z
-x,1/2-y,1/2+z
x,-y,-z
-x,1/2+y,1/2-z
-x,-y,-z
x,1/2+y,1/2-z
-x,y,z
x,1/2-y,1/2+z
1/2+x,1/2+y,z
1/2-x,-y,1/2+z
1/2+x,1/2-y,-z
1/2-x,y,1/2-z
1/2-x,1/2-y,-z
1/2+x,y,1/2-z
1/2-x,1/2+y,z
1/2+x,-y,1/2+z
loop_
_atom_site_type_symbol
_atom_site_label
_atom_site_fract_x
_atom_site_fract_y
_atom_site_fract_z
Si Si1 0.296970 0.150680 0.654268
Si Si2 0.609617 0.959709 0.416225
Si Si3 0.282048 0.165837 0.029431
Si Si4 0.608939 0.953182 0.733056
Si Si5 0.109436 0.054629 0.440388
Si Si6 0.153140 0.266486 0.803407
Si Si7 0.896988 0.659301 0.354350
O O1 0.250000 0.127817 0.750000
O O2 0.343011 0.101281 0.592215
O O3 0.223517 0.181250 0.581914
O O4 0.369548 0.200150 0.684108
O O5 0.500000 0.949951 0.429820
O O6 0.646967 0.000000 0.500000
O O7 0.635860 0.990576 0.320677
O O8 0.324196 0.103736 0.025244
O O9 0.349213 0.204244 0.093632
O O10 0.176199 0.176000 0.066010
O O11 0.500000 0.942921 0.732131
O O12 0.644933 0.961175 0.837333
O O13 0.650737 0.897472 0.686226
O O14 0.000000 0.071807 0.445242
O O15 0.130030 0.000000 0.500000
O O16 0.250000 0.274652 0.750000
O O17 0.083967 0.297175 0.731444
O O18 0.000000 0.649527 0.399813
#
# Coordination Sequence:
#
# PCOD8263471 Si02
#       7
#    16  16  16  16  16  16  16
#     4  11  25  42  60  93 134 174 216 271 333 403
#     4  10  22  42  63  88 125 166 209 264 332 404
#     4  11  22  39  65  94 127 176 219 273 335 396
#     4   9  18  35  59  86 121 159 203 264 321 380
#     4  10  22  38  60  94 131 170 221 278 331 392
#     4   9  20  40  64  90 127 168 213 270 329 386
#     4  10  20  38  67 101 128 162 221 280 330 396
#
# _framework density 22.911028000000002
#
# number of rings (size 3 to 8) (size 9 to 14) (size 15 to 20)
#    0.000    2.000    1.429    1.286    2.000    4.000 
#    0.000    0.000    0.000    9.000    0.000    0.000 
#    0.000    0.000    0.000    0.000    0.000    0.000 
#
# Total GULP energy -693745.301172 kJ/mol
# GULP energy per Si atom -12388.308950 kJ/mol
# Density = 2.285888 g / cm^3
# Si number density = 22.911028 Si / 1000 Ang^3
#
#
#
# Elastic Constant Matrix: (Units=GPa)
#
#
# Indices 1 2 3 4 5 6 
#
# 1 57.6238 8.3787 5.0557 0.0000 0.0000 0.0000
# 2 8.3787 105.5891 -0.7531 0.0000 0.0000 0.0000
# 3 5.0557 -0.7531 97.5978 0.0000 0.0000 0.0000
# 4 0.0000 0.0000 0.0000 33.7118 0.0000 0.0000
# 5 0.0000 0.0000 0.0000 0.0000 16.9381 0.0000
# 6 0.0000 0.0000 0.0000 0.0000 0.0000 -10.1671
#
#
#
# Elastic Compliance Matrix: (Units=1/GPa)
#
#
# Indices 1 2 3 4 5 6 
#
# 1 0.017640 -0.001406 -0.000925 0.000000 0.000000 0.000000
# 2 -0.001406 0.009583 0.000147 0.000000 0.000000 0.000000
# 3 -0.000925 0.000147 0.010295 0.000000 0.000000 0.000000
# 4 0.000000 0.000000 0.000000 0.029663 0.000000 0.000000
# 5 0.000000 0.000000 0.000000 0.000000 0.059038 0.000000
# 6 0.000000 0.000000 0.000000 0.000000 0.000000 -0.098356
#
#
# Mechanical properties :
#
#
# Convention : Reuss Voigt Hill
#
# Bulk Modulus (GPa) = 30.16613 31.79703 30.98158
# Shear Modulus (GPa) = 115.52246 24.63852 70.08049
#
# Velocity S-wave (km/s) = 7.10856 3.28289 5.53665
# Velocity P-wave (km/s) = 8.97612 5.31774 7.37730
#
# Compressibility (1/GPa) = 0.03314976
#
# Stress axis : x y z
#
# Youngs Moduli (GPa) = 56.69083 104.34807 97.13299
#
# Poissons Ratio (x) = 0.14675 0.08981
# Poissons Ratio (y) = 0.07973 -0.01426
# Poissons Ratio (z) = 0.05242 -0.01532
#
# Static dielectric constant tensor:
#      x y z
#    x 3.770110 0.000000 0.000000 
#    y 0.000000 4.270650 0.000000 
#    z 0.000000 0.000000 4.311950 
# 
# 
# High freq. dielectric constant tensor:
#      x y z
#    x 1.875260 0.000000 0.000000 
#    y 0.000000 1.906380 0.000000 
#    z 0.000000 0.000000 1.916990 
# 
# From -- ./inp_files/24419.got.cif
#   From: 2010.03.12/outbox.cif.g09.slc.cpg/sg64_13_cif.got.tgz:24419.got - 2010.04.10 20:19:32.
