data_PCOD8263907
_publ_section_title
;
Structure prediction by ZEFSAII (Michael W. Deem and Ramdas Pophale) SiO2 
 PCOD8263907
Probable space group: C M C A
;
_chemical_formula_sum "Si O2"
_cell_formula_units_Z 88
_cell_length_a 29.402522
_cell_length_b 9.564395
_cell_length_c 16.555804
_cell_angle_alpha 90.000000
_cell_angle_beta 90.000000
_cell_angle_gamma 90.000000
_cell_volume 4655.779070
_symmetry_space_group_name_H-M "C M C A"
_symmetry_group_IT_number 64
_symmetry_cell_setting 'orthorhombic'
loop_
_space_group_symop_operation_xyz
x,y,z
-x,1/2-y,1/2+z
x,-y,-z
-x,1/2+y,1/2-z
-x,-y,-z
x,1/2+y,1/2-z
-x,y,z
x,1/2-y,1/2+z
1/2+x,1/2+y,z
1/2-x,-y,1/2+z
1/2+x,1/2-y,-z
1/2-x,y,1/2-z
1/2-x,1/2-y,-z
1/2+x,y,1/2-z
1/2-x,1/2+y,z
1/2+x,-y,1/2+z
loop_
_atom_site_type_symbol
_atom_site_label
_atom_site_fract_x
_atom_site_fract_y
_atom_site_fract_z
Si Si1 0.500000 0.206254 0.092205
Si Si2 0.167668 0.030583 0.661397
Si Si3 0.437569 0.527550 0.649210
Si Si4 0.250660 0.381245 0.056622
Si Si5 0.703565 0.233458 0.707963
Si Si6 0.000000 0.261114 0.589198
Si Si7 0.000000 0.973032 0.202381
O O1 0.500000 0.320316 0.162902
O O2 0.544159 0.106350 0.099503
O O3 0.500000 0.285950 0.006888
O O4 0.115807 0.035730 0.635516
O O5 0.200371 0.076656 0.588020
O O6 0.173365 0.135831 0.735735
O O7 0.176733 0.872326 0.687090
O O8 0.455750 0.673128 0.613799
O O9 0.454754 0.512153 0.742076
O O10 0.285272 0.358834 0.129693
O O11 0.271480 0.500000 0.000000
O O12 0.250000 0.250000 0.000000
O O13 0.750000 0.282501 0.750000
O O14 0.000000 0.409928 0.633403
#
# Coordination Sequence:
#
# PCOD8263907 Si02
#       7
#     8  16  16  16  16   8   8
#     4  10  21  40  63  84 126 156 190 248 305 374
#     4  11  24  37  65  87 121 155 207 255 290 364
#     4  10  21  39  62  88 117 159 206 238 300 361
#     4  11  22  41  61  86 120 162 202 246 307 359
#     4  10  22  40  60  86 118 160 200 249 307 351
#     4  10  21  40  61  88 124 160 190 246 313 368
#     4  10  21  38  65  88 120 154 200 248 303 356
#
# _framework density 18.901240000000001
#
# number of rings (size 3 to 8) (size 9 to 14) (size 15 to 20)
#    0.000    1.818    1.818    5.182    7.636    1.455 
#    0.000    0.000    0.000    0.000    0.000    0.000 
#    0.000    0.000    0.000    0.000    0.000    0.000 
#
# Total GULP energy -545578.263127 kJ/mol
# GULP energy per Si atom -12399.505980 kJ/mol
# Density = 1.885822 g / cm^3
# Si number density = 18.901240 Si / 1000 Ang^3
#
#
#
# Elastic Constant Matrix: (Units=GPa)
#
#
# Indices 1 2 3 4 5 6 
#
# 1 105.3866 33.9775 14.4624 0.0000 0.0000 0.0000
# 2 33.9775 109.8923 28.6918 0.0000 0.0000 0.0000
# 3 14.4624 28.6918 94.9623 0.0000 0.0000 0.0000
# 4 0.0000 0.0000 0.0000 45.2794 0.0000 0.0000
# 5 0.0000 0.0000 0.0000 0.0000 10.3290 0.0000
# 6 0.0000 0.0000 0.0000 0.0000 0.0000 9.6126
#
#
#
# Elastic Compliance Matrix: (Units=1/GPa)
#
#
# Indices 1 2 3 4 5 6 
#
# 1 0.010579 -0.003094 -0.000676 0.000000 0.000000 0.000000
# 2 -0.003094 0.010784 -0.002787 0.000000 0.000000 0.000000
# 3 -0.000676 -0.002787 0.011476 0.000000 0.000000 0.000000
# 4 0.000000 0.000000 0.000000 0.022085 0.000000 0.000000
# 5 0.000000 0.000000 0.000000 0.000000 0.096815 0.000000
# 6 0.000000 0.000000 0.000000 0.000000 0.000000 0.104030
#
#
# Mechanical properties :
#
#
# Convention : Reuss Voigt Hill
#
# Bulk Modulus (GPa) = 50.70056 51.61161 51.15609
# Shear Modulus (GPa) = 18.15149 28.58482 23.36815
#
# Velocity S-wave (km/s) = 3.10229 3.89308 3.51996
# Velocity P-wave (km/s) = 6.30194 6.89734 6.60635
#
# Compressibility (1/GPa) = 0.01972365
#
# Stress axis : x y z
#
# Youngs Moduli (GPa) = 94.52371 92.72769 87.14167
#
# Poissons Ratio (x) = 0.28694 0.05893
# Poissons Ratio (y) = 0.29250 0.24287
# Poissons Ratio (z) = 0.06392 0.25844
#
# Static dielectric constant tensor:
#      x y z
#    x 3.085370 0.000000 0.000000 
#    y 0.000000 3.505960 0.000000 
#    z 0.000000 0.000000 3.548460 
# 
# 
# High freq. dielectric constant tensor:
#      x y z
#    x 1.711250 0.000000 0.000000 
#    y 0.000000 1.750050 0.000000 
#    z 0.000000 0.000000 1.747380 
# 
# From -- ./inp_files/35728.got.cif
#   From: 2010.03.12/outbox.cif.g09.slc.cpg/sg64_18_cif.got.tgz:35728.got - 2010.04.10 20:19:32.
