data_PCOD8263569
_publ_section_title
;
Structure prediction by ZEFSAII (Michael W. Deem and Ramdas Pophale) SiO2 
 PCOD8263569
Probable space group: C M C A
;
_chemical_formula_sum "Si O2"
_cell_formula_units_Z 96
_cell_length_a 16.835432
_cell_length_b 13.779995
_cell_length_c 18.896189
_cell_angle_alpha 90.000000
_cell_angle_beta 90.000000
_cell_angle_gamma 90.000000
_cell_volume 4383.767868
_symmetry_space_group_name_H-M "C M C A"
_symmetry_group_IT_number 64
_symmetry_cell_setting 'orthorhombic'
loop_
_space_group_symop_operation_xyz
x,y,z
-x,1/2-y,1/2+z
x,-y,-z
-x,1/2+y,1/2-z
-x,-y,-z
x,1/2+y,1/2-z
-x,y,z
x,1/2-y,1/2+z
1/2+x,1/2+y,z
1/2-x,-y,1/2+z
1/2+x,1/2-y,-z
1/2-x,y,1/2-z
1/2-x,1/2-y,-z
1/2+x,y,1/2-z
1/2-x,1/2+y,z
1/2+x,-y,1/2+z
loop_
_atom_site_type_symbol
_atom_site_label
_atom_site_fract_x
_atom_site_fract_y
_atom_site_fract_z
Si Si1 0.908153 0.356903 0.149234
Si Si2 0.591855 0.051098 0.225192
Si Si3 0.410575 0.152446 0.598040
Si Si4 0.836804 0.736128 0.467500
Si Si5 0.909411 0.438363 0.609711
Si Si6 0.160758 0.249767 0.773990
O O1 0.876292 0.457537 0.182282
O O2 0.858903 0.331071 0.078399
O O3 0.897047 0.272743 0.207906
O O4 0.000000 0.362666 0.128719
O O5 0.500000 0.067762 0.207334
O O6 0.605878 0.037111 0.308281
O O7 0.641884 0.142669 0.197642
O O8 0.500000 0.165511 0.626797
O O9 0.397323 0.224417 0.532453
O O10 0.351219 0.175618 0.661846
O O11 0.396808 0.042059 0.570791
O O12 0.750000 0.750000 0.500000
O O13 0.845849 0.640489 0.417770
O O14 0.000000 0.399919 0.597388
O O15 0.250000 0.238589 0.750000
#
# Coordination Sequence:
#
# PCOD8263569 Si02
#       6
#    16  16  16  16  16  16
#     4  11  22  43  72  98 131 181 233 285 340 409
#     4  10  21  40  69 100 128 173 235 287 339 406
#     4  11  23  42  68  99 133 178 233 286 336 409
#     4  12  25  42  63 101 147 180 219 277 355 418
#     4  10  20  40  72 101 128 175 235 289 335 401
#     4  12  24  40  63 100 141 177 224 286 353 409
#
# _framework density 21.898969999999998
#
# number of rings (size 3 to 8) (size 9 to 14) (size 15 to 20)
#    0.000    1.000    3.333    4.500    0.000    2.000 
#    3.000    2.500    0.000    3.000    0.000    0.000 
#    0.000    0.000    0.000    0.000    0.000    0.000 
#
# Total GULP energy -595331.949976 kJ/mol
# GULP energy per Si atom -12402.748958 kJ/mol
# Density = 2.184913 g / cm^3
# Si number density = 21.898970 Si / 1000 Ang^3
#
#
#
# Elastic Constant Matrix: (Units=GPa)
#
#
# Indices 1 2 3 4 5 6 
#
# 1 107.4810 76.0297 61.8598 0.0000 0.0000 0.0000
# 2 76.0297 130.7951 50.7294 0.0000 0.0000 0.0000
# 3 61.8598 50.7294 107.7085 0.0000 0.0000 0.0000
# 4 0.0000 0.0000 0.0000 46.9877 0.0000 0.0000
# 5 0.0000 0.0000 0.0000 0.0000 41.0448 0.0000
# 6 0.0000 0.0000 0.0000 0.0000 0.0000 23.6144
#
#
#
# Elastic Compliance Matrix: (Units=1/GPa)
#
#
# Indices 1 2 3 4 5 6 
#
# 1 0.019462 -0.008537 -0.007157 0.000000 0.000000 0.000000
# 2 -0.008537 0.013099 -0.001266 0.000000 0.000000 0.000000
# 3 -0.007157 -0.001266 0.013991 0.000000 0.000000 0.000000
# 4 0.000000 0.000000 0.000000 0.021282 0.000000 0.000000
# 5 0.000000 0.000000 0.000000 0.000000 0.024364 0.000000
# 6 0.000000 0.000000 0.000000 0.000000 0.000000 0.042347
#
#
# Mechanical properties :
#
#
# Convention : Reuss Voigt Hill
#
# Bulk Modulus (GPa) = 79.16576 80.35805 79.76191
# Shear Modulus (GPa) = 28.95589 32.82043 30.88816
#
# Velocity S-wave (km/s) = 3.64022 3.87553 3.75972
# Velocity P-wave (km/s) = 7.34147 7.53664 7.43969
#
# Compressibility (1/GPa) = 0.01263172
#
# Stress axis : x y z
#
# Youngs Moduli (GPa) = 51.38214 76.33935 71.47455
#
# Poissons Ratio (x) = 0.65174 0.51151
# Poissons Ratio (y) = 0.43867 0.09052
# Poissons Ratio (z) = 0.36772 0.09668
#
# Static dielectric constant tensor:
#      x y z
#    x 3.714600 0.000000 0.000000 
#    y 0.000000 4.113970 0.000000 
#    z 0.000000 0.000000 3.993210 
# 
# 
# High freq. dielectric constant tensor:
#      x y z
#    x 1.845190 0.000000 0.000000 
#    y 0.000000 1.862810 0.000000 
#    z 0.000000 0.000000 1.863350 
# 
# From -- ./inp_files/39250.got.cif
#   From: 2010.03.12/outbox.cif.g09.slc.cpg/sg64_20_cif.got.tgz:39250.got - 2010.04.10 20:19:32.
