data_PCOD8263887
_publ_section_title
;
Structure prediction by ZEFSAII (Michael W. Deem and Ramdas Pophale) SiO2 
 PCOD8263887
Probable space group: C M C A
;
_chemical_formula_sum "Si O2"
_cell_formula_units_Z 64
_cell_length_a 24.323006
_cell_length_b 5.237057
_cell_length_c 24.726877
_cell_angle_alpha 90.000000
_cell_angle_beta 90.000000
_cell_angle_gamma 90.000000
_cell_volume 3149.733548
_symmetry_space_group_name_H-M "C M C A"
_symmetry_group_IT_number 64
_symmetry_cell_setting 'orthorhombic'
loop_
_space_group_symop_operation_xyz
x,y,z
-x,1/2-y,1/2+z
x,-y,-z
-x,1/2+y,1/2-z
-x,-y,-z
x,1/2+y,1/2-z
-x,y,z
x,1/2-y,1/2+z
1/2+x,1/2+y,z
1/2-x,-y,1/2+z
1/2+x,1/2-y,-z
1/2-x,y,1/2-z
1/2-x,1/2-y,-z
1/2+x,y,1/2-z
1/2-x,1/2+y,z
1/2+x,-y,1/2+z
loop_
_atom_site_type_symbol
_atom_site_label
_atom_site_fract_x
_atom_site_fract_y
_atom_site_fract_z
Si Si1 0.062412 0.914314 0.056953
Si Si2 0.392074 0.895793 0.102515
Si Si3 0.563318 0.600178 0.715626
Si Si4 0.273467 0.267425 0.438358
O O1 0.094698 0.667818 0.076797
O O2 0.000000 0.824619 0.050418
O O3 0.064829 0.163356 0.095096
O O4 0.088324 0.000000 0.000000
O O5 0.392616 0.935007 0.167101
O O6 0.337774 0.801406 0.071501
O O7 0.574697 0.372908 0.757487
O O8 0.500000 0.579643 0.694740
O O9 0.250000 0.250000 0.500000
O O10 0.243424 0.504721 0.409005
#
# Coordination Sequence:
#
# PCOD8263887 Si02
#       4
#    16  16  16  16
#     4  11  24  37  56  91 130 165 202 242 306 399
#     4  12  23  39  66  86 126 171 205 257 322 370
#     4  10  21  38  62  92 123 158 207 257 307 379
#     4  10  23  39  60  88 117 158 215 263 305 363
#
# _framework density 20.319179999999999
#
# number of rings (size 3 to 8) (size 9 to 14) (size 15 to 20)
#    0.000    1.250    0.000    6.000   10.500    4.000 
#    0.000    0.000    0.000    4.500    0.000    0.000 
#    0.000    0.000    0.000    0.000    0.000    0.000 
#
# Total GULP energy -396482.343601 kJ/mol
# GULP energy per Si atom -12390.073238 kJ/mol
# Density = 2.027293 g / cm^3
# Si number density = 20.319180 Si / 1000 Ang^3
#
#
#
# Elastic Constant Matrix: (Units=GPa)
#
#
# Indices 1 2 3 4 5 6 
#
# 1 59.3047 19.5223 56.9359 0.0000 0.0000 0.0000
# 2 19.5223 166.5989 27.7127 0.0000 0.0000 0.0000
# 3 56.9359 27.7127 90.4061 0.0000 0.0000 0.0000
# 4 0.0000 0.0000 0.0000 30.2427 0.0000 0.0000
# 5 0.0000 0.0000 0.0000 0.0000 29.4612 0.0000
# 6 0.0000 0.0000 0.0000 0.0000 0.0000 189.9948
#
#
#
# Elastic Compliance Matrix: (Units=1/GPa)
#
#
# Indices 1 2 3 4 5 6 
#
# 1 0.042698 -0.000559 -0.026719 0.000000 0.000000 0.000000
# 2 -0.000559 0.006332 -0.001589 0.000000 0.000000 0.000000
# 3 -0.026719 -0.001589 0.028375 0.000000 0.000000 0.000000
# 4 0.000000 0.000000 0.000000 0.033066 0.000000 0.000000
# 5 0.000000 0.000000 0.000000 0.000000 0.033943 0.000000
# 6 0.000000 0.000000 0.000000 0.000000 0.000000 0.005263
#
#
# Mechanical properties :
#
#
# Convention : Reuss Voigt Hill
#
# Bulk Modulus (GPa) = 50.83458 58.29462 54.56460
# Shear Modulus (GPa) = 23.36796 64.08231 43.72513
#
# Velocity S-wave (km/s) = 3.39491 5.62195 4.64391
# Velocity P-wave (km/s) = 6.35921 8.41983 7.46100
#
# Compressibility (1/GPa) = 0.01967165
#
# Stress axis : x y z
#
# Youngs Moduli (GPa) = 23.42047 157.92133 35.24190
#
# Poissons Ratio (x) = 0.08826 0.94162
# Poissons Ratio (y) = 0.01309 0.05600
# Poissons Ratio (z) = 0.62577 0.25095
#
# Static dielectric constant tensor:
#      x y z
#    x 3.326040 0.000000 0.000000 
#    y 0.000000 5.072380 0.000000 
#    z 0.000000 0.000000 3.604520 
# 
# 
# High freq. dielectric constant tensor:
#      x y z
#    x 1.770330 0.000000 0.000000 
#    y 0.000000 1.837370 0.000000 
#    z 0.000000 0.000000 1.763710 
# 
# From -- ./inp_files/41241.got.cif
#   From: 2010.03.12/outbox.cif.g09.slc.cpg/sg64_21_cif.got.tgz:41241.got - 2010.04.10 20:19:32.
