data_PCOD8263368
_publ_section_title
;
Structure prediction by ZEFSAII (Michael W. Deem and Ramdas Pophale) SiO2 
 PCOD8263368
Probable space group: C M C A
;
_chemical_formula_sum "Si O2"
_cell_formula_units_Z 64
_cell_length_a 13.080652
_cell_length_b 18.802253
_cell_length_c 9.938189
_cell_angle_alpha 90.000000
_cell_angle_beta 90.000000
_cell_angle_gamma 90.000000
_cell_volume 2444.255132
_symmetry_space_group_name_H-M "C M C A"
_symmetry_group_IT_number 64
_symmetry_cell_setting 'orthorhombic'
loop_
_space_group_symop_operation_xyz
x,y,z
-x,1/2-y,1/2+z
x,-y,-z
-x,1/2+y,1/2-z
-x,-y,-z
x,1/2+y,1/2-z
-x,y,z
x,1/2-y,1/2+z
1/2+x,1/2+y,z
1/2-x,-y,1/2+z
1/2+x,1/2-y,-z
1/2-x,y,1/2-z
1/2-x,1/2-y,-z
1/2+x,y,1/2-z
1/2-x,1/2+y,z
1/2+x,-y,1/2+z
loop_
_atom_site_type_symbol
_atom_site_label
_atom_site_fract_x
_atom_site_fract_y
_atom_site_fract_z
Si Si1 0.382048 0.102817 0.343981
Si Si2 0.754675 0.352065 0.077977
Si Si3 0.119397 0.227099 0.360409
Si Si4 0.384306 0.024804 0.847167
O O1 0.500000 0.095525 0.383805
O O2 0.315603 0.101305 0.478100
O O3 0.361145 0.177014 0.267638
O O4 0.346454 0.038564 0.248874
O O5 0.681055 0.300205 0.165073
O O6 0.813564 0.406411 0.177002
O O7 0.840861 0.308341 0.997654
O O8 0.000000 0.243168 0.380908
O O9 0.500000 0.045782 0.811180
O O10 0.376532 0.000000 0.000000
#
# Coordination Sequence:
#
# PCOD8263368 Si02
#       4
#    16  16  16  16
#     4  10  21  40  67  97 131 174 219 270 332 389
#     4  11  21  37  67  98 124 177 218 265 327 397
#     4  10  21  37  61  95 129 162 213 273 325 382
#     4  10  20  37  65  97 130 169 220 275 324 389
#
# _framework density 26.183845999999999
#
# number of rings (size 3 to 8) (size 9 to 14) (size 15 to 20)
#    0.000    1.750    2.500    2.250    0.000    0.000 
#    0.000    2.500   11.000   15.000    0.000    0.000 
#    0.000    0.000    0.000    0.000    0.000    0.000 
#
# Total GULP energy -397021.563203 kJ/mol
# GULP energy per Si atom -12406.923850 kJ/mol
# Density = 2.612425 g / cm^3
# Si number density = 26.183846 Si / 1000 Ang^3
#
#
#
# Elastic Constant Matrix: (Units=GPa)
#
#
# Indices 1 2 3 4 5 6 
#
# 1 173.7422 92.9536 45.2390 0.0000 0.0000 0.0000
# 2 92.9536 195.8118 51.1877 0.0000 0.0000 0.0000
# 3 45.2390 51.1877 75.6801 0.0000 0.0000 0.0000
# 4 0.0000 0.0000 0.0000 27.4484 0.0000 0.0000
# 5 0.0000 0.0000 0.0000 0.0000 34.8362 0.0000
# 6 0.0000 0.0000 0.0000 0.0000 0.0000 60.5148
#
#
#
# Elastic Compliance Matrix: (Units=1/GPa)
#
#
# Indices 1 2 3 4 5 6 
#
# 1 0.008158 -0.003156 -0.002742 0.000000 0.000000 0.000000
# 2 -0.003156 0.007425 -0.003135 0.000000 0.000000 0.000000
# 3 -0.002742 -0.003135 0.016973 0.000000 0.000000 0.000000
# 4 0.000000 0.000000 0.000000 0.036432 0.000000 0.000000
# 5 0.000000 0.000000 0.000000 0.000000 0.028706 0.000000
# 6 0.000000 0.000000 0.000000 0.000000 0.000000 0.016525
#
#
# Mechanical properties :
#
#
# Convention : Reuss Voigt Hill
#
# Bulk Modulus (GPa) = 69.01586 91.55496 80.28541
# Shear Modulus (GPa) = 36.46570 41.61680 39.04125
#
# Velocity S-wave (km/s) = 3.73591 3.99106 3.86559
# Velocity P-wave (km/s) = 6.71005 7.50201 7.11706
#
# Compressibility (1/GPa) = 0.01448942
#
# Stress axis : x y z
#
# Youngs Moduli (GPa) = 122.57815 134.68574 58.91613
#
# Poissons Ratio (x) = 0.42505 0.16155
# Poissons Ratio (y) = 0.38684 0.18472
# Poissons Ratio (z) = 0.33612 0.42229
#
# Static dielectric constant tensor:
#      x y z
#    x 5.059070 0.000000 0.000000 
#    y 0.000000 4.908350 0.000000 
#    z 0.000000 0.000000 4.761380 
# 
# 
# High freq. dielectric constant tensor:
#      x y z
#    x 2.079340 0.000000 0.000000 
#    y 0.000000 2.052450 0.000000 
#    z 0.000000 0.000000 2.044570 
# 
# From -- ./inp_files/14002.got.cif
#   From: 2010.03.12/outbox.cif.g09.slc.cpg/sg64_8_cif.got.tgz:14002.got - 2010.04.10 20:19:32.
