data_PCOD8263878
_publ_section_title
;
Structure prediction by ZEFSAII (Michael W. Deem and Ramdas Pophale) SiO2 
 PCOD8263878
Probable space group: C M C A
;
_chemical_formula_sum "Si O2"
_cell_formula_units_Z 64
_cell_length_a 12.988346
_cell_length_b 12.973467
_cell_length_c 17.552178
_cell_angle_alpha 90.000000
_cell_angle_beta 90.000000
_cell_angle_gamma 90.000000
_cell_volume 2957.610064
_symmetry_space_group_name_H-M "C M C A"
_symmetry_group_IT_number 64
_symmetry_cell_setting 'orthorhombic'
loop_
_space_group_symop_operation_xyz
x,y,z
-x,1/2-y,1/2+z
x,-y,-z
-x,1/2+y,1/2-z
-x,-y,-z
x,1/2+y,1/2-z
-x,y,z
x,1/2-y,1/2+z
1/2+x,1/2+y,z
1/2-x,-y,1/2+z
1/2+x,1/2-y,-z
1/2-x,y,1/2-z
1/2-x,1/2-y,-z
1/2+x,y,1/2-z
1/2-x,1/2+y,z
1/2+x,-y,1/2+z
loop_
_atom_site_type_symbol
_atom_site_label
_atom_site_fract_x
_atom_site_fract_y
_atom_site_fract_z
Si Si1 0.384329 0.394587 0.804242
Si Si2 0.681077 0.701323 0.612499
Si Si3 0.319655 0.468412 0.641683
Si Si4 0.615683 0.281511 0.554761
O O1 0.500000 0.421598 0.829987
O O2 0.358836 0.274164 0.819494
O O3 0.371540 0.416166 0.715052
O O4 0.304752 0.463798 0.852789
O O5 0.646867 0.586231 0.633524
O O6 0.626620 0.738369 0.535016
O O7 0.804887 0.710609 0.602488
O O8 0.358734 0.402469 0.569647
O O9 0.500000 0.253400 0.580503
#
# Coordination Sequence:
#
# PCOD8263878 Si02
#       4
#    16  16  16  16
#     4  10  22  38  56  83 117 152 192 237 288 343
#     4  10  22  40  59  85 121 152 189 244 291 340
#     4  10  22  38  58  86 116 151 198 242 284 345
#     4  10  21  38  62  89 115 150 195 240 293 349
#
# _framework density 21.639092999999999
#
# number of rings (size 3 to 8) (size 9 to 14) (size 15 to 20)
#    0.000    2.000    0.000    2.250    0.000   14.000 
#    0.000    0.000    0.000    9.000    0.000    0.000 
#    0.000    0.000    0.000    0.000    0.000    0.000 
#
# Total GULP energy -396820.282541 kJ/mol
# GULP energy per Si atom -12400.633829 kJ/mol
# Density = 2.158984 g / cm^3
# Si number density = 21.639093 Si / 1000 Ang^3
#
#
#
# Elastic Constant Matrix: (Units=GPa)
#
#
# Indices 1 2 3 4 5 6 
#
# 1 154.1199 -12.7070 20.6069 0.0000 0.0000 0.0000
# 2 -12.7070 91.6082 29.7833 0.0000 0.0000 0.0000
# 3 20.6069 29.7833 73.1740 0.0000 0.0000 0.0000
# 4 0.0000 0.0000 0.0000 26.1802 0.0000 0.0000
# 5 0.0000 0.0000 0.0000 0.0000 17.4616 0.0000
# 6 0.0000 0.0000 0.0000 0.0000 0.0000 10.1493
#
#
#
# Elastic Compliance Matrix: (Units=1/GPa)
#
#
# Indices 1 2 3 4 5 6 
#
# 1 0.007007 0.001860 -0.002730 0.000000 0.000000 0.000000
# 2 0.001860 0.013074 -0.005845 0.000000 0.000000 0.000000
# 3 -0.002730 -0.005845 0.016814 0.000000 0.000000 0.000000
# 4 0.000000 0.000000 0.000000 0.038197 0.000000 0.000000
# 5 0.000000 0.000000 0.000000 0.000000 0.057269 0.000000
# 6 0.000000 0.000000 0.000000 0.000000 0.000000 0.098529
#
#
# Mechanical properties :
#
#
# Convention : Reuss Voigt Hill
#
# Bulk Modulus (GPa) = 42.61915 43.80760 43.21338
# Shear Modulus (GPa) = 19.83009 29.50614 24.66811
#
# Velocity S-wave (km/s) = 3.03050 3.69664 3.38002
# Velocity P-wave (km/s) = 5.65539 6.20555 5.93684
#
# Compressibility (1/GPa) = 0.02346363
#
# Stress axis : x y z
#
# Youngs Moduli (GPa) = 142.71854 76.48554 59.47420
#
# Poissons Ratio (x) = -0.14223 0.16237
# Poissons Ratio (y) = -0.26539 0.34764
# Poissons Ratio (z) = 0.38963 0.44707
#
# Static dielectric constant tensor:
#      x y z
#    x 4.088560 0.000000 0.000000 
#    y 0.000000 3.651980 0.000000 
#    z 0.000000 0.000000 3.727020 
# 
# 
# High freq. dielectric constant tensor:
#      x y z
#    x 1.858600 0.000000 0.000000 
#    y 0.000000 1.831770 0.000000 
#    z 0.000000 0.000000 1.841600 
# 
# From -- ./inp_files/31781.got.cif
#   From: 2010.03.12/outbox.cif.g09.slc.cpg/sg64_16_cif.got.tgz:31781.got - 2010.04.10 20:19:32.
