data_PCOD8263313
_publ_section_title
;
Structure prediction by ZEFSAII (Michael W. Deem and Ramdas Pophale) SiO2 
 PCOD8263313
Probable space group: C M C A
;
_chemical_formula_sum "Si O2"
_cell_formula_units_Z 96
_cell_length_a 9.490773
_cell_length_b 26.306460
_cell_length_c 18.663197
_cell_angle_alpha 90.000000
_cell_angle_beta 90.000000
_cell_angle_gamma 90.000000
_cell_volume 4659.615019
_symmetry_space_group_name_H-M "C M C A"
_symmetry_group_IT_number 64
_symmetry_cell_setting 'orthorhombic'
loop_
_space_group_symop_operation_xyz
x,y,z
-x,1/2-y,1/2+z
x,-y,-z
-x,1/2+y,1/2-z
-x,-y,-z
x,1/2+y,1/2-z
-x,y,z
x,1/2-y,1/2+z
1/2+x,1/2+y,z
1/2-x,-y,1/2+z
1/2+x,1/2-y,-z
1/2-x,y,1/2-z
1/2-x,1/2-y,-z
1/2+x,y,1/2-z
1/2-x,1/2+y,z
1/2+x,-y,1/2+z
loop_
_atom_site_type_symbol
_atom_site_label
_atom_site_fract_x
_atom_site_fract_y
_atom_site_fract_z
Si Si1 0.164391 0.150805 0.961431
Si Si2 0.160536 0.608290 0.183784
Si Si3 0.837395 0.289696 0.322425
Si Si4 0.657198 0.993969 0.186431
Si Si5 0.662980 0.303119 0.578406
Si Si6 0.160846 0.448233 0.036675
O O1 0.185190 0.163278 0.877224
O O2 0.237386 0.097897 0.982648
O O3 0.000000 0.148291 0.981354
O O4 0.237723 0.196014 0.007846
O O5 0.250000 0.629577 0.250000
O O6 0.206583 0.550732 0.163461
O O7 0.185336 0.641913 0.114015
O O8 0.000000 0.611214 0.208996
O O9 0.750000 0.298283 0.250000
O O10 0.787972 0.239110 0.364446
O O11 0.000000 0.284817 0.299734
O O12 0.500000 0.996960 0.216509
O O13 0.750000 0.971242 0.250000
O O14 0.667664 0.955275 0.121472
O O15 0.500000 0.293428 0.556070
O O16 0.000000 0.436159 0.011283
O O17 0.214707 0.500000 0.000000
#
# Coordination Sequence:
#
# PCOD8263313 Si02
#       6
#    16  16  16  16  16  16
#     4  11  24  39  57  86 119 149 188 238 289 341
#     4   9  17  30  51  80 111 143 183 231 282 336
#     4  10  23  41  61  87 118 153 194 237 281 337
#     4   9  18  32  51  76 106 140 179 226 279 335
#     4  10  20  37  60  84 113 151 193 235 282 339
#     4  10  21  39  61  82 108 148 195 238 285 342
#
# _framework density 20.60256
#
# number of rings (size 3 to 8) (size 9 to 14) (size 15 to 20)
#    0.000    2.167    0.000    2.500    0.000    7.000 
#    0.000    6.667    0.000    0.000    0.000    0.000 
#    0.000    0.000    0.000    0.000    0.000    0.000 
#
# Total GULP energy -595201.418478 kJ/mol
# GULP energy per Si atom -12400.029552 kJ/mol
# Density = 2.055567 g / cm^3
# Si number density = 20.602560 Si / 1000 Ang^3
#
#
#
# Elastic Constant Matrix: (Units=GPa)
#
#
# Indices 1 2 3 4 5 6 
#
# 1 96.2904 41.2808 56.0796 0.0000 0.0000 0.0000
# 2 41.2808 76.7062 21.7669 0.0000 0.0000 0.0000
# 3 56.0796 21.7669 91.1067 0.0000 0.0000 0.0000
# 4 0.0000 0.0000 0.0000 23.7733 0.0000 0.0000
# 5 0.0000 0.0000 0.0000 0.0000 39.6416 0.0000
# 6 0.0000 0.0000 0.0000 0.0000 0.0000 24.4608
#
#
#
# Elastic Compliance Matrix: (Units=1/GPa)
#
#
# Indices 1 2 3 4 5 6 
#
# 1 0.019647 -0.007661 -0.010263 0.000000 0.000000 0.000000
# 2 -0.007661 0.016972 0.000661 0.000000 0.000000 0.000000
# 3 -0.010263 0.000661 0.017136 0.000000 0.000000 0.000000
# 4 0.000000 0.000000 0.000000 0.042064 0.000000 0.000000
# 5 0.000000 0.000000 0.000000 0.000000 0.025226 0.000000
# 6 0.000000 0.000000 0.000000 0.000000 0.000000 0.040882
#
#
# Mechanical properties :
#
#
# Convention : Reuss Voigt Hill
#
# Bulk Modulus (GPa) = 52.00766 55.81755 53.91261
# Shear Modulus (GPa) = 24.64729 27.24021 25.94375
#
# Velocity S-wave (km/s) = 3.46254 3.64012 3.55244
# Velocity P-wave (km/s) = 6.42524 6.69467 6.56134
#
# Compressibility (1/GPa) = 0.01922794
#
# Stress axis : x y z
#
# Youngs Moduli (GPa) = 50.89892 58.92005 58.35814
#
# Poissons Ratio (x) = 0.45138 0.59893
# Poissons Ratio (y) = 0.38993 -0.03856
# Poissons Ratio (z) = 0.52238 -0.03893
#
# Static dielectric constant tensor:
#      x y z
#    x 3.642460 0.000000 0.000000 
#    y 0.000000 3.678010 0.000000 
#    z 0.000000 0.000000 3.701830 
# 
# 
# High freq. dielectric constant tensor:
#      x y z
#    x 1.794330 0.000000 0.000000 
#    y 0.000000 1.805380 0.000000 
#    z 0.000000 0.000000 1.807450 
# 
# From -- ./inp_files/37054.got.cif
#   From: 2010.03.12/outbox.cif.g09.slc.cpg/sg64_19_cif.got.tgz:37054.got - 2010.04.10 20:19:32.
