data_PCOD8263588
_publ_section_title
;
Structure prediction by ZEFSAII (Michael W. Deem and Ramdas Pophale) SiO2 
 PCOD8263588
Probable space group: C M C A
;
_chemical_formula_sum "Si O2"
_cell_formula_units_Z 64
_cell_length_a 17.519159
_cell_length_b 12.282654
_cell_length_c 14.482651
_cell_angle_alpha 90.000000
_cell_angle_beta 90.000000
_cell_angle_gamma 90.000000
_cell_volume 3116.402453
_symmetry_space_group_name_H-M "C M C A"
_symmetry_group_IT_number 64
_symmetry_cell_setting 'orthorhombic'
loop_
_space_group_symop_operation_xyz
x,y,z
-x,1/2-y,1/2+z
x,-y,-z
-x,1/2+y,1/2-z
-x,-y,-z
x,1/2+y,1/2-z
-x,y,z
x,1/2-y,1/2+z
1/2+x,1/2+y,z
1/2-x,-y,1/2+z
1/2+x,1/2-y,-z
1/2-x,y,1/2-z
1/2-x,1/2-y,-z
1/2+x,y,1/2-z
1/2-x,1/2+y,z
1/2+x,-y,1/2+z
loop_
_atom_site_type_symbol
_atom_site_label
_atom_site_fract_x
_atom_site_fract_y
_atom_site_fract_z
Si Si1 0.832429 0.658738 0.713251
Si Si2 0.818591 0.949861 0.903338
Si Si3 0.815645 0.815450 0.552471
Si Si4 0.411017 0.270133 0.388374
O O1 0.750000 0.695124 0.750000
O O2 0.831231 0.535595 0.677766
O O3 0.854287 0.743118 0.632310
O O4 0.894596 0.664118 0.794430
O O5 0.727217 0.922196 0.907360
O O6 0.869779 0.845948 0.880989
O O7 0.846079 0.000000 0.000000
O O8 0.750000 0.750000 0.500000
O O9 0.880457 0.840603 0.476020
O O10 0.500000 0.251372 0.400621
#
# Coordination Sequence:
#
# PCOD8263588 Si02
#       4
#    16  16  16  16
#     4  12  22  39  69  95 129 168 222 275 318 386
#     4  11  21  40  70  94 121 171 230 266 322 388
#     4  10  20  42  63  97 122 164 219 273 320 372
#     4  11  25  43  62  98 140 168 212 270 335 392
#
# _framework density 20.536501000000001
#
# number of rings (size 3 to 8) (size 9 to 14) (size 15 to 20)
#    0.000    1.000   10.000    0.000    3.500    2.500 
#    0.000    0.000    0.000    2.250    0.000    0.000 
#    0.000    0.000    0.000    0.000    0.000    0.000 
#
# Total GULP energy -396798.787429 kJ/mol
# GULP energy per Si atom -12399.962107 kJ/mol
# Density = 2.048976 g / cm^3
# Si number density = 20.536501 Si / 1000 Ang^3
#
#
#
# Elastic Constant Matrix: (Units=GPa)
#
#
# Indices 1 2 3 4 5 6 
#
# 1 112.5042 34.0130 59.9087 0.0000 0.0000 0.0000
# 2 34.0130 100.2900 58.5649 0.0000 0.0000 0.0000
# 3 59.9087 58.5649 143.6926 0.0000 0.0000 0.0000
# 4 0.0000 0.0000 0.0000 37.9091 0.0000 0.0000
# 5 0.0000 0.0000 0.0000 0.0000 28.8574 0.0000
# 6 0.0000 0.0000 0.0000 0.0000 0.0000 12.6074
#
#
#
# Elastic Compliance Matrix: (Units=1/GPa)
#
#
# Indices 1 2 3 4 5 6 
#
# 1 0.011585 -0.001455 -0.004237 0.000000 0.000000 0.000000
# 2 -0.001455 0.013268 -0.004801 0.000000 0.000000 0.000000
# 3 -0.004237 -0.004801 0.010683 0.000000 0.000000 0.000000
# 4 0.000000 0.000000 0.000000 0.026379 0.000000 0.000000
# 5 0.000000 0.000000 0.000000 0.000000 0.034653 0.000000
# 6 0.000000 0.000000 0.000000 0.000000 0.000000 0.079319
#
#
# Mechanical properties :
#
#
# Convention : Reuss Voigt Hill
#
# Bulk Modulus (GPa) = 68.73048 73.49556 71.11302
# Shear Modulus (GPa) = 24.78663 29.47478 27.13070
#
# Velocity S-wave (km/s) = 3.47789 3.79256 3.63863
# Velocity P-wave (km/s) = 7.04754 7.41913 7.23572
#
# Compressibility (1/GPa) = 0.01454959
#
# Stress axis : x y z
#
# Youngs Moduli (GPa) = 86.32189 75.36857 93.60981
#
# Poissons Ratio (x) = 0.10963 0.39662
# Poissons Ratio (y) = 0.12557 0.44944
# Poissons Ratio (z) = 0.36575 0.36186
#
# Static dielectric constant tensor:
#      x y z
#    x 3.630510 0.000000 0.000000 
#    y 0.000000 3.836440 0.000000 
#    z 0.000000 0.000000 4.229310 
# 
# 
# High freq. dielectric constant tensor:
#      x y z
#    x 1.763340 0.000000 0.000000 
#    y 0.000000 1.796070 0.000000 
#    z 0.000000 0.000000 1.824750 
# 
# From -- ./inp_files/24854.got.cif
#   From: 2010.03.12/outbox.cif.g09.slc.cpg/sg64_13_cif.got.tgz:24854.got - 2010.04.10 20:19:32.
