data_PCOD8263914
_publ_section_title
;
Structure prediction by ZEFSAII (Michael W. Deem and Ramdas Pophale) SiO2 
 PCOD8263914
Probable space group: C M C A
;
_chemical_formula_sum "Si O2"
_cell_formula_units_Z 112
_cell_length_a 16.032485
_cell_length_b 11.777897
_cell_length_c 27.089094
_cell_angle_alpha 90.000000
_cell_angle_beta 90.000000
_cell_angle_gamma 90.000000
_cell_volume 5115.205366
_symmetry_space_group_name_H-M "C M C A"
_symmetry_group_IT_number 64
_symmetry_cell_setting 'orthorhombic'
loop_
_space_group_symop_operation_xyz
x,y,z
-x,1/2-y,1/2+z
x,-y,-z
-x,1/2+y,1/2-z
-x,-y,-z
x,1/2+y,1/2-z
-x,y,z
x,1/2-y,1/2+z
1/2+x,1/2+y,z
1/2-x,-y,1/2+z
1/2+x,1/2-y,-z
1/2-x,y,1/2-z
1/2-x,1/2-y,-z
1/2+x,y,1/2-z
1/2-x,1/2+y,z
1/2+x,-y,1/2+z
loop_
_atom_site_type_symbol
_atom_site_label
_atom_site_fract_x
_atom_site_fract_y
_atom_site_fract_z
Si Si1 0.340139 0.535903 0.653693
Si Si2 0.099479 0.679450 0.207116
Si Si3 0.821836 0.347413 0.369905
Si Si4 0.794170 0.734594 0.448579
Si Si5 0.402410 0.563591 0.097310
Si Si6 0.095195 0.225677 0.184967
Si Si7 0.901502 0.052731 0.551056
O O1 0.360727 0.441007 0.693500
O O2 0.243243 0.568620 0.656993
O O3 0.393897 0.647952 0.664679
O O4 0.363464 0.487800 0.598769
O O5 0.128342 0.777285 0.170337
O O6 0.136647 0.709375 0.261173
O O7 0.000000 0.671172 0.204733
O O8 0.773975 0.261615 0.406416
O O9 0.887655 0.428687 0.398031
O O10 0.750000 0.750000 0.500000
O O11 0.838050 0.610928 0.444290
O O12 0.872909 0.818082 0.444755
O O13 0.500000 0.584591 0.084483
O O14 0.372255 0.632483 0.146107
O O15 0.000000 0.199443 0.193782
O O16 0.000000 0.044236 0.552613
O O17 0.866321 0.000000 0.500000
#
# Coordination Sequence:
#
# PCOD8263914 Si02
#       7
#    16  16  16  16  16  16  16
#     4  11  23  43  67  96 136 169 222 282 335 394
#     4  11  25  43  66  97 133 175 221 272 327 392
#     4  11  25  43  65 100 133 169 217 277 334 388
#     4  11  25  42  67  93 131 170 216 269 333 398
#     4  11  23  46  69  93 132 179 220 267 329 407
#     4  10  22  42  68  95 128 178 225 266 327 396
#     4  10  21  38  66  96 121 164 222 277 326 386
#
# _framework density 21.895503000000001
#
# number of rings (size 3 to 8) (size 9 to 14) (size 15 to 20)
#    0.000    1.286    2.857    3.000    8.000    0.571 
#    0.000    2.857    0.000    0.000    0.000    0.000 
#    0.000    0.000    0.000    0.000    0.000    0.000 
#
# Total GULP energy -694325.749118 kJ/mol
# GULP energy per Si atom -12398.674091 kJ/mol
# Density = 2.184567 g / cm^3
# Si number density = 21.895503 Si / 1000 Ang^3
#
#
#
# Elastic Constant Matrix: (Units=GPa)
#
#
# Indices 1 2 3 4 5 6 
#
# 1 80.6214 24.7100 27.9251 0.0000 0.0000 0.0000
# 2 24.7100 65.8785 16.1460 0.0000 0.0000 0.0000
# 3 27.9251 16.1460 84.3911 0.0000 0.0000 0.0000
# 4 0.0000 0.0000 0.0000 24.6610 0.0000 0.0000
# 5 0.0000 0.0000 0.0000 0.0000 32.0764 0.0000
# 6 0.0000 0.0000 0.0000 0.0000 0.0000 30.4595
#
#
#
# Elastic Compliance Matrix: (Units=1/GPa)
#
#
# Indices 1 2 3 4 5 6 
#
# 1 0.015289 -0.004716 -0.004157 0.000000 0.000000 0.000000
# 2 -0.004716 0.017381 -0.001765 0.000000 0.000000 0.000000
# 3 -0.004157 -0.001765 0.013563 0.000000 0.000000 0.000000
# 4 0.000000 0.000000 0.000000 0.040550 0.000000 0.000000
# 5 0.000000 0.000000 0.000000 0.000000 0.031176 0.000000
# 6 0.000000 0.000000 0.000000 0.000000 0.000000 0.032831
#
#
# Mechanical properties :
#
#
# Convention : Reuss Voigt Hill
#
# Bulk Modulus (GPa) = 40.06837 40.93923 40.50380
# Shear Modulus (GPa) = 27.71886 28.24670 27.98278
#
# Velocity S-wave (km/s) = 3.56189 3.59565 3.57881
# Velocity P-wave (km/s) = 5.93765 5.99803 5.96792
#
# Compressibility (1/GPa) = 0.02495734
#
# Stress axis : x y z
#
# Youngs Moduli (GPa) = 65.40717 57.53458 73.73129
#
# Poissons Ratio (x) = 0.27132 0.30649
# Poissons Ratio (y) = 0.30845 0.13013
# Poissons Ratio (z) = 0.27189 0.10154
#
# Static dielectric constant tensor:
#      x y z
#    x 3.901810 0.000000 0.000000 
#    y 0.000000 3.952510 0.000000 
#    z 0.000000 0.000000 4.454330 
# 
# 
# High freq. dielectric constant tensor:
#      x y z
#    x 1.866840 0.000000 0.000000 
#    y 0.000000 1.857250 0.000000 
#    z 0.000000 0.000000 1.862950 
# 
# From -- ./inp_files/53249.got.cif
#   From: 2010.03.12/outbox.cif.g09.slc.cpg/sg64_27_cif.got.tgz:53249.got - 2010.04.10 20:19:32.
