data_PCOD8263456
_publ_section_title
;
Structure prediction by ZEFSAII (Michael W. Deem and Ramdas Pophale) SiO2 
 PCOD8263456
Probable space group: C M C A
;
_chemical_formula_sum "Si O2"
_cell_formula_units_Z 48
_cell_length_a 12.970466
_cell_length_b 14.369945
_cell_length_c 10.743486
_cell_angle_alpha 90.000000
_cell_angle_beta 90.000000
_cell_angle_gamma 90.000000
_cell_volume 2002.423382
_symmetry_space_group_name_H-M "C M C A"
_symmetry_group_IT_number 64
_symmetry_cell_setting 'orthorhombic'
loop_
_space_group_symop_operation_xyz
x,y,z
-x,1/2-y,1/2+z
x,-y,-z
-x,1/2+y,1/2-z
-x,-y,-z
x,1/2+y,1/2-z
-x,y,z
x,1/2-y,1/2+z
1/2+x,1/2+y,z
1/2-x,-y,1/2+z
1/2+x,1/2-y,-z
1/2-x,y,1/2-z
1/2-x,1/2-y,-z
1/2+x,y,1/2-z
1/2-x,1/2+y,z
1/2+x,-y,1/2+z
loop_
_atom_site_type_symbol
_atom_site_label
_atom_site_fract_x
_atom_site_fract_y
_atom_site_fract_z
Si Si1 0.620280 0.829749 0.587649
Si Si2 0.618850 0.452103 0.679513
Si Si3 0.193970 0.131745 0.567992
O O1 0.500000 0.841250 0.557941
O O2 0.657542 0.898381 0.697625
O O3 0.684559 0.855935 0.463821
O O4 0.647262 0.724644 0.629743
O O5 0.500000 0.478552 0.693622
O O6 0.682903 0.547541 0.664793
O O7 0.631592 0.386801 0.559264
#
# Coordination Sequence:
#
# PCOD8263456 Si02
#       3
#    16  16  16
#     4  10  21  38  64  97 129 165 210 260 315 376
#     4  10  20  38  65  94 125 165 210 255 312 377
#     4  10  20  39  66  92 126 165 208 261 315 372
#
# _framework density 23.970953999999999
#
# number of rings (size 3 to 8) (size 9 to 14) (size 15 to 20)
#    0.000    2.000    0.000    5.000    0.000    0.000 
#    0.000   30.000    0.000   28.000    0.000    0.000 
#    0.000    0.000    0.000    0.000    0.000    0.000 
#
# Total GULP energy -297696.914329 kJ/mol
# GULP energy per Si atom -12404.038097 kJ/mol
# Density = 2.391639 g / cm^3
# Si number density = 23.970954 Si / 1000 Ang^3
#
#
#
# Elastic Constant Matrix: (Units=GPa)
#
#
# Indices 1 2 3 4 5 6 
#
# 1 130.9095 68.5824 45.2353 0.0000 0.0000 0.0000
# 2 68.5824 212.8171 64.1592 0.0000 0.0000 0.0000
# 3 45.2353 64.1592 75.5860 0.0000 0.0000 0.0000
# 4 0.0000 0.0000 0.0000 38.6373 0.0000 0.0000
# 5 0.0000 0.0000 0.0000 0.0000 34.6074 0.0000
# 6 0.0000 0.0000 0.0000 0.0000 0.0000 32.1998
#
#
#
# Elastic Compliance Matrix: (Units=1/GPa)
#
#
# Indices 1 2 3 4 5 6 
#
# 1 0.010195 -0.001943 -0.004452 0.000000 0.000000 0.000000
# 2 -0.001943 0.006685 -0.004512 0.000000 0.000000 0.000000
# 3 -0.004452 -0.004512 0.019724 0.000000 0.000000 0.000000
# 4 0.000000 0.000000 0.000000 0.025882 0.000000 0.000000
# 5 0.000000 0.000000 0.000000 0.000000 0.028896 0.000000
# 6 0.000000 0.000000 0.000000 0.000000 0.000000 0.031056
#
#
# Mechanical properties :
#
#
# Convention : Reuss Voigt Hill
#
# Bulk Modulus (GPa) = 67.61037 86.14071 76.87554
# Shear Modulus (GPa) = 33.51617 37.17794 35.34706
#
# Velocity S-wave (km/s) = 3.74331 3.94249 3.84419
# Velocity P-wave (km/s) = 6.85197 7.53245 7.20025
#
# Compressibility (1/GPa) = 0.01479063
#
# Stress axis : x y z
#
# Youngs Moduli (GPa) = 98.08408 149.58234 50.70026
#
# Poissons Ratio (x) = 0.29070 0.22571
# Poissons Ratio (y) = 0.19062 0.22874
# Poissons Ratio (z) = 0.43666 0.67485
#
# Static dielectric constant tensor:
#      x y z
#    x 4.383760 0.000000 0.000000 
#    y 0.000000 4.450600 0.000000 
#    z 0.000000 0.000000 4.007170 
# 
# 
# High freq. dielectric constant tensor:
#      x y z
#    x 1.970250 0.000000 0.000000 
#    y 0.000000 1.960370 0.000000 
#    z 0.000000 0.000000 1.928040 
# 
# From -- ./inp_files/13650.got.cif
#   From: 2010.03.12/outbox.cif.g09.slc.cpg/sg64_7_cif.got.tgz:13650.got - 2010.04.10 20:19:32.
