data_PCOD8263241
_publ_section_title
;
Structure prediction by ZEFSAII (Michael W. Deem and Ramdas Pophale) SiO2 
 PCOD8263241
Probable space group: C M C A
;
_chemical_formula_sum "Si O2"
_cell_formula_units_Z 80
_cell_length_a 13.449154
_cell_length_b 23.984772
_cell_length_c 9.715351
_cell_angle_alpha 90.000000
_cell_angle_beta 90.000000
_cell_angle_gamma 90.000000
_cell_volume 3133.928302
_symmetry_space_group_name_H-M "C M C A"
_symmetry_group_IT_number 64
_symmetry_cell_setting 'orthorhombic'
loop_
_space_group_symop_operation_xyz
x,y,z
-x,1/2-y,1/2+z
x,-y,-z
-x,1/2+y,1/2-z
-x,-y,-z
x,1/2+y,1/2-z
-x,y,z
x,1/2-y,1/2+z
1/2+x,1/2+y,z
1/2-x,-y,1/2+z
1/2+x,1/2-y,-z
1/2-x,y,1/2-z
1/2-x,1/2-y,-z
1/2+x,y,1/2-z
1/2-x,1/2+y,z
1/2+x,-y,1/2+z
loop_
_atom_site_type_symbol
_atom_site_label
_atom_site_fract_x
_atom_site_fract_y
_atom_site_fract_z
Si Si1 0.381471 0.298915 0.507449
Si Si2 0.358023 0.479520 0.713488
Si Si3 0.892732 0.915537 0.961211
Si Si4 0.116684 0.300356 0.682807
Si Si5 0.177082 0.418860 0.052572
O O1 0.500000 0.298975 0.514722
O O2 0.335611 0.296704 0.663063
O O3 0.340200 0.247055 0.419120
O O4 0.344495 0.354028 0.427232
O O5 0.250000 0.458483 0.750000
O O6 0.421059 0.463310 0.847878
O O7 0.366241 0.545613 0.681082
O O8 0.383332 0.441906 0.579791
O O9 0.858563 0.859588 0.883265
O O10 0.797264 0.932245 0.053665
O O11 0.000000 0.906632 0.040096
O O12 0.000000 0.290915 0.699121
#
# Coordination Sequence:
#
# PCOD8263241 Si02
#       5
#    16  16  16  16  16
#     4  10  20  37  61  92 130 165 209 267 322 380
#     4   9  19  37  58  84 121 157 205 267 311 372
#     4  10  20  38  63  89 125 171 210 256 324 389
#     4   9  19  36  59  90 128 169 211 257 313 385
#     4  10  20  36  61  89 122 162 212 265 316 382
#
# _framework density 25.527069000000001
#
# number of rings (size 3 to 8) (size 9 to 14) (size 15 to 20)
#    0.000    2.400    2.000    0.000    0.000    1.600 
#    3.600   10.000    0.000    1.200    0.000    0.000 
#    0.000    0.000    0.000    0.000    0.000    0.000 
#
# Total GULP energy -495644.098068 kJ/mol
# GULP energy per Si atom -12391.102452 kJ/mol
# Density = 2.546897 g / cm^3
# Si number density = 25.527069 Si / 1000 Ang^3
#
#
#
# Elastic Constant Matrix: (Units=GPa)
#
#
# Indices 1 2 3 4 5 6 
#
# 1 55.3847 -2.0971 -0.7374 0.0000 0.0000 0.0000
# 2 -2.0971 159.0525 52.5499 0.0000 0.0000 0.0000
# 3 -0.7374 52.5499 52.6150 0.0000 0.0000 0.0000
# 4 0.0000 0.0000 0.0000 34.8600 0.0000 0.0000
# 5 0.0000 0.0000 0.0000 0.0000 17.5421 0.0000
# 6 0.0000 0.0000 0.0000 0.0000 0.0000 32.3509
#
#
#
# Elastic Compliance Matrix: (Units=1/GPa)
#
#
# Indices 1 2 3 4 5 6 
#
# 1 0.018065 0.000231 0.000023 0.000000 0.000000 0.000000
# 2 0.000231 0.009387 -0.009372 0.000000 0.000000 0.000000
# 3 0.000023 -0.009372 0.028367 0.000000 0.000000 0.000000
# 4 0.000000 0.000000 0.000000 0.028686 0.000000 0.000000
# 5 0.000000 0.000000 0.000000 0.000000 0.057006 0.000000
# 6 0.000000 0.000000 0.000000 0.000000 0.000000 0.030911
#
#
# Mechanical properties :
#
#
# Convention : Reuss Voigt Hill
#
# Bulk Modulus (GPa) = 26.60916 40.72033 33.66474
# Shear Modulus (GPa) = 24.60818 31.43972 28.02395
#
# Velocity S-wave (km/s) = 3.10821 3.51326 3.31692
# Velocity P-wave (km/s) = 4.82989 5.69594 5.28070
#
# Compressibility (1/GPa) = 0.03758105
#
# Stress axis : x y z
#
# Youngs Moduli (GPa) = 55.35701 106.53422 35.25282
#
# Poissons Ratio (x) = -0.02457 -0.00080
# Poissons Ratio (y) = -0.01277 0.33038
# Poissons Ratio (z) = -0.00126 0.99842
#
# Static dielectric constant tensor:
#      x y z
#    x 4.569390 0.000000 0.000000 
#    y 0.000000 4.497930 0.000000 
#    z 0.000000 0.000000 4.655480 
# 
# 
# High freq. dielectric constant tensor:
#      x y z
#    x 2.026170 0.000000 0.000000 
#    y 0.000000 2.019490 0.000000 
#    z 0.000000 0.000000 1.997270 
# 
# From -- ./inp_files/14479.got.cif
#   From: 2010.03.12/outbox.cif.g09.slc.cpg/sg64_8_cif.got.tgz:14479.got - 2010.04.10 20:19:32.
