data_PCOD8263828
_publ_section_title
;
Structure prediction by ZEFSAII (Michael W. Deem and Ramdas Pophale) SiO2 
 PCOD8263828
Probable space group: C M C A
;
_chemical_formula_sum "Si O2"
_cell_formula_units_Z 96
_cell_length_a 8.940596
_cell_length_b 29.606015
_cell_length_c 19.172859
_cell_angle_alpha 90.000000
_cell_angle_beta 90.000000
_cell_angle_gamma 90.000000
_cell_volume 5074.967952
_symmetry_space_group_name_H-M "C M C A"
_symmetry_group_IT_number 64
_symmetry_cell_setting 'orthorhombic'
loop_
_space_group_symop_operation_xyz
x,y,z
-x,1/2-y,1/2+z
x,-y,-z
-x,1/2+y,1/2-z
-x,-y,-z
x,1/2+y,1/2-z
-x,y,z
x,1/2-y,1/2+z
1/2+x,1/2+y,z
1/2-x,-y,1/2+z
1/2+x,1/2-y,-z
1/2-x,y,1/2-z
1/2-x,1/2-y,-z
1/2+x,y,1/2-z
1/2-x,1/2+y,z
1/2+x,-y,1/2+z
loop_
_atom_site_type_symbol
_atom_site_label
_atom_site_fract_x
_atom_site_fract_y
_atom_site_fract_z
Si Si1 0.175146 0.611427 0.593535
Si Si2 0.173573 0.129177 0.067473
Si Si3 0.173540 0.269361 0.567817
Si Si4 0.825746 0.932529 0.679005
Si Si5 0.324288 0.692800 0.675696
Si Si6 0.176045 0.463089 0.178106
O O1 0.207160 0.618218 0.512515
O O2 0.252356 0.651051 0.636196
O O3 0.249090 0.564027 0.614896
O O4 0.000000 0.611091 0.610616
O O5 0.229019 0.179966 0.083878
O O6 0.268841 0.095348 0.113568
O O7 0.000000 0.122712 0.085755
O O8 0.250000 0.250000 0.500000
O O9 0.210442 0.238691 0.634191
O O10 0.000000 0.270534 0.549732
O O11 0.750000 0.915167 0.750000
O O12 0.000000 0.924790 0.688006
O O13 0.786248 0.984666 0.665042
O O14 0.500000 0.683885 0.683603
O O15 0.250000 0.698936 0.750000
O O16 0.250000 0.446110 0.250000
O O17 0.000000 0.453641 0.181284
#
# Coordination Sequence:
#
# PCOD8263828 Si02
#       6
#    16  16  16  16  16  16
#     4  11  22  37  59  86 119 155 192 238 291 348
#     4  10  22  39  60  87 119 153 193 239 290 349
#     4  10  21  39  61  85 115 153 195 238 288 345
#     4  10  22  40  62  86 115 153 195 243 292 344
#     4  11  23  38  59  86 118 154 195 242 290 344
#     4  10  21  38  59  84 116 153 196 241 290 347
#
# _framework density 18.916376
#
# number of rings (size 3 to 8) (size 9 to 14) (size 15 to 20)
#    0.000    1.667    1.667    2.500    0.000    6.000 
#    0.000    5.000    0.000    0.000    0.000    0.000 
#    0.000    0.000    0.000    0.000    0.000    0.000 
#
# Total GULP energy -595443.907062 kJ/mol
# GULP energy per Si atom -12405.081397 kJ/mol
# Density = 1.887332 g / cm^3
# Si number density = 18.916376 Si / 1000 Ang^3
#
#
#
# Elastic Constant Matrix: (Units=GPa)
#
#
# Indices 1 2 3 4 5 6 
#
# 1 103.1931 63.7360 73.5131 0.0000 0.0000 0.0000
# 2 63.7360 121.1125 75.9620 0.0000 0.0000 0.0000
# 3 73.5131 75.9620 124.5497 0.0000 0.0000 0.0000
# 4 0.0000 0.0000 0.0000 39.1761 0.0000 0.0000
# 5 0.0000 0.0000 0.0000 0.0000 37.8425 0.0000
# 6 0.0000 0.0000 0.0000 0.0000 0.0000 33.0107
#
#
#
# Elastic Compliance Matrix: (Units=1/GPa)
#
#
# Indices 1 2 3 4 5 6 
#
# 1 0.018173 -0.004593 -0.007925 0.000000 0.000000 0.000000
# 2 -0.004593 0.014533 -0.006152 0.000000 0.000000 0.000000
# 3 -0.007925 -0.006152 0.016459 0.000000 0.000000 0.000000
# 4 0.000000 0.000000 0.000000 0.025526 0.000000 0.000000
# 5 0.000000 0.000000 0.000000 0.000000 0.026425 0.000000
# 6 0.000000 0.000000 0.000000 0.000000 0.000000 0.030293
#
#
# Mechanical properties :
#
#
# Convention : Reuss Voigt Hill
#
# Bulk Modulus (GPa) = 84.57674 86.14194 85.35934
# Shear Modulus (GPa) = 28.95341 31.04881 30.00111
#
# Velocity S-wave (km/s) = 3.91653 4.05578 3.98676
# Velocity P-wave (km/s) = 8.07838 8.22007 8.14954
#
# Compressibility (1/GPa) = 0.01182358
#
# Stress axis : x y z
#
# Youngs Moduli (GPa) = 55.02639 68.81019 60.75759
#
# Poissons Ratio (x) = 0.31605 0.48151
# Poissons Ratio (y) = 0.25274 0.37381
# Poissons Ratio (z) = 0.43609 0.42335
#
# Static dielectric constant tensor:
#      x y z
#    x 3.572360 0.000000 0.000000 
#    y 0.000000 3.713980 0.000000 
#    z 0.000000 0.000000 3.565540 
# 
# 
# High freq. dielectric constant tensor:
#      x y z
#    x 1.745330 0.000000 0.000000 
#    y 0.000000 1.746170 0.000000 
#    z 0.000000 0.000000 1.739470 
# 
# From -- ./inp_files/37124.got.cif
#   From: 2010.03.12/outbox.cif.g09.slc.cpg/sg64_19_cif.got.tgz:37124.got - 2010.04.10 20:19:32.
