data_PCOD8263321
_publ_section_title
;
Structure prediction by ZEFSAII (Michael W. Deem and Ramdas Pophale) SiO2 
 PCOD8263321
Probable space group: C M C A
;
_chemical_formula_sum "Si O2"
_cell_formula_units_Z 96
_cell_length_a 8.692157
_cell_length_b 25.150713
_cell_length_c 23.254982
_cell_angle_alpha 90.000000
_cell_angle_beta 90.000000
_cell_angle_gamma 90.000000
_cell_volume 5083.863381
_symmetry_space_group_name_H-M "C M C A"
_symmetry_group_IT_number 64
_symmetry_cell_setting 'orthorhombic'
loop_
_space_group_symop_operation_xyz
x,y,z
-x,1/2-y,1/2+z
x,-y,-z
-x,1/2+y,1/2-z
-x,-y,-z
x,1/2+y,1/2-z
-x,y,z
x,1/2-y,1/2+z
1/2+x,1/2+y,z
1/2-x,-y,1/2+z
1/2+x,1/2-y,-z
1/2-x,y,1/2-z
1/2-x,1/2-y,-z
1/2+x,y,1/2-z
1/2-x,1/2+y,z
1/2+x,-y,1/2+z
loop_
_atom_site_type_symbol
_atom_site_label
_atom_site_fract_x
_atom_site_fract_y
_atom_site_fract_z
Si Si1 0.822149 0.192944 0.989771
Si Si2 0.180803 0.248432 0.810930
Si Si3 0.676796 0.660931 0.115813
Si Si4 0.317361 0.056298 0.688909
Si Si5 0.681824 0.349253 0.375354
Si Si6 0.819800 0.063501 0.190395
O O1 0.731287 0.163139 0.940039
O O2 0.000000 0.199408 0.971974
O O3 0.750000 0.250000 0.000000
O O4 0.803319 0.158187 0.047346
O O5 0.250000 0.266152 0.750000
O O6 0.218912 0.292539 0.858483
O O7 0.249869 0.192321 0.830026
O O8 0.000000 0.242276 0.804973
O O9 0.500000 0.673290 0.132497
O O10 0.730874 0.603901 0.140217
O O11 0.500000 0.062469 0.689557
O O12 0.250000 0.074729 0.750000
O O13 0.245264 0.092497 0.639330
O O14 0.263269 0.995955 0.675238
O O15 0.500000 0.347689 0.370658
O O16 0.750000 0.084205 0.250000
O O17 0.000000 0.063059 0.198886
#
# Coordination Sequence:
#
# PCOD8263321 Si02
#       6
#    16  16  16  16  16  16
#     4  11  22  38  60  84 115 154 196 237 287 342
#     4  12  24  37  56  83 116 149 186 233 290 346
#     4  10  21  38  59  85 116 150 191 235 283 342
#     4  10  20  37  60  86 116 150 190 234 287 345
#     4  12  24  39  58  82 114 150 194 240 287 342
#     4   9  19  36  59  86 116 151 188 231 284 342
#
# _framework density 18.883277
#
# number of rings (size 3 to 8) (size 9 to 14) (size 15 to 20)
#    0.000    1.333    1.667    5.000    0.000    3.333 
#    0.000    0.833    0.000    5.000    0.000    0.000 
#    0.000    0.000    0.000    0.000    0.000    0.000 
#
# Total GULP energy -595449.770170 kJ/mol
# GULP energy per Si atom -12405.203545 kJ/mol
# Density = 1.884030 g / cm^3
# Si number density = 18.883277 Si / 1000 Ang^3
#
#
#
# Elastic Constant Matrix: (Units=GPa)
#
#
# Indices 1 2 3 4 5 6 
#
# 1 114.0265 38.4454 34.9156 0.0000 0.0000 0.0000
# 2 38.4454 108.4796 47.3331 0.0000 0.0000 0.0000
# 3 34.9156 47.3331 94.9858 0.0000 0.0000 0.0000
# 4 0.0000 0.0000 0.0000 41.5968 0.0000 0.0000
# 5 0.0000 0.0000 0.0000 0.0000 33.3030 0.0000
# 6 0.0000 0.0000 0.0000 0.0000 0.0000 25.7409
#
#
#
# Elastic Compliance Matrix: (Units=1/GPa)
#
#
# Indices 1 2 3 4 5 6 
#
# 1 0.010419 -0.002583 -0.002543 0.000000 0.000000 0.000000
# 2 -0.002583 0.012420 -0.005240 0.000000 0.000000 0.000000
# 3 -0.002543 -0.005240 0.014074 0.000000 0.000000 0.000000
# 4 0.000000 0.000000 0.000000 0.024040 0.000000 0.000000
# 5 0.000000 0.000000 0.000000 0.000000 0.030027 0.000000
# 6 0.000000 0.000000 0.000000 0.000000 0.000000 0.038849
#
#
# Mechanical properties :
#
#
# Convention : Reuss Voigt Hill
#
# Bulk Modulus (GPa) = 61.79739 62.09780 61.94759
# Shear Modulus (GPa) = 32.06063 33.24798 32.65431
#
# Velocity S-wave (km/s) = 4.12495 4.20063 4.16296
# Velocity P-wave (km/s) = 7.44875 7.51555 7.48223
#
# Compressibility (1/GPa) = 0.01618191
#
# Stress axis : x y z
#
# Youngs Moduli (GPa) = 95.97421 80.51533 71.05516
#
# Poissons Ratio (x) = 0.20798 0.18068
# Poissons Ratio (y) = 0.24792 0.37230
# Poissons Ratio (z) = 0.24405 0.42187
#
# Static dielectric constant tensor:
#      x y z
#    x 3.530530 0.000000 0.000000 
#    y 0.000000 3.641100 0.000000 
#    z 0.000000 0.000000 3.611530 
# 
# 
# High freq. dielectric constant tensor:
#      x y z
#    x 1.744230 0.000000 0.000000 
#    y 0.000000 1.734200 0.000000 
#    z 0.000000 0.000000 1.733470 
# 
# From -- ./inp_files/37038.got.cif
#   From: 2010.03.12/outbox.cif.g09.slc.cpg/sg64_19_cif.got.tgz:37038.got - 2010.04.10 20:19:32.
