data_PCOD8263392
_publ_section_title
;
Structure prediction by ZEFSAII (Michael W. Deem and Ramdas Pophale) SiO2 
 PCOD8263392
Probable space group: C M C A
;
_chemical_formula_sum "Si O2"
_cell_formula_units_Z 96
_cell_length_a 18.022591
_cell_length_b 27.923867
_cell_length_c 9.707347
_cell_angle_alpha 90.000000
_cell_angle_beta 90.000000
_cell_angle_gamma 90.000000
_cell_volume 4885.323665
_symmetry_space_group_name_H-M "C M C A"
_symmetry_group_IT_number 64
_symmetry_cell_setting 'orthorhombic'
loop_
_space_group_symop_operation_xyz
x,y,z
-x,1/2-y,1/2+z
x,-y,-z
-x,1/2+y,1/2-z
-x,-y,-z
x,1/2+y,1/2-z
-x,y,z
x,1/2-y,1/2+z
1/2+x,1/2+y,z
1/2-x,-y,1/2+z
1/2+x,1/2-y,-z
1/2-x,y,1/2-z
1/2-x,1/2-y,-z
1/2+x,y,1/2-z
1/2-x,1/2+y,z
1/2+x,-y,1/2+z
loop_
_atom_site_type_symbol
_atom_site_label
_atom_site_fract_x
_atom_site_fract_y
_atom_site_fract_z
Si Si1 0.334685 0.386950 0.229327
Si Si2 0.181478 0.946344 0.965135
Si Si3 0.912161 0.206042 0.152653
Si Si4 0.647517 0.054940 0.997655
Si Si5 0.588159 0.292329 0.160174
Si Si6 0.585329 0.102417 0.248212
O O1 0.250000 0.371116 0.250000
O O2 0.358042 0.425763 0.342837
O O3 0.385137 0.340073 0.236981
O O4 0.348032 0.411193 0.082627
O O5 0.269310 0.941466 0.942804
O O6 0.138089 0.934406 0.826692
O O7 0.159583 0.000000 0.000000
O O8 0.880388 0.247943 0.250580
O O9 0.886933 0.156202 0.221182
O O10 0.000000 0.209839 0.147667
O O11 0.880608 0.210791 0.996634
O O12 0.594370 0.089086 0.087900
O O13 0.619753 0.000000 0.000000
O O14 0.500000 0.292555 0.158088
O O15 0.500000 0.096415 0.293999
#
# Coordination Sequence:
#
# PCOD8263392 Si02
#       6
#    16  16  16  16  16  16
#     4  10  21  37  58  86 116 146 194 245 283 332
#     4  10  20  39  63  82 111 156 199 232 280 346
#     4   9  20  36  58  84 110 148 190 231 283 348
#     4  10  22  39  59  84 116 159 196 229 281 346
#     4  10  20  38  60  81 110 150 193 232 285 348
#     4  11  22  37  58  89 120 145 190 243 287 335
#
# _framework density 19.650694999999999
#
# number of rings (size 3 to 8) (size 9 to 14) (size 15 to 20)
#    0.000    2.000    1.667    1.500    2.333    4.000 
#    0.000    4.167    0.000    0.000    0.000    0.000 
#    0.000    0.000    0.000    0.000    0.000    0.000 
#
# Total GULP energy -595330.186580 kJ/mol
# GULP energy per Si atom -12402.712220 kJ/mol
# Density = 1.960597 g / cm^3
# Si number density = 19.650695 Si / 1000 Ang^3
#
#
#
# Elastic Constant Matrix: (Units=GPa)
#
#
# Indices 1 2 3 4 5 6 
#
# 1 27.7242 26.8178 18.0739 0.0000 0.0000 0.0000
# 2 26.8178 146.4243 43.2712 0.0000 0.0000 0.0000
# 3 18.0739 43.2712 91.4877 0.0000 0.0000 0.0000
# 4 0.0000 0.0000 0.0000 38.7630 0.0000 0.0000
# 5 0.0000 0.0000 0.0000 0.0000 27.6435 0.0000
# 6 0.0000 0.0000 0.0000 0.0000 0.0000 29.8736
#
#
#
# Elastic Compliance Matrix: (Units=1/GPa)
#
#
# Indices 1 2 3 4 5 6 
#
# 1 0.046503 -0.006745 -0.005997 0.000000 0.000000 0.000000
# 2 -0.006745 0.008917 -0.002885 0.000000 0.000000 0.000000
# 3 -0.005997 -0.002885 0.013480 0.000000 0.000000 0.000000
# 4 0.000000 0.000000 0.000000 0.025798 0.000000 0.000000
# 5 0.000000 0.000000 0.000000 0.000000 0.036175 0.000000
# 6 0.000000 0.000000 0.000000 0.000000 0.000000 0.033474
#
#
# Mechanical properties :
#
#
# Convention : Reuss Voigt Hill
#
# Bulk Modulus (GPa) = 26.56281 49.10687 37.83484
# Shear Modulus (GPa) = 24.02109 31.08757 27.55433
#
# Velocity S-wave (km/s) = 3.50008 3.98176 3.74867
# Velocity P-wave (km/s) = 5.46635 6.79584 6.16702
#
# Compressibility (1/GPa) = 0.03764662
#
# Stress axis : x y z
#
# Youngs Moduli (GPa) = 21.50381 112.13960 74.18532
#
# Poissons Ratio (x) = 0.75638 0.44487
# Poissons Ratio (y) = 0.14504 0.21404
# Poissons Ratio (z) = 0.12895 0.32355
#
# Static dielectric constant tensor:
#      x y z
#    x 3.261320 0.000000 0.000000 
#    y 0.000000 3.653800 0.000000 
#    z 0.000000 0.000000 3.915010 
# 
# 
# High freq. dielectric constant tensor:
#      x y z
#    x 1.735870 0.000000 0.000000 
#    y 0.000000 1.775890 0.000000 
#    z 0.000000 0.000000 1.776780 
# 
# From -- ./inp_files/8367.got.cif
#   From: 2010.03.12/outbox.cif.g09.slc.cpg/sg64_5_cif.got.tgz:8367.got - 2010.04.10 20:19:32.
