data_PCOD8263539
_publ_section_title
;
Structure prediction by ZEFSAII (Michael W. Deem and Ramdas Pophale) SiO2 
 PCOD8263539
Probable space group: C M C A
;
_chemical_formula_sum "Si O2"
_cell_formula_units_Z 96
_cell_length_a 8.958181
_cell_length_b 19.234101
_cell_length_c 29.287922
_cell_angle_alpha 90.000000
_cell_angle_beta 90.000000
_cell_angle_gamma 90.000000
_cell_volume 5046.383883
_symmetry_space_group_name_H-M "C M C A"
_symmetry_group_IT_number 64
_symmetry_cell_setting 'orthorhombic'
loop_
_space_group_symop_operation_xyz
x,y,z
-x,1/2-y,1/2+z
x,-y,-z
-x,1/2+y,1/2-z
-x,-y,-z
x,1/2+y,1/2-z
-x,y,z
x,1/2-y,1/2+z
1/2+x,1/2+y,z
1/2-x,-y,1/2+z
1/2+x,1/2-y,-z
1/2-x,y,1/2-z
1/2-x,1/2-y,-z
1/2+x,y,1/2-z
1/2-x,1/2+y,z
1/2+x,-y,1/2+z
loop_
_atom_site_type_symbol
_atom_site_label
_atom_site_fract_x
_atom_site_fract_y
_atom_site_fract_z
Si Si1 0.824608 0.104400 0.296777
Si Si2 0.324013 0.145228 0.617749
Si Si3 0.173824 0.014990 0.126879
Si Si4 0.175152 0.762652 0.203163
Si Si5 0.834022 0.069682 0.028307
Si Si6 0.175479 0.814534 0.475712
O O1 0.750000 0.079849 0.250000
O O2 0.776822 0.183571 0.308575
O O3 0.000000 0.098021 0.291129
O O4 0.771655 0.052511 0.335525
O O5 0.500000 0.152499 0.608838
O O6 0.277693 0.065300 0.624261
O O7 0.271489 0.187875 0.662184
O O8 0.239737 0.177458 0.574855
O O9 0.000000 0.021256 0.139289
O O10 0.212141 0.052974 0.079774
O O11 0.250000 0.788387 0.250000
O O12 0.000000 0.768555 0.210438
O O13 0.000000 0.103917 0.026395
O O14 0.710388 0.118957 0.006723
O O15 0.837844 0.000000 0.000000
O O16 0.250000 0.750000 0.500000
O O17 0.000000 0.803570 0.472504
#
# Coordination Sequence:
#
# PCOD8263539 Si02
#       6
#    16  16  16  16  16  16
#     4  10  21  38  59  86 117 151 196 244 294 351
#     4  10  21  41  62  86 120 157 196 240 298 355
#     4  10  21  37  61  88 119 156 192 237 296 357
#     4   9  20  38  61  85 114 151 192 240 293 349
#     4  10  20  40  64  87 120 161 197 236 295 357
#     4  12  26  41  60  88 121 159 203 250 296 348
#
# _framework density 19.023523000000001
#
# number of rings (size 3 to 8) (size 9 to 14) (size 15 to 20)
#    0.000    1.833    1.667    2.000    2.333    3.667 
#    0.000    1.667    0.000    0.000    0.000    0.000 
#    0.000    0.000    0.000    0.000    0.000    0.000 
#
# Total GULP energy -595359.429018 kJ/mol
# GULP energy per Si atom -12403.321438 kJ/mol
# Density = 1.898023 g / cm^3
# Si number density = 19.023523 Si / 1000 Ang^3
#
#
#
# Elastic Constant Matrix: (Units=GPa)
#
#
# Indices 1 2 3 4 5 6 
#
# 1 81.7624 48.5292 69.3643 0.0000 0.0000 0.0000
# 2 48.5292 95.7594 79.3508 0.0000 0.0000 0.0000
# 3 69.3643 79.3508 168.6863 0.0000 0.0000 0.0000
# 4 0.0000 0.0000 0.0000 35.2498 0.0000 0.0000
# 5 0.0000 0.0000 0.0000 0.0000 224.4735 0.0000
# 6 0.0000 0.0000 0.0000 0.0000 0.0000 32.0077
#
#
#
# Elastic Compliance Matrix: (Units=1/GPa)
#
#
# Indices 1 2 3 4 5 6 
#
# 1 0.020444 -0.005563 -0.005790 0.000000 0.000000 0.000000
# 2 -0.005563 0.018628 -0.006475 0.000000 0.000000 0.000000
# 3 -0.005790 -0.006475 0.011355 0.000000 0.000000 0.000000
# 4 0.000000 0.000000 0.000000 0.028369 0.000000 0.000000
# 5 0.000000 0.000000 0.000000 0.000000 0.004455 0.000000
# 6 0.000000 0.000000 0.000000 0.000000 0.000000 0.031242
#
#
# Mechanical properties :
#
#
# Convention : Reuss Voigt Hill
#
# Bulk Modulus (GPa) = 67.70041 82.29964 75.00002
# Shear Modulus (GPa) = 32.24295 68.27712 50.26003
#
# Velocity S-wave (km/s) = 4.12138 5.99740 5.14561
# Velocity P-wave (km/s) = 7.63628 9.55585 8.64948
#
# Compressibility (1/GPa) = 0.01477096
#
# Stress axis : x y z
#
# Youngs Moduli (GPa) = 48.91309 53.68385 88.06821
#
# Poissons Ratio (x) = 0.29865 0.50991
# Poissons Ratio (y) = 0.27211 0.57024
# Poissons Ratio (z) = 0.28320 0.34760
#
# Static dielectric constant tensor:
#      x y z
#    x 3.596100 0.000000 0.000000 
#    y 0.000000 3.616330 0.000000 
#    z 0.000000 0.000000 1.101030 
# 
# 
# High freq. dielectric constant tensor:
#      x y z
#    x 1.734360 0.000000 0.000000 
#    y 0.000000 1.744110 0.000000 
#    z 0.000000 0.000000 1.753130 
# 
# From -- ./inp_files/48163.got.cif
#   From: 2010.03.12/outbox.cif.g09.slc.cpg/sg64_25_cif.got.tgz:48163.got - 2010.04.10 20:19:32.
