data_PCOD8263230
_publ_section_title
;
Structure prediction by ZEFSAII (Michael W. Deem and Ramdas Pophale) SiO2 
 PCOD8263230
Probable space group: C M C A
;
_chemical_formula_sum "Si O2"
_cell_formula_units_Z 64
_cell_length_a 20.464901
_cell_length_b 8.130498
_cell_length_c 16.280186
_cell_angle_alpha 90.000000
_cell_angle_beta 90.000000
_cell_angle_gamma 90.000000
_cell_volume 2708.857489
_symmetry_space_group_name_H-M "C M C A"
_symmetry_group_IT_number 64
_symmetry_cell_setting 'orthorhombic'
loop_
_space_group_symop_operation_xyz
x,y,z
-x,1/2-y,1/2+z
x,-y,-z
-x,1/2+y,1/2-z
-x,-y,-z
x,1/2+y,1/2-z
-x,y,z
x,1/2-y,1/2+z
1/2+x,1/2+y,z
1/2-x,-y,1/2+z
1/2+x,1/2-y,-z
1/2-x,y,1/2-z
1/2-x,1/2-y,-z
1/2+x,y,1/2-z
1/2-x,1/2+y,z
1/2+x,-y,1/2+z
loop_
_atom_site_type_symbol
_atom_site_label
_atom_site_fract_x
_atom_site_fract_y
_atom_site_fract_z
Si Si1 0.297294 0.115160 0.663192
Si Si2 0.200037 0.799738 0.929321
Si Si3 0.126115 0.093392 0.279774
Si Si4 0.072842 0.704489 0.868172
O O1 0.227381 0.210291 0.655010
O O2 0.351539 0.259977 0.659951
O O3 0.303343 0.997040 0.583104
O O4 0.309921 0.009495 0.746546
O O5 0.126348 0.730573 0.941232
O O6 0.250000 0.750000 0.000000
O O7 0.086333 0.158760 0.201375
O O8 0.078147 0.978044 0.331373
O O9 0.000000 0.728498 0.903871
#
# Coordination Sequence:
#
# PCOD8263230 Si02
#       4
#    16  16  16  16
#     4  10  21  36  59  87 118 153 198 258 305 352
#     4  11  23  38  59  86 121 165 213 249 289 357
#     4   9  20  36  59  93 122 151 197 255 321 374
#     4  10  20  36  60  89 125 162 200 255 318 375
#
# _framework density 23.626196
#
# number of rings (size 3 to 8) (size 9 to 14) (size 15 to 20)
#    0.000    2.000    0.000    3.000    0.000   17.000 
#    0.000    1.250    0.000   30.000    0.000    0.000 
#    0.000    0.000    0.000    0.000    0.000    0.000 
#
# Total GULP energy -396476.157209 kJ/mol
# GULP energy per Si atom -12389.879913 kJ/mol
# Density = 2.357242 g / cm^3
# Si number density = 23.626196 Si / 1000 Ang^3
#
#
#
# Elastic Constant Matrix: (Units=GPa)
#
#
# Indices 1 2 3 4 5 6 
#
# 1 202.9897 50.7354 43.1261 0.0000 0.0000 0.0000
# 2 50.7354 132.2345 18.6174 0.0000 0.0000 0.0000
# 3 43.1261 18.6174 43.9311 0.0000 0.0000 0.0000
# 4 0.0000 0.0000 0.0000 18.2206 0.0000 0.0000
# 5 0.0000 0.0000 0.0000 0.0000 33.6865 0.0000
# 6 0.0000 0.0000 0.0000 0.0000 0.0000 25.7972
#
#
#
# Elastic Compliance Matrix: (Units=1/GPa)
#
#
# Indices 1 2 3 4 5 6 
#
# 1 0.006571 -0.001715 -0.005724 0.000000 0.000000 0.000000
# 2 -0.001715 0.008490 -0.001914 0.000000 0.000000 0.000000
# 3 -0.005724 -0.001914 0.029193 0.000000 0.000000 0.000000
# 4 0.000000 0.000000 0.000000 0.054883 0.000000 0.000000
# 5 0.000000 0.000000 0.000000 0.000000 0.029685 0.000000
# 6 0.000000 0.000000 0.000000 0.000000 0.000000 0.038764
#
#
# Mechanical properties :
#
#
# Convention : Reuss Voigt Hill
#
# Bulk Modulus (GPa) = 39.14241 67.12368 53.13305
# Shear Modulus (GPa) = 25.66624 33.31930 29.49277
#
# Velocity S-wave (km/s) = 3.29955 3.75943 3.53697
# Velocity P-wave (km/s) = 5.57848 6.87872 6.26244
#
# Compressibility (1/GPa) = 0.02554773
#
# Stress axis : x y z
#
# Youngs Moduli (GPa) = 152.18074 117.78653 34.25488
#
# Poissons Ratio (x) = 0.20204 0.19607
# Poissons Ratio (y) = 0.26104 0.06556
# Poissons Ratio (z) = 0.87105 0.22544
#
# Static dielectric constant tensor:
#      x y z
#    x 4.111690 0.000000 0.000000 
#    y 0.000000 4.852770 0.000000 
#    z 0.000000 0.000000 3.932400 
# 
# 
# High freq. dielectric constant tensor:
#      x y z
#    x 1.914290 0.000000 0.000000 
#    y 0.000000 1.969780 0.000000 
#    z 0.000000 0.000000 1.899100 
# 
# From -- ./inp_files/33890.got.cif
#   From: 2010.03.12/outbox.cif.g09.slc.cpg/sg64_17_cif.got.tgz:33890.got - 2010.04.10 20:19:32.
