data_PCOD8263624
_publ_section_title
;
Structure prediction by ZEFSAII (Michael W. Deem and Ramdas Pophale) SiO2 
 PCOD8263624
Probable space group: C M C A
;
_chemical_formula_sum "Si O2"
_cell_formula_units_Z 96
_cell_length_a 14.923728
_cell_length_b 16.761170
_cell_length_c 20.086324
_cell_angle_alpha 90.000000
_cell_angle_beta 90.000000
_cell_angle_gamma 90.000000
_cell_volume 5024.375852
_symmetry_space_group_name_H-M "C M C A"
_symmetry_group_IT_number 64
_symmetry_cell_setting 'orthorhombic'
loop_
_space_group_symop_operation_xyz
x,y,z
-x,1/2-y,1/2+z
x,-y,-z
-x,1/2+y,1/2-z
-x,-y,-z
x,1/2+y,1/2-z
-x,y,z
x,1/2-y,1/2+z
1/2+x,1/2+y,z
1/2-x,-y,1/2+z
1/2+x,1/2-y,-z
1/2-x,y,1/2-z
1/2-x,1/2-y,-z
1/2+x,y,1/2-z
1/2-x,1/2+y,z
1/2+x,-y,1/2+z
loop_
_atom_site_type_symbol
_atom_site_label
_atom_site_fract_x
_atom_site_fract_y
_atom_site_fract_z
Si Si1 0.103967 0.196626 0.949653
Si Si2 0.254025 0.438807 0.059915
Si Si3 0.101938 0.692700 0.316251
Si Si4 0.397217 0.317132 0.664660
Si Si5 0.253704 0.938484 0.673267
Si Si6 0.102932 0.811939 0.429570
O O1 0.160298 0.116281 0.952124
O O2 0.131575 0.246265 0.884236
O O3 0.000000 0.172573 0.948430
O O4 0.128191 0.248315 0.014029
O O5 0.267596 0.483198 0.129774
O O6 0.162403 0.389748 0.062452
O O7 0.246219 0.500000 0.000000
O O8 0.119929 0.714524 0.239341
O O9 0.163933 0.620753 0.340205
O O10 0.122791 0.771975 0.358179
O O11 0.000000 0.664498 0.328080
O O12 0.500000 0.342137 0.652339
O O13 0.338132 0.395307 0.651044
O O14 0.250000 0.965164 0.750000
O O15 0.000000 0.838935 0.436306
#
# Coordination Sequence:
#
# PCOD8263624 Si02
#       6
#    16  16  16  16  16  16
#     4  10  21  37  57  78 101 135 179 221 257 299
#     4  12  24  35  52  79 110 141 170 209 264 316
#     4   9  18  35  58  79 101 135 177 216 254 301
#     4   9  18  35  58  79 101 135 177 216 254 301
#     4  10  21  35  53  79 110 141 169 205 259 316
#     4  10  21  37  57  78 101 135 179 221 257 299
#
# _framework density 19.106850999999999
#
# number of rings (size 3 to 8) (size 9 to 14) (size 15 to 20)
#    0.000    2.000    0.000    3.500    0.000    3.333 
#    0.000    0.000    0.000    0.000    0.000    0.000 
#    0.000    0.000    0.000    0.000    0.000    0.000 
#
# Total GULP energy -595428.416052 kJ/mol
# GULP energy per Si atom -12404.758668 kJ/mol
# Density = 1.906336 g / cm^3
# Si number density = 19.106851 Si / 1000 Ang^3
#
#
#
# Elastic Constant Matrix: (Units=GPa)
#
#
# Indices 1 2 3 4 5 6 
#
# 1 43.1094 6.4121 8.2224 0.0000 0.0000 0.0000
# 2 6.4121 60.1268 25.9542 0.0000 0.0000 0.0000
# 3 8.2224 25.9542 81.7929 0.0000 0.0000 0.0000
# 4 0.0000 0.0000 0.0000 36.7842 0.0000 0.0000
# 5 0.0000 0.0000 0.0000 0.0000 22.7794 0.0000
# 6 0.0000 0.0000 0.0000 0.0000 0.0000 19.6855
#
#
#
# Elastic Compliance Matrix: (Units=1/GPa)
#
#
# Indices 1 2 3 4 5 6 
#
# 1 0.023807 -0.001745 -0.001840 0.000000 0.000000 0.000000
# 2 -0.001745 0.019399 -0.005980 0.000000 0.000000 0.000000
# 3 -0.001840 -0.005980 0.014309 0.000000 0.000000 0.000000
# 4 0.000000 0.000000 0.000000 0.027186 0.000000 0.000000
# 5 0.000000 0.000000 0.000000 0.000000 0.043899 0.000000
# 6 0.000000 0.000000 0.000000 0.000000 0.000000 0.050799
#
#
# Mechanical properties :
#
#
# Convention : Reuss Voigt Hill
#
# Bulk Modulus (GPa) = 26.05151 29.57850 27.81500
# Shear Modulus (GPa) = 23.66049 25.47920 24.56985
#
# Velocity S-wave (km/s) = 3.52280 3.65569 3.58986
# Velocity P-wave (km/s) = 5.49646 5.77347 5.63667
#
# Compressibility (1/GPa) = 0.03838550
#
# Stress axis : x y z
#
# Youngs Moduli (GPa) = 42.00414 51.54909 69.88823
#
# Poissons Ratio (x) = 0.08994 0.12857
# Poissons Ratio (y) = 0.07329 0.41795
# Poissons Ratio (z) = 0.07727 0.30827
#
# Static dielectric constant tensor:
#      x y z
#    x 3.676310 0.000000 0.000000 
#    y 0.000000 3.238270 0.000000 
#    z 0.000000 0.000000 3.728510 
# 
# 
# High freq. dielectric constant tensor:
#      x y z
#    x 1.759640 0.000000 0.000000 
#    y 0.000000 1.721000 0.000000 
#    z 0.000000 0.000000 1.761190 
# 
# From -- ./inp_files/39153.got.cif
#   From: 2010.03.12/outbox.cif.g09.slc.cpg/sg64_20_cif.got.tgz:39153.got - 2010.04.10 20:19:32.
