data_PCOD8263293
_publ_section_title
;
Structure prediction by ZEFSAII (Michael W. Deem and Ramdas Pophale) SiO2 
 PCOD8263293
Probable space group: C M C A
;
_chemical_formula_sum "Si O2"
_cell_formula_units_Z 112
_cell_length_a 17.680132
_cell_length_b 16.613238
_cell_length_c 19.754176
_cell_angle_alpha 90.000000
_cell_angle_beta 90.000000
_cell_angle_gamma 90.000000
_cell_volume 5802.280348
_symmetry_space_group_name_H-M "C M C A"
_symmetry_group_IT_number 64
_symmetry_cell_setting 'orthorhombic'
loop_
_space_group_symop_operation_xyz
x,y,z
-x,1/2-y,1/2+z
x,-y,-z
-x,1/2+y,1/2-z
-x,-y,-z
x,1/2+y,1/2-z
-x,y,z
x,1/2-y,1/2+z
1/2+x,1/2+y,z
1/2-x,-y,1/2+z
1/2+x,1/2-y,-z
1/2-x,y,1/2-z
1/2-x,1/2-y,-z
1/2+x,y,1/2-z
1/2-x,1/2+y,z
1/2+x,-y,1/2+z
loop_
_atom_site_type_symbol
_atom_site_label
_atom_site_fract_x
_atom_site_fract_y
_atom_site_fract_z
Si Si1 0.410684 0.532793 0.720504
Si Si2 0.157958 0.696886 0.815382
Si Si3 0.789421 0.585175 0.178100
Si Si4 0.677726 0.737406 0.832157
Si Si5 0.410328 0.361635 0.060712
Si Si6 0.355974 0.008488 0.365115
Si Si7 0.086472 0.174004 0.090270
O O1 0.500000 0.519885 0.717091
O O2 0.387129 0.613414 0.680964
O O3 0.370540 0.457605 0.684023
O O4 0.381020 0.539257 0.797421
O O5 0.247298 0.681433 0.828079
O O6 0.141457 0.739355 0.743013
O O7 0.132105 0.755186 0.874799
O O8 0.750000 0.599215 0.250000
O O9 0.801365 0.672180 0.144373
O O10 0.733072 0.530367 0.133399
O O11 0.618419 0.703239 0.885382
O O12 0.500000 0.369146 0.066785
O O13 0.373725 0.449292 0.072891
O O14 0.384178 0.334230 0.986505
O O15 0.404009 0.090112 0.370247
O O16 0.000000 0.199654 0.091848
#
# Coordination Sequence:
#
# PCOD8263293 Si02
#       7
#    16  16  16  16  16  16  16
#     4  11  22  34  59  91 118 154 198 249 303 349
#     4  11  21  38  60  88 117 157 201 247 294 354
#     4  10  20  37  58  86 119 155 199 247 296 348
#     4  11  21  39  62  88 119 156 201 244 298 347
#     4  11  24  38  60  91 124 158 194 247 302 354
#     4  11  20  38  58  87 121 156 200 240 297 361
#     4  11  23  39  60  88 126 161 193 244 303 361
#
# _framework density 19.302757
#
# number of rings (size 3 to 8) (size 9 to 14) (size 15 to 20)
#    0.000    1.143    4.286    3.857    4.000    2.857 
#    0.000    0.000    0.000    0.000    0.000    3.000 
#    0.000    0.000    0.000    0.000    0.000    0.000 
#
# Total GULP energy -694629.274373 kJ/mol
# GULP energy per Si atom -12404.094185 kJ/mol
# Density = 1.925882 g / cm^3
# Si number density = 19.302757 Si / 1000 Ang^3
#
#
#
# Elastic Constant Matrix: (Units=GPa)
#
#
# Indices 1 2 3 4 5 6 
#
# 1 95.1020 31.2346 18.0036 0.0000 0.0000 0.0000
# 2 31.2346 97.3802 16.9142 0.0000 0.0000 0.0000
# 3 18.0036 16.9142 65.9829 0.0000 0.0000 0.0000
# 4 0.0000 0.0000 0.0000 26.7258 0.0000 0.0000
# 5 0.0000 0.0000 0.0000 0.0000 26.1404 0.0000
# 6 0.0000 0.0000 0.0000 0.0000 0.0000 23.6203
#
#
#
# Elastic Compliance Matrix: (Units=1/GPa)
#
#
# Indices 1 2 3 4 5 6 
#
# 1 0.012110 -0.003465 -0.002416 0.000000 0.000000 0.000000
# 2 -0.003465 0.011739 -0.002064 0.000000 0.000000 0.000000
# 3 -0.002416 -0.002064 0.016344 0.000000 0.000000 0.000000
# 4 0.000000 0.000000 0.000000 0.037417 0.000000 0.000000
# 5 0.000000 0.000000 0.000000 0.000000 0.038255 0.000000
# 6 0.000000 0.000000 0.000000 0.000000 0.000000 0.042337
#
#
# Mechanical properties :
#
#
# Convention : Reuss Voigt Hill
#
# Bulk Modulus (GPa) = 41.14633 43.41888 42.28260
# Shear Modulus (GPa) = 27.44358 28.11814 27.78086
#
# Velocity S-wave (km/s) = 3.77469 3.82080 3.79782
# Velocity P-wave (km/s) = 6.35298 6.48129 6.41746
#
# Compressibility (1/GPa) = 0.02430351
#
# Stress axis : x y z
#
# Youngs Moduli (GPa) = 82.57400 85.18761 61.18553
#
# Poissons Ratio (x) = 0.29515 0.14784
# Poissons Ratio (y) = 0.28609 0.12627
# Poissons Ratio (z) = 0.19951 0.17581
#
# Static dielectric constant tensor:
#      x y z
#    x 3.548440 0.000000 0.000000 
#    y 0.000000 3.517820 0.000000 
#    z 0.000000 0.000000 3.426300 
# 
# 
# High freq. dielectric constant tensor:
#      x y z
#    x 1.752020 0.000000 0.000000 
#    y 0.000000 1.759750 0.000000 
#    z 0.000000 0.000000 1.726710 
# 
# From -- ./inp_files/40401.got.cif
#   From: 2010.03.12/outbox.cif.g09.slc.cpg/sg64_21_cif.got.tgz:40401.got - 2010.04.10 20:19:32.
