data_PCOD8263041
_publ_section_title
;
Structure prediction by ZEFSAII (Michael W. Deem and Ramdas Pophale) SiO2 
 PCOD8263041
Probable space group: C M C A
;
_chemical_formula_sum "Si O2"
_cell_formula_units_Z 80
_cell_length_a 8.917680
_cell_length_b 15.693670
_cell_length_c 28.819247
_cell_angle_alpha 90.000000
_cell_angle_beta 90.000000
_cell_angle_gamma 90.000000
_cell_volume 4033.286099
_symmetry_space_group_name_H-M "C M C A"
_symmetry_group_IT_number 64
_symmetry_cell_setting 'orthorhombic'
loop_
_space_group_symop_operation_xyz
x,y,z
-x,1/2-y,1/2+z
x,-y,-z
-x,1/2+y,1/2-z
-x,-y,-z
x,1/2+y,1/2-z
-x,y,z
x,1/2-y,1/2+z
1/2+x,1/2+y,z
1/2-x,-y,1/2+z
1/2+x,1/2-y,-z
1/2-x,y,1/2-z
1/2-x,1/2-y,-z
1/2+x,y,1/2-z
1/2-x,1/2+y,z
1/2+x,-y,1/2+z
loop_
_atom_site_type_symbol
_atom_site_label
_atom_site_fract_x
_atom_site_fract_y
_atom_site_fract_z
Si Si1 0.328654 0.976721 0.854116
Si Si2 0.324164 0.781362 0.453332
Si Si3 0.670253 0.454554 0.452999
Si Si4 0.177732 0.212389 0.357337
Si Si5 0.322310 0.626806 0.799833
O O1 0.500000 0.992366 0.837835
O O2 0.273329 0.881555 0.839839
O O3 0.318269 0.980851 0.909942
O O4 0.222368 0.045570 0.830485
O O5 0.500000 0.771102 0.458884
O O6 0.250000 0.750000 0.500000
O O7 0.283669 0.878555 0.443112
O O8 0.262319 0.727381 0.409595
O O9 0.722494 0.500000 0.500000
O O10 0.500000 0.420192 0.458631
O O11 0.240078 0.286027 0.323194
O O12 0.000000 0.219256 0.358590
O O13 0.500000 0.628473 0.795044
O O14 0.250000 0.617258 0.750000
#
# Coordination Sequence:
#
# PCOD8263041 Si02
#       5
#    16  16  16  16  16
#     4  10  20  38  63  89 120 159 201 244 299 361
#     4  11  21  36  57  85 122 162 204 249 300 357
#     4  10  20  35  57  86 123 163 203 246 300 359
#     4   9  20  39  62  86 121 160 196 245 302 357
#     4  11  23  42  64  89 120 156 201 253 308 358
#
# _framework density 19.834942999999999
#
# number of rings (size 3 to 8) (size 9 to 14) (size 15 to 20)
#    0.000    1.800    2.000    2.400    0.000    4.400 
#    0.000    8.000    0.000    0.000    0.000    0.000 
#    0.000    0.000    0.000    0.000    0.000    0.000 
#
# Total GULP energy -496012.081576 kJ/mol
# GULP energy per Si atom -12400.302039 kJ/mol
# Density = 1.978980 g / cm^3
# Si number density = 19.834943 Si / 1000 Ang^3
#
#
#
# Elastic Constant Matrix: (Units=GPa)
#
#
# Indices 1 2 3 4 5 6 
#
# 1 55.4200 28.0960 28.2675 0.0000 0.0000 0.0000
# 2 28.0960 142.5979 48.7369 0.0000 0.0000 0.0000
# 3 28.2675 48.7369 113.1532 0.0000 0.0000 0.0000
# 4 0.0000 0.0000 0.0000 29.0170 0.0000 0.0000
# 5 0.0000 0.0000 0.0000 0.0000 26.2665 0.0000
# 6 0.0000 0.0000 0.0000 0.0000 0.0000 32.6628
#
#
#
# Elastic Compliance Matrix: (Units=1/GPa)
#
#
# Indices 1 2 3 4 5 6 
#
# 1 0.021610 -0.002829 -0.004180 0.000000 0.000000 0.000000
# 2 -0.002829 0.008594 -0.002995 0.000000 0.000000 0.000000
# 3 -0.004180 -0.002995 0.011172 0.000000 0.000000 0.000000
# 4 0.000000 0.000000 0.000000 0.034463 0.000000 0.000000
# 5 0.000000 0.000000 0.000000 0.000000 0.038071 0.000000
# 6 0.000000 0.000000 0.000000 0.000000 0.000000 0.030616
#
#
# Mechanical properties :
#
#
# Convention : Reuss Voigt Hill
#
# Bulk Modulus (GPa) = 46.79917 57.93023 52.36470
# Shear Modulus (GPa) = 29.12802 31.32729 30.22766
#
# Velocity S-wave (km/s) = 3.83629 3.97848 3.90803
# Velocity P-wave (km/s) = 6.57786 7.09746 6.84260
#
# Compressibility (1/GPa) = 0.02136790
#
# Stress axis : x y z
#
# Youngs Moduli (GPa) = 46.27402 116.36457 89.51227
#
# Poissons Ratio (x) = 0.32922 0.37416
# Poissons Ratio (y) = 0.13092 0.26806
# Poissons Ratio (z) = 0.19343 0.34847
#
# Static dielectric constant tensor:
#      x y z
#    x 3.525280 0.000000 0.000000 
#    y 0.000000 3.876010 0.000000 
#    z 0.000000 0.000000 3.765340 
# 
# 
# High freq. dielectric constant tensor:
#      x y z
#    x 1.750510 0.000000 0.000000 
#    y 0.000000 1.783380 0.000000 
#    z 0.000000 0.000000 1.779090 
# 
# From -- ./inp_files/47842.got.cif
#   From: 2010.03.12/outbox.cif.g09.slc.cpg/sg64_24_cif.got.tgz:47842.got - 2010.04.10 20:19:32.
