data_PCOD8263036
_publ_section_title
;
Structure prediction by ZEFSAII (Michael W. Deem and Ramdas Pophale) SiO2 
 PCOD8263036
Probable space group: C M C A
;
_chemical_formula_sum "Si O2"
_cell_formula_units_Z 112
_cell_length_a 14.951181
_cell_length_b 22.351009
_cell_length_c 17.281022
_cell_angle_alpha 90.000000
_cell_angle_beta 90.000000
_cell_angle_gamma 90.000000
_cell_volume 5774.867919
_symmetry_space_group_name_H-M "C M C A"
_symmetry_group_IT_number 64
_symmetry_cell_setting 'orthorhombic'
loop_
_space_group_symop_operation_xyz
x,y,z
-x,1/2-y,1/2+z
x,-y,-z
-x,1/2+y,1/2-z
-x,-y,-z
x,1/2+y,1/2-z
-x,y,z
x,1/2-y,1/2+z
1/2+x,1/2+y,z
1/2-x,-y,1/2+z
1/2+x,1/2-y,-z
1/2-x,y,1/2-z
1/2-x,1/2-y,-z
1/2+x,y,1/2-z
1/2-x,1/2+y,z
1/2+x,-y,1/2+z
loop_
_atom_site_type_symbol
_atom_site_label
_atom_site_fract_x
_atom_site_fract_y
_atom_site_fract_z
Si Si1 0.397522 0.302551 0.621562
Si Si2 0.601644 0.166754 0.571449
Si Si3 0.195716 0.080707 0.819417
Si Si4 0.704939 0.010326 0.084853
Si Si5 0.600052 0.156119 0.289365
Si Si6 0.098484 0.476963 0.768300
Si Si7 0.722996 0.863987 0.573154
O O1 0.500000 0.325643 0.606811
O O2 0.387839 0.234525 0.596831
O O3 0.374598 0.306866 0.712703
O O4 0.326087 0.341086 0.571991
O O5 0.500000 0.152827 0.544427
O O6 0.622899 0.125606 0.646018
O O7 0.672294 0.153699 0.504708
O O8 0.250000 0.114395 0.750000
O O9 0.254934 0.053881 0.889243
O O10 0.157872 0.021823 0.779385
O O11 0.627671 0.030543 0.142967
O O12 0.778535 0.063907 0.081623
O O13 0.663556 0.000000 0.000000
O O14 0.500000 0.173484 0.317634
O O15 0.605091 0.086452 0.271654
O O16 0.671005 0.169284 0.356852
O O17 0.000000 0.503566 0.767870
#
# Coordination Sequence:
#
# PCOD8263036 Si02
#       7
#    16  16  16  16  16  16  16
#     4  10  23  40  60  84 117 158 206 248 295 353
#     4  11  24  42  60  87 124 162 197 245 301 360
#     4  10  21  37  59  85 121 157 198 236 292 363
#     4  11  21  35  55  87 120 151 198 243 293 354
#     4  10  20  35  59  92 116 147 200 252 294 346
#     4  10  20  35  57  84 116 155 198 247 291 342
#     4  12  21  37  63  89 120 156 196 251 306 351
#
# _framework density 19.394383999999999
#
# number of rings (size 3 to 8) (size 9 to 14) (size 15 to 20)
#    0.000    1.429    4.286    1.714    0.000    1.429 
#    0.000    0.714    0.000    0.000    0.000    0.000 
#    0.000    0.000    0.000    0.000    0.000    0.000 
#
# Total GULP energy -694248.787792 kJ/mol
# GULP energy per Si atom -12397.299782 kJ/mol
# Density = 1.935024 g / cm^3
# Si number density = 19.394384 Si / 1000 Ang^3
#
#
#
# Elastic Constant Matrix: (Units=GPa)
#
#
# Indices 1 2 3 4 5 6 
#
# 1 98.4990 26.2754 44.3549 0.0000 0.0000 0.0000
# 2 26.2754 50.7402 19.7687 0.0000 0.0000 0.0000
# 3 44.3549 19.7687 108.1773 0.0000 0.0000 0.0000
# 4 0.0000 0.0000 0.0000 15.8776 0.0000 0.0000
# 5 0.0000 0.0000 0.0000 0.0000 26.2221 0.0000
# 6 0.0000 0.0000 0.0000 0.0000 0.0000 16.8830
#
#
#
# Elastic Compliance Matrix: (Units=1/GPa)
#
#
# Indices 1 2 3 4 5 6 
#
# 1 0.013641 -0.005259 -0.004632 0.000000 0.000000 0.000000
# 2 -0.005259 0.023247 -0.002092 0.000000 0.000000 0.000000
# 3 -0.004632 -0.002092 0.011526 0.000000 0.000000 0.000000
# 4 0.000000 0.000000 0.000000 0.062982 0.000000 0.000000
# 5 0.000000 0.000000 0.000000 0.000000 0.038136 0.000000
# 6 0.000000 0.000000 0.000000 0.000000 0.000000 0.059231
#
#
# Mechanical properties :
#
#
# Convention : Reuss Voigt Hill
#
# Bulk Modulus (GPa) = 40.90446 48.69049 44.79747
# Shear Modulus (GPa) = 20.75746 22.93106 21.84426
#
# Velocity S-wave (km/s) = 3.27507 3.44227 3.35971
# Velocity P-wave (km/s) = 5.95299 6.39992 6.18049
#
# Compressibility (1/GPa) = 0.02444721
#
# Stress axis : x y z
#
# Youngs Moduli (GPa) = 73.30734 43.01692 86.76350
#
# Poissons Ratio (x) = 0.22624 0.40189
# Poissons Ratio (y) = 0.38555 0.18149
# Poissons Ratio (z) = 0.33956 0.08998
#
# Static dielectric constant tensor:
#      x y z
#    x 3.813620 0.000000 0.000000 
#    y 0.000000 3.393760 0.000000 
#    z 0.000000 0.000000 3.598850 
# 
# 
# High freq. dielectric constant tensor:
#      x y z
#    x 1.756520 0.000000 0.000000 
#    y 0.000000 1.742230 0.000000 
#    z 0.000000 0.000000 1.759450 
# 
# From -- ./inp_files/24208.got.cif
#   From: 2010.03.12/outbox.cif.g09.slc.cpg/sg64_13_cif.got.tgz:24208.got - 2010.04.10 20:19:32.
