data_PCOD8263334
_publ_section_title
;
Structure prediction by ZEFSAII (Michael W. Deem and Ramdas Pophale) SiO2 
 PCOD8263334
Probable space group: C M C A
;
_chemical_formula_sum "Si O2"
_cell_formula_units_Z 80
_cell_length_a 16.335064
_cell_length_b 8.692797
_cell_length_c 26.504258
_cell_angle_alpha 90.000000
_cell_angle_beta 90.000000
_cell_angle_gamma 90.000000
_cell_volume 3763.535601
_symmetry_space_group_name_H-M "C M C A"
_symmetry_group_IT_number 64
_symmetry_cell_setting 'orthorhombic'
loop_
_space_group_symop_operation_xyz
x,y,z
-x,1/2-y,1/2+z
x,-y,-z
-x,1/2+y,1/2-z
-x,-y,-z
x,1/2+y,1/2-z
-x,y,z
x,1/2-y,1/2+z
1/2+x,1/2+y,z
1/2-x,-y,1/2+z
1/2+x,1/2-y,-z
1/2-x,y,1/2-z
1/2-x,1/2-y,-z
1/2+x,y,1/2-z
1/2-x,1/2+y,z
1/2+x,-y,1/2+z
loop_
_atom_site_type_symbol
_atom_site_label
_atom_site_fract_x
_atom_site_fract_y
_atom_site_fract_z
Si Si1 0.000000 0.267847 0.727492
Si Si2 0.000000 0.237879 0.471728
Si Si3 0.000000 0.590662 0.920944
Si Si4 0.246899 0.406384 0.874256
Si Si5 0.364609 0.344665 0.340020
Si Si6 0.000000 0.600886 0.674767
Si Si7 0.864625 0.354342 0.408797
O O1 0.920866 0.172925 0.708768
O O2 0.000000 0.442431 0.707104
O O3 0.000000 0.250152 0.788088
O O4 0.000000 0.197160 0.529848
O O5 0.920669 0.341628 0.458589
O O6 0.000000 0.088974 0.434996
O O7 0.080944 0.635115 0.890324
O O8 0.310461 0.307821 0.842498
O O9 0.196385 0.511104 0.834513
O O10 0.182830 0.306345 0.905385
O O11 0.297272 0.511541 0.914161
O O12 0.919234 0.611358 0.640745
#
# Coordination Sequence:
#
# PCOD8263334 Si02
#       7
#     8   8   8  16  16   8  16
#     4  11  24  40  62  88 117 154 200 238 285 352
#     4  10  20  37  61  89 118 158 200 238 286 349
#     4  10  20  37  61  89 118 158 200 238 286 349
#     4  10  20  38  62  84 118 158 192 240 300 342
#     4  10  21  40  61  84 119 157 195 241 292 343
#     4  11  24  40  62  88 117 154 200 238 285 352
#     4  10  21  40  61  84 119 157 195 241 292 343
#
# _framework density 21.256606999999999
#
# number of rings (size 3 to 8) (size 9 to 14) (size 15 to 20)
#    0.000    1.800    4.000    0.000    2.800    0.000 
#    0.000   14.000    0.000    0.000    0.000    0.000 
#    0.000    0.000    0.000    0.000    0.000    0.000 
#
# Total GULP energy -495944.528124 kJ/mol
# GULP energy per Si atom -12398.613203 kJ/mol
# Density = 2.120823 g / cm^3
# Si number density = 21.256607 Si / 1000 Ang^3
#
#
#
# Elastic Constant Matrix: (Units=GPa)
#
#
# Indices 1 2 3 4 5 6 
#
# 1 129.3385 46.2950 19.7885 0.0000 0.0000 0.0000
# 2 46.2950 102.5317 6.3932 0.0000 0.0000 0.0000
# 3 19.7885 6.3932 69.3760 0.0000 0.0000 0.0000
# 4 0.0000 0.0000 0.0000 22.1380 0.0000 0.0000
# 5 0.0000 0.0000 0.0000 0.0000 8.4813 0.0000
# 6 0.0000 0.0000 0.0000 0.0000 0.0000 28.8475
#
#
#
# Elastic Compliance Matrix: (Units=1/GPa)
#
#
# Indices 1 2 3 4 5 6 
#
# 1 0.009588 -0.004183 -0.002349 0.000000 0.000000 0.000000
# 2 -0.004183 0.011634 0.000121 0.000000 0.000000 0.000000
# 3 -0.002349 0.000121 0.015073 0.000000 0.000000 0.000000
# 4 0.000000 0.000000 0.000000 0.045171 0.000000 0.000000
# 5 0.000000 0.000000 0.000000 0.000000 0.117906 0.000000
# 6 0.000000 0.000000 0.000000 0.000000 0.000000 0.034665
#
#
# Mechanical properties :
#
#
# Convention : Reuss Voigt Hill
#
# Bulk Modulus (GPa) = 42.60205 49.57773 46.08989
# Shear Modulus (GPa) = 19.63211 27.14466 23.38838
#
# Velocity S-wave (km/s) = 3.04234 3.57739 3.32066
# Velocity P-wave (km/s) = 5.69442 6.35906 6.03590
#
# Compressibility (1/GPa) = 0.02347305
#
# Stress axis : x y z
#
# Youngs Moduli (GPa) = 104.29391 85.95390 66.34285
#
# Poissons Ratio (x) = 0.35953 0.15587
# Poissons Ratio (y) = 0.43624 -0.00802
# Poissons Ratio (z) = 0.24503 -0.01040
#
# Static dielectric constant tensor:
#      x y z
#    x 4.269420 0.000000 0.000000 
#    y 0.000000 4.063380 0.000000 
#    z 0.000000 0.000000 3.321130 
# 
# 
# High freq. dielectric constant tensor:
#      x y z
#    x 1.859490 0.000000 0.000000 
#    y 0.000000 1.850090 0.000000 
#    z 0.000000 0.000000 1.786630 
# 
# From -- ./inp_files/47913.got.cif
#   From: 2010.03.12/outbox.cif.g09.slc.cpg/sg64_24_cif.got.tgz:47913.got - 2010.04.10 20:19:32.
