data_PCOD8263447
_publ_section_title
;
Structure prediction by ZEFSAII (Michael W. Deem and Ramdas Pophale) SiO2 
 PCOD8263447
Probable space group: C M C A
;
_chemical_formula_sum "Si O2"
_cell_formula_units_Z 96
_cell_length_a 8.725158
_cell_length_b 20.376177
_cell_length_c 26.637953
_cell_angle_alpha 90.000000
_cell_angle_beta 90.000000
_cell_angle_gamma 90.000000
_cell_volume 4735.838164
_symmetry_space_group_name_H-M "C M C A"
_symmetry_group_IT_number 64
_symmetry_cell_setting 'orthorhombic'
loop_
_space_group_symop_operation_xyz
x,y,z
-x,1/2-y,1/2+z
x,-y,-z
-x,1/2+y,1/2-z
-x,-y,-z
x,1/2+y,1/2-z
-x,y,z
x,1/2-y,1/2+z
1/2+x,1/2+y,z
1/2-x,-y,1/2+z
1/2+x,1/2-y,-z
1/2-x,y,1/2-z
1/2-x,1/2-y,-z
1/2+x,y,1/2-z
1/2-x,1/2+y,z
1/2+x,-y,1/2+z
loop_
_atom_site_type_symbol
_atom_site_label
_atom_site_fract_x
_atom_site_fract_y
_atom_site_fract_z
Si Si1 0.319698 0.073864 0.635167
Si Si2 0.821993 0.071210 0.977432
Si Si3 0.180339 0.549926 0.304503
Si Si4 0.680125 0.817427 0.640369
Si Si5 0.318938 0.299927 0.197541
Si Si6 0.319775 0.191813 0.032277
O O1 0.500000 0.062463 0.632554
O O2 0.253751 0.071499 0.578835
O O3 0.276236 0.144016 0.657731
O O4 0.250245 0.015370 0.669254
O O5 0.000000 0.091860 0.978366
O O6 0.728897 0.121741 0.011027
O O7 0.796525 0.000000 0.000000
O O8 0.250000 0.560176 0.250000
O O9 0.223863 0.610382 0.340400
O O10 0.000000 0.544298 0.297309
O O11 0.500000 0.810213 0.631492
O O12 0.736276 0.766955 0.682398
O O13 0.766346 0.801369 0.589250
O O14 0.500000 0.288907 0.201708
O O15 0.250000 0.323747 0.250000
O O16 0.500000 0.199214 0.030645
O O17 0.250000 0.250000 0.000000
#
# Coordination Sequence:
#
# PCOD8263447 Si02
#       6
#    16  16  16  16  16  16
#     4   9  19  36  58  84 114 152 196 240 288 344
#     4  10  20  38  64  90 120 160 204 249 300 357
#     4  10  21  38  60  86 116 152 194 239 289 346
#     4  11  23  40  62  87 117 154 197 244 299 360
#     4  11  22  37  58  84 117 155 197 245 296 353
#     4  12  25  41  62  89 122 158 201 250 302 361
#
# _framework density 20.270962999999998
#
# number of rings (size 3 to 8) (size 9 to 14) (size 15 to 20)
#    0.000    1.500    0.000    5.500    0.000    7.000 
#    0.000    2.500    0.000    0.000    0.000    0.000 
#    0.000    0.000    0.000    0.000    0.000    0.000 
#
# Total GULP energy -595455.219542 kJ/mol
# GULP energy per Si atom -12405.317074 kJ/mol
# Density = 2.022483 g / cm^3
# Si number density = 20.270963 Si / 1000 Ang^3
#
#
#
# Elastic Constant Matrix: (Units=GPa)
#
#
# Indices 1 2 3 4 5 6 
#
# 1 75.6137 42.1758 31.5196 0.0000 0.0000 0.0000
# 2 42.1758 94.5498 18.8921 0.0000 0.0000 0.0000
# 3 31.5196 18.8921 114.6015 0.0000 0.0000 0.0000
# 4 0.0000 0.0000 0.0000 92.7756 0.0000 0.0000
# 5 0.0000 0.0000 0.0000 0.0000 34.2787 0.0000
# 6 0.0000 0.0000 0.0000 0.0000 0.0000 22.8387
#
#
#
# Elastic Compliance Matrix: (Units=1/GPa)
#
#
# Indices 1 2 3 4 5 6 
#
# 1 0.019235 -0.007779 -0.004008 0.000000 0.000000 0.000000
# 2 -0.007779 0.014083 -0.000182 0.000000 0.000000 0.000000
# 3 -0.004008 -0.000182 0.009858 0.000000 0.000000 0.000000
# 4 0.000000 0.000000 0.000000 0.010779 0.000000 0.000000
# 5 0.000000 0.000000 0.000000 0.000000 0.029173 0.000000
# 6 0.000000 0.000000 0.000000 0.000000 0.000000 0.043785
#
#
# Mechanical properties :
#
#
# Convention : Reuss Voigt Hill
#
# Bulk Modulus (GPa) = 51.98124 52.21555 52.09839
# Shear Modulus (GPa) = 31.79375 42.79042 37.29209
#
# Velocity S-wave (km/s) = 3.96465 4.59946 4.29380
# Velocity P-wave (km/s) = 6.83058 7.34993 7.09501
#
# Compressibility (1/GPa) = 0.01923771
#
# Stress axis : x y z
#
# Youngs Moduli (GPa) = 51.98876 71.00809 101.43833
#
# Poissons Ratio (x) = 0.55239 0.40655
# Poissons Ratio (y) = 0.40444 0.01846
# Poissons Ratio (z) = 0.20837 0.01292
#
# Static dielectric constant tensor:
#      x y z
#    x 3.539680 0.000000 0.000000 
#    y 0.000000 3.855570 0.000000 
#    z 0.000000 0.000000 3.915170 
# 
# 
# High freq. dielectric constant tensor:
#      x y z
#    x 1.774300 0.000000 0.000000 
#    y 0.000000 1.809280 0.000000 
#    z 0.000000 0.000000 1.811770 
# 
# From -- ./inp_files/48034.got.cif
#   From: 2010.03.12/outbox.cif.g09.slc.cpg/sg64_25_cif.got.tgz:48034.got - 2010.04.10 20:19:32.
