data_PCOD8263108
_publ_section_title
;
Structure prediction by ZEFSAII (Michael W. Deem and Ramdas Pophale) SiO2 
 PCOD8263108
Probable space group: C M C A
;
_chemical_formula_sum "Si O2"
_cell_formula_units_Z 96
_cell_length_a 9.145356
_cell_length_b 27.905608
_cell_length_c 20.834581
_cell_angle_alpha 90.000000
_cell_angle_beta 90.000000
_cell_angle_gamma 90.000000
_cell_volume 5317.125070
_symmetry_space_group_name_H-M "C M C A"
_symmetry_group_IT_number 64
_symmetry_cell_setting 'orthorhombic'
loop_
_space_group_symop_operation_xyz
x,y,z
-x,1/2-y,1/2+z
x,-y,-z
-x,1/2+y,1/2-z
-x,-y,-z
x,1/2+y,1/2-z
-x,y,z
x,1/2-y,1/2+z
1/2+x,1/2+y,z
1/2-x,-y,1/2+z
1/2+x,1/2-y,-z
1/2-x,y,1/2-z
1/2-x,1/2-y,-z
1/2+x,y,1/2-z
1/2-x,1/2+y,z
1/2+x,-y,1/2+z
loop_
_atom_site_type_symbol
_atom_site_label
_atom_site_fract_x
_atom_site_fract_y
_atom_site_fract_z
Si Si1 0.829325 0.148766 0.187475
Si Si2 0.337984 0.019638 0.927685
Si Si3 0.324834 0.741725 0.682827
Si Si4 0.824840 0.214442 0.948261
Si Si5 0.160472 0.394441 0.458918
Si Si6 0.160970 0.566701 0.400665
O O1 0.750000 0.129917 0.250000
O O2 0.786823 0.202888 0.170945
O O3 0.771750 0.114308 0.131300
O O4 0.000000 0.144953 0.198941
O O5 0.500000 0.024012 0.900361
O O6 0.269188 0.072691 0.917095
O O7 0.254563 0.980401 0.884667
O O8 0.338078 0.000000 0.000000
O O9 0.500000 0.731689 0.684481
O O10 0.250000 0.724516 0.750000
O O11 0.247326 0.716827 0.622324
O O12 0.788258 0.160151 0.970157
O O13 0.000000 0.224335 0.946242
O O14 0.750000 0.250000 0.000000
O O15 0.151667 0.422833 0.524808
O O16 0.000000 0.393815 0.426196
O O17 0.000000 0.556482 0.372806
#
# Coordination Sequence:
#
# PCOD8263108 Si02
#       6
#    16  16  16  16  16  16
#     4   9  18  31  48  70  96 127 163 201 242 292
#     4   9  17  28  44  69  96 121 153 193 238 290
#     4  10  20  36  55  76 104 139 178 215 256 310
#     4  11  22  35  53  79 108 138 174 218 265 308
#     4   9  18  32  49  69  96 130 165 199 242 297
#     4   9  16  29  48  68  94 128 160 193 238 292
#
# _framework density 18.054867999999999
#
# number of rings (size 3 to 8) (size 9 to 14) (size 15 to 20)
#    0.000    2.500    0.000    2.500    0.000    7.333 
#    0.000    3.333    0.000    1.000    0.000    4.667 
#    0.000    0.000    0.000    0.000    0.000    0.000 
#
# Total GULP energy -594753.717047 kJ/mol
# GULP energy per Si atom -12390.702438 kJ/mol
# Density = 1.801377 g / cm^3
# Si number density = 18.054868 Si / 1000 Ang^3
#
#
#
# Elastic Constant Matrix: (Units=GPa)
#
#
# Indices 1 2 3 4 5 6 
#
# 1 96.3233 55.3694 30.1067 0.0000 0.0000 0.0000
# 2 55.3694 109.7248 13.1820 0.0000 0.0000 0.0000
# 3 30.1067 13.1820 47.4692 0.0000 0.0000 0.0000
# 4 0.0000 0.0000 0.0000 29.1582 0.0000 0.0000
# 5 0.0000 0.0000 0.0000 0.0000 27.0709 0.0000
# 6 0.0000 0.0000 0.0000 0.0000 0.0000 28.1018
#
#
#
# Elastic Compliance Matrix: (Units=1/GPa)
#
#
# Indices 1 2 3 4 5 6 
#
# 1 0.017732 -0.007859 -0.009064 0.000000 0.000000 0.000000
# 2 -0.007859 0.012912 0.001399 0.000000 0.000000 0.000000
# 3 -0.009064 0.001399 0.026427 0.000000 0.000000 0.000000
# 4 0.000000 0.000000 0.000000 0.034296 0.000000 0.000000
# 5 0.000000 0.000000 0.000000 0.000000 0.036940 0.000000
# 6 0.000000 0.000000 0.000000 0.000000 0.000000 0.035585
#
#
# Mechanical properties :
#
#
# Convention : Reuss Voigt Hill
#
# Bulk Modulus (GPa) = 38.42878 50.09259 44.26068
# Shear Modulus (GPa) = 24.55631 27.19014 25.87322
#
# Velocity S-wave (km/s) = 3.69195 3.88490 3.78965
# Velocity P-wave (km/s) = 6.28527 6.92301 6.61183
#
# Compressibility (1/GPa) = 0.02602216
#
# Stress axis : x y z
#
# Youngs Moduli (GPa) = 56.39364 77.44991 37.84074
#
# Poissons Ratio (x) = 0.60870 0.34299
# Poissons Ratio (y) = 0.44321 -0.05294
# Poissons Ratio (z) = 0.51116 -0.10836
#
# Static dielectric constant tensor:
#      x y z
#    x 3.613050 0.000000 0.000000 
#    y 0.000000 3.470300 0.000000 
#    z 0.000000 0.000000 1.771350 
# 
# 
# High freq. dielectric constant tensor:
#      x y z
#    x 1.707340 0.000000 0.000000 
#    y 0.000000 1.701760 0.000000 
#    z 0.000000 0.000000 1.660830 
# 
# From -- ./inp_files/36977.got.cif
#   From: 2010.03.12/outbox.cif.g09.slc.cpg/sg64_19_cif.got.tgz:36977.got - 2010.04.10 20:19:32.
