data_PCOD8263224
_publ_section_title
;
Structure prediction by ZEFSAII (Michael W. Deem and Ramdas Pophale) SiO2 
 PCOD8263224
Probable space group: C M C A
;
_chemical_formula_sum "Si O2"
_cell_formula_units_Z 80
_cell_length_a 14.507675
_cell_length_b 18.512248
_cell_length_c 12.480909
_cell_angle_alpha 90.000000
_cell_angle_beta 90.000000
_cell_angle_gamma 90.000000
_cell_volume 3351.993705
_symmetry_space_group_name_H-M "C M C A"
_symmetry_group_IT_number 64
_symmetry_cell_setting 'orthorhombic'
loop_
_space_group_symop_operation_xyz
x,y,z
-x,1/2-y,1/2+z
x,-y,-z
-x,1/2+y,1/2-z
-x,-y,-z
x,1/2+y,1/2-z
-x,y,z
x,1/2-y,1/2+z
1/2+x,1/2+y,z
1/2-x,-y,1/2+z
1/2+x,1/2-y,-z
1/2-x,y,1/2-z
1/2-x,1/2-y,-z
1/2+x,y,1/2-z
1/2-x,1/2+y,z
1/2+x,-y,1/2+z
loop_
_atom_site_type_symbol
_atom_site_label
_atom_site_fract_x
_atom_site_fract_y
_atom_site_fract_z
Si Si1 0.397415 0.620942 0.331689
Si Si2 0.894921 0.260073 0.678477
Si Si3 0.600678 0.349018 0.132133
Si Si4 0.348447 0.537220 0.706856
Si Si5 0.207822 0.845098 0.461629
O O1 0.500000 0.646977 0.366715
O O2 0.374190 0.657300 0.215593
O O3 0.401570 0.534684 0.325381
O O4 0.322310 0.647948 0.416410
O O5 0.875673 0.214534 0.785909
O O6 0.826398 0.232710 0.584684
O O7 0.000000 0.249615 0.638655
O O8 0.500000 0.338482 0.076752
O O9 0.596787 0.423599 0.198138
O O10 0.680878 0.350556 0.042964
O O11 0.250000 0.512882 0.750000
O O12 0.339849 0.590832 0.605816
#
# Coordination Sequence:
#
# PCOD8263224 Si02
#       5
#    16  16  16  16  16
#     4  11  22  35  59  93 120 151 201 251 294 352
#     4   9  19  35  54  83 121 153 188 240 300 355
#     4   9  18  36  59  80 111 157 197 234 293 358
#     4   9  19  35  58  86 118 154 193 243 302 355
#     4  10  20  36  60  87 117 157 197 242 300 355
#
# _framework density 23.866392000000001
#
# number of rings (size 3 to 8) (size 9 to 14) (size 15 to 20)
#    0.000    2.400    0.000    3.600    0.000    5.600 
#    0.000    0.000    0.000   19.200    0.000    5.600 
#    0.000    0.000    0.000    0.000    0.000    0.000 
#
# Total GULP energy -495968.367821 kJ/mol
# GULP energy per Si atom -12399.209196 kJ/mol
# Density = 2.381207 g / cm^3
# Si number density = 23.866392 Si / 1000 Ang^3
#
#
#
# Elastic Constant Matrix: (Units=GPa)
#
#
# Indices 1 2 3 4 5 6 
#
# 1 116.1412 9.7382 25.3703 0.0000 0.0000 0.0000
# 2 9.7382 112.5839 15.1641 0.0000 0.0000 0.0000
# 3 25.3703 15.1641 53.9316 0.0000 0.0000 0.0000
# 4 0.0000 0.0000 0.0000 29.1176 0.0000 0.0000
# 5 0.0000 0.0000 0.0000 0.0000 15.8173 0.0000
# 6 0.0000 0.0000 0.0000 0.0000 0.0000 20.7025
#
#
#
# Elastic Compliance Matrix: (Units=1/GPa)
#
#
# Indices 1 2 3 4 5 6 
#
# 1 0.009602 -0.000231 -0.004452 0.000000 0.000000 0.000000
# 2 -0.000231 0.009237 -0.002489 0.000000 0.000000 0.000000
# 3 -0.004452 -0.002489 0.021336 0.000000 0.000000 0.000000
# 4 0.000000 0.000000 0.000000 0.034343 0.000000 0.000000
# 5 0.000000 0.000000 0.000000 0.000000 0.063222 0.000000
# 6 0.000000 0.000000 0.000000 0.000000 0.000000 0.048303
#
#
# Mechanical properties :
#
#
# Convention : Reuss Voigt Hill
#
# Bulk Modulus (GPa) = 38.71121 42.57799 40.64460
# Shear Modulus (GPa) = 23.92360 28.61974 26.27167
#
# Velocity S-wave (km/s) = 3.16950 3.46665 3.32140
# Velocity P-wave (km/s) = 5.44513 5.82258 5.63702
#
# Compressibility (1/GPa) = 0.02583231
#
# Stress axis : x y z
#
# Youngs Moduli (GPa) = 104.14393 108.25505 46.86894
#
# Poissons Ratio (x) = 0.02500 0.20866
# Poissons Ratio (y) = 0.02405 0.11664
# Poissons Ratio (z) = 0.46366 0.26941
#
# Static dielectric constant tensor:
#      x y z
#    x 4.432430 0.000000 0.000000 
#    y 0.000000 4.460410 0.000000 
#    z 0.000000 0.000000 3.832480 
# 
# 
# High freq. dielectric constant tensor:
#      x y z
#    x 1.956490 0.000000 0.000000 
#    y 0.000000 1.951270 0.000000 
#    z 0.000000 0.000000 1.915450 
# 
# From -- ./inp_files/25313.got.cif
#   From: 2010.03.12/outbox.cif.g09.slc.cpg/sg64_13_cif.got.tgz:25313.got - 2010.04.10 20:19:32.
