data_PCOD8263660
_publ_section_title
;
Structure prediction by ZEFSAII (Michael W. Deem and Ramdas Pophale) SiO2 
 PCOD8263660
Probable space group: C M C A
;
_chemical_formula_sum "Si O2"
_cell_formula_units_Z 64
_cell_length_a 34.604470
_cell_length_b 16.916354
_cell_length_c 5.142594
_cell_angle_alpha 90.000000
_cell_angle_beta 90.000000
_cell_angle_gamma 90.000000
_cell_volume 3010.379207
_symmetry_space_group_name_H-M "C M C A"
_symmetry_group_IT_number 64
_symmetry_cell_setting 'orthorhombic'
loop_
_space_group_symop_operation_xyz
x,y,z
-x,1/2-y,1/2+z
x,-y,-z
-x,1/2+y,1/2-z
-x,-y,-z
x,1/2+y,1/2-z
-x,y,z
x,1/2-y,1/2+z
1/2+x,1/2+y,z
1/2-x,-y,1/2+z
1/2+x,1/2-y,-z
1/2-x,y,1/2-z
1/2-x,1/2-y,-z
1/2+x,y,1/2-z
1/2-x,1/2+y,z
1/2+x,-y,1/2+z
loop_
_atom_site_type_symbol
_atom_site_label
_atom_site_fract_x
_atom_site_fract_y
_atom_site_fract_z
Si Si1 0.096642 0.550266 0.258142
Si Si2 0.207596 0.782372 0.581033
Si Si3 0.814811 0.050649 0.244336
Si Si4 0.455851 0.299829 0.782111
O O1 0.080525 0.500000 0.500000
O O2 0.140974 0.574697 0.310493
O O3 0.071925 0.628108 0.223029
O O4 0.092304 0.500000 0.000000
O O5 0.186333 0.774093 0.299958
O O6 0.250000 0.750000 0.500000
O O7 0.209461 0.869847 0.702564
O O8 0.810624 0.000000 0.500000
O O9 0.798081 0.000000 0.000000
O O10 0.500000 0.329052 0.757057
O O11 0.447226 0.232675 0.568982
#
# Coordination Sequence:
#
# PCOD8263660 Si02
#       4
#    16  16  16  16
#     4  10  21  36  56  83 112 147 193 237 284 341
#     4  10  21  38  58  84 113 143 183 228 274 335
#     4  10  21  38  59  84 115 150 188 234 286 339
#     4  10  21  36  54  80 114 151 192 238 289 342
#
# _framework density 21.259781
#
# number of rings (size 3 to 8) (size 9 to 14) (size 15 to 20)
#    0.000    2.000    0.000    3.000    0.000    3.000 
#    0.000   10.000    0.000    0.000    0.000    0.000 
#    0.000    0.000    0.000    0.000    0.000    0.000 
#
# Total GULP energy -396591.473689 kJ/mol
# GULP energy per Si atom -12393.483553 kJ/mol
# Density = 2.121139 g / cm^3
# Si number density = 21.259781 Si / 1000 Ang^3
#
#
#
# Elastic Constant Matrix: (Units=GPa)
#
#
# Indices 1 2 3 4 5 6 
#
# 1 63.3341 53.2080 19.5829 0.0000 0.0000 0.0000
# 2 53.2080 135.2572 47.0694 0.0000 0.0000 0.0000
# 3 19.5829 47.0694 174.2994 0.0000 0.0000 0.0000
# 4 0.0000 0.0000 0.0000 34.1693 0.0000 0.0000
# 5 0.0000 0.0000 0.0000 0.0000 -14.1991 0.0000
# 6 0.0000 0.0000 0.0000 0.0000 0.0000 46.6767
#
#
#
# Elastic Compliance Matrix: (Units=1/GPa)
#
#
# Indices 1 2 3 4 5 6 
#
# 1 0.023587 -0.009223 -0.000159 0.000000 0.000000 0.000000
# 2 -0.009223 0.011767 -0.002141 0.000000 0.000000 0.000000
# 3 -0.000159 -0.002141 0.006333 0.000000 0.000000 0.000000
# 4 0.000000 0.000000 0.000000 0.029266 0.000000 0.000000
# 5 0.000000 0.000000 0.000000 0.000000 -0.070427 0.000000
# 6 0.000000 0.000000 0.000000 0.000000 0.000000 0.021424
#
#
# Mechanical properties :
#
#
# Convention : Reuss Voigt Hill
#
# Bulk Modulus (GPa) = 53.64977 68.06791 60.85884
# Shear Modulus (GPa) = 97.63373 30.19808 63.91590
#
# Velocity S-wave (km/s) = 6.78409 3.77295 5.48903
# Velocity P-wave (km/s) = 9.30888 7.14611 8.29826
#
# Compressibility (1/GPa) = 0.01863941
#
# Stress axis : x y z
#
# Youngs Moduli (GPa) = 42.39572 84.98444 157.89246
#
# Poissons Ratio (x) = 0.78385 0.02515
# Poissons Ratio (y) = 0.39103 0.33811
# Poissons Ratio (z) = 0.00675 0.18198
#
# Static dielectric constant tensor:
#      x y z
#    x 3.229490 0.000000 0.000000 
#    y 0.000000 1.656870 0.000000 
#    z 0.000000 0.000000 -3.642660 
# 
# 
# High freq. dielectric constant tensor:
#      x y z
#    x 1.806730 0.000000 0.000000 
#    y 0.000000 1.830910 0.000000 
#    z 0.000000 0.000000 1.873210 
# 
# From -- ./inp_files/3160.got.cif
#   From: 2010.03.12/outbox.cif.g09.slc.cpg/sg64_2_cif.got.tgz:3160.got - 2010.04.10 20:19:32.
