data_PCOD8263153
_publ_section_title
;
Structure prediction by ZEFSAII (Michael W. Deem and Ramdas Pophale) SiO2 
 PCOD8263153
Probable space group: C M C A
;
_chemical_formula_sum "Si O2"
_cell_formula_units_Z 64
_cell_length_a 9.673635
_cell_length_b 36.267990
_cell_length_c 9.853685
_cell_angle_alpha 90.000000
_cell_angle_beta 90.000000
_cell_angle_gamma 90.000000
_cell_volume 3457.099337
_symmetry_space_group_name_H-M "C M C A"
_symmetry_group_IT_number 64
_symmetry_cell_setting 'orthorhombic'
loop_
_space_group_symop_operation_xyz
x,y,z
-x,1/2-y,1/2+z
x,-y,-z
-x,1/2+y,1/2-z
-x,-y,-z
x,1/2+y,1/2-z
-x,y,z
x,1/2-y,1/2+z
1/2+x,1/2+y,z
1/2-x,-y,1/2+z
1/2+x,1/2-y,-z
1/2-x,y,1/2-z
1/2-x,1/2-y,-z
1/2+x,y,1/2-z
1/2-x,1/2+y,z
1/2+x,-y,1/2+z
loop_
_atom_site_type_symbol
_atom_site_label
_atom_site_fract_x
_atom_site_fract_y
_atom_site_fract_z
Si Si1 0.836987 0.230592 0.616620
Si Si2 0.659197 0.644251 0.620485
Si Si3 0.500000 0.965734 0.901540
Si Si4 0.246345 0.912786 0.594129
Si Si5 0.000000 0.036610 0.088428
O O1 0.750000 0.240876 0.750000
O O2 0.750000 0.250000 0.500000
O O3 0.832052 0.187274 0.588843
O O4 0.000000 0.243432 0.625111
O O5 0.500000 0.632229 0.644087
O O6 0.750000 0.633188 0.750000
O O7 0.727522 0.624044 0.492527
O O8 0.372032 0.941138 0.938644
O O9 0.500000 0.977463 0.743802
O O10 0.500000 0.000000 0.000000
O O11 0.250000 0.899805 0.750000
O O12 0.376810 0.936404 0.551206
O O13 0.000000 0.000000 0.000000
#
# Coordination Sequence:
#
# PCOD8263153 Si02
#       5
#    16  16   8  16   8
#     4  10  21  39  61  89 122 158 199 245 293 350
#     4  10  22  39  60  87 119 153 194 240 286 340
#     4  10  20  36  58  78 109 150 187 238 289 340
#     4  10  21  38  57  82 115 151 190 237 291 343
#     4  10  22  36  54  84 113 144 193 240 289 350
#
# _framework density 18.512630999999999
#
# number of rings (size 3 to 8) (size 9 to 14) (size 15 to 20)
#    0.000    2.000    1.250    1.500    1.750    4.000 
#    0.000    0.000    0.000    0.000    0.000    0.000 
#    0.000    0.000    0.000    0.000    0.000    0.000 
#
# Total GULP energy -396638.704603 kJ/mol
# GULP energy per Si atom -12394.959519 kJ/mol
# Density = 1.847050 g / cm^3
# Si number density = 18.512631 Si / 1000 Ang^3
#
#
#
# Elastic Constant Matrix: (Units=GPa)
#
#
# Indices 1 2 3 4 5 6 
#
# 1 177.4933 53.6537 73.8272 0.0000 0.0000 0.0000
# 2 53.6537 66.0434 72.2714 0.0000 0.0000 0.0000
# 3 73.8272 72.2714 130.3316 0.0000 0.0000 0.0000
# 4 0.0000 0.0000 0.0000 46.0856 0.0000 0.0000
# 5 0.0000 0.0000 0.0000 0.0000 35.8337 0.0000
# 6 0.0000 0.0000 0.0000 0.0000 0.0000 43.2484
#
#
#
# Elastic Compliance Matrix: (Units=1/GPa)
#
#
# Indices 1 2 3 4 5 6 
#
# 1 0.007725 -0.003783 -0.002278 0.000000 0.000000 0.000000
# 2 -0.003783 0.040362 -0.020239 0.000000 0.000000 0.000000
# 3 -0.002278 -0.020239 0.020186 0.000000 0.000000 0.000000
# 4 0.000000 0.000000 0.000000 0.021699 0.000000 0.000000
# 5 0.000000 0.000000 0.000000 0.000000 0.027907 0.000000
# 6 0.000000 0.000000 0.000000 0.000000 0.000000 0.023122
#
#
# Mechanical properties :
#
#
# Convention : Reuss Voigt Hill
#
# Bulk Modulus (GPa) = 63.80166 85.93032 74.86599
# Shear Modulus (GPa) = 25.14773 36.64129 30.89451
#
# Velocity S-wave (km/s) = 3.68966 4.45371 4.08957
# Velocity P-wave (km/s) = 7.25880 8.54197 7.92639
#
# Compressibility (1/GPa) = 0.01567357
#
# Stress axis : x y z
#
# Youngs Moduli (GPa) = 129.44741 24.77580 49.53894
#
# Poissons Ratio (x) = 0.09372 0.11287
# Poissons Ratio (y) = 0.48966 1.00261
# Poissons Ratio (z) = 0.29493 0.50143
#
# Static dielectric constant tensor:
#      x y z
#    x 3.817310 0.000000 0.000000 
#    y 0.000000 3.301560 0.000000 
#    z 0.000000 0.000000 3.522290 
# 
# 
# High freq. dielectric constant tensor:
#      x y z
#    x 1.744810 0.000000 0.000000 
#    y 0.000000 1.714220 0.000000 
#    z 0.000000 0.000000 1.719880 
# 
# From -- ./inp_files/4658.got.cif
#   From: 2010.03.12/outbox.cif.g09.slc.cpg/sg64_3_cif.got.tgz:4658.got - 2010.04.10 20:19:32.
