data_PCOD8263402
_publ_section_title
;
Structure prediction by ZEFSAII (Michael W. Deem and Ramdas Pophale) SiO2 
 PCOD8263402
Probable space group: C M C A
;
_chemical_formula_sum "Si O2"
_cell_formula_units_Z 96
_cell_length_a 23.122441
_cell_length_b 9.033663
_cell_length_c 20.541251
_cell_angle_alpha 90.000000
_cell_angle_beta 90.000000
_cell_angle_gamma 90.000000
_cell_volume 4290.663487
_symmetry_space_group_name_H-M "C M C A"
_symmetry_group_IT_number 64
_symmetry_cell_setting 'orthorhombic'
loop_
_space_group_symop_operation_xyz
x,y,z
-x,1/2-y,1/2+z
x,-y,-z
-x,1/2+y,1/2-z
-x,-y,-z
x,1/2+y,1/2-z
-x,y,z
x,1/2-y,1/2+z
1/2+x,1/2+y,z
1/2-x,-y,1/2+z
1/2+x,1/2-y,-z
1/2-x,y,1/2-z
1/2-x,1/2-y,-z
1/2+x,y,1/2-z
1/2-x,1/2+y,z
1/2+x,-y,1/2+z
loop_
_atom_site_type_symbol
_atom_site_label
_atom_site_fract_x
_atom_site_fract_y
_atom_site_fract_z
Si Si1 0.000000 0.880749 0.231822
Si Si2 0.000000 0.578605 0.152163
Si Si3 0.668689 0.856882 0.468177
Si Si4 0.622163 0.877082 0.879822
Si Si5 0.304581 0.222768 0.295473
Si Si6 0.377369 0.016496 0.741262
Si Si7 0.795871 0.369902 0.071745
O O1 0.000000 0.917664 0.310404
O O2 0.059626 0.959758 0.208285
O O3 0.000000 0.710430 0.208133
O O4 0.945124 0.589490 0.103837
O O5 0.637185 0.791213 0.403069
O O6 0.733290 0.914783 0.454053
O O7 0.667956 0.726590 0.521094
O O8 0.636067 0.000000 0.500000
O O9 0.624477 0.899627 0.801928
O O10 0.666941 0.983393 0.916487
O O11 0.250000 0.196926 0.250000
O O12 0.335065 0.064050 0.310040
O O13 0.352421 0.328809 0.264403
O O14 0.282066 0.279544 0.363524
#
# Coordination Sequence:
#
# PCOD8263402 Si02
#       7
#     8   8  16  16  16  16  16
#     4  10  20  38  60  88 118 159 205 235 281 356
#     4  10  22  40  66  90 123 163 201 247 296 356
#     4  11  22  38  61  85 113 155 206 254 295 351
#     4  10  21  40  60  87 120 157 199 245 303 361
#     4  11  22  35  55  88 123 154 190 241 305 362
#     4  10  21  36  58  84 119 157 192 240 293 354
#     4  10  22  38  58  84 119 160 201 245 301 362
#
# _framework density 22.374164
#
# number of rings (size 3 to 8) (size 9 to 14) (size 15 to 20)
#    0.000    1.667    0.000    6.000    0.000    6.667 
#    0.000    2.083    0.000    0.000    0.000    0.000 
#    0.000    0.000    0.000    0.000    0.000    0.000 
#
# Total GULP energy -594759.219954 kJ/mol
# GULP energy per Si atom -12390.817082 kJ/mol
# Density = 2.232324 g / cm^3
# Si number density = 22.374164 Si / 1000 Ang^3
#
#
#
# Elastic Constant Matrix: (Units=GPa)
#
#
# Indices 1 2 3 4 5 6 
#
# 1 102.2710 -2.1453 29.5473 0.0000 0.0000 0.0000
# 2 -2.1453 -4.8935 66.1421 0.0000 0.0000 0.0000
# 3 29.5473 66.1421 6.8976 0.0000 0.0000 0.0000
# 4 0.0000 0.0000 0.0000 31.2567 0.0000 0.0000
# 5 0.0000 0.0000 0.0000 0.0000 9.1768 0.0000
# 6 0.0000 0.0000 0.0000 0.0000 0.0000 23.8744
#
#
#
# Elastic Compliance Matrix: (Units=1/GPa)
#
#
# Indices 1 2 3 4 5 6 
#
# 1 0.009689 -0.004328 -0.000006 0.000000 0.000000 0.000000
# 2 -0.004328 0.000368 0.015006 0.000000 0.000000 0.000000
# 3 -0.000006 0.015006 0.001110 0.000000 0.000000 0.000000
# 4 0.000000 0.000000 0.000000 0.031993 0.000000 0.000000
# 5 0.000000 0.000000 0.000000 0.000000 0.108970 0.000000
# 6 0.000000 0.000000 0.000000 0.000000 0.000000 0.041886
#
#
# Mechanical properties :
#
#
# Convention : Reuss Voigt Hill
#
# Bulk Modulus (GPa) = 30.75803 32.37372 31.56587
# Shear Modulus (GPa) = 27.24662 13.57697 20.41179
#
# Velocity S-wave (km/s) = 3.49344 2.46603 3.02370
# Velocity P-wave (km/s) = 5.48171 4.75490 5.13119
#
# Compressibility (1/GPa) = 0.03251184
#
# Stress axis : x y z
#
# Youngs Moduli (GPa) = 103.21116 2714.45506 900.88887
#
# Poissons Ratio (x) = 11.74720 0.00534
# Poissons Ratio (y) = 0.44666 -13.51860
# Poissons Ratio (z) = 0.00061 -40.73270
#
# Static dielectric constant tensor:
#      x y z
#    x 4.278660 0.000000 0.000000 
#    y 0.000000 4.135650 0.000000 
#    z 0.000000 0.000000 3.996910 
# 
# 
# High freq. dielectric constant tensor:
#      x y z
#    x 1.877220 0.000000 0.000000 
#    y 0.000000 1.893120 0.000000 
#    z 0.000000 0.000000 1.859910 
# 
# From -- ./inp_files/46627.got.cif
#   From: 2010.03.12/outbox.cif.g09.slc.cpg/sg64_24_cif.got.tgz:46627.got - 2010.04.10 20:19:32.
