data_PCOD8263237
_publ_section_title
;
Structure prediction by ZEFSAII (Michael W. Deem and Ramdas Pophale) SiO2 
 PCOD8263237
Probable space group: C M C A
;
_chemical_formula_sum "Si O2"
_cell_formula_units_Z 80
_cell_length_a 15.656589
_cell_length_b 29.165381
_cell_length_c 8.678926
_cell_angle_alpha 90.000000
_cell_angle_beta 90.000000
_cell_angle_gamma 90.000000
_cell_volume 3963.061306
_symmetry_space_group_name_H-M "C M C A"
_symmetry_group_IT_number 64
_symmetry_cell_setting 'orthorhombic'
loop_
_space_group_symop_operation_xyz
x,y,z
-x,1/2-y,1/2+z
x,-y,-z
-x,1/2+y,1/2-z
-x,-y,-z
x,1/2+y,1/2-z
-x,y,z
x,1/2-y,1/2+z
1/2+x,1/2+y,z
1/2-x,-y,1/2+z
1/2+x,1/2-y,-z
1/2-x,y,1/2-z
1/2-x,1/2-y,-z
1/2+x,y,1/2-z
1/2-x,1/2+y,z
1/2+x,-y,1/2+z
loop_
_atom_site_type_symbol
_atom_site_label
_atom_site_fract_x
_atom_site_fract_y
_atom_site_fract_z
Si Si1 0.500000 0.948885 0.432269
Si Si2 0.655736 0.112107 0.579333
Si Si3 0.843189 0.391263 0.054545
Si Si4 0.595658 0.292973 0.480416
Si Si5 0.000000 0.049649 0.565180
Si Si6 0.160394 0.710281 0.661308
O O1 0.582507 0.920365 0.492400
O O2 0.500000 0.951387 0.248951
O O3 0.500000 0.000000 0.500000
O O4 0.746276 0.094761 0.507854
O O5 0.652712 0.109618 0.762490
O O6 0.643107 0.166677 0.547574
O O7 0.864763 0.342308 0.979373
O O8 0.914837 0.426619 0.996399
O O9 0.500000 0.288828 0.546659
O O10 0.657568 0.255431 0.556839
O O11 0.589942 0.286267 0.295815
O O12 0.000000 0.000000 0.500000
O O13 0.250000 0.703924 0.750000
#
# Coordination Sequence:
#
# PCOD8263237 Si02
#       6
#     8  16  16  16   8  16
#     4  10  22  38  59  82 110 136 185 248 293 332
#     4   9  18  34  58  80 106 148 192 226 274 342
#     4   9  17  34  56  81 107 148 188 226 272 349
#     4  11  21  34  55  84 120 149 196 234 280 338
#     4  10  20  36  61  80 104 142 185 232 289 354
#     4  11  21  35  56  85 116 156 198 232 280 341
#
# _framework density 20.186415
#
# number of rings (size 3 to 8) (size 9 to 14) (size 15 to 20)
#    0.000    2.000    5.000    1.200    5.600    0.800 
#    0.000    2.000    0.000    0.000    0.000    0.000 
#    0.000    0.000    0.000    0.000    0.000    0.000 
#
# Total GULP energy -495727.288181 kJ/mol
# GULP energy per Si atom -12393.182205 kJ/mol
# Density = 2.014047 g / cm^3
# Si number density = 20.186415 Si / 1000 Ang^3
#
#
#
# Elastic Constant Matrix: (Units=GPa)
#
#
# Indices 1 2 3 4 5 6 
#
# 1 173.3261 95.7013 17.6372 0.0000 0.0000 0.0000
# 2 95.7013 189.7393 26.7915 0.0000 0.0000 0.0000
# 3 17.6372 26.7915 18.0048 0.0000 0.0000 0.0000
# 4 0.0000 0.0000 0.0000 34.6350 0.0000 0.0000
# 5 0.0000 0.0000 0.0000 0.0000 12.6442 0.0000
# 6 0.0000 0.0000 0.0000 0.0000 0.0000 30.0157
#
#
#
# Elastic Compliance Matrix: (Units=1/GPa)
#
#
# Indices 1 2 3 4 5 6 
#
# 1 0.008074 -0.003742 -0.002341 0.000000 0.000000 0.000000
# 2 -0.003742 0.008406 -0.008844 0.000000 0.000000 0.000000
# 3 -0.002341 -0.008844 0.070993 0.000000 0.000000 0.000000
# 4 0.000000 0.000000 0.000000 0.028873 0.000000 0.000000
# 5 0.000000 0.000000 0.000000 0.000000 0.079088 0.000000
# 6 0.000000 0.000000 0.000000 0.000000 0.000000 0.033316
#
#
# Mechanical properties :
#
#
# Convention : Reuss Voigt Hill
#
# Bulk Modulus (GPa) = 17.35488 73.48114 45.41801
# Shear Modulus (GPa) = 17.99798 31.52166 24.75982
#
# Velocity S-wave (km/s) = 2.98919 3.95591 3.50603
# Velocity P-wave (km/s) = 4.53096 7.57271 6.24001
#
# Compressibility (1/GPa) = 0.05762069
#
# Stress axis : x y z
#
# Youngs Moduli (GPa) = 123.86013 118.95798 14.08581
#
# Poissons Ratio (x) = 0.44510 0.03298
# Poissons Ratio (y) = 0.46344 0.12457
# Poissons Ratio (z) = 0.28998 1.05201
#
# Static dielectric constant tensor:
#      x y z
#    x 4.249350 0.000000 0.000000 
#    y 0.000000 3.751840 0.000000 
#    z 0.000000 0.000000 3.038760 
# 
# 
# High freq. dielectric constant tensor:
#      x y z
#    x 1.808980 0.000000 0.000000 
#    y 0.000000 1.787380 0.000000 
#    z 0.000000 0.000000 1.727870 
# 
# From -- ./inp_files/14503.got.cif
#   From: 2010.03.12/outbox.cif.g09.slc.cpg/sg64_8_cif.got.tgz:14503.got - 2010.04.10 20:19:32.
