data_PCOD8263938
_publ_section_title
;
Structure prediction by ZEFSAII (Michael W. Deem and Ramdas Pophale) SiO2 
 PCOD8263938
Probable space group: C M C A
;
_chemical_formula_sum "Si O2"
_cell_formula_units_Z 104
_cell_length_a 15.817270
_cell_length_b 14.652767
_cell_length_c 22.272909
_cell_angle_alpha 90.000000
_cell_angle_beta 90.000000
_cell_angle_gamma 90.000000
_cell_volume 5162.120219
_symmetry_space_group_name_H-M "C M C A"
_symmetry_group_IT_number 64
_symmetry_cell_setting 'orthorhombic'
loop_
_space_group_symop_operation_xyz
x,y,z
-x,1/2-y,1/2+z
x,-y,-z
-x,1/2+y,1/2-z
-x,-y,-z
x,1/2+y,1/2-z
-x,y,z
x,1/2-y,1/2+z
1/2+x,1/2+y,z
1/2-x,-y,1/2+z
1/2+x,1/2-y,-z
1/2-x,y,1/2-z
1/2-x,1/2-y,-z
1/2+x,y,1/2-z
1/2-x,1/2+y,z
1/2+x,-y,1/2+z
loop_
_atom_site_type_symbol
_atom_site_label
_atom_site_fract_x
_atom_site_fract_y
_atom_site_fract_z
Si Si1 0.330746 0.463108 0.936116
Si Si2 0.000000 0.277552 0.318755
Si Si3 0.000000 0.079524 0.352944
Si Si4 0.856818 0.969736 0.564637
Si Si5 0.845483 0.162234 0.614410
Si Si6 0.596599 0.296117 0.979306
Si Si7 0.500000 0.369882 0.307902
Si Si8 0.658685 0.343980 0.107320
O O1 0.235014 0.423551 0.941105
O O2 0.388556 0.373241 0.926915
O O3 0.345754 0.544414 0.888139
O O4 0.360855 0.500000 0.000000
O O5 0.000000 0.166816 0.307580
O O6 0.000000 0.341942 0.261005
O O7 0.084347 0.301360 0.354506
O O8 0.078965 0.093315 0.398352
O O9 0.000000 0.980965 0.318528
O O10 0.894245 0.000000 0.500000
O O11 0.840066 0.055439 0.606383
O O12 0.875784 0.201601 0.550476
O O13 0.916607 0.179444 0.664962
O O14 0.749755 0.193031 0.632151
O O15 0.500000 0.292815 0.999631
O O16 0.653127 0.313279 0.038008
#
# Coordination Sequence:
#
# PCOD8263938 Si02
#       8
#    16   8   8  16  16  16   8  16
#     4   8  18  33  51  83 126 163 187 225 285 365
#     4  12  26  40  65  88 118 154 207 268 290 348
#     4  10  23  38  62  85 115 155 195 261 302 345
#     4   9  18  33  57  88 123 155 189 234 305 370
#     4  10  21  39  62  84 121 165 191 244 298 368
#     4  11  20  32  59  93 128 158 193 232 297 376
#     4  10  24  50  60  81 116 153 220 247 299 355
#     4  10  22  37  58  92 125 153 195 249 306 343
#
# _framework density 20.146761000000001
#
# number of rings (size 3 to 8) (size 9 to 14) (size 15 to 20)
#    0.000    2.154    1.538    1.615    5.385    1.538 
#    2.769    0.000    0.000    1.846    0.000    0.000 
#    0.000    0.000    0.000    0.000    0.000    0.000 
#
# Total GULP energy -644220.565922 kJ/mol
# GULP energy per Si atom -12388.857037 kJ/mol
# Density = 2.010091 g / cm^3
# Si number density = 20.146761 Si / 1000 Ang^3
#
#
#
# Elastic Constant Matrix: (Units=GPa)
#
#
# Indices 1 2 3 4 5 6 
#
# 1 142.1499 41.3238 32.5533 0.0000 0.0000 0.0000
# 2 41.3238 59.4917 28.1979 0.0000 0.0000 0.0000
# 3 32.5533 28.1979 73.4071 0.0000 0.0000 0.0000
# 4 0.0000 0.0000 0.0000 22.7266 0.0000 0.0000
# 5 0.0000 0.0000 0.0000 0.0000 6.8689 0.0000
# 6 0.0000 0.0000 0.0000 0.0000 0.0000 15.0263
#
#
#
# Elastic Compliance Matrix: (Units=1/GPa)
#
#
# Indices 1 2 3 4 5 6 
#
# 1 0.009038 -0.005353 -0.001952 0.000000 0.000000 0.000000
# 2 -0.005353 0.023721 -0.006738 0.000000 0.000000 0.000000
# 3 -0.001952 -0.006738 0.017077 0.000000 0.000000 0.000000
# 4 0.000000 0.000000 0.000000 0.044001 0.000000 0.000000
# 5 0.000000 0.000000 0.000000 0.000000 0.145583 0.000000
# 6 0.000000 0.000000 0.000000 0.000000 0.000000 0.066550
#
#
# Mechanical properties :
#
#
# Convention : Reuss Voigt Hill
#
# Bulk Modulus (GPa) = 45.97725 53.24431 49.61078
# Shear Modulus (GPa) = 14.64966 20.45594 17.55280
#
# Velocity S-wave (km/s) = 2.69949 3.18991 2.95489
# Velocity P-wave (km/s) = 5.70851 6.32874 6.02661
#
# Compressibility (1/GPa) = 0.02174989
#
# Stress axis : x y z
#
# Youngs Moduli (GPa) = 110.64554 42.15686 58.55974
#
# Poissons Ratio (x) = 0.22565 0.11430
# Poissons Ratio (y) = 0.59225 0.39459
# Poissons Ratio (z) = 0.21596 0.28406
#
# Static dielectric constant tensor:
#      x y z
#    x 4.154160 0.000000 0.000000 
#    y 0.000000 3.917050 0.000000 
#    z 0.000000 0.000000 3.182190 
# 
# 
# High freq. dielectric constant tensor:
#      x y z
#    x 1.805470 0.000000 0.000000 
#    y 0.000000 1.788310 0.000000 
#    z 0.000000 0.000000 1.725860 
# 
# From -- ./inp_files/40283.got.cif
#   From: 2010.03.12/outbox.cif.g09.slc.cpg/sg64_21_cif.got.tgz:40283.got - 2010.04.10 20:19:32.
