data_PCOD8263891
_publ_section_title
;
Structure prediction by ZEFSAII (Michael W. Deem and Ramdas Pophale) SiO2 
 PCOD8263891
Probable space group: C M C A
;
_chemical_formula_sum "Si O2"
_cell_formula_units_Z 72
_cell_length_a 10.639961
_cell_length_b 27.174678
_cell_length_c 12.650713
_cell_angle_alpha 90.000000
_cell_angle_beta 90.000000
_cell_angle_gamma 90.000000
_cell_volume 3657.795709
_symmetry_space_group_name_H-M "C M C A"
_symmetry_group_IT_number 64
_symmetry_cell_setting 'orthorhombic'
loop_
_space_group_symop_operation_xyz
x,y,z
-x,1/2-y,1/2+z
x,-y,-z
-x,1/2+y,1/2-z
-x,-y,-z
x,1/2+y,1/2-z
-x,y,z
x,1/2-y,1/2+z
1/2+x,1/2+y,z
1/2-x,-y,1/2+z
1/2+x,1/2-y,-z
1/2-x,y,1/2-z
1/2-x,1/2-y,-z
1/2+x,y,1/2-z
1/2-x,1/2+y,z
1/2+x,-y,1/2+z
loop_
_atom_site_type_symbol
_atom_site_label
_atom_site_fract_x
_atom_site_fract_y
_atom_site_fract_z
Si Si1 0.500000 0.038526 0.838061
Si Si2 0.500000 0.930027 0.925570
Si Si3 0.139375 0.748525 0.165903
Si Si4 0.358892 0.148639 0.570216
Si Si5 0.289500 0.355977 0.629558
Si Si6 0.750000 0.584045 0.750000
O O1 0.374022 0.051067 0.771142
O O2 0.500000 0.981284 0.864597
O O3 0.500000 0.067667 0.947953
O O4 0.621795 0.901629 0.888836
O O5 0.250000 0.752069 0.250000
O O6 0.157572 0.792860 0.084107
O O7 0.145279 0.696538 0.104092
O O8 0.000000 0.752754 0.219476
O O9 0.500000 0.131334 0.593783
O O10 0.328277 0.136901 0.448461
O O11 0.268377 0.118848 0.648558
O O12 0.250000 0.356730 0.750000
#
# Coordination Sequence:
#
# PCOD8263891 Si02
#       6
#     8   8  16  16  16   8
#     4  11  26  44  70  95 127 167 226 271 328 384
#     4  11  24  46  66  91 127 177 216 263 329 391
#     4  10  21  38  62  96 133 173 217 258 321 387
#     4  11  23  40  65  98 132 171 212 268 321 384
#     4  11  24  41  63  92 132 175 215 264 321 391
#     4  12  22  44  68  98 128 164 216 276 324 374
#
# _framework density 19.683985
#
# number of rings (size 3 to 8) (size 9 to 14) (size 15 to 20)
#    0.000    1.111    5.556    0.667    3.111    0.889 
#    2.000    0.000    0.000    4.000    0.000    0.000 
#    0.000    0.000    0.000    0.000    0.000    0.000 
#
# Total GULP energy -446338.550554 kJ/mol
# GULP energy per Si atom -12398.293071 kJ/mol
# Density = 1.963918 g / cm^3
# Si number density = 19.683985 Si / 1000 Ang^3
#
#
#
# Elastic Constant Matrix: (Units=GPa)
#
#
# Indices 1 2 3 4 5 6 
#
# 1 131.9392 46.7771 45.0421 0.0000 0.0000 0.0000
# 2 46.7771 101.6935 41.4824 0.0000 0.0000 0.0000
# 3 45.0421 41.4824 115.7382 0.0000 0.0000 0.0000
# 4 0.0000 0.0000 0.0000 23.0107 0.0000 0.0000
# 5 0.0000 0.0000 0.0000 0.0000 17.3823 0.0000
# 6 0.0000 0.0000 0.0000 0.0000 0.0000 23.3518
#
#
#
# Elastic Compliance Matrix: (Units=1/GPa)
#
#
# Indices 1 2 3 4 5 6 
#
# 1 0.009652 -0.003405 -0.002536 0.000000 0.000000 0.000000
# 2 -0.003405 0.012719 -0.003233 0.000000 0.000000 0.000000
# 3 -0.002536 -0.003233 0.010786 0.000000 0.000000 0.000000
# 4 0.000000 0.000000 0.000000 0.043458 0.000000 0.000000
# 5 0.000000 0.000000 0.000000 0.000000 0.057530 0.000000
# 6 0.000000 0.000000 0.000000 0.000000 0.000000 0.042823
#
#
# Mechanical properties :
#
#
# Convention : Reuss Voigt Hill
#
# Bulk Modulus (GPa) = 67.53181 68.44158 67.98670
# Shear Modulus (GPa) = 24.96837 27.15358 26.06097
#
# Velocity S-wave (km/s) = 3.56541 3.71816 3.64259
# Velocity P-wave (km/s) = 7.16464 7.29922 7.23224
#
# Compressibility (1/GPa) = 0.01480784
#
# Stress axis : x y z
#
# Youngs Moduli (GPa) = 103.60220 78.62342 92.71325
#
# Poissons Ratio (x) = 0.26775 0.23511
# Poissons Ratio (y) = 0.35281 0.29977
# Poissons Ratio (z) = 0.26272 0.25422
#
# Static dielectric constant tensor:
#      x y z
#    x 3.670830 0.000000 0.000000 
#    y 0.000000 3.763140 0.000000 
#    z 0.000000 0.000000 3.444730 
# 
# 
# High freq. dielectric constant tensor:
#      x y z
#    x 1.778400 0.000000 0.000000 
#    y 0.000000 1.772520 0.000000 
#    z 0.000000 0.000000 1.757980 
# 
# From -- ./inp_files/13108.got.cif
#   From: 2010.03.12/outbox.cif.g09.slc.cpg/sg64_7_cif.got.tgz:13108.got - 2010.04.10 20:19:32.
