data_PCOD8263987
_publ_section_title
;
Structure prediction by ZEFSAII (Michael W. Deem and Ramdas Pophale) SiO2 
 PCOD8263987
Probable space group: C M C A
;
_chemical_formula_sum "Si O2"
_cell_formula_units_Z 112
_cell_length_a 14.444071
_cell_length_b 23.673032
_cell_length_c 15.145388
_cell_angle_alpha 90.000000
_cell_angle_beta 90.000000
_cell_angle_gamma 90.000000
_cell_volume 5178.737564
_symmetry_space_group_name_H-M "C M C A"
_symmetry_group_IT_number 64
_symmetry_cell_setting 'orthorhombic'
loop_
_space_group_symop_operation_xyz
x,y,z
-x,1/2-y,1/2+z
x,-y,-z
-x,1/2+y,1/2-z
-x,-y,-z
x,1/2+y,1/2-z
-x,y,z
x,1/2-y,1/2+z
1/2+x,1/2+y,z
1/2-x,-y,1/2+z
1/2+x,1/2-y,-z
1/2-x,y,1/2-z
1/2-x,1/2-y,-z
1/2+x,y,1/2-z
1/2-x,1/2+y,z
1/2+x,-y,1/2+z
loop_
_atom_site_type_symbol
_atom_site_label
_atom_site_fract_x
_atom_site_fract_y
_atom_site_fract_z
Si Si1 0.393899 0.281386 0.654397
Si Si2 0.690119 0.164081 0.661191
Si Si3 0.103919 0.042769 0.868285
Si Si4 0.733222 0.036511 0.070600
Si Si5 0.606703 0.156402 0.330402
Si Si6 0.898202 0.454063 0.767239
Si Si7 0.751897 0.836771 0.528042
O O1 0.500000 0.295059 0.635910
O O2 0.381770 0.215025 0.672483
O O3 0.358489 0.312730 0.742115
O O4 0.341041 0.307251 0.570296
O O5 0.750000 0.156871 0.750000
O O6 0.635292 0.107194 0.639826
O O7 0.749574 0.182119 0.574381
O O8 0.000000 0.040849 0.910711
O O9 0.174872 0.002675 0.920371
O O10 0.098830 0.017444 0.769355
O O11 0.680423 0.048450 0.160454
O O12 0.751519 0.095914 0.025719
O O13 0.671968 0.000000 0.000000
O O14 0.500000 0.168629 0.350812
O O15 0.626510 0.089430 0.313136
O O16 0.662177 0.180889 0.414032
O O17 0.000000 0.436858 0.805461
#
# Coordination Sequence:
#
# PCOD8263987 Si02
#       7
#    16  16  16  16  16  16  16
#     4  11  25  46  71 102 135 172 221 281 340 406
#     4  12  26  47  68  93 136 188 229 273 335 405
#     4  11  24  41  63  96 135 179 222 270 334 406
#     4  12  23  38  62  99 137 176 220 278 338 398
#     4  10  21  39  68 103 130 163 219 285 342 390
#     4  10  21  39  65  94 131 174 220 278 339 394
#     4  12  24  41  70 101 131 177 226 281 337 395
#
# _framework density 21.626892999999999
#
# number of rings (size 3 to 8) (size 9 to 14) (size 15 to 20)
#    0.000    0.857    4.286    3.429    0.000    1.714 
#    0.000    2.857    0.000    0.000    0.000    0.000 
#    0.000    0.000    0.000    0.000    0.000    0.000 
#
# Total GULP energy -694106.011892 kJ/mol
# GULP energy per Si atom -12394.750212 kJ/mol
# Density = 2.157767 g / cm^3
# Si number density = 21.626893 Si / 1000 Ang^3
#
#
#
# Elastic Constant Matrix: (Units=GPa)
#
#
# Indices 1 2 3 4 5 6 
#
# 1 93.9787 24.8951 43.0827 0.0000 0.0000 0.0000
# 2 24.8951 121.9992 10.3426 0.0000 0.0000 0.0000
# 3 43.0827 10.3426 125.1965 0.0000 0.0000 0.0000
# 4 0.0000 0.0000 0.0000 16.8618 0.0000 0.0000
# 5 0.0000 0.0000 0.0000 0.0000 8.7164 0.0000
# 6 0.0000 0.0000 0.0000 0.0000 0.0000 31.0470
#
#
#
# Elastic Compliance Matrix: (Units=1/GPa)
#
#
# Indices 1 2 3 4 5 6 
#
# 1 0.013263 -0.002336 -0.004371 0.000000 0.000000 0.000000
# 2 -0.002336 0.008666 0.000088 0.000000 0.000000 0.000000
# 3 -0.004371 0.000088 0.009484 0.000000 0.000000 0.000000
# 4 0.000000 0.000000 0.000000 0.059306 0.000000 0.000000
# 5 0.000000 0.000000 0.000000 0.000000 0.114727 0.000000
# 6 0.000000 0.000000 0.000000 0.000000 0.000000 0.032209
#
#
# Mechanical properties :
#
#
# Convention : Reuss Voigt Hill
#
# Bulk Modulus (GPa) = 55.01966 55.31281 55.16623
# Shear Modulus (GPa) = 19.45887 28.84864 24.15376
#
# Velocity S-wave (km/s) = 3.00284 3.65626 3.34554
# Velocity P-wave (km/s) = 6.12522 6.59210 6.36294
#
# Compressibility (1/GPa) = 0.01817532
#
# Stress axis : x y z
#
# Youngs Moduli (GPa) = 75.39543 115.39365 105.43619
#
# Poissons Ratio (x) = 0.26955 0.46089
# Poissons Ratio (y) = 0.17612 -0.00927
# Poissons Ratio (z) = 0.32957 -0.01015
#
# Static dielectric constant tensor:
#      x y z
#    x 3.814290 0.000000 0.000000 
#    y 0.000000 4.213230 0.000000 
#    z 0.000000 0.000000 3.973400 
# 
# 
# High freq. dielectric constant tensor:
#      x y z
#    x 1.841900 0.000000 0.000000 
#    y 0.000000 1.865470 0.000000 
#    z 0.000000 0.000000 1.847900 
# 
# From -- ./inp_files/24206.got.cif
#   From: 2010.03.12/outbox.cif.g09.slc.cpg/sg64_13_cif.got.tgz:24206.got - 2010.04.10 20:19:32.
