data_PCOD8263705
_publ_section_title
;
Structure prediction by ZEFSAII (Michael W. Deem and Ramdas Pophale) SiO2 
 PCOD8263705
Probable space group: C M C A
;
_chemical_formula_sum "Si O2"
_cell_formula_units_Z 96
_cell_length_a 15.569471
_cell_length_b 21.381395
_cell_length_c 14.405192
_cell_angle_alpha 90.000000
_cell_angle_beta 90.000000
_cell_angle_gamma 90.000000
_cell_volume 4795.445337
_symmetry_space_group_name_H-M "C M C A"
_symmetry_group_IT_number 64
_symmetry_cell_setting 'orthorhombic'
loop_
_space_group_symop_operation_xyz
x,y,z
-x,1/2-y,1/2+z
x,-y,-z
-x,1/2+y,1/2-z
-x,-y,-z
x,1/2+y,1/2-z
-x,y,z
x,1/2-y,1/2+z
1/2+x,1/2+y,z
1/2-x,-y,1/2+z
1/2+x,1/2-y,-z
1/2-x,y,1/2-z
1/2-x,1/2-y,-z
1/2+x,y,1/2-z
1/2-x,1/2+y,z
1/2+x,-y,1/2+z
loop_
_atom_site_type_symbol
_atom_site_label
_atom_site_fract_x
_atom_site_fract_y
_atom_site_fract_z
Si Si1 0.500000 0.397401 0.971883
Si Si2 0.817172 0.068062 0.533516
Si Si3 0.824705 0.831702 0.005852
Si Si4 0.153827 0.014570 0.720259
Si Si5 0.500000 0.513993 0.853778
Si Si6 0.900465 0.386609 0.858084
Si Si7 0.212793 0.230276 0.349513
O O1 0.417923 0.352968 0.973447
O O2 0.500000 0.443486 0.057422
O O3 0.500000 0.440175 0.879099
O O4 0.731867 0.109389 0.536922
O O5 0.887516 0.100605 0.467581
O O6 0.785919 0.000000 0.500000
O O7 0.864281 0.059396 0.632140
O O8 0.831714 0.787529 0.096283
O O9 0.786856 0.796816 0.915937
O O10 0.250000 0.029097 0.750000
O O11 0.146625 0.941263 0.697971
O O12 0.085377 0.032461 0.797919
O O13 0.859364 0.321320 0.828020
O O14 0.000000 0.386300 0.833060
O O15 0.250000 0.252776 0.250000
#
# Coordination Sequence:
#
# PCOD8263705 Si02
#       7
#     8  16  16  16   8  16  16
#     4  11  26  40  59  83 135 155 205 253 312 373
#     4   9  21  37  64  88 124 162 195 245 312 368
#     4  10  23  43  63  91 121 170 202 260 310 369
#     4  11  22  36  60  92 125 159 209 249 308 372
#     4  11  26  38  58  95 123 167 203 251 313 378
#     4  10  21  36  63  91 125 155 203 258 305 362
#     4  10  23  42  67  89 120 160 216 255 311 365
#
# _framework density 20.018995
#
# number of rings (size 3 to 8) (size 9 to 14) (size 15 to 20)
#    0.000    1.833    0.833    1.500   14.000    3.000 
#    0.000    0.000    0.000    0.000    0.000    0.000 
#    0.000    0.000    0.000    0.000    0.000    0.000 
#
# Total GULP energy -595278.795336 kJ/mol
# GULP energy per Si atom -12401.641569 kJ/mol
# Density = 1.997343 g / cm^3
# Si number density = 20.018995 Si / 1000 Ang^3
#
#
#
# Elastic Constant Matrix: (Units=GPa)
#
#
# Indices 1 2 3 4 5 6 
#
# 1 97.1747 5.0973 18.5679 0.0000 0.0000 0.0000
# 2 5.0973 41.8114 3.2811 0.0000 0.0000 0.0000
# 3 18.5679 3.2811 91.1704 0.0000 0.0000 0.0000
# 4 0.0000 0.0000 0.0000 25.3646 0.0000 0.0000
# 5 0.0000 0.0000 0.0000 0.0000 26.2275 0.0000
# 6 0.0000 0.0000 0.0000 0.0000 0.0000 18.2233
#
#
#
# Elastic Compliance Matrix: (Units=1/GPa)
#
#
# Indices 1 2 3 4 5 6 
#
# 1 0.010762 -0.001143 -0.002151 0.000000 0.000000 0.000000
# 2 -0.001143 0.024106 -0.000635 0.000000 0.000000 0.000000
# 3 -0.002151 -0.000635 0.011429 0.000000 0.000000 0.000000
# 4 0.000000 0.000000 0.000000 0.039425 0.000000 0.000000
# 5 0.000000 0.000000 0.000000 0.000000 0.038128 0.000000
# 6 0.000000 0.000000 0.000000 0.000000 0.000000 0.054875
#
#
# Mechanical properties :
#
#
# Convention : Reuss Voigt Hill
#
# Bulk Modulus (GPa) = 26.01453 31.56100 28.78777
# Shear Modulus (GPa) = 25.07583 27.51042 26.29313
#
# Velocity S-wave (km/s) = 3.54305 3.71106 3.62803
# Velocity P-wave (km/s) = 5.45534 5.84486 5.65346
#
# Compressibility (1/GPa) = 0.03844005
#
# Stress axis : x y z
#
# Youngs Moduli (GPa) = 92.92267 41.48324 87.49442
#
# Poissons Ratio (x) = 0.04742 0.18816
# Poissons Ratio (y) = 0.10623 0.05553
# Poissons Ratio (z) = 0.19984 0.02633
#
# Static dielectric constant tensor:
#      x y z
#    x 3.571970 0.000000 0.000000 
#    y 0.000000 3.678940 0.000000 
#    z 0.000000 0.000000 3.879330 
# 
# 
# High freq. dielectric constant tensor:
#      x y z
#    x 1.774720 0.000000 0.000000 
#    y 0.000000 1.775950 0.000000 
#    z 0.000000 0.000000 1.793060 
# 
# From -- ./inp_files/24144.got.cif
#   From: 2010.03.12/outbox.cif.g09.slc.cpg/sg64_13_cif.got.tgz:24144.got - 2010.04.10 20:19:32.
