data_PCOD8263082
_publ_section_title
;
Structure prediction by ZEFSAII (Michael W. Deem and Ramdas Pophale) SiO2 
 PCOD8263082
Probable space group: C M C A
;
_chemical_formula_sum "Si O2"
_cell_formula_units_Z 96
_cell_length_a 18.470817
_cell_length_b 11.680963
_cell_length_c 22.884741
_cell_angle_alpha 90.000000
_cell_angle_beta 90.000000
_cell_angle_gamma 90.000000
_cell_volume 4937.541461
_symmetry_space_group_name_H-M "C M C A"
_symmetry_group_IT_number 64
_symmetry_cell_setting 'orthorhombic'
loop_
_space_group_symop_operation_xyz
x,y,z
-x,1/2-y,1/2+z
x,-y,-z
-x,1/2+y,1/2-z
-x,-y,-z
x,1/2+y,1/2-z
-x,y,z
x,1/2-y,1/2+z
1/2+x,1/2+y,z
1/2-x,-y,1/2+z
1/2+x,1/2-y,-z
1/2-x,y,1/2-z
1/2-x,1/2-y,-z
1/2+x,y,1/2-z
1/2-x,1/2+y,z
1/2+x,-y,1/2+z
loop_
_atom_site_type_symbol
_atom_site_label
_atom_site_fract_x
_atom_site_fract_y
_atom_site_fract_z
Si Si1 0.158129 0.790510 0.051244
Si Si2 0.169188 0.424355 0.160442
Si Si3 0.172255 0.513750 0.637626
Si Si4 0.418131 0.847875 0.856870
Si Si5 0.183884 0.279214 0.577718
Si Si6 0.084113 0.642205 0.726814
O O1 0.094051 0.722484 0.083487
O O2 0.231175 0.719146 0.063163
O O3 0.165116 0.918519 0.076485
O O4 0.139959 0.797258 0.982561
O O5 0.254085 0.448541 0.170691
O O6 0.132774 0.543613 0.145340
O O7 0.158065 0.339552 0.105854
O O8 0.133785 0.365192 0.216399
O O9 0.168316 0.379947 0.623638
O O10 0.106447 0.543063 0.681110
O O11 0.500000 0.891315 0.855194
O O12 0.401246 0.766143 0.801687
O O13 0.000000 0.624366 0.742894
#
# Coordination Sequence:
#
# PCOD8263082 Si02
#       6
#    16  16  16  16  16  16
#     4   9  19  37  59  87 119 155 192 239 301 348
#     4  11  22  37  58  90 117 152 202 242 292 352
#     4  10  20  38  61  89 116 154 198 247 291 347
#     4  10  21  40  60  82 121 160 196 242 303 357
#     4  10  20  35  61  89 118 149 198 248 286 349
#     4  10  23  41  59  81 117 160 195 240 297 353
#
# _framework density 19.442874
#
# number of rings (size 3 to 8) (size 9 to 14) (size 15 to 20)
#    0.000    2.000    1.667    1.500    2.333    0.667 
#    0.000    4.167    0.000    4.000    0.000    0.000 
#    0.000    0.000    0.000    0.000    0.000    0.000 
#
# Total GULP energy -595316.468904 kJ/mol
# GULP energy per Si atom -12402.426435 kJ/mol
# Density = 1.939862 g / cm^3
# Si number density = 19.442874 Si / 1000 Ang^3
#
#
#
# Elastic Constant Matrix: (Units=GPa)
#
#
# Indices 1 2 3 4 5 6 
#
# 1 65.9368 38.9945 41.5929 0.0000 0.0000 0.0000
# 2 38.9945 101.6779 30.7657 0.0000 0.0000 0.0000
# 3 41.5929 30.7657 111.5874 0.0000 0.0000 0.0000
# 4 0.0000 0.0000 0.0000 23.8603 0.0000 0.0000
# 5 0.0000 0.0000 0.0000 0.0000 21.8681 0.0000
# 6 0.0000 0.0000 0.0000 0.0000 0.0000 24.5677
#
#
#
# Elastic Compliance Matrix: (Units=1/GPa)
#
#
# Indices 1 2 3 4 5 6 
#
# 1 0.023639 -0.006982 -0.006886 0.000000 0.000000 0.000000
# 2 -0.006982 0.012792 -0.000924 0.000000 0.000000 0.000000
# 3 -0.006886 -0.000924 0.011783 0.000000 0.000000 0.000000
# 4 0.000000 0.000000 0.000000 0.041911 0.000000 0.000000
# 5 0.000000 0.000000 0.000000 0.000000 0.045729 0.000000
# 6 0.000000 0.000000 0.000000 0.000000 0.000000 0.040704
#
#
# Mechanical properties :
#
#
# Convention : Reuss Voigt Hill
#
# Bulk Modulus (GPa) = 53.67946 55.76759 54.72352
# Shear Modulus (GPa) = 23.54569 25.24915 24.39742
#
# Velocity S-wave (km/s) = 3.48375 3.60756 3.54620
# Velocity P-wave (km/s) = 6.62199 6.78953 6.70628
#
# Compressibility (1/GPa) = 0.01862910
#
# Stress axis : x y z
#
# Youngs Moduli (GPa) = 42.30297 78.17104 84.86677
#
# Poissons Ratio (x) = 0.54581 0.58440
# Poissons Ratio (y) = 0.29537 0.07846
# Poissons Ratio (z) = 0.29130 0.07227
#
# Static dielectric constant tensor:
#      x y z
#    x 3.462930 0.000000 0.000000 
#    y 0.000000 3.458270 0.000000 
#    z 0.000000 0.000000 3.559110 
# 
# 
# High freq. dielectric constant tensor:
#      x y z
#    x 1.743270 0.000000 0.000000 
#    y 0.000000 1.761790 0.000000 
#    z 0.000000 0.000000 1.757460 
# 
# From -- ./inp_files/40832.got.cif
#   From: 2010.03.12/outbox.cif.g09.slc.cpg/sg64_21_cif.got.tgz:40832.got - 2010.04.10 20:19:32.
