data_PCOD8263583
_publ_section_title
;
Structure prediction by ZEFSAII (Michael W. Deem and Ramdas Pophale) SiO2 
 PCOD8263583
Probable space group: C M C A
;
_chemical_formula_sum "Si O2"
_cell_formula_units_Z 112
_cell_length_a 24.294715
_cell_length_b 14.542040
_cell_length_c 14.255327
_cell_angle_alpha 90.000000
_cell_angle_beta 90.000000
_cell_angle_gamma 90.000000
_cell_volume 5036.331723
_symmetry_space_group_name_H-M "C M C A"
_symmetry_group_IT_number 64
_symmetry_cell_setting 'orthorhombic'
loop_
_space_group_symop_operation_xyz
x,y,z
-x,1/2-y,1/2+z
x,-y,-z
-x,1/2+y,1/2-z
-x,-y,-z
x,1/2+y,1/2-z
-x,y,z
x,1/2-y,1/2+z
1/2+x,1/2+y,z
1/2-x,-y,1/2+z
1/2+x,1/2-y,-z
1/2-x,y,1/2-z
1/2-x,1/2-y,-z
1/2+x,y,1/2-z
1/2-x,1/2+y,z
1/2+x,-y,1/2+z
loop_
_atom_site_type_symbol
_atom_site_label
_atom_site_fract_x
_atom_site_fract_y
_atom_site_fract_z
Si Si1 0.250826 0.034290 0.359011
Si Si2 0.866021 0.820258 0.200318
Si Si3 0.063280 0.649006 0.255898
Si Si4 0.877121 0.489695 0.607077
Si Si5 0.699522 0.708624 0.445036
Si Si6 0.165726 0.614990 0.882338
Si Si7 0.938985 0.004753 0.610322
O O1 0.250000 0.013149 0.250000
O O2 0.312102 0.031454 0.398643
O O3 0.220385 0.130282 0.375101
O O4 0.214636 0.955069 0.408604
O O5 0.912890 0.749814 0.234423
O O6 0.830895 0.786211 0.112689
O O7 0.822246 0.828666 0.286883
O O8 0.891037 0.917983 0.165831
O O9 0.093958 0.596397 0.340986
O O10 0.069717 0.594297 0.158026
O O11 0.000000 0.659814 0.285879
O O12 0.899001 0.500000 0.500000
O O13 0.750000 0.750000 0.500000
O O14 0.656706 0.674261 0.524246
O O15 0.107613 0.571246 0.850583
O O16 0.000000 0.042985 0.634499
O O17 0.930127 0.000000 0.500000
#
# Coordination Sequence:
#
# PCOD8263583 Si02
#       7
#    16  16  16  16  16  16  16
#     4  12  23  44  70 101 148 193 236 296 364 439
#     4  12  26  45  71 106 142 193 246 298 361 438
#     4  11  26  49  73 104 142 188 245 312 370 431
#     4  12  26  48  74 105 150 195 245 302 373 450
#     4  12  28  40  68 106 148 190 238 295 361 439
#     4  12  24  43  69  98 143 186 241 290 363 429
#     4  10  20  41  72 100 130 176 236 301 364 421
#
# _framework density 22.238409000000001
#
# number of rings (size 3 to 8) (size 9 to 14) (size 15 to 20)
#    0.000    0.429    2.857    6.429    6.000    1.429 
#    0.000    0.000    0.000    0.000    0.000    0.000 
#    0.000    0.000    0.000    0.000    0.000    0.000 
#
# Total GULP energy -694421.675223 kJ/mol
# GULP energy per Si atom -12400.387058 kJ/mol
# Density = 2.218779 g / cm^3
# Si number density = 22.238409 Si / 1000 Ang^3
#
#
#
# Elastic Constant Matrix: (Units=GPa)
#
#
# Indices 1 2 3 4 5 6 
#
# 1 116.6603 37.3785 24.8196 0.0000 0.0000 0.0000
# 2 37.3785 89.4298 23.4458 0.0000 0.0000 0.0000
# 3 24.8196 23.4458 107.3600 0.0000 0.0000 0.0000
# 4 0.0000 0.0000 0.0000 41.3937 0.0000 0.0000
# 5 0.0000 0.0000 0.0000 0.0000 26.0634 0.0000
# 6 0.0000 0.0000 0.0000 0.0000 0.0000 27.4391
#
#
#
# Elastic Compliance Matrix: (Units=1/GPa)
#
#
# Indices 1 2 3 4 5 6 
#
# 1 0.010121 -0.003836 -0.001502 0.000000 0.000000 0.000000
# 2 -0.003836 0.013315 -0.002021 0.000000 0.000000 0.000000
# 3 -0.001502 -0.002021 0.010103 0.000000 0.000000 0.000000
# 4 0.000000 0.000000 0.000000 0.024158 0.000000 0.000000
# 5 0.000000 0.000000 0.000000 0.000000 0.038368 0.000000
# 6 0.000000 0.000000 0.000000 0.000000 0.000000 0.036444
#
#
# Mechanical properties :
#
#
# Convention : Reuss Voigt Hill
#
# Bulk Modulus (GPa) = 53.13352 53.85977 53.49664
# Shear Modulus (GPa) = 32.57300 34.16631 33.36965
#
# Velocity S-wave (km/s) = 3.83132 3.92390 3.87788
# Velocity P-wave (km/s) = 6.59671 6.69337 6.64521
#
# Compressibility (1/GPa) = 0.01882051
#
# Stress axis : x y z
#
# Youngs Moduli (GPa) = 98.80836 75.10201 98.98038
#
# Poissons Ratio (x) = 0.28811 0.14866
# Poissons Ratio (y) = 0.37906 0.20004
# Poissons Ratio (z) = 0.14840 0.15178
#
# Static dielectric constant tensor:
#      x y z
#    x 4.007550 0.000000 0.000000 
#    y 0.000000 4.007260 0.000000 
#    z 0.000000 0.000000 4.527920 
# 
# 
# High freq. dielectric constant tensor:
#      x y z
#    x 1.864560 0.000000 0.000000 
#    y 0.000000 1.875650 0.000000 
#    z 0.000000 0.000000 1.901860 
# 
# From -- ./inp_files/27401.got.cif
#   From: 2010.03.12/outbox.cif.g09.slc.cpg/sg64_14_cif.got.tgz:27401.got - 2010.04.10 20:19:32.
