data_PCOD8263943
_publ_section_title
;
Structure prediction by ZEFSAII (Michael W. Deem and Ramdas Pophale) SiO2 
 PCOD8263943
Probable space group: C M C A
;
_chemical_formula_sum "Si O2"
_cell_formula_units_Z 96
_cell_length_a 8.825526
_cell_length_b 28.619674
_cell_length_c 20.285810
_cell_angle_alpha 90.000000
_cell_angle_beta 90.000000
_cell_angle_gamma 90.000000
_cell_volume 5123.864481
_symmetry_space_group_name_H-M "C M C A"
_symmetry_group_IT_number 64
_symmetry_cell_setting 'orthorhombic'
loop_
_space_group_symop_operation_xyz
x,y,z
-x,1/2-y,1/2+z
x,-y,-z
-x,1/2+y,1/2-z
-x,-y,-z
x,1/2+y,1/2-z
-x,y,z
x,1/2-y,1/2+z
1/2+x,1/2+y,z
1/2-x,-y,1/2+z
1/2+x,1/2-y,-z
1/2-x,y,1/2-z
1/2-x,1/2-y,-z
1/2+x,y,1/2-z
1/2-x,1/2+y,z
1/2+x,-y,1/2+z
loop_
_atom_site_type_symbol
_atom_site_label
_atom_site_fract_x
_atom_site_fract_y
_atom_site_fract_z
Si Si1 0.174666 0.973104 0.435365
Si Si2 0.322060 0.721051 0.941093
Si Si3 0.324637 0.130050 0.982447
Si Si4 0.322579 0.216259 0.183373
Si Si5 0.820603 0.625874 0.375159
Si Si6 0.678358 0.526429 0.180185
O O1 0.197166 0.918057 0.443892
O O2 0.000000 0.986706 0.423631
O O3 0.236157 0.000000 0.500000
O O4 0.270938 0.987792 0.372343
O O5 0.500000 0.716197 0.953529
O O6 0.245986 0.670222 0.936725
O O7 0.284374 0.746960 0.873410
O O8 0.250000 0.750000 0.000000
O O9 0.500000 0.140773 0.997070
O O10 0.238028 0.129252 0.051005
O O11 0.500000 0.209005 0.192361
O O12 0.250000 0.236629 0.250000
O O13 0.249310 0.166310 0.168980
O O14 0.765877 0.577132 0.343948
O O15 0.000000 0.630656 0.375621
O O16 0.500000 0.524619 0.187529
O O17 0.750000 0.513783 0.250000
#
# Coordination Sequence:
#
# PCOD8263943 Si02
#       6
#    16  16  16  16  16  16
#     4  10  21  39  62  87 119 158 198 245 297 353
#     4  11  23  39  61  88 120 158 200 245 294 351
#     4  11  22  37  61  91 120 155 198 246 297 350
#     4  11  24  40  60  87 120 158 198 243 297 355
#     4  11  22  36  59  90 123 158 194 243 299 355
#     4  11  24  39  59  88 122 160 200 245 299 358
#
# _framework density 18.735859000000001
#
# number of rings (size 3 to 8) (size 9 to 14) (size 15 to 20)
#    0.000    1.167    3.333    3.000    0.000    7.000 
#    0.000    0.833    0.000    2.000    0.000    0.000 
#    0.000    0.000    0.000    0.000    0.000    0.000 
#
# Total GULP energy -595527.292899 kJ/mol
# GULP energy per Si atom -12406.818602 kJ/mol
# Density = 1.869322 g / cm^3
# Si number density = 18.735859 Si / 1000 Ang^3
#
#
#
# Elastic Constant Matrix: (Units=GPa)
#
#
# Indices 1 2 3 4 5 6 
#
# 1 77.4411 47.4011 52.3291 0.0000 0.0000 0.0000
# 2 47.4011 111.6294 56.6537 0.0000 0.0000 0.0000
# 3 52.3291 56.6537 136.2576 0.0000 0.0000 0.0000
# 4 0.0000 0.0000 0.0000 19.4079 0.0000 0.0000
# 5 0.0000 0.0000 0.0000 0.0000 34.2631 0.0000
# 6 0.0000 0.0000 0.0000 0.0000 0.0000 33.2662
#
#
#
# Elastic Compliance Matrix: (Units=1/GPa)
#
#
# Indices 1 2 3 4 5 6 
#
# 1 0.020049 -0.005837 -0.005273 0.000000 0.000000 0.000000
# 2 -0.005837 0.013054 -0.003186 0.000000 0.000000 0.000000
# 3 -0.005273 -0.003186 0.010689 0.000000 0.000000 0.000000
# 4 0.000000 0.000000 0.000000 0.051526 0.000000 0.000000
# 5 0.000000 0.000000 0.000000 0.000000 0.029186 0.000000
# 6 0.000000 0.000000 0.000000 0.000000 0.000000 0.030061
#
#
# Mechanical properties :
#
#
# Convention : Reuss Voigt Hill
#
# Bulk Modulus (GPa) = 65.79054 70.89953 68.34503
# Shear Modulus (GPa) = 26.56448 28.65037 27.60743
#
# Velocity S-wave (km/s) = 3.76951 3.91471 3.84279
# Velocity P-wave (km/s) = 7.35776 7.63918 7.49979
#
# Compressibility (1/GPa) = 0.01519975
#
# Stress axis : x y z
#
# Youngs Moduli (GPa) = 49.87796 76.60627 93.55836
#
# Poissons Ratio (x) = 0.44719 0.49329
# Poissons Ratio (y) = 0.29116 0.29805
# Poissons Ratio (z) = 0.26299 0.24404
#
# Static dielectric constant tensor:
#      x y z
#    x 3.568030 0.000000 0.000000 
#    y 0.000000 3.750440 0.000000 
#    z 0.000000 0.000000 3.422930 
# 
# 
# High freq. dielectric constant tensor:
#      x y z
#    x 1.741640 0.000000 0.000000 
#    y 0.000000 1.731050 0.000000 
#    z 0.000000 0.000000 1.728140 
# 
# From -- ./inp_files/36999.got.cif
#   From: 2010.03.12/outbox.cif.g09.slc.cpg/sg64_19_cif.got.tgz:36999.got - 2010.04.10 20:19:32.
