data_PCOD8263799
_publ_section_title
;
Structure prediction by ZEFSAII (Michael W. Deem and Ramdas Pophale) SiO2 
 PCOD8263799
Probable space group: C M C A
;
_chemical_formula_sum "Si O2"
_cell_formula_units_Z 80
_cell_length_a 21.164293
_cell_length_b 18.115432
_cell_length_c 9.872931
_cell_angle_alpha 90.000000
_cell_angle_beta 90.000000
_cell_angle_gamma 90.000000
_cell_volume 3785.284813
_symmetry_space_group_name_H-M "C M C A"
_symmetry_group_IT_number 64
_symmetry_cell_setting 'orthorhombic'
loop_
_space_group_symop_operation_xyz
x,y,z
-x,1/2-y,1/2+z
x,-y,-z
-x,1/2+y,1/2-z
-x,-y,-z
x,1/2+y,1/2-z
-x,y,z
x,1/2-y,1/2+z
1/2+x,1/2+y,z
1/2-x,-y,1/2+z
1/2+x,1/2-y,-z
1/2-x,y,1/2-z
1/2-x,1/2-y,-z
1/2+x,y,1/2-z
1/2-x,1/2+y,z
1/2+x,-y,1/2+z
loop_
_atom_site_type_symbol
_atom_site_label
_atom_site_fract_x
_atom_site_fract_y
_atom_site_fract_z
Si Si1 0.000000 0.959956 0.142864
Si Si2 0.702934 0.471635 0.635128
Si Si3 0.000000 0.565252 0.110060
Si Si4 0.127570 0.105577 0.756627
Si Si5 0.619215 0.345406 0.535000
Si Si6 0.793742 0.771367 0.126105
O O1 0.062673 0.909228 0.161335
O O2 0.000000 0.027602 0.245743
O O3 0.000000 0.000000 0.000000
O O4 0.738708 0.500000 0.500000
O O5 0.750000 0.448980 0.750000
O O6 0.650675 0.528023 0.693442
O O7 0.675312 0.396549 0.582238
O O8 0.056777 0.621529 0.097533
O O9 0.000000 0.500000 0.000000
O O10 0.114457 0.160007 0.628848
O O11 0.182911 0.143045 0.849934
O O12 0.638003 0.267819 0.604205
O O13 0.750000 0.745682 0.250000
O O14 0.750000 0.750000 0.000000
#
# Coordination Sequence:
#
# PCOD8263799 Si02
#       6
#     8  16   8  16  16  16
#     4  12  26  45  70 108 144 174 234 309 352 408
#     4  10  21  37  66  99 133 179 236 285 346 409
#     4  12  20  45  76 100 134 184 238 285 351 421
#     4  11  23  45  68  98 141 184 230 295 351 408
#     4  11  22  42  72  98 133 191 237 282 347 424
#     4  12  26  45  70 101 148 190 232 289 352 422
#
# _framework density 21.134473
#
# number of rings (size 3 to 8) (size 9 to 14) (size 15 to 20)
#    0.000    0.800    6.000    1.800    2.800    3.200 
#    0.000    0.000    0.000    0.000    0.000    0.000 
#    0.000    0.000    0.000    0.000    0.000    0.000 
#
# Total GULP energy -495526.779380 kJ/mol
# GULP energy per Si atom -12388.169485 kJ/mol
# Density = 2.108637 g / cm^3
# Si number density = 21.134473 Si / 1000 Ang^3
#
#
#
# Elastic Constant Matrix: (Units=GPa)
#
#
# Indices 1 2 3 4 5 6 
#
# 1 112.7133 19.5144 62.5150 0.0000 0.0000 0.0000
# 2 19.5144 58.4765 29.0861 0.0000 0.0000 0.0000
# 3 62.5150 29.0861 149.5662 0.0000 0.0000 0.0000
# 4 0.0000 0.0000 0.0000 24.5710 0.0000 0.0000
# 5 0.0000 0.0000 0.0000 0.0000 38.9229 0.0000
# 6 0.0000 0.0000 0.0000 0.0000 0.0000-1445.3506
#
#
#
# Elastic Compliance Matrix: (Units=1/GPa)
#
#
# Indices 1 2 3 4 5 6 
#
# 1 0.011688 -0.001628 -0.004569 0.000000 0.000000 0.000000
# 2 -0.001628 0.019159 -0.003045 0.000000 0.000000 0.000000
# 3 -0.004569 -0.003045 0.009188 0.000000 0.000000 0.000000
# 4 0.000000 0.000000 0.000000 0.040698 0.000000 0.000000
# 5 0.000000 0.000000 0.000000 0.000000 0.025692 0.000000
# 6 0.000000 0.000000 0.000000 0.000000 0.000000 -0.000692
#
#
# Mechanical properties :
#
#
# Convention : Reuss Voigt Hill
#
# Bulk Modulus (GPa) = 46.40237 60.33187 53.36712
# Shear Modulus (GPa) = 38.05162 -262.39531 -112.17184
#
# Velocity S-wave (km/s) = 4.24778 -11.15458 -7.29318
# Velocity P-wave (km/s) = 6.78687 11.71712 6.75386
#
# Compressibility (1/GPa) = 0.02155062
#
# Stress axis : x y z
#
# Youngs Moduli (GPa) = 85.55882 52.19502 108.83982
#
# Poissons Ratio (x) = 0.08497 0.49725
# Poissons Ratio (y) = 0.13929 0.33146
# Poissons Ratio (z) = 0.39089 0.15895
#
# Static dielectric constant tensor:
#      x y z
#    x 4.169580 0.000000 0.000000 
#    y 0.000000 3.802040 0.000000 
#    z 0.000000 0.000000 4.393950 
# 
# 
# High freq. dielectric constant tensor:
#      x y z
#    x 1.830530 0.000000 0.000000 
#    y 0.000000 1.819500 0.000000 
#    z 0.000000 0.000000 1.835440 
# 
# From -- ./inp_files/8142.got.cif
#   From: 2010.03.12/outbox.cif.g09.slc.cpg/sg64_5_cif.got.tgz:8142.got - 2010.04.10 20:19:32.
