data_PCOD8263385
_publ_section_title
;
Structure prediction by ZEFSAII (Michael W. Deem and Ramdas Pophale) SiO2 
 PCOD8263385
Probable space group: C M C A
;
_chemical_formula_sum "Si O2"
_cell_formula_units_Z 112
_cell_length_a 17.116732
_cell_length_b 28.753286
_cell_length_c 11.106402
_cell_angle_alpha 90.000000
_cell_angle_beta 90.000000
_cell_angle_gamma 90.000000
_cell_volume 5466.152248
_symmetry_space_group_name_H-M "C M C A"
_symmetry_group_IT_number 64
_symmetry_cell_setting 'orthorhombic'
loop_
_space_group_symop_operation_xyz
x,y,z
-x,1/2-y,1/2+z
x,-y,-z
-x,1/2+y,1/2-z
-x,-y,-z
x,1/2+y,1/2-z
-x,y,z
x,1/2-y,1/2+z
1/2+x,1/2+y,z
1/2-x,-y,1/2+z
1/2+x,1/2-y,-z
1/2-x,y,1/2-z
1/2-x,1/2-y,-z
1/2+x,y,1/2-z
1/2-x,1/2+y,z
1/2+x,-y,1/2+z
loop_
_atom_site_type_symbol
_atom_site_label
_atom_site_fract_x
_atom_site_fract_y
_atom_site_fract_z
Si Si1 0.704149 0.806960 0.374730
Si Si2 0.909802 0.879043 0.603137
Si Si3 0.909945 0.455673 0.062429
Si Si4 0.706264 0.699949 0.374513
Si Si5 0.663674 0.971178 0.304260
Si Si6 0.088035 0.435581 0.663909
Si Si7 0.590311 0.386993 0.071535
O O1 0.750000 0.819913 0.250000
O O2 0.679225 0.753301 0.368983
O O3 0.749645 0.813386 0.501232
O O4 0.626626 0.838711 0.381250
O O5 0.876701 0.905989 0.484561
O O6 0.871685 0.829601 0.622976
O O7 0.889483 0.915420 0.707549
O O8 0.000000 0.866909 0.595143
O O9 0.000000 0.455881 0.023479
O O10 0.867442 0.500000 0.000000
O O11 0.900407 0.460605 0.203046
O O12 0.750000 0.687047 0.250000
O O13 0.750000 0.968782 0.250000
O O14 0.647543 0.929610 0.395361
O O15 0.646290 0.021303 0.364556
O O16 0.093628 0.391887 0.572791
O O17 0.000000 0.455871 0.661784
O O18 0.500000 0.390333 0.117666
#
# Coordination Sequence:
#
# PCOD8263385 Si02
#       7
#    16  16  16  16  16  16  16
#     4  10  23  43  64  91 126 163 200 252 322 379
#     4  10  21  37  64  92 115 154 207 255 301 362
#     4  10  20  38  59  81 117 158 196 245 301 353
#     4  10  22  42  67  91 124 162 201 258 319 371
#     4  12  25  37  56  86 122 161 202 250 294 365
#     4  10  21  41  61  83 118 160 203 249 305 359
#     4  11  24  40  62  87 121 163 203 250 306 373
#
# _framework density 20.489733000000001
#
# number of rings (size 3 to 8) (size 9 to 14) (size 15 to 20)
#    0.000    1.571    1.429    3.000    4.000    4.571 
#    0.000    0.000    0.000    5.143    0.000    0.000 
#    0.000    0.000    0.000    0.000    0.000    0.000 
#
# Total GULP energy -693940.506939 kJ/mol
# GULP energy per Si atom -12391.794767 kJ/mol
# Density = 2.044310 g / cm^3
# Si number density = 20.489733 Si / 1000 Ang^3
#
#
#
# Elastic Constant Matrix: (Units=GPa)
#
#
# Indices 1 2 3 4 5 6 
#
# 1 90.8907 66.5561 22.8643 0.0000 0.0000 0.0000
# 2 66.5561 117.0513 27.2397 0.0000 0.0000 0.0000
# 3 22.8643 27.2397 100.8343 0.0000 0.0000 0.0000
# 4 0.0000 0.0000 0.0000 21.6838 0.0000 0.0000
# 5 0.0000 0.0000 0.0000 0.0000 25.4773 0.0000
# 6 0.0000 0.0000 0.0000 0.0000 0.0000 40.7019
#
#
#
# Elastic Compliance Matrix: (Units=1/GPa)
#
#
# Indices 1 2 3 4 5 6 
#
# 1 0.019058 -0.010490 -0.001488 0.000000 0.000000 0.000000
# 2 -0.010490 0.014891 -0.001644 0.000000 0.000000 0.000000
# 3 -0.001488 -0.001644 0.010699 0.000000 0.000000 0.000000
# 4 0.000000 0.000000 0.000000 0.046117 0.000000 0.000000
# 5 0.000000 0.000000 0.000000 0.000000 0.039251 0.000000
# 6 0.000000 0.000000 0.000000 0.000000 0.000000 0.024569
#
#
# Mechanical properties :
#
#
# Convention : Reuss Voigt Hill
#
# Bulk Modulus (GPa) = 57.45870 60.23296 58.84583
# Shear Modulus (GPa) = 26.64823 30.38033 28.51428
#
# Velocity S-wave (km/s) = 3.61025 3.85477 3.73451
# Velocity P-wave (km/s) = 6.74404 7.01946 6.88313
#
# Compressibility (1/GPa) = 0.01740380
#
# Stress axis : x y z
#
# Youngs Moduli (GPa) = 52.47076 67.15570 93.46969
#
# Poissons Ratio (x) = 0.70449 0.13904
# Poissons Ratio (y) = 0.55044 0.15366
# Poissons Ratio (z) = 0.07805 0.11040
#
# Static dielectric constant tensor:
#      x y z
#    x 3.455650 0.000000 0.000000 
#    y 0.000000 3.743420 0.000000 
#    z 0.000000 0.000000 4.047870 
# 
# 
# High freq. dielectric constant tensor:
#      x y z
#    x 1.780580 0.000000 0.000000 
#    y 0.000000 1.803560 0.000000 
#    z 0.000000 0.000000 1.817120 
# 
# From -- ./inp_files/15008.got.cif
#   From: 2010.03.12/outbox.cif.g09.slc.cpg/sg64_8_cif.got.tgz:15008.got - 2010.04.10 20:19:32.
