data_PCOD8263393
_publ_section_title
;
Structure prediction by ZEFSAII (Michael W. Deem and Ramdas Pophale) SiO2 
 PCOD8263393
Probable space group: C M C A
;
_chemical_formula_sum "Si O2"
_cell_formula_units_Z 96
_cell_length_a 8.551198
_cell_length_b 30.157004
_cell_length_c 19.301560
_cell_angle_alpha 90.000000
_cell_angle_beta 90.000000
_cell_angle_gamma 90.000000
_cell_volume 4977.457578
_symmetry_space_group_name_H-M "C M C A"
_symmetry_group_IT_number 64
_symmetry_cell_setting 'orthorhombic'
loop_
_space_group_symop_operation_xyz
x,y,z
-x,1/2-y,1/2+z
x,-y,-z
-x,1/2+y,1/2-z
-x,-y,-z
x,1/2+y,1/2-z
-x,y,z
x,1/2-y,1/2+z
1/2+x,1/2+y,z
1/2-x,-y,1/2+z
1/2+x,1/2-y,-z
1/2-x,y,1/2-z
1/2-x,1/2-y,-z
1/2+x,y,1/2-z
1/2-x,1/2+y,z
1/2+x,-y,1/2+z
loop_
_atom_site_type_symbol
_atom_site_label
_atom_site_fract_x
_atom_site_fract_y
_atom_site_fract_z
Si Si1 0.314303 0.132241 0.937005
Si Si2 0.684852 0.693347 0.173896
Si Si3 0.315385 0.388919 0.591415
Si Si4 0.815886 0.032546 0.176247
Si Si5 0.683527 0.269268 0.430035
Si Si6 0.314368 0.563092 0.675626
O O1 0.500000 0.131548 0.935540
O O2 0.250245 0.181163 0.917404
O O3 0.248009 0.097377 0.881277
O O4 0.255283 0.119419 0.013538
O O5 0.500000 0.684631 0.174149
O O6 0.750000 0.699410 0.250000
O O7 0.770501 0.652388 0.138644
O O8 0.731120 0.738273 0.133938
O O9 0.500000 0.396565 0.595050
O O10 0.228459 0.432676 0.617406
O O11 0.750000 0.049115 0.250000
O O12 0.000000 0.027541 0.182906
O O13 0.743842 0.985529 0.154844
O O14 0.500000 0.271474 0.439551
O O15 0.750000 0.250000 0.500000
O O16 0.500000 0.563004 0.678122
O O17 0.250000 0.577984 0.750000
#
# Coordination Sequence:
#
# PCOD8263393 Si02
#       6
#    16  16  16  16  16  16
#     4   9  20  37  60  85 114 151 189 232 285 345
#     4  11  23  37  57  86 119 152 192 239 285 339
#     4  11  21  37  60  84 114 152 192 234 286 343
#     4  11  22  38  58  83 115 150 190 236 287 340
#     4  10  20  38  60  84 113 151 193 235 283 338
#     4  10  20  38  60  84 113 149 192 235 283 339
#
# _framework density 19.286956
#
# number of rings (size 3 to 8) (size 9 to 14) (size 15 to 20)
#    0.000    1.667    1.667    4.500    0.000    2.000 
#    0.000    8.333    0.000    0.000    0.000    0.000 
#    0.000    0.000    0.000    0.000    0.000    0.000 
#
# Total GULP energy -595336.231667 kJ/mol
# GULP energy per Si atom -12402.838160 kJ/mol
# Density = 1.924306 g / cm^3
# Si number density = 19.286956 Si / 1000 Ang^3
#
#
#
# Elastic Constant Matrix: (Units=GPa)
#
#
# Indices 1 2 3 4 5 6 
#
# 1 60.4189 25.6109 26.1099 0.0000 0.0000 0.0000
# 2 25.6109 155.1340 92.7122 0.0000 0.0000 0.0000
# 3 26.1099 92.7122 152.7046 0.0000 0.0000 0.0000
# 4 0.0000 0.0000 0.0000 41.4713 0.0000 0.0000
# 5 0.0000 0.0000 0.0000 0.0000 27.9235 0.0000
# 6 0.0000 0.0000 0.0000 0.0000 0.0000 24.2668
#
#
#
# Elastic Compliance Matrix: (Units=1/GPa)
#
#
# Indices 1 2 3 4 5 6 
#
# 1 0.018185 -0.001795 -0.002019 0.000000 0.000000 0.000000
# 2 -0.001795 0.010294 -0.005943 0.000000 0.000000 0.000000
# 3 -0.002019 -0.005943 0.010502 0.000000 0.000000 0.000000
# 4 0.000000 0.000000 0.000000 0.024113 0.000000 0.000000
# 5 0.000000 0.000000 0.000000 0.000000 0.035812 0.000000
# 6 0.000000 0.000000 0.000000 0.000000 0.000000 0.041209
#
#
# Mechanical properties :
#
#
# Convention : Reuss Voigt Hill
#
# Bulk Modulus (GPa) = 51.37214 73.01370 62.19292
# Shear Modulus (GPa) = 30.09903 33.65395 31.87649
#
# Velocity S-wave (km/s) = 3.95472 4.18174 4.06981
# Velocity P-wave (km/s) = 6.89540 7.82653 7.37568
#
# Compressibility (1/GPa) = 0.01946580
#
# Stress axis : x y z
#
# Youngs Moduli (GPa) = 54.99108 97.14327 95.21992
#
# Poissons Ratio (x) = 0.17440 0.19228
# Poissons Ratio (y) = 0.09873 0.56588
# Poissons Ratio (z) = 0.11104 0.57731
#
# Static dielectric constant tensor:
#      x y z
#    x 3.461960 0.000000 0.000000 
#    y 0.000000 3.857540 0.000000 
#    z 0.000000 0.000000 3.686610 
# 
# 
# High freq. dielectric constant tensor:
#      x y z
#    x 1.745510 0.000000 0.000000 
#    y 0.000000 1.764640 0.000000 
#    z 0.000000 0.000000 1.755590 
# 
# From -- ./inp_files/37050.got.cif
#   From: 2010.03.12/outbox.cif.g09.slc.cpg/sg64_19_cif.got.tgz:37050.got - 2010.04.10 20:19:32.
