data_PCOD8263625
_publ_section_title
;
Structure prediction by ZEFSAII (Michael W. Deem and Ramdas Pophale) SiO2 
 PCOD8263625
Probable space group: C M C A
;
_chemical_formula_sum "Si O2"
_cell_formula_units_Z 96
_cell_length_a 16.097850
_cell_length_b 23.825347
_cell_length_c 11.975405
_cell_angle_alpha 90.000000
_cell_angle_beta 90.000000
_cell_angle_gamma 90.000000
_cell_volume 4593.009257
_symmetry_space_group_name_H-M "C M C A"
_symmetry_group_IT_number 64
_symmetry_cell_setting 'orthorhombic'
loop_
_space_group_symop_operation_xyz
x,y,z
-x,1/2-y,1/2+z
x,-y,-z
-x,1/2+y,1/2-z
-x,-y,-z
x,1/2+y,1/2-z
-x,y,z
x,1/2-y,1/2+z
1/2+x,1/2+y,z
1/2-x,-y,1/2+z
1/2+x,1/2-y,-z
1/2-x,y,1/2-z
1/2-x,1/2-y,-z
1/2+x,y,1/2-z
1/2-x,1/2+y,z
1/2+x,-y,1/2+z
loop_
_atom_site_type_symbol
_atom_site_label
_atom_site_fract_x
_atom_site_fract_y
_atom_site_fract_z
Si Si1 0.096470 0.957384 0.772100
Si Si2 0.097283 0.419559 0.299083
Si Si3 0.160741 0.788185 0.803665
Si Si4 0.097639 0.671858 0.881942
Si Si5 0.403402 0.625441 0.031980
Si Si6 0.905475 0.139128 0.379228
O O1 0.108434 0.929537 0.892666
O O2 0.136748 0.916898 0.675835
O O3 0.000000 0.962967 0.742502
O O4 0.137995 0.019155 0.775755
O O5 0.116587 0.382211 0.192284
O O6 0.133301 0.389641 0.410025
O O7 0.000000 0.427932 0.321011
O O8 0.250000 0.798766 0.750000
O O9 0.146632 0.723262 0.828090
O O10 0.149625 0.822685 0.918902
O O11 0.095869 0.810670 0.711298
O O12 0.000000 0.686737 0.885976
O O13 0.136024 0.658137 0.004227
O O14 0.500000 0.644035 0.026994
O O15 0.000000 0.125034 0.408077
#
# Coordination Sequence:
#
# PCOD8263625 Si02
#       6
#    16  16  16  16  16  16
#     4   8  14  28  52  83 112 133 166 219 274 325
#     4   9  17  29  52  86 113 135 173 222 274 332
#     4  11  23  37  54  76 107 147 192 234 274 321
#     4  10  21  35  53  79 110 146 183 224 277 333
#     4   9  17  32  55  83 109 141 179 226 279 329
#     4   9  19  36  57  81 110 142 177 224 280 335
#
# _framework density 20.901329
#
# number of rings (size 3 to 8) (size 9 to 14) (size 15 to 20)
#    0.000    2.667    0.000    3.000    2.333    3.333 
#    0.000    3.333    0.000    4.000   17.333    0.000 
#    0.000    0.000    0.000    0.000    0.000    0.000 
#
# Total GULP energy -595008.912267 kJ/mol
# GULP energy per Si atom -12396.019006 kJ/mol
# Density = 2.085376 g / cm^3
# Si number density = 20.901329 Si / 1000 Ang^3
#
#
#
# Elastic Constant Matrix: (Units=GPa)
#
#
# Indices 1 2 3 4 5 6 
#
# 1 23.3351 13.3561 9.6162 0.0000 0.0000 0.0000
# 2 13.3561 106.8398 52.8495 0.0000 0.0000 0.0000
# 3 9.6162 52.8495 146.2456 0.0000 0.0000 0.0000
# 4 0.0000 0.0000 0.0000 27.5822 0.0000 0.0000
# 5 0.0000 0.0000 0.0000 0.0000 12.0854 0.0000
# 6 0.0000 0.0000 0.0000 0.0000 0.0000 3.7685
#
#
#
# Elastic Compliance Matrix: (Units=1/GPa)
#
#
# Indices 1 2 3 4 5 6 
#
# 1 0.046318 -0.005216 -0.001161 0.000000 0.000000 0.000000
# 2 -0.005216 0.011985 -0.003988 0.000000 0.000000 0.000000
# 3 -0.001161 -0.003988 0.008355 0.000000 0.000000 0.000000
# 4 0.000000 0.000000 0.000000 0.036255 0.000000 0.000000
# 5 0.000000 0.000000 0.000000 0.000000 0.082745 0.000000
# 6 0.000000 0.000000 0.000000 0.000000 0.000000 0.265361
#
#
# Mechanical properties :
#
#
# Convention : Reuss Voigt Hill
#
# Bulk Modulus (GPa) = 21.77307 47.56266 34.66787
# Shear Modulus (GPa) = 10.26574 22.06046 16.16310
#
# Velocity S-wave (km/s) = 2.21860 3.25230 2.78385
# Velocity P-wave (km/s) = 4.12342 6.07524 5.19187
#
# Compressibility (1/GPa) = 0.04592829
#
# Stress axis : x y z
#
# Youngs Moduli (GPa) = 21.58999 83.44078 119.68496
#
# Poissons Ratio (x) = 0.43523 0.13891
# Poissons Ratio (y) = 0.11262 0.47730
# Poissons Ratio (z) = 0.02506 0.33276
#
# Static dielectric constant tensor:
#      x y z
#    x 3.233340 0.000000 0.000000 
#    y 0.000000 3.894080 0.000000 
#    z 0.000000 0.000000 3.971700 
# 
# 
# High freq. dielectric constant tensor:
#      x y z
#    x 1.762480 0.000000 0.000000 
#    y 0.000000 1.823110 0.000000 
#    z 0.000000 0.000000 1.827130 
# 
# From -- ./inp_files/16186.got.cif
#   From: 2010.03.12/outbox.cif.g09.slc.cpg/sg64_9_cif.got.tgz:16186.got - 2010.04.10 20:19:32.
