data_PCOD8263337
_publ_section_title
;
Structure prediction by ZEFSAII (Michael W. Deem and Ramdas Pophale) SiO2 
 PCOD8263337
Probable space group: C M C A
;
_chemical_formula_sum "Si O2"
_cell_formula_units_Z 96
_cell_length_a 22.515273
_cell_length_b 18.083066
_cell_length_c 11.505246
_cell_angle_alpha 90.000000
_cell_angle_beta 90.000000
_cell_angle_gamma 90.000000
_cell_volume 4684.305312
_symmetry_space_group_name_H-M "C M C A"
_symmetry_group_IT_number 64
_symmetry_cell_setting 'orthorhombic'
loop_
_space_group_symop_operation_xyz
x,y,z
-x,1/2-y,1/2+z
x,-y,-z
-x,1/2+y,1/2-z
-x,-y,-z
x,1/2+y,1/2-z
-x,y,z
x,1/2-y,1/2+z
1/2+x,1/2+y,z
1/2-x,-y,1/2+z
1/2+x,1/2-y,-z
1/2-x,y,1/2-z
1/2-x,1/2-y,-z
1/2+x,y,1/2-z
1/2-x,1/2+y,z
1/2+x,-y,1/2+z
loop_
_atom_site_type_symbol
_atom_site_label
_atom_site_fract_x
_atom_site_fract_y
_atom_site_fract_z
Si Si1 0.929679 0.967205 0.669133
Si Si2 0.433968 0.428976 0.921314
Si Si3 0.244560 0.799601 0.381454
Si Si4 0.872109 0.665984 0.601985
Si Si5 0.567505 0.187106 0.054505
Si Si6 0.879799 0.121211 0.650195
O O1 0.906296 0.952112 0.799104
O O2 0.913912 0.892964 0.601554
O O3 0.000000 0.985874 0.663600
O O4 0.892895 0.035861 0.614794
O O5 0.500000 0.396746 0.902617
O O6 0.434873 0.500000 0.000000
O O7 0.396470 0.364587 0.980907
O O8 0.250000 0.760543 0.250000
O O9 0.250000 0.750000 0.500000
O O10 0.302289 0.850804 0.392486
O O11 0.187202 0.852813 0.381445
O O12 0.887928 0.752867 0.608513
O O13 0.899346 0.626940 0.715253
O O14 0.500000 0.209278 0.084207
O O15 0.576979 0.178532 0.916407
#
# Coordination Sequence:
#
# PCOD8263337 Si02
#       6
#    16  16  16  16  16  16
#     4  10  22  40  63  94 131 172 215 265 327 398
#     4  10  20  37  61  90 128 168 207 263 332 392
#     4  10  22  42  68  91 124 173 215 267 322 380
#     4  11  23  40  65  92 126 167 220 267 321 391
#     4  11  24  37  61  96 128 166 212 263 324 388
#     4  11  22  41  65  85 127 172 215 264 326 383
#
# _framework density 20.493967999999999
#
# number of rings (size 3 to 8) (size 9 to 14) (size 15 to 20)
#    0.000    1.500    3.333    1.500    2.333    3.333 
#    0.000    1.667    0.000    0.000    0.000    0.000 
#    0.000    0.000    0.000    0.000    0.000    0.000 
#
# Total GULP energy -594695.318398 kJ/mol
# GULP energy per Si atom -12389.485800 kJ/mol
# Density = 2.044732 g / cm^3
# Si number density = 20.493968 Si / 1000 Ang^3
#
#
#
# Elastic Constant Matrix: (Units=GPa)
#
#
# Indices 1 2 3 4 5 6 
#
# 1 85.8480 50.5137 25.3069 0.0000 0.0000 0.0000
# 2 50.5137 106.3690 22.6424 0.0000 0.0000 0.0000
# 3 25.3069 22.6424 80.1952 0.0000 0.0000 0.0000
# 4 0.0000 0.0000 0.0000 37.6309 0.0000 0.0000
# 5 0.0000 0.0000 0.0000 0.0000 15.5047 0.0000
# 6 0.0000 0.0000 0.0000 0.0000 0.0000 25.6700
#
#
#
# Elastic Compliance Matrix: (Units=1/GPa)
#
#
# Indices 1 2 3 4 5 6 
#
# 1 0.016935 -0.007346 -0.003270 0.000000 0.000000 0.000000
# 2 -0.007346 0.013189 -0.001406 0.000000 0.000000 0.000000
# 3 -0.003270 -0.001406 0.013898 0.000000 0.000000 0.000000
# 4 0.000000 0.000000 0.000000 0.026574 0.000000 0.000000
# 5 0.000000 0.000000 0.000000 0.000000 0.064497 0.000000
# 6 0.000000 0.000000 0.000000 0.000000 0.000000 0.038956
#
#
# Mechanical properties :
#
#
# Convention : Reuss Voigt Hill
#
# Bulk Modulus (GPa) = 50.05298 52.14870 51.10084
# Shear Modulus (GPa) = 24.41977 27.35773 25.88875
#
# Velocity S-wave (km/s) = 3.45564 3.65761 3.55806
# Velocity P-wave (km/s) = 6.35596 6.58321 6.47058
#
# Compressibility (1/GPa) = 0.01997883
#
# Stress axis : x y z
#
# Youngs Moduli (GPa) = 59.04921 75.82024 71.95107
#
# Poissons Ratio (x) = 0.55699 0.23528
# Poissons Ratio (y) = 0.43379 0.10113
# Poissons Ratio (z) = 0.19309 0.10657
#
# Static dielectric constant tensor:
#      x y z
#    x 3.693850 0.000000 0.000000 
#    y 0.000000 3.536920 0.000000 
#    z 0.000000 0.000000 4.466390 
# 
# 
# High freq. dielectric constant tensor:
#      x y z
#    x 1.788400 0.000000 0.000000 
#    y 0.000000 1.785960 0.000000 
#    z 0.000000 0.000000 1.826650 
# 
# From -- ./inp_files/18373.got.cif
#   From: 2010.03.12/outbox.cif.g09.slc.cpg/sg64_10_cif.got.tgz:18373.got - 2010.04.10 20:19:32.
