data_PCOD8263250
_publ_section_title
;
Structure prediction by ZEFSAII (Michael W. Deem and Ramdas Pophale) SiO2 
 PCOD8263250
Probable space group: C M C A
;
_chemical_formula_sum "Si O2"
_cell_formula_units_Z 64
_cell_length_a 18.087216
_cell_length_b 11.409483
_cell_length_c 17.253607
_cell_angle_alpha 90.000000
_cell_angle_beta 90.000000
_cell_angle_gamma 90.000000
_cell_volume 3560.554126
_symmetry_space_group_name_H-M "C M C A"
_symmetry_group_IT_number 64
_symmetry_cell_setting 'orthorhombic'
loop_
_space_group_symop_operation_xyz
x,y,z
-x,1/2-y,1/2+z
x,-y,-z
-x,1/2+y,1/2-z
-x,-y,-z
x,1/2+y,1/2-z
-x,y,z
x,1/2-y,1/2+z
1/2+x,1/2+y,z
1/2-x,-y,1/2+z
1/2+x,1/2-y,-z
1/2-x,y,1/2-z
1/2-x,1/2-y,-z
1/2+x,y,1/2-z
1/2-x,1/2+y,z
1/2+x,-y,1/2+z
loop_
_atom_site_type_symbol
_atom_site_label
_atom_site_fract_x
_atom_site_fract_y
_atom_site_fract_z
Si Si1 0.886422 0.829236 0.044192
Si Si2 0.761071 0.000000 0.000000
Si Si3 0.000000 0.548495 0.652289
Si Si4 0.000000 0.691966 0.411470
Si Si5 0.620489 0.059689 0.076217
Si Si6 0.000000 0.939256 0.329942
O O1 0.807453 0.886429 0.025144
O O2 0.882444 0.699377 0.077613
O O3 0.927278 0.907234 0.108072
O O4 0.927858 0.826700 0.962947
O O5 0.707834 0.025949 0.074676
O O6 0.000000 0.407388 0.654455
O O7 0.000000 0.592371 0.739887
O O8 0.000000 0.817727 0.374020
O O9 0.574583 0.012057 0.149686
O O10 0.582403 0.000000 0.000000
#
# Coordination Sequence:
#
# PCOD8263250 Si02
#       6
#    16   8   8   8  16   8
#     4  11  19  40  60  88 111 147 209 235 285 339
#     4  10  20  36  62  90 110 146 200 240 286 338
#     4  11  25  34  62  85 120 157 178 257 289 345
#     4  11  19  37  63  80 113 155 190 254 267 349
#     4  10  22  35  62  85 113 155 186 248 280 344
#     4  12  23  40  53  91 122 149 201 227 317 336
#
# _framework density 17.974731999999999
#
# number of rings (size 3 to 8) (size 9 to 14) (size 15 to 20)
#    0.750    0.500    5.000    3.375    3.500    0.000 
#    0.000    1.250    0.000    3.000    0.000    0.000 
#    0.000    0.000    0.000    0.000    0.000    0.000 
#
# Total GULP energy -396608.950513 kJ/mol
# GULP energy per Si atom -12394.029704 kJ/mol
# Density = 1.793382 g / cm^3
# Si number density = 17.974732 Si / 1000 Ang^3
#
#
#
# Elastic Constant Matrix: (Units=GPa)
#
#
# Indices 1 2 3 4 5 6 
#
# 1 129.0014 48.3465 40.2862 0.0000 0.0000 0.0000
# 2 48.3465 146.5151 32.8195 0.0000 0.0000 0.0000
# 3 40.2862 32.8195 91.0273 0.0000 0.0000 0.0000
# 4 0.0000 0.0000 0.0000 19.8844 0.0000 0.0000
# 5 0.0000 0.0000 0.0000 0.0000 6.9887 0.0000
# 6 0.0000 0.0000 0.0000 0.0000 0.0000 22.7088
#
#
#
# Elastic Compliance Matrix: (Units=1/GPa)
#
#
# Indices 1 2 3 4 5 6 
#
# 1 0.009739 -0.002446 -0.003428 0.000000 0.000000 0.000000
# 2 -0.002446 0.008039 -0.001816 0.000000 0.000000 0.000000
# 3 -0.003428 -0.001816 0.013158 0.000000 0.000000 0.000000
# 4 0.000000 0.000000 0.000000 0.050291 0.000000 0.000000
# 5 0.000000 0.000000 0.000000 0.000000 0.143087 0.000000
# 6 0.000000 0.000000 0.000000 0.000000 0.000000 0.044036
#
#
# Mechanical properties :
#
#
# Convention : Reuss Voigt Hill
#
# Bulk Modulus (GPa) = 64.28574 67.71650 66.00112
# Shear Modulus (GPa) = 17.30609 26.25582 21.78095
#
# Velocity S-wave (km/s) = 3.10627 3.82607 3.48480
# Velocity P-wave (km/s) = 6.97907 7.56791 7.27945
#
# Compressibility (1/GPa) = 0.01555555
#
# Stress axis : x y z
#
# Youngs Moduli (GPa) = 102.67854 124.39279 76.00033
#
# Poissons Ratio (x) = 0.30423 0.26057
# Poissons Ratio (y) = 0.25112 0.13802
# Poissons Ratio (z) = 0.35203 0.22590
#
# Static dielectric constant tensor:
#      x y z
#    x 3.362880 0.000000 0.000000 
#    y 0.000000 3.533170 0.000000 
#    z 0.000000 0.000000 3.123530 
# 
# 
# High freq. dielectric constant tensor:
#      x y z
#    x 1.697230 0.000000 0.000000 
#    y 0.000000 1.721820 0.000000 
#    z 0.000000 0.000000 1.657100 
# 
# From -- ./inp_files/24957.got.cif
#   From: 2010.03.12/outbox.cif.g09.slc.cpg/sg64_13_cif.got.tgz:24957.got - 2010.04.10 20:19:32.
