data_PCOD8263380
_publ_section_title
;
Structure prediction by ZEFSAII (Michael W. Deem and Ramdas Pophale) SiO2 
 PCOD8263380
Probable space group: C M C A
;
_chemical_formula_sum "Si O2"
_cell_formula_units_Z 96
_cell_length_a 23.231210
_cell_length_b 9.326100
_cell_length_c 22.539073
_cell_angle_alpha 90.000000
_cell_angle_beta 90.000000
_cell_angle_gamma 90.000000
_cell_volume 4883.238643
_symmetry_space_group_name_H-M "C M C A"
_symmetry_group_IT_number 64
_symmetry_cell_setting 'orthorhombic'
loop_
_space_group_symop_operation_xyz
x,y,z
-x,1/2-y,1/2+z
x,-y,-z
-x,1/2+y,1/2-z
-x,-y,-z
x,1/2+y,1/2-z
-x,y,z
x,1/2-y,1/2+z
1/2+x,1/2+y,z
1/2-x,-y,1/2+z
1/2+x,1/2-y,-z
1/2-x,y,1/2-z
1/2-x,1/2-y,-z
1/2+x,y,1/2-z
1/2-x,1/2+y,z
1/2+x,-y,1/2+z
loop_
_atom_site_type_symbol
_atom_site_label
_atom_site_fract_x
_atom_site_fract_y
_atom_site_fract_z
Si Si1 0.187680 0.617744 0.798871
Si Si2 0.124677 0.883647 0.176713
Si Si3 0.000000 0.211988 0.170908
Si Si4 0.715286 0.360471 0.961435
Si Si5 0.283532 0.683354 0.343689
Si Si6 0.379591 0.810612 0.620275
Si Si7 0.000000 0.400277 0.284598
O O1 0.151185 0.648185 0.740702
O O2 0.247432 0.704901 0.803325
O O3 0.200003 0.449339 0.802213
O O4 0.147966 0.668221 0.852685
O O5 0.158525 0.769237 0.134629
O O6 0.056613 0.846814 0.179882
O O7 0.137305 0.044992 0.156026
O O8 0.052168 0.211043 0.123741
O O9 0.000000 0.347578 0.215892
O O10 0.000000 0.074023 0.214689
O O11 0.748682 0.379291 0.899355
O O12 0.648344 0.320726 0.945922
O O13 0.714478 0.500000 0.000000
O O14 0.750000 0.250000 0.000000
#
# Coordination Sequence:
#
# PCOD8263380 Si02
#       7
#    16  16   8  16  16  16   8
#     4  11  21  35  53  83 119 154 180 227 284 353
#     4  11  21  36  54  85 121 153 185 221 277 350
#     4  10  20  38  57  88 120 154 195 224 278 345
#     4  11  22  40  59  79 108 147 196 252 301 334
#     4  11  23  35  56  83 112 150 193 237 291 344
#     4  10  21  37  59  85 114 151 193 237 281 345
#     4  10  22  34  58  82 124 165 184 219 272 345
#
# _framework density 19.659082999999999
#
# number of rings (size 3 to 8) (size 9 to 14) (size 15 to 20)
#    0.000    1.333    1.667    6.500    2.333    2.667 
#    0.000    0.417    0.000    1.000    0.000    2.333 
#    0.000    0.000    0.000    0.000    0.000    0.000 
#
# Total GULP energy -594853.281563 kJ/mol
# GULP energy per Si atom -12392.776699 kJ/mol
# Density = 1.961434 g / cm^3
# Si number density = 19.659083 Si / 1000 Ang^3
#
#
#
# Elastic Constant Matrix: (Units=GPa)
#
#
# Indices 1 2 3 4 5 6 
#
# 1 164.3150 52.9483 37.1723 0.0000 0.0000 0.0000
# 2 52.9483 92.2942 9.5243 0.0000 0.0000 0.0000
# 3 37.1723 9.5243 57.2181 0.0000 0.0000 0.0000
# 4 0.0000 0.0000 0.0000 31.4601 0.0000 0.0000
# 5 0.0000 0.0000 0.0000 0.0000 28.2480 0.0000
# 6 0.0000 0.0000 0.0000 0.0000 0.0000 28.7945
#
#
#
# Elastic Compliance Matrix: (Units=1/GPa)
#
#
# Indices 1 2 3 4 5 6 
#
# 1 0.008616 -0.004442 -0.004858 0.000000 0.000000 0.000000
# 2 -0.004442 0.013314 0.000669 0.000000 0.000000 0.000000
# 3 -0.004858 0.000669 0.020522 0.000000 0.000000 0.000000
# 4 0.000000 0.000000 0.000000 0.031786 0.000000 0.000000
# 5 0.000000 0.000000 0.000000 0.000000 0.035401 0.000000
# 6 0.000000 0.000000 0.000000 0.000000 0.000000 0.034729
#
#
# Mechanical properties :
#
#
# Convention : Reuss Voigt Hill
#
# Bulk Modulus (GPa) = 39.69690 57.01300 48.35495
# Shear Modulus (GPa) = 29.40727 31.97934 30.69331
#
# Velocity S-wave (km/s) = 3.87183 4.03761 3.95559
# Velocity P-wave (km/s) = 6.34229 7.12742 6.74629
#
# Compressibility (1/GPa) = 0.02519089
#
# Stress axis : x y z
#
# Youngs Moduli (GPa) = 116.06033 75.10893 48.72870
#
# Poissons Ratio (x) = 0.33361 0.23674
# Poissons Ratio (y) = 0.51550 -0.03262
# Poissons Ratio (z) = 0.56385 -0.05028
#
# Static dielectric constant tensor:
#      x y z
#    x 3.992410 0.000000 0.000000 
#    y 0.000000 3.561170 0.000000 
#    z 0.000000 0.000000 3.470370 
# 
# 
# High freq. dielectric constant tensor:
#      x y z
#    x 1.779450 0.000000 0.000000 
#    y 0.000000 1.772190 0.000000 
#    z 0.000000 0.000000 1.731390 
# 
# From -- ./inp_files/46648.got.cif
#   From: 2010.03.12/outbox.cif.g09.slc.cpg/sg64_24_cif.got.tgz:46648.got - 2010.04.10 20:19:32.
