data_PCOD8263066
_publ_section_title
;
Structure prediction by ZEFSAII (Michael W. Deem and Ramdas Pophale) SiO2 
 PCOD8263066
Probable space group: C M C A
;
_chemical_formula_sum "Si O2"
_cell_formula_units_Z 112
_cell_length_a 15.472842
_cell_length_b 28.876436
_cell_length_c 12.254996
_cell_angle_alpha 90.000000
_cell_angle_beta 90.000000
_cell_angle_gamma 90.000000
_cell_volume 5475.538729
_symmetry_space_group_name_H-M "C M C A"
_symmetry_group_IT_number 64
_symmetry_cell_setting 'orthorhombic'
loop_
_space_group_symop_operation_xyz
x,y,z
-x,1/2-y,1/2+z
x,-y,-z
-x,1/2+y,1/2-z
-x,-y,-z
x,1/2+y,1/2-z
-x,y,z
x,1/2-y,1/2+z
1/2+x,1/2+y,z
1/2-x,-y,1/2+z
1/2+x,1/2-y,-z
1/2-x,y,1/2-z
1/2-x,1/2-y,-z
1/2+x,y,1/2-z
1/2-x,1/2+y,z
1/2+x,-y,1/2+z
loop_
_atom_site_type_symbol
_atom_site_label
_atom_site_fract_x
_atom_site_fract_y
_atom_site_fract_z
Si Si1 0.683026 0.729935 0.348364
Si Si2 0.098052 0.445350 0.005346
Si Si3 0.759360 0.407651 0.370168
Si Si4 0.901918 0.486508 0.375206
Si Si5 0.602600 0.573766 0.263372
Si Si6 0.203550 0.814441 0.014994
Si Si7 0.902982 0.670903 0.310286
O O1 0.750000 0.721780 0.250000
O O2 0.706700 0.703778 0.461935
O O3 0.674018 0.784058 0.379558
O O4 0.599021 0.705997 0.294459
O O5 0.131930 0.427801 0.888692
O O6 0.000000 0.427480 0.032744
O O7 0.096501 0.500000 0.000000
O O8 0.166707 0.428793 0.095415
O O9 0.750000 0.386082 0.250000
O O10 0.835609 0.444825 0.362797
O O11 0.787909 0.367465 0.451859
O O12 0.905258 0.500000 0.500000
O O13 0.863983 0.529414 0.304690
O O14 0.000000 0.472863 0.336675
O O15 0.500000 0.573865 0.256471
O O16 0.642901 0.621438 0.215881
O O17 0.133988 0.807070 0.920207
O O18 0.000000 0.659595 0.338034
#
# Coordination Sequence:
#
# PCOD8263066 Si02
#       7
#    16  16  16  16  16  16  16
#     4   9  19  38  60  79 106 145 184 232 286 339
#     4  10  21  38  58  81 112 151 200 256 303 344
#     4  12  24  36  56  85 116 155 198 240 298 369
#     4  10  21  37  56  82 120 160 195 237 290 350
#     4   9  18  35  58  81 111 150 192 241 289 339
#     4  10  21  37  57  81 113 148 186 233 290 352
#     4  10  20  35  59  88 112 143 188 235 288 346
#
# _framework density 20.454608
#
# number of rings (size 3 to 8) (size 9 to 14) (size 15 to 20)
#    0.000    2.000    0.000    3.429    0.000    4.000 
#    0.000    5.000    0.000   10.286    0.000    0.000 
#    0.000    0.000    0.000    0.000    0.000    0.000 
#
# Total GULP energy -694059.426931 kJ/mol
# GULP energy per Si atom -12393.918338 kJ/mol
# Density = 2.040805 g / cm^3
# Si number density = 20.454608 Si / 1000 Ang^3
#
#
#
# Elastic Constant Matrix: (Units=GPa)
#
#
# Indices 1 2 3 4 5 6 
#
# 1 73.5462 30.4084 29.1942 0.0000 0.0000 0.0000
# 2 30.4084 99.1976 32.1985 0.0000 0.0000 0.0000
# 3 29.1942 32.1985 100.5767 0.0000 0.0000 0.0000
# 4 0.0000 0.0000 0.0000 44.2196 0.0000 0.0000
# 5 0.0000 0.0000 0.0000 0.0000 91.0636 0.0000
# 6 0.0000 0.0000 0.0000 0.0000 0.0000 15.3396
#
#
#
# Elastic Compliance Matrix: (Units=1/GPa)
#
#
# Indices 1 2 3 4 5 6 
#
# 1 0.016644 -0.003944 -0.003569 0.000000 0.000000 0.000000
# 2 -0.003944 0.012184 -0.002756 0.000000 0.000000 0.000000
# 3 -0.003569 -0.002756 0.011861 0.000000 0.000000 0.000000
# 4 0.000000 0.000000 0.000000 0.022614 0.000000 0.000000
# 5 0.000000 0.000000 0.000000 0.000000 0.010981 0.000000
# 6 0.000000 0.000000 0.000000 0.000000 0.000000 0.065191
#
#
# Mechanical properties :
#
#
# Convention : Reuss Voigt Hill
#
# Bulk Modulus (GPa) = 49.62173 50.76920 50.19547
# Shear Modulus (GPa) = 29.98857 42.22585 36.10721
#
# Velocity S-wave (km/s) = 3.83313 4.54846 4.20603
# Velocity P-wave (km/s) = 6.62590 7.24286 6.94124
#
# Compressibility (1/GPa) = 0.02015246
#
# Stress axis : x y z
#
# Youngs Moduli (GPa) = 60.08143 82.07232 84.31118
#
# Poissons Ratio (x) = 0.32367 0.30088
# Poissons Ratio (y) = 0.23695 0.23236
# Poissons Ratio (z) = 0.21441 0.22619
#
# Static dielectric constant tensor:
#      x y z
#    x 3.691790 0.000000 0.000000 
#    y 0.000000 4.174780 0.000000 
#    z 0.000000 0.000000 7.694690 
# 
# 
# High freq. dielectric constant tensor:
#      x y z
#    x 1.780340 0.000000 0.000000 
#    y 0.000000 1.796290 0.000000 
#    z 0.000000 0.000000 1.811390 
# 
# From -- ./inp_files/14948.got.cif
#   From: 2010.03.12/outbox.cif.g09.slc.cpg/sg64_8_cif.got.tgz:14948.got - 2010.04.10 20:19:32.
