data_PCOD8263476
_publ_section_title
;
Structure prediction by ZEFSAII (Michael W. Deem and Ramdas Pophale) SiO2 
 PCOD8263476
Probable space group: C M C A
;
_chemical_formula_sum "Si O2"
_cell_formula_units_Z 80
_cell_length_a 21.983294
_cell_length_b 9.375590
_cell_length_c 14.803205
_cell_angle_alpha 90.000000
_cell_angle_beta 90.000000
_cell_angle_gamma 90.000000
_cell_volume 3051.034571
_symmetry_space_group_name_H-M "C M C A"
_symmetry_group_IT_number 64
_symmetry_cell_setting 'orthorhombic'
loop_
_space_group_symop_operation_xyz
x,y,z
-x,1/2-y,1/2+z
x,-y,-z
-x,1/2+y,1/2-z
-x,-y,-z
x,1/2+y,1/2-z
-x,y,z
x,1/2-y,1/2+z
1/2+x,1/2+y,z
1/2-x,-y,1/2+z
1/2+x,1/2-y,-z
1/2-x,y,1/2-z
1/2-x,1/2-y,-z
1/2+x,y,1/2-z
1/2-x,1/2+y,z
1/2+x,-y,1/2+z
loop_
_atom_site_type_symbol
_atom_site_label
_atom_site_fract_x
_atom_site_fract_y
_atom_site_fract_z
Si Si1 0.107526 0.691859 0.929113
Si Si2 0.431030 0.380178 0.612332
Si Si3 0.431657 0.436947 0.809416
Si Si4 0.765993 0.772451 0.852630
Si Si5 0.324567 0.943594 0.402956
O O1 0.072449 0.547393 0.909307
O O2 0.068182 0.818693 0.887047
O O3 0.174112 0.689348 0.885892
O O4 0.109365 0.710781 0.039758
O O5 0.500000 0.327709 0.601656
O O6 0.409114 0.362226 0.716040
O O7 0.500000 0.500837 0.798409
O O8 0.383850 0.561522 0.836942
O O9 0.750000 0.735255 0.750000
O O10 0.709071 0.708860 0.909740
O O11 0.774621 0.941347 0.866301
O O12 0.346956 0.000000 0.500000
#
# Coordination Sequence:
#
# PCOD8263476 Si02
#       5
#    16  16  16  16  16
#     4  10  21  40  67  98 133 180 234 291 347 423
#     4  10  20  38  68  98 134 181 236 290 353 424
#     4  10  22  43  68 101 139 179 233 295 356 420
#     4  11  24  45  71 101 143 186 234 294 353 426
#     4  11  25  46  67 104 140 189 236 292 355 424
#
# _framework density 26.220613
#
# number of rings (size 3 to 8) (size 9 to 14) (size 15 to 20)
#    0.000    1.600    0.000    4.800    2.800    2.000 
#   21.600    0.000    0.000    0.000    0.000    1.400 
#    0.000    0.000    0.000    0.000    0.000    0.000 
#
# Total GULP energy -495941.146066 kJ/mol
# GULP energy per Si atom -12398.528652 kJ/mol
# Density = 2.616093 g / cm^3
# Si number density = 26.220613 Si / 1000 Ang^3
#
#
#
# Elastic Constant Matrix: (Units=GPa)
#
#
# Indices 1 2 3 4 5 6 
#
# 1 151.0073 18.2511 70.8568 0.0000 0.0000 0.0000
# 2 18.2511 27.1465 14.0745 0.0000 0.0000 0.0000
# 3 70.8568 14.0745 171.3152 0.0000 0.0000 0.0000
# 4 0.0000 0.0000 0.0000 42.0775 0.0000 0.0000
# 5 0.0000 0.0000 0.0000 0.0000 41.7597 0.0000
# 6 0.0000 0.0000 0.0000 0.0000 0.0000 -14.1359
#
#
#
# Elastic Compliance Matrix: (Units=1/GPa)
#
#
# Indices 1 2 3 4 5 6 
#
# 1 0.008639 -0.004132 -0.003234 0.000000 0.000000 0.000000
# 2 -0.004132 0.040452 -0.001615 0.000000 0.000000 0.000000
# 3 -0.003234 -0.001615 0.007307 0.000000 0.000000 0.000000
# 4 0.000000 0.000000 0.000000 0.023766 0.000000 0.000000
# 5 0.000000 0.000000 0.000000 0.000000 0.023947 0.000000
# 6 0.000000 0.000000 0.000000 0.000000 0.000000 -0.070742
#
#
# Mechanical properties :
#
#
# Convention : Reuss Voigt Hill
#
# Bulk Modulus (GPa) = 26.01550 61.75933 43.88742
# Shear Modulus (GPa) = 77.95371 30.35937 54.15654
#
# Velocity S-wave (km/s) = 5.45843 3.40640 4.54962
# Velocity P-wave (km/s) = 7.04764 6.25110 6.66129
#
# Compressibility (1/GPa) = 0.03843862
#
# Stress axis : x y z
#
# Youngs Moduli (GPa) = 115.75602 24.72071 136.84972
#
# Poissons Ratio (x) = 0.10213 0.44252
# Poissons Ratio (y) = 0.47825 0.22095
# Poissons Ratio (z) = 0.37431 0.03991
#
# Static dielectric constant tensor:
#      x y z
#    x 4.630560 0.000000 0.000000 
#    y 0.000000 4.625240 0.000000 
#    z 0.000000 0.000000 5.341130 
# 
# 
# High freq. dielectric constant tensor:
#      x y z
#    x 2.052450 0.000000 0.000000 
#    y 0.000000 2.037170 0.000000 
#    z 0.000000 0.000000 2.072690 
# 
# From -- ./inp_files/27078.got.cif
#   From: 2010.03.12/outbox.cif.g09.slc.cpg/sg64_14_cif.got.tgz:27078.got - 2010.04.10 20:19:32.
