data_PCOD8263823
_publ_section_title
;
Structure prediction by ZEFSAII (Michael W. Deem and Ramdas Pophale) SiO2 
 PCOD8263823
Probable space group: C M C A
;
_chemical_formula_sum "Si O2"
_cell_formula_units_Z 80
_cell_length_a 15.809138
_cell_length_b 28.137878
_cell_length_c 8.809170
_cell_angle_alpha 90.000000
_cell_angle_beta 90.000000
_cell_angle_gamma 90.000000
_cell_volume 3918.632390
_symmetry_space_group_name_H-M "C M C A"
_symmetry_group_IT_number 64
_symmetry_cell_setting 'orthorhombic'
loop_
_space_group_symop_operation_xyz
x,y,z
-x,1/2-y,1/2+z
x,-y,-z
-x,1/2+y,1/2-z
-x,-y,-z
x,1/2+y,1/2-z
-x,y,z
x,1/2-y,1/2+z
1/2+x,1/2+y,z
1/2-x,-y,1/2+z
1/2+x,1/2-y,-z
1/2-x,y,1/2-z
1/2-x,1/2-y,-z
1/2+x,y,1/2-z
1/2-x,1/2+y,z
1/2+x,-y,1/2+z
loop_
_atom_site_type_symbol
_atom_site_label
_atom_site_fract_x
_atom_site_fract_y
_atom_site_fract_z
Si Si1 0.826369 0.390811 0.438431
Si Si2 0.168092 0.551427 0.061449
Si Si3 0.905694 0.040377 0.120271
Si Si4 0.404126 0.629863 0.620330
Si Si5 0.766862 0.799495 0.422680
O O1 0.756347 0.429693 0.492143
O O2 0.908612 0.409091 0.529009
O O3 0.845221 0.389863 0.258132
O O4 0.798704 0.338272 0.490655
O O5 0.162345 0.545726 0.244012
O O6 0.145448 0.500000 0.000000
O O7 0.096445 0.589250 0.008219
O O8 0.000000 0.029360 0.182373
O O9 0.876864 0.000000 0.000000
O O10 0.500000 0.640854 0.671027
O O11 0.361723 0.678838 0.557885
O O12 0.750000 0.788995 0.250000
O O13 0.750000 0.750000 0.500000
#
# Coordination Sequence:
#
# PCOD8263823 Si02
#       5
#    16  16  16  16  16
#     4  10  21  38  59  81 111 154 199 244 297 357
#     4  11  22  36  56  84 118 159 204 245 294 362
#     4  11  23  36  53  82 119 156 196 246 300 350
#     4  10  21  39  61  86 118 154 198 251 303 355
#     4   9  20  38  60  84 112 148 188 234 294 358
#
# _framework density 20.415285999999998
#
# number of rings (size 3 to 8) (size 9 to 14) (size 15 to 20)
#    0.000    1.800    0.000    5.400    0.000    8.000 
#    0.000    5.000    0.000    0.000    0.000    0.000 
#    0.000    0.000    0.000    0.000    0.000    0.000 
#
# Total GULP energy -495557.910777 kJ/mol
# GULP energy per Si atom -12388.947769 kJ/mol
# Density = 2.036882 g / cm^3
# Si number density = 20.415286 Si / 1000 Ang^3
#
#
#
# Elastic Constant Matrix: (Units=GPa)
#
#
# Indices 1 2 3 4 5 6 
#
# 1 109.6321 56.4238 38.9941 0.0000 0.0000 0.0000
# 2 56.4238 173.8132 68.7485 0.0000 0.0000 0.0000
# 3 38.9941 68.7485 105.9206 0.0000 0.0000 0.0000
# 4 0.0000 0.0000 0.0000 38.8102 0.0000 0.0000
# 5 0.0000 0.0000 0.0000 0.0000 30.4737 0.0000
# 6 0.0000 0.0000 0.0000 0.0000 0.0000 20.4934
#
#
#
# Elastic Compliance Matrix: (Units=1/GPa)
#
#
# Indices 1 2 3 4 5 6 
#
# 1 0.011392 -0.002744 -0.002413 0.000000 0.000000 0.000000
# 2 -0.002744 0.008401 -0.004443 0.000000 0.000000 0.000000
# 3 -0.002413 -0.004443 0.013213 0.000000 0.000000 0.000000
# 4 0.000000 0.000000 0.000000 0.025766 0.000000 0.000000
# 5 0.000000 0.000000 0.000000 0.000000 0.032815 0.000000
# 6 0.000000 0.000000 0.000000 0.000000 0.000000 0.048796
#
#
# Mechanical properties :
#
#
# Convention : Reuss Voigt Hill
#
# Bulk Modulus (GPa) = 72.42686 79.74429 76.08558
# Shear Modulus (GPa) = 30.45347 32.96878 31.71113
#
# Velocity S-wave (km/s) = 3.86644 4.02295 3.94547
# Velocity P-wave (km/s) = 7.44891 7.79261 7.62270
#
# Compressibility (1/GPa) = 0.01380703
#
# Stress axis : x y z
#
# Youngs Moduli (GPa) = 87.78303 119.03056 75.68281
#
# Poissons Ratio (x) = 0.32657 0.18263
# Poissons Ratio (y) = 0.24084 0.33625
# Poissons Ratio (z) = 0.21183 0.52883
#
# Static dielectric constant tensor:
#      x y z
#    x 3.717660 0.000000 0.000000 
#    y 0.000000 3.766960 0.000000 
#    z 0.000000 0.000000 3.952530 
# 
# 
# High freq. dielectric constant tensor:
#      x y z
#    x 1.796560 0.000000 0.000000 
#    y 0.000000 1.788990 0.000000 
#    z 0.000000 0.000000 1.797510 
# 
# From -- ./inp_files/7119.got.cif
#   From: 2010.03.12/outbox.cif.g09.slc.cpg/sg64_4_cif.got.tgz:7119.got - 2010.04.10 20:19:32.
