data_PCOD8263521
_publ_section_title
;
Structure prediction by ZEFSAII (Michael W. Deem and Ramdas Pophale) SiO2 
 PCOD8263521
Probable space group: C M C A
;
_chemical_formula_sum "Si O2"
_cell_formula_units_Z 88
_cell_length_a 23.029176
_cell_length_b 19.349488
_cell_length_c 8.663008
_cell_angle_alpha 90.000000
_cell_angle_beta 90.000000
_cell_angle_gamma 90.000000
_cell_volume 3860.260315
_symmetry_space_group_name_H-M "C M C A"
_symmetry_group_IT_number 64
_symmetry_cell_setting 'orthorhombic'
loop_
_space_group_symop_operation_xyz
x,y,z
-x,1/2-y,1/2+z
x,-y,-z
-x,1/2+y,1/2-z
-x,-y,-z
x,1/2+y,1/2-z
-x,y,z
x,1/2-y,1/2+z
1/2+x,1/2+y,z
1/2-x,-y,1/2+z
1/2+x,1/2-y,-z
1/2-x,y,1/2-z
1/2-x,1/2-y,-z
1/2+x,y,1/2-z
1/2-x,1/2+y,z
1/2+x,-y,1/2+z
loop_
_atom_site_type_symbol
_atom_site_label
_atom_site_fract_x
_atom_site_fract_y
_atom_site_fract_z
Si Si1 0.635150 0.162036 0.740713
Si Si2 0.363202 0.799820 0.605014
Si Si3 0.674972 0.418228 0.500630
Si Si4 0.250000 0.852373 0.750000
Si Si5 0.435700 0.034264 0.646441
Si Si6 0.434008 0.396505 0.689362
O O1 0.612477 0.224137 0.850645
O O2 0.653116 0.193373 0.575235
O O3 0.585601 0.106363 0.710853
O O4 0.685249 0.117943 0.832586
O O5 0.302455 0.804655 0.695359
O O6 0.411001 0.856470 0.657007
O O7 0.670826 0.500000 0.500000
O O8 0.728692 0.401017 0.611098
O O9 0.613183 0.384328 0.555140
O O10 0.500000 0.050726 0.586555
O O11 0.400970 0.000000 0.500000
O O12 0.434499 0.978589 0.783114
O O13 0.500000 0.371675 0.647455
#
# Coordination Sequence:
#
# PCOD8263521 Si02
#       6
#    16  16  16   8  16  16
#     4  12  25  43  69 100 138 179 231 288 348 418
#     4  11  25  44  69  96 138 184 225 286 348 421
#     4  11  24  43  68 103 137 179 239 291 348 413
#     4  10  26  48  66  96 136 182 236 286 352 416
#     4  10  20  39  70 102 138 184 228 278 338 407
#     4  10  21  42  70 102 140 179 226 282 343 407
#
# _framework density 22.796392000000001
#
# number of rings (size 3 to 8) (size 9 to 14) (size 15 to 20)
#    0.000    1.273    3.636    2.182    0.000    6.909 
#    0.000    1.818    0.000    0.000    0.000    0.000 
#    0.000    0.000    0.000    0.000    0.000    0.000 
#
# Total GULP energy -545202.911353 kJ/mol
# GULP energy per Si atom -12390.975258 kJ/mol
# Density = 2.274451 g / cm^3
# Si number density = 22.796392 Si / 1000 Ang^3
#
#
#
# Elastic Constant Matrix: (Units=GPa)
#
#
# Indices 1 2 3 4 5 6 
#
# 1 96.7273 36.1756 23.6835 0.0000 0.0000 0.0000
# 2 36.1756 156.4189 67.6054 0.0000 0.0000 0.0000
# 3 23.6835 67.6054 123.4952 0.0000 0.0000 0.0000
# 4 0.0000 0.0000 0.0000 47.3197 0.0000 0.0000
# 5 0.0000 0.0000 0.0000 0.0000 28.9030 0.0000
# 6 0.0000 0.0000 0.0000 0.0000 0.0000 13.6418
#
#
#
# Elastic Compliance Matrix: (Units=1/GPa)
#
#
# Indices 1 2 3 4 5 6 
#
# 1 0.011406 -0.002217 -0.000974 0.000000 0.000000 0.000000
# 2 -0.002217 0.008805 -0.004395 0.000000 0.000000 0.000000
# 3 -0.000974 -0.004395 0.010690 0.000000 0.000000 0.000000
# 4 0.000000 0.000000 0.000000 0.021133 0.000000 0.000000
# 5 0.000000 0.000000 0.000000 0.000000 0.034598 0.000000
# 6 0.000000 0.000000 0.000000 0.000000 0.000000 0.073304
#
#
# Mechanical properties :
#
#
# Convention : Reuss Voigt Hill
#
# Bulk Modulus (GPa) = 63.57387 70.17451 66.87419
# Shear Modulus (GPa) = 27.72353 34.58470 31.15411
#
# Velocity S-wave (km/s) = 3.49110 3.89924 3.70080
# Velocity P-wave (km/s) = 6.64820 7.14997 6.90365
#
# Compressibility (1/GPa) = 0.01572973
#
# Stress axis : x y z
#
# Youngs Moduli (GPa) = 87.67382 113.56549 93.54262
#
# Poissons Ratio (x) = 0.25178 0.09108
# Poissons Ratio (y) = 0.19438 0.41114
# Poissons Ratio (z) = 0.08537 0.49915
#
# Static dielectric constant tensor:
#      x y z
#    x 3.874350 0.000000 0.000000 
#    y 0.000000 4.069250 0.000000 
#    z 0.000000 0.000000 4.497120 
# 
# 
# High freq. dielectric constant tensor:
#      x y z
#    x 1.867530 0.000000 0.000000 
#    y 0.000000 1.910540 0.000000 
#    z 0.000000 0.000000 1.912990 
# 
# From -- ./inp_files/9335.got.cif
#   From: 2010.03.12/outbox.cif.g09.slc.cpg/sg64_5_cif.got.tgz:9335.got - 2010.04.10 20:19:32.
