data_PCOD8263019
_publ_section_title
;
Structure prediction by ZEFSAII (Michael W. Deem and Ramdas Pophale) SiO2 
 PCOD8263019
Probable space group: C M C A
;
_chemical_formula_sum "Si O2"
_cell_formula_units_Z 112
_cell_length_a 14.223075
_cell_length_b 13.969270
_cell_length_c 28.658723
_cell_angle_alpha 90.000000
_cell_angle_beta 90.000000
_cell_angle_gamma 90.000000
_cell_volume 5694.086319
_symmetry_space_group_name_H-M "C M C A"
_symmetry_group_IT_number 64
_symmetry_cell_setting 'orthorhombic'
loop_
_space_group_symop_operation_xyz
x,y,z
-x,1/2-y,1/2+z
x,-y,-z
-x,1/2+y,1/2-z
-x,-y,-z
x,1/2+y,1/2-z
-x,y,z
x,1/2-y,1/2+z
1/2+x,1/2+y,z
1/2-x,-y,1/2+z
1/2+x,1/2-y,-z
1/2-x,y,1/2-z
1/2-x,1/2-y,-z
1/2+x,y,1/2-z
1/2-x,1/2+y,z
1/2+x,-y,1/2+z
loop_
_atom_site_type_symbol
_atom_site_label
_atom_site_fract_x
_atom_site_fract_y
_atom_site_fract_z
Si Si1 0.887866 0.884737 0.893724
Si Si2 0.193027 0.601346 0.704183
Si Si3 0.888368 0.111605 0.396409
Si Si4 0.749290 0.551839 0.605315
Si Si5 0.751733 0.251830 0.944965
Si Si6 0.890972 0.899214 0.789950
Si Si7 0.890631 0.801496 0.699661
O O1 0.842507 0.803732 0.926162
O O2 0.858918 0.858516 0.840235
O O3 0.000000 0.889688 0.901532
O O4 0.843156 0.988855 0.904612
O O5 0.250000 0.629132 0.750000
O O6 0.259304 0.581601 0.659671
O O7 0.128560 0.511063 0.715631
O O8 0.126960 0.690048 0.691557
O O9 0.846134 0.192512 0.430184
O O10 0.853248 0.137838 0.344244
O O11 0.000000 0.108042 0.403021
O O12 0.843871 0.008349 0.408206
O O13 0.754495 0.643600 0.572738
O O14 0.750000 0.250000 0.000000
O O15 0.841838 0.841497 0.747249
O O16 0.000000 0.881908 0.785998
O O17 0.000000 0.819652 0.702254
#
# Coordination Sequence:
#
# PCOD8263019 Si02
#       7
#    16  16  16  16  16  16  16
#     4   9  21  40  63  87 120 157 199 244 299 359
#     4  11  21  31  56  85 116 156 197 231 291 351
#     4  10  22  41  63  89 120 161 201 246 303 363
#     4  10  22  40  60  89 120 155 199 248 296 354
#     4  11  24  42  62  89 122 153 199 260 314 364
#     4   9  19  36  54  80 116 154 193 239 286 347
#     4  10  20  35  56  83 118 154 197 240 285 350
#
# _framework density 19.669530000000002
#
# number of rings (size 3 to 8) (size 9 to 14) (size 15 to 20)
#    0.000    2.000    1.429    1.286    2.000    6.286 
#    0.000    2.143    0.000    0.000    0.000    0.000 
#    0.000    0.000    0.000    0.000    0.000    0.000 
#
# Total GULP energy -694300.861437 kJ/mol
# GULP energy per Si atom -12398.229669 kJ/mol
# Density = 1.962476 g / cm^3
# Si number density = 19.669530 Si / 1000 Ang^3
#
#
#
# Elastic Constant Matrix: (Units=GPa)
#
#
# Indices 1 2 3 4 5 6 
#
# 1 85.8447 33.8482 48.6913 0.0000 0.0000 0.0000
# 2 33.8482 132.3592 66.2935 0.0000 0.0000 0.0000
# 3 48.6913 66.2935 143.7285 0.0000 0.0000 0.0000
# 4 0.0000 0.0000 0.0000 12.8369 0.0000 0.0000
# 5 0.0000 0.0000 0.0000 0.0000 21.9786 0.0000
# 6 0.0000 0.0000 0.0000 0.0000 0.0000 20.7586
#
#
#
# Elastic Compliance Matrix: (Units=1/GPa)
#
#
# Indices 1 2 3 4 5 6 
#
# 1 0.014690 -0.001644 -0.004218 0.000000 0.000000 0.000000
# 2 -0.001644 0.010009 -0.004060 0.000000 0.000000 0.000000
# 3 -0.004218 -0.004060 0.010259 0.000000 0.000000 0.000000
# 4 0.000000 0.000000 0.000000 0.077900 0.000000 0.000000
# 5 0.000000 0.000000 0.000000 0.000000 0.045499 0.000000
# 6 0.000000 0.000000 0.000000 0.000000 0.000000 0.048173
#
#
# Mechanical properties :
#
#
# Convention : Reuss Voigt Hill
#
# Bulk Modulus (GPa) = 66.16293 73.28872 69.72582
# Shear Modulus (GPa) = 21.60656 25.32143 23.46400
#
# Velocity S-wave (km/s) = 3.31793 3.59185 3.45760
# Velocity P-wave (km/s) = 6.95618 7.38531 7.17395
#
# Compressibility (1/GPa) = 0.01511420
#
# Stress axis : x y z
#
# Youngs Moduli (GPa) = 68.07483 99.91120 97.47480
#
# Poissons Ratio (x) = 0.16424 0.41117
# Poissons Ratio (y) = 0.11190 0.39571
# Poissons Ratio (z) = 0.28716 0.40560
#
# Static dielectric constant tensor:
#      x y z
#    x 3.454170 0.000000 0.000000 
#    y 0.000000 3.604160 0.000000 
#    z 0.000000 0.000000 3.754980 
# 
# 
# High freq. dielectric constant tensor:
#      x y z
#    x 1.763550 0.000000 0.000000 
#    y 0.000000 1.772650 0.000000 
#    z 0.000000 0.000000 1.762540 
# 
# From -- ./inp_files/45259.got.cif
#   From: 2010.03.12/outbox.cif.g09.slc.cpg/sg64_23_cif.got.tgz:45259.got - 2010.04.10 20:19:32.
