data_PCOD8263601
_publ_section_title
;
Structure prediction by ZEFSAII (Michael W. Deem and Ramdas Pophale) SiO2 
 PCOD8263601
Probable space group: C M C A
;
_chemical_formula_sum "Si O2"
_cell_formula_units_Z 104
_cell_length_a 25.751375
_cell_length_b 18.320658
_cell_length_c 10.323474
_cell_angle_alpha 90.000000
_cell_angle_beta 90.000000
_cell_angle_gamma 90.000000
_cell_volume 4870.430598
_symmetry_space_group_name_H-M "C M C A"
_symmetry_group_IT_number 64
_symmetry_cell_setting 'orthorhombic'
loop_
_space_group_symop_operation_xyz
x,y,z
-x,1/2-y,1/2+z
x,-y,-z
-x,1/2+y,1/2-z
-x,-y,-z
x,1/2+y,1/2-z
-x,y,z
x,1/2-y,1/2+z
1/2+x,1/2+y,z
1/2-x,-y,1/2+z
1/2+x,1/2-y,-z
1/2-x,y,1/2-z
1/2-x,1/2-y,-z
1/2+x,y,1/2-z
1/2-x,1/2+y,z
1/2+x,-y,1/2+z
loop_
_atom_site_type_symbol
_atom_site_label
_atom_site_fract_x
_atom_site_fract_y
_atom_site_fract_z
Si Si1 0.888729 0.904960 0.285403
Si Si2 0.500000 0.704006 0.094237
Si Si3 0.604995 0.847086 0.494183
Si Si4 0.114777 0.933427 0.765423
Si Si5 0.327471 0.715821 0.582000
Si Si6 0.500000 0.124154 0.892457
Si Si7 0.199688 0.320915 0.808058
Si Si8 0.000000 0.101326 0.310892
O O1 0.854607 0.861942 0.389982
O O2 0.949401 0.906799 0.321443
O O3 0.865078 0.986334 0.272210
O O4 0.880977 0.862947 0.151914
O O5 0.455053 0.666702 0.013205
O O6 0.500000 0.789692 0.098344
O O7 0.500000 0.682099 0.247023
O O8 0.623332 0.915397 0.582726
O O9 0.629299 0.771021 0.534422
O O10 0.147844 0.871126 0.689991
O O11 0.053392 0.935617 0.735551
O O12 0.289449 0.703314 0.457417
O O13 0.302343 0.749741 0.712134
O O14 0.500000 0.095163 0.036836
O O15 0.250000 0.364526 0.750000
#
# Coordination Sequence:
#
# PCOD8263601 Si02
#       8
#    16   8  16  16  16   8  16   8
#     4  12  23  38  64  97 133 173 222 262 333 395
#     4  10  21  33  57  90 129 178 221 267 319 390
#     4  10  21  39  61  93 131 174 220 265 322 388
#     4  10  24  42  66  91 135 177 210 273 323 400
#     4  11  22  40  70  96 126 168 216 279 328 382
#     4  12  24  30  59  92 131 171 212 271 317 385
#     4  11  24  45  69  96 130 171 221 275 333 391
#     4  10  23  41  55  90 134 167 216 261 331 384
#
# _framework density 21.353348
#
# number of rings (size 3 to 8) (size 9 to 14) (size 15 to 20)
#    0.000    1.231    3.077    2.769    2.154    3.077 
#    0.000    3.846    6.769    0.000    0.000    0.000 
#    0.000    0.000    0.000    0.000    0.000    0.000 
#
# Total GULP energy -644377.552921 kJ/mol
# GULP energy per Si atom -12391.876018 kJ/mol
# Density = 2.130475 g / cm^3
# Si number density = 21.353348 Si / 1000 Ang^3
#
#
#
# Elastic Constant Matrix: (Units=GPa)
#
#
# Indices 1 2 3 4 5 6 
#
# 1 70.7805 26.1363 24.7720 0.0000 0.0000 0.0000
# 2 26.1363 111.6994 41.9764 0.0000 0.0000 0.0000
# 3 24.7720 41.9764 145.9243 0.0000 0.0000 0.0000
# 4 0.0000 0.0000 0.0000 19.5728 0.0000 0.0000
# 5 0.0000 0.0000 0.0000 0.0000 -0.0519 0.0000
# 6 0.0000 0.0000 0.0000 0.0000 0.0000 17.9126
#
#
#
# Elastic Compliance Matrix: (Units=1/GPa)
#
#
# Indices 1 2 3 4 5 6 
#
# 1 0.015886 -0.003031 -0.001825 0.000000 0.000000 0.000000
# 2 -0.003031 0.010616 -0.002539 0.000000 0.000000 0.000000
# 3 -0.001825 -0.002539 0.007893 0.000000 0.000000 0.000000
# 4 0.000000 0.000000 0.000000 0.051091 0.000000 0.000000
# 5 0.000000 0.000000 0.000000 0.000000-19.282164 0.000000
# 6 0.000000 0.000000 0.000000 0.000000 0.000000 0.055827
#
#
# Mechanical properties :
#
#
# Convention : Reuss Voigt Hill
#
# Bulk Modulus (GPa) = 51.00862 57.13041 54.06951
# Shear Modulus (GPa) = -0.26151 23.18800 11.46325
#
# Velocity S-wave (km/s) = -0.35034 3.29890 2.31949
# Velocity P-wave (km/s) = 4.87607 6.42831 5.70523
#
# Compressibility (1/GPa) = 0.01960453
#
# Stress axis : x y z
#
# Youngs Moduli (GPa) = 62.94761 94.19615 126.69336
#
# Poissons Ratio (x) = 0.28555 0.23119
# Poissons Ratio (y) = 0.19082 0.32170
# Poissons Ratio (z) = 0.11487 0.23918
#
# Static dielectric constant tensor:
#      x y z
#    x 3.960260 0.000000 0.000000 
#    y 0.000000 3.729660 0.000000 
#    z 0.000000 0.000000 4.094490 
# 
# 
# High freq. dielectric constant tensor:
#      x y z
#    x 1.826930 0.000000 0.000000 
#    y 0.000000 1.827980 0.000000 
#    z 0.000000 0.000000 1.852740 
# 
# From -- ./inp_files/19238.got.cif
#   From: 2010.03.12/outbox.cif.g09.slc.cpg/sg64_10_cif.got.tgz:19238.got - 2010.04.10 20:19:32.
