data_PCOD8263603
_publ_section_title
;
Structure prediction by ZEFSAII (Michael W. Deem and Ramdas Pophale) SiO2 
 PCOD8263603
Probable space group: C M C A
;
_chemical_formula_sum "Si O2"
_cell_formula_units_Z 96
_cell_length_a 8.985051
_cell_length_b 23.523026
_cell_length_c 25.770197
_cell_angle_alpha 90.000000
_cell_angle_beta 90.000000
_cell_angle_gamma 90.000000
_cell_volume 5446.675147
_symmetry_space_group_name_H-M "C M C A"
_symmetry_group_IT_number 64
_symmetry_cell_setting 'orthorhombic'
loop_
_space_group_symop_operation_xyz
x,y,z
-x,1/2-y,1/2+z
x,-y,-z
-x,1/2+y,1/2-z
-x,-y,-z
x,1/2+y,1/2-z
-x,y,z
x,1/2-y,1/2+z
1/2+x,1/2+y,z
1/2-x,-y,1/2+z
1/2+x,1/2-y,-z
1/2-x,y,1/2-z
1/2-x,1/2-y,-z
1/2+x,y,1/2-z
1/2-x,1/2+y,z
1/2+x,-y,1/2+z
loop_
_atom_site_type_symbol
_atom_site_label
_atom_site_fract_x
_atom_site_fract_y
_atom_site_fract_z
Si Si1 0.168423 0.833019 0.381641
Si Si2 0.828639 0.390083 0.926969
Si Si3 0.174729 0.087735 0.805256
Si Si4 0.326451 0.491155 0.884586
Si Si5 0.324322 0.272097 0.947477
Si Si6 0.166276 0.931351 0.459228
O O1 0.273678 0.855899 0.335966
O O2 0.212836 0.769709 0.399292
O O3 0.186633 0.869900 0.433643
O O4 0.000000 0.835436 0.360491
O O5 0.761891 0.431259 0.882206
O O6 0.736572 0.332458 0.929426
O O7 0.000000 0.375803 0.915079
O O8 0.808591 0.424843 0.979981
O O9 0.250000 0.084950 0.750000
O O10 0.221543 0.030643 0.836136
O O11 0.000000 0.091740 0.798083
O O12 0.500000 0.477661 0.884132
O O13 0.286362 0.524897 0.937100
O O14 0.500000 0.275368 0.957662
O O15 0.250000 0.250000 0.000000
O O16 0.000000 0.955213 0.447737
#
# Coordination Sequence:
#
# PCOD8263603 Si02
#       6
#    16  16  16  16  16  16
#     4   9  18  34  53  76 107 141 178 219 264 310
#     4  11  21  33  49  73 106 147 184 214 257 310
#     4  10  21  37  59  83 105 132 171 221 276 325
#     4  10  21  34  49  76 105 134 174 220 268 316
#     4  11  21  34  52  76 109 149 186 221 259 309
#     4   9  17  31  48  70 103 142 178 212 254 308
#
# _framework density 17.625432
#
# number of rings (size 3 to 8) (size 9 to 14) (size 15 to 20)
#    0.000    2.000    1.667    2.500    0.000    6.667 
#    0.000    0.000    0.000    1.000    0.000    4.667 
#    0.000    0.000    0.000    0.000    0.000    0.000 
#
# Total GULP energy -595190.040028 kJ/mol
# GULP energy per Si atom -12399.792501 kJ/mol
# Density = 1.758532 g / cm^3
# Si number density = 17.625432 Si / 1000 Ang^3
#
#
#
# Elastic Constant Matrix: (Units=GPa)
#
#
# Indices 1 2 3 4 5 6 
#
# 1 99.6273 61.7489 54.1617 0.0000 0.0000 0.0000
# 2 61.7489 106.9533 51.4814 0.0000 0.0000 0.0000
# 3 54.1617 51.4814 88.1959 0.0000 0.0000 0.0000
# 4 0.0000 0.0000 0.0000 12.8363 0.0000 0.0000
# 5 0.0000 0.0000 0.0000 0.0000 26.8357 0.0000
# 6 0.0000 0.0000 0.0000 0.0000 0.0000 33.0577
#
#
#
# Elastic Compliance Matrix: (Units=1/GPa)
#
#
# Indices 1 2 3 4 5 6 
#
# 1 0.018329 -0.007182 -0.007064 0.000000 0.000000 0.000000
# 2 -0.007182 0.015818 -0.004822 0.000000 0.000000 0.000000
# 3 -0.007064 -0.004822 0.018491 0.000000 0.000000 0.000000
# 4 0.000000 0.000000 0.000000 0.077904 0.000000 0.000000
# 5 0.000000 0.000000 0.000000 0.000000 0.037264 0.000000
# 6 0.000000 0.000000 0.000000 0.000000 0.000000 0.030250
#
#
# Mechanical properties :
#
#
# Convention : Reuss Voigt Hill
#
# Bulk Modulus (GPa) = 68.95871 69.95117 69.45494
# Shear Modulus (GPa) = 20.74463 23.03822 21.89143
#
# Velocity S-wave (km/s) = 3.43442 3.61931 3.52808
# Velocity P-wave (km/s) = 7.41192 7.56569 7.48920
#
# Compressibility (1/GPa) = 0.01450143
#
# Stress axis : x y z
#
# Youngs Moduli (GPa) = 54.55850 63.22031 54.07983
#
# Poissons Ratio (x) = 0.45405 0.38200
# Poissons Ratio (y) = 0.39184 0.26080
# Poissons Ratio (z) = 0.38538 0.30488
#
# Static dielectric constant tensor:
#      x y z
#    x 3.362200 0.000000 0.000000 
#    y 0.000000 3.388900 0.000000 
#    z 0.000000 0.000000 3.027260 
# 
# 
# High freq. dielectric constant tensor:
#      x y z
#    x 1.691860 0.000000 0.000000 
#    y 0.000000 1.686890 0.000000 
#    z 0.000000 0.000000 1.647060 
# 
# From -- ./inp_files/42969.got.cif
#   From: 2010.03.12/outbox.cif.g09.slc.cpg/sg64_22_cif.got.tgz:42969.got - 2010.04.10 20:19:32.
