data_PCOD8263498
_publ_section_title
;
Structure prediction by ZEFSAII (Michael W. Deem and Ramdas Pophale) SiO2 
 PCOD8263498
Probable space group: C M C A
;
_chemical_formula_sum "Si O2"
_cell_formula_units_Z 96
_cell_length_a 17.541387
_cell_length_b 9.877646
_cell_length_c 27.615539
_cell_angle_alpha 90.000000
_cell_angle_beta 90.000000
_cell_angle_gamma 90.000000
_cell_volume 4784.878473
_symmetry_space_group_name_H-M "C M C A"
_symmetry_group_IT_number 64
_symmetry_cell_setting 'orthorhombic'
loop_
_space_group_symop_operation_xyz
x,y,z
-x,1/2-y,1/2+z
x,-y,-z
-x,1/2+y,1/2-z
-x,-y,-z
x,1/2+y,1/2-z
-x,y,z
x,1/2-y,1/2+z
1/2+x,1/2+y,z
1/2-x,-y,1/2+z
1/2+x,1/2-y,-z
1/2-x,y,1/2-z
1/2-x,1/2-y,-z
1/2+x,y,1/2-z
1/2-x,1/2+y,z
1/2+x,-y,1/2+z
loop_
_atom_site_type_symbol
_atom_site_label
_atom_site_fract_x
_atom_site_fract_y
_atom_site_fract_z
Si Si1 0.837027 0.245319 0.266706
Si Si2 0.177030 0.488489 0.617254
Si Si3 0.589901 0.127277 0.032122
Si Si4 0.183633 0.797122 0.624440
Si Si5 0.582463 0.373665 0.967582
Si Si6 0.911500 0.489072 0.712558
O O1 0.750000 0.225867 0.250000
O O2 0.854730 0.209338 0.322719
O O3 0.861204 0.400880 0.258241
O O4 0.892864 0.156562 0.234311
O O5 0.204915 0.643406 0.607671
O O6 0.245021 0.393569 0.634462
O O7 0.145982 0.414123 0.570263
O O8 0.109480 0.490207 0.656090
O O9 0.500000 0.125939 0.042237
O O10 0.630067 0.131317 0.084542
O O11 0.616249 0.255540 0.000974
O O12 0.616360 0.000000 0.000000
O O13 0.500000 0.328723 0.944574
O O14 0.564142 0.500000 0.000000
O O15 0.000000 0.523053 0.718001
#
# Coordination Sequence:
#
# PCOD8263498 Si02
#       6
#    16  16  16  16  16  16
#     4  11  23  44  68  94 134 173 212 271 332 391
#     4  11  24  40  62  93 125 167 216 265 321 388
#     4  10  23  43  64  93 131 169 214 268 327 391
#     4  11  25  40  66  92 127 171 211 260 328 391
#     4  10  20  39  63  85 119 163 206 259 313 372
#     4  11  24  42  67  97 129 168 221 274 325 392
#
# _framework density 20.063205
#
# number of rings (size 3 to 8) (size 9 to 14) (size 15 to 20)
#    0.000    1.333    3.333    1.500    4.667    4.667 
#    0.000    0.000    0.000    0.000    0.000    0.000 
#    0.000    0.000    0.000    0.000    0.000    0.000 
#
# Total GULP energy -595091.213830 kJ/mol
# GULP energy per Si atom -12397.733621 kJ/mol
# Density = 2.001754 g / cm^3
# Si number density = 20.063205 Si / 1000 Ang^3
#
#
#
# Elastic Constant Matrix: (Units=GPa)
#
#
# Indices 1 2 3 4 5 6 
#
# 1 80.0514 28.3548 29.1648 0.0000 0.0000 0.0000
# 2 28.3548 95.8815 34.7985 0.0000 0.0000 0.0000
# 3 29.1648 34.7985 85.4495 0.0000 0.0000 0.0000
# 4 0.0000 0.0000 0.0000 35.5232 0.0000 0.0000
# 5 0.0000 0.0000 0.0000 0.0000 33.9283 0.0000
# 6 0.0000 0.0000 0.0000 0.0000 0.0000 31.9521
#
#
#
# Elastic Compliance Matrix: (Units=1/GPa)
#
#
# Indices 1 2 3 4 5 6 
#
# 1 0.014976 -0.003020 -0.003882 0.000000 0.000000 0.000000
# 2 -0.003020 0.012847 -0.004201 0.000000 0.000000 0.000000
# 3 -0.003882 -0.004201 0.014739 0.000000 0.000000 0.000000
# 4 0.000000 0.000000 0.000000 0.028151 0.000000 0.000000
# 5 0.000000 0.000000 0.000000 0.000000 0.029474 0.000000
# 6 0.000000 0.000000 0.000000 0.000000 0.000000 0.031297
#
#
# Mechanical properties :
#
#
# Convention : Reuss Voigt Hill
#
# Bulk Modulus (GPa) = 49.12506 49.55764 49.34135
# Shear Modulus (GPa) = 31.15767 31.55167 31.35467
#
# Velocity S-wave (km/s) = 3.94506 3.96992 3.95751
# Velocity P-wave (km/s) = 6.72975 6.76521 6.74751
#
# Compressibility (1/GPa) = 0.02035621
#
# Stress axis : x y z
#
# Youngs Moduli (GPa) = 66.77424 77.83677 67.84938
#
# Poissons Ratio (x) = 0.23507 0.26336
# Poissons Ratio (y) = 0.20166 0.28505
# Poissons Ratio (z) = 0.25919 0.32701
#
# Static dielectric constant tensor:
#      x y z
#    x 3.500810 0.000000 0.000000 
#    y 0.000000 3.868470 0.000000 
#    z 0.000000 0.000000 3.572410 
# 
# 
# High freq. dielectric constant tensor:
#      x y z
#    x 1.774480 0.000000 0.000000 
#    y 0.000000 1.798450 0.000000 
#    z 0.000000 0.000000 1.783130 
# 
# From -- ./inp_files/45742.got.cif
#   From: 2010.03.12/outbox.cif.g09.slc.cpg/sg64_23_cif.got.tgz:45742.got - 2010.04.10 20:19:32.
