data_PCOD8263074
_publ_section_title
;
Structure prediction by ZEFSAII (Michael W. Deem and Ramdas Pophale) SiO2 
 PCOD8263074
Probable space group: C M C A
;
_chemical_formula_sum "Si O2"
_cell_formula_units_Z 112
_cell_length_a 24.658612
_cell_length_b 14.503346
_cell_length_c 14.130175
_cell_angle_alpha 90.000000
_cell_angle_beta 90.000000
_cell_angle_gamma 90.000000
_cell_volume 5053.408139
_symmetry_space_group_name_H-M "C M C A"
_symmetry_group_IT_number 64
_symmetry_cell_setting 'orthorhombic'
loop_
_space_group_symop_operation_xyz
x,y,z
-x,1/2-y,1/2+z
x,-y,-z
-x,1/2+y,1/2-z
-x,-y,-z
x,1/2+y,1/2-z
-x,y,z
x,1/2-y,1/2+z
1/2+x,1/2+y,z
1/2-x,-y,1/2+z
1/2+x,1/2-y,-z
1/2-x,y,1/2-z
1/2-x,1/2-y,-z
1/2+x,y,1/2-z
1/2-x,1/2+y,z
1/2+x,-y,1/2+z
loop_
_atom_site_type_symbol
_atom_site_label
_atom_site_fract_x
_atom_site_fract_y
_atom_site_fract_z
Si Si1 0.881575 0.846530 0.604099
Si Si2 0.604919 0.738292 0.587097
Si Si3 0.439398 0.696325 0.769367
Si Si4 0.792300 0.653139 0.829172
Si Si5 0.152398 0.578024 0.424153
Si Si6 0.624300 0.512322 0.731942
Si Si7 0.271660 0.101154 0.029197
O O1 0.904100 0.837325 0.495802
O O2 0.901171 0.758858 0.664287
O O3 0.899880 0.944078 0.650357
O O4 0.815967 0.846287 0.593717
O O5 0.555860 0.737352 0.662054
O O6 0.656356 0.719857 0.657303
O O7 0.615776 0.836950 0.539231
O O8 0.500000 0.695349 0.812660
O O9 0.417818 0.591984 0.759789
O O10 0.750000 0.687898 0.750000
O O11 0.817353 0.553305 0.799814
O O12 0.760726 0.651812 0.928954
O O13 0.142155 0.500000 0.500000
O O14 0.132176 0.551608 0.321692
O O15 0.215711 0.602128 0.414228
O O16 0.292978 0.000000 0.000000
#
# Coordination Sequence:
#
# PCOD8263074 Si02
#       7
#    16  16  16  16  16  16  16
#     4  11  23  43  71  97 137 173 221 284 338 400
#     4  10  24  42  65  97 136 175 227 286 334 401
#     4  11  26  48  71  97 127 170 234 292 349 408
#     4  10  20  35  59  95 138 181 223 267 320 395
#     4  11  22  39  62  98 141 186 220 260 327 407
#     4  11  23  41  66  96 135 179 219 279 337 399
#     4  10  20  35  61  97 139 183 223 262 319 405
#
# _framework density 22.163260000000001
#
# number of rings (size 3 to 8) (size 9 to 14) (size 15 to 20)
#    0.000    1.429    2.857    2.571    0.000    6.857 
#    0.000    0.714    0.000    1.714    0.000    0.000 
#    0.000    0.000    0.000    0.000    0.000    0.000 
#
# Total GULP energy -694075.031344 kJ/mol
# GULP energy per Si atom -12394.196988 kJ/mol
# Density = 2.211282 g / cm^3
# Si number density = 22.163260 Si / 1000 Ang^3
#
#
#
# Elastic Constant Matrix: (Units=GPa)
#
#
# Indices 1 2 3 4 5 6 
#
# 1 83.6017 42.0845 47.7041 0.0000 0.0000 0.0000
# 2 42.0845 88.4718 35.7109 0.0000 0.0000 0.0000
# 3 47.7041 35.7109 108.4579 0.0000 0.0000 0.0000
# 4 0.0000 0.0000 0.0000 42.9162 0.0000 0.0000
# 5 0.0000 0.0000 0.0000 0.0000 21.7976 0.0000
# 6 0.0000 0.0000 0.0000 0.0000 0.0000 20.5878
#
#
#
# Elastic Compliance Matrix: (Units=1/GPa)
#
#
# Indices 1 2 3 4 5 6 
#
# 1 0.018674 -0.006421 -0.006099 0.000000 0.000000 0.000000
# 2 -0.006421 0.015243 -0.002195 0.000000 0.000000 0.000000
# 3 -0.006099 -0.002195 0.012626 0.000000 0.000000 0.000000
# 4 0.000000 0.000000 0.000000 0.023301 0.000000 0.000000
# 5 0.000000 0.000000 0.000000 0.000000 0.045877 0.000000
# 6 0.000000 0.000000 0.000000 0.000000 0.000000 0.048572
#
#
# Mechanical properties :
#
#
# Convention : Reuss Voigt Hill
#
# Bulk Modulus (GPa) = 58.43657 59.05894 58.74775
# Shear Modulus (GPa) = 25.07167 27.39577 26.23372
#
# Velocity S-wave (km/s) = 3.36702 3.51962 3.44417
# Velocity P-wave (km/s) = 6.44511 6.57435 6.51005
#
# Compressibility (1/GPa) = 0.01711257
#
# Stress axis : x y z
#
# Youngs Moduli (GPa) = 53.54979 65.60257 79.20406
#
# Poissons Ratio (x) = 0.42123 0.48310
# Poissons Ratio (y) = 0.34384 0.17384
# Poissons Ratio (z) = 0.32663 0.14398
#
# Static dielectric constant tensor:
#      x y z
#    x 3.641270 0.000000 0.000000 
#    y 0.000000 4.064100 0.000000 
#    z 0.000000 0.000000 4.184010 
# 
# 
# High freq. dielectric constant tensor:
#      x y z
#    x 1.829630 0.000000 0.000000 
#    y 0.000000 1.876600 0.000000 
#    z 0.000000 0.000000 1.886610 
# 
# From -- ./inp_files/28096.got.cif
#   From: 2010.03.12/outbox.cif.g09.slc.cpg/sg64_15_cif.got.tgz:28096.got - 2010.04.10 20:19:32.
