data_PCOD8263820
_publ_section_title
;
Structure prediction by ZEFSAII (Michael W. Deem and Ramdas Pophale) SiO2 
 PCOD8263820
Probable space group: C M C A
;
_chemical_formula_sum "Si O2"
_cell_formula_units_Z 48
_cell_length_a 18.426534
_cell_length_b 19.073333
_cell_length_c 5.226020
_cell_angle_alpha 90.000000
_cell_angle_beta 90.000000
_cell_angle_gamma 90.000000
_cell_volume 1836.713049
_symmetry_space_group_name_H-M "C M C A"
_symmetry_group_IT_number 64
_symmetry_cell_setting 'orthorhombic'
loop_
_space_group_symop_operation_xyz
x,y,z
-x,1/2-y,1/2+z
x,-y,-z
-x,1/2+y,1/2-z
-x,-y,-z
x,1/2+y,1/2-z
-x,y,z
x,1/2-y,1/2+z
1/2+x,1/2+y,z
1/2-x,-y,1/2+z
1/2+x,1/2-y,-z
1/2-x,y,1/2-z
1/2-x,1/2-y,-z
1/2+x,y,1/2-z
1/2-x,1/2+y,z
1/2+x,-y,1/2+z
loop_
_atom_site_type_symbol
_atom_site_label
_atom_site_fract_x
_atom_site_fract_y
_atom_site_fract_z
Si Si1 0.584448 0.785137 0.480436
Si Si2 0.583055 0.935613 0.680439
Si Si3 0.716436 0.578296 0.496822
O O1 0.500000 0.765110 0.474360
O O2 0.620831 0.756707 0.219132
O O3 0.596026 0.868070 0.502957
O O4 0.500000 0.943256 0.770232
O O5 0.629053 0.927300 0.946000
O O6 0.608417 0.000000 0.500000
O O7 0.749823 0.500000 0.500000
O O8 0.750000 0.618190 0.250000
O O9 0.750000 0.616341 0.750000
#
# Coordination Sequence:
#
# PCOD8263820 Si02
#       3
#    16  16  16
#     4   9  19  36  57  85 128 177 213 251 324 408
#     4  10  21  38  66 103 134 164 219 289 333 371
#     4  10  21  38  58  84 126 173 210 252 322 401
#
# _framework density 26.133641999999998
#
# number of rings (size 3 to 8) (size 9 to 14) (size 15 to 20)
#    0.000    2.333    0.000    3.000    0.000    6.000 
#    0.000   11.667    0.000    7.000    0.000    0.000 
#    0.000   10.667    0.000    0.000    0.000    0.000 
#
# Total GULP energy -297325.569811 kJ/mol
# GULP energy per Si atom -12388.565409 kJ/mol
# Density = 2.607416 g / cm^3
# Si number density = 26.133642 Si / 1000 Ang^3
#
#
#
# Elastic Constant Matrix: (Units=GPa)
#
#
# Indices 1 2 3 4 5 6 
#
# 1 154.8829 -0.1450 53.3732 0.0000 0.0000 0.0000
# 2 -0.1450 108.8377 36.1819 0.0000 0.0000 0.0000
# 3 53.3732 36.1819 200.0400 0.0000 0.0000 0.0000
# 4 0.0000 0.0000 0.0000 23.5312 0.0000 0.0000
# 5 0.0000 0.0000 0.0000 0.0000 31.4897 0.0000
# 6 0.0000 0.0000 0.0000 0.0000 0.0000 -4.8035
#
#
#
# Elastic Compliance Matrix: (Units=1/GPa)
#
#
# Indices 1 2 3 4 5 6 
#
# 1 0.007158 0.000686 -0.002034 0.000000 0.000000 0.000000
# 2 0.000686 0.009841 -0.001963 0.000000 0.000000 0.000000
# 3 -0.002034 -0.001963 0.005897 0.000000 0.000000 0.000000
# 4 0.000000 0.000000 0.000000 0.042497 0.000000 0.000000
# 5 0.000000 0.000000 0.000000 0.000000 0.031756 0.000000
# 6 0.000000 0.000000 0.000000 0.000000 0.000000 -0.208182
#
#
# Mechanical properties :
#
#
# Convention : Reuss Voigt Hill
#
# Bulk Modulus (GPa) = 61.44845 71.39788 66.42316
# Shear Modulus (GPa) = -50.51217 35.00018 -7.75600
#
# Velocity S-wave (km/s) = -4.40118 3.66358 -1.72461
# Velocity P-wave (km/s) = 1.50431 6.72870 4.63748
#
# Compressibility (1/GPa) = 0.01627380
#
# Stress axis : x y z
#
# Youngs Moduli (GPa) = 139.70364 101.61067 169.58588
#
# Poissons Ratio (x) = -0.06967 0.34492
# Poissons Ratio (y) = -0.09579 0.33290
# Poissons Ratio (z) = 0.28414 0.19946
#
# Static dielectric constant tensor:
#      x y z
#    x 4.546550 0.000000 0.000000 
#    y 0.000000 4.333810 0.000000 
#    z 0.000000 0.000000 5.416750 
# 
# 
# High freq. dielectric constant tensor:
#      x y z
#    x 2.026940 0.000000 0.000000 
#    y 0.000000 2.007820 0.000000 
#    z 0.000000 0.000000 2.057220 
# 
# From -- ./inp_files/1525.got.cif
#   From: 2010.03.12/outbox.cif.g09.slc.cpg/sg64_1_cif.got.tgz:1525.got - 2010.04.10 20:19:32.
