data_PCOD8263006
_publ_section_title
;
Structure prediction by ZEFSAII (Michael W. Deem and Ramdas Pophale) SiO2 
 PCOD8263006
Probable space group: C M C A
;
_chemical_formula_sum "Si O2"
_cell_formula_units_Z 88
_cell_length_a 27.860394
_cell_length_b 12.772339
_cell_length_c 11.660161
_cell_angle_alpha 90.000000
_cell_angle_beta 90.000000
_cell_angle_gamma 90.000000
_cell_volume 4149.179638
_symmetry_space_group_name_H-M "C M C A"
_symmetry_group_IT_number 64
_symmetry_cell_setting 'orthorhombic'
loop_
_space_group_symop_operation_xyz
x,y,z
-x,1/2-y,1/2+z
x,-y,-z
-x,1/2+y,1/2-z
-x,-y,-z
x,1/2+y,1/2-z
-x,y,z
x,1/2-y,1/2+z
1/2+x,1/2+y,z
1/2-x,-y,1/2+z
1/2+x,1/2-y,-z
1/2-x,y,1/2-z
1/2-x,1/2-y,-z
1/2+x,y,1/2-z
1/2-x,1/2+y,z
1/2+x,-y,1/2+z
loop_
_atom_site_type_symbol
_atom_site_label
_atom_site_fract_x
_atom_site_fract_y
_atom_site_fract_z
Si Si1 0.395648 0.574146 0.368158
Si Si2 0.554629 0.872728 0.086094
Si Si3 0.813489 0.822482 0.509519
Si Si4 0.883322 0.687641 0.368849
Si Si5 0.347615 0.500000 0.000000
Si Si6 0.724659 0.630542 0.871508
O O1 0.439497 0.614985 0.448280
O O2 0.409705 0.452882 0.343744
O O3 0.347963 0.585751 0.445615
O O4 0.385382 0.644238 0.258829
O O5 0.500000 0.893491 0.122208
O O6 0.568249 0.754128 0.117143
O O7 0.837285 0.760274 0.400624
O O8 0.764922 0.877536 0.469832
O O9 0.802099 0.742187 0.614101
O O10 0.882745 0.590639 0.456250
O O11 0.314036 0.538495 0.894012
O O12 0.750000 0.615637 0.750000
#
# Coordination Sequence:
#
# PCOD8263006 Si02
#       6
#    16  16  16  16   8  16
#     4  10  20  37  63  85 115 154 190 234 291 346
#     4  10  23  40  60  90 116 142 193 243 285 357
#     4   9  20  36  56  88 118 151 199 237 276 340
#     4  10  22  40  60  84 118 154 186 237 296 342
#     4  10  24  38  53  86 120 150 199 242 276 338
#     4  10  20  35  56  81 117 157 195 239 282 326
#
# _framework density 21.209012000000001
#
# number of rings (size 3 to 8) (size 9 to 14) (size 15 to 20)
#    0.000    2.182    0.000    2.182    0.000   14.545 
#    0.000    2.273    0.000    0.000    0.000    0.000 
#    0.000    0.000    0.000    0.000    0.000    0.000 
#
# Total GULP energy -545256.342338 kJ/mol
# GULP energy per Si atom -12392.189599 kJ/mol
# Density = 2.116074 g / cm^3
# Si number density = 21.209012 Si / 1000 Ang^3
#
#
#
# Elastic Constant Matrix: (Units=GPa)
#
#
# Indices 1 2 3 4 5 6 
#
# 1 108.4542 63.3875 17.1360 0.0000 0.0000 0.0000
# 2 63.3875 126.0882 40.7593 0.0000 0.0000 0.0000
# 3 17.1360 40.7593 93.9912 0.0000 0.0000 0.0000
# 4 0.0000 0.0000 0.0000 12.7598 0.0000 0.0000
# 5 0.0000 0.0000 0.0000 0.0000 20.9999 0.0000
# 6 0.0000 0.0000 0.0000 0.0000 0.0000 31.9993
#
#
#
# Elastic Compliance Matrix: (Units=1/GPa)
#
#
# Indices 1 2 3 4 5 6 
#
# 1 0.013081 -0.006751 0.000543 0.000000 0.000000 0.000000
# 2 -0.006751 0.012709 -0.004280 0.000000 0.000000 0.000000
# 3 0.000543 -0.004280 0.012396 0.000000 0.000000 0.000000
# 4 0.000000 0.000000 0.000000 0.078371 0.000000 0.000000
# 5 0.000000 0.000000 0.000000 0.000000 0.047619 0.000000
# 6 0.000000 0.000000 0.000000 0.000000 0.000000 0.031251
#
#
# Mechanical properties :
#
#
# Convention : Reuss Voigt Hill
#
# Bulk Modulus (GPa) = 58.11136 63.45545 60.78341
# Shear Modulus (GPa) = 22.50825 26.96852 24.73839
#
# Velocity S-wave (km/s) = 3.26123 3.56976 3.41898
# Velocity P-wave (km/s) = 6.45288 6.85383 6.65638
#
# Compressibility (1/GPa) = 0.01720834
#
# Stress axis : x y z
#
# Youngs Moduli (GPa) = 76.44856 78.68617 80.66841
#
# Poissons Ratio (x) = 0.53125 -0.04380
# Poissons Ratio (y) = 0.51614 0.34528
# Poissons Ratio (z) = -0.04151 0.33680
#
# Static dielectric constant tensor:
#      x y z
#    x 3.763850 0.000000 0.000000 
#    y 0.000000 3.955230 0.000000 
#    z 0.000000 0.000000 3.577300 
# 
# 
# High freq. dielectric constant tensor:
#      x y z
#    x 1.818660 0.000000 0.000000 
#    y 0.000000 1.840590 0.000000 
#    z 0.000000 0.000000 1.809300 
# 
# From -- ./inp_files/19761.got.cif
#   From: 2010.03.12/outbox.cif.g09.slc.cpg/sg64_10_cif.got.tgz:19761.got - 2010.04.10 20:19:32.
