data_PCOD8263770
_publ_section_title
;
Structure prediction by ZEFSAII (Michael W. Deem and Ramdas Pophale) SiO2 
 PCOD8263770
Probable space group: C M C A
;
_chemical_formula_sum "Si O2"
_cell_formula_units_Z 96
_cell_length_a 13.276099
_cell_length_b 15.232427
_cell_length_c 23.033999
_cell_angle_alpha 90.000000
_cell_angle_beta 90.000000
_cell_angle_gamma 90.000000
_cell_volume 4658.101327
_symmetry_space_group_name_H-M "C M C A"
_symmetry_group_IT_number 64
_symmetry_cell_setting 'orthorhombic'
loop_
_space_group_symop_operation_xyz
x,y,z
-x,1/2-y,1/2+z
x,-y,-z
-x,1/2+y,1/2-z
-x,-y,-z
x,1/2+y,1/2-z
-x,y,z
x,1/2-y,1/2+z
1/2+x,1/2+y,z
1/2-x,-y,1/2+z
1/2+x,1/2-y,-z
1/2-x,y,1/2-z
1/2-x,1/2-y,-z
1/2+x,y,1/2-z
1/2-x,1/2+y,z
1/2+x,-y,1/2+z
loop_
_atom_site_type_symbol
_atom_site_label
_atom_site_fract_x
_atom_site_fract_y
_atom_site_fract_z
Si Si1 0.881165 0.887149 0.283489
Si Si2 0.258539 0.859087 0.620461
Si Si3 0.113999 0.279850 0.787644
Si Si4 0.612104 0.401022 0.517727
Si Si5 0.119223 0.192492 0.598126
Si Si6 0.615100 0.448347 0.790289
O O1 0.846654 0.810861 0.239606
O O2 0.838104 0.867000 0.348100
O O3 0.000000 0.889892 0.288804
O O4 0.843585 0.979349 0.255802
O O5 0.182569 0.802939 0.658828
O O6 0.193797 0.897194 0.568172
O O7 0.343710 0.792473 0.599003
O O8 0.312161 0.941247 0.653501
O O9 0.122016 0.352988 0.738165
O O10 0.000000 0.271319 0.810210
O O11 0.599020 0.500000 0.500000
O O12 0.500000 0.366376 0.536653
O O13 0.654964 0.348057 0.462608
O O14 0.000000 0.195495 0.602605
O O15 0.500000 0.470585 0.808826
#
# Coordination Sequence:
#
# PCOD8263770 Si02
#       6
#    16  16  16  16  16  16
#     4   9  19  37  60  86 121 161 196 242 306 371
#     4  12  22  37  61  92 121 157 206 256 302 365
#     4  10  21  38  56  86 125 159 195 244 304 368
#     4  10  24  43  61  86 118 161 211 259 309 366
#     4  10  21  40  63  84 118 162 203 252 309 364
#     4  10  21  37  59  90 126 160 198 244 306 368
#
# _framework density 20.609256999999999
#
# number of rings (size 3 to 8) (size 9 to 14) (size 15 to 20)
#    0.000    1.833    1.667    2.000    2.333    1.333 
#    3.000    0.000    0.000    2.000    0.000    0.000 
#    0.000    0.000    0.000    0.000    0.000    0.000 
#
# Total GULP energy -595088.604323 kJ/mol
# GULP energy per Si atom -12397.679257 kJ/mol
# Density = 2.056235 g / cm^3
# Si number density = 20.609257 Si / 1000 Ang^3
#
#
#
# Elastic Constant Matrix: (Units=GPa)
#
#
# Indices 1 2 3 4 5 6 
#
# 1 57.0842 4.7473 39.8544 0.0000 0.0000 0.0000
# 2 4.7473 70.5987 13.5806 0.0000 0.0000 0.0000
# 3 39.8544 13.5806 98.7283 0.0000 0.0000 0.0000
# 4 0.0000 0.0000 0.0000 -3.1129 0.0000 0.0000
# 5 0.0000 0.0000 0.0000 0.0000 69.6539 0.0000
# 6 0.0000 0.0000 0.0000 0.0000 0.0000 -25.2888
#
#
#
# Elastic Compliance Matrix: (Units=1/GPa)
#
#
# Indices 1 2 3 4 5 6 
#
# 1 0.024397 0.000261 -0.009885 0.000000 0.000000 0.000000
# 2 0.000261 0.014552 -0.002107 0.000000 0.000000 0.000000
# 3 -0.009885 -0.002107 0.014409 0.000000 0.000000 0.000000
# 4 0.000000 0.000000 0.000000 -0.321240 0.000000 0.000000
# 5 0.000000 0.000000 0.000000 0.000000 0.014357 0.000000
# 6 0.000000 0.000000 0.000000 0.000000 0.000000 -0.039543
#
#
# Mechanical properties :
#
#
# Convention : Reuss Voigt Hill
#
# Bulk Modulus (GPa) = 33.44815 38.08620 35.76718
# Shear Modulus (GPa) = -19.25739 19.46571 0.10416
#
# Velocity S-wave (km/s) = -3.06012 3.07663 0.22505
# Velocity P-wave (km/s) = 1.94400 5.58042 4.17853
#
# Compressibility (1/GPa) = 0.02989702
#
# Stress axis : x y z
#
# Youngs Moduli (GPa) = 40.98808 68.71745 69.40203
#
# Poissons Ratio (x) = -0.01792 0.68601
# Poissons Ratio (y) = -0.01069 0.14623
# Poissons Ratio (z) = 0.40515 0.14479
#
# Static dielectric constant tensor:
#      x y z
#    x 4.040680 0.000000 0.000000 
#    y 0.000000 3.798980 0.000000 
#    z 0.000000 0.000000 4.002000 
# 
# 
# High freq. dielectric constant tensor:
#      x y z
#    x 1.819050 0.000000 0.000000 
#    y 0.000000 1.802280 0.000000 
#    z 0.000000 0.000000 1.792550 
# 
# From -- ./inp_files/39169.got.cif
#   From: 2010.03.12/outbox.cif.g09.slc.cpg/sg64_20_cif.got.tgz:39169.got - 2010.04.10 20:19:32.
