data_PCOD8263795
_publ_section_title
;
Structure prediction by ZEFSAII (Michael W. Deem and Ramdas Pophale) SiO2 
 PCOD8263795
Probable space group: C M C A
;
_chemical_formula_sum "Si O2"
_cell_formula_units_Z 96
_cell_length_a 19.231786
_cell_length_b 26.665615
_cell_length_c 8.750182
_cell_angle_alpha 90.000000
_cell_angle_beta 90.000000
_cell_angle_gamma 90.000000
_cell_volume 4487.333095
_symmetry_space_group_name_H-M "C M C A"
_symmetry_group_IT_number 64
_symmetry_cell_setting 'orthorhombic'
loop_
_space_group_symop_operation_xyz
x,y,z
-x,1/2-y,1/2+z
x,-y,-z
-x,1/2+y,1/2-z
-x,-y,-z
x,1/2+y,1/2-z
-x,y,z
x,1/2-y,1/2+z
1/2+x,1/2+y,z
1/2-x,-y,1/2+z
1/2+x,1/2-y,-z
1/2-x,y,1/2-z
1/2-x,1/2-y,-z
1/2+x,y,1/2-z
1/2-x,1/2+y,z
1/2+x,-y,1/2+z
loop_
_atom_site_type_symbol
_atom_site_label
_atom_site_fract_x
_atom_site_fract_y
_atom_site_fract_z
Si Si1 0.573245 0.320591 0.188777
Si Si2 0.825628 0.409161 0.325265
Si Si3 0.918817 0.008156 0.679444
Si Si4 0.672531 0.182737 0.243814
Si Si5 0.174326 0.576168 0.325223
Si Si6 0.884992 0.738211 0.966103
O O1 0.500000 0.350636 0.168555
O O2 0.641770 0.353469 0.163961
O O3 0.569196 0.296382 0.356912
O O4 0.569355 0.275248 0.067675
O O5 0.750000 0.405712 0.250000
O O6 0.878991 0.440837 0.223002
O O7 0.816707 0.431721 0.493512
O O8 0.000000 0.011450 0.727446
O O9 0.911310 0.000000 0.500000
O O10 0.881879 0.963333 0.767966
O O11 0.750000 0.163588 0.250000
O O12 0.636214 0.130008 0.289570
O O13 0.665364 0.228350 0.361226
O O14 0.656508 0.199725 0.072654
O O15 0.250000 0.566315 0.250000
#
# Coordination Sequence:
#
# PCOD8263795 Si02
#       6
#    16  16  16  16  16  16
#     4  11  24  42  65  95 133 178 224 272 327 390
#     4  12  26  44  71 101 134 175 219 276 332 396
#     4  11  26  48  73 102 132 171 217 270 331 399
#     4  10  21  37  63  96 134 174 220 270 322 385
#     4  11  24  44  68 100 136 175 219 273 332 395
#     4  10  22  40  62  93 131 178 224 272 322 383
#
# _framework density 21.393552
#
# number of rings (size 3 to 8) (size 9 to 14) (size 15 to 20)
#    0.000    1.167    1.667    3.500    7.000    4.667 
#    0.000    0.833    0.000    0.000    0.000    0.000 
#    0.000    0.000    0.000    0.000    0.000    0.000 
#
# Total GULP energy -594958.730258 kJ/mol
# GULP energy per Si atom -12394.973547 kJ/mol
# Density = 2.134486 g / cm^3
# Si number density = 21.393552 Si / 1000 Ang^3
#
#
#
# Elastic Constant Matrix: (Units=GPa)
#
#
# Indices 1 2 3 4 5 6 
#
# 1 152.1950 41.7843 52.2525 0.0000 0.0000 0.0000
# 2 41.7843 75.5412 19.7472 0.0000 0.0000 0.0000
# 3 52.2525 19.7472 140.2499 0.0000 0.0000 0.0000
# 4 0.0000 0.0000 0.0000 461.0322 0.0000 0.0000
# 5 0.0000 0.0000 0.0000 0.0000 14.5074 0.0000
# 6 0.0000 0.0000 0.0000 0.0000 0.0000 28.0717
#
#
#
# Elastic Compliance Matrix: (Units=1/GPa)
#
#
# Indices 1 2 3 4 5 6 
#
# 1 0.008588 -0.004064 -0.002628 0.000000 0.000000 0.000000
# 2 -0.004064 0.015666 -0.000692 0.000000 0.000000 0.000000
# 3 -0.002628 -0.000692 0.008206 0.000000 0.000000 0.000000
# 4 0.000000 0.000000 0.000000 0.002169 0.000000 0.000000
# 5 0.000000 0.000000 0.000000 0.000000 0.068930 0.000000
# 6 0.000000 0.000000 0.000000 0.000000 0.000000 0.035623
#
#
# Mechanical properties :
#
#
# Convention : Reuss Voigt Hill
#
# Bulk Modulus (GPa) = 56.51279 66.17269 61.34274
# Shear Modulus (GPa) = 31.27973 117.66905 74.47439
#
# Velocity S-wave (km/s) = 3.82790 7.42439 5.90654
# Velocity P-wave (km/s) = 6.78309 10.22221 8.67479
#
# Compressibility (1/GPa) = 0.01769511
#
# Stress axis : x y z
#
# Youngs Moduli (GPa) = 116.43806 63.83102 121.85486
#
# Poissons Ratio (x) = 0.25938 0.32018
# Poissons Ratio (y) = 0.47315 0.08431
# Poissons Ratio (z) = 0.30595 0.04416
#
# Static dielectric constant tensor:
#      x y z
#    x 3.650100 0.000000 0.000000 
#    y 0.000000 3.910370 0.000000 
#    z 0.000000 0.000000 4.399400 
# 
# 
# High freq. dielectric constant tensor:
#      x y z
#    x 1.833510 0.000000 0.000000 
#    y 0.000000 1.847450 0.000000 
#    z 0.000000 0.000000 1.856770 
# 
# From -- ./inp_files/8426.got.cif
#   From: 2010.03.12/outbox.cif.g09.slc.cpg/sg64_5_cif.got.tgz:8426.got - 2010.04.10 20:19:32.
