data_PCOD8263912
_publ_section_title
;
Structure prediction by ZEFSAII (Michael W. Deem and Ramdas Pophale) SiO2 
 PCOD8263912
Probable space group: C M C A
;
_chemical_formula_sum "Si O2"
_cell_formula_units_Z 88
_cell_length_a 20.310212
_cell_length_b 11.067081
_cell_length_c 16.232024
_cell_angle_alpha 90.000000
_cell_angle_beta 90.000000
_cell_angle_gamma 90.000000
_cell_volume 3648.549321
_symmetry_space_group_name_H-M "C M C A"
_symmetry_group_IT_number 64
_symmetry_cell_setting 'orthorhombic'
loop_
_space_group_symop_operation_xyz
x,y,z
-x,1/2-y,1/2+z
x,-y,-z
-x,1/2+y,1/2-z
-x,-y,-z
x,1/2+y,1/2-z
-x,y,z
x,1/2-y,1/2+z
1/2+x,1/2+y,z
1/2-x,-y,1/2+z
1/2+x,1/2-y,-z
1/2-x,y,1/2-z
1/2-x,1/2-y,-z
1/2+x,y,1/2-z
1/2-x,1/2+y,z
1/2+x,-y,1/2+z
loop_
_atom_site_type_symbol
_atom_site_label
_atom_site_fract_x
_atom_site_fract_y
_atom_site_fract_z
Si Si1 0.642181 0.315703 0.194224
Si Si2 0.424245 0.305943 0.929116
Si Si3 0.750000 0.858317 0.750000
Si Si4 0.574137 0.927581 0.168791
Si Si5 0.194784 0.513291 0.407599
Si Si6 0.074427 0.845532 0.578730
O O1 0.686525 0.225562 0.246536
O O2 0.617845 0.430699 0.248616
O O3 0.681946 0.375384 0.119124
O O4 0.581131 0.237856 0.159662
O O5 0.500000 0.351904 0.946068
O O6 0.425099 0.213708 0.853199
O O7 0.375627 0.417454 0.913420
O O8 0.392477 0.224751 0.002844
O O9 0.756469 0.932111 0.836917
O O10 0.500000 0.972522 0.188113
O O11 0.603679 0.020242 0.099931
O O12 0.226493 0.500000 0.500000
O O13 0.000000 0.863529 0.550636
#
# Coordination Sequence:
#
# PCOD8263912 Si02
#       6
#    16  16   8  16  16  16
#     4  12  24  43  68  97 139 185 238 297 351 417
#     4  10  21  42  71 105 143 181 226 286 357 435
#     4  12  28  50  72 100 138 188 252 300 352 424
#     4  10  21  38  66 102 142 184 229 278 347 422
#     4  12  26  49  74 105 141 185 241 300 363 427
#     4  10  21  39  66 103 142 180 224 283 353 430
#
# _framework density 24.119174000000001
#
# number of rings (size 3 to 8) (size 9 to 14) (size 15 to 20)
#    0.000    1.091    3.636    2.727    0.000    4.727 
#    0.000    0.000    0.000    0.000    0.000    0.000 
#    0.000    0.727    0.000    0.000    0.000    0.000 
#
# Total GULP energy -545135.986463 kJ/mol
# GULP energy per Si atom -12389.454238 kJ/mol
# Density = 2.406428 g / cm^3
# Si number density = 24.119174 Si / 1000 Ang^3
#
#
#
# Elastic Constant Matrix: (Units=GPa)
#
#
# Indices 1 2 3 4 5 6 
#
# 1 47.6995 8.8067 27.0263 0.0000 0.0000 0.0000
# 2 8.8067 75.5645 18.5472 0.0000 0.0000 0.0000
# 3 27.0263 18.5472 130.1180 0.0000 0.0000 0.0000
# 4 0.0000 0.0000 0.0000 46.7484 0.0000 0.0000
# 5 0.0000 0.0000 0.0000 0.0000 33.2737 0.0000
# 6 0.0000 0.0000 0.0000 0.0000 0.0000 22.9763
#
#
#
# Elastic Compliance Matrix: (Units=1/GPa)
#
#
# Indices 1 2 3 4 5 6 
#
# 1 0.023952 -0.001627 -0.004743 0.000000 0.000000 0.000000
# 2 -0.001627 0.013824 -0.001632 0.000000 0.000000 0.000000
# 3 -0.004743 -0.001632 0.008903 0.000000 0.000000 0.000000
# 4 0.000000 0.000000 0.000000 0.021391 0.000000 0.000000
# 5 0.000000 0.000000 0.000000 0.000000 0.030054 0.000000
# 6 0.000000 0.000000 0.000000 0.000000 0.000000 0.043523
#
#
# Mechanical properties :
#
#
# Convention : Reuss Voigt Hill
#
# Bulk Modulus (GPa) = 32.60109 40.23805 36.41957
# Shear Modulus (GPa) = 29.78349 33.86647 31.82498
#
# Velocity S-wave (km/s) = 3.51785 3.75124 3.63642
# Velocity P-wave (km/s) = 5.48146 5.95664 5.72398
#
# Compressibility (1/GPa) = 0.03067382
#
# Stress axis : x y z
#
# Youngs Moduli (GPa) = 41.74933 72.33752 112.31909
#
# Poissons Ratio (x) = 0.11772 0.53274
# Poissons Ratio (y) = 0.06794 0.18336
# Poissons Ratio (z) = 0.19802 0.11809
#
# Static dielectric constant tensor:
#      x y z
#    x 3.987950 0.000000 0.000000 
#    y 0.000000 4.304190 0.000000 
#    z 0.000000 0.000000 4.645440 
# 
# 
# High freq. dielectric constant tensor:
#      x y z
#    x 1.922670 0.000000 0.000000 
#    y 0.000000 1.963530 0.000000 
#    z 0.000000 0.000000 1.969410 
# 
# From -- ./inp_files/34114.got.cif
#   From: 2010.03.12/outbox.cif.g09.slc.cpg/sg64_18_cif.got.tgz:34114.got - 2010.04.10 20:19:32.
