data_PCOD8263199
_publ_section_title
;
Structure prediction by ZEFSAII (Michael W. Deem and Ramdas Pophale) SiO2 
 PCOD8263199
Probable space group: C M C A
;
_chemical_formula_sum "Si O2"
_cell_formula_units_Z 96
_cell_length_a 8.749713
_cell_length_b 30.515003
_cell_length_c 18.620273
_cell_angle_alpha 90.000000
_cell_angle_beta 90.000000
_cell_angle_gamma 90.000000
_cell_volume 4971.566684
_symmetry_space_group_name_H-M "C M C A"
_symmetry_group_IT_number 64
_symmetry_cell_setting 'orthorhombic'
loop_
_space_group_symop_operation_xyz
x,y,z
-x,1/2-y,1/2+z
x,-y,-z
-x,1/2+y,1/2-z
-x,-y,-z
x,1/2+y,1/2-z
-x,y,z
x,1/2-y,1/2+z
1/2+x,1/2+y,z
1/2-x,-y,1/2+z
1/2+x,1/2-y,-z
1/2-x,y,1/2-z
1/2-x,1/2-y,-z
1/2+x,y,1/2-z
1/2-x,1/2+y,z
1/2+x,-y,1/2+z
loop_
_atom_site_type_symbol
_atom_site_label
_atom_site_fract_x
_atom_site_fract_y
_atom_site_fract_z
Si Si1 0.821355 0.293455 0.589237
Si Si2 0.820352 0.297520 0.424895
Si Si3 0.179720 0.871580 0.673186
Si Si4 0.818967 0.960003 0.083847
Si Si5 0.820146 0.877196 0.172957
Si Si6 0.319342 0.550494 0.431266
O O1 0.776640 0.305921 0.507776
O O2 0.768754 0.244190 0.606315
O O3 0.735677 0.325274 0.643541
O O4 0.000000 0.297824 0.603336
O O5 0.762626 0.339461 0.380833
O O6 0.000000 0.288809 0.416833
O O7 0.250000 0.881835 0.750000
O O8 0.231976 0.910207 0.620034
O O9 0.000000 0.870092 0.681354
O O10 0.768466 0.924173 0.142392
O O11 0.000000 0.967518 0.082837
O O12 0.733764 0.004883 0.104743
O O13 0.767392 0.942827 0.006126
O O14 0.750000 0.868881 0.250000
O O15 0.000000 0.874949 0.179782
O O16 0.500000 0.549415 0.444724
#
# Coordination Sequence:
#
# PCOD8263199 Si02
#       6
#    16  16  16  16  16  16
#     4  10  20  36  60  85 109 141 183 230 277 325
#     4   9  19  37  58  81 111 145 184 227 271 324
#     4  11  24  39  56  80 112 148 184 225 275 331
#     4  10  20  36  59  84 110 143 182 224 272 323
#     4  10  22  37  54  79 111 147 183 221 267 321
#     4  10  21  37  58  84 110 140 182 228 271 319
#
# _framework density 19.309809000000001
#
# number of rings (size 3 to 8) (size 9 to 14) (size 15 to 20)
#    0.000    2.000    0.000    4.000    0.000    8.000 
#    0.000    5.000    0.000    0.000    0.000    0.000 
#    0.000    0.000    0.000    0.000    0.000    0.000 
#
# Total GULP energy -595400.778810 kJ/mol
# GULP energy per Si atom -12404.182892 kJ/mol
# Density = 1.926586 g / cm^3
# Si number density = 19.309809 Si / 1000 Ang^3
#
#
#
# Elastic Constant Matrix: (Units=GPa)
#
#
# Indices 1 2 3 4 5 6 
#
# 1 39.8530 20.0150 14.2989 0.0000 0.0000 0.0000
# 2 20.0150 83.8587 26.7494 0.0000 0.0000 0.0000
# 3 14.2989 26.7494 56.0372 0.0000 0.0000 0.0000
# 4 0.0000 0.0000 0.0000 4.2283 0.0000 0.0000
# 5 0.0000 0.0000 0.0000 0.0000 33.4111 0.0000
# 6 0.0000 0.0000 0.0000 0.0000 0.0000 30.7312
#
#
#
# Elastic Compliance Matrix: (Units=1/GPa)
#
#
# Indices 1 2 3 4 5 6 
#
# 1 0.029623 -0.005496 -0.004935 0.000000 0.000000 0.000000
# 2 -0.005496 0.015086 -0.005799 0.000000 0.000000 0.000000
# 3 -0.004935 -0.005799 0.021873 0.000000 0.000000 0.000000
# 4 0.000000 0.000000 0.000000 0.236504 0.000000 0.000000
# 5 0.000000 0.000000 0.000000 0.000000 0.029930 0.000000
# 6 0.000000 0.000000 0.000000 0.000000 0.000000 0.032540
#
#
# Mechanical properties :
#
#
# Convention : Reuss Voigt Hill
#
# Bulk Modulus (GPa) = 29.30704 33.54170 31.42437
# Shear Modulus (GPa) = 12.21324 21.58647 16.89986
#
# Velocity S-wave (km/s) = 2.51766 3.34713 2.96158
# Velocity P-wave (km/s) = 4.86433 5.68733 5.29185
#
# Compressibility (1/GPa) = 0.03412149
#
# Stress axis : x y z
#
# Youngs Moduli (GPa) = 33.75731 66.28491 45.71881
#
# Poissons Ratio (x) = 0.36430 0.22564
# Poissons Ratio (y) = 0.18553 0.26513
# Poissons Ratio (z) = 0.16660 0.38439
#
# Static dielectric constant tensor:
#      x y z
#    x 3.502840 0.000000 0.000000 
#    y 0.000000 3.736390 0.000000 
#    z 0.000000 0.000000 3.425270 
# 
# 
# High freq. dielectric constant tensor:
#      x y z
#    x 1.756310 0.000000 0.000000 
#    y 0.000000 1.765200 0.000000 
#    z 0.000000 0.000000 1.745640 
# 
# From -- ./inp_files/37121.got.cif
#   From: 2010.03.12/outbox.cif.g09.slc.cpg/sg64_19_cif.got.tgz:37121.got - 2010.04.10 20:19:32.
