data_PCOD8263990
_publ_section_title
;
Structure prediction by ZEFSAII (Michael W. Deem and Ramdas Pophale) SiO2 
 PCOD8263990
Probable space group: C M C A
;
_chemical_formula_sum "Si O2"
_cell_formula_units_Z 80
_cell_length_a 8.846318
_cell_length_b 19.680710
_cell_length_c 22.512246
_cell_angle_alpha 90.000000
_cell_angle_beta 90.000000
_cell_angle_gamma 90.000000
_cell_volume 3919.422981
_symmetry_space_group_name_H-M "C M C A"
_symmetry_group_IT_number 64
_symmetry_cell_setting 'orthorhombic'
loop_
_space_group_symop_operation_xyz
x,y,z
-x,1/2-y,1/2+z
x,-y,-z
-x,1/2+y,1/2-z
-x,-y,-z
x,1/2+y,1/2-z
-x,y,z
x,1/2-y,1/2+z
1/2+x,1/2+y,z
1/2-x,-y,1/2+z
1/2+x,1/2-y,-z
1/2-x,y,1/2-z
1/2-x,1/2-y,-z
1/2+x,y,1/2-z
1/2-x,1/2+y,z
1/2+x,-y,1/2+z
loop_
_atom_site_type_symbol
_atom_site_label
_atom_site_fract_x
_atom_site_fract_y
_atom_site_fract_z
Si Si1 0.826061 0.821347 0.513030
Si Si2 0.821793 0.007050 0.813092
Si Si3 0.172946 0.624539 0.137443
Si Si4 0.825331 0.622474 0.888084
Si Si5 0.172757 0.730246 0.688994
O O1 0.750000 0.750000 0.500000
O O2 0.761238 0.857168 0.572262
O O3 0.804748 0.874357 0.459177
O O4 0.000000 0.803951 0.525029
O O5 0.750000 0.026734 0.750000
O O6 0.776666 0.931859 0.832780
O O7 0.000000 0.011359 0.806340
O O8 0.767223 0.059120 0.863235
O O9 0.183615 0.689531 0.179875
O O10 0.000000 0.598140 0.133354
O O11 0.761174 0.693206 0.863606
O O12 0.000000 0.614608 0.870310
O O13 0.250000 0.708465 0.750000
O O14 0.000000 0.705084 0.689739
#
# Coordination Sequence:
#
# PCOD8263990 Si02
#       5
#    16  16  16  16  16
#     4  10  21  39  65  95 128 164 204 256 308 365
#     4  12  26  44  65  90 125 166 210 261 314 372
#     4  10  22  41  64  92 126 164 206 254 311 369
#     4  11  23  40  64  92 125 165 207 253 310 369
#     4  11  22  37  60  89 123 160 207 259 308 367
#
# _framework density 20.411169000000001
#
# number of rings (size 3 to 8) (size 9 to 14) (size 15 to 20)
#    0.000    1.200    2.000    4.200    0.000    5.600 
#    0.000    4.000    0.000    0.000    0.000    0.000 
#    0.000    0.000    0.000    0.000    0.000    0.000 
#
# Total GULP energy -496219.676695 kJ/mol
# GULP energy per Si atom -12405.491917 kJ/mol
# Density = 2.036471 g / cm^3
# Si number density = 20.411169 Si / 1000 Ang^3
#
#
#
# Elastic Constant Matrix: (Units=GPa)
#
#
# Indices 1 2 3 4 5 6 
#
# 1 118.5762 27.7256 28.3758 0.0000 0.0000 0.0000
# 2 27.7256 68.8806 1.2382 0.0000 0.0000 0.0000
# 3 28.3758 1.2382 86.9331 0.0000 0.0000 0.0000
# 4 0.0000 0.0000 0.0000 37.1892 0.0000 0.0000
# 5 0.0000 0.0000 0.0000 0.0000 27.6789 0.0000
# 6 0.0000 0.0000 0.0000 0.0000 0.0000 39.4335
#
#
#
# Elastic Compliance Matrix: (Units=1/GPa)
#
#
# Indices 1 2 3 4 5 6 
#
# 1 0.010155 -0.004029 -0.003257 0.000000 0.000000 0.000000
# 2 -0.004029 0.016120 0.001085 0.000000 0.000000 0.000000
# 3 -0.003257 0.001085 0.012551 0.000000 0.000000 0.000000
# 4 0.000000 0.000000 0.000000 0.026890 0.000000 0.000000
# 5 0.000000 0.000000 0.000000 0.000000 0.036129 0.000000
# 6 0.000000 0.000000 0.000000 0.000000 0.000000 0.025359
#
#
# Mechanical properties :
#
#
# Convention : Reuss Voigt Hill
#
# Bulk Modulus (GPa) = 37.84389 43.22990 40.53689
# Shear Modulus (GPa) = 33.68980 35.33033 34.51007
#
# Velocity S-wave (km/s) = 4.06711 4.16496 4.11633
# Velocity P-wave (km/s) = 6.37466 6.65993 6.51885
#
# Compressibility (1/GPa) = 0.02642435
#
# Stress axis : x y z
#
# Youngs Moduli (GPa) = 98.47422 62.03432 79.67594
#
# Poissons Ratio (x) = 0.24994 0.25953
# Poissons Ratio (y) = 0.39675 -0.08649
# Poissons Ratio (z) = 0.32076 -0.06734
#
# Static dielectric constant tensor:
#      x y z
#    x 3.779700 0.000000 0.000000 
#    y 0.000000 3.561190 0.000000 
#    z 0.000000 0.000000 -2.704640 
# 
# 
# High freq. dielectric constant tensor:
#      x y z
#    x 1.800040 0.000000 0.000000 
#    y 0.000000 1.796370 0.000000 
#    z 0.000000 0.000000 1.813540 
# 
# From -- ./inp_files/47883.got.cif
#   From: 2010.03.12/outbox.cif.g09.slc.cpg/sg64_24_cif.got.tgz:47883.got - 2010.04.10 20:19:32.
