data_PCOD8263377
_publ_section_title
;
Structure prediction by ZEFSAII (Michael W. Deem and Ramdas Pophale) SiO2 
 PCOD8263377
Probable space group: C M C A
;
_chemical_formula_sum "Si O2"
_cell_formula_units_Z 96
_cell_length_a 22.587834
_cell_length_b 8.792611
_cell_length_c 22.264161
_cell_angle_alpha 90.000000
_cell_angle_beta 90.000000
_cell_angle_gamma 90.000000
_cell_volume 4421.796799
_symmetry_space_group_name_H-M "C M C A"
_symmetry_group_IT_number 64
_symmetry_cell_setting 'orthorhombic'
loop_
_space_group_symop_operation_xyz
x,y,z
-x,1/2-y,1/2+z
x,-y,-z
-x,1/2+y,1/2-z
-x,-y,-z
x,1/2+y,1/2-z
-x,y,z
x,1/2-y,1/2+z
1/2+x,1/2+y,z
1/2-x,-y,1/2+z
1/2+x,1/2-y,-z
1/2-x,y,1/2-z
1/2-x,1/2-y,-z
1/2+x,y,1/2-z
1/2-x,1/2+y,z
1/2+x,-y,1/2+z
loop_
_atom_site_type_symbol
_atom_site_label
_atom_site_fract_x
_atom_site_fract_y
_atom_site_fract_z
Si Si1 0.000000 0.194924 0.335744
Si Si2 0.794724 0.356606 0.536988
Si Si3 0.373861 0.817892 0.858971
Si Si4 0.377489 0.625008 0.218732
Si Si5 0.839672 0.144943 0.629084
Si Si6 0.000000 0.979640 0.237070
Si Si7 0.213090 0.561169 0.643725
O O1 0.941753 0.226595 0.375153
O O2 0.000000 0.023220 0.308047
O O3 0.000000 0.298759 0.274649
O O4 0.822043 0.500000 0.500000
O O5 0.750000 0.250000 0.500000
O O6 0.842846 0.244212 0.567297
O O7 0.764511 0.439693 0.594010
O O8 0.365660 0.832211 0.787344
O O9 0.330273 0.689689 0.885151
O O10 0.362024 0.979302 0.889741
O O11 0.381116 0.779862 0.179805
O O12 0.439541 0.541026 0.206753
O O13 0.322012 0.520913 0.197519
O O14 0.774637 0.140806 0.661498
#
# Coordination Sequence:
#
# PCOD8263377 Si02
#       7
#     8  16  16  16  16   8  16
#     4  10  22  36  62  82 123 174 222 250 282 342
#     4  11  23  41  64  84 117 152 202 263 309 367
#     4  11  22  38  59  91 132 168 207 246 293 357
#     4  10  22  36  58  86 133 172 203 242 287 348
#     4  11  24  36  58  95 123 159 207 243 311 381
#     4  10  20  38  56  84 117 174 228 245 275 341
#     4  11  22  38  58  93 127 157 206 243 309 380
#
# _framework density 21.710629999999998
#
# number of rings (size 3 to 8) (size 9 to 14) (size 15 to 20)
#    0.000    1.333    3.333    3.000    7.000    4.000 
#    0.000    0.000    0.000    0.000    0.000   22.167 
#    0.000    0.000    0.000    0.000    0.000    0.000 
#
# Total GULP energy -594692.858136 kJ/mol
# GULP energy per Si atom -12389.434544 kJ/mol
# Density = 2.166122 g / cm^3
# Si number density = 21.710630 Si / 1000 Ang^3
#
#
#
# Elastic Constant Matrix: (Units=GPa)
#
#
# Indices 1 2 3 4 5 6 
#
# 1 102.0750 18.0757 11.8866 0.0000 0.0000 0.0000
# 2 18.0757 120.0136 25.1998 0.0000 0.0000 0.0000
# 3 11.8866 25.1998 70.7359 0.0000 0.0000 0.0000
# 4 0.0000 0.0000 0.0000 46.6981 0.0000 0.0000
# 5 0.0000 0.0000 0.0000 0.0000 7.5461 0.0000
# 6 0.0000 0.0000 0.0000 0.0000 0.0000 32.2012
#
#
#
# Elastic Compliance Matrix: (Units=1/GPa)
#
#
# Indices 1 2 3 4 5 6 
#
# 1 0.010168 -0.001267 -0.001257 0.000000 0.000000 0.000000
# 2 -0.001267 0.009164 -0.003052 0.000000 0.000000 0.000000
# 3 -0.001257 -0.003052 0.015436 0.000000 0.000000 0.000000
# 4 0.000000 0.000000 0.000000 0.021414 0.000000 0.000000
# 5 0.000000 0.000000 0.000000 0.000000 0.132518 0.000000
# 6 0.000000 0.000000 0.000000 0.000000 0.000000 0.031055
#
#
# Mechanical properties :
#
#
# Convention : Reuss Voigt Hill
#
# Bulk Modulus (GPa) = 42.34648 44.79428 43.57038
# Shear Modulus (GPa) = 20.93995 33.13325 27.03660
#
# Velocity S-wave (km/s) = 3.10901 3.91081 3.53273
# Velocity P-wave (km/s) = 5.69519 6.40857 6.06239
#
# Compressibility (1/GPa) = 0.02361471
#
# Stress axis : x y z
#
# Youngs Moduli (GPa) = 98.35217 109.12192 64.78565
#
# Poissons Ratio (x) = 0.13830 0.08144
# Poissons Ratio (y) = 0.12465 0.19771
# Poissons Ratio (z) = 0.12363 0.33301
#
# Static dielectric constant tensor:
#      x y z
#    x 4.006360 0.000000 0.000000 
#    y 0.000000 4.460930 0.000000 
#    z 0.000000 0.000000 3.653500 
# 
# 
# High freq. dielectric constant tensor:
#      x y z
#    x 1.837000 0.000000 0.000000 
#    y 0.000000 1.888330 0.000000 
#    z 0.000000 0.000000 1.803410 
# 
# From -- ./inp_files/46636.got.cif
#   From: 2010.03.12/outbox.cif.g09.slc.cpg/sg64_24_cif.got.tgz:46636.got - 2010.04.10 20:19:32.
