data_PCOD8263782
_publ_section_title
;
Structure prediction by ZEFSAII (Michael W. Deem and Ramdas Pophale) SiO2 
 PCOD8263782
Probable space group: C M C A
;
_chemical_formula_sum "Si O2"
_cell_formula_units_Z 88
_cell_length_a 17.803567
_cell_length_b 12.369842
_cell_length_c 17.498863
_cell_angle_alpha 90.000000
_cell_angle_beta 90.000000
_cell_angle_gamma 90.000000
_cell_volume 3853.727541
_symmetry_space_group_name_H-M "C M C A"
_symmetry_group_IT_number 64
_symmetry_cell_setting 'orthorhombic'
loop_
_space_group_symop_operation_xyz
x,y,z
-x,1/2-y,1/2+z
x,-y,-z
-x,1/2+y,1/2-z
-x,-y,-z
x,1/2+y,1/2-z
-x,y,z
x,1/2-y,1/2+z
1/2+x,1/2+y,z
1/2-x,-y,1/2+z
1/2+x,1/2-y,-z
1/2-x,y,1/2-z
1/2-x,1/2-y,-z
1/2+x,y,1/2-z
1/2-x,1/2+y,z
1/2+x,-y,1/2+z
loop_
_atom_site_type_symbol
_atom_site_label
_atom_site_fract_x
_atom_site_fract_y
_atom_site_fract_z
Si Si1 0.000000 0.850232 0.353201
Si Si2 0.159761 0.637744 0.097753
Si Si3 0.162250 0.627022 0.634745
Si Si4 0.236344 0.500000 0.500000
Si Si5 0.500000 0.892666 0.408872
Si Si6 0.500000 0.096922 0.330542
Si Si7 0.000000 0.320988 0.974961
Si Si8 0.122396 0.987754 0.270741
O O1 0.000000 0.878258 0.443236
O O2 0.000000 0.721745 0.348182
O O3 0.074211 0.898769 0.316015
O O4 0.194912 0.753374 0.122209
O O5 0.169394 0.556527 0.168438
O O6 0.073034 0.641280 0.071915
O O7 0.211330 0.596963 0.028865
O O8 0.183234 0.547456 0.565656
O O9 0.183204 0.574445 0.716643
O O10 0.072055 0.639921 0.641025
O O11 0.500000 0.812432 0.482995
O O12 0.500000 0.025325 0.411389
O O13 0.427007 0.068833 0.280494
#
# Coordination Sequence:
#
# PCOD8263782 Si02
#       8
#     8  16  16   8   8   8   8  16
#     4  11  20  32  58  98 130 160 202 256 319 374
#     4  11  23  43  66  94 129 166 208 258 314 374
#     4  10  23  44  66  93 126 164 209 263 313 369
#     4  12  26  42  64  92 128 168 212 258 314 380
#     4   8  19  37  63  90 118 158 205 252 306 362
#     4   9  18  33  57  93 128 157 200 259 311 367
#     4  10  21  38  66  95 126 162 205 260 312 366
#     4  10  21  37  61  89 125 166 210 254 309 373
#
# _framework density 22.835035000000001
#
# number of rings (size 3 to 8) (size 9 to 14) (size 15 to 20)
#    0.000    1.818    0.000    4.364    0.000   11.273 
#    0.000    9.091    0.000    0.000    0.000    0.000 
#    0.000    0.000    0.000    0.000    0.000    0.000 
#
# Total GULP energy -545298.839151 kJ/mol
# GULP energy per Si atom -12393.155435 kJ/mol
# Density = 2.278306 g / cm^3
# Si number density = 22.835035 Si / 1000 Ang^3
#
#
#
# Elastic Constant Matrix: (Units=GPa)
#
#
# Indices 1 2 3 4 5 6 
#
# 1 48.1723 14.8398 31.7808 0.0000 0.0000 0.0000
# 2 14.8398 148.2844 66.4528 0.0000 0.0000 0.0000
# 3 31.7808 66.4528 145.2937 0.0000 0.0000 0.0000
# 4 0.0000 0.0000 0.0000 45.8600 0.0000 0.0000
# 5 0.0000 0.0000 0.0000 0.0000 18.3471 0.0000
# 6 0.0000 0.0000 0.0000 0.0000 0.0000 -0.9463
#
#
#
# Elastic Compliance Matrix: (Units=1/GPa)
#
#
# Indices 1 2 3 4 5 6 
#
# 1 0.024260 -0.000063 -0.005278 0.000000 0.000000 0.000000
# 2 -0.000063 0.008483 -0.003866 0.000000 0.000000 0.000000
# 3 -0.005278 -0.003866 0.009805 0.000000 0.000000 0.000000
# 4 0.000000 0.000000 0.000000 0.021805 0.000000 0.000000
# 5 0.000000 0.000000 0.000000 0.000000 0.054504 0.000000
# 6 0.000000 0.000000 0.000000 0.000000 0.000000 -1.056713
#
#
# Mechanical properties :
#
#
# Convention : Reuss Voigt Hill
#
# Bulk Modulus (GPa) = 41.43365 63.09971 52.26668
# Shear Modulus (GPa) = -5.48608 27.89730 11.20561
#
# Velocity S-wave (km/s) = -1.55168 3.49906 2.21762
# Velocity P-wave (km/s) = 3.86961 6.63456 5.43099
#
# Compressibility (1/GPa) = 0.02413497
#
# Stress axis : x y z
#
# Youngs Moduli (GPa) = 41.21994 117.88873 101.98629
#
# Poissons Ratio (x) = 0.00738 0.53827
# Poissons Ratio (y) = 0.00258 0.39428
# Poissons Ratio (z) = 0.21755 0.45575
#
# Static dielectric constant tensor:
#      x y z
#    x 3.807310 0.000000 0.000000 
#    y 0.000000 4.322820 0.000000 
#    z 0.000000 0.000000 4.233630 
# 
# 
# High freq. dielectric constant tensor:
#      x y z
#    x 1.881180 0.000000 0.000000 
#    y 0.000000 1.915180 0.000000 
#    z 0.000000 0.000000 1.903130 
# 
# From -- ./inp_files/34191.got.cif
#   From: 2010.03.12/outbox.cif.g09.slc.cpg/sg64_18_cif.got.tgz:34191.got - 2010.04.10 20:19:32.
