data_PCOD8263267
_publ_section_title
;
Structure prediction by ZEFSAII (Michael W. Deem and Ramdas Pophale) SiO2 
 PCOD8263267
Probable space group: C M C A
;
_chemical_formula_sum "Si O2"
_cell_formula_units_Z 104
_cell_length_a 24.992642
_cell_length_b 18.085889
_cell_length_c 12.138045
_cell_angle_alpha 90.000000
_cell_angle_beta 90.000000
_cell_angle_gamma 90.000000
_cell_volume 5486.568082
_symmetry_space_group_name_H-M "C M C A"
_symmetry_group_IT_number 64
_symmetry_cell_setting 'orthorhombic'
loop_
_space_group_symop_operation_xyz
x,y,z
-x,1/2-y,1/2+z
x,-y,-z
-x,1/2+y,1/2-z
-x,-y,-z
x,1/2+y,1/2-z
-x,y,z
x,1/2-y,1/2+z
1/2+x,1/2+y,z
1/2-x,-y,1/2+z
1/2+x,1/2-y,-z
1/2-x,y,1/2-z
1/2-x,1/2-y,-z
1/2+x,y,1/2-z
1/2-x,1/2+y,z
1/2+x,-y,1/2+z
loop_
_atom_site_type_symbol
_atom_site_label
_atom_site_fract_x
_atom_site_fract_y
_atom_site_fract_z
Si Si1 0.647738 0.105879 0.447468
Si Si2 0.257533 0.825617 0.436807
Si Si3 0.586542 0.771559 0.676216
Si Si4 0.387508 0.465777 0.163914
Si Si5 0.000000 0.831440 0.425759
Si Si6 0.828815 0.657865 0.772255
Si Si7 0.000000 0.854676 0.681027
Si Si8 0.000000 0.976233 0.276554
O O1 0.710405 0.117462 0.482458
O O2 0.621387 0.181608 0.409254
O O3 0.612790 0.079567 0.550657
O O4 0.642337 0.044692 0.351379
O O5 0.250000 0.750000 0.500000
O O6 0.198620 0.849798 0.393622
O O7 0.289591 0.817407 0.324266
O O8 0.551603 0.713520 0.609564
O O9 0.627293 0.721441 0.743472
O O10 0.552522 0.824266 0.756745
O O11 0.353988 0.423093 0.256514
O O12 0.448880 0.471052 0.198070
O O13 0.000000 0.829063 0.556492
O O14 0.000000 0.913476 0.371534
O O15 0.000000 0.942889 0.670861
#
# Coordination Sequence:
#
# PCOD8263267 Si02
#       8
#    16  16  16  16   8  16   8   8
#     4  10  21  38  63  91 121 159 208 258 309 367
#     4  10  20  36  66  89 117 154 206 254 312 365
#     4  11  22  39  61  93 121 159 209 259 303 364
#     4  10  22  38  64  88 128 165 204 255 308 372
#     4  11  26  37  61  89 128 165 206 249 316 367
#     4  10  21  38  63  89 122 160 202 258 311 362
#     4  11  26  38  58  90 130 161 206 255 299 387
#     4  12  21  42  60  89 124 180 202 242 320 379
#
# _framework density 18.955383999999999
#
# number of rings (size 3 to 8) (size 9 to 14) (size 15 to 20)
#    0.000    1.538    4.615    0.231    4.308    2.462 
#    0.000    0.000   23.692    1.846    0.000    0.000 
#    0.000    0.000    0.000    0.000    0.000    0.000 
#
# Total GULP energy -644437.754818 kJ/mol
# GULP energy per Si atom -12393.033747 kJ/mol
# Density = 1.891224 g / cm^3
# Si number density = 18.955384 Si / 1000 Ang^3
#
#
#
# Elastic Constant Matrix: (Units=GPa)
#
#
# Indices 1 2 3 4 5 6 
#
# 1 103.8955 58.9982 42.0840 0.0000 0.0000 0.0000
# 2 58.9982 126.3325 49.0796 0.0000 0.0000 0.0000
# 3 42.0840 49.0796 75.0221 0.0000 0.0000 0.0000
# 4 0.0000 0.0000 0.0000 -8.2737 0.0000 0.0000
# 5 0.0000 0.0000 0.0000 0.0000 3.1200 0.0000
# 6 0.0000 0.0000 0.0000 0.0000 0.0000 26.1679
#
#
#
# Elastic Compliance Matrix: (Units=1/GPa)
#
#
# Indices 1 2 3 4 5 6 
#
# 1 0.014331 -0.004786 -0.004908 0.000000 0.000000 0.000000
# 2 -0.004786 0.012211 -0.005304 0.000000 0.000000 0.000000
# 3 -0.004908 -0.005304 0.019552 0.000000 0.000000 0.000000
# 4 0.000000 0.000000 0.000000 -0.120865 0.000000 0.000000
# 5 0.000000 0.000000 0.000000 0.000000 0.320509 0.000000
# 6 0.000000 0.000000 0.000000 0.000000 0.000000 0.038215
#
#
# Mechanical properties :
#
#
# Convention : Reuss Voigt Hill
#
# Bulk Modulus (GPa) = 62.11636 67.28594 64.70115
# Shear Modulus (GPa) = 15.65852 14.54207 15.10030
#
# Velocity S-wave (km/s) = 2.87727 2.77279 2.82551
# Velocity P-wave (km/s) = 6.62413 6.76944 6.69718
#
# Compressibility (1/GPa) = 0.01609882
#
# Stress axis : x y z
#
# Youngs Moduli (GPa) = 69.77980 81.89205 51.14451
#
# Poissons Ratio (x) = 0.39192 0.25102
# Poissons Ratio (y) = 0.33396 0.27127
# Poissons Ratio (z) = 0.34248 0.43435
#
# Static dielectric constant tensor:
#      x y z
#    x 2.647810 0.000000 0.000000 
#    y 0.000000 3.724890 0.000000 
#    z 0.000000 0.000000 3.565680 
# 
# 
# High freq. dielectric constant tensor:
#      x y z
#    x 1.745320 0.000000 0.000000 
#    y 0.000000 1.743660 0.000000 
#    z 0.000000 0.000000 1.729450 
# 
# From -- ./inp_files/19234.got.cif
#   From: 2010.03.12/outbox.cif.g09.slc.cpg/sg64_10_cif.got.tgz:19234.got - 2010.04.10 20:19:32.
