data_PCOD8263492
_publ_section_title
;
Structure prediction by ZEFSAII (Michael W. Deem and Ramdas Pophale) SiO2 
 PCOD8263492
Probable space group: C M C A
;
_chemical_formula_sum "Si O2"
_cell_formula_units_Z 64
_cell_length_a 18.582451
_cell_length_b 13.050236
_cell_length_c 14.380346
_cell_angle_alpha 90.000000
_cell_angle_beta 90.000000
_cell_angle_gamma 90.000000
_cell_volume 3487.311142
_symmetry_space_group_name_H-M "C M C A"
_symmetry_group_IT_number 64
_symmetry_cell_setting 'orthorhombic'
loop_
_space_group_symop_operation_xyz
x,y,z
-x,1/2-y,1/2+z
x,-y,-z
-x,1/2+y,1/2-z
-x,-y,-z
x,1/2+y,1/2-z
-x,y,z
x,1/2-y,1/2+z
1/2+x,1/2+y,z
1/2-x,-y,1/2+z
1/2+x,1/2-y,-z
1/2-x,y,1/2-z
1/2-x,1/2-y,-z
1/2+x,y,1/2-z
1/2-x,1/2+y,z
1/2+x,-y,1/2+z
loop_
_atom_site_type_symbol
_atom_site_label
_atom_site_fract_x
_atom_site_fract_y
_atom_site_fract_z
Si Si1 0.808204 0.547447 0.899750
Si Si2 0.316775 0.254297 0.817503
Si Si3 0.916662 0.590278 0.756071
Si Si4 0.342964 0.029582 0.392960
O O1 0.795552 0.671165 0.898014
O O2 0.876512 0.520154 0.834389
O O3 0.736117 0.500113 0.855693
O O4 0.824251 0.500000 0.000000
O O5 0.250000 0.281952 0.750000
O O6 0.380212 0.203315 0.754502
O O7 0.350417 0.350113 0.872170
O O8 0.905394 0.533954 0.658063
O O9 0.000000 0.600174 0.780087
O O10 0.350119 0.000000 0.500000
#
# Coordination Sequence:
#
# PCOD8263492 Si02
#       4
#    16  16  16  16
#     4   9  19  37  61  92 114 153 201 248 302 347
#     4  10  20  39  62  85 122 155 202 249 303 361
#     4  10  21  40  58  85 125 161 197 241 303 365
#     4  11  22  39  64  89 119 156 205 258 301 354
#
# _framework density 18.352250000000002
#
# number of rings (size 3 to 8) (size 9 to 14) (size 15 to 20)
#    1.500    0.500    2.500    2.250    0.000    6.000 
#    4.500    0.000    0.000    0.000    0.000    0.000 
#    0.000    0.000    0.000    0.000    0.000    0.000 
#
# Total GULP energy -396430.470310 kJ/mol
# GULP energy per Si atom -12388.452197 kJ/mol
# Density = 1.831048 g / cm^3
# Si number density = 18.352250 Si / 1000 Ang^3
#
#
#
# Elastic Constant Matrix: (Units=GPa)
#
#
# Indices 1 2 3 4 5 6 
#
# 1 97.3641 12.4373 21.0341 0.0000 0.0000 0.0000
# 2 12.4373 128.8150 48.8350 0.0000 0.0000 0.0000
# 3 21.0341 48.8350 88.8269 0.0000 0.0000 0.0000
# 4 0.0000 0.0000 0.0000 34.1410 0.0000 0.0000
# 5 0.0000 0.0000 0.0000 0.0000 18.3640 0.0000
# 6 0.0000 0.0000 0.0000 0.0000 0.0000 7.1493
#
#
#
# Elastic Compliance Matrix: (Units=1/GPa)
#
#
# Indices 1 2 3 4 5 6 
#
# 1 0.010825 -0.000093 -0.002512 0.000000 0.000000 0.000000
# 2 -0.000093 0.009808 -0.005370 0.000000 0.000000 0.000000
# 3 -0.002512 -0.005370 0.014805 0.000000 0.000000 0.000000
# 4 0.000000 0.000000 0.000000 0.029290 0.000000 0.000000
# 5 0.000000 0.000000 0.000000 0.000000 0.054454 0.000000
# 6 0.000000 0.000000 0.000000 0.000000 0.000000 0.139874
#
#
# Mechanical properties :
#
#
# Convention : Reuss Voigt Hill
#
# Bulk Modulus (GPa) = 51.31435 53.29097 52.30266
# Shear Modulus (GPa) = 17.76174 27.44417 22.60295
#
# Velocity S-wave (km/s) = 3.11436 3.87125 3.51325
# Velocity P-wave (km/s) = 6.39952 7.00593 6.70958
#
# Compressibility (1/GPa) = 0.01948773
#
# Stress axis : x y z
#
# Youngs Moduli (GPa) = 92.37576 101.95836 67.54375
#
# Poissons Ratio (x) = 0.00945 0.16970
# Poissons Ratio (y) = 0.00856 0.36272
# Poissons Ratio (z) = 0.23209 0.54754
#
# Static dielectric constant tensor:
#      x y z
#    x 3.167380 0.000000 0.000000 
#    y 0.000000 3.297790 0.000000 
#    z 0.000000 0.000000 3.192580 
# 
# 
# High freq. dielectric constant tensor:
#      x y z
#    x 1.692180 0.000000 0.000000 
#    y 0.000000 1.709570 0.000000 
#    z 0.000000 0.000000 1.703210 
# 
# From -- ./inp_files/24888.got.cif
#   From: 2010.03.12/outbox.cif.g09.slc.cpg/sg64_13_cif.got.tgz:24888.got - 2010.04.10 20:19:32.
