data_PCOD8263802
_publ_section_title
;
Structure prediction by ZEFSAII (Michael W. Deem and Ramdas Pophale) SiO2 
 PCOD8263802
Probable space group: C M C A
;
_chemical_formula_sum "Si O2"
_cell_formula_units_Z 64
_cell_length_a 25.252084
_cell_length_b 18.150074
_cell_length_c 5.385832
_cell_angle_alpha 90.000000
_cell_angle_beta 90.000000
_cell_angle_gamma 90.000000
_cell_volume 2468.473264
_symmetry_space_group_name_H-M "C M C A"
_symmetry_group_IT_number 64
_symmetry_cell_setting 'orthorhombic'
loop_
_space_group_symop_operation_xyz
x,y,z
-x,1/2-y,1/2+z
x,-y,-z
-x,1/2+y,1/2-z
-x,-y,-z
x,1/2+y,1/2-z
-x,y,z
x,1/2-y,1/2+z
1/2+x,1/2+y,z
1/2-x,-y,1/2+z
1/2+x,1/2-y,-z
1/2-x,y,1/2-z
1/2-x,1/2-y,-z
1/2+x,y,1/2-z
1/2-x,1/2+y,z
1/2+x,-y,1/2+z
loop_
_atom_site_type_symbol
_atom_site_label
_atom_site_fract_x
_atom_site_fract_y
_atom_site_fract_z
Si Si1 0.061033 0.286072 0.265231
Si Si2 0.309741 0.222779 0.451989
Si Si3 0.411755 0.544061 0.746428
Si Si4 0.701728 0.073953 0.606286
O O1 0.087292 0.254641 0.522676
O O2 0.063657 0.374721 0.249908
O O3 0.000000 0.262099 0.270370
O O4 0.338258 0.264331 0.221683
O O5 0.250000 0.250000 0.500000
O O6 0.313936 0.134929 0.398054
O O7 0.431380 0.500000 0.500000
O O8 0.348355 0.551525 0.728166
O O9 0.427613 0.500000 0.000000
O O10 0.750000 0.113275 0.750000
O O11 0.727266 0.000000 0.500000
#
# Coordination Sequence:
#
# PCOD8263802 Si02
#       4
#    16  16  16  16
#     4  10  22  43  71 102 133 170 212 263 330 397
#     4  10  21  38  55  81 109 144 202 260 302 369
#     4  11  25  43  63  97 133 173 221 268 328 389
#     4  11  24  39  62  87 124 171 215 266 317 371
#
# _framework density 25.926957000000002
#
# number of rings (size 3 to 8) (size 9 to 14) (size 15 to 20)
#    0.000    1.500    2.500    2.250    3.500    7.000 
#    0.000    0.000    0.000    0.000    0.000    0.000 
#    0.000    0.000    0.000    0.000    0.000    0.000 
#
# Total GULP energy -396615.392881 kJ/mol
# GULP energy per Si atom -12394.231028 kJ/mol
# Density = 2.586795 g / cm^3
# Si number density = 25.926957 Si / 1000 Ang^3
#
#
#
# Elastic Constant Matrix: (Units=GPa)
#
#
# Indices 1 2 3 4 5 6 
#
# 1 38.6587 -10.6675 33.7920 0.0000 0.0000 0.0000
# 2 -10.6675 224.5064 94.6975 0.0000 0.0000 0.0000
# 3 33.7920 94.6975 233.7789 0.0000 0.0000 0.0000
# 4 0.0000 0.0000 0.0000 52.0678 0.0000 0.0000
# 5 0.0000 0.0000 0.0000 0.0000 30.8771 0.0000
# 6 0.0000 0.0000 0.0000 0.0000 0.0000 24.0402
#
#
#
# Elastic Compliance Matrix: (Units=1/GPa)
#
#
# Indices 1 2 3 4 5 6 
#
# 1 0.032693 0.004278 -0.006458 0.000000 0.000000 0.000000
# 2 0.004278 0.005932 -0.003021 0.000000 0.000000 0.000000
# 3 -0.006458 -0.003021 0.006435 0.000000 0.000000 0.000000
# 4 0.000000 0.000000 0.000000 0.019206 0.000000 0.000000
# 5 0.000000 0.000000 0.000000 0.000000 0.032386 0.000000
# 6 0.000000 0.000000 0.000000 0.000000 0.000000 0.041597
#
#
# Mechanical properties :
#
#
# Convention : Reuss Voigt Hill
#
# Bulk Modulus (GPa) = 28.85508 81.39867 55.12687
# Shear Modulus (GPa) = 31.21004 46.67182 38.94093
#
# Velocity S-wave (km/s) = 3.47330 4.24739 3.87970
# Velocity P-wave (km/s) = 5.21906 7.45100 6.43257
#
# Compressibility (1/GPa) = 0.03465594
#
# Stress axis : x y z
#
# Youngs Moduli (GPa) = 30.58743 168.58317 155.40327
#
# Poissons Ratio (x) = -0.72114 1.00366
# Poissons Ratio (y) = -0.13084 0.46949
# Poissons Ratio (z) = 0.19755 0.50931
#
# Static dielectric constant tensor:
#      x y z
#    x 4.492000 0.000000 0.000000 
#    y 0.000000 4.704520 0.000000 
#    z 0.000000 0.000000 5.640250 
# 
# 
# High freq. dielectric constant tensor:
#      x y z
#    x 2.055990 0.000000 0.000000 
#    y 0.000000 2.049210 0.000000 
#    z 0.000000 0.000000 2.040870 
# 
# From -- ./inp_files/3151.got.cif
#   From: 2010.03.12/outbox.cif.g09.slc.cpg/sg64_2_cif.got.tgz:3151.got - 2010.04.10 20:19:32.
