data_PCOD8263353
_publ_section_title
;
Structure prediction by ZEFSAII (Michael W. Deem and Ramdas Pophale) SiO2 
 PCOD8263353
Probable space group: C M C A
;
_chemical_formula_sum "Si O2"
_cell_formula_units_Z 64
_cell_length_a 21.836331
_cell_length_b 15.249007
_cell_length_c 8.363561
_cell_angle_alpha 90.000000
_cell_angle_beta 90.000000
_cell_angle_gamma 90.000000
_cell_volume 2784.918316
_symmetry_space_group_name_H-M "C M C A"
_symmetry_group_IT_number 64
_symmetry_cell_setting 'orthorhombic'
loop_
_space_group_symop_operation_xyz
x,y,z
-x,1/2-y,1/2+z
x,-y,-z
-x,1/2+y,1/2-z
-x,-y,-z
x,1/2+y,1/2-z
-x,y,z
x,1/2-y,1/2+z
1/2+x,1/2+y,z
1/2-x,-y,1/2+z
1/2+x,1/2-y,-z
1/2-x,y,1/2-z
1/2-x,1/2-y,-z
1/2+x,y,1/2-z
1/2-x,1/2+y,z
1/2+x,-y,1/2+z
loop_
_atom_site_type_symbol
_atom_site_label
_atom_site_fract_x
_atom_site_fract_y
_atom_site_fract_z
Si Si1 0.373372 0.680098 0.849230
Si Si2 0.388932 0.508301 0.187610
Si Si3 0.685992 0.329266 0.830206
Si Si4 0.000000 0.615187 0.190261
Si Si5 0.500000 0.274539 0.996619
O O1 0.371037 0.588622 0.749133
O O2 0.365697 0.761873 0.732479
O O3 0.439472 0.681775 0.930818
O O4 0.317339 0.680971 0.977981
O O5 0.330405 0.570910 0.213617
O O6 0.442700 0.550855 0.291628
O O7 0.407216 0.500000 0.000000
O O8 0.750000 0.304322 0.750000
O O9 0.000000 0.698758 0.310768
O O10 0.000000 0.667659 0.019698
#
# Coordination Sequence:
#
# PCOD8263353 Si02
#       5
#    16  16  16   8   8
#     4  11  22  40  65  90 126 165 209 260 322 374
#     4  10  20  37  63  90 118 167 211 252 312 383
#     4  11  23  40  61  90 124 166 217 259 307 375
#     4  12  20  37  66  94 127 157 218 257 319 386
#     4  12  19  36  67  95 125 163 204 260 326 378
#
# _framework density 22.980924999999999
#
# number of rings (size 3 to 8) (size 9 to 14) (size 15 to 20)
#    0.000    1.000    7.500    1.875    0.000    1.000 
#    0.000    3.750    0.000    3.000    0.000    0.000 
#    0.000    0.000    0.000    0.000    0.000    0.000 
#
# Total GULP energy -396676.535939 kJ/mol
# GULP energy per Si atom -12396.141748 kJ/mol
# Density = 2.292862 g / cm^3
# Si number density = 22.980925 Si / 1000 Ang^3
#
#
#
# Elastic Constant Matrix: (Units=GPa)
#
#
# Indices 1 2 3 4 5 6 
#
# 1 72.3254 31.3926 19.3448 0.0000 0.0000 0.0000
# 2 31.3926 154.0803 40.8616 0.0000 0.0000 0.0000
# 3 19.3448 40.8616 40.4148 0.0000 0.0000 0.0000
# 4 0.0000 0.0000 0.0000 34.7143 0.0000 0.0000
# 5 0.0000 0.0000 0.0000 0.0000 20.1626 0.0000
# 6 0.0000 0.0000 0.0000 0.0000 0.0000 30.2499
#
#
#
# Elastic Compliance Matrix: (Units=1/GPa)
#
#
# Indices 1 2 3 4 5 6 
#
# 1 0.016175 -0.001697 -0.006026 0.000000 0.000000 0.000000
# 2 -0.001697 0.009046 -0.008333 0.000000 0.000000 0.000000
# 3 -0.006026 -0.008333 0.036053 0.000000 0.000000 0.000000
# 4 0.000000 0.000000 0.000000 0.028807 0.000000 0.000000
# 5 0.000000 0.000000 0.000000 0.000000 0.049597 0.000000
# 6 0.000000 0.000000 0.000000 0.000000 0.000000 0.033058
#
#
# Mechanical properties :
#
#
# Convention : Reuss Voigt Hill
#
# Bulk Modulus (GPa) = 34.29308 50.00205 42.14756
# Shear Modulus (GPa) = 23.30244 28.70680 26.00462
#
# Velocity S-wave (km/s) = 3.18778 3.53818 3.36754
# Velocity P-wave (km/s) = 5.33892 6.20459 5.78796
#
# Compressibility (1/GPa) = 0.02916040
#
# Stress axis : x y z
#
# Youngs Moduli (GPa) = 61.82397 110.54643 27.73660
#
# Poissons Ratio (x) = 0.18764 0.16714
# Poissons Ratio (y) = 0.10494 0.23114
# Poissons Ratio (z) = 0.37256 0.92124
#
# Static dielectric constant tensor:
#      x y z
#    x 3.825590 0.000000 0.000000 
#    y 0.000000 4.557810 0.000000 
#    z 0.000000 0.000000 3.854280 
# 
# 
# High freq. dielectric constant tensor:
#      x y z
#    x 1.896130 0.000000 0.000000 
#    y 0.000000 1.930270 0.000000 
#    z 0.000000 0.000000 1.873380 
# 
# From -- ./inp_files/8994.got.cif
#   From: 2010.03.12/outbox.cif.g09.slc.cpg/sg64_5_cif.got.tgz:8994.got - 2010.04.10 20:19:32.
