data_PCOD8263868
_publ_section_title
;
Structure prediction by ZEFSAII (Michael W. Deem and Ramdas Pophale) SiO2 
 PCOD8263868
Probable space group: C M C A
;
_chemical_formula_sum "Si O2"
_cell_formula_units_Z 80
_cell_length_a 8.659442
_cell_length_b 28.967153
_cell_length_c 15.651824
_cell_angle_alpha 90.000000
_cell_angle_beta 90.000000
_cell_angle_gamma 90.000000
_cell_volume 3926.093849
_symmetry_space_group_name_H-M "C M C A"
_symmetry_group_IT_number 64
_symmetry_cell_setting 'orthorhombic'
loop_
_space_group_symop_operation_xyz
x,y,z
-x,1/2-y,1/2+z
x,-y,-z
-x,1/2+y,1/2-z
-x,-y,-z
x,1/2+y,1/2-z
-x,y,z
x,1/2-y,1/2+z
1/2+x,1/2+y,z
1/2-x,-y,1/2+z
1/2+x,1/2-y,-z
1/2-x,y,1/2-z
1/2-x,1/2-y,-z
1/2+x,y,1/2-z
1/2-x,1/2+y,z
1/2+x,-y,1/2+z
loop_
_atom_site_type_symbol
_atom_site_label
_atom_site_fract_x
_atom_site_fract_y
_atom_site_fract_z
Si Si1 0.183244 0.800740 0.002956
Si Si2 0.316990 0.447589 0.100043
Si Si3 0.817484 0.856159 0.837562
Si Si4 0.181902 0.856253 0.338603
Si Si5 0.817511 0.950890 0.906074
O O1 0.241152 0.826056 0.917121
O O2 0.000000 0.799398 0.007781
O O3 0.250000 0.750000 0.000000
O O4 0.244659 0.827898 0.084417
O O5 0.500000 0.438764 0.109522
O O6 0.225134 0.410307 0.155339
O O7 0.268029 0.499177 0.131601
O O8 0.259428 0.443160 0.002553
O O9 0.750000 0.835459 0.750000
O O10 0.754914 0.908840 0.848399
O O11 0.000000 0.854785 0.832393
O O12 0.250000 0.836581 0.250000
O O13 0.000000 0.849358 0.339352
O O14 0.000000 0.949557 0.911444
#
# Coordination Sequence:
#
# PCOD8263868 Si02
#       5
#    16  16  16  16  16
#     4  11  24  45  69  91 121 157 201 254 314 373
#     4   9  16  33  60  87 121 163 205 247 299 361
#     4  10  21  38  61  90 123 160 199 243 295 360
#     4  12  25  41  63  92 125 162 207 256 309 368
#     4   8  15  31  58  87 120 164 203 241 299 359
#
# _framework density 20.376486
#
# number of rings (size 3 to 8) (size 9 to 14) (size 15 to 20)
#    0.000    2.000    2.000    3.600    0.000    3.200 
#    0.000    7.000    0.000    0.000    0.000    0.000 
#    0.000    0.000    0.000    0.000    0.000    0.000 
#
# Total GULP energy -495912.072314 kJ/mol
# GULP energy per Si atom -12397.801808 kJ/mol
# Density = 2.033011 g / cm^3
# Si number density = 20.376486 Si / 1000 Ang^3
#
#
#
# Elastic Constant Matrix: (Units=GPa)
#
#
# Indices 1 2 3 4 5 6 
#
# 1 67.3870 38.8949 43.5173 0.0000 0.0000 0.0000
# 2 38.8949 144.9861 74.9330 0.0000 0.0000 0.0000
# 3 43.5173 74.9330 159.4697 0.0000 0.0000 0.0000
# 4 0.0000 0.0000 0.0000 7.9194 0.0000 0.0000
# 5 0.0000 0.0000 0.0000 0.0000 30.0127 0.0000
# 6 0.0000 0.0000 0.0000 0.0000 0.0000 30.0164
#
#
#
# Elastic Compliance Matrix: (Units=1/GPa)
#
#
# Indices 1 2 3 4 5 6 
#
# 1 0.019080 -0.003206 -0.003700 0.000000 0.000000 0.000000
# 2 -0.003206 0.009648 -0.003659 0.000000 0.000000 0.000000
# 3 -0.003700 -0.003659 0.009000 0.000000 0.000000 0.000000
# 4 0.000000 0.000000 0.000000 0.126272 0.000000 0.000000
# 5 0.000000 0.000000 0.000000 0.000000 0.033319 0.000000
# 6 0.000000 0.000000 0.000000 0.000000 0.000000 0.033315
#
#
# Mechanical properties :
#
#
# Convention : Reuss Voigt Hill
#
# Bulk Modulus (GPa) = 60.24910 76.28149 68.26530
# Shear Modulus (GPa) = 19.43282 27.88955 23.66119
#
# Velocity S-wave (km/s) = 3.09154 3.70362 3.41134
# Velocity P-wave (km/s) = 6.50965 7.47037 7.00650
#
# Compressibility (1/GPa) = 0.01659776
#
# Stress axis : x y z
#
# Youngs Moduli (GPa) = 52.41194 103.64613 111.11534
#
# Poissons Ratio (x) = 0.33230 0.41114
# Poissons Ratio (y) = 0.16804 0.40654
# Poissons Ratio (z) = 0.19393 0.37921
#
# Static dielectric constant tensor:
#      x y z
#    x 3.408490 0.000000 0.000000 
#    y 0.000000 4.045480 0.000000 
#    z 0.000000 0.000000 3.818110 
# 
# 
# High freq. dielectric constant tensor:
#      x y z
#    x 1.770670 0.000000 0.000000 
#    y 0.000000 1.802880 0.000000 
#    z 0.000000 0.000000 1.799150 
# 
# From -- ./inp_files/29966.got.cif
#   From: 2010.03.12/outbox.cif.g09.slc.cpg/sg64_15_cif.got.tgz:29966.got - 2010.04.10 20:19:32.
