data_PCOD8263708
_publ_section_title
;
Structure prediction by ZEFSAII (Michael W. Deem and Ramdas Pophale) SiO2 
 PCOD8263708
Probable space group: C M C A
;
_chemical_formula_sum "Si O2"
_cell_formula_units_Z 80
_cell_length_a 18.029126
_cell_length_b 14.521634
_cell_length_c 14.609896
_cell_angle_alpha 90.000000
_cell_angle_beta 90.000000
_cell_angle_gamma 90.000000
_cell_volume 3825.051484
_symmetry_space_group_name_H-M "C M C A"
_symmetry_group_IT_number 64
_symmetry_cell_setting 'orthorhombic'
loop_
_space_group_symop_operation_xyz
x,y,z
-x,1/2-y,1/2+z
x,-y,-z
-x,1/2+y,1/2-z
-x,-y,-z
x,1/2+y,1/2-z
-x,y,z
x,1/2-y,1/2+z
1/2+x,1/2+y,z
1/2-x,-y,1/2+z
1/2+x,1/2-y,-z
1/2-x,y,1/2-z
1/2-x,1/2-y,-z
1/2+x,y,1/2-z
1/2-x,1/2+y,z
1/2+x,-y,1/2+z
loop_
_atom_site_type_symbol
_atom_site_label
_atom_site_fract_x
_atom_site_fract_y
_atom_site_fract_z
Si Si1 0.835288 0.262888 0.978002
Si Si2 0.086942 0.512305 0.266403
Si Si3 0.831760 0.689481 0.226661
Si Si4 0.667761 0.632692 0.651822
Si Si5 0.323929 0.927702 0.424757
O O1 0.869715 0.325447 0.059104
O O2 0.750000 0.250000 0.000000
O O3 0.846236 0.312123 0.881461
O O4 0.865922 0.158246 0.974047
O O5 0.107994 0.619761 0.266917
O O6 0.124550 0.458894 0.181145
O O7 0.113996 0.472401 0.362137
O O8 0.000000 0.500051 0.257778
O O9 0.750000 0.650643 0.250000
O O10 0.840810 0.791205 0.268493
O O11 0.754272 0.607593 0.636118
O O12 0.294568 0.000000 0.500000
#
# Coordination Sequence:
#
# PCOD8263708 Si02
#       5
#    16  16  16  16  16
#     4  10  21  36  67 104 126 163 219 285 343 381
#     4  12  28  43  63  97 143 189 220 267 339 414
#     4  12  21  42  69 100 132 169 226 282 335 388
#     4  11  23  44  70 105 131 168 228 287 340 389
#     4  11  22  42  73 105 130 168 230 292 339 398
#
# _framework density 20.914752
#
# number of rings (size 3 to 8) (size 9 to 14) (size 15 to 20)
#    0.000    0.800    6.000    3.000    8.400    1.200 
#    0.000    3.000    0.000    0.000    0.000    0.000 
#    0.000    0.000    0.000    0.000    0.000    0.000 
#
# Total GULP energy -495937.741571 kJ/mol
# GULP energy per Si atom -12398.443539 kJ/mol
# Density = 2.086715 g / cm^3
# Si number density = 20.914752 Si / 1000 Ang^3
#
#
#
# Elastic Constant Matrix: (Units=GPa)
#
#
# Indices 1 2 3 4 5 6 
#
# 1 78.6924 30.6744 14.8085 0.0000 0.0000 0.0000
# 2 30.6744 104.7873 23.5902 0.0000 0.0000 0.0000
# 3 14.8085 23.5902 101.4491 0.0000 0.0000 0.0000
# 4 0.0000 0.0000 0.0000 51.8036 0.0000 0.0000
# 5 0.0000 0.0000 0.0000 0.0000 10.3412 0.0000
# 6 0.0000 0.0000 0.0000 0.0000 0.0000 9.2419
#
#
#
# Elastic Compliance Matrix: (Units=1/GPa)
#
#
# Indices 1 2 3 4 5 6 
#
# 1 0.014479 -0.003971 -0.001190 0.000000 0.000000 0.000000
# 2 -0.003971 0.011159 -0.002015 0.000000 0.000000 0.000000
# 3 -0.001190 -0.002015 0.010500 0.000000 0.000000 0.000000
# 4 0.000000 0.000000 0.000000 0.019304 0.000000 0.000000
# 5 0.000000 0.000000 0.000000 0.000000 0.096700 0.000000
# 6 0.000000 0.000000 0.000000 0.000000 0.000000 0.108203
#
#
# Mechanical properties :
#
#
# Convention : Reuss Voigt Hill
#
# Bulk Modulus (GPa) = 45.90142 47.00831 46.45487
# Shear Modulus (GPa) = 17.73308 28.66773 23.20041
#
# Velocity S-wave (km/s) = 2.91499 3.70631 3.33421
# Velocity P-wave (km/s) = 5.77270 6.39066 6.08953
#
# Compressibility (1/GPa) = 0.02178582
#
# Stress axis : x y z
#
# Youngs Moduli (GPa) = 69.06350 89.61263 95.24246
#
# Poissons Ratio (x) = 0.35582 0.11336
# Poissons Ratio (y) = 0.27422 0.19194
# Poissons Ratio (z) = 0.08220 0.18059
#
# Static dielectric constant tensor:
#      x y z
#    x 3.224090 0.000000 0.000000 
#    y 0.000000 4.356470 0.000000 
#    z 0.000000 0.000000 4.468640 
# 
# 
# High freq. dielectric constant tensor:
#      x y z
#    x 1.756890 0.000000 0.000000 
#    y 0.000000 1.840760 0.000000 
#    z 0.000000 0.000000 1.838690 
# 
# From -- ./inp_files/25301.got.cif
#   From: 2010.03.12/outbox.cif.g09.slc.cpg/sg64_13_cif.got.tgz:25301.got - 2010.04.10 20:19:32.
