data_PCOD8263661
_publ_section_title
;
Structure prediction by ZEFSAII (Michael W. Deem and Ramdas Pophale) SiO2 
 PCOD8263661
Probable space group: C M C A
;
_chemical_formula_sum "Si O2"
_cell_formula_units_Z 56
_cell_length_a 17.038120
_cell_length_b 30.714677
_cell_length_c 5.078534
_cell_angle_alpha 90.000000
_cell_angle_beta 90.000000
_cell_angle_gamma 90.000000
_cell_volume 2657.700203
_symmetry_space_group_name_H-M "C M C A"
_symmetry_group_IT_number 64
_symmetry_cell_setting 'orthorhombic'
loop_
_space_group_symop_operation_xyz
x,y,z
-x,1/2-y,1/2+z
x,-y,-z
-x,1/2+y,1/2-z
-x,-y,-z
x,1/2+y,1/2-z
-x,y,z
x,1/2-y,1/2+z
1/2+x,1/2+y,z
1/2-x,-y,1/2+z
1/2+x,1/2-y,-z
1/2-x,y,1/2-z
1/2-x,1/2-y,-z
1/2+x,y,1/2-z
1/2-x,1/2+y,z
1/2+x,-y,1/2+z
loop_
_atom_site_type_symbol
_atom_site_label
_atom_site_fract_x
_atom_site_fract_y
_atom_site_fract_z
Si Si1 0.410020 0.919929 0.586585
Si Si2 0.841889 0.273515 0.222692
Si Si3 0.089314 0.863892 0.421161
Si Si4 0.801022 0.000000 0.000000
O O1 0.500000 0.933801 0.644871
O O2 0.400899 0.900942 0.296442
O O3 0.354901 0.961491 0.611248
O O4 0.382955 0.884054 0.801088
O O5 0.879378 0.257971 0.498651
O O6 0.750000 0.265978 0.250000
O O7 0.856838 0.323498 0.154911
O O8 0.000000 0.847354 0.437488
O O9 0.750000 0.984035 0.250000
#
# Coordination Sequence:
#
# PCOD8263661 Si02
#       4
#    16  16  16   8
#     4  10  22  41  61  84 118 156 191 235 295 351
#     4  10  21  36  54  80 115 153 189 231 288 343
#     4  10  21  37  60  86 111 149 198 240 284 341
#     4  12  25  40  61  92 120 148 194 240 285 344
#
# _framework density 21.070847000000001
#
# number of rings (size 3 to 8) (size 9 to 14) (size 15 to 20)
#    0.000    1.714    0.000    3.857    0.000    4.571 
#    0.000    5.714    0.000    0.000    0.000    0.000 
#    0.000    0.000    0.000    0.000    0.000    0.000 
#
# Total GULP energy -347267.916128 kJ/mol
# GULP energy per Si atom -12402.425576 kJ/mol
# Density = 2.102289 g / cm^3
# Si number density = 21.070847 Si / 1000 Ang^3
#
#
#
# Elastic Constant Matrix: (Units=GPa)
#
#
# Indices 1 2 3 4 5 6 
#
# 1 45.8629 39.2044 38.2237 0.0000 0.0000 0.0000
# 2 39.2044 101.3067 29.8907 0.0000 0.0000 0.0000
# 3 38.2237 29.8907 127.1370 0.0000 0.0000 0.0000
# 4 0.0000 0.0000 0.0000 38.2553 0.0000 0.0000
# 5 0.0000 0.0000 0.0000 0.0000 25.6629 0.0000
# 6 0.0000 0.0000 0.0000 0.0000 0.0000 30.0910
#
#
#
# Elastic Compliance Matrix: (Units=1/GPa)
#
#
# Indices 1 2 3 4 5 6 
#
# 1 0.040509 -0.012984 -0.009127 0.000000 0.000000 0.000000
# 2 -0.012984 0.014768 0.000431 0.000000 0.000000 0.000000
# 3 -0.009127 0.000431 0.010508 0.000000 0.000000 0.000000
# 4 0.000000 0.000000 0.000000 0.026140 0.000000 0.000000
# 5 0.000000 0.000000 0.000000 0.000000 0.038967 0.000000
# 6 0.000000 0.000000 0.000000 0.000000 0.000000 0.033233
#
#
# Mechanical properties :
#
#
# Convention : Reuss Voigt Hill
#
# Bulk Modulus (GPa) = 44.58748 54.32713 49.45730
# Shear Modulus (GPa) = 23.26027 29.93435 26.59731
#
# Velocity S-wave (km/s) = 3.32612 3.77324 3.55671
# Velocity P-wave (km/s) = 5.99645 6.69494 6.35530
#
# Compressibility (1/GPa) = 0.02242782
#
# Stress axis : x y z
#
# Youngs Moduli (GPa) = 24.68567 67.71267 95.16566
#
# Poissons Ratio (x) = 0.87917 0.86853
# Poissons Ratio (y) = 0.32051 -0.04106
# Poissons Ratio (z) = 0.22530 -0.02922
#
# Static dielectric constant tensor:
#      x y z
#    x 3.714960 0.000000 0.000000 
#    y 0.000000 3.509300 0.000000 
#    z 0.000000 0.000000 4.270450 
# 
# 
# High freq. dielectric constant tensor:
#      x y z
#    x 1.810830 0.000000 0.000000 
#    y 0.000000 1.820560 0.000000 
#    z 0.000000 0.000000 1.850870 
# 
# From -- ./inp_files/866.got.cif
#   From: 2010.03.12/outbox.cif.g09.slc.cpg/sg64_1_cif.got.tgz:866.got - 2010.04.10 20:19:32.
