data_PCOD8263169
_publ_section_title
;
Structure prediction by ZEFSAII (Michael W. Deem and Ramdas Pophale) SiO2 
 PCOD8263169
Probable space group: C M C A
;
_chemical_formula_sum "Si O2"
_cell_formula_units_Z 96
_cell_length_a 8.824149
_cell_length_b 20.647905
_cell_length_c 26.690811
_cell_angle_alpha 90.000000
_cell_angle_beta 90.000000
_cell_angle_gamma 90.000000
_cell_volume 4863.070842
_symmetry_space_group_name_H-M "C M C A"
_symmetry_group_IT_number 64
_symmetry_cell_setting 'orthorhombic'
loop_
_space_group_symop_operation_xyz
x,y,z
-x,1/2-y,1/2+z
x,-y,-z
-x,1/2+y,1/2-z
-x,-y,-z
x,1/2+y,1/2-z
-x,y,z
x,1/2-y,1/2+z
1/2+x,1/2+y,z
1/2-x,-y,1/2+z
1/2+x,1/2-y,-z
1/2-x,y,1/2-z
1/2-x,1/2-y,-z
1/2+x,y,1/2-z
1/2-x,1/2+y,z
1/2+x,-y,1/2+z
loop_
_atom_site_type_symbol
_atom_site_label
_atom_site_fract_x
_atom_site_fract_y
_atom_site_fract_z
Si Si1 0.320763 0.060067 0.696003
Si Si2 0.821765 0.309002 0.470632
Si Si3 0.319663 0.310541 0.142376
Si Si4 0.321677 0.817914 0.803734
Si Si5 0.174031 0.564203 0.468422
Si Si6 0.323103 0.054801 0.136317
O O1 0.500000 0.060744 0.701555
O O2 0.250000 0.047979 0.750000
O O3 0.259413 0.127278 0.672834
O O4 0.274322 0.003029 0.658955
O O5 0.750000 0.250000 0.500000
O O6 0.755931 0.311751 0.414204
O O7 0.777573 0.375669 0.497316
O O8 0.000000 0.298112 0.469336
O O9 0.500000 0.311243 0.140932
O O10 0.256890 0.246563 0.169825
O O11 0.500000 0.812390 0.797321
O O12 0.250000 0.826962 0.750000
O O13 0.274654 0.878906 0.837032
O O14 0.198973 0.500000 0.500000
O O15 0.285937 0.562437 0.421765
O O16 0.000000 0.570158 0.450299
O O17 0.500000 0.039997 0.143627
#
# Coordination Sequence:
#
# PCOD8263169 Si02
#       6
#    16  16  16  16  16  16
#     4  11  22  38  60  84 113 148 187 232 280 334
#     4  10  20  36  58  83 112 147 186 229 281 337
#     4   9  19  37  59  81 109 147 186 226 275 331
#     4  10  21  37  57  81 110 145 185 228 276 328
#     4  10  21  38  60  84 111 148 191 232 280 337
#     4  11  23  38  58  84 114 149 188 233 283 334
#
# _framework density 19.740613
#
# number of rings (size 3 to 8) (size 9 to 14) (size 15 to 20)
#    0.000    1.833    0.000    4.000    0.000    7.667 
#    0.000    5.000    0.000    0.000    0.000    0.000 
#    0.000    0.000    0.000    0.000    0.000    0.000 
#
# Total GULP energy -595430.529450 kJ/mol
# GULP energy per Si atom -12404.802697 kJ/mol
# Density = 1.969568 g / cm^3
# Si number density = 19.740613 Si / 1000 Ang^3
#
#
#
# Elastic Constant Matrix: (Units=GPa)
#
#
# Indices 1 2 3 4 5 6 
#
# 1 36.0497 35.6127 30.5274 0.0000 0.0000 0.0000
# 2 35.6127 152.9243 45.6525 0.0000 0.0000 0.0000
# 3 30.5274 45.6525 127.0960 0.0000 0.0000 0.0000
# 4 0.0000 0.0000 0.0000 41.3711 0.0000 0.0000
# 5 0.0000 0.0000 0.0000 0.0000 31.0167 0.0000
# 6 0.0000 0.0000 0.0000 0.0000 0.0000 20.5375
#
#
#
# Elastic Compliance Matrix: (Units=1/GPa)
#
#
# Indices 1 2 3 4 5 6 
#
# 1 0.041207 -0.007439 -0.007225 0.000000 0.000000 0.000000
# 2 -0.007439 0.008668 -0.001327 0.000000 0.000000 0.000000
# 3 -0.007225 -0.001327 0.010080 0.000000 0.000000 0.000000
# 4 0.000000 0.000000 0.000000 0.024171 0.000000 0.000000
# 5 0.000000 0.000000 0.000000 0.000000 0.032241 0.000000
# 6 0.000000 0.000000 0.000000 0.000000 0.000000 0.048691
#
#
# Mechanical properties :
#
#
# Convention : Reuss Voigt Hill
#
# Bulk Modulus (GPa) = 35.74955 59.96168 47.85561
# Shear Modulus (GPa) = 24.22891 32.20355 28.21623
#
# Velocity S-wave (km/s) = 3.50718 4.04336 3.78478
# Velocity P-wave (km/s) = 5.87787 7.22766 6.58743
#
# Compressibility (1/GPa) = 0.02797238
#
# Stress axis : x y z
#
# Youngs Moduli (GPa) = 24.26763 115.37181 99.20580
#
# Poissons Ratio (x) = 0.85828 0.71681
# Poissons Ratio (y) = 0.18053 0.13160
# Poissons Ratio (z) = 0.17534 0.15305
#
# Static dielectric constant tensor:
#      x y z
#    x 3.366890 0.000000 0.000000 
#    y 0.000000 3.868900 0.000000 
#    z 0.000000 0.000000 3.717600 
# 
# 
# High freq. dielectric constant tensor:
#      x y z
#    x 1.747490 0.000000 0.000000 
#    y 0.000000 1.790830 0.000000 
#    z 0.000000 0.000000 1.786610 
# 
# From -- ./inp_files/48035.got.cif
#   From: 2010.03.12/outbox.cif.g09.slc.cpg/sg64_25_cif.got.tgz:48035.got - 2010.04.10 20:19:32.
