data_PCOD8263455
_publ_section_title
;
Structure prediction by ZEFSAII (Michael W. Deem and Ramdas Pophale) SiO2 
 PCOD8263455
Probable space group: C M C A
;
_chemical_formula_sum "Si O2"
_cell_formula_units_Z 80
_cell_length_a 17.591576
_cell_length_b 11.426105
_cell_length_c 20.312431
_cell_angle_alpha 90.000000
_cell_angle_beta 90.000000
_cell_angle_gamma 90.000000
_cell_volume 4082.863519
_symmetry_space_group_name_H-M "C M C A"
_symmetry_group_IT_number 64
_symmetry_cell_setting 'orthorhombic'
loop_
_space_group_symop_operation_xyz
x,y,z
-x,1/2-y,1/2+z
x,-y,-z
-x,1/2+y,1/2-z
-x,-y,-z
x,1/2+y,1/2-z
-x,y,z
x,1/2-y,1/2+z
1/2+x,1/2+y,z
1/2-x,-y,1/2+z
1/2+x,1/2-y,-z
1/2-x,y,1/2-z
1/2-x,1/2-y,-z
1/2+x,y,1/2-z
1/2-x,1/2+y,z
1/2+x,-y,1/2+z
loop_
_atom_site_type_symbol
_atom_site_label
_atom_site_fract_x
_atom_site_fract_y
_atom_site_fract_z
Si Si1 0.500000 0.673732 0.638915
Si Si2 0.500000 0.671611 0.020385
Si Si3 0.840114 0.946371 0.138618
Si Si4 0.619721 0.833090 0.705614
Si Si5 0.500000 0.822137 0.368314
Si Si6 0.750000 0.823166 0.250000
Si Si7 0.500000 0.076279 0.200925
Si Si8 0.628478 0.000000 0.500000
O O1 0.500000 0.707246 0.561552
O O2 0.572106 0.731544 0.672062
O O3 0.500000 0.534560 0.651709
O O4 0.574348 0.594073 0.037377
O O5 0.500000 0.703819 0.944838
O O6 0.923432 0.890119 0.153948
O O7 0.770568 0.896917 0.183618
O O8 0.841067 0.084617 0.152116
O O9 0.822410 0.938827 0.059112
O O10 0.679637 0.761760 0.746392
O O11 0.574444 0.922579 0.753285
O O12 0.500000 0.695360 0.338409
#
# Coordination Sequence:
#
# PCOD8263455 Si02
#       8
#     8   8  16  16   8   8   8   8
#     4  11  21  37  62  89 121 154 202 257 307 363
#     4   9  17  34  64  94 115 152 203 255 306 366
#     4  11  21  40  65  89 122 159 207 261 305 371
#     4  11  23  37  57  89 121 159 203 253 306 368
#     4  10  20  38  65  92 116 155 208 255 307 366
#     4  12  24  38  58  92 128 162 206 250 318 358
#     4  11  22  35  57  88 128 157 193 254 311 350
#     4   9  18  36  66  92 116 157 206 256 308 371
#
# _framework density 19.594092
#
# number of rings (size 3 to 8) (size 9 to 14) (size 15 to 20)
#    0.000    1.400    4.000    3.600    2.800    0.400 
#    0.000    1.000    0.000    0.000    0.000    0.000 
#    0.000    0.800    0.000    0.000    0.000    0.000 
#
# Total GULP energy -495554.386151 kJ/mol
# GULP energy per Si atom -12388.859654 kJ/mol
# Density = 1.954949 g / cm^3
# Si number density = 19.594092 Si / 1000 Ang^3
#
#
#
# Elastic Constant Matrix: (Units=GPa)
#
#
# Indices 1 2 3 4 5 6 
#
# 1 60.4392 9.2076 35.5242 0.0000 0.0000 0.0000
# 2 9.2076 93.4328 38.9548 0.0000 0.0000 0.0000
# 3 35.5242 38.9548 118.2270 0.0000 0.0000 0.0000
# 4 0.0000 0.0000 0.0000 -90.5021 0.0000 0.0000
# 5 0.0000 0.0000 0.0000 0.0000 52.9838 0.0000
# 6 0.0000 0.0000 0.0000 0.0000 0.0000 84.5781
#
#
#
# Elastic Compliance Matrix: (Units=1/GPa)
#
#
# Indices 1 2 3 4 5 6 
#
# 1 0.020126 0.000624 -0.006253 0.000000 0.000000 0.000000
# 2 0.000624 0.012427 -0.004282 0.000000 0.000000 0.000000
# 3 -0.006253 -0.004282 0.011748 0.000000 0.000000 0.000000
# 4 0.000000 0.000000 0.000000 -0.011049 0.000000 0.000000
# 5 0.000000 0.000000 0.000000 0.000000 0.018874 0.000000
# 6 0.000000 0.000000 0.000000 0.000000 0.000000 0.011823
#
#
# Mechanical properties :
#
#
# Convention : Reuss Voigt Hill
#
# Bulk Modulus (GPa) = 40.85247 48.83023 44.84135
# Shear Modulus (GPa) = 54.38958 21.97276 38.18117
#
# Velocity S-wave (km/s) = 5.27432 3.35236 4.41909
# Velocity P-wave (km/s) = 7.61484 6.32135 6.99805
#
# Compressibility (1/GPa) = 0.02447833
#
# Stress axis : x y z
#
# Youngs Moduli (GPa) = 49.68766 80.47218 85.12136
#
# Poissons Ratio (x) = -0.05018 0.53224
# Poissons Ratio (y) = -0.03099 0.36448
# Poissons Ratio (z) = 0.31068 0.34457
#
# Static dielectric constant tensor:
#      x y z
#    x 3.614760 0.000000 0.000000 
#    y 0.000000 3.491200 0.000000 
#    z 0.000000 0.000000 3.839880 
# 
# 
# High freq. dielectric constant tensor:
#      x y z
#    x 1.734990 0.000000 0.000000 
#    y 0.000000 1.761530 0.000000 
#    z 0.000000 0.000000 1.770790 
# 
# From -- ./inp_files/40026.got.cif
#   From: 2010.03.12/outbox.cif.g09.slc.cpg/sg64_21_cif.got.tgz:40026.got - 2010.04.10 20:19:32.
