data_PCOD8263935
_publ_section_title
;
Structure prediction by ZEFSAII (Michael W. Deem and Ramdas Pophale) SiO2 
 PCOD8263935
Probable space group: C M C A
;
_chemical_formula_sum "Si O2"
_cell_formula_units_Z 88
_cell_length_a 14.719257
_cell_length_b 25.863591
_cell_length_c 11.636637
_cell_angle_alpha 90.000000
_cell_angle_beta 90.000000
_cell_angle_gamma 90.000000
_cell_volume 4429.984421
_symmetry_space_group_name_H-M "C M C A"
_symmetry_group_IT_number 64
_symmetry_cell_setting 'orthorhombic'
loop_
_space_group_symop_operation_xyz
x,y,z
-x,1/2-y,1/2+z
x,-y,-z
-x,1/2+y,1/2-z
-x,-y,-z
x,1/2+y,1/2-z
-x,y,z
x,1/2-y,1/2+z
1/2+x,1/2+y,z
1/2-x,-y,1/2+z
1/2+x,1/2-y,-z
1/2-x,y,1/2-z
1/2-x,1/2-y,-z
1/2+x,y,1/2-z
1/2-x,1/2+y,z
1/2+x,-y,1/2+z
loop_
_atom_site_type_symbol
_atom_site_label
_atom_site_fract_x
_atom_site_fract_y
_atom_site_fract_z
Si Si1 0.354743 0.380676 0.484740
Si Si2 0.000000 0.686566 0.561413
Si Si3 0.000000 0.365645 0.687476
Si Si4 0.103268 0.947811 0.263815
Si Si5 0.812536 0.640352 0.644696
Si Si6 0.150630 0.565750 0.218569
Si Si7 0.500000 0.691848 0.425322
O O1 0.390669 0.412300 0.376209
O O2 0.250743 0.360994 0.468738
O O3 0.370823 0.419494 0.588730
O O4 0.412079 0.329262 0.508288
O O5 0.907321 0.670853 0.628416
O O6 0.000000 0.747570 0.558135
O O7 0.000000 0.663483 0.433634
O O8 0.085999 0.403761 0.693895
O O9 0.000000 0.323742 0.790502
O O10 0.162757 0.919692 0.166702
O O11 0.000000 0.951446 0.222491
O O12 0.142411 0.004535 0.276715
O O13 0.750000 0.663199 0.750000
O O14 0.250000 0.584434 0.250000
#
# Coordination Sequence:
#
# PCOD8263935 Si02
#       7
#    16   8   8  16  16  16   8
#     4  10  21  39  61  89 120 162 210 252 303 360
#     4  12  24  45  66  89 126 161 201 261 318 353
#     4  10  24  40  60  92 122 159 201 252 309 361
#     4  11  20  36  61  90 123 162 204 247 300 367
#     4  10  23  40  63  92 124 162 205 253 304 367
#     4  11  21  37  59  88 127 163 201 248 301 368
#     4  10  24  41  66  91 117 160 210 257 303 362
#
# _framework density 19.864629000000001
#
# number of rings (size 3 to 8) (size 9 to 14) (size 15 to 20)
#    0.000    1.455    2.727    3.273    0.000    4.364 
#    0.000    7.273    0.000    0.000    0.000    0.000 
#    0.000    0.000    0.000    0.000    0.000    0.000 
#
# Total GULP energy -545462.864475 kJ/mol
# GULP energy per Si atom -12396.883284 kJ/mol
# Density = 1.981942 g / cm^3
# Si number density = 19.864629 Si / 1000 Ang^3
#
#
#
# Elastic Constant Matrix: (Units=GPa)
#
#
# Indices 1 2 3 4 5 6 
#
# 1 172.2878 65.2994 45.3760 0.0000 0.0000 0.0000
# 2 65.2994 162.3177 50.1647 0.0000 0.0000 0.0000
# 3 45.3760 50.1647 75.9073 0.0000 0.0000 0.0000
# 4 0.0000 0.0000 0.0000 23.3392 0.0000 0.0000
# 5 0.0000 0.0000 0.0000 0.0000 33.2431 0.0000
# 6 0.0000 0.0000 0.0000 0.0000 0.0000 3.0700
#
#
#
# Elastic Compliance Matrix: (Units=1/GPa)
#
#
# Indices 1 2 3 4 5 6 
#
# 1 0.007380 -0.002017 -0.003078 0.000000 0.000000 0.000000
# 2 -0.002017 0.008294 -0.004275 0.000000 0.000000 0.000000
# 3 -0.003078 -0.004275 0.017839 0.000000 0.000000 0.000000
# 4 0.000000 0.000000 0.000000 0.042846 0.000000 0.000000
# 5 0.000000 0.000000 0.000000 0.000000 0.030081 0.000000
# 6 0.000000 0.000000 0.000000 0.000000 0.000000 0.325735
#
#
# Mechanical properties :
#
#
# Convention : Reuss Voigt Hill
#
# Bulk Modulus (GPa) = 67.69891 81.35479 74.52685
# Shear Modulus (GPa) = 10.96876 28.57529 19.77203
#
# Velocity S-wave (km/s) = 2.35239 3.79687 3.15832
# Velocity P-wave (km/s) = 6.44457 7.76306 7.13434
#
# Compressibility (1/GPa) = 0.01477129
#
# Stress axis : x y z
#
# Youngs Moduli (GPa) = 135.50919 120.57564 56.05647
#
# Poissons Ratio (x) = 0.24326 0.17255
# Poissons Ratio (y) = 0.27338 0.23964
# Poissons Ratio (z) = 0.41711 0.51545
#
# Static dielectric constant tensor:
#      x y z
#    x 4.023050 0.000000 0.000000 
#    y 0.000000 3.423520 0.000000 
#    z 0.000000 0.000000 3.659740 
# 
# 
# High freq. dielectric constant tensor:
#      x y z
#    x 1.802240 0.000000 0.000000 
#    y 0.000000 1.762370 0.000000 
#    z 0.000000 0.000000 1.767410 
# 
# From -- ./inp_files/14641.got.cif
#   From: 2010.03.12/outbox.cif.g09.slc.cpg/sg64_8_cif.got.tgz:14641.got - 2010.04.10 20:19:32.
