data_PCOD8263931
_publ_section_title
;
Structure prediction by ZEFSAII (Michael W. Deem and Ramdas Pophale) SiO2 
 PCOD8263931
Probable space group: C M C A
;
_chemical_formula_sum "Si O2"
_cell_formula_units_Z 80
_cell_length_a 16.872329
_cell_length_b 24.879567
_cell_length_c 9.069840
_cell_angle_alpha 90.000000
_cell_angle_beta 90.000000
_cell_angle_gamma 90.000000
_cell_volume 3807.303331
_symmetry_space_group_name_H-M "C M C A"
_symmetry_group_IT_number 64
_symmetry_cell_setting 'orthorhombic'
loop_
_space_group_symop_operation_xyz
x,y,z
-x,1/2-y,1/2+z
x,-y,-z
-x,1/2+y,1/2-z
-x,-y,-z
x,1/2+y,1/2-z
-x,y,z
x,1/2-y,1/2+z
1/2+x,1/2+y,z
1/2-x,-y,1/2+z
1/2+x,1/2-y,-z
1/2-x,y,1/2-z
1/2-x,1/2-y,-z
1/2+x,y,1/2-z
1/2-x,1/2+y,z
1/2+x,-y,1/2+z
loop_
_atom_site_type_symbol
_atom_site_label
_atom_site_fract_x
_atom_site_fract_y
_atom_site_fract_z
Si Si1 0.341218 0.714543 0.721593
Si Si2 0.092591 0.118493 0.907940
Si Si3 0.841991 0.396060 0.726179
Si Si4 0.909229 0.305934 0.910682
Si Si5 0.674220 0.986065 0.336357
O O1 0.250000 0.727391 0.750000
O O2 0.366857 0.659720 0.798300
O O3 0.393232 0.764061 0.779629
O O4 0.353958 0.709053 0.547531
O O5 0.000000 0.130026 0.921184
O O6 0.105896 0.058772 0.842195
O O7 0.132474 0.125713 0.066744
O O8 0.750000 0.383428 0.750000
O O9 0.891213 0.365934 0.852615
O O10 0.859503 0.459890 0.740638
O O11 0.000000 0.303174 0.961553
O O12 0.750000 0.962843 0.250000
O O13 0.704356 0.000000 0.500000
#
# Coordination Sequence:
#
# PCOD8263931 Si02
#       5
#    16  16  16  16  16
#     4  12  25  43  64  87 118 159 201 241 295 361
#     4  11  22  38  61  90 123 158 199 248 300 350
#     4  10  21  39  61  88 120 160 203 242 291 355
#     4  12  24  40  62  90 121 152 195 250 303 350
#     4   9  20  37  60  87 119 160 204 245 292 353
#
# _framework density 21.012248
#
# number of rings (size 3 to 8) (size 9 to 14) (size 15 to 20)
#    0.000    1.200    0.000    6.600    0.000    7.600 
#    0.000    0.000    0.000    3.000    0.000    0.000 
#    0.000    0.000    0.000    0.000    0.000    0.000 
#
# Total GULP energy -496238.705676 kJ/mol
# GULP energy per Si atom -12405.967642 kJ/mol
# Density = 2.096442 g / cm^3
# Si number density = 21.012248 Si / 1000 Ang^3
#
#
#
# Elastic Constant Matrix: (Units=GPa)
#
#
# Indices 1 2 3 4 5 6 
#
# 1 92.7133 15.0949 17.1595 0.0000 0.0000 0.0000
# 2 15.0949 59.2281 22.8001 0.0000 0.0000 0.0000
# 3 17.1595 22.8001 82.1015 0.0000 0.0000 0.0000
# 4 0.0000 0.0000 0.0000 -2.8247 0.0000 0.0000
# 5 0.0000 0.0000 0.0000 0.0000 33.1556 0.0000
# 6 0.0000 0.0000 0.0000 0.0000 0.0000 15.6918
#
#
#
# Elastic Compliance Matrix: (Units=1/GPa)
#
#
# Indices 1 2 3 4 5 6 
#
# 1 0.011480 -0.002242 -0.001777 0.000000 0.000000 0.000000
# 2 -0.002242 0.019343 -0.004903 0.000000 0.000000 0.000000
# 3 -0.001777 -0.004903 0.013913 0.000000 0.000000 0.000000
# 4 0.000000 0.000000 0.000000 -0.354022 0.000000 0.000000
# 5 0.000000 0.000000 0.000000 0.000000 0.030161 0.000000
# 6 0.000000 0.000000 0.000000 0.000000 0.000000 0.063728
#
#
# Mechanical properties :
#
#
# Convention : Reuss Voigt Hill
#
# Bulk Modulus (GPa) = 37.18540 38.23912 37.71226
# Shear Modulus (GPa) = -26.51241 21.13709 -2.68766
#
# Velocity S-wave (km/s) = -3.55598 3.17510 -1.13220
# Velocity P-wave (km/s) = 0.93565 5.62847 4.03455
#
# Compressibility (1/GPa) = 0.02689228
#
# Stress axis : x y z
#
# Youngs Moduli (GPa) = 87.10972 51.69919 71.87525
#
# Poissons Ratio (x) = 0.11590 0.12770
# Poissons Ratio (y) = 0.19528 0.35241
# Poissons Ratio (z) = 0.15477 0.25348
#
# Static dielectric constant tensor:
#      x y z
#    x 3.767070 0.000000 0.000000 
#    y 0.000000 4.030080 0.000000 
#    z 0.000000 0.000000 3.773990 
# 
# 
# High freq. dielectric constant tensor:
#      x y z
#    x 1.819750 0.000000 0.000000 
#    y 0.000000 1.837560 0.000000 
#    z 0.000000 0.000000 1.826840 
# 
# From -- ./inp_files/7059.got.cif
#   From: 2010.03.12/outbox.cif.g09.slc.cpg/sg64_4_cif.got.tgz:7059.got - 2010.04.10 20:19:32.
