data_PCOD8263936
_publ_section_title
;
Structure prediction by ZEFSAII (Michael W. Deem and Ramdas Pophale) SiO2 
 PCOD8263936
Probable space group: C M C A
;
_chemical_formula_sum "Si O2"
_cell_formula_units_Z 56
_cell_length_a 37.090354
_cell_length_b 4.969114
_cell_length_c 13.591955
_cell_angle_alpha 90.000000
_cell_angle_beta 90.000000
_cell_angle_gamma 90.000000
_cell_volume 2505.081540
_symmetry_space_group_name_H-M "C M C A"
_symmetry_group_IT_number 64
_symmetry_cell_setting 'orthorhombic'
loop_
_space_group_symop_operation_xyz
x,y,z
-x,1/2-y,1/2+z
x,-y,-z
-x,1/2+y,1/2-z
-x,-y,-z
x,1/2+y,1/2-z
-x,y,z
x,1/2-y,1/2+z
1/2+x,1/2+y,z
1/2-x,-y,1/2+z
1/2+x,1/2-y,-z
1/2-x,y,1/2-z
1/2-x,1/2-y,-z
1/2+x,y,1/2-z
1/2-x,1/2+y,z
1/2+x,-y,1/2+z
loop_
_atom_site_type_symbol
_atom_site_label
_atom_site_fract_x
_atom_site_fract_y
_atom_site_fract_z
Si Si1 0.039947 0.184853 0.814766
Si Si2 0.392569 0.744595 0.936407
Si Si3 0.824705 0.136522 0.315147
Si Si4 0.724138 0.500000 0.500000
O O1 0.044790 0.489438 0.778252
O O2 0.070648 0.120682 0.893740
O O3 0.000000 0.143989 0.861555
O O4 0.365962 0.851608 0.851267
O O5 0.374557 0.500000 0.000000
O O6 0.403183 0.000000 0.000000
O O7 0.816694 0.434928 0.275127
O O8 0.800596 0.035368 0.404918
O O9 0.750000 0.250000 0.500000
#
# Coordination Sequence:
#
# PCOD8263936 Si02
#       4
#    16  16  16   8
#     4  10  21  39  61  90 130 177 230 285 343 407
#     4  12  24  40  66  97 137 177 232 291 337 404
#     4  12  26  46  74 102 140 185 228 277 347 411
#     4  12  28  48  74 106 143 174 227 288 336 416
#
# _framework density 22.354562999999999
#
# number of rings (size 3 to 8) (size 9 to 14) (size 15 to 20)
#    0.000    0.571    1.429    6.857    2.000    4.571 
#    0.000    0.000    0.000    0.000    0.000    0.000 
#    0.000    0.000    0.000    0.000    0.000    0.000 
#
# Total GULP energy -347195.325762 kJ/mol
# GULP energy per Si atom -12399.833063 kJ/mol
# Density = 2.230368 g / cm^3
# Si number density = 22.354563 Si / 1000 Ang^3
#
#
#
# Elastic Constant Matrix: (Units=GPa)
#
#
# Indices 1 2 3 4 5 6 
#
# 1 125.2934 37.3925 53.2559 0.0000 0.0000 0.0000
# 2 37.3925 121.7781 30.7878 0.0000 0.0000 0.0000
# 3 53.2559 30.7878 98.0603 0.0000 0.0000 0.0000
# 4 0.0000 0.0000 0.0000 43.2420 0.0000 0.0000
# 5 0.0000 0.0000 0.0000 0.0000 76.7475 0.0000
# 6 0.0000 0.0000 0.0000 0.0000 0.0000 35.8464
#
#
#
# Elastic Compliance Matrix: (Units=1/GPa)
#
#
# Indices 1 2 3 4 5 6 
#
# 1 0.010804 -0.001992 -0.005242 0.000000 0.000000 0.000000
# 2 -0.001992 0.009287 -0.001834 0.000000 0.000000 0.000000
# 3 -0.005242 -0.001834 0.013621 0.000000 0.000000 0.000000
# 4 0.000000 0.000000 0.000000 0.023126 0.000000 0.000000
# 5 0.000000 0.000000 0.000000 0.000000 0.013030 0.000000
# 6 0.000000 0.000000 0.000000 0.000000 0.000000 0.027897
#
#
# Mechanical properties :
#
#
# Convention : Reuss Voigt Hill
#
# Bulk Modulus (GPa) = 64.20443 65.33379 64.76911
# Shear Modulus (GPa) = 41.29104 46.08022 43.68563
#
# Velocity S-wave (km/s) = 4.30245 4.54512 4.42545
# Velocity P-wave (km/s) = 7.31196 7.53881 7.42625
#
# Compressibility (1/GPa) = 0.01557525
#
# Stress axis : x y z
#
# Youngs Moduli (GPa) = 92.55881 107.67755 73.41851
#
# Poissons Ratio (x) = 0.21450 0.38487
# Poissons Ratio (y) = 0.18439 0.13464
# Poissons Ratio (z) = 0.48520 0.19747
#
# Static dielectric constant tensor:
#      x y z
#    x 4.030170 0.000000 0.000000 
#    y 0.000000 5.307820 0.000000 
#    z 0.000000 0.000000 4.155570 
# 
# 
# High freq. dielectric constant tensor:
#      x y z
#    x 1.887050 0.000000 0.000000 
#    y 0.000000 1.902100 0.000000 
#    z 0.000000 0.000000 1.873950 
# 
# From -- ./inp_files/28211.got.cif
#   From: 2010.03.12/outbox.cif.g09.slc.cpg/sg64_15_cif.got.tgz:28211.got - 2010.04.10 20:19:32.
