data_PCOD8263059
_publ_section_title
;
Structure prediction by ZEFSAII (Michael W. Deem and Ramdas Pophale) SiO2 
 PCOD8263059
Probable space group: C M C A
;
_chemical_formula_sum "Si O2"
_cell_formula_units_Z 96
_cell_length_a 19.328450
_cell_length_b 11.918185
_cell_length_c 21.334494
_cell_angle_alpha 90.000000
_cell_angle_beta 90.000000
_cell_angle_gamma 90.000000
_cell_volume 4914.614952
_symmetry_space_group_name_H-M "C M C A"
_symmetry_group_IT_number 64
_symmetry_cell_setting 'orthorhombic'
loop_
_space_group_symop_operation_xyz
x,y,z
-x,1/2-y,1/2+z
x,-y,-z
-x,1/2+y,1/2-z
-x,-y,-z
x,1/2+y,1/2-z
-x,y,z
x,1/2-y,1/2+z
1/2+x,1/2+y,z
1/2-x,-y,1/2+z
1/2+x,1/2-y,-z
1/2-x,y,1/2-z
1/2-x,1/2-y,-z
1/2+x,y,1/2-z
1/2-x,1/2+y,z
1/2+x,-y,1/2+z
loop_
_atom_site_type_symbol
_atom_site_label
_atom_site_fract_x
_atom_site_fract_y
_atom_site_fract_z
Si Si1 0.418397 0.776025 0.103711
Si Si2 0.687860 0.843246 0.827151
Si Si3 0.922093 0.129927 0.985822
Si Si4 0.825762 0.606524 0.625010
Si Si5 0.847243 0.112327 0.193687
Si Si6 0.679446 0.978240 0.074002
O O1 0.500000 0.798059 0.106820
O O2 0.394779 0.711385 0.166316
O O3 0.380224 0.893587 0.095454
O O4 0.396101 0.697653 0.045965
O O5 0.683042 0.708914 0.827270
O O6 0.767787 0.868120 0.819727
O O7 0.642661 0.890774 0.768898
O O8 0.662827 0.904819 0.890617
O O9 0.873553 0.159389 0.928399
O O10 0.000000 0.164287 0.968285
O O11 0.915407 0.000000 0.000000
O O12 0.865632 0.507391 0.662053
O O13 0.753562 0.569710 0.594398
O O14 0.677890 0.000000 0.000000
#
# Coordination Sequence:
#
# PCOD8263059 Si02
#       6
#    16  16  16  16  16  16
#     4  11  23  41  63  88 130 171 205 255 314 377
#     4  10  23  38  62  92 124 160 205 262 310 373
#     4  10  20  35  58  90 123 159 203 254 312 361
#     4  11  21  37  65  92 126 158 207 266 302 367
#     4  10  22  38  60  91 120 164 210 251 313 362
#     4  11  24  39  63  98 128 162 210 255 321 374
#
# _framework density 19.533574999999999
#
# number of rings (size 3 to 8) (size 9 to 14) (size 15 to 20)
#    0.000    1.500    3.333    1.500    4.667    3.000 
#    0.000    2.500    0.000    0.000    0.000    0.000 
#    0.000    0.000    0.000    0.000    0.000    0.000 
#
# Total GULP energy -595205.665152 kJ/mol
# GULP energy per Si atom -12400.118024 kJ/mol
# Density = 1.948912 g / cm^3
# Si number density = 19.533575 Si / 1000 Ang^3
#
#
#
# Elastic Constant Matrix: (Units=GPa)
#
#
# Indices 1 2 3 4 5 6 
#
# 1 50.1085 19.7523 36.1614 0.0000 0.0000 0.0000
# 2 19.7523 108.6640 45.7905 0.0000 0.0000 0.0000
# 3 36.1614 45.7905 132.6156 0.0000 0.0000 0.0000
# 4 0.0000 0.0000 0.0000 25.6040 0.0000 0.0000
# 5 0.0000 0.0000 0.0000 0.0000 13.0985 0.0000
# 6 0.0000 0.0000 0.0000 0.0000 0.0000 23.7429
#
#
#
# Elastic Compliance Matrix: (Units=1/GPa)
#
#
# Indices 1 2 3 4 5 6 
#
# 1 0.025202 -0.001972 -0.006191 0.000000 0.000000 0.000000
# 2 -0.001972 0.010924 -0.003234 0.000000 0.000000 0.000000
# 3 -0.006191 -0.003234 0.010345 0.000000 0.000000 0.000000
# 4 0.000000 0.000000 0.000000 0.039056 0.000000 0.000000
# 5 0.000000 0.000000 0.000000 0.000000 0.076345 0.000000
# 6 0.000000 0.000000 0.000000 0.000000 0.000000 0.042118
#
#
# Mechanical properties :
#
#
# Convention : Reuss Voigt Hill
#
# Bulk Modulus (GPa) = 42.23568 54.97738 48.60653
# Shear Modulus (GPa) = 21.30584 25.13468 23.22026
#
# Velocity S-wave (km/s) = 3.30620 3.59101 3.45155
# Velocity P-wave (km/s) = 6.02027 6.73795 6.38920
#
# Compressibility (1/GPa) = 0.02367666
#
# Stress axis : x y z
#
# Youngs Moduli (GPa) = 39.67948 91.54136 96.66067
#
# Poissons Ratio (x) = 0.18054 0.59843
# Poissons Ratio (y) = 0.07825 0.31262
# Poissons Ratio (z) = 0.24566 0.29606
#
# Static dielectric constant tensor:
#      x y z
#    x 3.432360 0.000000 0.000000 
#    y 0.000000 3.739900 0.000000 
#    z 0.000000 0.000000 3.916930 
# 
# 
# High freq. dielectric constant tensor:
#      x y z
#    x 1.741980 0.000000 0.000000 
#    y 0.000000 1.769600 0.000000 
#    z 0.000000 0.000000 1.766960 
# 
# From -- ./inp_files/40847.got.cif
#   From: 2010.03.12/outbox.cif.g09.slc.cpg/sg64_21_cif.got.tgz:40847.got - 2010.04.10 20:19:32.
