data_PCOD8263276
_publ_section_title
;
Structure prediction by ZEFSAII (Michael W. Deem and Ramdas Pophale) SiO2 
 PCOD8263276
Probable space group: C M C A
;
_chemical_formula_sum "Si O2"
_cell_formula_units_Z 112
_cell_length_a 18.594176
_cell_length_b 26.805660
_cell_length_c 11.843620
_cell_angle_alpha 90.000000
_cell_angle_beta 90.000000
_cell_angle_gamma 90.000000
_cell_volume 5903.205566
_symmetry_space_group_name_H-M "C M C A"
_symmetry_group_IT_number 64
_symmetry_cell_setting 'orthorhombic'
loop_
_space_group_symop_operation_xyz
x,y,z
-x,1/2-y,1/2+z
x,-y,-z
-x,1/2+y,1/2-z
-x,-y,-z
x,1/2+y,1/2-z
-x,y,z
x,1/2-y,1/2+z
1/2+x,1/2+y,z
1/2-x,-y,1/2+z
1/2+x,1/2-y,-z
1/2-x,y,1/2-z
1/2-x,1/2-y,-z
1/2+x,y,1/2-z
1/2-x,1/2+y,z
1/2+x,-y,1/2+z
loop_
_atom_site_type_symbol
_atom_site_label
_atom_site_fract_x
_atom_site_fract_y
_atom_site_fract_z
Si Si1 0.081531 0.410012 0.247713
Si Si2 0.858444 0.654189 0.406555
Si Si3 0.719407 0.695360 0.467699
Si Si4 0.714677 0.607550 0.630146
Si Si5 0.418117 0.299332 0.684416
Si Si6 0.846777 0.943198 0.032930
Si Si7 0.920000 0.809836 0.133110
O O1 0.136409 0.419478 0.143602
O O2 0.101075 0.441103 0.358990
O O3 0.096049 0.352377 0.276711
O O4 0.000000 0.421834 0.210144
O O5 0.775168 0.667865 0.381589
O O6 0.906173 0.670380 0.300374
O O7 0.873055 0.595504 0.434746
O O8 0.871799 0.686563 0.520879
O O9 0.750000 0.750000 0.500000
O O10 0.711187 0.662842 0.580121
O O11 0.640873 0.690064 0.411034
O O12 0.750000 0.615360 0.750000
O O13 0.764047 0.570491 0.557444
O O14 0.500000 0.311759 0.642769
O O15 0.409767 0.240318 0.705591
O O16 0.851307 0.000000 0.000000
O O17 0.000000 0.815372 0.084612
#
# Coordination Sequence:
#
# PCOD8263276 Si02
#       7
#    16  16  16  16  16  16  16
#     4   9  18  33  56  86 111 138 188 236 281 344
#     4  10  20  37  56  80 109 147 193 240 277 331
#     4  11  22  35  53  79 114 149 190 236 269 331
#     4   9  20  36  57  82 108 145 188 231 286 335
#     4  11  23  36  52  80 116 155 188 223 286 344
#     4   9  19  38  61  83 110 147 194 245 292 332
#     4   9  18  32  50  76 110 147 183 226 277 335
#
# _framework density 18.972743000000001
#
# number of rings (size 3 to 8) (size 9 to 14) (size 15 to 20)
#    0.000    2.286    1.429    1.714    2.000    1.429 
#    0.000    8.571    0.000    0.429    0.000    0.000 
#    0.000    0.000    0.000    0.000    0.000    0.000 
#
# Total GULP energy -693802.277394 kJ/mol
# GULP energy per Si atom -12389.326382 kJ/mol
# Density = 1.892956 g / cm^3
# Si number density = 18.972743 Si / 1000 Ang^3
#
#
#
# Elastic Constant Matrix: (Units=GPa)
#
#
# Indices 1 2 3 4 5 6 
#
# 1 124.0146 25.2314 24.4133 0.0000 0.0000 0.0000
# 2 25.2314 116.9628 39.9910 0.0000 0.0000 0.0000
# 3 24.4133 39.9910 50.6734 0.0000 0.0000 0.0000
# 4 0.0000 0.0000 0.0000 18.1361 0.0000 0.0000
# 5 0.0000 0.0000 0.0000 0.0000 26.1379 0.0000
# 6 0.0000 0.0000 0.0000 0.0000 0.0000 16.4636
#
#
#
# Elastic Compliance Matrix: (Units=1/GPa)
#
#
# Indices 1 2 3 4 5 6 
#
# 1 0.008942 -0.000624 -0.003815 0.000000 0.000000 0.000000
# 2 -0.000624 0.011753 -0.008974 0.000000 0.000000 0.000000
# 3 -0.003815 -0.008974 0.028655 0.000000 0.000000 0.000000
# 4 0.000000 0.000000 0.000000 0.055139 0.000000 0.000000
# 5 0.000000 0.000000 0.000000 0.000000 0.038259 0.000000
# 6 0.000000 0.000000 0.000000 0.000000 0.000000 0.060740
#
#
# Mechanical properties :
#
#
# Convention : Reuss Voigt Hill
#
# Bulk Modulus (GPa) = 44.40219 52.32467 48.36343
# Shear Modulus (GPa) = 21.02416 25.61520 23.31968
#
# Velocity S-wave (km/s) = 3.33246 3.67836 3.50968
# Velocity P-wave (km/s) = 6.18555 6.75864 6.47843
#
# Compressibility (1/GPa) = 0.02252141
#
# Stress axis : x y z
#
# Youngs Moduli (GPa) = 111.83627 85.08531 34.89820
#
# Poissons Ratio (x) = 0.05314 0.13314
# Poissons Ratio (y) = 0.06984 0.31319
# Poissons Ratio (z) = 0.42666 0.76359
#
# Static dielectric constant tensor:
#      x y z
#    x 4.162600 0.000000 0.000000 
#    y 0.000000 3.351890 0.000000 
#    z 0.000000 0.000000 3.319000 
# 
# 
# High freq. dielectric constant tensor:
#      x y z
#    x 1.759540 0.000000 0.000000 
#    y 0.000000 1.712060 0.000000 
#    z 0.000000 0.000000 1.709680 
# 
# From -- ./inp_files/17556.got.cif
#   From: 2010.03.12/outbox.cif.g09.slc.cpg/sg64_9_cif.got.tgz:17556.got - 2010.04.10 20:19:32.
