data_PCOD8263470
_publ_section_title
;
Structure prediction by ZEFSAII (Michael W. Deem and Ramdas Pophale) SiO2 
 PCOD8263470
Probable space group: C M C A
;
_chemical_formula_sum "Si O2"
_cell_formula_units_Z 64
_cell_length_a 15.336559
_cell_length_b 19.804402
_cell_length_c 8.832298
_cell_angle_alpha 90.000000
_cell_angle_beta 90.000000
_cell_angle_gamma 90.000000
_cell_volume 2682.646058
_symmetry_space_group_name_H-M "C M C A"
_symmetry_group_IT_number 64
_symmetry_cell_setting 'orthorhombic'
loop_
_space_group_symop_operation_xyz
x,y,z
-x,1/2-y,1/2+z
x,-y,-z
-x,1/2+y,1/2-z
-x,-y,-z
x,1/2+y,1/2-z
-x,y,z
x,1/2-y,1/2+z
1/2+x,1/2+y,z
1/2-x,-y,1/2+z
1/2+x,1/2-y,-z
1/2-x,y,1/2-z
1/2-x,1/2-y,-z
1/2+x,y,1/2-z
1/2-x,1/2+y,z
1/2+x,-y,1/2+z
loop_
_atom_site_type_symbol
_atom_site_label
_atom_site_fract_x
_atom_site_fract_y
_atom_site_fract_z
Si Si1 0.331858 0.704488 0.945841
Si Si2 0.603625 0.067339 0.074909
Si Si3 0.602570 0.928735 0.578138
Si Si4 0.903659 0.189054 0.625799
O O1 0.339085 0.703524 0.764640
O O2 0.250000 0.750000 0.000000
O O3 0.335850 0.627177 0.000766
O O4 0.413011 0.743973 0.022466
O O5 0.500000 0.068134 0.066623
O O6 0.633409 0.070008 0.248163
O O7 0.639415 0.130337 0.977420
O O8 0.642368 0.000000 0.000000
O O9 0.500000 0.911487 0.560669
O O10 0.623333 0.000000 0.500000
O O11 0.000000 0.168533 0.684993
#
# Coordination Sequence:
#
# PCOD8263470 Si02
#       4
#    16  16  16  16
#     4  12  25  41  61  94 135 172 213 274 347 409
#     4   9  18  34  60  96 130 162 213 283 344 392
#     4  10  20  38  67 100 134 176 231 288 340 405
#     4  11  22  39  64  91 126 175 230 279 328 401
#
# _framework density 23.857042
#
# number of rings (size 3 to 8) (size 9 to 14) (size 15 to 20)
#    0.000    1.500    0.000    6.000    0.000    6.000 
#    0.000    1.250    0.000    3.000    0.000    0.000 
#    0.000    0.000    0.000    0.000    0.000    0.250 
#
# Total GULP energy -396693.653547 kJ/mol
# GULP energy per Si atom -12396.676673 kJ/mol
# Density = 2.380274 g / cm^3
# Si number density = 23.857042 Si / 1000 Ang^3
#
#
#
# Elastic Constant Matrix: (Units=GPa)
#
#
# Indices 1 2 3 4 5 6 
#
# 1 81.5127 35.5611 29.6787 0.0000 0.0000 0.0000
# 2 35.5611 205.0553 96.7209 0.0000 0.0000 0.0000
# 3 29.6787 96.7209 216.0169 0.0000 0.0000 0.0000
# 4 0.0000 0.0000 0.0000 56.7944 0.0000 0.0000
# 5 0.0000 0.0000 0.0000 0.0000 22.2249 0.0000
# 6 0.0000 0.0000 0.0000 0.0000 0.0000 27.8421
#
#
#
# Elastic Compliance Matrix: (Units=1/GPa)
#
#
# Indices 1 2 3 4 5 6 
#
# 1 0.013447 -0.001852 -0.001018 0.000000 0.000000 0.000000
# 2 -0.001852 0.006437 -0.002628 0.000000 0.000000 0.000000
# 3 -0.001018 -0.002628 0.005946 0.000000 0.000000 0.000000
# 4 0.000000 0.000000 0.000000 0.017607 0.000000 0.000000
# 5 0.000000 0.000000 0.000000 0.000000 0.044995 0.000000
# 6 0.000000 0.000000 0.000000 0.000000 0.000000 0.035917
#
#
# Mechanical properties :
#
#
# Convention : Reuss Voigt Hill
#
# Bulk Modulus (GPa) = 67.41267 91.83404 79.62335
# Shear Modulus (GPa) = 35.64072 44.08057 39.86064
#
# Velocity S-wave (km/s) = 3.86933 4.30315 4.09199
# Velocity P-wave (km/s) = 6.94842 7.95402 7.46817
#
# Compressibility (1/GPa) = 0.01483401
#
# Stress axis : x y z
#
# Youngs Moduli (GPa) = 74.36827 155.34254 168.18493
#
# Poissons Ratio (x) = 0.28763 0.17128
# Poissons Ratio (y) = 0.13770 0.44198
# Poissons Ratio (z) = 0.07574 0.40823
#
# Static dielectric constant tensor:
#      x y z
#    x 3.965660 0.000000 0.000000 
#    y 0.000000 4.579520 0.000000 
#    z 0.000000 0.000000 4.418450 
# 
# 
# High freq. dielectric constant tensor:
#      x y z
#    x 1.930260 0.000000 0.000000 
#    y 0.000000 1.958540 0.000000 
#    z 0.000000 0.000000 1.958080 
# 
# From -- ./inp_files/6556.got.cif
#   From: 2010.03.12/outbox.cif.g09.slc.cpg/sg64_4_cif.got.tgz:6556.got - 2010.04.10 20:19:32.
