data_PCOD8263971
_publ_section_title
;
Structure prediction by ZEFSAII (Michael W. Deem and Ramdas Pophale) SiO2 
 PCOD8263971
Probable space group: C M C A
;
_chemical_formula_sum "Si O2"
_cell_formula_units_Z 72
_cell_length_a 9.231329
_cell_length_b 22.449877
_cell_length_c 16.299745
_cell_angle_alpha 90.000000
_cell_angle_beta 90.000000
_cell_angle_gamma 90.000000
_cell_volume 3377.995023
_symmetry_space_group_name_H-M "C M C A"
_symmetry_group_IT_number 64
_symmetry_cell_setting 'orthorhombic'
loop_
_space_group_symop_operation_xyz
x,y,z
-x,1/2-y,1/2+z
x,-y,-z
-x,1/2+y,1/2-z
-x,-y,-z
x,1/2+y,1/2-z
-x,y,z
x,1/2-y,1/2+z
1/2+x,1/2+y,z
1/2-x,-y,1/2+z
1/2+x,1/2-y,-z
1/2-x,y,1/2-z
1/2-x,1/2-y,-z
1/2+x,y,1/2-z
1/2-x,1/2+y,z
1/2+x,-y,1/2+z
loop_
_atom_site_type_symbol
_atom_site_label
_atom_site_fract_x
_atom_site_fract_y
_atom_site_fract_z
Si Si1 0.828949 0.637879 0.046704
Si Si2 0.250000 0.180750 0.750000
Si Si3 0.162053 0.401264 0.388795
Si Si4 0.162224 0.205043 0.174649
Si Si5 0.341222 0.511060 0.403753
O O1 0.749332 0.693268 0.090342
O O2 0.797408 0.580437 0.105124
O O3 0.000000 0.650470 0.038034
O O4 0.763451 0.629468 0.956460
O O5 0.152663 0.139279 0.807972
O O6 0.152591 0.223657 0.691628
O O7 0.225382 0.466286 0.363466
O O8 0.000000 0.409664 0.423662
O O9 0.250000 0.174167 0.250000
O O10 0.000000 0.178901 0.168687
O O11 0.349986 0.500000 0.500000
O O12 0.500000 0.499095 0.364468
#
# Coordination Sequence:
#
# PCOD8263971 Si02
#       5
#    16   8  16  16  16
#     4  10  21  39  64  92 122 158 199 246 301 358
#     4  10  26  42  58  80 124 160 198 252 306 352
#     4  11  22  38  63  91 120 159 203 247 299 361
#     4  10  22  41  63  85 117 156 198 250 298 350
#     4   8  17  35  58  87 121 152 186 238 296 351
#
# _framework density 21.314418
#
# number of rings (size 3 to 8) (size 9 to 14) (size 15 to 20)
#    0.667    1.556    0.000    4.000    0.000    9.333 
#    2.000    0.000    0.000    0.000    0.000    0.000 
#    0.000    0.000    0.000    0.000    0.000    0.000 
#
# Total GULP energy -446112.818492 kJ/mol
# GULP energy per Si atom -12392.022736 kJ/mol
# Density = 2.126591 g / cm^3
# Si number density = 21.314418 Si / 1000 Ang^3
#
#
#
# Elastic Constant Matrix: (Units=GPa)
#
#
# Indices 1 2 3 4 5 6 
#
# 1 171.0728 45.4531 45.0097 0.0000 0.0000 0.0000
# 2 45.4531 93.0373 42.3813 0.0000 0.0000 0.0000
# 3 45.0097 42.3813 61.2236 0.0000 0.0000 0.0000
# 4 0.0000 0.0000 0.0000 31.9334 0.0000 0.0000
# 5 0.0000 0.0000 0.0000 0.0000 25.4525 0.0000
# 6 0.0000 0.0000 0.0000 0.0000 0.0000 13.0797
#
#
#
# Elastic Compliance Matrix: (Units=1/GPa)
#
#
# Indices 1 2 3 4 5 6 
#
# 1 0.007420 -0.001665 -0.004302 0.000000 0.000000 0.000000
# 2 -0.001665 0.016072 -0.009902 0.000000 0.000000 0.000000
# 3 -0.004302 -0.009902 0.026351 0.000000 0.000000 0.000000
# 4 0.000000 0.000000 0.000000 0.031315 0.000000 0.000000
# 5 0.000000 0.000000 0.000000 0.000000 0.039289 0.000000
# 6 0.000000 0.000000 0.000000 0.000000 0.000000 0.076455
#
#
# Mechanical properties :
#
#
# Convention : Reuss Voigt Hill
#
# Bulk Modulus (GPa) = 55.23382 65.66912 60.45147
# Shear Modulus (GPa) = 21.30610 26.92576 24.11593
#
# Velocity S-wave (km/s) = 3.16509 3.55810 3.36733
# Velocity P-wave (km/s) = 6.27114 6.91062 6.59863
#
# Compressibility (1/GPa) = 0.01810485
#
# Stress axis : x y z
#
# Youngs Moduli (GPa) = 134.77482 62.21826 37.94963
#
# Poissons Ratio (x) = 0.10360 0.16326
# Poissons Ratio (y) = 0.22442 0.37577
# Poissons Ratio (z) = 0.57981 0.61607
#
# Static dielectric constant tensor:
#      x y z
#    x 3.722180 0.000000 0.000000 
#    y 0.000000 4.085450 0.000000 
#    z 0.000000 0.000000 3.414360 
# 
# 
# High freq. dielectric constant tensor:
#      x y z
#    x 1.837000 0.000000 0.000000 
#    y 0.000000 1.829010 0.000000 
#    z 0.000000 0.000000 1.806080 
# 
# From -- ./inp_files/29500.got.cif
#   From: 2010.03.12/outbox.cif.g09.slc.cpg/sg64_15_cif.got.tgz:29500.got - 2010.04.10 20:19:32.
