data_PCOD8263164
_publ_section_title
;
Structure prediction by ZEFSAII (Michael W. Deem and Ramdas Pophale) SiO2 
 PCOD8263164
Probable space group: C M C A
;
_chemical_formula_sum "Si O2"
_cell_formula_units_Z 64
_cell_length_a 16.307565
_cell_length_b 10.436927
_cell_length_c 18.520017
_cell_angle_alpha 90.000000
_cell_angle_beta 90.000000
_cell_angle_gamma 90.000000
_cell_volume 3152.122922
_symmetry_space_group_name_H-M "C M C A"
_symmetry_group_IT_number 64
_symmetry_cell_setting 'orthorhombic'
loop_
_space_group_symop_operation_xyz
x,y,z
-x,1/2-y,1/2+z
x,-y,-z
-x,1/2+y,1/2-z
-x,-y,-z
x,1/2+y,1/2-z
-x,y,z
x,1/2-y,1/2+z
1/2+x,1/2+y,z
1/2-x,-y,1/2+z
1/2+x,1/2-y,-z
1/2-x,y,1/2-z
1/2-x,1/2-y,-z
1/2+x,y,1/2-z
1/2-x,1/2+y,z
1/2+x,-y,1/2+z
loop_
_atom_site_type_symbol
_atom_site_label
_atom_site_fract_x
_atom_site_fract_y
_atom_site_fract_z
Si Si1 0.595692 0.608406 0.942680
Si Si2 0.164571 0.108346 0.788903
Si Si3 0.094490 0.873281 0.710867
Si Si4 0.404752 0.608481 0.449290
O O1 0.500000 0.594984 0.916582
O O2 0.659535 0.599612 0.876129
O O3 0.607555 0.747663 0.980703
O O4 0.618910 0.500000 0.000000
O O5 0.250000 0.138526 0.750000
O O6 0.107458 0.226641 0.763856
O O7 0.136498 0.969117 0.765272
O O8 0.133345 0.896300 0.631235
O O9 0.000000 0.904886 0.710742
O O10 0.362280 0.500000 0.500000
O O11 0.500000 0.575029 0.442714
#
# Coordination Sequence:
#
# PCOD8263164 Si02
#       4
#    16  16  16  16
#     4   9  18  34  57  84 114 151 198 245 288 347
#     4  11  22  37  56  84 119 151 187 240 302 353
#     4  10  20  36  58  82 111 152 200 242 284 348
#     4   8  15  29  50  78 107 135 178 237 287 327
#
# _framework density 20.303775999999999
#
# number of rings (size 3 to 8) (size 9 to 14) (size 15 to 20)
#    0.000    2.500    0.000    4.500    0.000    2.000 
#    0.000    6.250    0.000    7.500    0.000    0.000 
#    0.000    0.000    0.000    0.000    0.000    0.250 
#
# Total GULP energy -396458.851770 kJ/mol
# GULP energy per Si atom -12389.339118 kJ/mol
# Density = 2.025756 g / cm^3
# Si number density = 20.303776 Si / 1000 Ang^3
#
#
#
# Elastic Constant Matrix: (Units=GPa)
#
#
# Indices 1 2 3 4 5 6 
#
# 1 41.6572 4.1974 31.5764 0.0000 0.0000 0.0000
# 2 4.1974 146.0853 61.4576 0.0000 0.0000 0.0000
# 3 31.5764 61.4576 92.4027 0.0000 0.0000 0.0000
# 4 0.0000 0.0000 0.0000 -6.9107 0.0000 0.0000
# 5 0.0000 0.0000 0.0000 0.0000 822.3518 0.0000
# 6 0.0000 0.0000 0.0000 0.0000 0.0000 14.0669
#
#
#
# Elastic Compliance Matrix: (Units=1/GPa)
#
#
# Indices 1 2 3 4 5 6 
#
# 1 0.035483 0.005667 -0.015895 0.000000 0.000000 0.000000
# 2 0.005667 0.010410 -0.008860 0.000000 0.000000 0.000000
# 3 -0.015895 -0.008860 0.022147 0.000000 0.000000 0.000000
# 4 0.000000 0.000000 0.000000 -0.144702 0.000000 0.000000
# 5 0.000000 0.000000 0.000000 0.000000 0.001216 0.000000
# 6 0.000000 0.000000 0.000000 0.000000 0.000000 0.071089
#
#
# Mechanical properties :
#
#
# Convention : Reuss Voigt Hill
#
# Bulk Modulus (GPa) = 33.48511 52.73422 43.10966
# Shear Modulus (GPa) = 114.22643 178.09584 146.16114
#
# Velocity S-wave (km/s) = 7.50872 9.37582 8.49373
# Velocity P-wave (km/s) = 9.57613 11.96817 10.83834
#
# Compressibility (1/GPa) = 0.02986402
#
# Stress axis : x y z
#
# Youngs Moduli (GPa) = 28.18274 96.06107 45.15286
#
# Poissons Ratio (x) = -0.54441 0.71769
# Poissons Ratio (y) = -0.15972 0.40008
# Poissons Ratio (z) = 0.44796 0.85115
#
# Static dielectric constant tensor:
#      x y z
#    x 3.445140 0.000000 0.000000 
#    y 0.000000 3.944140 0.000000 
#    z 0.000000 0.000000 3.258010 
# 
# 
# High freq. dielectric constant tensor:
#      x y z
#    x 1.754480 0.000000 0.000000 
#    y 0.000000 1.816310 0.000000 
#    z 0.000000 0.000000 1.778750 
# 
# From -- ./inp_files/31643.got.cif
#   From: 2010.03.12/outbox.cif.g09.slc.cpg/sg64_16_cif.got.tgz:31643.got - 2010.04.10 20:19:32.
