data_PCOD8263973
_publ_section_title
;
Structure prediction by ZEFSAII (Michael W. Deem and Ramdas Pophale) SiO2 
 PCOD8263973
Probable space group: C M C A
;
_chemical_formula_sum "Si O2"
_cell_formula_units_Z 56
_cell_length_a 21.896552
_cell_length_b 24.891595
_cell_length_c 4.972726
_cell_angle_alpha 90.000000
_cell_angle_beta 90.000000
_cell_angle_gamma 90.000000
_cell_volume 2710.335098
_symmetry_space_group_name_H-M "C M C A"
_symmetry_group_IT_number 64
_symmetry_cell_setting 'orthorhombic'
loop_
_space_group_symop_operation_xyz
x,y,z
-x,1/2-y,1/2+z
x,-y,-z
-x,1/2+y,1/2-z
-x,-y,-z
x,1/2+y,1/2-z
-x,y,z
x,1/2-y,1/2+z
1/2+x,1/2+y,z
1/2-x,-y,1/2+z
1/2+x,1/2-y,-z
1/2-x,y,1/2-z
1/2-x,1/2-y,-z
1/2+x,y,1/2-z
1/2-x,1/2+y,z
1/2+x,-y,1/2+z
loop_
_atom_site_type_symbol
_atom_site_label
_atom_site_fract_x
_atom_site_fract_y
_atom_site_fract_z
Si Si1 0.429188 0.786204 0.950779
Si Si2 0.185363 0.440530 0.379321
Si Si3 0.879778 0.599492 0.129185
Si Si4 0.500000 0.961659 0.750780
O O1 0.500000 0.803512 0.952458
O O2 0.411787 0.750272 0.699658
O O3 0.387952 0.839127 0.958730
O O4 0.184218 0.500000 0.500000
O O5 0.250000 0.425005 0.250000
O O6 0.170947 0.402210 0.633491
O O7 0.137067 0.434963 0.136083
O O8 0.941261 0.576347 0.258095
O O9 0.500000 0.000000 0.500000
O O10 0.500000 0.000000 0.000000
#
# Coordination Sequence:
#
# PCOD8263973 Si02
#       4
#    16  16  16   8
#     4  10  21  39  64  92 125 162 208 256 311 382
#     4  12  25  42  65  89 125 171 220 253 297 372
#     4  12  23  41  64  93 127 163 207 262 316 373
#     4  12  24  36  56  92 130 158 188 248 325 378
#
# _framework density 20.661652
#
# number of rings (size 3 to 8) (size 9 to 14) (size 15 to 20)
#    0.000    0.571    1.429    9.429    0.000    0.000 
#    0.000    0.000    0.000   17.143    0.000    0.000 
#    0.000    0.000    0.000    0.000    0.000    0.000 
#
# Total GULP energy -347302.801225 kJ/mol
# GULP energy per Si atom -12403.671472 kJ/mol
# Density = 2.061462 g / cm^3
# Si number density = 20.661652 Si / 1000 Ang^3
#
#
#
# Elastic Constant Matrix: (Units=GPa)
#
#
# Indices 1 2 3 4 5 6 
#
# 1 80.9696 45.7344 38.6563 0.0000 0.0000 0.0000
# 2 45.7344 95.6799 40.2524 0.0000 0.0000 0.0000
# 3 38.6563 40.2524 161.8944 0.0000 0.0000 0.0000
# 4 0.0000 0.0000 0.0000 82.0021 0.0000 0.0000
# 5 0.0000 0.0000 0.0000 0.0000 41.2028 0.0000
# 6 0.0000 0.0000 0.0000 0.0000 0.0000 22.6351
#
#
#
# Elastic Compliance Matrix: (Units=1/GPa)
#
#
# Indices 1 2 3 4 5 6 
#
# 1 0.017697 -0.007462 -0.002370 0.000000 0.000000 0.000000
# 2 -0.007462 0.014819 -0.001903 0.000000 0.000000 0.000000
# 3 -0.002370 -0.001903 0.007216 0.000000 0.000000 0.000000
# 4 0.000000 0.000000 0.000000 0.012195 0.000000 0.000000
# 5 0.000000 0.000000 0.000000 0.000000 0.024270 0.000000
# 6 0.000000 0.000000 0.000000 0.000000 0.000000 0.044179
#
#
# Mechanical properties :
#
#
# Convention : Reuss Voigt Hill
#
# Bulk Modulus (GPa) = 61.49414 65.31445 63.40430
# Shear Modulus (GPa) = 33.49745 43.42805 38.46275
#
# Velocity S-wave (km/s) = 4.03083 4.58959 4.31925
# Velocity P-wave (km/s) = 7.17569 7.73083 7.45843
#
# Compressibility (1/GPa) = 0.01626171
#
# Stress axis : x y z
#
# Youngs Moduli (GPa) = 56.50828 67.48267 138.58253
#
# Poissons Ratio (x) = 0.50353 0.32848
# Poissons Ratio (y) = 0.42165 0.26369
# Poissons Ratio (z) = 0.13394 0.12840
#
# Static dielectric constant tensor:
#      x y z
#    x 3.833210 0.000000 0.000000 
#    y 0.000000 3.605710 0.000000 
#    z 0.000000 0.000000 4.071160 
# 
# 
# High freq. dielectric constant tensor:
#      x y z
#    x 1.796100 0.000000 0.000000 
#    y 0.000000 1.801190 0.000000 
#    z 0.000000 0.000000 1.837950 
# 
# From -- ./inp_files/1655.got.cif
#   From: 2010.03.12/outbox.cif.g09.slc.cpg/sg64_1_cif.got.tgz:1655.got - 2010.04.10 20:19:32.
