data_PCOD8263022
_publ_section_title
;
Structure prediction by ZEFSAII (Michael W. Deem and Ramdas Pophale) SiO2 
 PCOD8263022
Probable space group: C M C A
;
_chemical_formula_sum "Si O2"
_cell_formula_units_Z 96
_cell_length_a 26.437461
_cell_length_b 17.261911
_cell_length_c 10.942511
_cell_angle_alpha 90.000000
_cell_angle_beta 90.000000
_cell_angle_gamma 90.000000
_cell_volume 4993.736344
_symmetry_space_group_name_H-M "C M C A"
_symmetry_group_IT_number 64
_symmetry_cell_setting 'orthorhombic'
loop_
_space_group_symop_operation_xyz
x,y,z
-x,1/2-y,1/2+z
x,-y,-z
-x,1/2+y,1/2-z
-x,-y,-z
x,1/2+y,1/2-z
-x,y,z
x,1/2-y,1/2+z
1/2+x,1/2+y,z
1/2-x,-y,1/2+z
1/2+x,1/2-y,-z
1/2-x,y,1/2-z
1/2-x,1/2-y,-z
1/2+x,y,1/2-z
1/2-x,1/2+y,z
1/2+x,-y,1/2+z
loop_
_atom_site_type_symbol
_atom_site_label
_atom_site_fract_x
_atom_site_fract_y
_atom_site_fract_z
Si Si1 0.137710 0.380957 0.128722
Si Si2 0.868103 0.455613 0.752962
Si Si3 0.689412 0.084178 0.470651
Si Si4 0.195401 0.200097 0.813611
Si Si5 0.943397 0.913681 0.551799
Si Si6 0.293873 0.631500 0.407074
O O1 0.128186 0.453024 0.220363
O O2 0.152231 0.305781 0.208675
O O3 0.088082 0.362716 0.046323
O O4 0.184955 0.396964 0.038171
O O5 0.862186 0.431294 0.609742
O O6 0.915947 0.412295 0.815832
O O7 0.815350 0.426519 0.807497
O O8 0.679791 0.131677 0.593602
O O9 0.733192 0.130705 0.398573
O O10 0.712290 0.000000 0.500000
O O11 0.250000 0.187773 0.750000
O O12 0.189204 0.280598 0.882250
O O13 0.000000 0.880256 0.565825
O O14 0.943780 0.000000 0.500000
#
# Coordination Sequence:
#
# PCOD8263022 Si02
#       6
#    16  16  16  16  16  16
#     4  10  20  37  55  82 112 143 189 240 277 329
#     4  10  20  35  56  86 106 141 193 237 281 331
#     4  12  22  34  53  76 115 158 188 226 278 330
#     4  12  24  36  50  78 120 156 191 225 269 333
#     4   8  16  34  62  86 105 133 182 242 290 332
#     4  11  23  34  55  76 113 155 194 225 269 326
#
# _framework density 19.224083
#
# number of rings (size 3 to 8) (size 9 to 14) (size 15 to 20)
#    0.000    1.500    3.333    4.500    2.333    0.000 
#    0.000    0.000    0.000    5.500    0.000    0.000 
#    0.000    0.000    0.000    0.000    0.000    0.000 
#
# Total GULP energy -594733.800564 kJ/mol
# GULP energy per Si atom -12390.287512 kJ/mol
# Density = 1.918033 g / cm^3
# Si number density = 19.224083 Si / 1000 Ang^3
#
#
#
# Elastic Constant Matrix: (Units=GPa)
#
#
# Indices 1 2 3 4 5 6 
#
# 1 119.7672 11.6677 45.4762 0.0000 0.0000 0.0000
# 2 11.6677 59.2821 14.3496 0.0000 0.0000 0.0000
# 3 45.4762 14.3496 77.3490 0.0000 0.0000 0.0000
# 4 0.0000 0.0000 0.0000 24.5192 0.0000 0.0000
# 5 0.0000 0.0000 0.0000 0.0000 19.2456 0.0000
# 6 0.0000 0.0000 0.0000 0.0000 0.0000 10.8813
#
#
#
# Elastic Compliance Matrix: (Units=1/GPa)
#
#
# Indices 1 2 3 4 5 6 
#
# 1 0.010771 -0.000615 -0.006218 0.000000 0.000000 0.000000
# 2 -0.000615 0.017697 -0.002922 0.000000 0.000000 0.000000
# 3 -0.006218 -0.002922 0.017126 0.000000 0.000000 0.000000
# 4 0.000000 0.000000 0.000000 0.040784 0.000000 0.000000
# 5 0.000000 0.000000 0.000000 0.000000 0.051960 0.000000
# 6 0.000000 0.000000 0.000000 0.000000 0.000000 0.091900
#
#
# Mechanical properties :
#
#
# Convention : Reuss Voigt Hill
#
# Bulk Modulus (GPa) = 38.33723 44.37614 41.35668
# Shear Modulus (GPa) = 19.34667 23.25622 21.30144
#
# Velocity S-wave (km/s) = 3.17579 3.48191 3.33237
# Velocity P-wave (km/s) = 5.78213 6.26887 6.03041
#
# Compressibility (1/GPa) = 0.02608431
#
# Stress axis : x y z
#
# Youngs Moduli (GPa) = 92.84571 56.50782 58.38925
#
# Poissons Ratio (x) = 0.03473 0.36309
# Poissons Ratio (y) = 0.05707 0.17059
# Poissons Ratio (z) = 0.57735 0.16510
#
# Static dielectric constant tensor:
#      x y z
#    x 3.452160 0.000000 0.000000 
#    y 0.000000 3.332390 0.000000 
#    z 0.000000 0.000000 3.815520 
# 
# 
# High freq. dielectric constant tensor:
#      x y z
#    x 1.704620 0.000000 0.000000 
#    y 0.000000 1.730990 0.000000 
#    z 0.000000 0.000000 1.759860 
# 
# From -- ./inp_files/19135.got.cif
#   From: 2010.03.12/outbox.cif.g09.slc.cpg/sg64_10_cif.got.tgz:19135.got - 2010.04.10 20:19:32.
