data_PCOD8263097
_publ_section_title
;
Structure prediction by ZEFSAII (Michael W. Deem and Ramdas Pophale) SiO2 
 PCOD8263097
Probable space group: C M C A
;
_chemical_formula_sum "Si O2"
_cell_formula_units_Z 104
_cell_length_a 26.019179
_cell_length_b 8.442236
_cell_length_c 24.397376
_cell_angle_alpha 90.000000
_cell_angle_beta 90.000000
_cell_angle_gamma 90.000000
_cell_volume 5359.128823
_symmetry_space_group_name_H-M "C M C A"
_symmetry_group_IT_number 64
_symmetry_cell_setting 'orthorhombic'
loop_
_space_group_symop_operation_xyz
x,y,z
-x,1/2-y,1/2+z
x,-y,-z
-x,1/2+y,1/2-z
-x,-y,-z
x,1/2+y,1/2-z
-x,y,z
x,1/2-y,1/2+z
1/2+x,1/2+y,z
1/2-x,-y,1/2+z
1/2+x,1/2-y,-z
1/2-x,y,1/2-z
1/2-x,1/2-y,-z
1/2+x,y,1/2-z
1/2-x,1/2+y,z
1/2+x,-y,1/2+z
loop_
_atom_site_type_symbol
_atom_site_label
_atom_site_fract_x
_atom_site_fract_y
_atom_site_fract_z
Si Si1 0.804281 0.957636 0.804917
Si Si2 0.500000 0.231475 0.285609
Si Si3 0.088331 0.500000 0.000000
Si Si4 0.442143 0.843501 0.530567
Si Si5 0.901333 0.306305 0.649232
Si Si6 0.000000 0.414770 0.829159
Si Si7 0.391134 0.962293 0.878135
Si Si8 0.198852 0.321818 0.813504
O O1 0.854654 0.921561 0.839126
O O2 0.814918 0.902702 0.743488
O O3 0.754332 0.882089 0.834336
O O4 0.794162 0.140372 0.802236
O O5 0.449390 0.150123 0.311647
O O6 0.500000 0.415412 0.300415
O O7 0.500000 0.214093 0.219707
O O8 0.058333 0.329740 0.000424
O O9 0.119765 0.509476 0.057039
O O10 0.500000 0.884537 0.545555
O O11 0.411951 0.831915 0.586200
O O12 0.419058 0.000000 0.500000
O O13 0.885289 0.123236 0.656909
O O14 0.050877 0.394104 0.867334
O O15 0.346600 0.846369 0.857309
#
# Coordination Sequence:
#
# PCOD8263097 Si02
#       8
#    16   8   8  16  16   8  16  16
#     4  11  22  37  64  86 120 152 196 245 294 367
#     4  10  20  36  51  80 122 151 192 225 303 342
#     4  10  23  38  64  82 124 160 208 253 302 350
#     4  10  21  37  59  87 119 157 206 249 295 358
#     4  10  20  37  58  82 120 159 185 248 292 349
#     4  10  22  35  54  84 119 161 190 238 290 368
#     4  10  22  38  59  86 118 157 204 241 301 352
#     4  11  22  39  60  90 115 154 197 242 300 357
#
# _framework density 19.406140000000001
#
# number of rings (size 3 to 8) (size 9 to 14) (size 15 to 20)
#    0.000    1.692    0.769    4.846    6.462    3.692 
#    0.000    0.000    1.692    2.769    0.000    0.000 
#    0.000    0.000    0.000    0.000    0.000    0.000 
#
# Total GULP energy -644425.180445 kJ/mol
# GULP energy per Si atom -12392.791932 kJ/mol
# Density = 1.936197 g / cm^3
# Si number density = 19.406140 Si / 1000 Ang^3
#
#
#
# Elastic Constant Matrix: (Units=GPa)
#
#
# Indices 1 2 3 4 5 6 
#
# 1 112.1586 38.0714 41.9045 0.0000 0.0000 0.0000
# 2 38.0714 119.7839 31.3707 0.0000 0.0000 0.0000
# 3 41.9045 31.3707 89.4954 0.0000 0.0000 0.0000
# 4 0.0000 0.0000 0.0000 25.2412 0.0000 0.0000
# 5 0.0000 0.0000 0.0000 0.0000 16.2066 0.0000
# 6 0.0000 0.0000 0.0000 0.0000 0.0000 28.6159
#
#
#
# Elastic Compliance Matrix: (Units=1/GPa)
#
#
# Indices 1 2 3 4 5 6 
#
# 1 0.011427 -0.002456 -0.004490 0.000000 0.000000 0.000000
# 2 -0.002456 0.009720 -0.002257 0.000000 0.000000 0.000000
# 3 -0.004490 -0.002257 0.014067 0.000000 0.000000 0.000000
# 4 0.000000 0.000000 0.000000 0.039618 0.000000 0.000000
# 5 0.000000 0.000000 0.000000 0.000000 0.061703 0.000000
# 6 0.000000 0.000000 0.000000 0.000000 0.000000 0.034946
#
#
# Mechanical properties :
#
#
# Convention : Reuss Voigt Hill
#
# Bulk Modulus (GPa) = 59.49325 60.45902 59.97614
# Shear Modulus (GPa) = 25.57682 28.01882 26.79782
#
# Velocity S-wave (km/s) = 3.63433 3.80387 3.72007
# Velocity P-wave (km/s) = 6.95231 7.10738 7.03027
#
# Compressibility (1/GPa) = 0.01680863
#
# Stress axis : x y z
#
# Youngs Moduli (GPa) = 87.51183 102.87914 71.08787
#
# Poissons Ratio (x) = 0.25268 0.31915
# Poissons Ratio (y) = 0.21494 0.16046
# Poissons Ratio (z) = 0.39289 0.23221
#
# Static dielectric constant tensor:
#      x y z
#    x 3.513250 0.000000 0.000000 
#    y 0.000000 3.887940 0.000000 
#    z 0.000000 0.000000 3.435810 
# 
# 
# High freq. dielectric constant tensor:
#      x y z
#    x 1.745290 0.000000 0.000000 
#    y 0.000000 1.766300 0.000000 
#    z 0.000000 0.000000 1.745520 
# 
# From -- ./inp_files/51068.got.cif
#   From: 2010.03.12/outbox.cif.g09.slc.cpg/sg64_26_cif.got.tgz:51068.got - 2010.04.10 20:19:32.
