data_PCOD8263329
_publ_section_title
;
Structure prediction by ZEFSAII (Michael W. Deem and Ramdas Pophale) SiO2 
 PCOD8263329
Probable space group: C M C A
;
_chemical_formula_sum "Si O2"
_cell_formula_units_Z 80
_cell_length_a 8.680783
_cell_length_b 25.284669
_cell_length_c 17.384784
_cell_angle_alpha 90.000000
_cell_angle_beta 90.000000
_cell_angle_gamma 90.000000
_cell_volume 3815.798841
_symmetry_space_group_name_H-M "C M C A"
_symmetry_group_IT_number 64
_symmetry_cell_setting 'orthorhombic'
loop_
_space_group_symop_operation_xyz
x,y,z
-x,1/2-y,1/2+z
x,-y,-z
-x,1/2+y,1/2-z
-x,-y,-z
x,1/2+y,1/2-z
-x,y,z
x,1/2-y,1/2+z
1/2+x,1/2+y,z
1/2-x,-y,1/2+z
1/2+x,1/2-y,-z
1/2-x,y,1/2-z
1/2-x,1/2-y,-z
1/2+x,y,1/2-z
1/2-x,1/2+y,z
1/2+x,-y,1/2+z
loop_
_atom_site_type_symbol
_atom_site_label
_atom_site_fract_x
_atom_site_fract_y
_atom_site_fract_z
Si Si1 0.816588 0.125410 0.836656
Si Si2 0.818915 0.569529 0.332726
Si Si3 0.169128 0.727732 0.574419
Si Si4 0.818797 0.024614 0.581071
Si Si5 0.328773 0.331343 0.671753
O O1 0.750000 0.119723 0.750000
O O2 0.753106 0.178527 0.879276
O O3 0.766778 0.077841 0.893379
O O4 0.000000 0.125697 0.828170
O O5 0.750000 0.584497 0.250000
O O6 0.722423 0.518970 0.356506
O O7 0.770897 0.624020 0.376764
O O8 0.000000 0.557686 0.336713
O O9 0.250000 0.750000 0.500000
O O10 0.160441 0.777121 0.628734
O O11 0.000000 0.708313 0.549620
O O12 0.000000 0.035905 0.578681
O O13 0.759576 0.000000 0.500000
O O14 0.500000 0.354732 0.685750
O O15 0.250000 0.314341 0.750000
#
# Coordination Sequence:
#
# PCOD8263329 Si02
#       5
#    16  16  16  16  16
#     4  11  24  44  68  97 130 171 220 266 320 385
#     4  11  22  38  62  90 122 160 203 253 307 369
#     4  10  24  41  62  92 128 166 209 259 314 375
#     4  11  25  43  64  91 126 166 209 261 320 377
#     4  10  20  37  60  89 122 159 204 251 304 367
#
# _framework density 20.965464999999998
#
# number of rings (size 3 to 8) (size 9 to 14) (size 15 to 20)
#    0.000    1.400    0.000    6.000    2.800    4.800 
#    0.000    0.000    0.000    0.000    0.000    0.000 
#    0.000    0.000    0.000    0.000    0.000    0.000 
#
# Total GULP energy -495609.103137 kJ/mol
# GULP energy per Si atom -12390.227578 kJ/mol
# Density = 2.091775 g / cm^3
# Si number density = 20.965465 Si / 1000 Ang^3
#
#
#
# Elastic Constant Matrix: (Units=GPa)
#
#
# Indices 1 2 3 4 5 6 
#
# 1 85.3510 35.8085 47.8052 0.0000 0.0000 0.0000
# 2 35.8085 140.5700 46.3403 0.0000 0.0000 0.0000
# 3 47.8052 46.3403 97.5162 0.0000 0.0000 0.0000
# 4 0.0000 0.0000 0.0000 -9.3235 0.0000 0.0000
# 5 0.0000 0.0000 0.0000 0.0000 31.1511 0.0000
# 6 0.0000 0.0000 0.0000 0.0000 0.0000 35.5950
#
#
#
# Elastic Compliance Matrix: (Units=1/GPa)
#
#
# Indices 1 2 3 4 5 6 
#
# 1 0.016537 -0.001826 -0.007239 0.000000 0.000000 0.000000
# 2 -0.001826 0.008637 -0.003209 0.000000 0.000000 0.000000
# 3 -0.007239 -0.003209 0.015329 0.000000 0.000000 0.000000
# 4 0.000000 0.000000 0.000000 -0.107256 0.000000 0.000000
# 5 0.000000 0.000000 0.000000 0.000000 0.032102 0.000000
# 6 0.000000 0.000000 0.000000 0.000000 0.000000 0.028094
#
#
# Mechanical properties :
#
#
# Convention : Reuss Voigt Hill
#
# Bulk Modulus (GPa) = 62.68106 64.81614 63.74860
# Shear Modulus (GPa) = 214.51278 24.38341 119.44810
#
# Velocity S-wave (km/s) = 10.12617 3.41402 7.55628
# Velocity P-wave (km/s) = 12.91051 6.82081 10.32484
#
# Compressibility (1/GPa) = 0.01595378
#
# Stress axis : x y z
#
# Youngs Moduli (GPa) = 60.46989 115.78082 65.23777
#
# Poissons Ratio (x) = 0.21144 0.47227
# Poissons Ratio (y) = 0.11043 0.20936
# Poissons Ratio (z) = 0.43775 0.37155
#
# Static dielectric constant tensor:
#      x y z
#    x 4.016340 0.000000 0.000000 
#    y 0.000000 4.356570 0.000000 
#    z 0.000000 0.000000 3.638530 
# 
# 
# High freq. dielectric constant tensor:
#      x y z
#    x 1.825960 0.000000 0.000000 
#    y 0.000000 1.849620 0.000000 
#    z 0.000000 0.000000 1.812870 
# 
# From -- ./inp_files/29734.got.cif
#   From: 2010.03.12/outbox.cif.g09.slc.cpg/sg64_15_cif.got.tgz:29734.got - 2010.04.10 20:19:32.
