data_PCOD8263202
_publ_section_title
;
Structure prediction by ZEFSAII (Michael W. Deem and Ramdas Pophale) SiO2 
 PCOD8263202
Probable space group: C M C A
;
_chemical_formula_sum "Si O2"
_cell_formula_units_Z 96
_cell_length_a 8.784556
_cell_length_b 25.234161
_cell_length_c 23.135102
_cell_angle_alpha 90.000000
_cell_angle_beta 90.000000
_cell_angle_gamma 90.000000
_cell_volume 5128.378892
_symmetry_space_group_name_H-M "C M C A"
_symmetry_group_IT_number 64
_symmetry_cell_setting 'orthorhombic'
loop_
_space_group_symop_operation_xyz
x,y,z
-x,1/2-y,1/2+z
x,-y,-z
-x,1/2+y,1/2-z
-x,-y,-z
x,1/2+y,1/2-z
-x,y,z
x,1/2-y,1/2+z
1/2+x,1/2+y,z
1/2-x,-y,1/2+z
1/2+x,1/2-y,-z
1/2-x,y,1/2-z
1/2-x,1/2-y,-z
1/2+x,y,1/2-z
1/2-x,1/2+y,z
1/2+x,-y,1/2+z
loop_
_atom_site_type_symbol
_atom_site_label
_atom_site_fract_x
_atom_site_fract_y
_atom_site_fract_z
Si Si1 0.675292 0.306606 0.009353
Si Si2 0.178707 0.249433 0.810705
Si Si3 0.676975 0.344853 0.376225
Si Si4 0.179430 0.940336 0.811501
Si Si5 0.677196 0.549610 0.689350
Si Si6 0.325986 0.838975 0.617218
O O1 0.500000 0.298069 0.026504
O O2 0.758309 0.338379 0.059784
O O3 0.750000 0.250000 0.000000
O O4 0.692609 0.341626 0.951718
O O5 0.250000 0.266777 0.750000
O O6 0.240602 0.192660 0.830245
O O7 0.218988 0.292935 0.858576
O O8 0.000000 0.245544 0.803253
O O9 0.500000 0.329968 0.376088
O O10 0.706577 0.405211 0.357848
O O11 0.250000 0.924384 0.750000
O O12 0.224738 0.895479 0.857548
O O13 0.000000 0.946054 0.804423
O O14 0.247214 0.995721 0.834212
O O15 0.500000 0.539448 0.699888
O O16 0.750000 0.567076 0.750000
O O17 0.500000 0.825717 0.634514
#
# Coordination Sequence:
#
# PCOD8263202 Si02
#       6
#    16  16  16  16  16  16
#     4  11  22  38  60  84 114 154 196 237 288 341
#     4  12  24  36  56  84 115 150 186 233 291 344
#     4  11  23  39  58  83 116 150 193 239 285 343
#     4  10  20  36  59  85 114 150 187 233 286 341
#     4  10  21  37  59  85 114 150 188 236 288 342
#     4  10  22  39  58  83 116 150 191 237 283 342
#
# _framework density 18.719366000000001
#
# number of rings (size 3 to 8) (size 9 to 14) (size 15 to 20)
#    0.000    1.333    1.667    5.500    0.000    7.333 
#    0.000    0.833    0.000    5.000    0.000    0.000 
#    0.000    0.000    0.000    0.000    0.000    0.000 
#
# Total GULP energy -595464.974174 kJ/mol
# GULP energy per Si atom -12405.520295 kJ/mol
# Density = 1.867676 g / cm^3
# Si number density = 18.719366 Si / 1000 Ang^3
#
#
#
# Elastic Constant Matrix: (Units=GPa)
#
#
# Indices 1 2 3 4 5 6 
#
# 1 131.9495 54.2057 40.4678 0.0000 0.0000 0.0000
# 2 54.2057 113.3019 47.3144 0.0000 0.0000 0.0000
# 3 40.4678 47.3144 89.9011 0.0000 0.0000 0.0000
# 4 0.0000 0.0000 0.0000 31.6786 0.0000 0.0000
# 5 0.0000 0.0000 0.0000 0.0000 31.2970 0.0000
# 6 0.0000 0.0000 0.0000 0.0000 0.0000 27.5246
#
#
#
# Elastic Compliance Matrix: (Units=1/GPa)
#
#
# Indices 1 2 3 4 5 6 
#
# 1 0.009854 -0.003668 -0.002505 0.000000 0.000000 0.000000
# 2 -0.003668 0.012678 -0.005021 0.000000 0.000000 0.000000
# 3 -0.002505 -0.005021 0.014893 0.000000 0.000000 0.000000
# 4 0.000000 0.000000 0.000000 0.031567 0.000000 0.000000
# 5 0.000000 0.000000 0.000000 0.000000 0.031952 0.000000
# 6 0.000000 0.000000 0.000000 0.000000 0.000000 0.036331
#
#
# Mechanical properties :
#
#
# Convention : Reuss Voigt Hill
#
# Bulk Modulus (GPa) = 66.50462 68.79203 67.64832
# Shear Modulus (GPa) = 30.36273 30.97770 30.67022
#
# Velocity S-wave (km/s) = 4.03177 4.07239 4.05213
# Velocity P-wave (km/s) = 7.56821 7.67733 7.62297
#
# Compressibility (1/GPa) = 0.01503655
#
# Stress axis : x y z
#
# Youngs Moduli (GPa) = 101.48339 78.87915 67.14360
#
# Poissons Ratio (x) = 0.28934 0.16820
# Poissons Ratio (y) = 0.37226 0.33713
# Poissons Ratio (z) = 0.25422 0.39605
#
# Static dielectric constant tensor:
#      x y z
#    x 3.619110 0.000000 0.000000 
#    y 0.000000 3.446750 0.000000 
#    z 0.000000 0.000000 3.508630 
# 
# 
# High freq. dielectric constant tensor:
#      x y z
#    x 1.744140 0.000000 0.000000 
#    y 0.000000 1.726710 0.000000 
#    z 0.000000 0.000000 1.725360 
# 
# From -- ./inp_files/43043.got.cif
#   From: 2010.03.12/outbox.cif.g09.slc.cpg/sg64_22_cif.got.tgz:43043.got - 2010.04.10 20:19:32.
