data_PCOD8263951
_publ_section_title
;
Structure prediction by ZEFSAII (Michael W. Deem and Ramdas Pophale) SiO2 
 PCOD8263951
Probable space group: C M C A
;
_chemical_formula_sum "Si O2"
_cell_formula_units_Z 64
_cell_length_a 21.320892
_cell_length_b 10.042711
_cell_length_c 13.034714
_cell_angle_alpha 90.000000
_cell_angle_beta 90.000000
_cell_angle_gamma 90.000000
_cell_volume 2790.987182
_symmetry_space_group_name_H-M "C M C A"
_symmetry_group_IT_number 64
_symmetry_cell_setting 'orthorhombic'
loop_
_space_group_symop_operation_xyz
x,y,z
-x,1/2-y,1/2+z
x,-y,-z
-x,1/2+y,1/2-z
-x,-y,-z
x,1/2+y,1/2-z
-x,y,z
x,1/2-y,1/2+z
1/2+x,1/2+y,z
1/2-x,-y,1/2+z
1/2+x,1/2-y,-z
1/2-x,y,1/2-z
1/2-x,1/2-y,-z
1/2+x,y,1/2-z
1/2-x,1/2+y,z
1/2+x,-y,1/2+z
loop_
_atom_site_type_symbol
_atom_site_label
_atom_site_fract_x
_atom_site_fract_y
_atom_site_fract_z
Si Si1 0.710347 0.653602 0.651921
Si Si2 0.000000 0.097894 0.403349
Si Si3 0.898827 0.485095 0.244076
Si Si4 0.195863 0.932313 0.904379
Si Si5 0.000000 0.399640 0.403990
O O1 0.750000 0.700107 0.750000
O O2 0.637257 0.626687 0.678074
O O3 0.741087 0.521395 0.604067
O O4 0.712522 0.778343 0.573112
O O5 0.000000 0.248352 0.446227
O O6 0.000000 0.000000 0.500000
O O7 0.938994 0.075834 0.332642
O O8 0.844934 0.570585 0.300590
O O9 0.939902 0.417560 0.332129
O O10 0.158169 0.000000 0.000000
O O11 0.000000 0.500000 0.500000
#
# Coordination Sequence:
#
# PCOD8263951 Si02
#       5
#    16   8  16  16   8
#     4  10  21  39  62  90 128 169 207 254 308 368
#     4  11  26  44  65  93 123 163 215 269 322 374
#     4  10  23  42  65  90 126 167 211 259 311 374
#     4  11  22  38  63  95 127 163 206 253 310 373
#     4  11  24  42  67  95 125 167 213 261 320 382
#
# _framework density 22.930954
#
# number of rings (size 3 to 8) (size 9 to 14) (size 15 to 20)
#    0.000    1.500    0.000    5.250    0.000   11.000 
#    0.000    0.000    0.000    0.000    0.000    0.000 
#    0.000    0.000    0.000    0.000    0.000    0.000 
#
# Total GULP energy -396683.961219 kJ/mol
# GULP energy per Si atom -12396.373788 kJ/mol
# Density = 2.287876 g / cm^3
# Si number density = 22.930954 Si / 1000 Ang^3
#
#
#
# Elastic Constant Matrix: (Units=GPa)
#
#
# Indices 1 2 3 4 5 6 
#
# 1 119.1087 69.7819 41.1834 0.0000 0.0000 0.0000
# 2 69.7819 194.0388 64.5972 0.0000 0.0000 0.0000
# 3 41.1834 64.5972 113.8685 0.0000 0.0000 0.0000
# 4 0.0000 0.0000 0.0000 40.0182 0.0000 0.0000
# 5 0.0000 0.0000 0.0000 0.0000 31.6541 0.0000
# 6 0.0000 0.0000 0.0000 0.0000 0.0000 13.8941
#
#
#
# Elastic Compliance Matrix: (Units=1/GPa)
#
#
# Indices 1 2 3 4 5 6 
#
# 1 0.011047 -0.003258 -0.002147 0.000000 0.000000 0.000000
# 2 -0.003258 0.007314 -0.002971 0.000000 0.000000 0.000000
# 3 -0.002147 -0.002971 0.011244 0.000000 0.000000 0.000000
# 4 0.000000 0.000000 0.000000 0.024989 0.000000 0.000000
# 5 0.000000 0.000000 0.000000 0.000000 0.031591 0.000000
# 6 0.000000 0.000000 0.000000 0.000000 0.000000 0.071973
#
#
# Mechanical properties :
#
#
# Convention : Reuss Voigt Hill
#
# Bulk Modulus (GPa) = 77.80320 86.46009 82.13164
# Shear Modulus (GPa) = 27.90255 33.87686 30.88970
#
# Velocity S-wave (km/s) = 3.49206 3.84779 3.67423
# Velocity P-wave (km/s) = 7.08959 7.58466 7.34130
#
# Compressibility (1/GPa) = 0.01285294
#
# Stress axis : x y z
#
# Youngs Moduli (GPa) = 90.52381 136.71739 88.93548
#
# Poissons Ratio (x) = 0.44542 0.19096
# Poissons Ratio (y) = 0.29492 0.26424
# Poissons Ratio (z) = 0.19437 0.40620
#
# Static dielectric constant tensor:
#      x y z
#    x 4.219110 0.000000 0.000000 
#    y 0.000000 3.918810 0.000000 
#    z 0.000000 0.000000 4.335530 
# 
# 
# High freq. dielectric constant tensor:
#      x y z
#    x 1.906400 0.000000 0.000000 
#    y 0.000000 1.905060 0.000000 
#    z 0.000000 0.000000 1.910130 
# 
# From -- ./inp_files/26942.got.cif
#   From: 2010.03.12/outbox.cif.g09.slc.cpg/sg64_14_cif.got.tgz:26942.got - 2010.04.10 20:19:32.
