data_PCOD8263314
_publ_section_title
;
Structure prediction by ZEFSAII (Michael W. Deem and Ramdas Pophale) SiO2 
 PCOD8263314
Probable space group: C M C A
;
_chemical_formula_sum "Si O2"
_cell_formula_units_Z 96
_cell_length_a 14.853399
_cell_length_b 9.857298
_cell_length_c 33.531511
_cell_angle_alpha 90.000000
_cell_angle_beta 90.000000
_cell_angle_gamma 90.000000
_cell_volume 4909.495402
_symmetry_space_group_name_H-M "C M C A"
_symmetry_group_IT_number 64
_symmetry_cell_setting 'orthorhombic'
loop_
_space_group_symop_operation_xyz
x,y,z
-x,1/2-y,1/2+z
x,-y,-z
-x,1/2+y,1/2-z
-x,-y,-z
x,1/2+y,1/2-z
-x,y,z
x,1/2-y,1/2+z
1/2+x,1/2+y,z
1/2-x,-y,1/2+z
1/2+x,1/2-y,-z
1/2-x,y,1/2-z
1/2-x,1/2-y,-z
1/2+x,y,1/2-z
1/2-x,1/2+y,z
1/2+x,-y,1/2+z
loop_
_atom_site_type_symbol
_atom_site_label
_atom_site_fract_x
_atom_site_fract_y
_atom_site_fract_z
Si Si1 0.000000 0.393824 0.036102
Si Si2 0.807139 0.936608 0.955856
Si Si3 0.700101 0.451479 0.792261
Si Si4 0.500000 0.577685 0.230355
Si Si5 0.188843 0.173664 0.666469
Si Si6 0.000000 0.872935 0.297189
Si Si7 0.500000 0.592933 0.037021
Si Si8 0.314977 0.844884 0.075453
O O1 0.000000 0.243220 0.018015
O O2 0.088378 0.407635 0.063425
O O3 0.000000 0.500000 0.000000
O O4 0.779725 0.777002 0.953700
O O5 0.909540 0.936653 0.938215
O O6 0.751097 0.027518 0.925990
O O7 0.797403 0.000000 0.000000
O O8 0.750000 0.473619 0.750000
O O9 0.591815 0.474661 0.790786
O O10 0.740230 0.555654 0.824152
O O11 0.720546 0.300782 0.807369
O O12 0.500000 0.515511 0.274303
O O13 0.500000 0.741930 0.232450
O O14 0.087672 0.127685 0.675593
O O15 0.188001 0.212215 0.620046
O O16 0.500000 0.500000 0.000000
#
# Coordination Sequence:
#
# PCOD8263314 Si02
#       8
#     8  16  16   8  16   8   8  16
#     4  10  21  37  60  85 115 156 201 240 290 357
#     4  10  20  37  60  84 113 154 199 240 290 356
#     4  11  22  39  61  88 115 159 202 245 291 359
#     4  10  22  36  60  87 113 148 197 246 281 342
#     4  11  23  38  59  86 122 155 193 247 305 350
#     4  10  21  38  58  84 113 148 192 238 295 340
#     4   8  18  35  56  82 109 144 189 240 281 335
#     4  11  22  38  57  87 121 155 193 246 304 355
#
# _framework density 19.553944000000001
#
# number of rings (size 3 to 8) (size 9 to 14) (size 15 to 20)
#    0.000    1.667    1.667    3.000    2.333    2.667 
#    0.000    2.500    0.000    0.000    0.000    0.000 
#    0.000    0.000    0.000    0.000    0.000    0.000 
#
# Total GULP energy -594910.562343 kJ/mol
# GULP energy per Si atom -12393.970049 kJ/mol
# Density = 1.950944 g / cm^3
# Si number density = 19.553944 Si / 1000 Ang^3
#
#
#
# Elastic Constant Matrix: (Units=GPa)
#
#
# Indices 1 2 3 4 5 6 
#
# 1 129.9335 68.7005 29.9647 0.0000 0.0000 0.0000
# 2 68.7005 89.7822 27.6733 0.0000 0.0000 0.0000
# 3 29.9647 27.6733 89.8646 0.0000 0.0000 0.0000
# 4 0.0000 0.0000 0.0000 29.3793 0.0000 0.0000
# 5 0.0000 0.0000 0.0000 0.0000 22.4776 0.0000
# 6 0.0000 0.0000 0.0000 0.0000 0.0000 33.2731
#
#
#
# Elastic Compliance Matrix: (Units=1/GPa)
#
#
# Indices 1 2 3 4 5 6 
#
# 1 0.013086 -0.009578 -0.001414 0.000000 0.000000 0.000000
# 2 -0.009578 0.019316 -0.002755 0.000000 0.000000 0.000000
# 3 -0.001414 -0.002755 0.012448 0.000000 0.000000 0.000000
# 4 0.000000 0.000000 0.000000 0.034038 0.000000 0.000000
# 5 0.000000 0.000000 0.000000 0.000000 0.044489 0.000000
# 6 0.000000 0.000000 0.000000 0.000000 0.000000 0.030054
#
#
# Mechanical properties :
#
#
# Convention : Reuss Voigt Hill
#
# Bulk Modulus (GPa) = 57.61363 62.47302 60.04333
# Shear Modulus (GPa) = 26.77960 29.24213 28.01087
#
# Velocity S-wave (km/s) = 3.70472 3.87131 3.78893
# Velocity P-wave (km/s) = 6.91577 7.21118 7.06502
#
# Compressibility (1/GPa) = 0.01735700
#
# Stress axis : x y z
#
# Youngs Moduli (GPa) = 76.41472 51.77079 80.33636
#
# Poissons Ratio (x) = 0.49585 0.11361
# Poissons Ratio (y) = 0.73188 0.22129
# Poissons Ratio (z) = 0.10806 0.14261
#
# Static dielectric constant tensor:
#      x y z
#    x 3.599180 0.000000 0.000000 
#    y 0.000000 3.627530 0.000000 
#    z 0.000000 0.000000 3.253810 
# 
# 
# High freq. dielectric constant tensor:
#      x y z
#    x 1.778580 0.000000 0.000000 
#    y 0.000000 1.769370 0.000000 
#    z 0.000000 0.000000 1.738320 
# 
# From -- ./inp_files/53223.got.cif
#   From: 2010.03.12/outbox.cif.g09.slc.cpg/sg64_27_cif.got.tgz:53223.got - 2010.04.10 20:19:32.
