data_PCOD8263663
_publ_section_title
;
Structure prediction by ZEFSAII (Michael W. Deem and Ramdas Pophale) SiO2 
 PCOD8263663
Probable space group: C M C A
;
_chemical_formula_sum "Si O2"
_cell_formula_units_Z 64
_cell_length_a 9.087331
_cell_length_b 27.203188
_cell_length_c 13.721790
_cell_angle_alpha 90.000000
_cell_angle_beta 90.000000
_cell_angle_gamma 90.000000
_cell_volume 3392.086502
_symmetry_space_group_name_H-M "C M C A"
_symmetry_group_IT_number 64
_symmetry_cell_setting 'orthorhombic'
loop_
_space_group_symop_operation_xyz
x,y,z
-x,1/2-y,1/2+z
x,-y,-z
-x,1/2+y,1/2-z
-x,-y,-z
x,1/2+y,1/2-z
-x,y,z
x,1/2-y,1/2+z
1/2+x,1/2+y,z
1/2-x,-y,1/2+z
1/2+x,1/2-y,-z
1/2-x,y,1/2-z
1/2-x,1/2-y,-z
1/2+x,y,1/2-z
1/2-x,1/2+y,z
1/2+x,-y,1/2+z
loop_
_atom_site_type_symbol
_atom_site_label
_atom_site_fract_x
_atom_site_fract_y
_atom_site_fract_z
Si Si1 0.328983 0.824125 0.520548
Si Si2 0.328698 0.981429 0.151155
Si Si3 0.828604 0.229769 0.647284
Si Si4 0.672390 0.577355 0.461401
O O1 0.500000 0.828621 0.494212
O O2 0.240360 0.811222 0.422909
O O3 0.301225 0.783605 0.603231
O O4 0.268023 0.874958 0.563522
O O5 0.500000 0.981703 0.171746
O O6 0.250000 0.966201 0.250000
O O7 0.289388 0.941029 0.070014
O O8 0.279707 0.035418 0.115071
O O9 0.750000 0.226685 0.750000
O O10 0.000000 0.218047 0.659881
O O11 0.500000 0.589460 0.451768
#
# Coordination Sequence:
#
# PCOD8263663 Si02
#       4
#    16  16  16  16
#     4  10  21  36  55  80 107 137 175 217 262 311
#     4   9  19  35  54  76 103 137 175 214 258 308
#     4  10  21  37  56  78 106 139 175 216 261 311
#     4   9  19  36  54  74 105 141 173 210 260 313
#
# _framework density 18.867443000000002
#
# number of rings (size 3 to 8) (size 9 to 14) (size 15 to 20)
#    0.000    2.500    0.000    3.000    0.000    7.000 
#    0.000   10.000    0.000    0.000    0.000    0.000 
#    0.000    0.000    0.000    0.000    0.000    0.000 
#
# Total GULP energy -396886.766900 kJ/mol
# GULP energy per Si atom -12402.711466 kJ/mol
# Density = 1.882450 g / cm^3
# Si number density = 18.867443 Si / 1000 Ang^3
#
#
#
# Elastic Constant Matrix: (Units=GPa)
#
#
# Indices 1 2 3 4 5 6 
#
# 1 57.2287 6.5547 4.7963 0.0000 0.0000 0.0000
# 2 6.5547 51.7241 -33.2523 0.0000 0.0000 0.0000
# 3 4.7963 -33.2523 47.9130 0.0000 0.0000 0.0000
# 4 0.0000 0.0000 0.0000 12.5442 0.0000 0.0000
# 5 0.0000 0.0000 0.0000 0.0000 33.7911 0.0000
# 6 0.0000 0.0000 0.0000 0.0000 0.0000 29.3427
#
#
#
# Elastic Compliance Matrix: (Units=1/GPa)
#
#
# Indices 1 2 3 4 5 6 
#
# 1 0.018748 -0.006468 -0.006366 0.000000 0.000000 0.000000
# 2 -0.006468 0.037140 0.026423 0.000000 0.000000 0.000000
# 3 -0.006366 0.026423 0.039847 0.000000 0.000000 0.000000
# 4 0.000000 0.000000 0.000000 0.079718 0.000000 0.000000
# 5 0.000000 0.000000 0.000000 0.000000 0.029594 0.000000
# 6 0.000000 0.000000 0.000000 0.000000 0.000000 0.034080
#
#
# Mechanical properties :
#
#
# Convention : Reuss Voigt Hill
#
# Bulk Modulus (GPa) = 8.13587 12.56258 10.34923
# Shear Modulus (GPa) = 19.76916 27.05342 23.41129
#
# Velocity S-wave (km/s) = 3.24047 3.79075 3.52636
# Velocity P-wave (km/s) = 4.28046 5.08257 4.69867
#
# Compressibility (1/GPa) = 0.12291251
#
# Stress axis : x y z
#
# Youngs Moduli (GPa) = 53.33868 26.92516 25.09627
#
# Poissons Ratio (x) = 0.17416 0.15976
# Poissons Ratio (y) = 0.34501 -0.66312
# Poissons Ratio (z) = 0.33955 -0.71145
#
# Static dielectric constant tensor:
#      x y z
#    x 3.410170 0.000000 0.000000 
#    y 0.000000 3.440500 0.000000 
#    z 0.000000 0.000000 4.655200 
# 
# 
# High freq. dielectric constant tensor:
#      x y z
#    x 1.735640 0.000000 0.000000 
#    y 0.000000 1.734910 0.000000 
#    z 0.000000 0.000000 1.729400 
# 
# From -- ./inp_files/12125.got.cif
#   From: 2010.03.12/outbox.cif.g09.slc.cpg/sg64_7_cif.got.tgz:12125.got - 2010.04.10 20:19:32.
