data_PCOD8263962
_publ_section_title
;
Structure prediction by ZEFSAII (Michael W. Deem and Ramdas Pophale) SiO2 
 PCOD8263962
Probable space group: C M C A
;
_chemical_formula_sum "Si O2"
_cell_formula_units_Z 96
_cell_length_a 14.989249
_cell_length_b 17.568373
_cell_length_c 19.127678
_cell_angle_alpha 90.000000
_cell_angle_beta 90.000000
_cell_angle_gamma 90.000000
_cell_volume 5037.019936
_symmetry_space_group_name_H-M "C M C A"
_symmetry_group_IT_number 64
_symmetry_cell_setting 'orthorhombic'
loop_
_space_group_symop_operation_xyz
x,y,z
-x,1/2-y,1/2+z
x,-y,-z
-x,1/2+y,1/2-z
-x,-y,-z
x,1/2+y,1/2-z
-x,y,z
x,1/2-y,1/2+z
1/2+x,1/2+y,z
1/2-x,-y,1/2+z
1/2+x,1/2-y,-z
1/2-x,y,1/2-z
1/2-x,1/2-y,-z
1/2+x,y,1/2-z
1/2-x,1/2+y,z
1/2+x,-y,1/2+z
loop_
_atom_site_type_symbol
_atom_site_label
_atom_site_fract_x
_atom_site_fract_y
_atom_site_fract_z
Si Si1 0.500000 0.223726 0.799280
Si Si2 0.000000 0.379057 0.437807
Si Si3 0.832403 0.526725 0.301154
Si Si4 0.000000 0.767040 0.462342
Si Si5 0.829493 0.700334 0.303622
Si Si6 0.191653 0.444191 0.441431
Si Si7 0.805544 0.295147 0.056098
Si Si8 0.000000 0.425131 0.279541
O O1 0.500000 0.254033 0.879875
O O2 0.588458 0.258199 0.764442
O O3 0.500000 0.132939 0.786059
O O4 0.910226 0.422231 0.461101
O O5 0.000000 0.300150 0.480197
O O6 0.000000 0.375969 0.352352
O O7 0.750000 0.521774 0.250000
O O8 0.858424 0.613642 0.317809
O O9 0.800145 0.490799 0.371823
O O10 0.915315 0.479715 0.270939
O O11 0.093507 0.812299 0.472443
O O12 0.750000 0.705922 0.250000
O O13 0.805120 0.743688 0.374722
O O14 0.230162 0.500000 0.500000
O O15 0.256628 0.373637 0.430189
O O16 0.750000 0.250000 0.000000
#
# Coordination Sequence:
#
# PCOD8263962 Si02
#       8
#     8   8  16   8  16  16  16   8
#     4  10  23  35  63  89 126 158 199 246 313 376
#     4  10  21  39  63  94 116 153 203 271 301 356
#     4  10  23  40  60  87 125 157 204 254 308 367
#     4  10  22  38  57  90 121 159 206 243 313 360
#     4  10  23  40  62  89 120 163 204 252 305 368
#     4  11  23  38  63  93 123 157 204 259 313 363
#     4  11  22  38  63  87 122 160 204 254 304 373
#     4  10  23  38  62  94 121 157 205 258 311 361
#
# _framework density 19.058889000000001
#
# number of rings (size 3 to 8) (size 9 to 14) (size 15 to 20)
#    0.000    1.667    1.667    1.750   11.667    0.000 
#    0.000    0.417    0.000    4.000    0.000    0.000 
#    0.000    0.000    0.000    0.000    0.000    0.000 
#
# Total GULP energy -594859.735736 kJ/mol
# GULP energy per Si atom -12392.911161 kJ/mol
# Density = 1.901551 g / cm^3
# Si number density = 19.058889 Si / 1000 Ang^3
#
#
#
# Elastic Constant Matrix: (Units=GPa)
#
#
# Indices 1 2 3 4 5 6 
#
# 1 139.1812 80.2594 42.9780 0.0000 0.0000 0.0000
# 2 80.2594 158.8395 58.5448 0.0000 0.0000 0.0000
# 3 42.9780 58.5448 70.5285 0.0000 0.0000 0.0000
# 4 0.0000 0.0000 0.0000 40.1597 0.0000 0.0000
# 5 0.0000 0.0000 0.0000 0.0000 22.6515 0.0000
# 6 0.0000 0.0000 0.0000 0.0000 0.0000 35.0415
#
#
#
# Elastic Compliance Matrix: (Units=1/GPa)
#
#
# Indices 1 2 3 4 5 6 
#
# 1 0.010531 -0.004259 -0.002882 0.000000 0.000000 0.000000
# 2 -0.004259 0.010793 -0.006364 0.000000 0.000000 0.000000
# 3 -0.002882 -0.006364 0.021218 0.000000 0.000000 0.000000
# 4 0.000000 0.000000 0.000000 0.024901 0.000000 0.000000
# 5 0.000000 0.000000 0.000000 0.000000 0.044147 0.000000
# 6 0.000000 0.000000 0.000000 0.000000 0.000000 0.028538
#
#
# Mechanical properties :
#
#
# Convention : Reuss Voigt Hill
#
# Bulk Modulus (GPa) = 64.38397 81.34594 72.86496
# Shear Modulus (GPa) = 29.01685 32.02170 30.51927
#
# Velocity S-wave (km/s) = 3.90613 4.10340 4.00598
# Velocity P-wave (km/s) = 7.36198 8.07617 7.72733
#
# Compressibility (1/GPa) = 0.01553182
#
# Stress axis : x y z
#
# Youngs Moduli (GPa) = 94.96115 92.65048 47.13067
#
# Poissons Ratio (x) = 0.39458 0.13583
# Poissons Ratio (y) = 0.40442 0.29995
# Poissons Ratio (z) = 0.27367 0.58964
#
# Static dielectric constant tensor:
#      x y z
#    x 3.889420 0.000000 0.000000 
#    y 0.000000 3.437510 0.000000 
#    z 0.000000 0.000000 3.389820 
# 
# 
# High freq. dielectric constant tensor:
#      x y z
#    x 1.761660 0.000000 0.000000 
#    y 0.000000 1.740250 0.000000 
#    z 0.000000 0.000000 1.737110 
# 
# From -- ./inp_files/39298.got.cif
#   From: 2010.03.12/outbox.cif.g09.slc.cpg/sg64_20_cif.got.tgz:39298.got - 2010.04.10 20:19:32.
