data_PCOD8263506
_publ_section_title
;
Structure prediction by ZEFSAII (Michael W. Deem and Ramdas Pophale) SiO2 
 PCOD8263506
Probable space group: C M C A
;
_chemical_formula_sum "Si O2"
_cell_formula_units_Z 80
_cell_length_a 24.357501
_cell_length_b 16.982711
_cell_length_c 9.607856
_cell_angle_alpha 90.000000
_cell_angle_beta 90.000000
_cell_angle_gamma 90.000000
_cell_volume 3974.351126
_symmetry_space_group_name_H-M "C M C A"
_symmetry_group_IT_number 64
_symmetry_cell_setting 'orthorhombic'
loop_
_space_group_symop_operation_xyz
x,y,z
-x,1/2-y,1/2+z
x,-y,-z
-x,1/2+y,1/2-z
-x,-y,-z
x,1/2+y,1/2-z
-x,y,z
x,1/2-y,1/2+z
1/2+x,1/2+y,z
1/2-x,-y,1/2+z
1/2+x,1/2-y,-z
1/2-x,y,1/2-z
1/2-x,1/2-y,-z
1/2+x,y,1/2-z
1/2-x,1/2+y,z
1/2+x,-y,1/2+z
loop_
_atom_site_type_symbol
_atom_site_label
_atom_site_fract_x
_atom_site_fract_y
_atom_site_fract_z
Si Si1 0.851980 0.181841 0.336271
Si Si2 0.059532 0.941845 0.120396
Si Si3 0.150301 0.164133 0.015595
Si Si4 0.255427 0.567909 0.401996
Si Si5 0.437706 0.449506 0.636791
O O1 0.841245 0.262901 0.414337
O O2 0.860475 0.195932 0.171352
O O3 0.796885 0.138170 0.377771
O O4 0.904097 0.130962 0.386232
O O5 0.000000 0.905795 0.171040
O O6 0.087756 0.993858 0.243232
O O7 0.098744 0.876010 0.058522
O O8 0.044702 0.000000 0.000000
O O9 0.200519 0.102290 0.024715
O O10 0.279877 0.500000 0.500000
O O11 0.250000 0.528090 0.250000
O O12 0.435443 0.500000 0.500000
O O13 0.500000 0.425659 0.675921
#
# Coordination Sequence:
#
# PCOD8263506 Si02
#       5
#    16  16  16  16  16
#     4  11  24  40  59  90 125 160 201 253 311 368
#     4  10  20  39  65  89 119 163 208 253 303 365
#     4  11  24  39  61  89 125 161 201 254 310 369
#     4  10  23  41  64  90 118 160 208 255 306 370
#     4  10  22  40  64  92 123 160 208 256 302 366
#
# _framework density 20.129073000000002
#
# number of rings (size 3 to 8) (size 9 to 14) (size 15 to 20)
#    0.000    1.600    2.000    1.800    5.600    2.400 
#    0.000    0.000    0.000    0.000    0.000    0.000 
#    0.000    0.000    0.000    0.000    0.000    0.000 
#
# Total GULP energy -495617.247198 kJ/mol
# GULP energy per Si atom -12390.431180 kJ/mol
# Density = 2.008326 g / cm^3
# Si number density = 20.129073 Si / 1000 Ang^3
#
#
#
# Elastic Constant Matrix: (Units=GPa)
#
#
# Indices 1 2 3 4 5 6 
#
# 1 62.1166 7.2629 20.7700 0.0000 0.0000 0.0000
# 2 7.2629 65.9538 49.8864 0.0000 0.0000 0.0000
# 3 20.7700 49.8864 101.2173 0.0000 0.0000 0.0000
# 4 0.0000 0.0000 0.0000 43.4804 0.0000 0.0000
# 5 0.0000 0.0000 0.0000 0.0000 31.5842 0.0000
# 6 0.0000 0.0000 0.0000 0.0000 0.0000 4.6666
#
#
#
# Elastic Compliance Matrix: (Units=1/GPa)
#
#
# Indices 1 2 3 4 5 6 
#
# 1 0.017349 0.001247 -0.004175 0.000000 0.000000 0.000000
# 2 0.001247 0.024264 -0.012215 0.000000 0.000000 0.000000
# 3 -0.004175 -0.012215 0.016757 0.000000 0.000000 0.000000
# 4 0.000000 0.000000 0.000000 0.022999 0.000000 0.000000
# 5 0.000000 0.000000 0.000000 0.000000 0.031661 0.000000
# 6 0.000000 0.000000 0.000000 0.000000 0.000000 0.214288
#
#
# Mechanical properties :
#
#
# Convention : Reuss Voigt Hill
#
# Bulk Modulus (GPa) = 35.60644 42.79181 39.19912
# Shear Modulus (GPa) = 13.62534 26.03747 19.83140
#
# Velocity S-wave (km/s) = 2.60455 3.60046 3.14221
# Velocity P-wave (km/s) = 5.17420 6.21203 5.71672
#
# Compressibility (1/GPa) = 0.02808481
#
# Stress axis : x y z
#
# Youngs Moduli (GPa) = 57.64072 41.21377 59.67809
#
# Poissons Ratio (x) = -0.05140 0.24914
# Poissons Ratio (y) = -0.07189 0.72895
# Poissons Ratio (z) = 0.24063 0.50341
#
# Static dielectric constant tensor:
#      x y z
#    x 3.962830 0.000000 0.000000 
#    y 0.000000 3.395570 0.000000 
#    z 0.000000 0.000000 3.505080 
# 
# 
# High freq. dielectric constant tensor:
#      x y z
#    x 1.793740 0.000000 0.000000 
#    y 0.000000 1.771260 0.000000 
#    z 0.000000 0.000000 1.802730 
# 
# From -- ./inp_files/10155.got.cif
#   From: 2010.03.12/outbox.cif.g09.slc.cpg/sg64_6_cif.got.tgz:10155.got - 2010.04.10 20:19:32.
