data_PCOD8263623
_publ_section_title
;
Structure prediction by ZEFSAII (Michael W. Deem and Ramdas Pophale) SiO2 
 PCOD8263623
Probable space group: C M C A
;
_chemical_formula_sum "Si O2"
_cell_formula_units_Z 80
_cell_length_a 8.666566
_cell_length_b 25.810553
_cell_length_c 18.397582
_cell_angle_alpha 90.000000
_cell_angle_beta 90.000000
_cell_angle_gamma 90.000000
_cell_volume 4115.334164
_symmetry_space_group_name_H-M "C M C A"
_symmetry_group_IT_number 64
_symmetry_cell_setting 'orthorhombic'
loop_
_space_group_symop_operation_xyz
x,y,z
-x,1/2-y,1/2+z
x,-y,-z
-x,1/2+y,1/2-z
-x,-y,-z
x,1/2+y,1/2-z
-x,y,z
x,1/2-y,1/2+z
1/2+x,1/2+y,z
1/2-x,-y,1/2+z
1/2+x,1/2-y,-z
1/2-x,y,1/2-z
1/2-x,1/2-y,-z
1/2+x,y,1/2-z
1/2-x,1/2+y,z
1/2+x,-y,1/2+z
loop_
_atom_site_type_symbol
_atom_site_label
_atom_site_fract_x
_atom_site_fract_y
_atom_site_fract_z
Si Si1 0.816411 0.059900 0.078487
Si Si2 0.316929 0.347692 0.171156
Si Si3 0.682844 0.744710 0.579609
Si Si4 0.317708 0.155294 0.329406
Si Si5 0.316914 0.945315 0.415879
O O1 0.748598 0.104182 0.131071
O O2 0.000000 0.063020 0.078073
O O3 0.761327 0.003135 0.106570
O O4 0.754368 0.068802 0.996436
O O5 0.500000 0.345175 0.174752
O O6 0.250000 0.336588 0.250000
O O7 0.257095 0.305258 0.115672
O O8 0.256579 0.403585 0.142552
O O9 0.500000 0.738731 0.576657
O O10 0.750000 0.750000 0.500000
O O11 0.733816 0.794856 0.625083
O O12 0.500000 0.151628 0.323584
O O13 0.250000 0.160019 0.250000
O O14 0.500000 0.943928 0.418787
#
# Coordination Sequence:
#
# PCOD8263623 Si02
#       5
#    16  16  16  16  16
#     4   8  14  29  52  77 102 134 177 223 267 315
#     4  11  22  36  54  80 112 146 182 222 267 319
#     4  11  23  39  59  82 106 138 179 224 271 325
#     4  10  21  35  53  78 108 139 175 216 263 317
#     4   8  15  29  52  77 103 137 179 223 267 314
#
# _framework density 19.439489999999999
#
# number of rings (size 3 to 8) (size 9 to 14) (size 15 to 20)
#    0.000    2.400    0.000    4.200    0.000    7.200 
#    0.000    0.000    0.000    1.200    0.000    8.400 
#    0.000    0.000    0.000    0.000    0.000    0.000 
#
# Total GULP energy -495919.022950 kJ/mol
# GULP energy per Si atom -12397.975574 kJ/mol
# Density = 1.939524 g / cm^3
# Si number density = 19.439490 Si / 1000 Ang^3
#
#
#
# Elastic Constant Matrix: (Units=GPa)
#
#
# Indices 1 2 3 4 5 6 
#
# 1 35.5951 29.9250 24.3040 0.0000 0.0000 0.0000
# 2 29.9250 137.9988 59.7218 0.0000 0.0000 0.0000
# 3 24.3040 59.7218 124.2703 0.0000 0.0000 0.0000
# 4 0.0000 0.0000 0.0000 26.1965 0.0000 0.0000
# 5 0.0000 0.0000 0.0000 0.0000 25.6002 0.0000
# 6 0.0000 0.0000 0.0000 0.0000 0.0000 20.8262
#
#
#
# Elastic Compliance Matrix: (Units=1/GPa)
#
#
# Indices 1 2 3 4 5 6 
#
# 1 0.035976 -0.006005 -0.004150 0.000000 0.000000 0.000000
# 2 -0.006005 0.010152 -0.003704 0.000000 0.000000 0.000000
# 3 -0.004150 -0.003704 0.010639 0.000000 0.000000 0.000000
# 4 0.000000 0.000000 0.000000 0.038173 0.000000 0.000000
# 5 0.000000 0.000000 0.000000 0.000000 0.039062 0.000000
# 6 0.000000 0.000000 0.000000 0.000000 0.000000 0.048016
#
#
# Mechanical properties :
#
#
# Convention : Reuss Voigt Hill
#
# Bulk Modulus (GPa) = 34.42639 58.41843 46.42241
# Shear Modulus (GPa) = 22.78737 26.78549 24.78643
#
# Velocity S-wave (km/s) = 3.42749 3.71602 3.57467
# Velocity P-wave (km/s) = 5.78027 6.96623 6.40078
#
# Compressibility (1/GPa) = 0.02904748
#
# Stress axis : x y z
#
# Youngs Moduli (GPa) = 27.79630 98.50464 93.99589
#
# Poissons Ratio (x) = 0.59156 0.39007
# Poissons Ratio (y) = 0.16693 0.34818
# Poissons Ratio (z) = 0.11535 0.36489
#
# Static dielectric constant tensor:
#      x y z
#    x 3.187780 0.000000 0.000000 
#    y 0.000000 4.158400 0.000000 
#    z 0.000000 0.000000 3.230890 
# 
# 
# High freq. dielectric constant tensor:
#      x y z
#    x 1.718210 0.000000 0.000000 
#    y 0.000000 1.778620 0.000000 
#    z 0.000000 0.000000 1.763080 
# 
# From -- ./inp_files/29808.got.cif
#   From: 2010.03.12/outbox.cif.g09.slc.cpg/sg64_15_cif.got.tgz:29808.got - 2010.04.10 20:19:32.
