data_PCOD8263253
_publ_section_title
;
Structure prediction by ZEFSAII (Michael W. Deem and Ramdas Pophale) SiO2 
 PCOD8263253
Probable space group: C M C A
;
_chemical_formula_sum "Si O2"
_cell_formula_units_Z 96
_cell_length_a 17.228925
_cell_length_b 24.718072
_cell_length_c 12.081159
_cell_angle_alpha 90.000000
_cell_angle_beta 90.000000
_cell_angle_gamma 90.000000
_cell_volume 5144.952547
_symmetry_space_group_name_H-M "C M C A"
_symmetry_group_IT_number 64
_symmetry_cell_setting 'orthorhombic'
loop_
_space_group_symop_operation_xyz
x,y,z
-x,1/2-y,1/2+z
x,-y,-z
-x,1/2+y,1/2-z
-x,-y,-z
x,1/2+y,1/2-z
-x,y,z
x,1/2-y,1/2+z
1/2+x,1/2+y,z
1/2-x,-y,1/2+z
1/2+x,1/2-y,-z
1/2-x,y,1/2-z
1/2-x,1/2-y,-z
1/2+x,y,1/2-z
1/2-x,1/2+y,z
1/2+x,-y,1/2+z
loop_
_atom_site_type_symbol
_atom_site_label
_atom_site_fract_x
_atom_site_fract_y
_atom_site_fract_z
Si Si1 0.331265 0.809920 0.297421
Si Si2 0.087849 0.293288 0.728094
Si Si3 0.410033 0.394938 0.353543
Si Si4 0.354449 0.124264 0.098400
Si Si5 0.710426 0.693433 0.035054
Si Si6 0.414467 0.013411 0.127124
O O1 0.250000 0.786890 0.250000
O O2 0.393031 0.761674 0.293431
O O3 0.356162 0.859874 0.223874
O O4 0.324408 0.831581 0.422814
O O5 0.095860 0.341920 0.814321
O O6 0.141923 0.298038 0.621267
O O7 0.000000 0.291099 0.684701
O O8 0.500000 0.385481 0.326404
O O9 0.396399 0.376911 0.479996
O O10 0.385251 0.456523 0.322054
O O11 0.269457 0.150434 0.089013
O O12 0.352988 0.062332 0.145449
O O13 0.750000 0.750000 0.000000
O O14 0.500000 0.029882 0.174360
O O15 0.425774 0.000000 0.000000
#
# Coordination Sequence:
#
# PCOD8263253 Si02
#       6
#    16  16  16  16  16  16
#     4  12  22  39  57  83 117 161 194 239 296 356
#     4  12  25  38  59  88 117 155 201 241 293 359
#     4  10  20  36  62  91 121 155 199 250 295 344
#     4  11  19  37  65  87 119 156 194 248 299 345
#     4  12  23  41  59  82 125 157 192 240 301 356
#     4   8  16  32  57  91 120 149 196 249 294 337
#
# _framework density 18.659064999999998
#
# number of rings (size 3 to 8) (size 9 to 14) (size 15 to 20)
#    0.000    1.167    5.000    3.500    0.000    1.333 
#    0.000    1.667    0.000    0.000    0.000    3.500 
#    0.000    0.000    0.000    0.000    0.000    0.000 
#
# Total GULP energy -595030.560417 kJ/mol
# GULP energy per Si atom -12396.470009 kJ/mol
# Density = 1.861660 g / cm^3
# Si number density = 18.659065 Si / 1000 Ang^3
#
#
#
# Elastic Constant Matrix: (Units=GPa)
#
#
# Indices 1 2 3 4 5 6 
#
# 1 118.6621 53.5126 39.8431 0.0000 0.0000 0.0000
# 2 53.5126 133.0182 37.7658 0.0000 0.0000 0.0000
# 3 39.8431 37.7658 84.7064 0.0000 0.0000 0.0000
# 4 0.0000 0.0000 0.0000 21.2830 0.0000 0.0000
# 5 0.0000 0.0000 0.0000 0.0000 26.7298 0.0000
# 6 0.0000 0.0000 0.0000 0.0000 0.0000 85.7635
#
#
#
# Elastic Compliance Matrix: (Units=1/GPa)
#
#
# Indices 1 2 3 4 5 6 
#
# 1 0.011246 -0.003460 -0.003747 0.000000 0.000000 0.000000
# 2 -0.003460 0.009672 -0.002685 0.000000 0.000000 0.000000
# 3 -0.003747 -0.002685 0.014765 0.000000 0.000000 0.000000
# 4 0.000000 0.000000 0.000000 0.046986 0.000000 0.000000
# 5 0.000000 0.000000 0.000000 0.000000 0.037411 0.000000
# 6 0.000000 0.000000 0.000000 0.000000 0.000000 0.011660
#
#
# Mechanical properties :
#
#
# Convention : Reuss Voigt Hill
#
# Bulk Modulus (GPa) = 62.89690 66.51440 64.70565
# Shear Modulus (GPa) = 31.88302 40.43963 36.16133
#
# Velocity S-wave (km/s) = 4.13814 4.66047 4.40705
# Velocity P-wave (km/s) = 7.52423 8.04267 7.78776
#
# Compressibility (1/GPa) = 0.01589903
#
# Stress axis : x y z
#
# Youngs Moduli (GPa) = 88.92139 103.39079 67.72868
#
# Poissons Ratio (x) = 0.35777 0.25377
# Poissons Ratio (y) = 0.30770 0.18182
# Poissons Ratio (z) = 0.33318 0.27756
#
# Static dielectric constant tensor:
#      x y z
#    x 3.373490 0.000000 0.000000 
#    y 0.000000 3.976820 0.000000 
#    z 0.000000 0.000000 3.448310 
# 
# 
# High freq. dielectric constant tensor:
#      x y z
#    x 1.717160 0.000000 0.000000 
#    y 0.000000 1.730010 0.000000 
#    z 0.000000 0.000000 1.710750 
# 
# From -- ./inp_files/16210.got.cif
#   From: 2010.03.12/outbox.cif.g09.slc.cpg/sg64_9_cif.got.tgz:16210.got - 2010.04.10 20:19:32.
