data_PCOD8263807
_publ_section_title
;
Structure prediction by ZEFSAII (Michael W. Deem and Ramdas Pophale) SiO2 
 PCOD8263807
Probable space group: C M C A
;
_chemical_formula_sum "Si O2"
_cell_formula_units_Z 64
_cell_length_a 35.875844
_cell_length_b 5.293797
_cell_length_c 12.870901
_cell_angle_alpha 90.000000
_cell_angle_beta 90.000000
_cell_angle_gamma 90.000000
_cell_volume 2444.434250
_symmetry_space_group_name_H-M "C M C A"
_symmetry_group_IT_number 64
_symmetry_cell_setting 'orthorhombic'
loop_
_space_group_symop_operation_xyz
x,y,z
-x,1/2-y,1/2+z
x,-y,-z
-x,1/2+y,1/2-z
-x,-y,-z
x,1/2+y,1/2-z
-x,y,z
x,1/2-y,1/2+z
1/2+x,1/2+y,z
1/2-x,-y,1/2+z
1/2+x,1/2-y,-z
1/2-x,y,1/2-z
1/2-x,1/2-y,-z
1/2+x,y,1/2-z
1/2-x,1/2+y,z
1/2+x,-y,1/2+z
loop_
_atom_site_type_symbol
_atom_site_label
_atom_site_fract_x
_atom_site_fract_y
_atom_site_fract_z
Si Si1 0.733751 0.064976 0.383625
Si Si2 0.617485 0.860439 0.860108
Si Si3 0.148210 0.863680 0.870725
Si Si4 0.459189 0.748631 0.932595
O O1 0.759948 0.285736 0.331336
O O2 0.692205 0.173842 0.376721
O O3 0.746966 0.000000 0.500000
O O4 0.638113 0.633825 0.924382
O O5 0.635079 0.912254 0.747708
O O6 0.573684 0.789245 0.848611
O O7 0.625428 0.126286 0.920088
O O8 0.500000 0.717437 0.878308
O O9 0.450480 0.500000 0.000000
O O10 0.459542 0.000000 0.000000
#
# Coordination Sequence:
#
# PCOD8263807 Si02
#       4
#    16  16  16  16
#     4  10  21  38  59  84 115 152 195 244 296 350
#     4  10  21  38  56  85 120 154 196 242 296 356
#     4  10  21  38  58  85 120 155 198 243 296 358
#     4  10  21  38  61  88 118 154 196 243 295 352
#
# _framework density 26.181927000000002
#
# number of rings (size 3 to 8) (size 9 to 14) (size 15 to 20)
#    0.000    2.000    0.000    3.000    0.000    3.000 
#    0.000   20.000    0.000    0.000    0.000    0.000 
#    0.000    0.000    0.000    0.000    0.000    0.000 
#
# Total GULP energy -396479.334888 kJ/mol
# GULP energy per Si atom -12389.979215 kJ/mol
# Density = 2.612234 g / cm^3
# Si number density = 26.181927 Si / 1000 Ang^3
#
#
#
# Elastic Constant Matrix: (Units=GPa)
#
#
# Indices 1 2 3 4 5 6 
#
# 1 187.9996 68.0033 -1.7915 0.0000 0.0000 0.0000
# 2 68.0033 274.2736 11.4061 0.0000 0.0000 0.0000
# 3 -1.7915 11.4061 30.4107 0.0000 0.0000 0.0000
# 4 0.0000 0.0000 0.0000 -170.8731 0.0000 0.0000
# 5 0.0000 0.0000 0.0000 0.0000 40.3417 0.0000
# 6 0.0000 0.0000 0.0000 0.0000 0.0000 51.4863
#
#
#
# Elastic Compliance Matrix: (Units=1/GPa)
#
#
# Indices 1 2 3 4 5 6 
#
# 1 0.005868 -0.001492 0.000905 0.000000 0.000000 0.000000
# 2 -0.001492 0.004083 -0.001619 0.000000 0.000000 0.000000
# 3 0.000905 -0.001619 0.033544 0.000000 0.000000 0.000000
# 4 0.000000 0.000000 0.000000 -0.005852 0.000000 0.000000
# 5 0.000000 0.000000 0.000000 0.000000 0.024788 0.000000
# 6 0.000000 0.000000 0.000000 0.000000 0.000000 0.019423
#
#
# Mechanical properties :
#
#
# Convention : Reuss Voigt Hill
#
# Bulk Modulus (GPa) = 25.58725 71.99107 48.78916
# Shear Modulus (GPa) = 50.35558 11.86206 31.10882
#
# Velocity S-wave (km/s) = 4.39030 2.13084 3.45074
# Velocity P-wave (km/s) = 5.95766 5.79742 5.87809
#
# Compressibility (1/GPa) = 0.03908196
#
# Stress axis : x y z
#
# Youngs Moduli (GPa) = 170.42605 244.89479 29.81165
#
# Poissons Ratio (x) = 0.36550 -0.02699
# Poissons Ratio (y) = 0.25436 0.04828
# Poissons Ratio (z) = -0.15431 0.39660
#
# Static dielectric constant tensor:
#      x y z
#    x 4.810530 0.000000 0.000000 
#    y 0.000000 6.310710 0.000000 
#    z 0.000000 0.000000 4.393350 
# 
# 
# High freq. dielectric constant tensor:
#      x y z
#    x 2.040510 0.000000 0.000000 
#    y 0.000000 2.103620 0.000000 
#    z 0.000000 0.000000 2.037530 
# 
# From -- ./inp_files/42003.got.cif
#   From: 2010.03.12/outbox.cif.g09.slc.cpg/sg64_22_cif.got.tgz:42003.got - 2010.04.10 20:19:32.
