data_PCOD8263367
_publ_section_title
;
Structure prediction by ZEFSAII (Michael W. Deem and Ramdas Pophale) SiO2 
 PCOD8263367
Probable space group: C M C A
;
_chemical_formula_sum "Si O2"
_cell_formula_units_Z 88
_cell_length_a 13.911518
_cell_length_b 27.931055
_cell_length_c 10.406200
_cell_angle_alpha 90.000000
_cell_angle_beta 90.000000
_cell_angle_gamma 90.000000
_cell_volume 4043.468187
_symmetry_space_group_name_H-M "C M C A"
_symmetry_group_IT_number 64
_symmetry_cell_setting 'orthorhombic'
loop_
_space_group_symop_operation_xyz
x,y,z
-x,1/2-y,1/2+z
x,-y,-z
-x,1/2+y,1/2-z
-x,-y,-z
x,1/2+y,1/2-z
-x,y,z
x,1/2-y,1/2+z
1/2+x,1/2+y,z
1/2-x,-y,1/2+z
1/2+x,1/2-y,-z
1/2-x,y,1/2-z
1/2-x,1/2-y,-z
1/2+x,y,1/2-z
1/2-x,1/2+y,z
1/2+x,-y,1/2+z
loop_
_atom_site_type_symbol
_atom_site_label
_atom_site_fract_x
_atom_site_fract_y
_atom_site_fract_z
Si Si1 0.386978 0.933606 0.597262
Si Si2 0.607565 0.892719 0.108937
Si Si3 0.770352 0.349715 0.546975
Si Si4 0.892632 0.189983 0.812899
Si Si5 0.886331 0.465390 0.316457
Si Si6 0.250000 0.769987 0.750000
O O1 0.500000 0.925166 0.604253
O O2 0.333408 0.884872 0.638795
O O3 0.351340 0.943031 0.450979
O O4 0.357543 0.978393 0.688247
O O5 0.500000 0.905949 0.058545
O O6 0.600661 0.846774 0.197776
O O7 0.653987 0.937172 0.191515
O O8 0.674282 0.879328 0.988883
O O9 0.828747 0.333998 0.422059
O O10 0.747312 0.301733 0.622686
O O11 0.845477 0.237856 0.755571
O O12 0.000000 0.201669 0.864712
O O13 0.000000 0.459281 0.314647
#
# Coordination Sequence:
#
# PCOD8263367 Si02
#       6
#    16  16  16  16  16   8
#     4   9  17  32  59  93 125 159 201 253 312 374
#     4  10  20  37  65  97 128 165 211 266 322 382
#     4  12  23  41  63  91 130 170 216 269 320 394
#     4  11  23  41  66  92 120 163 213 267 328 386
#     4   8  15  31  57  92 124 151 198 257 308 368
#     4  12  28  44  56  90 134 168 216 272 324 386
#
# _framework density 21.763496
#
# number of rings (size 3 to 8) (size 9 to 14) (size 15 to 20)
#    0.000    1.818    3.636    2.182    0.000    2.182 
#    0.000    3.636    0.000    0.000    0.000    8.909 
#    0.000    0.000    0.000    0.000    0.000    0.000 
#
# Total GULP energy -545486.075826 kJ/mol
# GULP energy per Si atom -12397.410814 kJ/mol
# Density = 2.171396 g / cm^3
# Si number density = 21.763496 Si / 1000 Ang^3
#
#
#
# Elastic Constant Matrix: (Units=GPa)
#
#
# Indices 1 2 3 4 5 6 
#
# 1 97.8528 40.8698 31.9533 0.0000 0.0000 0.0000
# 2 40.8698 134.0686 41.7752 0.0000 0.0000 0.0000
# 3 31.9533 41.7752 30.6218 0.0000 0.0000 0.0000
# 4 0.0000 0.0000 0.0000 -17.4216 0.0000 0.0000
# 5 0.0000 0.0000 0.0000 0.0000 15.5392 0.0000
# 6 0.0000 0.0000 0.0000 0.0000 0.0000 40.3466
#
#
#
# Elastic Compliance Matrix: (Units=1/GPa)
#
#
# Indices 1 2 3 4 5 6 
#
# 1 0.015525 0.000548 -0.016948 0.000000 0.000000 0.000000
# 2 0.000548 0.012993 -0.018298 0.000000 0.000000 0.000000
# 3 -0.016948 -0.018298 0.075303 0.000000 0.000000 0.000000
# 4 0.000000 0.000000 0.000000 -0.057400 0.000000 0.000000
# 5 0.000000 0.000000 0.000000 0.000000 0.064354 0.000000
# 6 0.000000 0.000000 0.000000 0.000000 0.000000 0.024785
#
#
# Mechanical properties :
#
#
# Convention : Reuss Voigt Hill
#
# Bulk Modulus (GPa) = 29.04704 54.63776 41.84240
# Shear Modulus (GPa) = 23.10216 17.55584 20.32900
#
# Velocity S-wave (km/s) = 3.26162 2.84327 3.05960
# Velocity P-wave (km/s) = 5.24975 5.99488 5.63465
#
# Compressibility (1/GPa) = 0.03442691
#
# Stress axis : x y z
#
# Youngs Moduli (GPa) = 64.41399 76.96270 13.27960
#
# Poissons Ratio (x) = -0.04219 0.22506
# Poissons Ratio (y) = -0.03531 0.24299
# Poissons Ratio (z) = 1.09166 1.40826
#
# Static dielectric constant tensor:
#      x y z
#    x 4.227270 0.000000 0.000000 
#    y 0.000000 4.241970 0.000000 
#    z 0.000000 0.000000 3.613850 
# 
# 
# High freq. dielectric constant tensor:
#      x y z
#    x 1.858080 0.000000 0.000000 
#    y 0.000000 1.866610 0.000000 
#    z 0.000000 0.000000 1.818420 
# 
# From -- ./inp_files/14579.got.cif
#   From: 2010.03.12/outbox.cif.g09.slc.cpg/sg64_8_cif.got.tgz:14579.got - 2010.04.10 20:19:32.
