data_PCOD8263029
_publ_section_title
;
Structure prediction by ZEFSAII (Michael W. Deem and Ramdas Pophale) SiO2 
 PCOD8263029
Probable space group: C M C A
;
_chemical_formula_sum "Si O2"
_cell_formula_units_Z 96
_cell_length_a 8.622815
_cell_length_b 19.038588
_cell_length_c 30.595366
_cell_angle_alpha 90.000000
_cell_angle_beta 90.000000
_cell_angle_gamma 90.000000
_cell_volume 5022.725653
_symmetry_space_group_name_H-M "C M C A"
_symmetry_group_IT_number 64
_symmetry_cell_setting 'orthorhombic'
loop_
_space_group_symop_operation_xyz
x,y,z
-x,1/2-y,1/2+z
x,-y,-z
-x,1/2+y,1/2-z
-x,-y,-z
x,1/2+y,1/2-z
-x,y,z
x,1/2-y,1/2+z
1/2+x,1/2+y,z
1/2-x,-y,1/2+z
1/2+x,1/2-y,-z
1/2-x,y,1/2-z
1/2-x,1/2-y,-z
1/2+x,y,1/2-z
1/2-x,1/2+y,z
1/2+x,-y,1/2+z
loop_
_atom_site_type_symbol
_atom_site_label
_atom_site_fract_x
_atom_site_fract_y
_atom_site_fract_z
Si Si1 0.181133 0.578399 0.987608
Si Si2 0.679712 0.254843 0.366337
Si Si3 0.178871 0.631986 0.430362
Si Si4 0.182366 0.848387 0.702078
Si Si5 0.820929 0.469403 0.863204
Si Si6 0.179326 0.103687 0.894420
O O1 0.219708 0.596222 0.937963
O O2 0.000000 0.588859 0.995204
O O3 0.235523 0.500000 0.000000
O O4 0.272422 0.633092 0.018858
O O5 0.500000 0.274737 0.361870
O O6 0.710913 0.208037 0.409440
O O7 0.732507 0.214253 0.323054
O O8 0.780955 0.324558 0.369886
O O9 0.283565 0.573298 0.407171
O O10 0.000000 0.610894 0.424480
O O11 0.250000 0.853096 0.750000
O O12 0.220314 0.922371 0.678815
O O13 0.000000 0.833213 0.702524
O O14 0.719826 0.540182 0.861394
O O15 0.000000 0.490734 0.864354
O O16 0.000000 0.101733 0.906941
#
# Coordination Sequence:
#
# PCOD8263029 Si02
#       6
#    16  16  16  16  16  16
#     4  11  22  35  55  81 113 155 198 241 288 339
#     4  10  22  40  60  84 118 154 191 236 291 346
#     4  10  20  35  57  83 110 149 196 241 283 333
#     4  10  21  39  65  92 117 147 186 229 280 343
#     4  10  20  36  58  84 115 149 186 232 284 338
#     4  12  24  37  57  84 116 153 195 241 289 341
#
# _framework density 19.113129000000001
#
# number of rings (size 3 to 8) (size 9 to 14) (size 15 to 20)
#    0.000    1.500    1.667    4.000    0.000    5.333 
#    0.000    0.833    0.000    2.000    0.000    0.000 
#    0.000    0.000    0.000    0.000    0.000    0.000 
#
# Total GULP energy -595476.746187 kJ/mol
# GULP energy per Si atom -12405.765546 kJ/mol
# Density = 1.906963 g / cm^3
# Si number density = 19.113129 Si / 1000 Ang^3
#
#
#
# Elastic Constant Matrix: (Units=GPa)
#
#
# Indices 1 2 3 4 5 6 
#
# 1 66.7035 36.9042 21.1127 0.0000 0.0000 0.0000
# 2 36.9042 107.4482 38.0544 0.0000 0.0000 0.0000
# 3 21.1127 38.0544 102.3568 0.0000 0.0000 0.0000
# 4 0.0000 0.0000 0.0000 107.5283 0.0000 0.0000
# 5 0.0000 0.0000 0.0000 0.0000 33.1192 0.0000
# 6 0.0000 0.0000 0.0000 0.0000 0.0000 32.0310
#
#
#
# Elastic Compliance Matrix: (Units=1/GPa)
#
#
# Indices 1 2 3 4 5 6 
#
# 1 0.018762 -0.005843 -0.001698 0.000000 0.000000 0.000000
# 2 -0.005843 0.012538 -0.003456 0.000000 0.000000 0.000000
# 3 -0.001698 -0.003456 0.011405 0.000000 0.000000 0.000000
# 4 0.000000 0.000000 0.000000 0.009300 0.000000 0.000000
# 5 0.000000 0.000000 0.000000 0.000000 0.030194 0.000000
# 6 0.000000 0.000000 0.000000 0.000000 0.000000 0.031220
#
#
# Mechanical properties :
#
#
# Convention : Reuss Voigt Hill
#
# Bulk Modulus (GPa) = 48.28318 52.07235 50.17776
# Shear Modulus (GPa) = 35.13359 46.56484 40.84921
#
# Velocity S-wave (km/s) = 4.29206 4.94122 4.62804
# Velocity P-wave (km/s) = 7.06251 7.73677 7.40732
#
# Compressibility (1/GPa) = 0.02071115
#
# Stress axis : x y z
#
# Youngs Moduli (GPa) = 53.30057 79.76047 87.68213
#
# Poissons Ratio (x) = 0.46601 0.14886
# Poissons Ratio (y) = 0.31141 0.30304
# Poissons Ratio (z) = 0.09049 0.27566
#
# Static dielectric constant tensor:
#      x y z
#    x 3.552800 0.000000 0.000000 
#    y 0.000000 3.536420 0.000000 
#    z 0.000000 0.000000 3.189630 
# 
# 
# High freq. dielectric constant tensor:
#      x y z
#    x 1.758940 0.000000 0.000000 
#    y 0.000000 1.739110 0.000000 
#    z 0.000000 0.000000 1.729880 
# 
# From -- ./inp_files/48100.got.cif
#   From: 2010.03.12/outbox.cif.g09.slc.cpg/sg64_25_cif.got.tgz:48100.got - 2010.04.10 20:19:32.
