data_PCOD8263723
_publ_section_title
;
Structure prediction by ZEFSAII (Michael W. Deem and Ramdas Pophale) SiO2 
 PCOD8263723
Probable space group: C M C A
;
_chemical_formula_sum "Si O2"
_cell_formula_units_Z 72
_cell_length_a 28.865970
_cell_length_b 13.404477
_cell_length_c 8.264288
_cell_angle_alpha 90.000000
_cell_angle_beta 90.000000
_cell_angle_gamma 90.000000
_cell_volume 3197.727657
_symmetry_space_group_name_H-M "C M C A"
_symmetry_group_IT_number 64
_symmetry_cell_setting 'orthorhombic'
loop_
_space_group_symop_operation_xyz
x,y,z
-x,1/2-y,1/2+z
x,-y,-z
-x,1/2+y,1/2-z
-x,-y,-z
x,1/2+y,1/2-z
-x,y,z
x,1/2-y,1/2+z
1/2+x,1/2+y,z
1/2-x,-y,1/2+z
1/2+x,1/2-y,-z
1/2-x,y,1/2-z
1/2-x,1/2-y,-z
1/2+x,y,1/2-z
1/2-x,1/2+y,z
1/2+x,-y,1/2+z
loop_
_atom_site_type_symbol
_atom_site_label
_atom_site_fract_x
_atom_site_fract_y
_atom_site_fract_z
Si Si1 0.750000 0.741955 0.750000
Si Si2 0.552418 0.970488 0.325485
Si Si3 0.596757 0.875540 0.878976
Si Si4 0.200418 0.383137 0.001926
Si Si5 0.448467 0.728711 0.669546
O O1 0.769973 0.817803 0.620118
O O2 0.710449 0.667710 0.676757
O O3 0.500000 0.011594 0.307353
O O4 0.553876 0.851466 0.315405
O O5 0.573249 0.000000 0.500000
O O6 0.583591 0.012107 0.175372
O O7 0.647330 0.872726 0.953072
O O8 0.589724 0.812970 0.711139
O O9 0.560627 0.828193 0.002740
O O10 0.215342 0.500000 0.000000
O O11 0.500000 0.775710 0.658811
#
# Coordination Sequence:
#
# PCOD8263723 Si02
#       5
#     8  16  16  16  16
#     4  10  24  44  68  96 128 166 210 264 342 420
#     4  10  21  37  56  82 120 165 210 256 310 372
#     4  12  23  38  61  90 122 162 215 266 318 382
#     4  11  23  43  68  96 129 166 212 271 336 403
#     4  11  22  36  56  84 122 165 206 255 312 369
#
# _framework density 22.515988
#
# number of rings (size 3 to 8) (size 9 to 14) (size 15 to 20)
#    0.000    1.111    0.000    7.333    0.000    3.556 
#    0.000    3.333    0.000    0.000    0.000    0.000 
#    0.000    0.000    0.000    0.000    0.000    0.000 
#
# Total GULP energy -446317.877933 kJ/mol
# GULP energy per Si atom -12397.718831 kJ/mol
# Density = 2.246474 g / cm^3
# Si number density = 22.515988 Si / 1000 Ang^3
#
#
#
# Elastic Constant Matrix: (Units=GPa)
#
#
# Indices 1 2 3 4 5 6 
#
# 1 118.0912 42.3740 29.2070 0.0000 0.0000 0.0000
# 2 42.3740 136.3379 21.1023 0.0000 0.0000 0.0000
# 3 29.2070 21.1023 63.6361 0.0000 0.0000 0.0000
# 4 0.0000 0.0000 0.0000 41.6967 0.0000 0.0000
# 5 0.0000 0.0000 0.0000 0.0000 37.1378 0.0000
# 6 0.0000 0.0000 0.0000 0.0000 0.0000 35.0208
#
#
#
# Elastic Compliance Matrix: (Units=1/GPa)
#
#
# Indices 1 2 3 4 5 6 
#
# 1 0.010371 -0.002621 -0.003891 0.000000 0.000000 0.000000
# 2 -0.002621 0.008394 -0.001581 0.000000 0.000000 0.000000
# 3 -0.003891 -0.001581 0.018024 0.000000 0.000000 0.000000
# 4 0.000000 0.000000 0.000000 0.023983 0.000000 0.000000
# 5 0.000000 0.000000 0.000000 0.000000 0.026927 0.000000
# 6 0.000000 0.000000 0.000000 0.000000 0.000000 0.028554
#
#
# Mechanical properties :
#
#
# Convention : Reuss Voigt Hill
#
# Bulk Modulus (GPa) = 48.53343 55.93688 52.23515
# Shear Modulus (GPa) = 35.89230 37.79651 36.84441
#
# Velocity S-wave (km/s) = 3.99693 4.10158 4.04959
# Velocity P-wave (km/s) = 6.55000 6.87952 6.71678
#
# Compressibility (1/GPa) = 0.02060436
#
# Stress axis : x y z
#
# Youngs Moduli (GPa) = 96.42445 119.13305 55.48102
#
# Poissons Ratio (x) = 0.31225 0.21586
# Poissons Ratio (y) = 0.25273 0.08769
# Poissons Ratio (z) = 0.37516 0.18829
#
# Static dielectric constant tensor:
#      x y z
#    x 3.701260 0.000000 0.000000 
#    y 0.000000 4.428950 0.000000 
#    z 0.000000 0.000000 4.233610 
# 
# 
# High freq. dielectric constant tensor:
#      x y z
#    x 1.853750 0.000000 0.000000 
#    y 0.000000 1.912520 0.000000 
#    z 0.000000 0.000000 1.902360 
# 
# From -- ./inp_files/9993.got.cif
#   From: 2010.03.12/outbox.cif.g09.slc.cpg/sg64_5_cif.got.tgz:9993.got - 2010.04.10 20:19:32.
