data_PCOD8263420
_publ_section_title
;
Structure prediction by ZEFSAII (Michael W. Deem and Ramdas Pophale) SiO2 
 PCOD8263420
Probable space group: C M C A
;
_chemical_formula_sum "Si O2"
_cell_formula_units_Z 72
_cell_length_a 14.518944
_cell_length_b 23.331572
_cell_length_c 9.510791
_cell_angle_alpha 90.000000
_cell_angle_beta 90.000000
_cell_angle_gamma 90.000000
_cell_volume 3221.778428
_symmetry_space_group_name_H-M "C M C A"
_symmetry_group_IT_number 64
_symmetry_cell_setting 'orthorhombic'
loop_
_space_group_symop_operation_xyz
x,y,z
-x,1/2-y,1/2+z
x,-y,-z
-x,1/2+y,1/2-z
-x,-y,-z
x,1/2+y,1/2-z
-x,y,z
x,1/2-y,1/2+z
1/2+x,1/2+y,z
1/2-x,-y,1/2+z
1/2+x,1/2-y,-z
1/2-x,y,1/2-z
1/2-x,1/2-y,-z
1/2+x,y,1/2-z
1/2-x,1/2+y,z
1/2+x,-y,1/2+z
loop_
_atom_site_type_symbol
_atom_site_label
_atom_site_fract_x
_atom_site_fract_y
_atom_site_fract_z
Si Si1 0.152677 0.807880 0.807836
Si Si2 0.253202 0.000000 0.500000
Si Si3 0.601327 0.569115 0.178637
Si Si4 0.604908 0.915559 0.008903
Si Si5 0.897928 0.785372 0.507255
O O1 0.250000 0.828860 0.750000
O O2 0.104954 0.864417 0.871925
O O3 0.167095 0.760957 0.930769
O O4 0.099654 0.779494 0.676119
O O5 0.318372 0.031053 0.387687
O O6 0.184049 0.045093 0.580684
O O7 0.500000 0.545293 0.136087
O O8 0.612825 0.569218 0.345334
O O9 0.500000 0.928934 0.062324
O O10 0.631051 0.849641 0.036987
O O11 0.000000 0.771953 0.451358
#
# Coordination Sequence:
#
# PCOD8263420 Si02
#       5
#    16   8  16  16  16
#     4  11  21  37  62  92 121 157 200 246 298 361
#     4  12  20  34  58  82 106 146 204 254 282 338
#     4  10  21  38  58  83 116 155 195 242 304 362
#     4   9  20  38  59  82 115 158 197 239 302 366
#     4  10  20  38  62  88 120 157 194 239 300 366
#
# _framework density 22.347905000000001
#
# number of rings (size 3 to 8) (size 9 to 14) (size 15 to 20)
#    0.000    1.778    0.000    8.000    0.000    0.000 
#    0.000    6.667    0.000    8.000    0.000    0.000 
#    0.000    0.000    0.000    0.000    0.000    0.000 
#
# Total GULP energy -446147.694571 kJ/mol
# GULP energy per Si atom -12392.991516 kJ/mol
# Density = 2.229704 g / cm^3
# Si number density = 22.347905 Si / 1000 Ang^3
#
#
#
# Elastic Constant Matrix: (Units=GPa)
#
#
# Indices 1 2 3 4 5 6 
#
# 1 132.8248 48.4906 24.6911 0.0000 0.0000 0.0000
# 2 48.4906 126.5543 50.3141 0.0000 0.0000 0.0000
# 3 24.6911 50.3141 47.3768 0.0000 0.0000 0.0000
# 4 0.0000 0.0000 0.0000 36.8696 0.0000 0.0000
# 5 0.0000 0.0000 0.0000 0.0000 26.4206 0.0000
# 6 0.0000 0.0000 0.0000 0.0000 0.0000 51.6029
#
#
#
# Elastic Compliance Matrix: (Units=1/GPa)
#
#
# Indices 1 2 3 4 5 6 
#
# 1 0.008836 -0.002691 -0.001747 0.000000 0.000000 0.000000
# 2 -0.002691 0.014496 -0.013992 0.000000 0.000000 0.000000
# 3 -0.001747 -0.013992 0.036877 0.000000 0.000000 0.000000
# 4 0.000000 0.000000 0.000000 0.027123 0.000000 0.000000
# 5 0.000000 0.000000 0.000000 0.000000 0.037849 0.000000
# 6 0.000000 0.000000 0.000000 0.000000 0.000000 0.019379
#
#
# Mechanical properties :
#
#
# Convention : Reuss Voigt Hill
#
# Bulk Modulus (GPa) = 42.82876 61.52751 52.17814
# Shear Modulus (GPa) = 26.42677 35.19595 30.81136
#
# Velocity S-wave (km/s) = 3.44250 3.97282 3.71713
# Velocity P-wave (km/s) = 5.91669 6.97394 6.46696
#
# Compressibility (1/GPa) = 0.02334879
#
# Stress axis : x y z
#
# Youngs Moduli (GPa) = 113.17485 68.98687 27.11699
#
# Poissons Ratio (x) = 0.18564 0.04738
# Poissons Ratio (y) = 0.30455 0.37942
# Poissons Ratio (z) = 0.19774 0.96525
#
# Static dielectric constant tensor:
#      x y z
#    x 4.432840 0.000000 0.000000 
#    y 0.000000 4.138900 0.000000 
#    z 0.000000 0.000000 3.580710 
# 
# 
# High freq. dielectric constant tensor:
#      x y z
#    x 1.905980 0.000000 0.000000 
#    y 0.000000 1.885560 0.000000 
#    z 0.000000 0.000000 1.829260 
# 
# From -- ./inp_files/14368.got.cif
#   From: 2010.03.12/outbox.cif.g09.slc.cpg/sg64_8_cif.got.tgz:14368.got - 2010.04.10 20:19:32.
