data_PCOD8263200
_publ_section_title
;
Structure prediction by ZEFSAII (Michael W. Deem and Ramdas Pophale) SiO2 
 PCOD8263200
Probable space group: C M C A
;
_chemical_formula_sum "Si O2"
_cell_formula_units_Z 80
_cell_length_a 8.641278
_cell_length_b 18.348426
_cell_length_c 25.513457
_cell_angle_alpha 90.000000
_cell_angle_beta 90.000000
_cell_angle_gamma 90.000000
_cell_volume 4045.256832
_symmetry_space_group_name_H-M "C M C A"
_symmetry_group_IT_number 64
_symmetry_cell_setting 'orthorhombic'
loop_
_space_group_symop_operation_xyz
x,y,z
-x,1/2-y,1/2+z
x,-y,-z
-x,1/2+y,1/2-z
-x,-y,-z
x,1/2+y,1/2-z
-x,y,z
x,1/2-y,1/2+z
1/2+x,1/2+y,z
1/2-x,-y,1/2+z
1/2+x,1/2-y,-z
1/2-x,y,1/2-z
1/2-x,1/2-y,-z
1/2+x,y,1/2-z
1/2-x,1/2+y,z
1/2+x,-y,1/2+z
loop_
_atom_site_type_symbol
_atom_site_label
_atom_site_fract_x
_atom_site_fract_y
_atom_site_fract_z
Si Si1 0.318941 0.075782 0.305354
Si Si2 0.816396 0.918466 0.000569
Si Si3 0.318610 0.824083 0.597568
Si Si4 0.818267 0.332401 0.397813
Si Si5 0.817887 0.921695 0.306006
O O1 0.500000 0.062528 0.298976
O O2 0.250000 0.101698 0.250000
O O3 0.281372 0.137642 0.347405
O O4 0.245945 0.999875 0.324550
O O5 0.756099 0.876717 0.051945
O O6 0.000000 0.922230 0.001023
O O7 0.760185 0.876509 0.948830
O O8 0.746245 0.000000 0.000000
O O9 0.500000 0.805758 0.592130
O O10 0.218224 0.751797 0.593516
O O11 0.728784 0.359943 0.346922
O O12 0.000000 0.343949 0.389722
O O13 0.750000 0.899078 0.250000
O O14 0.000000 0.926348 0.301094
#
# Coordination Sequence:
#
# PCOD8263200 Si02
#       5
#    16  16  16  16  16
#     4  10  20  36  59  84 112 147 187 231 279 331
#     4   9  18  35  59  83 109 146 191 235 280 333
#     4  10  21  37  57  82 115 153 191 233 281 333
#     4  11  22  36  57  84 115 150 188 232 284 338
#     4  11  22  38  60  84 113 147 187 233 279 333
#
# _framework density 19.776247999999999
#
# number of rings (size 3 to 8) (size 9 to 14) (size 15 to 20)
#    0.000    1.800    0.000    6.000    0.000    5.600 
#    0.000    3.000    0.000    4.200    0.000    0.000 
#    0.000    0.000    0.000    0.000    0.000    0.000 
#
# Total GULP energy -496186.999163 kJ/mol
# GULP energy per Si atom -12404.674979 kJ/mol
# Density = 1.973124 g / cm^3
# Si number density = 19.776248 Si / 1000 Ang^3
#
#
#
# Elastic Constant Matrix: (Units=GPa)
#
#
# Indices 1 2 3 4 5 6 
#
# 1 87.7615 39.7602 46.5171 0.0000 0.0000 0.0000
# 2 39.7602 144.4000 79.2042 0.0000 0.0000 0.0000
# 3 46.5171 79.2042 134.1184 0.0000 0.0000 0.0000
# 4 0.0000 0.0000 0.0000 33.3636 0.0000 0.0000
# 5 0.0000 0.0000 0.0000 0.0000 21.8764 0.0000
# 6 0.0000 0.0000 0.0000 0.0000 0.0000 31.5322
#
#
#
# Elastic Compliance Matrix: (Units=1/GPa)
#
#
# Indices 1 2 3 4 5 6 
#
# 1 0.014269 -0.001796 -0.003888 0.000000 0.000000 0.000000
# 2 -0.001796 0.010469 -0.005560 0.000000 0.000000 0.000000
# 3 -0.003888 -0.005560 0.012088 0.000000 0.000000 0.000000
# 4 0.000000 0.000000 0.000000 0.029973 0.000000 0.000000
# 5 0.000000 0.000000 0.000000 0.000000 0.045711 0.000000
# 6 0.000000 0.000000 0.000000 0.000000 0.000000 0.031714
#
#
# Mechanical properties :
#
#
# Convention : Reuss Voigt Hill
#
# Bulk Modulus (GPa) = 69.74438 77.47147 73.60792
# Shear Modulus (GPa) = 29.15583 30.74099 29.94841
#
# Velocity S-wave (km/s) = 3.84381 3.94692 3.89570
# Velocity P-wave (km/s) = 7.41910 7.74790 7.58528
#
# Compressibility (1/GPa) = 0.01433807
#
# Stress axis : x y z
#
# Youngs Moduli (GPa) = 70.08068 95.51713 82.72657
#
# Poissons Ratio (x) = 0.17157 0.32167
# Poissons Ratio (y) = 0.12588 0.45994
# Poissons Ratio (z) = 0.27250 0.53105
#
# Static dielectric constant tensor:
#      x y z
#    x 3.422140 0.000000 0.000000 
#    y 0.000000 3.611450 0.000000 
#    z 0.000000 0.000000 3.829080 
# 
# 
# High freq. dielectric constant tensor:
#      x y z
#    x 1.758350 0.000000 0.000000 
#    y 0.000000 1.775660 0.000000 
#    z 0.000000 0.000000 1.786540 
# 
# From -- ./inp_files/47781.got.cif
#   From: 2010.03.12/outbox.cif.g09.slc.cpg/sg64_24_cif.got.tgz:47781.got - 2010.04.10 20:19:32.
