data_PCOD8263366
_publ_section_title
;
Structure prediction by ZEFSAII (Michael W. Deem and Ramdas Pophale) SiO2 
 PCOD8263366
Probable space group: C M C A
;
_chemical_formula_sum "Si O2"
_cell_formula_units_Z 112
_cell_length_a 20.648979
_cell_length_b 12.564440
_cell_length_c 21.237634
_cell_angle_alpha 90.000000
_cell_angle_beta 90.000000
_cell_angle_gamma 90.000000
_cell_volume 5509.952456
_symmetry_space_group_name_H-M "C M C A"
_symmetry_group_IT_number 64
_symmetry_cell_setting 'orthorhombic'
loop_
_space_group_symop_operation_xyz
x,y,z
-x,1/2-y,1/2+z
x,-y,-z
-x,1/2+y,1/2-z
-x,-y,-z
x,1/2+y,1/2-z
-x,y,z
x,1/2-y,1/2+z
1/2+x,1/2+y,z
1/2-x,-y,1/2+z
1/2+x,1/2-y,-z
1/2-x,y,1/2-z
1/2-x,1/2-y,-z
1/2+x,y,1/2-z
1/2-x,1/2+y,z
1/2+x,-y,1/2+z
loop_
_atom_site_type_symbol
_atom_site_label
_atom_site_fract_x
_atom_site_fract_y
_atom_site_fract_z
Si Si1 0.576142 0.471251 0.432162
Si Si2 0.644992 0.910590 0.824863
Si Si3 0.574423 0.278897 0.776038
Si Si4 0.308473 0.636735 0.703881
Si Si5 0.926759 0.731492 0.417011
Si Si6 0.180698 0.124987 0.006046
Si Si7 0.765754 0.243445 0.397285
O O1 0.606259 0.500000 0.500000
O O2 0.500000 0.481579 0.433524
O O3 0.601302 0.557881 0.383637
O O4 0.598629 0.353461 0.412008
O O5 0.597889 0.874147 0.768571
O O6 0.691334 0.814277 0.844681
O O7 0.688357 0.009786 0.802946
O O8 0.500000 0.244755 0.760123
O O9 0.622760 0.178146 0.768541
O O10 0.578100 0.321235 0.847896
O O11 0.250000 0.665494 0.750000
O O12 0.292794 0.694753 0.637393
O O13 0.887802 0.664927 0.468117
O O14 0.000000 0.731892 0.442114
O O15 0.237216 0.157052 0.054406
O O16 0.191407 0.173046 0.936637
O O17 0.179628 0.000000 0.000000
#
# Coordination Sequence:
#
# PCOD8263366 Si02
#       7
#    16  16  16  16  16  16  16
#     4  10  20  37  65  96 126 168 218 272 330 385
#     4  12  24  39  68  96 132 164 227 271 334 393
#     4  11  24  43  67  95 131 171 218 271 329 398
#     4  12  25  43  68  93 129 176 217 268 335 399
#     4  10  21  41  63  87 126 172 214 260 327 399
#     4  11  23  40  64  90 130 167 214 264 333 392
#     4  11  24  41  62  98 125 166 216 278 323 391
#
# _framework density 20.326854000000001
#
# number of rings (size 3 to 8) (size 9 to 14) (size 15 to 20)
#    0.000    1.000    4.286    2.143    2.000    4.857 
#    0.000    0.714    0.000    0.000    0.000    0.000 
#    0.000    0.000    0.000    0.000    0.000    0.000 
#
# Total GULP energy -694606.639430 kJ/mol
# GULP energy per Si atom -12403.689990 kJ/mol
# Density = 2.028059 g / cm^3
# Si number density = 20.326854 Si / 1000 Ang^3
#
#
#
# Elastic Constant Matrix: (Units=GPa)
#
#
# Indices 1 2 3 4 5 6 
#
# 1 119.4506 62.6777 50.7302 0.0000 0.0000 0.0000
# 2 62.6777 124.4191 50.6078 0.0000 0.0000 0.0000
# 3 50.7302 50.6078 103.0320 0.0000 0.0000 0.0000
# 4 0.0000 0.0000 0.0000 39.2899 0.0000 0.0000
# 5 0.0000 0.0000 0.0000 0.0000 37.3868 0.0000
# 6 0.0000 0.0000 0.0000 0.0000 0.0000 29.4450
#
#
#
# Elastic Compliance Matrix: (Units=1/GPa)
#
#
# Indices 1 2 3 4 5 6 
#
# 1 0.012476 -0.004732 -0.003819 0.000000 0.000000 0.000000
# 2 -0.004732 0.011839 -0.003485 0.000000 0.000000 0.000000
# 3 -0.003819 -0.003485 0.013298 0.000000 0.000000 0.000000
# 4 0.000000 0.000000 0.000000 0.025452 0.000000 0.000000
# 5 0.000000 0.000000 0.000000 0.000000 0.026747 0.000000
# 6 0.000000 0.000000 0.000000 0.000000 0.000000 0.033962
#
#
# Mechanical properties :
#
#
# Convention : Reuss Voigt Hill
#
# Bulk Modulus (GPa) = 73.84819 74.99258 74.42038
# Shear Modulus (GPa) = 32.81722 33.41676 33.11699
#
# Velocity S-wave (km/s) = 4.02241 4.05899 4.04074
# Velocity P-wave (km/s) = 7.61461 7.67728 7.64601
#
# Compressibility (1/GPa) = 0.01354129
#
# Stress axis : x y z
#
# Youngs Moduli (GPa) = 80.15157 84.46904 75.19999
#
# Poissons Ratio (x) = 0.39969 0.28718
# Poissons Ratio (y) = 0.37926 0.26208
# Poissons Ratio (z) = 0.30609 0.29439
#
# Static dielectric constant tensor:
#      x y z
#    x 3.761360 0.000000 0.000000 
#    y 0.000000 3.529970 0.000000 
#    z 0.000000 0.000000 3.846530 
# 
# 
# High freq. dielectric constant tensor:
#      x y z
#    x 1.805350 0.000000 0.000000 
#    y 0.000000 1.781620 0.000000 
#    z 0.000000 0.000000 1.802450 
# 
# From -- ./inp_files/41505.got.cif
#   From: 2010.03.12/outbox.cif.g09.slc.cpg/sg64_21_cif.got.tgz:41505.got - 2010.04.10 20:19:32.
