data_PCOD8263157
_publ_section_title
;
Structure prediction by ZEFSAII (Michael W. Deem and Ramdas Pophale) SiO2 
 PCOD8263157
Probable space group: C M C A
;
_chemical_formula_sum "Si O2"
_cell_formula_units_Z 96
_cell_length_a 8.884518
_cell_length_b 29.921764
_cell_length_c 19.376541
_cell_angle_alpha 90.000000
_cell_angle_beta 90.000000
_cell_angle_gamma 90.000000
_cell_volume 5151.068395
_symmetry_space_group_name_H-M "C M C A"
_symmetry_group_IT_number 64
_symmetry_cell_setting 'orthorhombic'
loop_
_space_group_symop_operation_xyz
x,y,z
-x,1/2-y,1/2+z
x,-y,-z
-x,1/2+y,1/2-z
-x,-y,-z
x,1/2+y,1/2-z
-x,y,z
x,1/2-y,1/2+z
1/2+x,1/2+y,z
1/2-x,-y,1/2+z
1/2+x,1/2-y,-z
1/2-x,y,1/2-z
1/2-x,1/2-y,-z
1/2+x,y,1/2-z
1/2-x,1/2+y,z
1/2+x,-y,1/2+z
loop_
_atom_site_type_symbol
_atom_site_label
_atom_site_fract_x
_atom_site_fract_y
_atom_site_fract_z
Si Si1 0.822073 0.380197 0.557994
Si Si2 0.676625 0.866919 0.087660
Si Si3 0.322584 0.815199 0.679159
Si Si4 0.177572 0.518886 0.428735
Si Si5 0.174906 0.785354 0.319590
Si Si6 0.821403 0.444771 0.324818
O O1 0.732016 0.366810 0.490276
O O2 0.767578 0.346740 0.617431
O O3 0.774712 0.429870 0.581827
O O4 0.000000 0.377006 0.543213
O O5 0.500000 0.877868 0.091724
O O6 0.713943 0.817790 0.117178
O O7 0.767827 0.902453 0.132006
O O8 0.500000 0.818287 0.687520
O O9 0.250000 0.832582 0.750000
O O10 0.267855 0.764671 0.662560
O O11 0.248863 0.500000 0.500000
O O12 0.234785 0.489484 0.364270
O O13 0.000000 0.514038 0.433634
O O14 0.250000 0.803917 0.250000
O O15 0.000000 0.784431 0.303989
O O16 0.750000 0.444554 0.250000
O O17 0.000000 0.442738 0.317771
#
# Coordination Sequence:
#
# PCOD8263157 Si02
#       6
#    16  16  16  16  16  16
#     4  10  20  36  58  81 106 143 182 219 271 327
#     4  11  22  35  53  80 112 143 180 224 270 318
#     4   9  19  36  57  79 106 140 180 222 268 322
#     4   9  17  34  57  77 102 141 180 214 259 319
#     4   9  19  35  53  76 107 142 178 220 268 319
#     4  11  22  37  57  81 111 142 180 224 270 322
#
# _framework density 18.63691
#
# number of rings (size 3 to 8) (size 9 to 14) (size 15 to 20)
#    0.000    2.167    1.667    1.500    0.000    4.667 
#    0.000    2.500    0.000    0.000    0.000    0.000 
#    0.000    0.000    0.000    0.000    0.000    0.000 
#
# Total GULP energy -595239.870000 kJ/mol
# GULP energy per Si atom -12400.830625 kJ/mol
# Density = 1.859449 g / cm^3
# Si number density = 18.636910 Si / 1000 Ang^3
#
#
#
# Elastic Constant Matrix: (Units=GPa)
#
#
# Indices 1 2 3 4 5 6 
#
# 1 45.6584 36.1629 44.3878 0.0000 0.0000 0.0000
# 2 36.1629 126.5426 84.2572 0.0000 0.0000 0.0000
# 3 44.3878 84.2572 165.3983 0.0000 0.0000 0.0000
# 4 0.0000 0.0000 0.0000 31.4220 0.0000 0.0000
# 5 0.0000 0.0000 0.0000 0.0000 30.9970 0.0000
# 6 0.0000 0.0000 0.0000 0.0000 0.0000 19.1867
#
#
#
# Elastic Compliance Matrix: (Units=1/GPa)
#
#
# Indices 1 2 3 4 5 6 
#
# 1 0.031696 -0.005136 -0.005890 0.000000 0.000000 0.000000
# 2 -0.005136 0.012791 -0.005138 0.000000 0.000000 0.000000
# 3 -0.005890 -0.005138 0.010244 0.000000 0.000000 0.000000
# 4 0.000000 0.000000 0.000000 0.031825 0.000000 0.000000
# 5 0.000000 0.000000 0.000000 0.000000 0.032261 0.000000
# 6 0.000000 0.000000 0.000000 0.000000 0.000000 0.052119
#
#
# Mechanical properties :
#
#
# Convention : Reuss Voigt Hill
#
# Bulk Modulus (GPa) = 44.63595 74.13499 59.38547
# Shear Modulus (GPa) = 23.72694 27.84057 25.78375
#
# Velocity S-wave (km/s) = 3.57195 3.86922 3.72355
# Velocity P-wave (km/s) = 6.40422 7.73473 7.10071
#
# Compressibility (1/GPa) = 0.02240347
#
# Stress axis : x y z
#
# Youngs Moduli (GPa) = 31.55015 78.17897 97.61997
#
# Poissons Ratio (x) = 0.40155 0.57494
# Poissons Ratio (y) = 0.16205 0.50154
# Poissons Ratio (z) = 0.18582 0.40166
#
# Static dielectric constant tensor:
#      x y z
#    x 3.260060 0.000000 0.000000 
#    y 0.000000 3.800750 0.000000 
#    z 0.000000 0.000000 3.536430 
# 
# 
# High freq. dielectric constant tensor:
#      x y z
#    x 1.706710 0.000000 0.000000 
#    y 0.000000 1.734520 0.000000 
#    z 0.000000 0.000000 1.727950 
# 
# From -- ./inp_files/37024.got.cif
#   From: 2010.03.12/outbox.cif.g09.slc.cpg/sg64_19_cif.got.tgz:37024.got - 2010.04.10 20:19:32.
