data_PCOD8263206
_publ_section_title
;
Structure prediction by ZEFSAII (Michael W. Deem and Ramdas Pophale) SiO2 
 PCOD8263206
Probable space group: C M C A
;
_chemical_formula_sum "Si O2"
_cell_formula_units_Z 64
_cell_length_a 8.620875
_cell_length_b 20.708245
_cell_length_c 18.569597
_cell_angle_alpha 90.000000
_cell_angle_beta 90.000000
_cell_angle_gamma 90.000000
_cell_volume 3315.103723
_symmetry_space_group_name_H-M "C M C A"
_symmetry_group_IT_number 64
_symmetry_cell_setting 'orthorhombic'
loop_
_space_group_symop_operation_xyz
x,y,z
-x,1/2-y,1/2+z
x,-y,-z
-x,1/2+y,1/2-z
-x,-y,-z
x,1/2+y,1/2-z
-x,y,z
x,1/2-y,1/2+z
1/2+x,1/2+y,z
1/2-x,-y,1/2+z
1/2+x,1/2-y,-z
1/2-x,y,1/2-z
1/2-x,1/2-y,-z
1/2+x,y,1/2-z
1/2-x,1/2+y,z
1/2+x,-y,1/2+z
loop_
_atom_site_type_symbol
_atom_site_label
_atom_site_fract_x
_atom_site_fract_y
_atom_site_fract_z
Si Si1 0.680527 0.637380 0.829549
Si Si2 0.817369 0.366334 0.830196
Si Si3 0.321008 0.505354 0.172192
Si Si4 0.317315 0.250043 0.420838
O O1 0.500000 0.656757 0.825727
O O2 0.750000 0.643498 0.750000
O O3 0.699819 0.565191 0.863877
O O4 0.772251 0.683652 0.882533
O O5 0.750000 0.361541 0.750000
O O6 0.768689 0.435345 0.866540
O O7 0.750251 0.309770 0.877791
O O8 0.000000 0.359693 0.827153
O O9 0.500000 0.525096 0.177787
O O10 0.250000 0.497020 0.250000
O O11 0.500000 0.243496 0.424517
O O12 0.250000 0.250000 0.500000
#
# Coordination Sequence:
#
# PCOD8263206 Si02
#       4
#    16  16  16  16
#     4  10  20  36  59  87 116 147 185 228 276 328
#     4  11  21  36  59  86 115 147 186 229 275 327
#     4   9  17  31  54  84 115 144 179 226 275 324
#     4  12  25  41  58  79 111 148 188 232 280 332
#
# _framework density 19.305579000000002
#
# number of rings (size 3 to 8) (size 9 to 14) (size 15 to 20)
#    0.000    1.500    0.000    8.250    0.000    3.000 
#    0.000    1.250    0.000    7.500    0.000    0.000 
#    0.000    0.000    0.000    0.000    0.000    0.000 
#
# Total GULP energy -396677.620767 kJ/mol
# GULP energy per Si atom -12396.175649 kJ/mol
# Density = 1.926164 g / cm^3
# Si number density = 19.305579 Si / 1000 Ang^3
#
#
#
# Elastic Constant Matrix: (Units=GPa)
#
#
# Indices 1 2 3 4 5 6 
#
# 1 191.8952 77.3481 53.8233 0.0000 0.0000 0.0000
# 2 77.3481 166.4133 64.9273 0.0000 0.0000 0.0000
# 3 53.8233 64.9273 88.9946 0.0000 0.0000 0.0000
# 4 0.0000 0.0000 0.0000 -13.1981 0.0000 0.0000
# 5 0.0000 0.0000 0.0000 0.0000 30.5217 0.0000
# 6 0.0000 0.0000 0.0000 0.0000 0.0000 38.9518
#
#
#
# Elastic Compliance Matrix: (Units=1/GPa)
#
#
# Indices 1 2 3 4 5 6 
#
# 1 0.006795 -0.002174 -0.002524 0.000000 0.000000 0.000000
# 2 -0.002174 0.009096 -0.005321 0.000000 0.000000 0.000000
# 3 -0.002524 -0.005321 0.016645 0.000000 0.000000 0.000000
# 4 0.000000 0.000000 0.000000 -0.075768 0.000000 0.000000
# 5 0.000000 0.000000 0.000000 0.000000 0.032764 0.000000
# 6 0.000000 0.000000 0.000000 0.000000 0.000000 0.025673
#
#
# Mechanical properties :
#
#
# Convention : Reuss Voigt Hill
#
# Bulk Modulus (GPa) = 80.00936 93.27786 86.64361
# Shear Modulus (GPa) = 126.87948 28.00204 77.44076
#
# Velocity S-wave (km/s) = 8.11568 3.81263 6.34037
# Velocity P-wave (km/s) = 11.37333 8.23425 9.92864
#
# Compressibility (1/GPa) = 0.01249854
#
# Stress axis : x y z
#
# Youngs Moduli (GPa) = 147.16190 109.94397 60.07748
#
# Poissons Ratio (x) = 0.23898 0.15163
# Poissons Ratio (y) = 0.31988 0.31968
# Poissons Ratio (z) = 0.37142 0.58503
#
# Static dielectric constant tensor:
#      x y z
#    x 3.835870 0.000000 0.000000 
#    y 0.000000 4.430900 0.000000 
#    z 0.000000 0.000000 3.103360 
# 
# 
# High freq. dielectric constant tensor:
#      x y z
#    x 1.776480 0.000000 0.000000 
#    y 0.000000 1.782210 0.000000 
#    z 0.000000 0.000000 1.707830 
# 
# From -- ./inp_files/20832.got.cif
#   From: 2010.03.12/outbox.cif.g09.slc.cpg/sg64_11_cif.got.tgz:20832.got - 2010.04.10 20:19:32.
