data_PCOD8263977
_publ_section_title
;
Structure prediction by ZEFSAII (Michael W. Deem and Ramdas Pophale) SiO2 
 PCOD8263977
Probable space group: C M C A
;
_chemical_formula_sum "Si O2"
_cell_formula_units_Z 64
_cell_length_a 16.944872
_cell_length_b 12.184590
_cell_length_c 12.008960
_cell_angle_alpha 90.000000
_cell_angle_beta 90.000000
_cell_angle_gamma 90.000000
_cell_volume 2479.445753
_symmetry_space_group_name_H-M "C M C A"
_symmetry_group_IT_number 64
_symmetry_cell_setting 'orthorhombic'
loop_
_space_group_symop_operation_xyz
x,y,z
-x,1/2-y,1/2+z
x,-y,-z
-x,1/2+y,1/2-z
-x,-y,-z
x,1/2+y,1/2-z
-x,y,z
x,1/2-y,1/2+z
1/2+x,1/2+y,z
1/2-x,-y,1/2+z
1/2+x,1/2-y,-z
1/2-x,y,1/2-z
1/2-x,1/2-y,-z
1/2+x,y,1/2-z
1/2-x,1/2+y,z
1/2+x,-y,1/2+z
loop_
_atom_site_type_symbol
_atom_site_label
_atom_site_fract_x
_atom_site_fract_y
_atom_site_fract_z
Si Si1 0.906276 0.410007 0.344339
Si Si2 0.413329 0.636805 0.599462
Si Si3 0.320919 0.691262 0.398028
Si Si4 0.352649 0.143915 0.350618
O O1 0.880464 0.414627 0.214191
O O2 0.858315 0.313967 0.407085
O O3 0.879797 0.526032 0.397591
O O4 0.000000 0.390056 0.356268
O O5 0.500000 0.591210 0.571732
O O6 0.357622 0.612298 0.493394
O O7 0.419876 0.768242 0.620724
O O8 0.341992 0.635055 0.281710
O O9 0.226160 0.692713 0.410804
#
# Coordination Sequence:
#
# PCOD8263977 Si02
#       4
#    16  16  16  16
#     4  10  22  41  65  93 126 165 210 258 309 369
#     4  10  21  39  64  93 126 164 208 260 314 368
#     4  10  22  40  62  90 127 166 207 258 313 370
#     4  10  22  39  61  90 126 167 210 257 311 372
#
# _framework density 25.81222
#
# number of rings (size 3 to 8) (size 9 to 14) (size 15 to 20)
#    0.000    2.000    0.000    2.250    0.000   13.000 
#    0.000   12.500    0.000    0.000    0.000    0.000 
#    0.000    0.000    0.000    0.000    0.000    0.000 
#
# Total GULP energy -396812.031744 kJ/mol
# GULP energy per Si atom -12400.375992 kJ/mol
# Density = 2.575347 g / cm^3
# Si number density = 25.812220 Si / 1000 Ang^3
#
#
#
# Elastic Constant Matrix: (Units=GPa)
#
#
# Indices 1 2 3 4 5 6 
#
# 1 97.3712 24.1490 20.4747 0.0000 0.0000 0.0000
# 2 24.1490 119.2278 -12.6172 0.0000 0.0000 0.0000
# 3 20.4747 -12.6172 26.8062 0.0000 0.0000 0.0000
# 4 0.0000 0.0000 0.0000 6.7973 0.0000 0.0000
# 5 0.0000 0.0000 0.0000 0.0000 42.5857 0.0000
# 6 0.0000 0.0000 0.0000 0.0000 0.0000 35.9459
#
#
#
# Elastic Compliance Matrix: (Units=1/GPa)
#
#
# Indices 1 2 3 4 5 6 
#
# 1 0.013955 -0.004162 -0.012618 0.000000 0.000000 0.000000
# 2 -0.004162 0.010068 0.007918 0.000000 0.000000 0.000000
# 3 -0.012618 0.007918 0.050669 0.000000 0.000000 0.000000
# 4 0.000000 0.000000 0.000000 0.147117 0.000000 0.000000
# 5 0.000000 0.000000 0.000000 0.000000 0.023482 0.000000
# 6 0.000000 0.000000 0.000000 0.000000 0.000000 0.027820
#
#
# Mechanical properties :
#
#
# Convention : Reuss Voigt Hill
#
# Bulk Modulus (GPa) = 17.55361 34.15761 25.85561
# Shear Modulus (GPa) = 16.13813 31.15904 23.64858
#
# Velocity S-wave (km/s) = 2.50314 3.47817 3.03013
# Velocity P-wave (km/s) = 3.89481 5.42144 4.72025
#
# Compressibility (1/GPa) = 0.05696833
#
# Stress axis : x y z
#
# Youngs Moduli (GPa) = 71.65658 99.32285 19.73582
#
# Poissons Ratio (x) = 0.41337 0.24903
# Poissons Ratio (y) = 0.29823 -0.15626
# Poissons Ratio (z) = 0.90417 -0.78642
#
# Static dielectric constant tensor:
#      x y z
#    x 4.323100 0.000000 0.000000 
#    y 0.000000 4.313970 0.000000 
#    z 0.000000 0.000000 4.878910 
# 
# 
# High freq. dielectric constant tensor:
#      x y z
#    x 2.017720 0.000000 0.000000 
#    y 0.000000 2.021980 0.000000 
#    z 0.000000 0.000000 2.065690 
# 
# From -- ./inp_files/17886.got.cif
#   From: 2010.03.12/outbox.cif.g09.slc.cpg/sg64_9_cif.got.tgz:17886.got - 2010.04.10 20:19:32.
