data_PCOD8263301
_publ_section_title
;
Structure prediction by ZEFSAII (Michael W. Deem and Ramdas Pophale) SiO2 
 PCOD8263301
Probable space group: C M C A
;
_chemical_formula_sum "Si O2"
_cell_formula_units_Z 64
_cell_length_a 19.798167
_cell_length_b 12.287704
_cell_length_c 12.525143
_cell_angle_alpha 90.000000
_cell_angle_beta 90.000000
_cell_angle_gamma 90.000000
_cell_volume 3047.041837
_symmetry_space_group_name_H-M "C M C A"
_symmetry_group_IT_number 64
_symmetry_cell_setting 'orthorhombic'
loop_
_space_group_symop_operation_xyz
x,y,z
-x,1/2-y,1/2+z
x,-y,-z
-x,1/2+y,1/2-z
-x,-y,-z
x,1/2+y,1/2-z
-x,y,z
x,1/2-y,1/2+z
1/2+x,1/2+y,z
1/2-x,-y,1/2+z
1/2+x,1/2-y,-z
1/2-x,y,1/2-z
1/2-x,1/2-y,-z
1/2+x,y,1/2-z
1/2-x,1/2+y,z
1/2+x,-y,1/2+z
loop_
_atom_site_type_symbol
_atom_site_label
_atom_site_fract_x
_atom_site_fract_y
_atom_site_fract_z
Si Si1 0.732903 0.406629 0.914876
Si Si2 0.323844 0.585271 0.771177
Si Si3 0.573857 0.599561 0.578065
Si Si4 0.152892 0.249071 0.442007
O O1 0.692868 0.463642 0.816473
O O2 0.804661 0.349852 0.887083
O O3 0.749123 0.500000 0.000000
O O4 0.690010 0.308539 0.960952
O O5 0.250000 0.640241 0.750000
O O6 0.367381 0.578203 0.664302
O O7 0.365564 0.661072 0.852855
O O8 0.571415 0.500000 0.500000
O O9 0.500000 0.615721 0.632905
O O10 0.587100 0.702899 0.501158
#
# Coordination Sequence:
#
# PCOD8263301 Si02
#       4
#    16  16  16  16
#     4   9  18  34  59  90 121 149 187 243 294 339
#     4  11  22  36  61  92 118 150 197 246 291 343
#     4  11  25  42  58  82 120 159 194 239 296 356
#     4  10  20  37  59  85 116 154 196 239 290 344
#
# _framework density 21.003976999999999
#
# number of rings (size 3 to 8) (size 9 to 14) (size 15 to 20)
#    0.000    1.750    0.000    6.750    0.000    8.000 
#    0.000    3.750    0.000    4.500    0.000    0.000 
#    0.000    0.000    0.000    0.000    0.000    0.000 
#
# Total GULP energy -396426.446066 kJ/mol
# GULP energy per Si atom -12388.326440 kJ/mol
# Density = 2.095617 g / cm^3
# Si number density = 21.003977 Si / 1000 Ang^3
#
#
#
# Elastic Constant Matrix: (Units=GPa)
#
#
# Indices 1 2 3 4 5 6 
#
# 1 118.8760 39.8183 58.4459 0.0000 0.0000 0.0000
# 2 39.8183 101.9213 34.4646 0.0000 0.0000 0.0000
# 3 58.4459 34.4646 99.7552 0.0000 0.0000 0.0000
# 4 0.0000 0.0000 0.0000 39.4719 0.0000 0.0000
# 5 0.0000 0.0000 0.0000 0.0000 28.9858 0.0000
# 6 0.0000 0.0000 0.0000 0.0000 0.0000 61.7033
#
#
#
# Elastic Compliance Matrix: (Units=1/GPa)
#
#
# Indices 1 2 3 4 5 6 
#
# 1 0.012445 -0.002713 -0.006354 0.000000 0.000000 0.000000
# 2 -0.002713 0.011701 -0.002453 0.000000 0.000000 0.000000
# 3 -0.006354 -0.002453 0.014595 0.000000 0.000000 0.000000
# 4 0.000000 0.000000 0.000000 0.025334 0.000000 0.000000
# 5 0.000000 0.000000 0.000000 0.000000 0.034500 0.000000
# 6 0.000000 0.000000 0.000000 0.000000 0.000000 0.016207
#
#
# Mechanical properties :
#
#
# Convention : Reuss Voigt Hill
#
# Bulk Modulus (GPa) = 63.69311 65.11224 64.40268
# Shear Modulus (GPa) = 34.95155 38.55377 36.75266
#
# Velocity S-wave (km/s) = 4.08370 4.28898 4.18759
# Velocity P-wave (km/s) = 7.25435 7.45616 7.35595
#
# Compressibility (1/GPa) = 0.01570028
#
# Stress axis : x y z
#
# Youngs Moduli (GPa) = 80.35390 85.46295 68.51786
#
# Poissons Ratio (x) = 0.23189 0.43536
# Poissons Ratio (y) = 0.21803 0.16806
# Poissons Ratio (z) = 0.51057 0.20963
#
# Static dielectric constant tensor:
#      x y z
#    x 3.921930 0.000000 0.000000 
#    y 0.000000 4.138170 0.000000 
#    z 0.000000 0.000000 3.891020 
# 
# 
# High freq. dielectric constant tensor:
#      x y z
#    x 1.784300 0.000000 0.000000 
#    y 0.000000 1.840250 0.000000 
#    z 0.000000 0.000000 1.825980 
# 
# From -- ./inp_files/16787.got.cif
#   From: 2010.03.12/outbox.cif.g09.slc.cpg/sg64_9_cif.got.tgz:16787.got - 2010.04.10 20:19:32.
