data_PCOD8263149
_publ_section_title
;
Structure prediction by ZEFSAII (Michael W. Deem and Ramdas Pophale) SiO2 
 PCOD8263149
Probable space group: C M C A
;
_chemical_formula_sum "Si O2"
_cell_formula_units_Z 80
_cell_length_a 8.967330
_cell_length_b 15.719216
_cell_length_c 29.002992
_cell_angle_alpha 90.000000
_cell_angle_beta 90.000000
_cell_angle_gamma 90.000000
_cell_volume 4088.244270
_symmetry_space_group_name_H-M "C M C A"
_symmetry_group_IT_number 64
_symmetry_cell_setting 'orthorhombic'
loop_
_space_group_symop_operation_xyz
x,y,z
-x,1/2-y,1/2+z
x,-y,-z
-x,1/2+y,1/2-z
-x,-y,-z
x,1/2+y,1/2-z
-x,y,z
x,1/2-y,1/2+z
1/2+x,1/2+y,z
1/2-x,-y,1/2+z
1/2+x,1/2-y,-z
1/2-x,y,1/2-z
1/2-x,1/2-y,-z
1/2+x,y,1/2-z
1/2-x,1/2+y,z
1/2+x,-y,1/2+z
loop_
_atom_site_type_symbol
_atom_site_label
_atom_site_fract_x
_atom_site_fract_y
_atom_site_fract_z
Si Si1 0.822844 0.915783 0.356012
Si Si2 0.825177 0.156087 0.551032
Si Si3 0.670303 0.167935 0.049481
Si Si4 0.671814 0.397262 0.647287
Si Si5 0.823163 0.246597 0.700601
O O1 0.757290 0.901798 0.407899
O O2 0.764213 0.840802 0.322640
O O3 0.000000 0.913893 0.357405
O O4 0.772651 0.008571 0.337302
O O5 0.772097 0.251642 0.559222
O O6 0.781766 0.123817 0.499377
O O7 0.000000 0.156674 0.557756
O O8 0.500000 0.199705 0.045093
O O9 0.688297 0.102922 0.091649
O O10 0.500000 0.380450 0.661632
O O11 0.775674 0.327128 0.670190
O O12 0.750000 0.255219 0.750000
O O13 0.000000 0.247086 0.705499
#
# Coordination Sequence:
#
# PCOD8263149 Si02
#       5
#    16  16  16  16  16
#     4   9  19  35  57  82 112 146 183 223 269 324
#     4   9  16  30  51  77 111 150 185 219 263 317
#     4   9  17  28  50  81 112 146 184 223 263 310
#     4  10  20  36  57  85 115 144 182 226 269 323
#     4  11  23  41  61  81 106 141 179 226 282 332
#
# _framework density 19.568301999999999
#
# number of rings (size 3 to 8) (size 9 to 14) (size 15 to 20)
#    0.000    2.400    2.000    0.600    0.000    1.600 
#    0.000    9.000    0.000    0.000    0.000    7.000 
#    0.000    0.000    0.000    0.000    0.000    0.000 
#
# Total GULP energy -495693.289742 kJ/mol
# GULP energy per Si atom -12392.332244 kJ/mol
# Density = 1.952376 g / cm^3
# Si number density = 19.568302 Si / 1000 Ang^3
#
#
#
# Elastic Constant Matrix: (Units=GPa)
#
#
# Indices 1 2 3 4 5 6 
#
# 1 29.4371 19.6754 26.1445 0.0000 0.0000 0.0000
# 2 19.6754 118.4337 47.6424 0.0000 0.0000 0.0000
# 3 26.1445 47.6424 110.4874 0.0000 0.0000 0.0000
# 4 0.0000 0.0000 0.0000 13.4615 0.0000 0.0000
# 5 0.0000 0.0000 0.0000 0.0000 18.5330 0.0000
# 6 0.0000 0.0000 0.0000 0.0000 0.0000 23.4982
#
#
#
# Elastic Compliance Matrix: (Units=1/GPa)
#
#
# Indices 1 2 3 4 5 6 
#
# 1 0.044386 -0.003810 -0.008860 0.000000 0.000000 0.000000
# 2 -0.003810 0.010543 -0.003644 0.000000 0.000000 0.000000
# 3 -0.008860 -0.003644 0.012719 0.000000 0.000000 0.000000
# 4 0.000000 0.000000 0.000000 0.074286 0.000000 0.000000
# 5 0.000000 0.000000 0.000000 0.000000 0.053958 0.000000
# 6 0.000000 0.000000 0.000000 0.000000 0.000000 0.042557
#
#
# Mechanical properties :
#
#
# Convention : Reuss Voigt Hill
#
# Bulk Modulus (GPa) = 28.55610 49.47587 39.01598
# Shear Modulus (GPa) = 17.68348 22.09160 19.88754
#
# Velocity S-wave (km/s) = 3.00939 3.36363 3.19143
# Velocity P-wave (km/s) = 5.16720 6.35798 5.79326
#
# Compressibility (1/GPa) = 0.03501879
#
# Stress axis : x y z
#
# Youngs Moduli (GPa) = 22.52948 94.85414 78.62305
#
# Poissons Ratio (x) = 0.36136 0.69663
# Poissons Ratio (y) = 0.08583 0.28654
# Poissons Ratio (z) = 0.19962 0.34569
#
# Static dielectric constant tensor:
#      x y z
#    x 3.314260 0.000000 0.000000 
#    y 0.000000 3.642000 0.000000 
#    z 0.000000 0.000000 3.890690 
# 
# 
# High freq. dielectric constant tensor:
#      x y z
#    x 1.731510 0.000000 0.000000 
#    y 0.000000 1.753370 0.000000 
#    z 0.000000 0.000000 1.773770 
# 
# From -- ./inp_files/47893.got.cif
#   From: 2010.03.12/outbox.cif.g09.slc.cpg/sg64_24_cif.got.tgz:47893.got - 2010.04.10 20:19:32.
