data_PCOD8263677
_publ_section_title
;
Structure prediction by ZEFSAII (Michael W. Deem and Ramdas Pophale) SiO2 
 PCOD8263677
Probable space group: C M C A
;
_chemical_formula_sum "Si O2"
_cell_formula_units_Z 104
_cell_length_a 20.980210
_cell_length_b 24.585824
_cell_length_c 9.636817
_cell_angle_alpha 90.000000
_cell_angle_beta 90.000000
_cell_angle_gamma 90.000000
_cell_volume 4970.821994
_symmetry_space_group_name_H-M "C M C A"
_symmetry_group_IT_number 64
_symmetry_cell_setting 'orthorhombic'
loop_
_space_group_symop_operation_xyz
x,y,z
-x,1/2-y,1/2+z
x,-y,-z
-x,1/2+y,1/2-z
-x,-y,-z
x,1/2+y,1/2-z
-x,y,z
x,1/2-y,1/2+z
1/2+x,1/2+y,z
1/2-x,-y,1/2+z
1/2+x,1/2-y,-z
1/2-x,y,1/2-z
1/2-x,1/2-y,-z
1/2+x,y,1/2-z
1/2-x,1/2+y,z
1/2+x,-y,1/2+z
loop_
_atom_site_type_symbol
_atom_site_label
_atom_site_fract_x
_atom_site_fract_y
_atom_site_fract_z
Si Si1 0.000000 0.366165 0.928407
Si Si2 0.500000 0.739937 0.607081
Si Si3 0.636075 0.376588 0.475568
Si Si4 0.630351 0.131287 0.496648
Si Si5 0.125170 0.204576 0.756372
Si Si6 0.179466 0.684329 0.233200
Si Si7 0.244973 0.946300 0.085327
Si Si8 0.500000 0.866297 0.595901
O O1 0.000000 0.372261 0.762822
O O2 0.000000 0.302457 0.976802
O O3 0.063315 0.395984 0.992138
O O4 0.559341 0.729708 0.706952
O O5 0.500000 0.801996 0.555728
O O6 0.643145 0.350122 0.324935
O O7 0.652609 0.328366 0.581721
O O8 0.687893 0.424818 0.477968
O O9 0.624252 0.186698 0.584137
O O10 0.639277 0.149380 0.339385
O O11 0.685765 0.093646 0.557205
O O12 0.560116 0.104104 0.480768
O O13 0.178164 0.251200 0.739699
O O14 0.250000 0.662433 0.250000
O O15 0.250000 0.957798 0.250000
O O16 0.228567 0.000000 0.000000
#
# Coordination Sequence:
#
# PCOD8263677 Si02
#       8
#     8   8  16  16  16  16  16   8
#     4  10  22  38  63  95 139 180 229 264 330 404
#     4  10  21  36  57  93 140 200 223 258 315 400
#     4  11  23  44  65  97 137 180 226 278 333 413
#     4  12  25  42  66 101 139 182 230 286 336 397
#     4  11  23  38  60  94 143 184 229 266 323 407
#     4  12  24  34  61  97 142 188 225 266 333 405
#     4  12  29  52  77  99 126 172 234 298 362 411
#     4  12  23  36  64 100 144 182 232 267 322 397
#
# _framework density 20.922093
#
# number of rings (size 3 to 8) (size 9 to 14) (size 15 to 20)
#    0.000    0.615    6.154    1.385    8.615    1.231 
#    0.000    0.769    0.000    0.000    0.000    0.000 
#    0.000    0.000    0.000    0.000    0.000    0.000 
#
# Total GULP energy -644573.741782 kJ/mol
# GULP energy per Si atom -12395.648880 kJ/mol
# Density = 2.087447 g / cm^3
# Si number density = 20.922093 Si / 1000 Ang^3
#
#
#
# Elastic Constant Matrix: (Units=GPa)
#
#
# Indices 1 2 3 4 5 6 
#
# 1 155.0128 29.9848 39.5807 0.0000 0.0000 0.0000
# 2 29.9848 51.7381 25.3925 0.0000 0.0000 0.0000
# 3 39.5807 25.3925 88.2926 0.0000 0.0000 0.0000
# 4 0.0000 0.0000 0.0000 16.7456 0.0000 0.0000
# 5 0.0000 0.0000 0.0000 0.0000 29.0874 0.0000
# 6 0.0000 0.0000 0.0000 0.0000 0.0000 12.7834
#
#
#
# Elastic Compliance Matrix: (Units=1/GPa)
#
#
# Indices 1 2 3 4 5 6 
#
# 1 0.007723 -0.003233 -0.002532 0.000000 0.000000 0.000000
# 2 -0.003233 0.023858 -0.005412 0.000000 0.000000 0.000000
# 3 -0.002532 -0.005412 0.014018 0.000000 0.000000 0.000000
# 4 0.000000 0.000000 0.000000 0.059717 0.000000 0.000000
# 5 0.000000 0.000000 0.000000 0.000000 0.034379 0.000000
# 6 0.000000 0.000000 0.000000 0.000000 0.000000 0.078226
#
#
# Mechanical properties :
#
#
# Convention : Reuss Voigt Hill
#
# Bulk Modulus (GPa) = 43.02229 53.88440 48.45334
# Shear Modulus (GPa) = 20.15928 25.06230 22.61079
#
# Velocity S-wave (km/s) = 3.10746 3.46480 3.29099
# Velocity P-wave (km/s) = 5.78643 6.46662 6.13596
#
# Compressibility (1/GPa) = 0.02324376
#
# Stress axis : x y z
#
# Youngs Moduli (GPa) = 129.48211 41.91457 71.33835
#
# Poissons Ratio (x) = 0.13551 0.18065
# Poissons Ratio (y) = 0.41862 0.38609
# Poissons Ratio (z) = 0.32790 0.22685
#
# Static dielectric constant tensor:
#      x y z
#    x 4.226820 0.000000 0.000000 
#    y 0.000000 3.293800 0.000000 
#    z 0.000000 0.000000 3.870940 
# 
# 
# High freq. dielectric constant tensor:
#      x y z
#    x 1.845440 0.000000 0.000000 
#    y 0.000000 1.764470 0.000000 
#    z 0.000000 0.000000 1.838320 
# 
# From -- ./inp_files/8597.got.cif
#   From: 2010.03.12/outbox.cif.g09.slc.cpg/sg64_5_cif.got.tgz:8597.got - 2010.04.10 20:19:32.
