data_PCOD8263457
_publ_section_title
;
Structure prediction by ZEFSAII (Michael W. Deem and Ramdas Pophale) SiO2 
 PCOD8263457
Probable space group: C M C A
;
_chemical_formula_sum "Si O2"
_cell_formula_units_Z 96
_cell_length_a 22.934428
_cell_length_b 15.048988
_cell_length_c 13.299629
_cell_angle_alpha 90.000000
_cell_angle_beta 90.000000
_cell_angle_gamma 90.000000
_cell_volume 4590.233045
_symmetry_space_group_name_H-M "C M C A"
_symmetry_group_IT_number 64
_symmetry_cell_setting 'orthorhombic'
loop_
_space_group_symop_operation_xyz
x,y,z
-x,1/2-y,1/2+z
x,-y,-z
-x,1/2+y,1/2-z
-x,-y,-z
x,1/2+y,1/2-z
-x,y,z
x,1/2-y,1/2+z
1/2+x,1/2+y,z
1/2-x,-y,1/2+z
1/2+x,1/2-y,-z
1/2-x,y,1/2-z
1/2-x,1/2-y,-z
1/2+x,y,1/2-z
1/2-x,1/2+y,z
1/2+x,-y,1/2+z
loop_
_atom_site_type_symbol
_atom_site_label
_atom_site_fract_x
_atom_site_fract_y
_atom_site_fract_z
Si Si1 0.182636 0.872480 0.615654
Si Si2 0.620382 0.212673 0.511044
Si Si3 0.398101 0.500000 0.500000
Si Si4 0.187267 0.886179 0.842625
Si Si5 0.000000 0.077959 0.618670
Si Si6 0.618588 0.037645 0.607187
Si Si7 0.500000 0.535502 0.185012
Si Si8 0.000000 0.228325 0.092576
O O1 0.159306 0.795404 0.543299
O O2 0.181794 0.843122 0.732293
O O3 0.251113 0.890685 0.599084
O O4 0.143140 0.957194 0.586088
O O5 0.644376 0.172233 0.408378
O O6 0.623664 0.144013 0.605456
O O7 0.553564 0.232380 0.485351
O O8 0.440860 0.570839 0.553219
O O9 0.165176 0.987969 0.821374
O O10 0.000000 0.180156 0.659740
O O11 0.000000 0.997184 0.699307
O O12 0.636748 0.000000 0.500000
O O13 0.554015 0.007597 0.630653
O O14 0.500000 0.643127 0.168736
#
# Coordination Sequence:
#
# PCOD8263457 Si02
#       8
#    16  16   8  16   8  16   8   8
#     4  11  24  44  67  95 135 182 222 281 343 411
#     4  11  23  42  68  96 134 175 225 285 340 407
#     4  11  24  44  66  88 142 179 218 284 356 411
#     4  10  23  43  66  99 130 174 232 276 339 406
#     4  11  26  43  62 102 131 181 229 273 355 422
#     4  10  20  38  65  94 127 168 222 283 342 395
#     4  12  21  41  69  93 135 171 221 293 330 409
#     4  12  22  43  68  96 133 178 225 278 351 413
#
# _framework density 20.913971
#
# number of rings (size 3 to 8) (size 9 to 14) (size 15 to 20)
#    0.000    1.167    5.000    2.250    3.500    1.333 
#    3.000    2.500    0.000    0.000    0.000    0.000 
#    0.000    0.000    0.000    0.000    0.000    0.000 
#
# Total GULP energy -594632.742827 kJ/mol
# GULP energy per Si atom -12388.182142 kJ/mol
# Density = 2.086637 g / cm^3
# Si number density = 20.913971 Si / 1000 Ang^3
#
#
#
# Elastic Constant Matrix: (Units=GPa)
#
#
# Indices 1 2 3 4 5 6 
#
# 1 136.3121 55.0898 18.1486 0.0000 0.0000 0.0000
# 2 55.0898 108.6485 34.4857 0.0000 0.0000 0.0000
# 3 18.1486 34.4857 57.3922 0.0000 0.0000 0.0000
# 4 0.0000 0.0000 0.0000 26.9247 0.0000 0.0000
# 5 0.0000 0.0000 0.0000 0.0000 -8.5088 0.0000
# 6 0.0000 0.0000 0.0000 0.0000 0.0000 63.4534
#
#
#
# Elastic Compliance Matrix: (Units=1/GPa)
#
#
# Indices 1 2 3 4 5 6 
#
# 1 0.009228 -0.004637 -0.000132 0.000000 0.000000 0.000000
# 2 -0.004637 0.013703 -0.006768 0.000000 0.000000 0.000000
# 3 -0.000132 -0.006768 0.021532 0.000000 0.000000 0.000000
# 4 0.000000 0.000000 0.000000 0.037141 0.000000 0.000000
# 5 0.000000 0.000000 0.000000 0.000000 -0.117526 0.000000
# 6 0.000000 0.000000 0.000000 0.000000 0.000000 0.015760
#
#
# Mechanical properties :
#
#
# Convention : Reuss Voigt Hill
#
# Bulk Modulus (GPa) = 46.75016 57.53344 52.14180
# Shear Modulus (GPa) = 497.97642 29.34911 263.66277
#
# Velocity S-wave (km/s) = 15.44746 3.75016 11.24028
# Velocity P-wave (km/s) = 18.45447 6.80595 13.90842
#
# Compressibility (1/GPa) = 0.02139030
#
# Stress axis : x y z
#
# Youngs Moduli (GPa) = 108.36956 72.97506 46.44218
#
# Poissons Ratio (x) = 0.33839 0.00611
# Poissons Ratio (y) = 0.50252 0.31431
# Poissons Ratio (z) = 0.01427 0.49387
#
# Static dielectric constant tensor:
#      x y z
#    x 4.314550 0.000000 0.000000 
#    y 0.000000 4.148970 0.000000 
#    z 0.000000 0.000000 3.799430 
# 
# 
# High freq. dielectric constant tensor:
#      x y z
#    x 1.838870 0.000000 0.000000 
#    y 0.000000 1.817010 0.000000 
#    z 0.000000 0.000000 1.802470 
# 
# From -- ./inp_files/26408.got.cif
#   From: 2010.03.12/outbox.cif.g09.slc.cpg/sg64_14_cif.got.tgz:26408.got - 2010.04.10 20:19:32.
