data_PCOD8263547
_publ_section_title
;
Structure prediction by ZEFSAII (Michael W. Deem and Ramdas Pophale) SiO2 
 PCOD8263547
Probable space group: C M C A
;
_chemical_formula_sum "Si O2"
_cell_formula_units_Z 40
_cell_length_a 17.718661
_cell_length_b 22.968329
_cell_length_c 4.819852
_cell_angle_alpha 90.000000
_cell_angle_beta 90.000000
_cell_angle_gamma 90.000000
_cell_volume 1961.525699
_symmetry_space_group_name_H-M "C M C A"
_symmetry_group_IT_number 64
_symmetry_cell_setting 'orthorhombic'
loop_
_space_group_symop_operation_xyz
x,y,z
-x,1/2-y,1/2+z
x,-y,-z
-x,1/2+y,1/2-z
-x,-y,-z
x,1/2+y,1/2-z
-x,y,z
x,1/2-y,1/2+z
1/2+x,1/2+y,z
1/2-x,-y,1/2+z
1/2+x,1/2-y,-z
1/2-x,y,1/2-z
1/2-x,1/2-y,-z
1/2+x,y,1/2-z
1/2-x,1/2+y,z
1/2+x,-y,1/2+z
loop_
_atom_site_type_symbol
_atom_site_label
_atom_site_fract_x
_atom_site_fract_y
_atom_site_fract_z
Si Si1 0.583052 0.104986 0.865814
Si Si2 0.500000 0.289334 0.541480
Si Si3 0.330029 0.936704 0.633750
O O1 0.500000 0.081488 0.772876
O O2 0.639702 0.106227 0.605478
O O3 0.574484 0.171278 0.980916
O O4 0.612755 0.062727 0.108703
O O5 0.500000 0.230383 0.360413
O O6 0.250000 0.914282 0.750000
O O7 0.322106 0.000000 0.500000
#
# Coordination Sequence:
#
# PCOD8263547 Si02
#       3
#    16   8  16
#     4  10  23  38  62  94 111 163 203 254 285 351
#     4  10  20  40  65  88 115 152 200 256 318 342
#     4  12  23  39  59  87 130 167 193 232 302 363
#
# _framework density 20.392288000000001
#
# number of rings (size 3 to 8) (size 9 to 14) (size 15 to 20)
#    1.200    0.000    0.000    8.400    0.000    4.800 
#    0.000    0.000    0.000   24.000    0.000    0.000 
#    0.000    0.000    0.000    0.000    0.000    0.000 
#
# Total GULP energy -247909.046108 kJ/mol
# GULP energy per Si atom -12395.452305 kJ/mol
# Density = 2.034587 g / cm^3
# Si number density = 20.392288 Si / 1000 Ang^3
#
#
#
# Elastic Constant Matrix: (Units=GPa)
#
#
# Indices 1 2 3 4 5 6 
#
# 1 108.4714 33.2719 51.1495 0.0000 0.0000 0.0000
# 2 33.2719 47.3035 14.8413 0.0000 0.0000 0.0000
# 3 51.1495 14.8413 121.4281 0.0000 0.0000 0.0000
# 4 0.0000 0.0000 0.0000 47.2528 0.0000 0.0000
# 5 0.0000 0.0000 0.0000 0.0000 26.6673 0.0000
# 6 0.0000 0.0000 0.0000 0.0000 0.0000 7.9076
#
#
#
# Elastic Compliance Matrix: (Units=1/GPa)
#
#
# Indices 1 2 3 4 5 6 
#
# 1 0.014109 -0.008381 -0.004919 0.000000 0.000000 0.000000
# 2 -0.008381 0.026961 0.000235 0.000000 0.000000 0.000000
# 3 -0.004919 0.000235 0.010279 0.000000 0.000000 0.000000
# 4 0.000000 0.000000 0.000000 0.021163 0.000000 0.000000
# 5 0.000000 0.000000 0.000000 0.000000 0.037499 0.000000
# 6 0.000000 0.000000 0.000000 0.000000 0.000000 0.126461
#
#
# Mechanical properties :
#
#
# Convention : Reuss Voigt Hill
#
# Bulk Modulus (GPa) = 39.65171 52.85868 46.25520
# Shear Modulus (GPa) = 18.44967 28.22822 23.33895
#
# Velocity S-wave (km/s) = 3.01115 3.72460 3.38671
# Velocity P-wave (km/s) = 5.61926 6.66889 6.16645
#
# Compressibility (1/GPa) = 0.02521959
#
# Stress axis : x y z
#
# Youngs Moduli (GPa) = 70.87586 37.09046 97.28931
#
# Poissons Ratio (x) = 0.31084 0.47856
# Poissons Ratio (y) = 0.59399 -0.02286
# Poissons Ratio (z) = 0.34863 -0.00871
#
# Static dielectric constant tensor:
#      x y z
#    x 3.710440 0.000000 0.000000 
#    y 0.000000 3.324800 0.000000 
#    z 0.000000 0.000000 3.895180 
# 
# 
# High freq. dielectric constant tensor:
#      x y z
#    x 1.785000 0.000000 0.000000 
#    y 0.000000 1.765510 0.000000 
#    z 0.000000 0.000000 1.821430 
# 
# From -- ./inp_files/584.got.cif
#   From: 2010.03.12/outbox.cif.g09.slc.cpg/sg64_1_cif.got.tgz:584.got - 2010.04.10 20:19:32.
