data_PCOD8263516
_publ_section_title
;
Structure prediction by ZEFSAII (Michael W. Deem and Ramdas Pophale) SiO2 
 PCOD8263516
Probable space group: C M C A
;
_chemical_formula_sum "Si O2"
_cell_formula_units_Z 64
_cell_length_a 21.826364
_cell_length_b 14.915147
_cell_length_c 8.707105
_cell_angle_alpha 90.000000
_cell_angle_beta 90.000000
_cell_angle_gamma 90.000000
_cell_volume 2834.540806
_symmetry_space_group_name_H-M "C M C A"
_symmetry_group_IT_number 64
_symmetry_cell_setting 'orthorhombic'
loop_
_space_group_symop_operation_xyz
x,y,z
-x,1/2-y,1/2+z
x,-y,-z
-x,1/2+y,1/2-z
-x,-y,-z
x,1/2+y,1/2-z
-x,y,z
x,1/2-y,1/2+z
1/2+x,1/2+y,z
1/2-x,-y,1/2+z
1/2+x,1/2-y,-z
1/2-x,y,1/2-z
1/2-x,1/2-y,-z
1/2+x,y,1/2-z
1/2-x,1/2+y,z
1/2+x,-y,1/2+z
loop_
_atom_site_type_symbol
_atom_site_label
_atom_site_fract_x
_atom_site_fract_y
_atom_site_fract_z
Si Si1 0.000000 0.398922 0.428861
Si Si2 0.632102 0.519347 0.319587
Si Si3 0.000000 0.984957 0.674861
Si Si4 0.870657 0.158464 0.878857
Si Si5 0.684511 0.809080 0.697227
O O1 0.000000 0.500000 0.500000
O O2 0.062488 0.344751 0.463456
O O3 0.000000 0.414445 0.245081
O O4 0.637504 0.500000 0.500000
O O5 0.564239 0.561593 0.277318
O O6 0.644600 0.432774 0.213376
O O7 0.680585 0.594631 0.279085
O O8 0.000000 0.000000 0.500000
O O9 0.867038 0.239986 0.758230
O O10 0.821565 0.176634 0.014322
O O11 0.750000 0.769283 0.750000
#
# Coordination Sequence:
#
# PCOD8263516 Si02
#       5
#     8  16   8  16  16
#     4  10  20  39  67  96 124 162 210 271 334 390
#     4  10  21  40  66  95 127 169 216 276 343 402
#     4   8  16  33  59  90 124 154 198 259 325 394
#     4  11  24  43  65  95 132 170 221 282 337 398
#     4  12  26  42  62  91 128 176 225 271 328 407
#
# _framework density 22.578613000000001
#
# number of rings (size 3 to 8) (size 9 to 14) (size 15 to 20)
#    0.000    1.500    0.000    6.000    0.000    5.000 
#    0.000    2.500    0.000    0.000    0.000    0.000 
#    0.000    0.000    0.000    0.000    0.000    0.000 
#
# Total GULP energy -396421.348643 kJ/mol
# GULP energy per Si atom -12388.167145 kJ/mol
# Density = 2.252722 g / cm^3
# Si number density = 22.578613 Si / 1000 Ang^3
#
#
#
# Elastic Constant Matrix: (Units=GPa)
#
#
# Indices 1 2 3 4 5 6 
#
# 1 88.2140 31.7687 33.8727 0.0000 0.0000 0.0000
# 2 31.7687 126.3636 46.4181 0.0000 0.0000 0.0000
# 3 33.8727 46.4181 144.0771 0.0000 0.0000 0.0000
# 4 0.0000 0.0000 0.0000 44.5988 0.0000 0.0000
# 5 0.0000 0.0000 0.0000 0.0000 31.9809 0.0000
# 6 0.0000 0.0000 0.0000 0.0000 0.0000 30.5743
#
#
#
# Elastic Compliance Matrix: (Units=1/GPa)
#
#
# Indices 1 2 3 4 5 6 
#
# 1 0.013098 -0.002452 -0.002289 0.000000 0.000000 0.000000
# 2 -0.002452 0.009435 -0.002463 0.000000 0.000000 0.000000
# 3 -0.002289 -0.002463 0.008273 0.000000 0.000000 0.000000
# 4 0.000000 0.000000 0.000000 0.022422 0.000000 0.000000
# 5 0.000000 0.000000 0.000000 0.000000 0.031269 0.000000
# 6 0.000000 0.000000 0.000000 0.000000 0.000000 0.032707
#
#
# Mechanical properties :
#
#
# Convention : Reuss Voigt Hill
#
# Bulk Modulus (GPa) = 60.98896 64.75263 62.87080
# Shear Modulus (GPa) = 36.47542 37.87047 37.17295
#
# Velocity S-wave (km/s) = 4.02367 4.09989 4.06196
# Velocity P-wave (km/s) = 6.97546 7.15214 7.06435
#
# Compressibility (1/GPa) = 0.01639641
#
# Stress axis : x y z
#
# Youngs Moduli (GPa) = 76.34627 105.98873 120.88127
#
# Poissons Ratio (x) = 0.25988 0.27675
# Poissons Ratio (y) = 0.18720 0.29776
# Poissons Ratio (z) = 0.17479 0.26108
#
# Static dielectric constant tensor:
#      x y z
#    x 10.830730 0.000000 0.000000 
#    y 0.000000 3.629350 0.000000 
#    z 0.000000 0.000000 4.373830 
# 
# 
# High freq. dielectric constant tensor:
#      x y z
#    x 1.890820 0.000000 0.000000 
#    y 0.000000 1.863240 0.000000 
#    z 0.000000 0.000000 1.913850 
# 
# From -- ./inp_files/8999.got.cif
#   From: 2010.03.12/outbox.cif.g09.slc.cpg/sg64_5_cif.got.tgz:8999.got - 2010.04.10 20:19:32.
