data_PCOD8263612
_publ_section_title
;
Structure prediction by ZEFSAII (Michael W. Deem and Ramdas Pophale) SiO2 
 PCOD8263612
Probable space group: C M C A
;
_chemical_formula_sum "Si O2"
_cell_formula_units_Z 96
_cell_length_a 23.028143
_cell_length_b 13.441128
_cell_length_c 16.218349
_cell_angle_alpha 90.000000
_cell_angle_beta 90.000000
_cell_angle_gamma 90.000000
_cell_volume 5019.971786
_symmetry_space_group_name_H-M "C M C A"
_symmetry_group_IT_number 64
_symmetry_cell_setting 'orthorhombic'
loop_
_space_group_symop_operation_xyz
x,y,z
-x,1/2-y,1/2+z
x,-y,-z
-x,1/2+y,1/2-z
-x,-y,-z
x,1/2+y,1/2-z
-x,y,z
x,1/2-y,1/2+z
1/2+x,1/2+y,z
1/2-x,-y,1/2+z
1/2+x,1/2-y,-z
1/2-x,y,1/2-z
1/2-x,1/2-y,-z
1/2+x,y,1/2-z
1/2-x,1/2+y,z
1/2+x,-y,1/2+z
loop_
_atom_site_type_symbol
_atom_site_label
_atom_site_fract_x
_atom_site_fract_y
_atom_site_fract_z
Si Si1 0.271806 0.145330 0.841154
Si Si2 0.168673 0.664680 0.305470
Si Si3 0.433807 0.428658 0.884255
Si Si4 0.566997 0.147289 0.565313
Si Si5 0.672072 0.724554 0.382006
Si Si6 0.758841 0.450851 0.917786
O O1 0.250000 0.128325 0.750000
O O2 0.323535 0.226189 0.845893
O O3 0.215876 0.183266 0.893732
O O4 0.294478 0.040532 0.874779
O O5 0.103291 0.626110 0.314441
O O6 0.181676 0.674813 0.208512
O O7 0.209720 0.587703 0.354718
O O8 0.500000 0.407466 0.862142
O O9 0.421910 0.547028 0.882397
O O10 0.417839 0.378988 0.971476
O O11 0.500000 0.181370 0.574240
O O12 0.607241 0.237821 0.598018
O O13 0.694213 0.635178 0.441742
O O14 0.730538 0.500000 0.000000
#
# Coordination Sequence:
#
# PCOD8263612 Si02
#       6
#    16  16  16  16  16  16
#     4   9  19  35  51  74 110 145 174 218 276 331
#     4  10  21  34  56  81 110 148 181 232 279 332
#     4   9  19  35  58  86 111 139 183 235 279 325
#     4   9  19  35  58  83 109 142 182 233 283 325
#     4  10  21  36  55  79 112 147 184 227 281 332
#     4  11  23  33  53  83 111 147 185 229 274 334
#
# _framework density 19.123614
#
# number of rings (size 3 to 8) (size 9 to 14) (size 15 to 20)
#    0.000    2.333    0.000    4.500    7.000    3.333 
#    0.000    0.000    0.000    1.500    0.000    0.000 
#    0.000    0.000    0.000    0.000    0.000    0.000 
#
# Total GULP energy -594820.118510 kJ/mol
# GULP energy per Si atom -12392.085802 kJ/mol
# Density = 1.908009 g / cm^3
# Si number density = 19.123614 Si / 1000 Ang^3
#
#
#
# Elastic Constant Matrix: (Units=GPa)
#
#
# Indices 1 2 3 4 5 6 
#
# 1 89.0241 44.1778 17.7922 0.0000 0.0000 0.0000
# 2 44.1778 112.3839 31.2781 0.0000 0.0000 0.0000
# 3 17.7922 31.2781 40.4307 0.0000 0.0000 0.0000
# 4 0.0000 0.0000 0.0000 26.0415 0.0000 0.0000
# 5 0.0000 0.0000 0.0000 0.0000 25.6352 0.0000
# 6 0.0000 0.0000 0.0000 0.0000 0.0000 35.4772
#
#
#
# Elastic Compliance Matrix: (Units=1/GPa)
#
#
# Indices 1 2 3 4 5 6 
#
# 1 0.014143 -0.004878 -0.002450 0.000000 0.000000 0.000000
# 2 -0.004878 0.013022 -0.007927 0.000000 0.000000 0.000000
# 3 -0.002450 -0.007927 0.031945 0.000000 0.000000 0.000000
# 4 0.000000 0.000000 0.000000 0.038400 0.000000 0.000000
# 5 0.000000 0.000000 0.000000 0.000000 0.039009 0.000000
# 6 0.000000 0.000000 0.000000 0.000000 0.000000 0.028187
#
#
# Mechanical properties :
#
#
# Convention : Reuss Voigt Hill
#
# Bulk Modulus (GPa) = 34.96659 47.59278 41.27968
# Shear Modulus (GPa) = 24.41999 27.33682 25.87841
#
# Velocity S-wave (km/s) = 3.57733 3.78495 3.68260
# Velocity P-wave (km/s) = 5.94872 6.63642 6.30196
#
# Compressibility (1/GPa) = 0.02859873
#
# Stress axis : x y z
#
# Youngs Moduli (GPa) = 70.70550 76.79429 31.30382
#
# Poissons Ratio (x) = 0.37457 0.07671
# Poissons Ratio (y) = 0.34488 0.24816
# Poissons Ratio (z) = 0.17326 0.60879
#
# Static dielectric constant tensor:
#      x y z
#    x 3.313620 0.000000 0.000000 
#    y 0.000000 3.735280 0.000000 
#    z 0.000000 0.000000 3.415740 
# 
# 
# High freq. dielectric constant tensor:
#      x y z
#    x 1.718460 0.000000 0.000000 
#    y 0.000000 1.751380 0.000000 
#    z 0.000000 0.000000 1.732480 
# 
# From -- ./inp_files/34936.got.cif
#   From: 2010.03.12/outbox.cif.g09.slc.cpg/sg64_18_cif.got.tgz:34936.got - 2010.04.10 20:19:32.
