data_PCOD8263736
_publ_section_title
;
Structure prediction by ZEFSAII (Michael W. Deem and Ramdas Pophale) SiO2 
 PCOD8263736
Probable space group: C M C A
;
_chemical_formula_sum "Si O2"
_cell_formula_units_Z 112
_cell_length_a 28.157362
_cell_length_b 14.021924
_cell_length_c 14.242961
_cell_angle_alpha 90.000000
_cell_angle_beta 90.000000
_cell_angle_gamma 90.000000
_cell_volume 5623.411417
_symmetry_space_group_name_H-M "C M C A"
_symmetry_group_IT_number 64
_symmetry_cell_setting 'orthorhombic'
loop_
_space_group_symop_operation_xyz
x,y,z
-x,1/2-y,1/2+z
x,-y,-z
-x,1/2+y,1/2-z
-x,-y,-z
x,1/2+y,1/2-z
-x,y,z
x,1/2-y,1/2+z
1/2+x,1/2+y,z
1/2-x,-y,1/2+z
1/2+x,1/2-y,-z
1/2-x,y,1/2-z
1/2-x,1/2-y,-z
1/2+x,y,1/2-z
1/2-x,1/2+y,z
1/2+x,-y,1/2+z
loop_
_atom_site_type_symbol
_atom_site_label
_atom_site_fract_x
_atom_site_fract_y
_atom_site_fract_z
Si Si1 0.146825 0.241391 0.387322
Si Si2 0.347699 0.584814 0.234635
Si Si3 0.449216 0.831216 0.920505
Si Si4 0.947307 0.986175 0.730443
Si Si5 0.805268 0.382436 0.249723
Si Si6 0.052476 0.320063 0.131968
Si Si7 0.151134 0.749161 0.394943
O O1 0.159264 0.143990 0.331706
O O2 0.089358 0.247338 0.387913
O O3 0.169412 0.332775 0.338444
O O4 0.163563 0.240667 0.495655
O O5 0.401954 0.550976 0.210639
O O6 0.313374 0.494881 0.243263
O O7 0.328909 0.650293 0.148144
O O8 0.500000 0.780857 0.902090
O O9 0.445474 0.930389 0.867071
O O10 0.443575 0.863432 0.027912
O O11 0.000000 0.970847 0.778209
O O12 0.939678 0.097268 0.707998
O O13 0.750000 0.359121 0.250000
O O14 0.825948 0.342085 0.152596
O O15 0.095365 0.244249 0.137751
O O16 0.000000 0.272375 0.147625
#
# Coordination Sequence:
#
# PCOD8263736 Si02
#       7
#    16  16  16  16  16  16  16
#     4   9  21  39  61  88 116 151 190 232 286 347
#     4  10  21  37  57  83 118 150 188 236 289 338
#     4   8  14  26  49  83 119 149 182 225 273 330
#     4   9  15  26  47  79 114 150 189 227 271 332
#     4  11  24  42  61  83 112 144 189 244 300 349
#     4   9  15  26  50  82 115 152 187 225 273 327
#     4  10  21  39  61  86 118 151 190 238 282 347
#
# _framework density 19.916736
#
# number of rings (size 3 to 8) (size 9 to 14) (size 15 to 20)
#    0.000    2.571    1.429    0.429    0.000    6.286 
#    0.000    4.286    0.000    0.000    0.000    5.000 
#    0.000    0.000    0.000    0.000    0.000    0.000 
#
# Total GULP energy -693769.918261 kJ/mol
# GULP energy per Si atom -12388.748540 kJ/mol
# Density = 1.987140 g / cm^3
# Si number density = 19.916736 Si / 1000 Ang^3
#
#
#
# Elastic Constant Matrix: (Units=GPa)
#
#
# Indices 1 2 3 4 5 6 
#
# 1 74.6694 30.6855 32.2578 0.0000 0.0000 0.0000
# 2 30.6855 98.6674 43.6566 0.0000 0.0000 0.0000
# 3 32.2578 43.6566 102.6789 0.0000 0.0000 0.0000
# 4 0.0000 0.0000 0.0000 17.2331 0.0000 0.0000
# 5 0.0000 0.0000 0.0000 0.0000 15.2795 0.0000
# 6 0.0000 0.0000 0.0000 0.0000 0.0000 13.7598
#
#
#
# Elastic Compliance Matrix: (Units=1/GPa)
#
#
# Indices 1 2 3 4 5 6 
#
# 1 0.016410 -0.003476 -0.003677 0.000000 0.000000 0.000000
# 2 -0.003476 0.013220 -0.004529 0.000000 0.000000 0.000000
# 3 -0.003677 -0.004529 0.012820 0.000000 0.000000 0.000000
# 4 0.000000 0.000000 0.000000 0.058028 0.000000 0.000000
# 5 0.000000 0.000000 0.000000 0.000000 0.065447 0.000000
# 6 0.000000 0.000000 0.000000 0.000000 0.000000 0.072676
#
#
# Mechanical properties :
#
#
# Convention : Reuss Voigt Hill
#
# Bulk Modulus (GPa) = 52.39744 54.35729 53.37736
# Shear Modulus (GPa) = 18.63402 20.54884 19.59143
#
# Velocity S-wave (km/s) = 3.06207 3.21555 3.13975
# Velocity P-wave (km/s) = 6.23434 6.41388 6.32475
#
# Compressibility (1/GPa) = 0.01908490
#
# Stress axis : x y z
#
# Youngs Moduli (GPa) = 60.94007 75.64312 78.00416
#
# Poissons Ratio (x) = 0.26296 0.28684
# Poissons Ratio (y) = 0.21185 0.35326
# Poissons Ratio (z) = 0.22409 0.34256
#
# Static dielectric constant tensor:
#      x y z
#    x 3.831940 0.000000 0.000000 
#    y 0.000000 3.330980 0.000000 
#    z 0.000000 0.000000 3.442730 
# 
# 
# High freq. dielectric constant tensor:
#      x y z
#    x 1.776790 0.000000 0.000000 
#    y 0.000000 1.757300 0.000000 
#    z 0.000000 0.000000 1.756840 
# 
# From -- ./inp_files/28061.got.cif
#   From: 2010.03.12/outbox.cif.g09.slc.cpg/sg64_15_cif.got.tgz:28061.got - 2010.04.10 20:19:32.
