data_PCOD8263428
_publ_section_title
;
Structure prediction by ZEFSAII (Michael W. Deem and Ramdas Pophale) SiO2 
 PCOD8263428
Probable space group: C M C A
;
_chemical_formula_sum "Si O2"
_cell_formula_units_Z 112
_cell_length_a 14.186393
_cell_length_b 12.213604
_cell_length_c 31.909479
_cell_angle_alpha 90.000000
_cell_angle_beta 90.000000
_cell_angle_gamma 90.000000
_cell_volume 5528.859260
_symmetry_space_group_name_H-M "C M C A"
_symmetry_group_IT_number 64
_symmetry_cell_setting 'orthorhombic'
loop_
_space_group_symop_operation_xyz
x,y,z
-x,1/2-y,1/2+z
x,-y,-z
-x,1/2+y,1/2-z
-x,-y,-z
x,1/2+y,1/2-z
-x,y,z
x,1/2-y,1/2+z
1/2+x,1/2+y,z
1/2-x,-y,1/2+z
1/2+x,1/2-y,-z
1/2-x,y,1/2-z
1/2-x,1/2-y,-z
1/2+x,y,1/2-z
1/2-x,1/2+y,z
1/2+x,-y,1/2+z
loop_
_atom_site_type_symbol
_atom_site_label
_atom_site_fract_x
_atom_site_fract_y
_atom_site_fract_z
Si Si1 0.896655 0.856987 0.813676
Si Si2 0.893958 0.768423 0.904464
Si Si3 0.604176 0.268684 0.173189
Si Si4 0.352670 0.842023 0.240599
Si Si5 0.704346 0.457405 0.687223
Si Si6 0.760486 0.600889 0.612443
Si Si7 0.891967 0.519735 0.452450
O O1 0.874237 0.837397 0.862390
O O2 0.903370 0.739712 0.791280
O O3 0.811464 0.932424 0.796339
O O4 0.000000 0.914182 0.808647
O O5 0.821514 0.669526 0.910003
O O6 0.879986 0.851545 0.943025
O O7 0.000000 0.720272 0.903991
O O8 0.500000 0.260084 0.153025
O O9 0.594984 0.344835 0.214655
O O10 0.639768 0.149076 0.186282
O O11 0.676730 0.319991 0.140945
O O12 0.250000 0.792774 0.250000
O O13 0.346411 0.961406 0.219720
O O14 0.710496 0.509602 0.641018
O O15 0.824483 0.550831 0.576652
O O16 0.861297 0.500000 0.500000
O O17 0.000000 0.482840 0.444446
#
# Coordination Sequence:
#
# PCOD8263428 Si02
#       7
#    16  16  16  16  16  16  16
#     4  11  22  39  61  86 115 155 203 250 300 364
#     4  10  20  38  62  92 123 157 203 244 300 376
#     4  12  27  41  58  89 121 159 211 260 305 363
#     4  12  23  41  59  80 121 162 202 253 305 357
#     4  12  23  41  62  84 118 159 199 258 303 365
#     4  12  21  41  66  91 123 162 200 256 319 364
#     4  10  22  40  65  95 126 163 207 253 306 373
#
# _framework density 20.257342000000001
#
# number of rings (size 3 to 8) (size 9 to 14) (size 15 to 20)
#    0.000    0.714    7.143    0.857    2.000    2.857 
#    0.000    0.000    0.000    0.429    0.000    0.000 
#    0.000    0.000    0.000    0.000    0.000    0.000 
#
# Total GULP energy -694445.308405 kJ/mol
# GULP energy per Si atom -12400.809079 kJ/mol
# Density = 2.021124 g / cm^3
# Si number density = 20.257342 Si / 1000 Ang^3
#
#
#
# Elastic Constant Matrix: (Units=GPa)
#
#
# Indices 1 2 3 4 5 6 
#
# 1 106.6798 48.2619 32.7990 0.0000 0.0000 0.0000
# 2 48.2619 100.3051 49.9914 0.0000 0.0000 0.0000
# 3 32.7990 49.9914 99.1433 0.0000 0.0000 0.0000
# 4 0.0000 0.0000 0.0000 26.3146 0.0000 0.0000
# 5 0.0000 0.0000 0.0000 0.0000 27.4779 0.0000
# 6 0.0000 0.0000 0.0000 0.0000 0.0000 29.5154
#
#
#
# Elastic Compliance Matrix: (Units=1/GPa)
#
#
# Indices 1 2 3 4 5 6 
#
# 1 0.012132 -0.005125 -0.001429 0.000000 0.000000 0.000000
# 2 -0.005125 0.015481 -0.006111 0.000000 0.000000 0.000000
# 3 -0.001429 -0.006111 0.013640 0.000000 0.000000 0.000000
# 4 0.000000 0.000000 0.000000 0.038002 0.000000 0.000000
# 5 0.000000 0.000000 0.000000 0.000000 0.036393 0.000000
# 6 0.000000 0.000000 0.000000 0.000000 0.000000 0.033881
#
#
# Mechanical properties :
#
#
# Convention : Reuss Voigt Hill
#
# Bulk Modulus (GPa) = 62.80006 63.13699 62.96852
# Shear Modulus (GPa) = 27.75224 28.33331 28.04278
#
# Velocity S-wave (km/s) = 3.70535 3.74394 3.72469
# Velocity P-wave (km/s) = 7.02670 7.06573 7.04624
#
# Compressibility (1/GPa) = 0.01592355
#
# Stress axis : x y z
#
# Youngs Moduli (GPa) = 82.42812 64.59589 73.31141
#
# Poissons Ratio (x) = 0.33104 0.10479
# Poissons Ratio (y) = 0.42243 0.44797
# Poissons Ratio (z) = 0.11782 0.39472
#
# Static dielectric constant tensor:
#      x y z
#    x -1.137560 0.000000 0.000000 
#    y 0.000000 3.595630 0.000000 
#    z 0.000000 0.000000 3.602980 
# 
# 
# High freq. dielectric constant tensor:
#      x y z
#    x 1.801620 0.000000 0.000000 
#    y 0.000000 1.789530 0.000000 
#    z 0.000000 0.000000 1.769070 
# 
# From -- ./inp_files/53254.got.cif
#   From: 2010.03.12/outbox.cif.g09.slc.cpg/sg64_27_cif.got.tgz:53254.got - 2010.04.10 20:19:32.
