data_PCOD8263332
_publ_section_title
;
Structure prediction by ZEFSAII (Michael W. Deem and Ramdas Pophale) SiO2 
 PCOD8263332
Probable space group: C M C A
;
_chemical_formula_sum "Si O2"
_cell_formula_units_Z 80
_cell_length_a 17.006800
_cell_length_b 10.188882
_cell_length_c 26.085860
_cell_angle_alpha 90.000000
_cell_angle_beta 90.000000
_cell_angle_gamma 90.000000
_cell_volume 4520.165083
_symmetry_space_group_name_H-M "C M C A"
_symmetry_group_IT_number 64
_symmetry_cell_setting 'orthorhombic'
loop_
_space_group_symop_operation_xyz
x,y,z
-x,1/2-y,1/2+z
x,-y,-z
-x,1/2+y,1/2-z
-x,-y,-z
x,1/2+y,1/2-z
-x,y,z
x,1/2-y,1/2+z
1/2+x,1/2+y,z
1/2-x,-y,1/2+z
1/2+x,1/2-y,-z
1/2-x,y,1/2-z
1/2-x,1/2-y,-z
1/2+x,y,1/2-z
1/2-x,1/2+y,z
1/2+x,-y,1/2+z
loop_
_atom_site_type_symbol
_atom_site_label
_atom_site_fract_x
_atom_site_fract_y
_atom_site_fract_z
Si Si1 0.911504 0.487632 0.241563
Si Si2 0.674965 0.726285 0.217968
Si Si3 0.260533 0.258202 0.114031
Si Si4 0.088804 0.380006 0.868089
Si Si5 0.205714 0.510466 0.060057
O O1 0.881650 0.599258 0.280938
O O2 0.862153 0.353692 0.245241
O O3 0.907318 0.541119 0.184300
O O4 0.000000 0.451645 0.257349
O O5 0.750000 0.681481 0.250000
O O6 0.697372 0.758335 0.159677
O O7 0.350666 0.243706 0.135423
O O8 0.254386 0.388736 0.081343
O O9 0.242269 0.137463 0.075487
O O10 0.119444 0.477545 0.913252
O O11 0.000000 0.332071 0.879952
O O12 0.193434 0.500000 0.000000
#
# Coordination Sequence:
#
# PCOD8263332 Si02
#       5
#    16  16  16  16  16
#     4  11  23  37  55  83 117 148 182 230 279 332
#     4  12  21  36  58  82 113 150 190 222 274 337
#     4  10  21  36  58  86 110 147 191 234 277 335
#     4   9  20  36  56  82 116 147 183 228 280 335
#     4  10  20  37  61  86 110 146 195 241 283 330
#
# _framework density 17.69847
#
# number of rings (size 3 to 8) (size 9 to 14) (size 15 to 20)
#    1.200    0.400    4.000    1.800    2.800    0.400 
#    0.000    0.000    0.000    1.800    0.000    0.000 
#    0.000    0.000    0.000    0.000    0.000    0.000 
#
# Total GULP energy -495759.661911 kJ/mol
# GULP energy per Si atom -12393.991548 kJ/mol
# Density = 1.765819 g / cm^3
# Si number density = 17.698470 Si / 1000 Ang^3
#
#
#
# Elastic Constant Matrix: (Units=GPa)
#
#
# Indices 1 2 3 4 5 6 
#
# 1 99.7939 39.9689 20.6182 0.0000 0.0000 0.0000
# 2 39.9689 91.3954 -5.3312 0.0000 0.0000 0.0000
# 3 20.6182 -5.3312 45.0491 0.0000 0.0000 0.0000
# 4 0.0000 0.0000 0.0000 20.5157 0.0000 0.0000
# 5 0.0000 0.0000 0.0000 0.0000 13.8633 0.0000
# 6 0.0000 0.0000 0.0000 0.0000 0.0000 18.4011
#
#
#
# Elastic Compliance Matrix: (Units=1/GPa)
#
#
# Indices 1 2 3 4 5 6 
#
# 1 0.014176 -0.006624 -0.007272 0.000000 0.000000 0.000000
# 2 -0.006624 0.014112 0.004702 0.000000 0.000000 0.000000
# 3 -0.007272 0.004702 0.026083 0.000000 0.000000 0.000000
# 4 0.000000 0.000000 0.000000 0.048743 0.000000 0.000000
# 5 0.000000 0.000000 0.000000 0.000000 0.072133 0.000000
# 6 0.000000 0.000000 0.000000 0.000000 0.000000 0.054345
#
#
# Mechanical properties :
#
#
# Convention : Reuss Voigt Hill
#
# Bulk Modulus (GPa) = 27.79087 38.52779 33.15933
# Shear Modulus (GPa) = 19.23273 22.62153 20.92713
#
# Velocity S-wave (km/s) = 3.30007 3.57902 3.44237
# Velocity P-wave (km/s) = 5.50065 6.23662 5.88016
#
# Compressibility (1/GPa) = 0.03598304
#
# Stress axis : x y z
#
# Youngs Moduli (GPa) = 70.54226 70.86012 38.33969
#
# Poissons Ratio (x) = 0.46935 0.27880
# Poissons Ratio (y) = 0.46724 -0.18026
# Poissons Ratio (z) = 0.51298 -0.33315
#
# Static dielectric constant tensor:
#      x y z
#    x 3.347860 0.000000 0.000000 
#    y 0.000000 3.212520 0.000000 
#    z 0.000000 0.000000 3.439640 
# 
# 
# High freq. dielectric constant tensor:
#      x y z
#    x 1.674680 0.000000 0.000000 
#    y 0.000000 1.685120 0.000000 
#    z 0.000000 0.000000 1.674720 
# 
# From -- ./inp_files/44943.got.cif
#   From: 2010.03.12/outbox.cif.g09.slc.cpg/sg64_23_cif.got.tgz:44943.got - 2010.04.10 20:19:32.
