data_PCOD8263387
_publ_section_title
;
Structure prediction by ZEFSAII (Michael W. Deem and Ramdas Pophale) SiO2 
 PCOD8263387
Probable space group: C M C A
;
_chemical_formula_sum "Si O2"
_cell_formula_units_Z 96
_cell_length_a 8.997927
_cell_length_b 19.968719
_cell_length_c 28.146772
_cell_angle_alpha 90.000000
_cell_angle_beta 90.000000
_cell_angle_gamma 90.000000
_cell_volume 5057.329687
_symmetry_space_group_name_H-M "C M C A"
_symmetry_group_IT_number 64
_symmetry_cell_setting 'orthorhombic'
loop_
_space_group_symop_operation_xyz
x,y,z
-x,1/2-y,1/2+z
x,-y,-z
-x,1/2+y,1/2-z
-x,-y,-z
x,1/2+y,1/2-z
-x,y,z
x,1/2-y,1/2+z
1/2+x,1/2+y,z
1/2-x,-y,1/2+z
1/2+x,1/2-y,-z
1/2-x,y,1/2-z
1/2-x,1/2-y,-z
1/2+x,y,1/2-z
1/2-x,1/2+y,z
1/2+x,-y,1/2+z
loop_
_atom_site_type_symbol
_atom_site_label
_atom_site_fract_x
_atom_site_fract_y
_atom_site_fract_z
Si Si1 0.328444 0.877659 0.602352
Si Si2 0.829294 0.517027 0.553604
Si Si3 0.673695 0.826235 0.703164
Si Si4 0.671490 0.826075 0.203985
Si Si5 0.823827 0.239239 0.449642
Si Si6 0.173645 0.860054 0.399113
O O1 0.500000 0.855192 0.595269
O O2 0.279917 0.869496 0.657193
O O3 0.223860 0.833201 0.569222
O O4 0.304986 0.954128 0.587776
O O5 0.781673 0.500000 0.500000
O O6 0.723713 0.575391 0.571978
O O7 0.000000 0.541614 0.554664
O O8 0.500000 0.829754 0.711697
O O9 0.750000 0.857326 0.750000
O O10 0.728248 0.749869 0.695113
O O11 0.500000 0.825076 0.216269
O O12 0.750000 0.858526 0.250000
O O13 0.704358 0.870251 0.157132
O O14 0.750000 0.250000 0.500000
O O15 0.767008 0.295749 0.414094
O O16 0.000000 0.242792 0.454544
O O17 0.000000 0.846327 0.408759
#
# Coordination Sequence:
#
# PCOD8263387 Si02
#       6
#    16  16  16  16  16  16
#     4  10  20  38  59  82 117 152 188 239 294 341
#     4  10  22  39  59  83 114 156 199 237 287 349
#     4   9  17  32  54  81 113 148 186 232 288 342
#     4   9  18  33  55  83 114 148 187 233 286 341
#     4  12  24  37  58  86 115 147 191 240 288 342
#     4  11  22  39  60  85 118 152 192 241 290 340
#
# _framework density 18.982348999999999
#
# number of rings (size 3 to 8) (size 9 to 14) (size 15 to 20)
#    0.000    1.833    1.667    3.000    0.000    4.333 
#    0.000    0.833    0.000    4.000    0.000    0.000 
#    0.000    0.000    0.000    0.000    0.000    0.000 
#
# Total GULP energy -595304.084177 kJ/mol
# GULP energy per Si atom -12402.168420 kJ/mol
# Density = 1.893914 g / cm^3
# Si number density = 18.982349 Si / 1000 Ang^3
#
#
#
# Elastic Constant Matrix: (Units=GPa)
#
#
# Indices 1 2 3 4 5 6 
#
# 1 81.8995 16.4081 32.5790 0.0000 0.0000 0.0000
# 2 16.4081 41.2209 9.2736 0.0000 0.0000 0.0000
# 3 32.5790 9.2736 113.7577 0.0000 0.0000 0.0000
# 4 0.0000 0.0000 0.0000 31.5309 0.0000 0.0000
# 5 0.0000 0.0000 0.0000 0.0000 35.7681 0.0000
# 6 0.0000 0.0000 0.0000 0.0000 0.0000 26.9792
#
#
#
# Elastic Compliance Matrix: (Units=1/GPa)
#
#
# Indices 1 2 3 4 5 6 
#
# 1 0.014729 -0.005006 -0.003810 0.000000 0.000000 0.000000
# 2 -0.005006 0.026414 -0.000720 0.000000 0.000000 0.000000
# 3 -0.003810 -0.000720 0.009940 0.000000 0.000000 0.000000
# 4 0.000000 0.000000 0.000000 0.031715 0.000000 0.000000
# 5 0.000000 0.000000 0.000000 0.000000 0.027958 0.000000
# 6 0.000000 0.000000 0.000000 0.000000 0.000000 0.037066
#
#
# Mechanical properties :
#
#
# Convention : Reuss Voigt Hill
#
# Bulk Modulus (GPa) = 31.23810 39.26661 35.25236
# Shear Modulus (GPa) = 28.15906 30.76345 29.46126
#
# Velocity S-wave (km/s) = 3.85572 4.03008 3.94386
# Velocity P-wave (km/s) = 6.02612 6.51046 6.27297
#
# Compressibility (1/GPa) = 0.03201219
#
# Stress axis : x y z
#
# Youngs Moduli (GPa) = 67.89547 37.85885 100.59910
#
# Poissons Ratio (x) = 0.18950 0.38329
# Poissons Ratio (y) = 0.33985 0.07241
# Poissons Ratio (z) = 0.25868 0.02725
#
# Static dielectric constant tensor:
#      x y z
#    x 3.443900 0.000000 0.000000 
#    y 0.000000 3.301710 0.000000 
#    z 0.000000 0.000000 3.756010 
# 
# 
# High freq. dielectric constant tensor:
#      x y z
#    x 1.734960 0.000000 0.000000 
#    y 0.000000 1.713210 0.000000 
#    z 0.000000 0.000000 1.756690 
# 
# From -- ./inp_files/48041.got.cif
#   From: 2010.03.12/outbox.cif.g09.slc.cpg/sg64_25_cif.got.tgz:48041.got - 2010.04.10 20:19:32.
