data_PCOD8263628
_publ_section_title
;
Structure prediction by ZEFSAII (Michael W. Deem and Ramdas Pophale) SiO2 
 PCOD8263628
Probable space group: C M C A
;
_chemical_formula_sum "Si O2"
_cell_formula_units_Z 96
_cell_length_a 8.631195
_cell_length_b 25.186360
_cell_length_c 23.407670
_cell_angle_alpha 90.000000
_cell_angle_beta 90.000000
_cell_angle_gamma 90.000000
_cell_volume 5088.555566
_symmetry_space_group_name_H-M "C M C A"
_symmetry_group_IT_number 64
_symmetry_cell_setting 'orthorhombic'
loop_
_space_group_symop_operation_xyz
x,y,z
-x,1/2-y,1/2+z
x,-y,-z
-x,1/2+y,1/2-z
-x,-y,-z
x,1/2+y,1/2-z
-x,y,z
x,1/2-y,1/2+z
1/2+x,1/2+y,z
1/2-x,-y,1/2+z
1/2+x,1/2-y,-z
1/2-x,y,1/2-z
1/2-x,1/2-y,-z
1/2+x,y,1/2-z
1/2-x,1/2+y,z
1/2+x,-y,1/2+z
loop_
_atom_site_type_symbol
_atom_site_label
_atom_site_fract_x
_atom_site_fract_y
_atom_site_fract_z
Si Si1 0.316950 0.058365 0.310581
Si Si2 0.818935 0.308622 0.501518
Si Si3 0.680501 0.149096 0.623440
Si Si4 0.683042 0.252901 0.688021
Si Si5 0.683108 0.148198 0.113432
Si Si6 0.682308 0.443846 0.309930
O O1 0.500000 0.057490 0.305815
O O2 0.250000 0.078553 0.250000
O O3 0.264496 0.096497 0.361300
O O4 0.256657 0.000037 0.325793
O O5 0.750000 0.250000 0.500000
O O6 0.787496 0.338015 0.442175
O O7 0.734805 0.344792 0.548295
O O8 0.000000 0.304096 0.514869
O O9 0.500000 0.138629 0.635043
O O10 0.743060 0.197824 0.661669
O O11 0.777271 0.097207 0.640050
O O12 0.500000 0.252902 0.690914
O O13 0.750000 0.262089 0.750000
O O14 0.741569 0.300479 0.648081
O O15 0.500000 0.140943 0.116950
O O16 0.500000 0.450971 0.304002
O O17 0.750000 0.422289 0.250000
#
# Coordination Sequence:
#
# PCOD8263628 Si02
#       6
#    16  16  16  16  16  16
#     4  11  22  39  62  89 119 157 196 241 296 352
#     4  11  22  39  61  85 117 158 200 243 295 351
#     4  10  21  39  58  83 117 154 195 241 291 347
#     4  10  21  35  53  81 116 151 186 234 290 344
#     4  11  22  39  59  85 119 155 198 245 291 350
#     4  11  22  38  61  89 118 155 195 241 294 350
#
# _framework density 18.865864999999999
#
# number of rings (size 3 to 8) (size 9 to 14) (size 15 to 20)
#    0.000    1.333    1.667    6.000    0.000    6.000 
#    0.000    0.833    0.000    5.000    0.000    0.000 
#    0.000    0.000    0.000    0.000    0.000    0.000 
#
# Total GULP energy -595472.485039 kJ/mol
# GULP energy per Si atom -12405.676772 kJ/mol
# Density = 1.882293 g / cm^3
# Si number density = 18.865865 Si / 1000 Ang^3
#
#
#
# Elastic Constant Matrix: (Units=GPa)
#
#
# Indices 1 2 3 4 5 6 
#
# 1 115.7125 52.2831 45.4544 0.0000 0.0000 0.0000
# 2 52.2831 113.0438 57.1090 0.0000 0.0000 0.0000
# 3 45.4544 57.1090 100.8509 0.0000 0.0000 0.0000
# 4 0.0000 0.0000 0.0000 31.5179 0.0000 0.0000
# 5 0.0000 0.0000 0.0000 0.0000 34.6257 0.0000
# 6 0.0000 0.0000 0.0000 0.0000 0.0000 32.0275
#
#
#
# Elastic Compliance Matrix: (Units=1/GPa)
#
#
# Indices 1 2 3 4 5 6 
#
# 1 0.011561 -0.003802 -0.003058 0.000000 0.000000 0.000000
# 2 -0.003802 0.013641 -0.006011 0.000000 0.000000 0.000000
# 3 -0.003058 -0.006011 0.014698 0.000000 0.000000 0.000000
# 4 0.000000 0.000000 0.000000 0.031728 0.000000 0.000000
# 5 0.000000 0.000000 0.000000 0.000000 0.028880 0.000000
# 6 0.000000 0.000000 0.000000 0.000000 0.000000 0.031223
#
#
# Mechanical properties :
#
#
# Convention : Reuss Voigt Hill
#
# Bulk Modulus (GPa) = 70.62987 71.03336 70.83162
# Shear Modulus (GPa) = 30.82744 31.28493 31.05619
#
# Velocity S-wave (km/s) = 4.04670 4.07662 4.06169
# Velocity P-wave (km/s) = 7.70413 7.73899 7.72158
#
# Compressibility (1/GPa) = 0.01415832
#
# Stress axis : x y z
#
# Youngs Moduli (GPa) = 86.49570 73.30579 68.03868
#
# Poissons Ratio (x) = 0.27874 0.20803
# Poissons Ratio (y) = 0.32890 0.40898
# Poissons Ratio (z) = 0.26446 0.44064
#
# Static dielectric constant tensor:
#      x y z
#    x 3.433530 0.000000 0.000000 
#    y 0.000000 3.511550 0.000000 
#    z 0.000000 0.000000 3.557540 
# 
# 
# High freq. dielectric constant tensor:
#      x y z
#    x 1.742460 0.000000 0.000000 
#    y 0.000000 1.736690 0.000000 
#    z 0.000000 0.000000 1.734600 
# 
# From -- ./inp_files/36985.got.cif
#   From: 2010.03.12/outbox.cif.g09.slc.cpg/sg64_19_cif.got.tgz:36985.got - 2010.04.10 20:19:32.
