data_PCOD8264603
_publ_section_title
;
Structure prediction by ZEFSAII (Michael W. Deem and Ramdas Pophale) SiO2 
 PCOD8264603
Probable space group: C M C A
;
_chemical_formula_sum "Si O2"
_cell_formula_units_Z 96
_cell_length_a 13.848919
_cell_length_b 14.031781
_cell_length_c 25.625748
_cell_angle_alpha 90.000000
_cell_angle_beta 90.000000
_cell_angle_gamma 90.000000
_cell_volume 4979.723442
_symmetry_space_group_name_H-M "C M C A"
_symmetry_group_IT_number 64
_symmetry_cell_setting 'orthorhombic'
loop_
_space_group_symop_operation_xyz
x,y,z
-x,1/2-y,1/2+z
x,-y,-z
-x,1/2+y,1/2-z
-x,-y,-z
x,1/2+y,1/2-z
-x,y,z
x,1/2-y,1/2+z
1/2+x,1/2+y,z
1/2-x,-y,1/2+z
1/2+x,1/2-y,-z
1/2-x,y,1/2-z
1/2-x,1/2-y,-z
1/2+x,y,1/2-z
1/2-x,1/2+y,z
1/2+x,-y,1/2+z
loop_
_atom_site_type_symbol
_atom_site_label
_atom_site_fract_x
_atom_site_fract_y
_atom_site_fract_z
Si Si1 0.611317 0.999975 0.561471
Si Si2 0.109334 0.050576 0.295814
Si Si3 0.246696 0.129819 0.374270
Si Si4 0.143638 0.862886 0.236995
Si Si5 0.602453 0.690717 0.208787
Si Si6 0.610250 0.306523 0.118590
O O1 0.500000 0.974651 0.577501
O O2 0.639115 0.105316 0.581616
O O3 0.622596 0.000000 0.500000
O O4 0.688686 0.922142 0.582149
O O5 0.128628 0.972237 0.251655
O O6 0.000000 0.046108 0.317056
O O7 0.181639 0.048870 0.345237
O O8 0.132450 0.147421 0.264970
O O9 0.318878 0.179520 0.334814
O O10 0.178013 0.215403 0.395287
O O11 0.250000 0.828012 0.250000
O O12 0.081116 0.800906 0.277422
O O13 0.118046 0.846011 0.177139
O O14 0.500000 0.645555 0.189805
O O15 0.500000 0.273924 0.108314
#
# Coordination Sequence:
#
# PCOD8264603 Si02
#       6
#    16  16  16  16  16  16
#     4  10  24  46  68  88 112 150 205 263 314 363
#     4  11  22  34  52  82 123 164 198 235 282 350
#     4  12  22  37  61  89 118 154 202 247 300 359
#     4  12  20  34  54  82 122 163 198 229 280 350
#     4  11  21  34  51  83 123 158 194 233 276 344
#     4  11  22  39  62  88 121 161 201 246 301 359
#
# _framework density 19.278179000000002
#
# number of rings (size 3 to 8) (size 9 to 14) (size 15 to 20)
#    0.000    0.833    3.333    6.000    0.000    3.333 
#    0.000    0.000    0.000    2.000    0.000    0.000 
#    0.000    0.000    0.000    0.000    0.000    0.000 
#
# Total GULP energy -594862.081322 kJ/mol
# GULP energy per Si atom -12392.960028 kJ/mol
# Density = 1.923430 g / cm^3
# Si number density = 19.278179 Si / 1000 Ang^3
#
#
#
# Elastic Constant Matrix: (Units=GPa)
#
#
# Indices 1 2 3 4 5 6 
#
# 1 120.2915 57.3026 49.3685 0.0000 0.0000 0.0000
# 2 57.3026 105.3353 43.2573 0.0000 0.0000 0.0000
# 3 49.3685 43.2573 80.3650 0.0000 0.0000 0.0000
# 4 0.0000 0.0000 0.0000 25.4316 0.0000 0.0000
# 5 0.0000 0.0000 0.0000 0.0000 44.6332 0.0000
# 6 0.0000 0.0000 0.0000 0.0000 0.0000 21.2850
#
#
#
# Elastic Compliance Matrix: (Units=1/GPa)
#
#
# Indices 1 2 3 4 5 6 
#
# 1 0.012746 -0.004774 -0.005261 0.000000 0.000000 0.000000
# 2 -0.004774 0.013975 -0.004590 0.000000 0.000000 0.000000
# 3 -0.005261 -0.004590 0.018145 0.000000 0.000000 0.000000
# 4 0.000000 0.000000 0.000000 0.039321 0.000000 0.000000
# 5 0.000000 0.000000 0.000000 0.000000 0.022405 0.000000
# 6 0.000000 0.000000 0.000000 0.000000 0.000000 0.046981
#
#
# Mechanical properties :
#
#
# Convention : Reuss Voigt Hill
#
# Bulk Modulus (GPa) = 64.02599 67.31649 65.67124
# Shear Modulus (GPa) = 26.59175 28.67418 27.63297
#
# Velocity S-wave (km/s) = 3.71802 3.86085 3.79011
# Velocity P-wave (km/s) = 7.19133 7.40738 7.30015
#
# Compressibility (1/GPa) = 0.01561866
#
# Stress axis : x y z
#
# Youngs Moduli (GPa) = 78.45558 71.55521 55.11059
#
# Poissons Ratio (x) = 0.34157 0.28991
# Poissons Ratio (y) = 0.37451 0.25295
# Poissons Ratio (z) = 0.41272 0.32843
#
# Static dielectric constant tensor:
#      x y z
#    x 4.020750 0.000000 0.000000 
#    y 0.000000 3.584920 0.000000 
#    z 0.000000 0.000000 3.184420 
# 
# 
# High freq. dielectric constant tensor:
#      x y z
#    x 1.778650 0.000000 0.000000 
#    y 0.000000 1.758110 0.000000 
#    z 0.000000 0.000000 1.707150 
# 
# From -- ./inp_files/39165.got.cif
#   From: 2010.03.12/outbox.cif.g09.slc.cpg/sg64_20_cif.got.tgz:39165.got - 2010.04.10 20:19:32.
