data_PCOD8264153
_publ_section_title
;
Structure prediction by ZEFSAII (Michael W. Deem and Ramdas Pophale) SiO2 
 PCOD8264153
Probable space group: C M C A
;
_chemical_formula_sum "Si O2"
_cell_formula_units_Z 104
_cell_length_a 22.575194
_cell_length_b 24.371439
_cell_length_c 9.163526
_cell_angle_alpha 90.000000
_cell_angle_beta 90.000000
_cell_angle_gamma 90.000000
_cell_volume 5041.680035
_symmetry_space_group_name_H-M "C M C A"
_symmetry_group_IT_number 64
_symmetry_cell_setting 'orthorhombic'
loop_
_space_group_symop_operation_xyz
x,y,z
-x,1/2-y,1/2+z
x,-y,-z
-x,1/2+y,1/2-z
-x,-y,-z
x,1/2+y,1/2-z
-x,y,z
x,1/2-y,1/2+z
1/2+x,1/2+y,z
1/2-x,-y,1/2+z
1/2+x,1/2-y,-z
1/2-x,y,1/2-z
1/2-x,1/2-y,-z
1/2+x,y,1/2-z
1/2-x,1/2+y,z
1/2+x,-y,1/2+z
loop_
_atom_site_type_symbol
_atom_site_label
_atom_site_fract_x
_atom_site_fract_y
_atom_site_fract_z
Si Si1 0.000000 0.642795 0.219543
Si Si2 0.113705 0.414670 0.279909
Si Si3 0.000000 0.746402 0.877988
Si Si4 0.810807 0.483923 0.665247
Si Si5 0.181120 0.691819 0.776496
Si Si6 0.386606 0.383838 0.894040
Si Si7 0.374204 0.233058 0.493798
Si Si8 0.500000 0.875729 0.124190
O O1 0.942902 0.614276 0.289205
O O2 0.000000 0.708095 0.250693
O O3 0.000000 0.631507 0.048768
O O4 0.141426 0.474935 0.262840
O O5 0.164391 0.371928 0.230972
O O6 0.093113 0.404525 0.446099
O O7 0.057305 0.409426 0.174866
O O8 0.943463 0.753219 0.983045
O O9 0.000000 0.685602 0.805190
O O10 0.797222 0.500000 0.500000
O O11 0.750000 0.486262 0.750000
O O12 0.836489 0.422600 0.674365
O O13 0.250000 0.698780 0.750000
O O14 0.165045 0.716802 0.933465
O O15 0.141789 0.726844 0.663104
O O16 0.358931 0.323023 0.907116
#
# Coordination Sequence:
#
# PCOD8264153 Si02
#       8
#     8  16   8  16  16  16  16   8
#     4  10  23  37  60  92 123 156 201 256 307 368
#     4  10  22  40  61  89 120 162 207 250 311 373
#     4  10  22  36  58  88 124 158 200 248 314 366
#     4  10  22  42  66  89 119 164 210 255 305 366
#     4  11  22  37  56  84 121 158 198 250 301 365
#     4   9  21  40  60  86 123 161 199 250 312 368
#     4  10  22  36  59  86 119 157 201 248 303 369
#     4  12  23  37  64  92 121 162 205 258 311 368
#
# _framework density 20.628043000000002
#
# number of rings (size 3 to 8) (size 9 to 14) (size 15 to 20)
#    0.000    1.846    1.538    1.385    4.308    5.538 
#    0.000    4.615    0.000    0.000    0.000    0.000 
#    0.000    0.000    0.000    0.000    0.000    0.000 
#
# Total GULP energy -645006.532371 kJ/mol
# GULP energy per Si atom -12403.971776 kJ/mol
# Density = 2.058109 g / cm^3
# Si number density = 20.628043 Si / 1000 Ang^3
#
#
#
# Elastic Constant Matrix: (Units=GPa)
#
#
# Indices 1 2 3 4 5 6 
#
# 1 125.4554 30.2782 28.5429 0.0000 0.0000 0.0000
# 2 30.2782 90.0729 13.3309 0.0000 0.0000 0.0000
# 3 28.5429 13.3309 63.0668 0.0000 0.0000 0.0000
# 4 0.0000 0.0000 0.0000 24.3683 0.0000 0.0000
# 5 0.0000 0.0000 0.0000 0.0000 34.2305 0.0000
# 6 0.0000 0.0000 0.0000 0.0000 0.0000 235.6170
#
#
#
# Elastic Compliance Matrix: (Units=1/GPa)
#
#
# Indices 1 2 3 4 5 6 
#
# 1 0.009452 -0.002626 -0.003723 0.000000 0.000000 0.000000
# 2 -0.002626 0.012190 -0.001388 0.000000 0.000000 0.000000
# 3 -0.003723 -0.001388 0.017834 0.000000 0.000000 0.000000
# 4 0.000000 0.000000 0.000000 0.041037 0.000000 0.000000
# 5 0.000000 0.000000 0.000000 0.000000 0.029214 0.000000
# 6 0.000000 0.000000 0.000000 0.000000 0.000000 0.004244
#
#
# Mechanical properties :
#
#
# Convention : Reuss Voigt Hill
#
# Bulk Modulus (GPa) = 41.66227 46.98877 44.32552
# Shear Modulus (GPa) = 36.37789 72.60604 54.49197
#
# Velocity S-wave (km/s) = 4.20398 5.93920 5.14527
# Velocity P-wave (km/s) = 6.61856 8.35827 7.53877
#
# Compressibility (1/GPa) = 0.02400253
#
# Stress axis : x y z
#
# Youngs Moduli (GPa) = 105.80077 82.03174 56.07146
#
# Poissons Ratio (x) = 0.21544 0.20873
# Poissons Ratio (y) = 0.27786 0.07784
# Poissons Ratio (z) = 0.39385 0.11387
#
# Static dielectric constant tensor:
#      x y z
#    x 3.647880 0.000000 0.000000 
#    y 0.000000 3.912930 0.000000 
#    z 0.000000 0.000000 3.590010 
# 
# 
# High freq. dielectric constant tensor:
#      x y z
#    x 1.808920 0.000000 0.000000 
#    y 0.000000 1.806670 0.000000 
#    z 0.000000 0.000000 1.800040 
# 
# From -- ./inp_files/8581.got.cif
#   From: 2010.03.12/outbox.cif.g09.slc.cpg/sg64_5_cif.got.tgz:8581.got - 2010.04.10 20:19:32.
