data_PCOD8264850
_publ_section_title
;
Structure prediction by ZEFSAII (Michael W. Deem and Ramdas Pophale) SiO2 
 PCOD8264850
Probable space group: C M C A
;
_chemical_formula_sum "Si O2"
_cell_formula_units_Z 80
_cell_length_a 8.676487
_cell_length_b 24.609582
_cell_length_c 18.268737
_cell_angle_alpha 90.000000
_cell_angle_beta 90.000000
_cell_angle_gamma 90.000000
_cell_volume 3900.826922
_symmetry_space_group_name_H-M "C M C A"
_symmetry_group_IT_number 64
_symmetry_cell_setting 'orthorhombic'
loop_
_space_group_symop_operation_xyz
x,y,z
-x,1/2-y,1/2+z
x,-y,-z
-x,1/2+y,1/2-z
-x,-y,-z
x,1/2+y,1/2-z
-x,y,z
x,1/2-y,1/2+z
1/2+x,1/2+y,z
1/2-x,-y,1/2+z
1/2+x,1/2-y,-z
1/2-x,y,1/2-z
1/2-x,1/2-y,-z
1/2+x,y,1/2-z
1/2-x,1/2+y,z
1/2+x,-y,1/2+z
loop_
_atom_site_type_symbol
_atom_site_label
_atom_site_fract_x
_atom_site_fract_y
_atom_site_fract_z
Si Si1 0.679690 0.729684 0.424569
Si Si2 0.819288 0.681932 0.828085
Si Si3 0.679590 0.603897 0.427429
Si Si4 0.819744 0.018074 0.172497
Si Si5 0.178310 0.912188 0.079725
O O1 0.500000 0.742114 0.426870
O O2 0.750000 0.750000 0.500000
O O3 0.752792 0.760962 0.355986
O O4 0.716332 0.666697 0.413010
O O5 0.750000 0.666043 0.750000
O O6 0.781413 0.635091 0.885949
O O7 0.000000 0.687565 0.820040
O O8 0.500000 0.594324 0.443251
O O9 0.732934 0.571648 0.355689
O O10 0.778505 0.581518 0.495097
O O11 0.750000 0.001141 0.250000
O O12 0.000000 0.030216 0.179749
O O13 0.784921 0.968990 0.117692
O O14 0.000000 0.896081 0.088335
#
# Coordination Sequence:
#
# PCOD8264850 Si02
#       5
#    16  16  16  16  16
#     4  11  23  41  65  94 127 167 211 259 315 377
#     4  12  25  41  64  95 129 169 213 264 323 380
#     4  11  24  41  66  96 127 167 213 260 316 380
#     4  11  25  43  64  92 127 169 212 262 321 379
#     4  11  23  41  66  95 128 166 212 264 318 380
#
# _framework density 20.508472999999999
#
# number of rings (size 3 to 8) (size 9 to 14) (size 15 to 20)
#    0.000    0.800    2.000    5.400    0.000   10.400 
#    0.000    0.000    0.000    0.000    0.000    0.000 
#    0.000    0.000    0.000    0.000    0.000    0.000 
#
# Total GULP energy -496379.132243 kJ/mol
# GULP energy per Si atom -12409.478306 kJ/mol
# Density = 2.046179 g / cm^3
# Si number density = 20.508473 Si / 1000 Ang^3
#
#
#
# Elastic Constant Matrix: (Units=GPa)
#
#
# Indices 1 2 3 4 5 6 
#
# 1 118.0129 58.9253 21.6221 0.0000 0.0000 0.0000
# 2 58.9253 108.2634 20.1156 0.0000 0.0000 0.0000
# 3 21.6221 20.1156 67.5089 0.0000 0.0000 0.0000
# 4 0.0000 0.0000 0.0000 17.4843 0.0000 0.0000
# 5 0.0000 0.0000 0.0000 0.0000 41.4231 0.0000
# 6 0.0000 0.0000 0.0000 0.0000 0.0000 29.8607
#
#
#
# Elastic Compliance Matrix: (Units=1/GPa)
#
#
# Indices 1 2 3 4 5 6 
#
# 1 0.011883 -0.006098 -0.001989 0.000000 0.000000 0.000000
# 2 -0.006098 0.012907 -0.001893 0.000000 0.000000 0.000000
# 3 -0.001989 -0.001893 0.016014 0.000000 0.000000 0.000000
# 4 0.000000 0.000000 0.000000 0.057194 0.000000 0.000000
# 5 0.000000 0.000000 0.000000 0.000000 0.024141 0.000000
# 6 0.000000 0.000000 0.000000 0.000000 0.000000 0.033489
#
#
# Mechanical properties :
#
#
# Convention : Reuss Voigt Hill
#
# Bulk Modulus (GPa) = 47.97414 55.01237 51.49325
# Shear Modulus (GPa) = 27.39183 30.62843 29.01013
#
# Velocity S-wave (km/s) = 3.65860 3.86871 3.76512
# Velocity P-wave (km/s) = 6.42575 6.84386 6.63810
#
# Compressibility (1/GPa) = 0.02084457
#
# Stress axis : x y z
#
# Youngs Moduli (GPa) = 84.15463 77.47452 62.44572
#
# Poissons Ratio (x) = 0.47244 0.12420
# Poissons Ratio (y) = 0.51318 0.11820
# Poissons Ratio (z) = 0.16737 0.14665
#
# Static dielectric constant tensor:
#      x y z
#    x 3.870620 0.000000 0.000000 
#    y 0.000000 3.840970 0.000000 
#    z 0.000000 0.000000 3.726440 
# 
# 
# High freq. dielectric constant tensor:
#      x y z
#    x 1.818090 0.000000 0.000000 
#    y 0.000000 1.813360 0.000000 
#    z 0.000000 0.000000 1.807140 
# 
# From -- ./inp_files/29720.got.cif
#   From: 2010.03.12/outbox.cif.g09.slc.cpg/sg64_15_cif.got.tgz:29720.got - 2010.04.10 20:19:32.
