data_PCOD8264261
_publ_section_title
;
Structure prediction by ZEFSAII (Michael W. Deem and Ramdas Pophale) SiO2 
 PCOD8264261
Probable space group: C M C A
;
_chemical_formula_sum "Si O2"
_cell_formula_units_Z 72
_cell_length_a 23.172895
_cell_length_b 33.425780
_cell_length_c 5.080844
_cell_angle_alpha 90.000000
_cell_angle_beta 90.000000
_cell_angle_gamma 90.000000
_cell_volume 3935.479957
_symmetry_space_group_name_H-M "C M C A"
_symmetry_group_IT_number 64
_symmetry_cell_setting 'orthorhombic'
loop_
_space_group_symop_operation_xyz
x,y,z
-x,1/2-y,1/2+z
x,-y,-z
-x,1/2+y,1/2-z
-x,-y,-z
x,1/2+y,1/2-z
-x,y,z
x,1/2-y,1/2+z
1/2+x,1/2+y,z
1/2-x,-y,1/2+z
1/2+x,1/2-y,-z
1/2-x,y,1/2-z
1/2-x,1/2-y,-z
1/2+x,y,1/2-z
1/2-x,1/2+y,z
1/2+x,-y,1/2+z
loop_
_atom_site_type_symbol
_atom_site_label
_atom_site_fract_x
_atom_site_fract_y
_atom_site_fract_z
Si Si1 0.566090 0.137289 0.110616
Si Si2 0.288268 0.546093 0.998381
Si Si3 0.403992 0.590079 0.876304
Si Si4 0.500000 0.027906 0.746501
Si Si5 0.568730 0.226504 0.198288
O O1 0.500000 0.139303 0.009457
O O2 0.566426 0.111270 0.375768
O O3 0.591360 0.181180 0.173254
O O4 0.604488 0.119988 0.870792
O O5 0.250000 0.555990 0.750000
O O6 0.343907 0.573836 0.985546
O O7 0.308405 0.500000 0.000000
O O8 0.250000 0.557017 0.250000
O O9 0.442840 0.554640 0.758553
O O10 0.500000 0.000000 0.500000
O O11 0.500000 0.000000 0.000000
O O12 0.500000 0.226146 0.199792
O O13 0.593022 0.246161 0.463333
#
# Coordination Sequence:
#
# PCOD8264261 Si02
#       5
#    16  16  16   8  16
#     4  11  20  34  52  79 117 149 177 216 277 327
#     4  10  22  40  59  77 101 140 189 241 284 314
#     4  12  22  37  55  80 112 145 183 227 276 333
#     4  12  24  36  52  78 112 150 184 216 268 342
#     4   9  17  29  47  72 105 148 184 210 247 319
#
# _framework density 18.295100000000001
#
# number of rings (size 3 to 8) (size 9 to 14) (size 15 to 20)
#    0.000    1.333    2.222    4.667    0.000    6.222 
#    0.000    0.000    0.000    0.000    0.000    0.000 
#    0.000   62.222    0.000    0.000    0.000    0.000 
#
# Total GULP energy -446462.749524 kJ/mol
# GULP energy per Si atom -12401.743042 kJ/mol
# Density = 1.825346 g / cm^3
# Si number density = 18.295100 Si / 1000 Ang^3
#
#
#
# Elastic Constant Matrix: (Units=GPa)
#
#
# Indices 1 2 3 4 5 6 
#
# 1 64.0713 36.5638 21.3464 0.0000 0.0000 0.0000
# 2 36.5638 100.4000 34.9912 0.0000 0.0000 0.0000
# 3 21.3464 34.9912 127.0061 0.0000 0.0000 0.0000
# 4 0.0000 0.0000 0.0000 41.0843 0.0000 0.0000
# 5 0.0000 0.0000 0.0000 0.0000 -244.5315 0.0000
# 6 0.0000 0.0000 0.0000 0.0000 0.0000 13.6063
#
#
#
# Elastic Compliance Matrix: (Units=1/GPa)
#
#
# Indices 1 2 3 4 5 6 
#
# 1 0.019956 -0.006746 -0.001495 0.000000 0.000000 0.000000
# 2 -0.006746 0.013299 -0.002530 0.000000 0.000000 0.000000
# 3 -0.001495 -0.002530 0.008822 0.000000 0.000000 0.000000
# 4 0.000000 0.000000 0.000000 0.024340 0.000000 0.000000
# 5 0.000000 0.000000 0.000000 0.000000 -0.004089 0.000000
# 6 0.000000 0.000000 0.000000 0.000000 0.000000 0.073495
#
#
# Mechanical properties :
#
#
# Convention : Reuss Voigt Hill
#
# Bulk Modulus (GPa) = 48.70190 53.03114 50.86652
# Shear Modulus (GPa) = 30.44871 -24.72977 2.85947
#
# Velocity S-wave (km/s) = 4.08402 -3.68056 1.25154
# Velocity P-wave (km/s) = 6.99407 3.31473 5.47286
#
# Compressibility (1/GPa) = 0.02053308
#
# Stress axis : x y z
#
# Youngs Moduli (GPa) = 50.11077 75.19465 113.35276
#
# Poissons Ratio (x) = 0.50729 0.16950
# Poissons Ratio (y) = 0.33806 0.28679
# Poissons Ratio (z) = 0.07493 0.19025
#
# Static dielectric constant tensor:
#      x y z
#    x 2.918580 0.000000 0.000000 
#    y 0.000000 3.513220 0.000000 
#    z 0.000000 0.000000 3.557520 
# 
# 
# High freq. dielectric constant tensor:
#      x y z
#    x 1.656070 0.000000 0.000000 
#    y 0.000000 1.716800 0.000000 
#    z 0.000000 0.000000 1.735570 
# 
# From -- ./inp_files/2283.got.cif
#   From: 2010.03.12/outbox.cif.g09.slc.cpg/sg64_2_cif.got.tgz:2283.got - 2010.04.10 20:19:32.
