data_PCOD8264107
_publ_section_title
;
Structure prediction by ZEFSAII (Michael W. Deem and Ramdas Pophale) SiO2 
 PCOD8264107
Probable space group: C M C A
;
_chemical_formula_sum "Si O2"
_cell_formula_units_Z 80
_cell_length_a 23.909712
_cell_length_b 10.695440
_cell_length_c 14.698533
_cell_angle_alpha 90.000000
_cell_angle_beta 90.000000
_cell_angle_gamma 90.000000
_cell_volume 3758.780736
_symmetry_space_group_name_H-M "C M C A"
_symmetry_group_IT_number 64
_symmetry_cell_setting 'orthorhombic'
loop_
_space_group_symop_operation_xyz
x,y,z
-x,1/2-y,1/2+z
x,-y,-z
-x,1/2+y,1/2-z
-x,-y,-z
x,1/2+y,1/2-z
-x,y,z
x,1/2-y,1/2+z
1/2+x,1/2+y,z
1/2-x,-y,1/2+z
1/2+x,1/2-y,-z
1/2-x,y,1/2-z
1/2-x,1/2-y,-z
1/2+x,y,1/2-z
1/2-x,1/2+y,z
1/2+x,-y,1/2+z
loop_
_atom_site_type_symbol
_atom_site_label
_atom_site_fract_x
_atom_site_fract_y
_atom_site_fract_z
Si Si1 0.437816 0.532377 0.104343
Si Si2 0.157697 0.385484 0.954002
Si Si3 0.848360 0.771680 0.871582
Si Si4 0.274720 0.010011 0.400271
Si Si5 0.854227 0.329649 0.321648
O O1 0.500000 0.538807 0.147439
O O2 0.409276 0.668065 0.112519
O O3 0.402368 0.427894 0.156276
O O4 0.442190 0.500000 0.000000
O O5 0.209200 0.463242 0.909404
O O6 0.131119 0.302296 0.873147
O O7 0.120389 0.500000 0.000000
O O8 0.174589 0.295259 0.037337
O O9 0.803252 0.877307 0.845283
O O10 0.853378 0.680073 0.786558
O O11 0.303306 0.000000 0.500000
O O12 0.292156 0.879972 0.350760
#
# Coordination Sequence:
#
# PCOD8264107 Si02
#       5
#    16  16  16  16  16
#     4  10  21  44  75  91 116 171 220 268 334 392
#     4  11  24  39  59  88 133 173 207 262 314 368
#     4  11  22  40  64  94 126 164 213 271 317 375
#     4  10  21  42  60  81 127 178 215 256 303 370
#     4  11  23  41  62  96 130 164 218 268 318 384
#
# _framework density 21.283497000000001
#
# number of rings (size 3 to 8) (size 9 to 14) (size 15 to 20)
#    0.000    1.400    4.000    1.800    8.400    1.600 
#    3.600    0.000    0.000    1.200    0.000    0.000 
#    0.000    0.000    0.000    0.000    0.000    0.000 
#
# Total GULP energy -495624.819823 kJ/mol
# GULP energy per Si atom -12390.620496 kJ/mol
# Density = 2.123506 g / cm^3
# Si number density = 21.283497 Si / 1000 Ang^3
#
#
#
# Elastic Constant Matrix: (Units=GPa)
#
#
# Indices 1 2 3 4 5 6 
#
# 1 83.9216 27.5952 22.4552 0.0000 0.0000 0.0000
# 2 27.5952 83.7267 9.3418 0.0000 0.0000 0.0000
# 3 22.4552 9.3418 89.0339 0.0000 0.0000 0.0000
# 4 0.0000 0.0000 0.0000 46.4466 0.0000 0.0000
# 5 0.0000 0.0000 0.0000 0.0000 16.2820 0.0000
# 6 0.0000 0.0000 0.0000 0.0000 0.0000 38.6285
#
#
#
# Elastic Compliance Matrix: (Units=1/GPa)
#
#
# Indices 1 2 3 4 5 6 
#
# 1 0.014172 -0.004323 -0.003121 0.000000 0.000000 0.000000
# 2 -0.004323 0.013404 -0.000316 0.000000 0.000000 0.000000
# 3 -0.003121 -0.000316 0.012052 0.000000 0.000000 0.000000
# 4 0.000000 0.000000 0.000000 0.021530 0.000000 0.000000
# 5 0.000000 0.000000 0.000000 0.000000 0.061418 0.000000
# 6 0.000000 0.000000 0.000000 0.000000 0.000000 0.025888
#
#
# Mechanical properties :
#
#
# Convention : Reuss Voigt Hill
#
# Bulk Modulus (GPa) = 41.47928 41.71852 41.59890
# Shear Modulus (GPa) = 29.06655 33.42406 31.24531
#
# Velocity S-wave (km/s) = 3.69953 3.96715 3.83567
# Velocity P-wave (km/s) = 6.14654 6.37403 6.26132
#
# Compressibility (1/GPa) = 0.02410842
#
# Stress axis : x y z
#
# Youngs Moduli (GPa) = 70.55977 74.60666 82.97411
#
# Poissons Ratio (x) = 0.32251 0.25895
# Poissons Ratio (y) = 0.30502 0.02623
# Poissons Ratio (z) = 0.22021 0.02358
#
# Static dielectric constant tensor:
#      x y z
#    x 3.718090 0.000000 0.000000 
#    y 0.000000 4.283460 0.000000 
#    z 0.000000 0.000000 3.604520 
# 
# 
# High freq. dielectric constant tensor:
#      x y z
#    x 1.784010 0.000000 0.000000 
#    y 0.000000 1.852540 0.000000 
#    z 0.000000 0.000000 1.836940 
# 
# From -- ./inp_files/27059.got.cif
#   From: 2010.03.12/outbox.cif.g09.slc.cpg/sg64_14_cif.got.tgz:27059.got - 2010.04.10 20:19:32.
