data_PCOD8264271
_publ_section_title
;
Structure prediction by ZEFSAII (Michael W. Deem and Ramdas Pophale) SiO2 
 PCOD8264271
Probable space group: C M C A
;
_chemical_formula_sum "Si O2"
_cell_formula_units_Z 64
_cell_length_a 8.979176
_cell_length_b 9.897031
_cell_length_c 34.932744
_cell_angle_alpha 90.000000
_cell_angle_beta 90.000000
_cell_angle_gamma 90.000000
_cell_volume 3104.374562
_symmetry_space_group_name_H-M "C M C A"
_symmetry_group_IT_number 64
_symmetry_cell_setting 'orthorhombic'
loop_
_space_group_symop_operation_xyz
x,y,z
-x,1/2-y,1/2+z
x,-y,-z
-x,1/2+y,1/2-z
-x,-y,-z
x,1/2+y,1/2-z
-x,y,z
x,1/2-y,1/2+z
1/2+x,1/2+y,z
1/2-x,-y,1/2+z
1/2+x,1/2-y,-z
1/2-x,y,1/2-z
1/2-x,1/2-y,-z
1/2+x,y,1/2-z
1/2-x,1/2+y,z
1/2+x,-y,1/2+z
loop_
_atom_site_type_symbol
_atom_site_label
_atom_site_fract_x
_atom_site_fract_y
_atom_site_fract_z
Si Si1 0.171086 0.485033 0.043277
Si Si2 0.328163 0.961612 0.711133
Si Si3 0.828907 0.784081 0.912627
Si Si4 0.328182 0.230227 0.666314
O O1 0.190315 0.329597 0.055044
O O2 0.270711 0.575195 0.071016
O O3 0.000000 0.532729 0.046715
O O4 0.229104 0.500000 0.000000
O O5 0.500000 0.933933 0.720031
O O6 0.250000 0.009422 0.750000
O O7 0.306966 0.076011 0.679144
O O8 0.256351 0.824202 0.696251
O O9 0.736922 0.741802 0.875772
O O10 0.000000 0.802607 0.900405
O O11 0.500000 0.273505 0.665732
#
# Coordination Sequence:
#
# PCOD8264271 Si02
#       4
#    16  16  16  16
#     4  10  22  40  61  87 120 157 197 243 296 353
#     4  11  24  41  63  91 121 156 198 243 294 351
#     4  11  23  38  60  89 119 155 199 245 294 350
#     4  11  24  41  62  88 120 158 198 243 294 349
#
# _framework density 20.616067999999999
#
# number of rings (size 3 to 8) (size 9 to 14) (size 15 to 20)
#    0.000    1.250    0.000    5.250    0.000   12.500 
#    0.000    0.000    0.000    0.000    0.000    0.000 
#    0.000    0.000    0.000    0.000    0.000    0.000 
#
# Total GULP energy -397081.772901 kJ/mol
# GULP energy per Si atom -12408.805403 kJ/mol
# Density = 2.056914 g / cm^3
# Si number density = 20.616068 Si / 1000 Ang^3
#
#
#
# Elastic Constant Matrix: (Units=GPa)
#
#
# Indices 1 2 3 4 5 6 
#
# 1 122.3425 37.5786 35.8011 0.0000 0.0000 0.0000
# 2 37.5786 61.1343 -1.8752 0.0000 0.0000 0.0000
# 3 35.8011 -1.8752 96.1402 0.0000 0.0000 0.0000
# 4 0.0000 0.0000 0.0000 38.3202 0.0000 0.0000
# 5 0.0000 0.0000 0.0000 0.0000 37.0349 0.0000
# 6 0.0000 0.0000 0.0000 0.0000 0.0000 32.2162
#
#
#
# Elastic Compliance Matrix: (Units=1/GPa)
#
#
# Indices 1 2 3 4 5 6 
#
# 1 0.011760 -0.007368 -0.004523 0.000000 0.000000 0.000000
# 2 -0.007368 0.020983 0.003153 0.000000 0.000000 0.000000
# 3 -0.004523 0.003153 0.012147 0.000000 0.000000 0.000000
# 4 0.000000 0.000000 0.000000 0.026096 0.000000 0.000000
# 5 0.000000 0.000000 0.000000 0.000000 0.027002 0.000000
# 6 0.000000 0.000000 0.000000 0.000000 0.000000 0.031040
#
#
# Mechanical properties :
#
#
# Convention : Reuss Voigt Hill
#
# Bulk Modulus (GPa) = 36.47658 46.95845 41.71751
# Shear Modulus (GPa) = 32.12485 35.38843 33.75664
#
# Velocity S-wave (km/s) = 3.95174 4.14762 4.05086
# Velocity P-wave (km/s) = 6.20914 6.76491 6.49297
#
# Compressibility (1/GPa) = 0.02741485
#
# Stress axis : x y z
#
# Youngs Moduli (GPa) = 85.03070 47.65756 82.32274
#
# Poissons Ratio (x) = 0.35113 0.37236
# Poissons Ratio (y) = 0.62649 -0.25956
# Poissons Ratio (z) = 0.38460 -0.15026
#
# Static dielectric constant tensor:
#      x y z
#    x 3.900150 0.000000 0.000000 
#    y 0.000000 3.703590 0.000000 
#    z 0.000000 0.000000 3.857930 
# 
# 
# High freq. dielectric constant tensor:
#      x y z
#    x 1.817300 0.000000 0.000000 
#    y 0.000000 1.813680 0.000000 
#    z 0.000000 0.000000 1.819710 
# 
# From -- ./inp_files/51543.got.cif
#   From: 2010.03.12/outbox.cif.g09.slc.cpg/sg64_26_cif.got.tgz:51543.got - 2010.04.10 20:19:32.
