data_PCOD8264743
_publ_section_title
;
Structure prediction by ZEFSAII (Michael W. Deem and Ramdas Pophale) SiO2 
 PCOD8264743
Probable space group: C M C A
;
_chemical_formula_sum "Si O2"
_cell_formula_units_Z 96
_cell_length_a 14.708971
_cell_length_b 20.433886
_cell_length_c 13.999241
_cell_angle_alpha 90.000000
_cell_angle_beta 90.000000
_cell_angle_gamma 90.000000
_cell_volume 4207.631986
_symmetry_space_group_name_H-M "C M C A"
_symmetry_group_IT_number 64
_symmetry_cell_setting 'orthorhombic'
loop_
_space_group_symop_operation_xyz
x,y,z
-x,1/2-y,1/2+z
x,-y,-z
-x,1/2+y,1/2-z
-x,-y,-z
x,1/2+y,1/2-z
-x,y,z
x,1/2-y,1/2+z
1/2+x,1/2+y,z
1/2-x,-y,1/2+z
1/2+x,1/2-y,-z
1/2-x,y,1/2-z
1/2-x,1/2-y,-z
1/2+x,y,1/2-z
1/2-x,1/2+y,z
1/2+x,-y,1/2+z
loop_
_atom_site_type_symbol
_atom_site_label
_atom_site_fract_x
_atom_site_fract_y
_atom_site_fract_z
Si Si1 0.098278 0.940461 0.431132
Si Si2 0.398175 0.181760 0.174992
Si Si3 0.146056 0.458239 0.275006
Si Si4 0.173502 0.184002 0.829067
Si Si5 0.243862 0.649388 0.012234
Si Si6 0.103437 0.594070 0.356717
O O1 0.089658 0.963713 0.322434
O O2 0.184635 0.894103 0.439658
O O3 0.000000 0.908626 0.458765
O O4 0.118918 0.000000 0.500000
O O5 0.500000 0.162271 0.142010
O O6 0.397371 0.259070 0.200729
O O7 0.325063 0.174782 0.091419
O O8 0.368433 0.136228 0.263280
O O9 0.250000 0.470781 0.250000
O O10 0.127778 0.388288 0.327066
O O11 0.110453 0.516431 0.341649
O O12 0.250000 0.186129 0.750000
O O13 0.213268 0.200745 0.936012
O O14 0.328257 0.611779 0.058696
O O15 0.000000 0.612137 0.386091
#
# Coordination Sequence:
#
# PCOD8264743 Si02
#       6
#    16  16  16  16  16  16
#     4  11  22  37  65 101 135 176 230 284 333 398
#     4  11  25  45  70 102 135 180 232 287 344 408
#     4  11  21  42  68  99 138 183 225 277 349 408
#     4  11  24  44  66  98 138 186 228 278 345 405
#     4  12  23  43  71  96 138 179 234 275 345 410
#     4  11  25  44  70 100 137 182 230 283 346 415
#
# _framework density 22.815684000000001
#
# number of rings (size 3 to 8) (size 9 to 14) (size 15 to 20)
#    0.000    0.833    3.333    6.000    0.000    4.667 
#    0.000    2.500    0.000    0.000    0.000    0.000 
#    0.000    0.000    0.000    0.000    0.000    0.000 
#
# Total GULP energy -594940.038847 kJ/mol
# GULP energy per Si atom -12394.584143 kJ/mol
# Density = 2.276375 g / cm^3
# Si number density = 22.815684 Si / 1000 Ang^3
#
#
#
# Elastic Constant Matrix: (Units=GPa)
#
#
# Indices 1 2 3 4 5 6 
#
# 1 96.9856 25.3195 20.3869 0.0000 0.0000 0.0000
# 2 25.3195 81.5501 10.8137 0.0000 0.0000 0.0000
# 3 20.3869 10.8137 81.6321 0.0000 0.0000 0.0000
# 4 0.0000 0.0000 0.0000 26.2169 0.0000 0.0000
# 5 0.0000 0.0000 0.0000 0.0000 227.2651 0.0000
# 6 0.0000 0.0000 0.0000 0.0000 0.0000 29.1286
#
#
#
# Elastic Compliance Matrix: (Units=1/GPa)
#
#
# Indices 1 2 3 4 5 6 
#
# 1 0.011695 -0.003302 -0.002483 0.000000 0.000000 0.000000
# 2 -0.003302 0.013414 -0.000952 0.000000 0.000000 0.000000
# 3 -0.002483 -0.000952 0.012996 0.000000 0.000000 0.000000
# 4 0.000000 0.000000 0.000000 0.038143 0.000000 0.000000
# 5 0.000000 0.000000 0.000000 0.000000 0.004400 0.000000
# 6 0.000000 0.000000 0.000000 0.000000 0.000000 0.034330
#
#
# Mechanical properties :
#
#
# Convention : Reuss Voigt Hill
#
# Bulk Modulus (GPa) = 40.60034 41.46756 41.03395
# Shear Modulus (GPa) = 36.58619 70.09865 53.34242
#
# Velocity S-wave (km/s) = 4.00878 5.54893 4.84050
# Velocity P-wave (km/s) = 6.26584 7.69861 7.01888
#
# Compressibility (1/GPa) = 0.02463034
#
# Stress axis : x y z
#
# Youngs Moduli (GPa) = 85.50835 74.55017 76.94433
#
# Poissons Ratio (x) = 0.24614 0.19108
# Poissons Ratio (y) = 0.28232 0.07328
# Poissons Ratio (z) = 0.21234 0.07100
#
# Static dielectric constant tensor:
#      x y z
#    x 4.187110 0.000000 0.000000 
#    y 0.000000 5.085950 0.000000 
#    z 0.000000 0.000000 4.040370 
# 
# 
# High freq. dielectric constant tensor:
#      x y z
#    x 1.908340 0.000000 0.000000 
#    y 0.000000 1.897260 0.000000 
#    z 0.000000 0.000000 1.902840 
# 
# From -- ./inp_files/23941.got.cif
#   From: 2010.03.12/outbox.cif.g09.slc.cpg/sg64_12_cif.got.tgz:23941.got - 2010.04.10 20:19:32.
