data_PCOD8264618
_publ_section_title
;
Structure prediction by ZEFSAII (Michael W. Deem and Ramdas Pophale) SiO2 
 PCOD8264618
Probable space group: C M C A
;
_chemical_formula_sum "Si O2"
_cell_formula_units_Z 56
_cell_length_a 16.089070
_cell_length_b 17.109966
_cell_length_c 9.200720
_cell_angle_alpha 90.000000
_cell_angle_beta 90.000000
_cell_angle_gamma 90.000000
_cell_volume 2532.805858
_symmetry_space_group_name_H-M "C M C A"
_symmetry_group_IT_number 64
_symmetry_cell_setting 'orthorhombic'
loop_
_space_group_symop_operation_xyz
x,y,z
-x,1/2-y,1/2+z
x,-y,-z
-x,1/2+y,1/2-z
-x,-y,-z
x,1/2+y,1/2-z
-x,y,z
x,1/2-y,1/2+z
1/2+x,1/2+y,z
1/2-x,-y,1/2+z
1/2+x,1/2-y,-z
1/2-x,y,1/2-z
1/2-x,1/2-y,-z
1/2+x,y,1/2-z
1/2-x,1/2+y,z
1/2+x,-y,1/2+z
loop_
_atom_site_type_symbol
_atom_site_label
_atom_site_fract_x
_atom_site_fract_y
_atom_site_fract_z
Si Si1 0.092456 0.968511 0.661249
Si Si2 0.814258 0.690668 0.562272
Si Si3 0.250000 0.560517 0.750000
Si Si4 0.094303 0.300965 0.728577
O O1 0.106447 0.875163 0.665158
O O2 0.000000 0.987483 0.727403
O O3 0.095993 0.000000 0.500000
O O4 0.166845 0.008941 0.747555
O O5 0.750000 0.750000 0.500000
O O6 0.764326 0.612658 0.606202
O O7 0.855529 0.727318 0.707289
O O8 0.879792 0.673858 0.434286
O O9 0.000000 0.272975 0.721199
#
# Coordination Sequence:
#
# PCOD8264618 Si02
#       4
#    16  16   8  16
#     4  10  25  45  68 100 137 181 224 273 346 413
#     4  12  24  44  66 104 133 176 233 275 345 405
#     4  12  26  40  74  98 138 176 222 294 334 408
#     4  11  25  45  70  98 139 180 228 286 338 412
#
# _framework density 22.109866
#
# number of rings (size 3 to 8) (size 9 to 14) (size 15 to 20)
#    0.000    0.857    2.857    2.571    8.000    2.286 
#    0.000    2.857    0.000    0.000    0.000    0.000 
#    0.000    0.000    0.000    0.000    0.000    0.000 
#
# Total GULP energy -347183.375631 kJ/mol
# GULP energy per Si atom -12399.406273 kJ/mol
# Density = 2.205954 g / cm^3
# Si number density = 22.109866 Si / 1000 Ang^3
#
#
#
# Elastic Constant Matrix: (Units=GPa)
#
#
# Indices 1 2 3 4 5 6 
#
# 1 147.0481 38.5581 13.5386 0.0000 0.0000 0.0000
# 2 38.5581 61.0476 -0.8333 0.0000 0.0000 0.0000
# 3 13.5386 -0.8333 75.3685 0.0000 0.0000 0.0000
# 4 0.0000 0.0000 0.0000 31.6653 0.0000 0.0000
# 5 0.0000 0.0000 0.0000 0.0000 38.0139 0.0000
# 6 0.0000 0.0000 0.0000 0.0000 0.0000 38.9007
#
#
#
# Elastic Compliance Matrix: (Units=1/GPa)
#
#
# Indices 1 2 3 4 5 6 
#
# 1 0.008329 -0.005282 -0.001554 0.000000 0.000000 0.000000
# 2 -0.005282 0.019732 0.001167 0.000000 0.000000 0.000000
# 3 -0.001554 0.001167 0.013560 0.000000 0.000000 0.000000
# 4 0.000000 0.000000 0.000000 0.031580 0.000000 0.000000
# 5 0.000000 0.000000 0.000000 0.000000 0.026306 0.000000
# 6 0.000000 0.000000 0.000000 0.000000 0.000000 0.025706
#
#
# Mechanical properties :
#
#
# Convention : Reuss Voigt Hill
#
# Bulk Modulus (GPa) = 33.02182 42.88788 37.95485
# Shear Modulus (GPa) = 34.09552 37.19602 35.64577
#
# Velocity S-wave (km/s) = 3.93121 4.10607 4.01959
# Velocity P-wave (km/s) = 5.96437 6.47452 6.22467
#
# Compressibility (1/GPa) = 0.03028300
#
# Stress axis : x y z
#
# Youngs Moduli (GPa) = 120.06944 50.67793 73.74478
#
# Poissons Ratio (x) = 0.26766 0.11463
# Poissons Ratio (y) = 0.63415 -0.08605
# Poissons Ratio (z) = 0.18664 -0.05914
#
# Static dielectric constant tensor:
#      x y z
#    x 4.470720 0.000000 0.000000 
#    y 0.000000 4.122460 0.000000 
#    z 0.000000 0.000000 4.502390 
# 
# 
# High freq. dielectric constant tensor:
#      x y z
#    x 1.893370 0.000000 0.000000 
#    y 0.000000 1.868410 0.000000 
#    z 0.000000 0.000000 1.862270 
# 
# From -- ./inp_files/6376.got.cif
#   From: 2010.03.12/outbox.cif.g09.slc.cpg/sg64_4_cif.got.tgz:6376.got - 2010.04.10 20:19:32.
