data_PCOD8264697
_publ_section_title
;
Structure prediction by ZEFSAII (Michael W. Deem and Ramdas Pophale) SiO2 
 PCOD8264697
Probable space group: C M C A
;
_chemical_formula_sum "Si O2"
_cell_formula_units_Z 80
_cell_length_a 8.925014
_cell_length_b 25.635015
_cell_length_c 18.303534
_cell_angle_alpha 90.000000
_cell_angle_beta 90.000000
_cell_angle_gamma 90.000000
_cell_volume 4187.718034
_symmetry_space_group_name_H-M "C M C A"
_symmetry_group_IT_number 64
_symmetry_cell_setting 'orthorhombic'
loop_
_space_group_symop_operation_xyz
x,y,z
-x,1/2-y,1/2+z
x,-y,-z
-x,1/2+y,1/2-z
-x,-y,-z
x,1/2+y,1/2-z
-x,y,z
x,1/2-y,1/2+z
1/2+x,1/2+y,z
1/2-x,-y,1/2+z
1/2+x,1/2-y,-z
1/2-x,y,1/2-z
1/2-x,1/2-y,-z
1/2+x,y,1/2-z
1/2-x,1/2+y,z
1/2+x,-y,1/2+z
loop_
_atom_site_type_symbol
_atom_site_label
_atom_site_fract_x
_atom_site_fract_y
_atom_site_fract_z
Si Si1 0.676181 0.914160 0.938318
Si Si2 0.822449 0.904159 0.092324
Si Si3 0.665937 0.298292 0.411159
Si Si4 0.176946 0.004093 0.674855
Si Si5 0.334774 0.199028 0.084548
O O1 0.500000 0.912547 0.958273
O O2 0.717827 0.961190 0.885568
O O3 0.723311 0.859723 0.898767
O O4 0.766149 0.922071 0.012917
O O5 0.773238 0.845485 0.112631
O O6 0.000000 0.908151 0.095367
O O7 0.750066 0.941264 0.152819
O O8 0.500000 0.307177 0.378617
O O9 0.658794 0.294953 0.497825
O O10 0.728255 0.243110 0.380356
O O11 0.250000 0.984865 0.750000
O O12 0.000000 0.010723 0.683863
O O13 0.500000 0.207212 0.117945
#
# Coordination Sequence:
#
# PCOD8264697 Si02
#       5
#    16  16  16  16  16
#     4   9  19  35  55  78 106 139 172 212 260 309
#     4  11  21  33  53  80 107 137 175 217 258 305
#     4   9  16  27  45  72 105 137 168 207 256 305
#     4  11  23  39  56  75 103 138 175 215 262 312
#     4   8  14  26  45  72 103 133 167 206 252 305
#
# _framework density 19.103484000000002
#
# number of rings (size 3 to 8) (size 9 to 14) (size 15 to 20)
#    0.000    2.400    0.000    4.800    0.000    8.800 
#    0.000    0.000    0.000    1.200    0.000    5.600 
#    0.000    0.000    0.000    0.000    0.000    0.000 
#
# Total GULP energy -495934.753850 kJ/mol
# GULP energy per Si atom -12398.368846 kJ/mol
# Density = 1.906000 g / cm^3
# Si number density = 19.103484 Si / 1000 Ang^3
#
#
#
# Elastic Constant Matrix: (Units=GPa)
#
#
# Indices 1 2 3 4 5 6 
#
# 1 111.1973 40.4086 26.4736 0.0000 0.0000 0.0000
# 2 40.4086 104.6273 17.8638 0.0000 0.0000 0.0000
# 3 26.4736 17.8638 30.6854 0.0000 0.0000 0.0000
# 4 0.0000 0.0000 0.0000 3.3304 0.0000 0.0000
# 5 0.0000 0.0000 0.0000 0.0000 22.8835 0.0000
# 6 0.0000 0.0000 0.0000 0.0000 0.0000 33.0541
#
#
#
# Elastic Compliance Matrix: (Units=1/GPa)
#
#
# Indices 1 2 3 4 5 6 
#
# 1 0.012236 -0.003246 -0.008667 0.000000 0.000000 0.000000
# 2 -0.003246 0.011474 -0.003879 0.000000 0.000000 0.000000
# 3 -0.008667 -0.003879 0.042324 0.000000 0.000000 0.000000
# 4 0.000000 0.000000 0.000000 0.300263 0.000000 0.000000
# 5 0.000000 0.000000 0.000000 0.000000 0.043700 0.000000
# 6 0.000000 0.000000 0.000000 0.000000 0.000000 0.030253
#
#
# Mechanical properties :
#
#
# Convention : Reuss Voigt Hill
#
# Bulk Modulus (GPa) = 29.02742 46.22242 37.62492
# Shear Modulus (GPa) = 10.34518 22.63788 16.49153
#
# Velocity S-wave (km/s) = 2.32961 3.44614 2.94134
# Velocity P-wave (km/s) = 4.73961 6.33110 5.59226
#
# Compressibility (1/GPa) = 0.03445018
#
# Stress axis : x y z
#
# Youngs Moduli (GPa) = 81.72624 87.15602 23.62713
#
# Poissons Ratio (x) = 0.28291 0.20477
# Poissons Ratio (y) = 0.26528 0.09165
# Poissons Ratio (z) = 0.70831 0.33808
#
# Static dielectric constant tensor:
#      x y z
#    x 3.634170 0.000000 0.000000 
#    y 0.000000 3.864560 0.000000 
#    z 0.000000 0.000000 3.002780 
# 
# 
# High freq. dielectric constant tensor:
#      x y z
#    x 1.748140 0.000000 0.000000 
#    y 0.000000 1.763360 0.000000 
#    z 0.000000 0.000000 1.684090 
# 
# From -- ./inp_files/29715.got.cif
#   From: 2010.03.12/outbox.cif.g09.slc.cpg/sg64_15_cif.got.tgz:29715.got - 2010.04.10 20:19:32.
