data_PCOD8264059
_publ_section_title
;
Structure prediction by ZEFSAII (Michael W. Deem and Ramdas Pophale) SiO2 
 PCOD8264059
Probable space group: C M C A
;
_chemical_formula_sum "Si O2"
_cell_formula_units_Z 112
_cell_length_a 14.644145
_cell_length_b 24.029513
_cell_length_c 14.213744
_cell_angle_alpha 90.000000
_cell_angle_beta 90.000000
_cell_angle_gamma 90.000000
_cell_volume 5001.698151
_symmetry_space_group_name_H-M "C M C A"
_symmetry_group_IT_number 64
_symmetry_cell_setting 'orthorhombic'
loop_
_space_group_symop_operation_xyz
x,y,z
-x,1/2-y,1/2+z
x,-y,-z
-x,1/2+y,1/2-z
-x,-y,-z
x,1/2+y,1/2-z
-x,y,z
x,1/2-y,1/2+z
1/2+x,1/2+y,z
1/2-x,-y,1/2+z
1/2+x,1/2-y,-z
1/2-x,y,1/2-z
1/2-x,1/2-y,-z
1/2+x,y,1/2-z
1/2-x,1/2+y,z
1/2+x,-y,1/2+z
loop_
_atom_site_type_symbol
_atom_site_label
_atom_site_fract_x
_atom_site_fract_y
_atom_site_fract_z
Si Si1 0.395270 0.936583 0.189088
Si Si2 0.897938 0.343122 0.708973
Si Si3 0.896509 0.663392 0.934306
Si Si4 0.235311 0.632118 0.456789
Si Si5 0.825861 0.945207 0.677782
Si Si6 0.896883 0.122120 0.870363
Si Si7 0.856740 0.275807 0.249495
O O1 0.500000 0.919716 0.199686
O O2 0.358881 0.895449 0.108110
O O3 0.354295 0.920451 0.291968
O O4 0.386530 0.000513 0.158484
O O5 0.822095 0.339750 0.627290
O O6 0.884708 0.395480 0.777398
O O7 0.885329 0.287563 0.771466
O O8 0.000000 0.346578 0.666246
O O9 0.896219 0.710133 0.854016
O O10 0.000000 0.659689 0.976721
O O11 0.818206 0.674383 0.013353
O O12 0.280457 0.574946 0.419194
O O13 0.166741 0.616979 0.539678
O O14 0.750000 0.965879 0.750000
O O15 0.899658 0.184751 0.829021
O O16 0.000000 0.105674 0.900439
O O17 0.750000 0.285373 0.250000
#
# Coordination Sequence:
#
# PCOD8264059 Si02
#       7
#    16  16  16  16  16  16  16
#     4   9  20  39  64  90 125 170 215 264 320 386
#     4  11  24  44  64  89 132 177 216 259 323 395
#     4  10  22  39  62  97 130 164 215 271 323 375
#     4  11  23  41  62  98 126 166 210 272 324 377
#     4  10  23  40  60  87 127 174 215 254 322 391
#     4  10  21  40  68 100 128 166 220 271 323 374
#     4  11  20  40  67  93 129 169 215 265 319 388
#
# _framework density 22.392393999999999
#
# number of rings (size 3 to 8) (size 9 to 14) (size 15 to 20)
#    0.000    1.714    1.429    4.286    2.000    2.286 
#    5.143    1.429    0.000    4.286    0.000    0.000 
#    0.000    0.000    0.000    0.000    0.000    0.000 
#
# Total GULP energy -694275.729234 kJ/mol
# GULP energy per Si atom -12397.780879 kJ/mol
# Density = 2.234143 g / cm^3
# Si number density = 22.392394 Si / 1000 Ang^3
#
#
#
# Elastic Constant Matrix: (Units=GPa)
#
#
# Indices 1 2 3 4 5 6 
#
# 1 128.9392 15.2878 37.6308 0.0000 0.0000 0.0000
# 2 15.2878 126.2525 19.7175 0.0000 0.0000 0.0000
# 3 37.6308 19.7175 75.3179 0.0000 0.0000 0.0000
# 4 0.0000 0.0000 0.0000 7.6289 0.0000 0.0000
# 5 0.0000 0.0000 0.0000 0.0000 26.4042 0.0000
# 6 0.0000 0.0000 0.0000 0.0000 0.0000 30.2571
#
#
#
# Elastic Compliance Matrix: (Units=1/GPa)
#
#
# Indices 1 2 3 4 5 6 
#
# 1 0.009100 -0.000409 -0.004440 0.000000 0.000000 0.000000
# 2 -0.000409 0.008277 -0.001963 0.000000 0.000000 0.000000
# 3 -0.004440 -0.001963 0.016009 0.000000 0.000000 0.000000
# 4 0.000000 0.000000 0.000000 0.131080 0.000000 0.000000
# 5 0.000000 0.000000 0.000000 0.000000 0.037873 0.000000
# 6 0.000000 0.000000 0.000000 0.000000 0.000000 0.033050
#
#
# Mechanical properties :
#
#
# Convention : Reuss Voigt Hill
#
# Bulk Modulus (GPa) = 50.59719 52.86465 51.73092
# Shear Modulus (GPa) = 19.56198 30.04962 24.80580
#
# Velocity S-wave (km/s) = 2.95888 3.66725 3.33194
# Velocity P-wave (km/s) = 5.85816 6.44912 6.16073
#
# Compressibility (1/GPa) = 0.01976394
#
# Stress axis : x y z
#
# Youngs Moduli (GPa) = 109.89372 120.82228 62.46503
#
# Poissons Ratio (x) = 0.04936 0.27731
# Poissons Ratio (y) = 0.04490 0.12260
# Poissons Ratio (z) = 0.48787 0.23713
#
# Static dielectric constant tensor:
#      x y z
#    x 4.192600 0.000000 0.000000 
#    y 0.000000 3.772260 0.000000 
#    z 0.000000 0.000000 3.907510 
# 
# 
# High freq. dielectric constant tensor:
#      x y z
#    x 1.901800 0.000000 0.000000 
#    y 0.000000 1.867460 0.000000 
#    z 0.000000 0.000000 1.865550 
# 
# From -- ./inp_files/24198.got.cif
#   From: 2010.03.12/outbox.cif.g09.slc.cpg/sg64_13_cif.got.tgz:24198.got - 2010.04.10 20:19:32.
