data_PCOD8264828
_publ_section_title
;
Structure prediction by ZEFSAII (Michael W. Deem and Ramdas Pophale) SiO2 
 PCOD8264828
Probable space group: C M C A
;
_chemical_formula_sum "Si O2"
_cell_formula_units_Z 80
_cell_length_a 9.334779
_cell_length_b 14.634647
_cell_length_c 29.188098
_cell_angle_alpha 90.000000
_cell_angle_beta 90.000000
_cell_angle_gamma 90.000000
_cell_volume 3987.420962
_symmetry_space_group_name_H-M "C M C A"
_symmetry_group_IT_number 64
_symmetry_cell_setting 'orthorhombic'
loop_
_space_group_symop_operation_xyz
x,y,z
-x,1/2-y,1/2+z
x,-y,-z
-x,1/2+y,1/2-z
-x,-y,-z
x,1/2+y,1/2-z
-x,y,z
x,1/2-y,1/2+z
1/2+x,1/2+y,z
1/2-x,-y,1/2+z
1/2+x,1/2-y,-z
1/2-x,y,1/2-z
1/2-x,1/2-y,-z
1/2+x,y,1/2-z
1/2-x,1/2+y,z
1/2+x,-y,1/2+z
loop_
_atom_site_type_symbol
_atom_site_label
_atom_site_fract_x
_atom_site_fract_y
_atom_site_fract_z
Si Si1 0.657847 0.344232 0.049044
Si Si2 0.828790 0.456661 0.203998
Si Si3 0.330024 0.689165 0.849763
Si Si4 0.669297 0.891578 0.868573
Si Si5 0.658741 0.870866 0.967392
O O1 0.500000 0.386063 0.044657
O O2 0.712368 0.355343 0.101217
O O3 0.654410 0.237953 0.036828
O O4 0.755180 0.400079 0.013011
O O5 0.750000 0.488817 0.250000
O O6 0.763513 0.359437 0.189339
O O7 0.782539 0.529305 0.165492
O O8 0.000000 0.450840 0.210732
O O9 0.500000 0.678814 0.840053
O O10 0.279491 0.794474 0.848440
O O11 0.500000 0.885545 0.874514
O O12 0.730644 0.909492 0.920160
O O13 0.500000 0.910539 0.974158
#
# Coordination Sequence:
#
# PCOD8264828 Si02
#       5
#    16  16  16  16  16
#     4   8  14  25  45  74 106 137 168 206 251 296
#     4  11  23  39  57  78 103 132 172 221 270 317
#     4   9  18  36  58  79 107 142 176 212 258 309
#     4   8  17  35  57  78 105 141 176 213 259 310
#     4   8  13  25  47  73 101 136 174 207 244 296
#
# _framework density 20.063094
#
# number of rings (size 3 to 8) (size 9 to 14) (size 15 to 20)
#    0.000    3.200    0.000    3.000    0.000    1.600 
#    0.000   10.000    0.000    6.000    0.000    0.000 
#    0.000    0.000    0.000    0.000    0.000    0.000 
#
# Total GULP energy -495750.615417 kJ/mol
# GULP energy per Si atom -12393.765385 kJ/mol
# Density = 2.001743 g / cm^3
# Si number density = 20.063094 Si / 1000 Ang^3
#
#
#
# Elastic Constant Matrix: (Units=GPa)
#
#
# Indices 1 2 3 4 5 6 
#
# 1 64.9902 12.6451 35.7859 0.0000 0.0000 0.0000
# 2 12.6451 39.2288 17.6493 0.0000 0.0000 0.0000
# 3 35.7859 17.6493 89.9191 0.0000 0.0000 0.0000
# 4 0.0000 0.0000 0.0000 32.1879 0.0000 0.0000
# 5 0.0000 0.0000 0.0000 0.0000 37.8369 0.0000
# 6 0.0000 0.0000 0.0000 0.0000 0.0000 15.0818
#
#
#
# Elastic Compliance Matrix: (Units=1/GPa)
#
#
# Indices 1 2 3 4 5 6 
#
# 1 0.020054 -0.003152 -0.007362 0.000000 0.000000 0.000000
# 2 -0.003152 0.028456 -0.004331 0.000000 0.000000 0.000000
# 3 -0.007362 -0.004331 0.014901 0.000000 0.000000 0.000000
# 4 0.000000 0.000000 0.000000 0.031068 0.000000 0.000000
# 5 0.000000 0.000000 0.000000 0.000000 0.026429 0.000000
# 6 0.000000 0.000000 0.000000 0.000000 0.000000 0.066305
#
#
# Mechanical properties :
#
#
# Convention : Reuss Voigt Hill
#
# Bulk Modulus (GPa) = 29.65524 36.25541 32.95533
# Shear Modulus (GPa) = 21.91594 25.55850 23.73722
#
# Velocity S-wave (km/s) = 3.30866 3.57305 3.44340
# Velocity P-wave (km/s) = 5.42304 5.92724 5.68074
#
# Compressibility (1/GPa) = 0.03372085
#
# Stress axis : x y z
#
# Youngs Moduli (GPa) = 49.86477 35.14197 67.10826
#
# Poissons Ratio (x) = 0.11076 0.49408
# Poissons Ratio (y) = 0.15717 0.29064
# Poissons Ratio (z) = 0.36713 0.15220
#
# Static dielectric constant tensor:
#      x y z
#    x 3.522020 0.000000 0.000000 
#    y 0.000000 3.357450 0.000000 
#    z 0.000000 0.000000 3.903330 
# 
# 
# High freq. dielectric constant tensor:
#      x y z
#    x 1.755260 0.000000 0.000000 
#    y 0.000000 1.765810 0.000000 
#    z 0.000000 0.000000 1.791330 
# 
# From -- ./inp_files/51766.got.cif
#   From: 2010.03.12/outbox.cif.g09.slc.cpg/sg64_26_cif.got.tgz:51766.got - 2010.04.10 20:19:32.
