data_PCOD8264642
_publ_section_title
;
Structure prediction by ZEFSAII (Michael W. Deem and Ramdas Pophale) SiO2 
 PCOD8264642
Probable space group: C M C A
;
_chemical_formula_sum "Si O2"
_cell_formula_units_Z 112
_cell_length_a 23.508447
_cell_length_b 14.784934
_cell_length_c 14.646268
_cell_angle_alpha 90.000000
_cell_angle_beta 90.000000
_cell_angle_gamma 90.000000
_cell_volume 5090.615633
_symmetry_space_group_name_H-M "C M C A"
_symmetry_group_IT_number 64
_symmetry_cell_setting 'orthorhombic'
loop_
_space_group_symop_operation_xyz
x,y,z
-x,1/2-y,1/2+z
x,-y,-z
-x,1/2+y,1/2-z
-x,-y,-z
x,1/2+y,1/2-z
-x,y,z
x,1/2-y,1/2+z
1/2+x,1/2+y,z
1/2-x,-y,1/2+z
1/2+x,1/2-y,-z
1/2-x,y,1/2-z
1/2-x,1/2-y,-z
1/2+x,y,1/2-z
1/2-x,1/2+y,z
1/2+x,-y,1/2+z
loop_
_atom_site_type_symbol
_atom_site_label
_atom_site_fract_x
_atom_site_fract_y
_atom_site_fract_z
Si Si1 0.239484 0.997748 0.849493
Si Si2 0.877167 0.468846 0.717286
Si Si3 0.757138 0.202962 0.646539
Si Si4 0.878847 0.720091 0.371789
Si Si5 0.434213 0.348143 0.232680
Si Si6 0.364877 0.236221 0.569508
Si Si7 0.656509 0.436374 0.578800
O O1 0.250000 0.954341 0.750000
O O2 0.268745 0.096074 0.856690
O O3 0.170806 0.999575 0.858225
O O4 0.273085 0.934781 0.923393
O O5 0.895722 0.367354 0.689461
O O6 0.927015 0.543759 0.717595
O O7 0.856022 0.473720 0.820700
O O8 0.750000 0.235901 0.750000
O O9 0.811898 0.258823 0.614385
O O10 0.702396 0.221204 0.583805
O O11 0.910255 0.807774 0.328615
O O12 0.894268 0.697260 0.477133
O O13 0.500000 0.323935 0.225483
O O14 0.399272 0.298995 0.154738
O O15 0.373786 0.342830 0.561671
O O16 0.631567 0.500000 0.500000
#
# Coordination Sequence:
#
# PCOD8264642 Si02
#       7
#    16  16  16  16  16  16  16
#     4   9  18  32  59  94 142 179 215 264 335 415
#     4  11  22  44  66  96 135 185 228 287 348 411
#     4  11  18  38  67 102 149 182 223 277 352 431
#     4  12  25  43  73 103 140 185 229 291 365 431
#     4  12  27  50  72  95 135 186 247 306 347 410
#     4  12  24  43  68 106 143 182 228 287 358 432
#     4  11  21  37  65 103 140 175 225 275 345 427
#
# _framework density 22.001268
#
# number of rings (size 3 to 8) (size 9 to 14) (size 15 to 20)
#    0.000    0.857    4.286    4.714    0.000    4.000 
#    0.000    0.714    0.000    1.714    0.000    0.000 
#    0.000    0.000    0.000    0.000    0.000    0.000 
#
# Total GULP energy -693865.280620 kJ/mol
# GULP energy per Si atom -12390.451440 kJ/mol
# Density = 2.195119 g / cm^3
# Si number density = 22.001268 Si / 1000 Ang^3
#
#
#
# Elastic Constant Matrix: (Units=GPa)
#
#
# Indices 1 2 3 4 5 6 
#
# 1 80.4231 22.6599 -0.6057 0.0000 0.0000 0.0000
# 2 22.6599 107.7454 18.1640 0.0000 0.0000 0.0000
# 3 -0.6057 18.1640 71.2391 0.0000 0.0000 0.0000
# 4 0.0000 0.0000 0.0000 30.1187 0.0000 0.0000
# 5 0.0000 0.0000 0.0000 0.0000 2.2482 0.0000
# 6 0.0000 0.0000 0.0000 0.0000 0.0000 16.4777
#
#
#
# Elastic Compliance Matrix: (Units=1/GPa)
#
#
# Indices 1 2 3 4 5 6 
#
# 1 0.013268 -0.002936 0.000861 0.000000 0.000000 0.000000
# 2 -0.002936 0.010347 -0.002663 0.000000 0.000000 0.000000
# 3 0.000861 -0.002663 0.014724 0.000000 0.000000 0.000000
# 4 0.000000 0.000000 0.000000 0.033202 0.000000 0.000000
# 5 0.000000 0.000000 0.000000 0.000000 0.444800 0.000000
# 6 0.000000 0.000000 0.000000 0.000000 0.000000 0.060688
#
#
# Mechanical properties :
#
#
# Convention : Reuss Voigt Hill
#
# Bulk Modulus (GPa) = 34.64539 37.76044 36.20291
# Shear Modulus (GPa) = 8.38749 24.38153 16.38451
#
# Velocity S-wave (km/s) = 1.95462 3.33256 2.73189
# Velocity P-wave (km/s) = 4.56894 5.65756 5.14214
#
# Compressibility (1/GPa) = 0.02886387
#
# Stress axis : x y z
#
# Youngs Moduli (GPa) = 75.37019 96.64173 67.91804
#
# Poissons Ratio (x) = 0.28370 -0.05850
# Poissons Ratio (y) = 0.22125 0.18088
# Poissons Ratio (z) = -0.06492 0.25738
#
# Static dielectric constant tensor:
#      x y z
#    x 3.623970 0.000000 0.000000 
#    y 0.000000 4.016160 0.000000 
#    z 0.000000 0.000000 4.308280 
# 
# 
# High freq. dielectric constant tensor:
#      x y z
#    x 1.814720 0.000000 0.000000 
#    y 0.000000 1.873930 0.000000 
#    z 0.000000 0.000000 1.873570 
# 
# From -- ./inp_files/27385.got.cif
#   From: 2010.03.12/outbox.cif.g09.slc.cpg/sg64_14_cif.got.tgz:27385.got - 2010.04.10 20:19:32.
