data_PCOD8264560
_publ_section_title
;
Structure prediction by ZEFSAII (Michael W. Deem and Ramdas Pophale) SiO2 
 PCOD8264560
Probable space group: C M C A
;
_chemical_formula_sum "Si O2"
_cell_formula_units_Z 96
_cell_length_a 14.595993
_cell_length_b 20.802063
_cell_length_c 15.648356
_cell_angle_alpha 90.000000
_cell_angle_beta 90.000000
_cell_angle_gamma 90.000000
_cell_volume 4751.259724
_symmetry_space_group_name_H-M "C M C A"
_symmetry_group_IT_number 64
_symmetry_cell_setting 'orthorhombic'
loop_
_space_group_symop_operation_xyz
x,y,z
-x,1/2-y,1/2+z
x,-y,-z
-x,1/2+y,1/2-z
-x,-y,-z
x,1/2+y,1/2-z
-x,y,z
x,1/2-y,1/2+z
1/2+x,1/2+y,z
1/2-x,-y,1/2+z
1/2+x,1/2-y,-z
1/2-x,y,1/2-z
1/2-x,1/2-y,-z
1/2+x,y,1/2-z
1/2-x,1/2+y,z
1/2+x,-y,1/2+z
loop_
_atom_site_type_symbol
_atom_site_label
_atom_site_fract_x
_atom_site_fract_y
_atom_site_fract_z
Si Si1 0.252411 0.039104 0.123102
Si Si2 0.249939 0.098239 0.943601
Si Si3 0.393860 0.793057 0.440626
Si Si4 0.603201 0.700203 0.592292
Si Si5 0.856397 0.225162 0.261862
Si Si6 0.396849 0.082146 0.255127
O O1 0.341382 0.044576 0.182455
O O2 0.160260 0.073036 0.157726
O O3 0.230227 0.963823 0.114139
O O4 0.279846 0.074949 0.036792
O O5 0.158032 0.139710 0.947381
O O6 0.332825 0.138074 0.902263
O O7 0.500000 0.808731 0.453030
O O8 0.359506 0.746357 0.516744
O O9 0.374405 0.762104 0.349295
O O10 0.500000 0.677966 0.571363
O O11 0.603572 0.735074 0.683233
O O12 0.750000 0.212105 0.250000
O O13 0.906482 0.157106 0.266938
O O14 0.500000 0.053950 0.263462
#
# Coordination Sequence:
#
# PCOD8264560 Si02
#       6
#    16  16  16  16  16  16
#     4  10  24  41  62  90 117 167 212 244 306 365
#     4  11  23  41  62  88 128 162 204 255 302 368
#     4  11  24  40  64  96 126 162 205 255 318 372
#     4  11  24  40  64  96 126 162 205 255 318 372
#     4  12  22  39  66  92 125 160 204 258 316 369
#     4  11  23  42  64  89 122 158 207 259 302 364
#
# _framework density 20.205168
#
# number of rings (size 3 to 8) (size 9 to 14) (size 15 to 20)
#    0.000    1.000    3.333    4.000    0.000    8.000 
#    0.000    3.333    0.000    0.000    0.000    0.000 
#    0.000    0.000    0.000    0.000    0.000    0.000 
#
# Total GULP energy -595428.272685 kJ/mol
# GULP energy per Si atom -12404.755681 kJ/mol
# Density = 2.015918 g / cm^3
# Si number density = 20.205168 Si / 1000 Ang^3
#
#
#
# Elastic Constant Matrix: (Units=GPa)
#
#
# Indices 1 2 3 4 5 6 
#
# 1 107.6679 18.6958 1.4299 0.0000 0.0000 0.0000
# 2 18.6958 109.6284 31.4365 0.0000 0.0000 0.0000
# 3 1.4299 31.4365 109.9249 0.0000 0.0000 0.0000
# 4 0.0000 0.0000 0.0000 30.0167 0.0000 0.0000
# 5 0.0000 0.0000 0.0000 0.0000 72.5418 0.0000
# 6 0.0000 0.0000 0.0000 0.0000 0.0000 -211.6742
#
#
#
# Elastic Compliance Matrix: (Units=1/GPa)
#
#
# Indices 1 2 3 4 5 6 
#
# 1 0.009585 -0.001742 0.000373 0.000000 0.000000 0.000000
# 2 -0.001742 0.010253 -0.002910 0.000000 0.000000 0.000000
# 3 0.000373 -0.002910 0.009924 0.000000 0.000000 0.000000
# 4 0.000000 0.000000 0.000000 0.033315 0.000000 0.000000
# 5 0.000000 0.000000 0.000000 0.000000 0.013785 0.000000
# 6 0.000000 0.000000 0.000000 0.000000 0.000000 -0.004724
#
#
# Mechanical properties :
#
#
# Convention : Reuss Voigt Hill
#
# Bulk Modulus (GPa) = 47.15421 47.81617 47.48519
# Shear Modulus (GPa) = 56.97155 -3.44586 26.76285
#
# Velocity S-wave (km/s) = 5.31580 -1.30734 3.64339
# Velocity P-wave (km/s) = 7.81443 4.63010 6.42274
#
# Compressibility (1/GPa) = 0.02120701
#
# Stress axis : x y z
#
# Youngs Moduli (GPa) = 104.32642 97.53166 100.76241
#
# Poissons Ratio (x) = 0.16987 -0.03763
# Poissons Ratio (y) = 0.18171 0.29317
# Poissons Ratio (z) = -0.03896 0.28377
#
# Static dielectric constant tensor:
#      x y z
#    x 3.825050 0.000000 0.000000 
#    y 0.000000 3.644340 0.000000 
#    z 0.000000 0.000000 3.850350 
# 
# 
# High freq. dielectric constant tensor:
#      x y z
#    x 1.799240 0.000000 0.000000 
#    y 0.000000 1.785220 0.000000 
#    z 0.000000 0.000000 1.800470 
# 
# From -- ./inp_files/23842.got.cif
#   From: 2010.03.12/outbox.cif.g09.slc.cpg/sg64_12_cif.got.tgz:23842.got - 2010.04.10 20:19:32.
