data_PCOD8264943
_publ_section_title
;
Structure prediction by ZEFSAII (Michael W. Deem and Ramdas Pophale) SiO2 
 PCOD8264943
Probable space group: C M C A
;
_chemical_formula_sum "Si O2"
_cell_formula_units_Z 64
_cell_length_a 33.107154
_cell_length_b 8.709181
_cell_length_c 9.649178
_cell_angle_alpha 90.000000
_cell_angle_beta 90.000000
_cell_angle_gamma 90.000000
_cell_volume 2782.207285
_symmetry_space_group_name_H-M "C M C A"
_symmetry_group_IT_number 64
_symmetry_cell_setting 'orthorhombic'
loop_
_space_group_symop_operation_xyz
x,y,z
-x,1/2-y,1/2+z
x,-y,-z
-x,1/2+y,1/2-z
-x,-y,-z
x,1/2+y,1/2-z
-x,y,z
x,1/2-y,1/2+z
1/2+x,1/2+y,z
1/2-x,-y,1/2+z
1/2+x,1/2-y,-z
1/2-x,y,1/2-z
1/2-x,1/2-y,-z
1/2+x,y,1/2-z
1/2-x,1/2+y,z
1/2+x,-y,1/2+z
loop_
_atom_site_type_symbol
_atom_site_label
_atom_site_fract_x
_atom_site_fract_y
_atom_site_fract_z
Si Si1 0.824356 0.577285 0.702630
Si Si2 0.205618 0.221672 0.057449
Si Si3 0.913818 0.074475 0.852229
Si Si4 0.046061 0.106145 0.372185
O O1 0.798566 0.429595 0.653937
O O2 0.822341 0.704875 0.579201
O O3 0.806402 0.633047 0.848818
O O4 0.871604 0.544987 0.727165
O O5 0.250000 0.250000 0.000000
O O6 0.923499 0.252626 0.868312
O O7 0.949361 0.992387 0.767362
O O8 0.910228 0.000000 0.000000
O O9 0.000000 0.163815 0.384795
O O10 0.058391 0.000000 0.500000
#
# Coordination Sequence:
#
# PCOD8264943 Si02
#       4
#    16  16  16  16
#     4  11  26  47  69 109 136 190 237 289 361 424
#     4  11  25  46  72  99 146 181 237 294 354 424
#     4  12  24  46  74 103 149 189 241 302 360 434
#     4  11  26  44  71 109 146 192 243 297 364 430
#
# _framework density 23.003316999999999
#
# number of rings (size 3 to 8) (size 9 to 14) (size 15 to 20)
#    0.000    0.750    2.500    4.500    3.500   13.000 
#    0.000    0.000    0.000    0.000    0.000    0.000 
#    0.000    0.000    0.000    0.000    0.000    0.000 
#
# Total GULP energy -396933.473168 kJ/mol
# GULP energy per Si atom -12404.171037 kJ/mol
# Density = 2.295096 g / cm^3
# Si number density = 23.003317 Si / 1000 Ang^3
#
#
#
# Elastic Constant Matrix: (Units=GPa)
#
#
# Indices 1 2 3 4 5 6 
#
# 1 98.2513 60.4535 51.1032 0.0000 0.0000 0.0000
# 2 60.4535 114.2620 30.4860 0.0000 0.0000 0.0000
# 3 51.1032 30.4860 88.8723 0.0000 0.0000 0.0000
# 4 0.0000 0.0000 0.0000 52.8438 0.0000 0.0000
# 5 0.0000 0.0000 0.0000 0.0000 44.2460 0.0000
# 6 0.0000 0.0000 0.0000 0.0000 0.0000 54.3827
#
#
#
# Elastic Compliance Matrix: (Units=1/GPa)
#
#
# Indices 1 2 3 4 5 6 
#
# 1 0.019563 -0.008089 -0.008474 0.000000 0.000000 0.000000
# 2 -0.008089 0.012979 0.000200 0.000000 0.000000 0.000000
# 3 -0.008474 0.000200 0.016056 0.000000 0.000000 0.000000
# 4 0.000000 0.000000 0.000000 0.018924 0.000000 0.000000
# 5 0.000000 0.000000 0.000000 0.000000 0.022601 0.000000
# 6 0.000000 0.000000 0.000000 0.000000 0.000000 0.018388
#
#
# Mechanical properties :
#
#
# Convention : Reuss Voigt Hill
#
# Bulk Modulus (GPa) = 63.01246 65.05233 64.03240
# Shear Modulus (GPa) = 34.12299 40.91735 37.52017
#
# Velocity S-wave (km/s) = 3.85566 4.22211 4.04304
# Velocity P-wave (km/s) = 6.87559 7.21867 7.04922
#
# Compressibility (1/GPa) = 0.01586988
#
# Stress axis : x y z
#
# Youngs Moduli (GPa) = 51.11694 77.05050 62.28023
#
# Poissons Ratio (x) = 0.62329 0.52777
# Poissons Ratio (y) = 0.41350 -0.01243
# Poissons Ratio (z) = 0.43317 -0.01537
#
# Static dielectric constant tensor:
#      x y z
#    x 4.181340 0.000000 0.000000 
#    y 0.000000 4.300520 0.000000 
#    z 0.000000 0.000000 4.369830 
# 
# 
# High freq. dielectric constant tensor:
#      x y z
#    x 1.913250 0.000000 0.000000 
#    y 0.000000 1.910330 0.000000 
#    z 0.000000 0.000000 1.922740 
# 
# From -- ./inp_files/19476.got.cif
#   From: 2010.03.12/outbox.cif.g09.slc.cpg/sg64_10_cif.got.tgz:19476.got - 2010.04.10 20:19:32.
