data_PCOD8264201
_publ_section_title
;
Structure prediction by ZEFSAII (Michael W. Deem and Ramdas Pophale) SiO2 
 PCOD8264201
Probable space group: C M C A
;
_chemical_formula_sum "Si O2"
_cell_formula_units_Z 72
_cell_length_a 14.306453
_cell_length_b 27.148427
_cell_length_c 9.452335
_cell_angle_alpha 90.000000
_cell_angle_beta 90.000000
_cell_angle_gamma 90.000000
_cell_volume 3671.265125
_symmetry_space_group_name_H-M "C M C A"
_symmetry_group_IT_number 64
_symmetry_cell_setting 'orthorhombic'
loop_
_space_group_symop_operation_xyz
x,y,z
-x,1/2-y,1/2+z
x,-y,-z
-x,1/2+y,1/2-z
-x,-y,-z
x,1/2+y,1/2-z
-x,y,z
x,1/2-y,1/2+z
1/2+x,1/2+y,z
1/2-x,-y,1/2+z
1/2+x,1/2-y,-z
1/2-x,y,1/2-z
1/2-x,1/2-y,-z
1/2+x,y,1/2-z
1/2-x,1/2+y,z
1/2+x,-y,1/2+z
loop_
_atom_site_type_symbol
_atom_site_label
_atom_site_fract_x
_atom_site_fract_y
_atom_site_fract_z
Si Si1 0.342769 0.946655 0.338998
Si Si2 0.000000 0.187130 0.515699
Si Si3 0.362438 0.343771 0.254268
Si Si4 0.000000 0.630304 0.274083
Si Si5 0.344777 0.054200 0.334693
Si Si6 0.500000 0.699716 0.956869
O O1 0.250000 0.951330 0.250000
O O2 0.398413 0.899581 0.278692
O O3 0.320718 0.935240 0.502331
O O4 0.393856 0.999752 0.322139
O O5 0.904942 0.169722 0.593359
O O6 0.000000 0.166260 0.358621
O O7 0.000000 0.245692 0.515926
O O8 0.250000 0.338734 0.250000
O O9 0.406811 0.307908 0.136850
O O10 0.089660 0.595495 0.269467
O O11 0.000000 0.662366 0.414086
O O12 0.250000 0.056750 0.250000
#
# Coordination Sequence:
#
# PCOD8264201 Si02
#       6
#    16   8  16   8  16   8
#     4   9  19  38  65  88 125 164 203 238 300 364
#     4  11  27  42  62  89 128 151 210 268 301 353
#     4  10  22  43  68  89 117 169 204 240 310 373
#     4  12  24  37  62  96 119 163 202 250 314 360
#     4  10  22  38  61  94 129 158 199 253 297 359
#     4  11  23  46  63  89 125 158 204 267 304 351
#
# _framework density 19.611768000000001
#
# number of rings (size 3 to 8) (size 9 to 14) (size 15 to 20)
#    0.000    1.778    2.222    1.333    6.222    4.444 
#    0.000    3.333    0.000    0.000    0.000    0.000 
#    0.000    0.000    0.000    0.000    0.000    0.000 
#
# Total GULP energy -446158.927035 kJ/mol
# GULP energy per Si atom -12393.303529 kJ/mol
# Density = 1.956713 g / cm^3
# Si number density = 19.611768 Si / 1000 Ang^3
#
#
#
# Elastic Constant Matrix: (Units=GPa)
#
#
# Indices 1 2 3 4 5 6 
#
# 1 107.6533 31.7600 30.4963 0.0000 0.0000 0.0000
# 2 31.7600 120.1563 17.3980 0.0000 0.0000 0.0000
# 3 30.4963 17.3980 75.6911 0.0000 0.0000 0.0000
# 4 0.0000 0.0000 0.0000 38.1976 0.0000 0.0000
# 5 0.0000 0.0000 0.0000 0.0000 29.5329 0.0000
# 6 0.0000 0.0000 0.0000 0.0000 0.0000 16.2594
#
#
#
# Elastic Compliance Matrix: (Units=1/GPa)
#
#
# Indices 1 2 3 4 5 6 
#
# 1 0.011100 -0.002365 -0.003928 0.000000 0.000000 0.000000
# 2 -0.002365 0.009113 -0.001142 0.000000 0.000000 0.000000
# 3 -0.003928 -0.001142 0.015057 0.000000 0.000000 0.000000
# 4 0.000000 0.000000 0.000000 0.026180 0.000000 0.000000
# 5 0.000000 0.000000 0.000000 0.000000 0.033860 0.000000
# 6 0.000000 0.000000 0.000000 0.000000 0.000000 0.061503
#
#
# Mechanical properties :
#
#
# Convention : Reuss Voigt Hill
#
# Bulk Modulus (GPa) = 49.02241 51.42326 50.22284
# Shear Modulus (GPa) = 28.01391 31.72108 29.86750
#
# Velocity S-wave (km/s) = 3.78355 4.02612 3.90672
# Velocity P-wave (km/s) = 6.64362 6.92029 6.78336
#
# Compressibility (1/GPa) = 0.02039883
#
# Stress axis : x y z
#
# Youngs Moduli (GPa) = 90.09252 109.73388 66.41497
#
# Poissons Ratio (x) = 0.25953 0.26091
# Poissons Ratio (y) = 0.21308 0.07583
# Poissons Ratio (z) = 0.35393 0.12529
#
# Static dielectric constant tensor:
#      x y z
#    x 3.401790 0.000000 0.000000 
#    y 0.000000 4.109370 0.000000 
#    z 0.000000 0.000000 3.624620 
# 
# 
# High freq. dielectric constant tensor:
#      x y z
#    x 1.748540 0.000000 0.000000 
#    y 0.000000 1.782580 0.000000 
#    z 0.000000 0.000000 1.774500 
# 
# From -- ./inp_files/5892.got.cif
#   From: 2010.03.12/outbox.cif.g09.slc.cpg/sg64_3_cif.got.tgz:5892.got - 2010.04.10 20:19:32.
