data_PCOD8264243
_publ_section_title
;
Structure prediction by ZEFSAII (Michael W. Deem and Ramdas Pophale) SiO2 
 PCOD8264243
Probable space group: C M C A
;
_chemical_formula_sum "Si O2"
_cell_formula_units_Z 112
_cell_length_a 23.218936
_cell_length_b 11.262470
_cell_length_c 20.916179
_cell_angle_alpha 90.000000
_cell_angle_beta 90.000000
_cell_angle_gamma 90.000000
_cell_volume 5469.634566
_symmetry_space_group_name_H-M "C M C A"
_symmetry_group_IT_number 64
_symmetry_cell_setting 'orthorhombic'
loop_
_space_group_symop_operation_xyz
x,y,z
-x,1/2-y,1/2+z
x,-y,-z
-x,1/2+y,1/2-z
-x,-y,-z
x,1/2+y,1/2-z
-x,y,z
x,1/2-y,1/2+z
1/2+x,1/2+y,z
1/2-x,-y,1/2+z
1/2+x,1/2-y,-z
1/2-x,y,1/2-z
1/2-x,1/2-y,-z
1/2+x,y,1/2-z
1/2-x,1/2+y,z
1/2+x,-y,1/2+z
loop_
_atom_site_type_symbol
_atom_site_label
_atom_site_fract_x
_atom_site_fract_y
_atom_site_fract_z
Si Si1 0.437320 0.524890 0.425373
Si Si2 0.699992 0.851524 0.832381
Si Si3 0.568749 0.222304 0.535931
Si Si4 0.839970 0.897038 0.113759
Si Si5 0.625595 0.206094 0.905715
Si Si6 0.833021 0.619752 0.305057
Si Si7 0.219881 0.046907 0.567646
O O1 0.442268 0.500000 0.500000
O O2 0.500000 0.518361 0.393127
O O3 0.414427 0.660753 0.421842
O O4 0.400184 0.424345 0.390075
O O5 0.681738 0.726270 0.859683
O O6 0.767108 0.845750 0.816194
O O7 0.658565 0.875979 0.771196
O O8 0.690700 0.958712 0.881319
O O9 0.500000 0.199803 0.535140
O O10 0.602185 0.114725 0.571070
O O11 0.591055 0.230110 0.462938
O O12 0.788839 0.950179 0.069949
O O13 0.850128 0.987850 0.171830
O O14 0.625278 0.288337 0.842757
O O15 0.692367 0.178986 0.924636
O O16 0.198459 0.000000 0.500000
#
# Coordination Sequence:
#
# PCOD8264243 Si02
#       7
#    16  16  16  16  16  16  16
#     4   8  15  31  56  86 119 158 206 254 300 356
#     4  10  22  41  58  86 127 174 200 248 306 376
#     4  10  22  39  62  90 125 164 206 259 322 367
#     4  11  23  39  60  86 128 165 203 256 312 373
#     4  11  19  35  59  94 125 160 206 256 301 376
#     4  10  24  36  59  91 127 169 212 240 305 381
#     4  11  23  35  62  96 127 158 204 259 315 370
#
# _framework density 20.476687999999999
#
# number of rings (size 3 to 8) (size 9 to 14) (size 15 to 20)
#    0.000    1.857    1.429    4.286    6.000    2.286 
#    0.000    2.143    0.000    2.571    0.000    0.000 
#    0.000    0.000    0.000    0.000    0.000    0.000 
#
# Total GULP energy -693998.533401 kJ/mol
# GULP energy per Si atom -12392.830954 kJ/mol
# Density = 2.043008 g / cm^3
# Si number density = 20.476688 Si / 1000 Ang^3
#
#
#
# Elastic Constant Matrix: (Units=GPa)
#
#
# Indices 1 2 3 4 5 6 
#
# 1 61.3786 52.1787 40.9706 0.0000 0.0000 0.0000
# 2 52.1787 89.1445 53.4982 0.0000 0.0000 0.0000
# 3 40.9706 53.4982 125.3839 0.0000 0.0000 0.0000
# 4 0.0000 0.0000 0.0000 24.8068 0.0000 0.0000
# 5 0.0000 0.0000 0.0000 0.0000 19.3178 0.0000
# 6 0.0000 0.0000 0.0000 0.0000 0.0000 29.1068
#
#
#
# Elastic Compliance Matrix: (Units=1/GPa)
#
#
# Indices 1 2 3 4 5 6 
#
# 1 0.033515 -0.017535 -0.003470 0.000000 0.000000 0.000000
# 2 -0.017535 0.024253 -0.004618 0.000000 0.000000 0.000000
# 3 -0.003470 -0.004618 0.011080 0.000000 0.000000 0.000000
# 4 0.000000 0.000000 0.000000 0.040311 0.000000 0.000000
# 5 0.000000 0.000000 0.000000 0.000000 0.051766 0.000000
# 6 0.000000 0.000000 0.000000 0.000000 0.000000 0.034356
#
#
# Mechanical properties :
#
#
# Convention : Reuss Voigt Hill
#
# Bulk Modulus (GPa) = 56.81249 63.24466 60.02857
# Shear Modulus (GPa) = 19.81020 23.26359 21.53690
#
# Velocity S-wave (km/s) = 3.11376 3.37427 3.24663
# Velocity P-wave (km/s) = 6.38221 6.79221 6.59040
#
# Compressibility (1/GPa) = 0.01760176
#
# Stress axis : x y z
#
# Youngs Moduli (GPa) = 29.83724 41.23171 90.25411
#
# Poissons Ratio (x) = 0.72300 0.31315
# Poissons Ratio (y) = 0.52320 0.41683
# Poissons Ratio (z) = 0.10353 0.19043
#
# Static dielectric constant tensor:
#      x y z
#    x 3.741060 0.000000 0.000000 
#    y 0.000000 3.877130 0.000000 
#    z 0.000000 0.000000 3.627030 
# 
# 
# High freq. dielectric constant tensor:
#      x y z
#    x 1.791600 0.000000 0.000000 
#    y 0.000000 1.804620 0.000000 
#    z 0.000000 0.000000 1.775290 
# 
# From -- ./inp_files/41548.got.cif
#   From: 2010.03.12/outbox.cif.g09.slc.cpg/sg64_21_cif.got.tgz:41548.got - 2010.04.10 20:19:32.
