data_PCOD8264485
_publ_section_title
;
Structure prediction by ZEFSAII (Michael W. Deem and Ramdas Pophale) SiO2 
 PCOD8264485
Probable space group: C M C A
;
_chemical_formula_sum "Si O2"
_cell_formula_units_Z 80
_cell_length_a 8.642031
_cell_length_b 24.383521
_cell_length_c 18.543084
_cell_angle_alpha 90.000000
_cell_angle_beta 90.000000
_cell_angle_gamma 90.000000
_cell_volume 3907.456967
_symmetry_space_group_name_H-M "C M C A"
_symmetry_group_IT_number 64
_symmetry_cell_setting 'orthorhombic'
loop_
_space_group_symop_operation_xyz
x,y,z
-x,1/2-y,1/2+z
x,-y,-z
-x,1/2+y,1/2-z
-x,-y,-z
x,1/2+y,1/2-z
-x,y,z
x,1/2-y,1/2+z
1/2+x,1/2+y,z
1/2-x,-y,1/2+z
1/2+x,1/2-y,-z
1/2-x,y,1/2-z
1/2-x,1/2-y,-z
1/2+x,y,1/2-z
1/2-x,1/2+y,z
1/2+x,-y,1/2+z
loop_
_atom_site_type_symbol
_atom_site_label
_atom_site_fract_x
_atom_site_fract_y
_atom_site_fract_z
Si Si1 0.318642 0.091540 0.399845
Si Si2 0.682321 0.304594 0.672024
Si Si3 0.319628 0.904202 0.049862
Si Si4 0.317597 0.488223 0.325603
Si Si5 0.318097 0.721152 0.569815
O O1 0.500000 0.100840 0.390803
O O2 0.230748 0.147897 0.383111
O O3 0.276776 0.074568 0.481319
O O4 0.263397 0.045255 0.344898
O O5 0.500000 0.301433 0.677229
O O6 0.750000 0.317565 0.750000
O O7 0.746417 0.247093 0.642094
O O8 0.500000 0.909346 0.030623
O O9 0.273123 0.842529 0.070307
O O10 0.273310 0.942260 0.116453
O O11 0.500000 0.497585 0.320554
O O12 0.250000 0.467368 0.250000
O O13 0.500000 0.730360 0.570258
O O14 0.250000 0.750000 0.500000
#
# Coordination Sequence:
#
# PCOD8264485 Si02
#       5
#    16  16  16  16  16
#     4  12  24  40  65  95 126 163 211 264 316 380
#     4  12  25  42  64  93 129 168 212 265 321 380
#     4  10  23  42  66  93 127 168 210 257 313 377
#     4  11  24  43  64  90 127 168 209 259 316 376
#     4  11  22  40  65  95 128 168 211 257 313 374
#
# _framework density 20.473673999999999
#
# number of rings (size 3 to 8) (size 9 to 14) (size 15 to 20)
#    0.000    0.800    2.000    6.000    0.000    5.600 
#    0.000    2.000    0.000    0.000    0.000    0.000 
#    0.000    0.000    0.000    0.000    0.000    0.000 
#
# Total GULP energy -496362.299545 kJ/mol
# GULP energy per Si atom -12409.057489 kJ/mol
# Density = 2.042707 g / cm^3
# Si number density = 20.473674 Si / 1000 Ang^3
#
#
#
# Elastic Constant Matrix: (Units=GPa)
#
#
# Indices 1 2 3 4 5 6 
#
# 1 111.2245 30.2450 37.2888 0.0000 0.0000 0.0000
# 2 30.2450 78.2444 27.7839 0.0000 0.0000 0.0000
# 3 37.2888 27.7839 120.8424 0.0000 0.0000 0.0000
# 4 0.0000 0.0000 0.0000 36.7693 0.0000 0.0000
# 5 0.0000 0.0000 0.0000 0.0000 42.2174 0.0000
# 6 0.0000 0.0000 0.0000 0.0000 0.0000 27.2819
#
#
#
# Elastic Compliance Matrix: (Units=1/GPa)
#
#
# Indices 1 2 3 4 5 6 
#
# 1 0.010732 -0.003237 -0.002567 0.000000 0.000000 0.000000
# 2 -0.003237 0.014893 -0.002425 0.000000 0.000000 0.000000
# 3 -0.002567 -0.002425 0.009625 0.000000 0.000000 0.000000
# 4 0.000000 0.000000 0.000000 0.027197 0.000000 0.000000
# 5 0.000000 0.000000 0.000000 0.000000 0.023687 0.000000
# 6 0.000000 0.000000 0.000000 0.000000 0.000000 0.036654
#
#
# Mechanical properties :
#
#
# Convention : Reuss Voigt Hill
#
# Bulk Modulus (GPa) = 53.21746 55.66075 54.43911
# Shear Modulus (GPa) = 34.36195 35.58663 34.97429
#
# Velocity S-wave (km/s) = 4.10121 4.17365 4.13759
# Velocity P-wave (km/s) = 6.96248 7.10432 7.03376
#
# Compressibility (1/GPa) = 0.01879083
#
# Stress axis : x y z
#
# Youngs Moduli (GPa) = 93.18210 67.14655 103.89507
#
# Poissons Ratio (x) = 0.21733 0.26674
# Poissons Ratio (y) = 0.30160 0.25199
# Poissons Ratio (z) = 0.23923 0.16286
#
# Static dielectric constant tensor:
#      x y z
#    x 3.770750 0.000000 0.000000 
#    y 0.000000 3.906910 0.000000 
#    z 0.000000 0.000000 3.799870 
# 
# 
# High freq. dielectric constant tensor:
#      x y z
#    x 1.810460 0.000000 0.000000 
#    y 0.000000 1.808160 0.000000 
#    z 0.000000 0.000000 1.810610 
# 
# From -- ./inp_files/29829.got.cif
#   From: 2010.03.12/outbox.cif.g09.slc.cpg/sg64_15_cif.got.tgz:29829.got - 2010.04.10 20:19:32.
