data_PCOD8264142
_publ_section_title
;
Structure prediction by ZEFSAII (Michael W. Deem and Ramdas Pophale) SiO2 
 PCOD8264142
Probable space group: C M C A
;
_chemical_formula_sum "Si O2"
_cell_formula_units_Z 72
_cell_length_a 17.629342
_cell_length_b 9.299154
_cell_length_c 21.764607
_cell_angle_alpha 90.000000
_cell_angle_beta 90.000000
_cell_angle_gamma 90.000000
_cell_volume 3568.045406
_symmetry_space_group_name_H-M "C M C A"
_symmetry_group_IT_number 64
_symmetry_cell_setting 'orthorhombic'
loop_
_space_group_symop_operation_xyz
x,y,z
-x,1/2-y,1/2+z
x,-y,-z
-x,1/2+y,1/2-z
-x,-y,-z
x,1/2+y,1/2-z
-x,y,z
x,1/2-y,1/2+z
1/2+x,1/2+y,z
1/2-x,-y,1/2+z
1/2+x,1/2-y,-z
1/2-x,y,1/2-z
1/2-x,1/2-y,-z
1/2+x,y,1/2-z
1/2-x,1/2+y,z
1/2+x,-y,1/2+z
loop_
_atom_site_type_symbol
_atom_site_label
_atom_site_fract_x
_atom_site_fract_y
_atom_site_fract_z
Si Si1 0.000000 0.290657 0.675261
Si Si2 0.500000 0.950981 0.800230
Si Si3 0.732820 0.122535 0.044555
Si Si4 0.143649 0.551360 0.356354
Si Si5 0.250000 0.351474 0.750000
Si Si6 0.135488 0.732080 0.152215
O O1 0.000000 0.404969 0.730145
O O2 0.922119 0.326709 0.639193
O O3 0.000000 0.124393 0.695619
O O4 0.573128 0.884804 0.831696
O O5 0.805882 0.070777 0.083021
O O6 0.667141 0.170710 0.089451
O O7 0.750000 0.250000 0.000000
O O8 0.701274 0.000000 0.000000
O O9 0.194073 0.557228 0.294028
O O10 0.104657 0.393565 0.357697
O O11 0.198834 0.253913 0.794498
#
# Coordination Sequence:
#
# PCOD8264142 Si02
#       6
#     8   8  16  16   8  16
#     4  12  26  42  64  96 138 172 216 264 334 394
#     4  12  26  42  64  96 138 173 214 268 330 399
#     4  11  24  45  70  97 130 172 225 274 320 381
#     4  11  23  41  67  96 133 172 216 269 330 388
#     4  10  22  34  68  98 130 160 220 262 336 380
#     4  11  23  41  67  96 133 171 217 268 330 386
#
# _framework density 20.179116
#
# number of rings (size 3 to 8) (size 9 to 14) (size 15 to 20)
#    0.000    0.889    4.444    2.667    3.111    1.778 
#    0.000    2.222    0.000    0.000    0.000    0.000 
#    0.000    0.000    0.000    0.000    0.000    0.000 
#
# Total GULP energy -446249.281568 kJ/mol
# GULP energy per Si atom -12395.813377 kJ/mol
# Density = 2.013319 g / cm^3
# Si number density = 20.179116 Si / 1000 Ang^3
#
#
#
# Elastic Constant Matrix: (Units=GPa)
#
#
# Indices 1 2 3 4 5 6 
#
# 1 79.3006 19.9399 15.3281 0.0000 0.0000 0.0000
# 2 19.9399 144.7735 19.4611 0.0000 0.0000 0.0000
# 3 15.3281 19.4611 102.8692 0.0000 0.0000 0.0000
# 4 0.0000 0.0000 0.0000 28.7057 0.0000 0.0000
# 5 0.0000 0.0000 0.0000 0.0000 21.3141 0.0000
# 6 0.0000 0.0000 0.0000 0.0000 0.0000 35.4609
#
#
#
# Elastic Compliance Matrix: (Units=1/GPa)
#
#
# Indices 1 2 3 4 5 6 
#
# 1 0.013341 -0.001611 -0.001683 0.000000 0.000000 0.000000
# 2 -0.001611 0.007282 -0.001138 0.000000 0.000000 0.000000
# 3 -0.001683 -0.001138 0.010187 0.000000 0.000000 0.000000
# 4 0.000000 0.000000 0.000000 0.034836 0.000000 0.000000
# 5 0.000000 0.000000 0.000000 0.000000 0.046917 0.000000
# 6 0.000000 0.000000 0.000000 0.000000 0.000000 0.028200
#
#
# Mechanical properties :
#
#
# Convention : Reuss Voigt Hill
#
# Bulk Modulus (GPa) = 45.56573 48.48906 47.02740
# Shear Modulus (GPa) = 31.85876 35.24374 33.55125
#
# Velocity S-wave (km/s) = 3.97772 4.18370 4.08201
# Velocity P-wave (km/s) = 6.61256 6.88617 6.75075
#
# Compressibility (1/GPa) = 0.02194632
#
# Stress axis : x y z
#
# Youngs Moduli (GPa) = 74.95864 137.32161 98.16355
#
# Poissons Ratio (x) = 0.22125 0.16521
# Poissons Ratio (y) = 0.12077 0.11167
# Poissons Ratio (z) = 0.12616 0.15622
#
# Static dielectric constant tensor:
#      x y z
#    x 3.428240 0.000000 0.000000 
#    y 0.000000 3.653900 0.000000 
#    z 0.000000 0.000000 3.683620 
# 
# 
# High freq. dielectric constant tensor:
#      x y z
#    x 1.783390 0.000000 0.000000 
#    y 0.000000 1.800960 0.000000 
#    z 0.000000 0.000000 1.788850 
# 
# From -- ./inp_files/40725.got.cif
#   From: 2010.03.12/outbox.cif.g09.slc.cpg/sg64_21_cif.got.tgz:40725.got - 2010.04.10 20:19:32.
