data_PCOD8264388
_publ_section_title
;
Structure prediction by ZEFSAII (Michael W. Deem and Ramdas Pophale) SiO2 
 PCOD8264388
Probable space group: C M C A
;
_chemical_formula_sum "Si O2"
_cell_formula_units_Z 64
_cell_length_a 17.482801
_cell_length_b 29.943700
_cell_length_c 5.080631
_cell_angle_alpha 90.000000
_cell_angle_beta 90.000000
_cell_angle_gamma 90.000000
_cell_volume 2659.709050
_symmetry_space_group_name_H-M "C M C A"
_symmetry_group_IT_number 64
_symmetry_cell_setting 'orthorhombic'
loop_
_space_group_symop_operation_xyz
x,y,z
-x,1/2-y,1/2+z
x,-y,-z
-x,1/2+y,1/2-z
-x,-y,-z
x,1/2+y,1/2-z
-x,y,z
x,1/2-y,1/2+z
1/2+x,1/2+y,z
1/2-x,-y,1/2+z
1/2+x,1/2-y,-z
1/2-x,y,1/2-z
1/2-x,1/2-y,-z
1/2+x,y,1/2-z
1/2-x,1/2+y,z
1/2+x,-y,1/2+z
loop_
_atom_site_type_symbol
_atom_site_label
_atom_site_fract_x
_atom_site_fract_y
_atom_site_fract_z
Si Si1 0.300806 0.413001 0.498946
Si Si2 0.913797 0.458334 0.673828
Si Si3 0.409314 0.724818 0.064230
Si Si4 0.913276 0.368237 0.339770
O O1 0.250000 0.428479 0.250000
O O2 0.355904 0.454514 0.579975
O O3 0.356445 0.372272 0.410359
O O4 0.250000 0.397949 0.750000
O O5 0.887717 0.500000 0.500000
O O6 0.907002 0.412924 0.509393
O O7 0.000000 0.465070 0.781173
O O8 0.500000 0.728636 0.067442
O O9 0.375489 0.757536 0.838702
O O10 0.385324 0.673590 0.013226
O O11 0.000000 0.361062 0.234167
#
# Coordination Sequence:
#
# PCOD8264388 Si02
#       4
#    16  16  16  16
#     4  12  25  46  67  99 139 183 227 277 333 409
#     4  10  23  46  74 105 139 179 231 283 337 404
#     4   9  19  34  60  97 129 163 217 283 342 396
#     4  10  22  42  69  98 136 180 227 283 343 401
#
# _framework density 24.062783
#
# number of rings (size 3 to 8) (size 9 to 14) (size 15 to 20)
#    0.000    1.750    2.500    0.750    3.500    1.000 
#    4.500    3.750    0.000    4.500    0.000    0.000 
#    0.000    0.000    0.000    0.000    0.000    0.000 
#
# Total GULP energy -396682.386464 kJ/mol
# GULP energy per Si atom -12396.324577 kJ/mol
# Density = 2.400801 g / cm^3
# Si number density = 24.062783 Si / 1000 Ang^3
#
#
#
# Elastic Constant Matrix: (Units=GPa)
#
#
# Indices 1 2 3 4 5 6 
#
# 1 105.3396 0.6548 28.9845 0.0000 0.0000 0.0000
# 2 0.6548 116.7695 5.2680 0.0000 0.0000 0.0000
# 3 28.9845 5.2680 98.0034 0.0000 0.0000 0.0000
# 4 0.0000 0.0000 0.0000 32.9391 0.0000 0.0000
# 5 0.0000 0.0000 0.0000 0.0000 7.1546 0.0000
# 6 0.0000 0.0000 0.0000 0.0000 0.0000 -5.0438
#
#
#
# Elastic Compliance Matrix: (Units=1/GPa)
#
#
# Indices 1 2 3 4 5 6 
#
# 1 0.010335 0.000080 -0.003061 0.000000 0.000000 0.000000
# 2 0.000080 0.008585 -0.000485 0.000000 0.000000 0.000000
# 3 -0.003061 -0.000485 0.011135 0.000000 0.000000 0.000000
# 4 0.000000 0.000000 0.000000 0.030359 0.000000 0.000000
# 5 0.000000 0.000000 0.000000 0.000000 0.139771 0.000000
# 6 0.000000 0.000000 0.000000 0.000000 0.000000 -0.198262
#
#
# Mechanical properties :
#
#
# Convention : Reuss Voigt Hill
#
# Bulk Modulus (GPa) = 43.24621 43.32523 43.28572
# Shear Modulus (GPa) = 301.88130 26.02364 163.95247
#
# Velocity S-wave (km/s) = 11.21285 3.29217 8.26337
# Velocity P-wave (km/s) = 13.62529 5.70047 10.44375
#
# Compressibility (1/GPa) = 0.02312341
#
# Stress axis : x y z
#
# Youngs Moduli (GPa) = 96.76040 116.47793 89.80659
#
# Poissons Ratio (x) = -0.00933 0.27488
# Poissons Ratio (y) = -0.00775 0.04357
# Poissons Ratio (z) = 0.29617 0.05651
#
# Static dielectric constant tensor:
#      x y z
#    x 4.656590 0.000000 0.000000 
#    y 0.000000 4.244000 0.000000 
#    z 0.000000 0.000000 4.533830 
# 
# 
# High freq. dielectric constant tensor:
#      x y z
#    x 1.938370 0.000000 0.000000 
#    y 0.000000 1.944960 0.000000 
#    z 0.000000 0.000000 1.959330 
# 
# From -- ./inp_files/1675.got.cif
#   From: 2010.03.12/outbox.cif.g09.slc.cpg/sg64_1_cif.got.tgz:1675.got - 2010.04.10 20:19:32.
