data_PCOD8264520
_publ_section_title
;
Structure prediction by ZEFSAII (Michael W. Deem and Ramdas Pophale) SiO2 
 PCOD8264520
Probable space group: C M C A
;
_chemical_formula_sum "Si O2"
_cell_formula_units_Z 88
_cell_length_a 11.811501
_cell_length_b 13.942879
_cell_length_c 25.671951
_cell_angle_alpha 90.000000
_cell_angle_beta 90.000000
_cell_angle_gamma 90.000000
_cell_volume 4227.819375
_symmetry_space_group_name_H-M "C M C A"
_symmetry_group_IT_number 64
_symmetry_cell_setting 'orthorhombic'
loop_
_space_group_symop_operation_xyz
x,y,z
-x,1/2-y,1/2+z
x,-y,-z
-x,1/2+y,1/2-z
-x,-y,-z
x,1/2+y,1/2-z
-x,y,z
x,1/2-y,1/2+z
1/2+x,1/2+y,z
1/2-x,-y,1/2+z
1/2+x,1/2-y,-z
1/2-x,y,1/2-z
1/2-x,1/2-y,-z
1/2+x,y,1/2-z
1/2-x,1/2+y,z
1/2+x,-y,1/2+z
loop_
_atom_site_type_symbol
_atom_site_label
_atom_site_fract_x
_atom_site_fract_y
_atom_site_fract_z
Si Si1 0.624996 0.532680 0.638628
Si Si2 0.237332 0.150082 0.117181
Si Si3 0.686182 0.650722 0.900841
Si Si4 0.500000 0.856572 0.219913
Si Si5 0.000000 0.561330 0.669708
Si Si6 0.873919 0.889871 0.986927
Si Si7 0.000000 0.344705 0.671271
O O1 0.500000 0.509537 0.615321
O O2 0.695592 0.434796 0.646463
O O3 0.689757 0.602101 0.598309
O O4 0.610191 0.591409 0.693444
O O5 0.311296 0.245475 0.126318
O O6 0.222214 0.133780 0.055303
O O7 0.112331 0.167035 0.138015
O O8 0.607965 0.579090 0.867201
O O9 0.645211 0.667639 0.959589
O O10 0.500000 0.867954 0.281635
O O11 0.500000 0.740988 0.213395
O O12 0.000000 0.453562 0.693487
O O13 0.000000 0.866213 0.965551
O O14 0.862707 0.000000 0.000000
#
# Coordination Sequence:
#
# PCOD8264520 Si02
#       7
#    16  16  16   8   8  16   8
#     4  10  23  44  63  95 140 170 219 282 338 399
#     4  12  23  42  70  97 139 181 220 279 345 400
#     4  12  24  43  66 101 137 174 229 288 330 404
#     4  10  26  48  68 100 138 176 226 278 353 401
#     4  12  26  45  74 101 130 176 238 285 330 393
#     4  11  21  38  67 101 134 177 235 277 330 404
#     4  12  22  45  72  98 126 183 221 271 336 408
#
# _framework density 20.814512000000001
#
# number of rings (size 3 to 8) (size 9 to 14) (size 15 to 20)
#    0.545    0.182    7.273    0.545    1.273    2.182 
#    0.000    3.636    0.000    0.000    0.000    0.000 
#    0.000    0.000    0.000    0.000    0.000    0.000 
#
# Total GULP energy -545370.697431 kJ/mol
# GULP energy per Si atom -12394.788578 kJ/mol
# Density = 2.076714 g / cm^3
# Si number density = 20.814512 Si / 1000 Ang^3
#
#
#
# Elastic Constant Matrix: (Units=GPa)
#
#
# Indices 1 2 3 4 5 6 
#
# 1 97.4007 34.7716 25.5464 0.0000 0.0000 0.0000
# 2 34.7716 112.4225 21.4586 0.0000 0.0000 0.0000
# 3 25.5464 21.4586 86.4131 0.0000 0.0000 0.0000
# 4 0.0000 0.0000 0.0000 27.7233 0.0000 0.0000
# 5 0.0000 0.0000 0.0000 0.0000 24.2898 0.0000
# 6 0.0000 0.0000 0.0000 0.0000 0.0000 22.4237
#
#
#
# Elastic Compliance Matrix: (Units=1/GPa)
#
#
# Indices 1 2 3 4 5 6 
#
# 1 0.012150 -0.003225 -0.002791 0.000000 0.000000 0.000000
# 2 -0.003225 0.010194 -0.001578 0.000000 0.000000 0.000000
# 3 -0.002791 -0.001578 0.012789 0.000000 0.000000 0.000000
# 4 0.000000 0.000000 0.000000 0.036071 0.000000 0.000000
# 5 0.000000 0.000000 0.000000 0.000000 0.041170 0.000000
# 6 0.000000 0.000000 0.000000 0.000000 0.000000 0.044596
#
#
# Mechanical properties :
#
#
# Convention : Reuss Voigt Hill
#
# Bulk Modulus (GPa) = 50.13821 51.08771 50.61296
# Shear Modulus (GPa) = 27.96326 29.18468 28.57397
#
# Velocity S-wave (km/s) = 3.66929 3.74857 3.70914
# Velocity P-wave (km/s) = 6.48783 6.58280 6.53549
#
# Compressibility (1/GPa) = 0.01994487
#
# Stress axis : x y z
#
# Youngs Moduli (GPa) = 82.30232 98.09937 78.19052
#
# Poissons Ratio (x) = 0.31640 0.21824
# Poissons Ratio (y) = 0.26545 0.12337
# Poissons Ratio (z) = 0.22971 0.15479
#
# Static dielectric constant tensor:
#      x y z
#    x 3.885730 0.000000 0.000000 
#    y 0.000000 3.897520 0.000000 
#    z 0.000000 0.000000 3.546500 
# 
# 
# High freq. dielectric constant tensor:
#      x y z
#    x 1.817100 0.000000 0.000000 
#    y 0.000000 1.827360 0.000000 
#    z 0.000000 0.000000 1.784840 
# 
# From -- ./inp_files/49252.got.cif
#   From: 2010.03.12/outbox.cif.g09.slc.cpg/sg64_25_cif.got.tgz:49252.got - 2010.04.10 20:19:32.
