data_PCOD8264643
_publ_section_title
;
Structure prediction by ZEFSAII (Michael W. Deem and Ramdas Pophale) SiO2 
 PCOD8264643
Probable space group: C M C A
;
_chemical_formula_sum "Si O2"
_cell_formula_units_Z 88
_cell_length_a 14.083808
_cell_length_b 13.712960
_cell_length_c 21.547164
_cell_angle_alpha 90.000000
_cell_angle_beta 90.000000
_cell_angle_gamma 90.000000
_cell_volume 4161.418775
_symmetry_space_group_name_H-M "C M C A"
_symmetry_group_IT_number 64
_symmetry_cell_setting 'orthorhombic'
loop_
_space_group_symop_operation_xyz
x,y,z
-x,1/2-y,1/2+z
x,-y,-z
-x,1/2+y,1/2-z
-x,-y,-z
x,1/2+y,1/2-z
-x,y,z
x,1/2-y,1/2+z
1/2+x,1/2+y,z
1/2-x,-y,1/2+z
1/2+x,1/2-y,-z
1/2-x,y,1/2-z
1/2-x,1/2-y,-z
1/2+x,y,1/2-z
1/2-x,1/2+y,z
1/2+x,-y,1/2+z
loop_
_atom_site_type_symbol
_atom_site_label
_atom_site_fract_x
_atom_site_fract_y
_atom_site_fract_z
Si Si1 0.806043 0.500000 0.500000
Si Si2 0.889004 0.151580 0.915100
Si Si3 0.847699 0.846235 0.531243
Si Si4 0.143788 0.623776 0.727317
Si Si5 0.000000 0.045293 0.242970
Si Si6 0.000000 0.857603 0.426116
Si Si7 0.000000 0.251670 0.196882
Si Si8 0.500000 0.570161 0.381008
O O1 0.870265 0.545351 0.554971
O O2 0.745617 0.588394 0.471630
O O3 0.827236 0.232434 0.953241
O O4 0.857399 0.155718 0.844119
O O5 0.000000 0.178270 0.921279
O O6 0.905558 0.855384 0.467388
O O7 0.906469 0.886682 0.588850
O O8 0.250000 0.611072 0.750000
O O9 0.093243 0.519592 0.733374
O O10 0.093152 0.704997 0.769680
O O11 0.000000 0.134746 0.195555
O O12 0.000000 0.097967 0.309349
O O13 0.000000 0.771158 0.376715
O O14 0.000000 0.954188 0.385281
#
# Coordination Sequence:
#
# PCOD8264643 Si02
#       8
#     8  16  16  16   8   8   8   8
#     4  12  27  39  70 106 132 170 234 281 333 394
#     4  12  25  49  66  95 146 181 217 275 356 411
#     4  11  23  43  71 101 127 180 225 280 337 399
#     4  11  26  47  67  98 139 182 227 281 336 413
#     4  11  24  44  73 100 133 180 223 279 349 393
#     4  11  20  38  76  97 136 167 233 280 333 392
#     4  11  24  45  71 102 134 177 233 281 339 409
#     4  11  18  39  74  92 133 168 228 277 334 390
#
# _framework density 21.146633000000001
#
# number of rings (size 3 to 8) (size 9 to 14) (size 15 to 20)
#    0.000    0.727    7.273    2.455    5.091    2.182 
#    3.273    0.000    0.000    0.000    0.000    0.000 
#    0.000    0.000    0.000    0.000    0.000    0.000 
#
# Total GULP energy -545781.777258 kJ/mol
# GULP energy per Si atom -12404.131301 kJ/mol
# Density = 2.109850 g / cm^3
# Si number density = 21.146633 Si / 1000 Ang^3
#
#
#
# Elastic Constant Matrix: (Units=GPa)
#
#
# Indices 1 2 3 4 5 6 
#
# 1 101.4146 43.7004 13.3074 0.0000 0.0000 0.0000
# 2 43.7004 126.5600 26.1423 0.0000 0.0000 0.0000
# 3 13.3074 26.1423 86.4864 0.0000 0.0000 0.0000
# 4 0.0000 0.0000 0.0000 40.4606 0.0000 0.0000
# 5 0.0000 0.0000 0.0000 0.0000 1.8556 0.0000
# 6 0.0000 0.0000 0.0000 0.0000 0.0000 18.8016
#
#
#
# Elastic Compliance Matrix: (Units=1/GPa)
#
#
# Indices 1 2 3 4 5 6 
#
# 1 0.011615 -0.003884 -0.000613 0.000000 0.000000 0.000000
# 2 -0.003884 0.009726 -0.002342 0.000000 0.000000 0.000000
# 3 -0.000613 -0.002342 0.012365 0.000000 0.000000 0.000000
# 4 0.000000 0.000000 0.000000 0.024715 0.000000 0.000000
# 5 0.000000 0.000000 0.000000 0.000000 0.538897 0.000000
# 6 0.000000 0.000000 0.000000 0.000000 0.000000 0.053187
#
#
# Mechanical properties :
#
#
# Convention : Reuss Voigt Hill
#
# Bulk Modulus (GPa) = 49.93236 53.41791 51.67513
# Shear Modulus (GPa) = 7.45313 27.64429 17.54871
#
# Velocity S-wave (km/s) = 1.87940 3.61954 2.88385
# Velocity P-wave (km/s) = 5.32665 6.54092 5.96477
#
# Compressibility (1/GPa) = 0.02002709
#
# Stress axis : x y z
#
# Youngs Moduli (GPa) = 86.09916 102.81427 80.87414
#
# Poissons Ratio (x) = 0.39931 0.04959
# Poissons Ratio (y) = 0.33439 0.18944
# Poissons Ratio (z) = 0.05279 0.24083
#
# Static dielectric constant tensor:
#      x y z
#    x 3.717320 0.000000 0.000000 
#    y 0.000000 3.953770 0.000000 
#    z 0.000000 0.000000 3.841160 
# 
# 
# High freq. dielectric constant tensor:
#      x y z
#    x 1.820650 0.000000 0.000000 
#    y 0.000000 1.841650 0.000000 
#    z 0.000000 0.000000 1.838020 
# 
# From -- ./inp_files/39126.got.cif
#   From: 2010.03.12/outbox.cif.g09.slc.cpg/sg64_20_cif.got.tgz:39126.got - 2010.04.10 20:19:32.
