data_PCOD8264533
_publ_section_title
;
Structure prediction by ZEFSAII (Michael W. Deem and Ramdas Pophale) SiO2 
 PCOD8264533
Probable space group: C M C A
;
_chemical_formula_sum "Si O2"
_cell_formula_units_Z 112
_cell_length_a 23.475415
_cell_length_b 13.688102
_cell_length_c 15.401639
_cell_angle_alpha 90.000000
_cell_angle_beta 90.000000
_cell_angle_gamma 90.000000
_cell_volume 4949.068341
_symmetry_space_group_name_H-M "C M C A"
_symmetry_group_IT_number 64
_symmetry_cell_setting 'orthorhombic'
loop_
_space_group_symop_operation_xyz
x,y,z
-x,1/2-y,1/2+z
x,-y,-z
-x,1/2+y,1/2-z
-x,-y,-z
x,1/2+y,1/2-z
-x,y,z
x,1/2-y,1/2+z
1/2+x,1/2+y,z
1/2-x,-y,1/2+z
1/2+x,1/2-y,-z
1/2-x,y,1/2-z
1/2-x,1/2-y,-z
1/2+x,y,1/2-z
1/2-x,1/2+y,z
1/2+x,-y,1/2+z
loop_
_atom_site_type_symbol
_atom_site_label
_atom_site_fract_x
_atom_site_fract_y
_atom_site_fract_z
Si Si1 0.064018 0.939938 0.912405
Si Si2 0.756039 0.503049 0.147841
Si Si3 0.114876 0.028076 0.400643
Si Si4 0.256382 0.705368 0.906845
Si Si5 0.066709 0.087303 0.759561
Si Si6 0.834645 0.336385 0.645467
Si Si7 0.870642 0.781775 0.677378
O O1 0.083101 0.008680 0.832828
O O2 0.000000 0.898349 0.898788
O O3 0.109729 0.850904 0.916762
O O4 0.067111 0.000000 0.000000
O O5 0.750000 0.479617 0.250000
O O6 0.818267 0.532554 0.117472
O O7 0.736831 0.410067 0.092249
O O8 0.714117 0.588141 0.118279
O O9 0.086540 0.949429 0.335302
O O10 0.100222 0.000000 0.500000
O O11 0.094379 0.141718 0.384573
O O12 0.195760 0.730260 0.859705
O O13 0.311747 0.748771 0.862975
O O14 0.250000 0.750000 0.000000
O O15 0.093127 0.190720 0.788108
O O16 0.000000 0.104517 0.756329
O O17 0.855283 0.352618 0.742728
#
# Coordination Sequence:
#
# PCOD8264533 Si02
#       7
#    16  16  16  16  16  16  16
#     4  10  23  44  72 103 137 183 245 305 360 432
#     4  12  22  42  65  93 140 190 226 289 353 439
#     4  12  25  46  73 107 152 190 246 311 376 445
#     4  12  26  37  62 103 141 180 234 290 363 437
#     4  11  26  49  75 102 139 193 243 305 376 440
#     4  12  23  41  69 100 133 189 233 277 365 436
#     4  12  24  45  69 102 141 189 243 301 362 439
#
# _framework density 22.630521999999999
#
# number of rings (size 3 to 8) (size 9 to 14) (size 15 to 20)
#    0.000    0.429    4.286    4.714    4.000    1.429 
#    0.000    0.000    0.000    0.000    0.000    0.000 
#    0.000    0.000    0.000    0.000    0.000    0.000 
#
# Total GULP energy -694189.033454 kJ/mol
# GULP energy per Si atom -12396.232740 kJ/mol
# Density = 2.257901 g / cm^3
# Si number density = 22.630522 Si / 1000 Ang^3
#
#
#
# Elastic Constant Matrix: (Units=GPa)
#
#
# Indices 1 2 3 4 5 6 
#
# 1 113.9267 45.3983 35.7604 0.0000 0.0000 0.0000
# 2 45.3983 88.0999 10.7236 0.0000 0.0000 0.0000
# 3 35.7604 10.7236 104.7290 0.0000 0.0000 0.0000
# 4 0.0000 0.0000 0.0000 25.3170 0.0000 0.0000
# 5 0.0000 0.0000 0.0000 0.0000 23.7025 0.0000
# 6 0.0000 0.0000 0.0000 0.0000 0.0000 16.2709
#
#
#
# Elastic Compliance Matrix: (Units=1/GPa)
#
#
# Indices 1 2 3 4 5 6 
#
# 1 0.012241 -0.005872 -0.003578 0.000000 0.000000 0.000000
# 2 -0.005872 0.014311 0.000540 0.000000 0.000000 0.000000
# 3 -0.003578 0.000540 0.010715 0.000000 0.000000 0.000000
# 4 0.000000 0.000000 0.000000 0.039499 0.000000 0.000000
# 5 0.000000 0.000000 0.000000 0.000000 0.042190 0.000000
# 6 0.000000 0.000000 0.000000 0.000000 0.000000 0.061459
#
#
# Mechanical properties :
#
#
# Convention : Reuss Voigt Hill
#
# Bulk Modulus (GPa) = 51.42673 54.50226 52.96449
# Shear Modulus (GPa) = 24.42377 27.38296 25.90336
#
# Velocity S-wave (km/s) = 3.28874 3.48228 3.38689
# Velocity P-wave (km/s) = 6.09877 6.34856 6.22491
#
# Compressibility (1/GPa) = 0.01944514
#
# Stress axis : x y z
#
# Youngs Moduli (GPa) = 81.69410 69.87625 93.32652
#
# Poissons Ratio (x) = 0.41033 0.33396
# Poissons Ratio (y) = 0.47972 -0.05037
# Poissons Ratio (z) = 0.29234 -0.03771
#
# Static dielectric constant tensor:
#      x y z
#    x 3.902400 0.000000 0.000000 
#    y 0.000000 4.549710 0.000000 
#    z 0.000000 0.000000 4.411520 
# 
# 
# High freq. dielectric constant tensor:
#      x y z
#    x 1.889130 0.000000 0.000000 
#    y 0.000000 1.898240 0.000000 
#    z 0.000000 0.000000 1.900060 
# 
# From -- ./inp_files/27439.got.cif
#   From: 2010.03.12/outbox.cif.g09.slc.cpg/sg64_14_cif.got.tgz:27439.got - 2010.04.10 20:19:32.
