data_PCOD8264491
_publ_section_title
;
Structure prediction by ZEFSAII (Michael W. Deem and Ramdas Pophale) SiO2 
 PCOD8264491
Probable space group: C M C A
;
_chemical_formula_sum "Si O2"
_cell_formula_units_Z 72
_cell_length_a 24.827193
_cell_length_b 9.549935
_cell_length_c 15.388187
_cell_angle_alpha 90.000000
_cell_angle_beta 90.000000
_cell_angle_gamma 90.000000
_cell_volume 3648.509583
_symmetry_space_group_name_H-M "C M C A"
_symmetry_group_IT_number 64
_symmetry_cell_setting 'orthorhombic'
loop_
_space_group_symop_operation_xyz
x,y,z
-x,1/2-y,1/2+z
x,-y,-z
-x,1/2+y,1/2-z
-x,-y,-z
x,1/2+y,1/2-z
-x,y,z
x,1/2-y,1/2+z
1/2+x,1/2+y,z
1/2-x,-y,1/2+z
1/2+x,1/2-y,-z
1/2-x,y,1/2-z
1/2-x,1/2-y,-z
1/2+x,y,1/2-z
1/2-x,1/2+y,z
1/2+x,-y,1/2+z
loop_
_atom_site_type_symbol
_atom_site_label
_atom_site_fract_x
_atom_site_fract_y
_atom_site_fract_z
Si Si1 0.626945 0.000000 0.500000
Si Si2 0.883934 0.091959 0.718772
Si Si3 0.704419 0.475730 0.601501
Si Si4 0.803029 0.339984 0.367797
Si Si5 0.563051 0.372630 0.842257
O O1 0.664421 0.886499 0.453123
O O2 0.591012 0.915541 0.568047
O O3 0.853668 0.016996 0.639296
O O4 0.840379 0.155912 0.783808
O O5 0.920853 0.215465 0.682332
O O6 0.921441 0.978127 0.765246
O O7 0.703416 0.500000 0.500000
O O8 0.751460 0.562871 0.647951
O O9 0.718584 0.315484 0.619664
O O10 0.500000 0.379359 0.857892
#
# Coordination Sequence:
#
# PCOD8264491 Si02
#       5
#     8  16  16  16  16
#     4  10  23  42  68  96 126 168 213 264 324 386
#     4  11  24  41  65  93 130 165 214 263 317 379
#     4  12  24  39  64  94 132 169 205 256 313 384
#     4  11  24  40  62  96 131 169 208 251 317 384
#     4  11  23  44  68  91 123 168 219 272 322 373
#
# _framework density 19.734085
#
# number of rings (size 3 to 8) (size 9 to 14) (size 15 to 20)
#    0.000    0.889    3.333    3.667    6.222    1.778 
#    0.000    0.000    0.000    2.667    0.000    0.000 
#    0.000    0.000    0.000    0.000    0.000    0.000 
#
# Total GULP energy -446663.284314 kJ/mol
# GULP energy per Si atom -12407.313453 kJ/mol
# Density = 1.968917 g / cm^3
# Si number density = 19.734085 Si / 1000 Ang^3
#
#
#
# Elastic Constant Matrix: (Units=GPa)
#
#
# Indices 1 2 3 4 5 6 
#
# 1 96.9137 54.6449 21.0411 0.0000 0.0000 0.0000
# 2 54.6449 142.9418 9.5805 0.0000 0.0000 0.0000
# 3 21.0411 9.5805 41.7775 0.0000 0.0000 0.0000
# 4 0.0000 0.0000 0.0000 25.6304 0.0000 0.0000
# 5 0.0000 0.0000 0.0000 0.0000 17.4350 0.0000
# 6 0.0000 0.0000 0.0000 0.0000 0.0000 38.0986
#
#
#
# Elastic Compliance Matrix: (Units=1/GPa)
#
#
# Indices 1 2 3 4 5 6 
#
# 1 0.014560 -0.005154 -0.006151 0.000000 0.000000 0.000000
# 2 -0.005154 0.008929 0.000548 0.000000 0.000000 0.000000
# 3 -0.006151 0.000548 0.026909 0.000000 0.000000 0.000000
# 4 0.000000 0.000000 0.000000 0.039016 0.000000 0.000000
# 5 0.000000 0.000000 0.000000 0.000000 0.057356 0.000000
# 6 0.000000 0.000000 0.000000 0.000000 0.000000 0.026248
#
#
# Mechanical properties :
#
#
# Convention : Reuss Voigt Hill
#
# Bulk Modulus (GPa) = 34.62127 50.24068 42.43097
# Shear Modulus (GPa) = 24.49064 29.32389 26.90727
#
# Velocity S-wave (km/s) = 3.52665 3.85899 3.69656
# Velocity P-wave (km/s) = 5.84508 6.73571 6.30614
#
# Compressibility (1/GPa) = 0.02888398
#
# Stress axis : x y z
#
# Youngs Moduli (GPa) = 68.68166 111.99006 37.16275
#
# Poissons Ratio (x) = 0.57718 0.22859
# Poissons Ratio (y) = 0.35397 -0.02036
# Poissons Ratio (z) = 0.42247 -0.06137
#
# Static dielectric constant tensor:
#      x y z
#    x 3.609900 0.000000 0.000000 
#    y 0.000000 3.815290 0.000000 
#    z 0.000000 0.000000 4.023820 
# 
# 
# High freq. dielectric constant tensor:
#      x y z
#    x 1.769760 0.000000 0.000000 
#    y 0.000000 1.783200 0.000000 
#    z 0.000000 0.000000 1.782470 
# 
# From -- ./inp_files/27795.got.cif
#   From: 2010.03.12/outbox.cif.g09.slc.cpg/sg64_14_cif.got.tgz:27795.got - 2010.04.10 20:19:32.
