data_PCOD8264270
_publ_section_title
;
Structure prediction by ZEFSAII (Michael W. Deem and Ramdas Pophale) SiO2 
 PCOD8264270
Probable space group: C M C A
;
_chemical_formula_sum "Si O2"
_cell_formula_units_Z 80
_cell_length_a 18.173086
_cell_length_b 7.588970
_cell_length_c 26.139444
_cell_angle_alpha 90.000000
_cell_angle_beta 90.000000
_cell_angle_gamma 90.000000
_cell_volume 3605.021536
_symmetry_space_group_name_H-M "C M C A"
_symmetry_group_IT_number 64
_symmetry_cell_setting 'orthorhombic'
loop_
_space_group_symop_operation_xyz
x,y,z
-x,1/2-y,1/2+z
x,-y,-z
-x,1/2+y,1/2-z
-x,-y,-z
x,1/2+y,1/2-z
-x,y,z
x,1/2-y,1/2+z
1/2+x,1/2+y,z
1/2-x,-y,1/2+z
1/2+x,1/2-y,-z
1/2-x,y,1/2-z
1/2-x,1/2-y,-z
1/2+x,y,1/2-z
1/2-x,1/2+y,z
1/2+x,-y,1/2+z
loop_
_atom_site_type_symbol
_atom_site_label
_atom_site_fract_x
_atom_site_fract_y
_atom_site_fract_z
Si Si1 0.813496 0.964400 0.443207
Si Si2 0.918086 0.676062 0.412006
Si Si3 0.918073 0.290466 0.701492
Si Si4 0.169614 0.174453 0.891952
Si Si5 0.172866 0.390634 0.278772
O O1 0.871528 0.804010 0.448671
O O2 0.749239 0.899657 0.406363
O O3 0.782422 0.000000 0.500000
O O4 0.849143 0.143778 0.420953
O O5 0.918604 0.774437 0.357014
O O6 0.889274 0.475236 0.407116
O O7 0.000000 0.662712 0.434814
O O8 0.897633 0.141015 0.742044
O O9 0.845363 0.411799 0.705189
O O10 0.000000 0.367240 0.714142
O O11 0.170916 0.222273 0.831230
O O12 0.250000 0.376506 0.250000
#
# Coordination Sequence:
#
# PCOD8264270 Si02
#       5
#    16  16  16  16  16
#     4  12  25  44  73  97 125 174 228 276 335 390
#     4  10  24  45  66  98 138 169 212 273 328 389
#     4  10  22  40  60  89 131 172 204 252 322 388
#     4  11  25  42  68  98 130 171 220 269 327 393
#     4  11  23  36  62  94 126 163 212 262 314 379
#
# _framework density 22.191268000000001
#
# number of rings (size 3 to 8) (size 9 to 14) (size 15 to 20)
#    0.000    1.200    2.000    3.000    8.400    2.000 
#    0.000    1.000    0.000    0.000    0.000    0.000 
#    0.000    0.000    0.000    0.000    0.000    0.000 
#
# Total GULP energy -495711.971277 kJ/mol
# GULP energy per Si atom -12392.799282 kJ/mol
# Density = 2.214076 g / cm^3
# Si number density = 22.191268 Si / 1000 Ang^3
#
#
#
# Elastic Constant Matrix: (Units=GPa)
#
#
# Indices 1 2 3 4 5 6 
#
# 1 110.0929 12.0282 3.3977 0.0000 0.0000 0.0000
# 2 12.0282 69.7723 3.4588 0.0000 0.0000 0.0000
# 3 3.3977 3.4588 48.0890 0.0000 0.0000 0.0000
# 4 0.0000 0.0000 0.0000 26.6725 0.0000 0.0000
# 5 0.0000 0.0000 0.0000 0.0000 17.7303 0.0000
# 6 0.0000 0.0000 0.0000 0.0000 0.0000 22.1425
#
#
#
# Elastic Compliance Matrix: (Units=1/GPa)
#
#
# Indices 1 2 3 4 5 6 
#
# 1 0.009272 -0.001571 -0.000542 0.000000 0.000000 0.000000
# 2 -0.001571 0.014650 -0.000943 0.000000 0.000000 0.000000
# 3 -0.000542 -0.000943 0.020901 0.000000 0.000000 0.000000
# 4 0.000000 0.000000 0.000000 0.037492 0.000000 0.000000
# 5 0.000000 0.000000 0.000000 0.000000 0.056401 0.000000
# 6 0.000000 0.000000 0.000000 0.000000 0.000000 0.045162
#
#
# Mechanical properties :
#
#
# Convention : Reuss Voigt Hill
#
# Bulk Modulus (GPa) = 25.83307 29.52486 27.67896
# Shear Modulus (GPa) = 24.64354 27.24701 25.94527
#
# Velocity S-wave (km/s) = 3.33604 3.50784 3.42302
# Velocity P-wave (km/s) = 5.14833 5.45345 5.30308
#
# Compressibility (1/GPa) = 0.03871008
#
# Stress axis : x y z
#
# Youngs Moduli (GPa) = 107.85552 68.25946 47.84484
#
# Poissons Ratio (x) = 0.10727 0.02593
# Poissons Ratio (y) = 0.16949 0.04510
# Poissons Ratio (z) = 0.05846 0.06435
#
# Static dielectric constant tensor:
#      x y z
#    x 3.911990 0.000000 0.000000 
#    y 0.000000 3.989340 0.000000 
#    z 0.000000 0.000000 4.557540 
# 
# 
# High freq. dielectric constant tensor:
#      x y z
#    x 1.873030 0.000000 0.000000 
#    y 0.000000 1.864350 0.000000 
#    z 0.000000 0.000000 1.877380 
# 
# From -- ./inp_files/50299.got.cif
#   From: 2010.03.12/outbox.cif.g09.slc.cpg/sg64_26_cif.got.tgz:50299.got - 2010.04.10 20:19:32.
