data_PCOD8264245
_publ_section_title
;
Structure prediction by ZEFSAII (Michael W. Deem and Ramdas Pophale) SiO2 
 PCOD8264245
Probable space group: C M C A
;
_chemical_formula_sum "Si O2"
_cell_formula_units_Z 80
_cell_length_a 10.065755
_cell_length_b 26.229498
_cell_length_c 16.052870
_cell_angle_alpha 90.000000
_cell_angle_beta 90.000000
_cell_angle_gamma 90.000000
_cell_volume 4238.273932
_symmetry_space_group_name_H-M "C M C A"
_symmetry_group_IT_number 64
_symmetry_cell_setting 'orthorhombic'
loop_
_space_group_symop_operation_xyz
x,y,z
-x,1/2-y,1/2+z
x,-y,-z
-x,1/2+y,1/2-z
-x,-y,-z
x,1/2+y,1/2-z
-x,y,z
x,1/2-y,1/2+z
1/2+x,1/2+y,z
1/2-x,-y,1/2+z
1/2+x,1/2-y,-z
1/2-x,y,1/2-z
1/2-x,1/2-y,-z
1/2+x,y,1/2-z
1/2-x,1/2+y,z
1/2+x,-y,1/2+z
loop_
_atom_site_type_symbol
_atom_site_label
_atom_site_fract_x
_atom_site_fract_y
_atom_site_fract_z
Si Si1 0.500000 0.418188 0.632756
Si Si2 0.847513 0.759409 0.575284
Si Si3 0.000000 0.490040 0.239246
Si Si4 0.753820 0.134543 0.080735
Si Si5 0.348606 0.648742 0.892411
Si Si6 0.250000 0.918642 0.250000
Si Si7 0.500000 0.593119 0.182957
O O1 0.500000 0.478869 0.651794
O O2 0.368810 0.404641 0.580624
O O3 0.500000 0.387459 0.721257
O O4 0.750000 0.750000 0.500000
O O5 0.796760 0.811284 0.619028
O O6 0.838359 0.708819 0.632767
O O7 0.000000 0.766654 0.544296
O O8 0.125603 0.454625 0.243619
O O9 0.000000 0.530928 0.316001
O O10 0.869443 0.113505 0.138482
O O11 0.803427 0.140034 0.986801
O O12 0.500000 0.629768 0.882704
O O13 0.255151 0.616929 0.831329
#
# Coordination Sequence:
#
# PCOD8264245 Si02
#       7
#     8  16   8  16  16   8   8
#     4  10  22  39  62  93 120 156 209 255 321 369
#     4   9  19  36  60  90 129 163 194 248 307 361
#     4  10  24  42  64  82 128 166 196 266 330 356
#     4  11  19  40  65  95 127 158 203 260 306 371
#     4  10  22  41  63  89 124 166 208 241 303 380
#     4  12  22  46  62  86 120 172 206 256 310 364
#     4  10  22  39  64  89 124 168 195 251 335 373
#
# _framework density 18.875609000000001
#
# number of rings (size 3 to 8) (size 9 to 14) (size 15 to 20)
#    0.600    1.200    3.000    1.800    1.400    0.800 
#    5.400    6.000    0.000    0.000    0.000    0.000 
#    0.000    0.000    0.000    0.000    0.000    0.000 
#
# Total GULP energy -495714.321696 kJ/mol
# GULP energy per Si atom -12392.858042 kJ/mol
# Density = 1.883265 g / cm^3
# Si number density = 18.875609 Si / 1000 Ang^3
#
#
#
# Elastic Constant Matrix: (Units=GPa)
#
#
# Indices 1 2 3 4 5 6 
#
# 1 150.8228 70.0695 25.1224 0.0000 0.0000 0.0000
# 2 70.0695 140.1037 41.4847 0.0000 0.0000 0.0000
# 3 25.1224 41.4847 62.3399 0.0000 0.0000 0.0000
# 4 0.0000 0.0000 0.0000 32.7726 0.0000 0.0000
# 5 0.0000 0.0000 0.0000 0.0000 29.9082 0.0000
# 6 0.0000 0.0000 0.0000 0.0000 0.0000 -6.4004
#
#
#
# Elastic Compliance Matrix: (Units=1/GPa)
#
#
# Indices 1 2 3 4 5 6 
#
# 1 0.008666 -0.004110 -0.000757 0.000000 0.000000 0.000000
# 2 -0.004110 0.010838 -0.005556 0.000000 0.000000 0.000000
# 3 -0.000757 -0.005556 0.020044 0.000000 0.000000 0.000000
# 4 0.000000 0.000000 0.000000 0.030513 0.000000 0.000000
# 5 0.000000 0.000000 0.000000 0.000000 0.033436 0.000000
# 6 0.000000 0.000000 0.000000 0.000000 0.000000 -0.156240
#
#
# Mechanical properties :
#
#
# Convention : Reuss Voigt Hill
#
# Bulk Modulus (GPa) = 53.47277 69.62438 61.54857
# Shear Modulus (GPa) = -194.83063 25.69541 -84.56761
#
# Velocity S-wave (km/s) = -10.17066 3.69359 -6.70073
# Velocity P-wave (km/s) = 10.46578 7.42671 5.21423
#
# Compressibility (1/GPa) = 0.01870111
#
# Stress axis : x y z
#
# Youngs Moduli (GPa) = 115.39692 92.26694 49.89094
#
# Poissons Ratio (x) = 0.37919 0.03779
# Poissons Ratio (y) = 0.47425 0.27720
# Poissons Ratio (z) = 0.08740 0.51265
#
# Static dielectric constant tensor:
#      x y z
#    x 6.848900 0.000000 0.000000 
#    y 0.000000 3.933210 0.000000 
#    z 0.000000 0.000000 3.170760 
# 
# 
# High freq. dielectric constant tensor:
#      x y z
#    x 1.753770 0.000000 0.000000 
#    y 0.000000 1.747030 0.000000 
#    z 0.000000 0.000000 1.699000 
# 
# From -- ./inp_files/29888.got.cif
#   From: 2010.03.12/outbox.cif.g09.slc.cpg/sg64_15_cif.got.tgz:29888.got - 2010.04.10 20:19:32.
