data_PCOD8264555
_publ_section_title
;
Structure prediction by ZEFSAII (Michael W. Deem and Ramdas Pophale) SiO2 
 PCOD8264555
Probable space group: C M C A
;
_chemical_formula_sum "Si O2"
_cell_formula_units_Z 72
_cell_length_a 27.016066
_cell_length_b 8.477814
_cell_length_c 13.137477
_cell_angle_alpha 90.000000
_cell_angle_beta 90.000000
_cell_angle_gamma 90.000000
_cell_volume 3008.970718
_symmetry_space_group_name_H-M "C M C A"
_symmetry_group_IT_number 64
_symmetry_cell_setting 'orthorhombic'
loop_
_space_group_symop_operation_xyz
x,y,z
-x,1/2-y,1/2+z
x,-y,-z
-x,1/2+y,1/2-z
-x,-y,-z
x,1/2+y,1/2-z
-x,y,z
x,1/2-y,1/2+z
1/2+x,1/2+y,z
1/2-x,-y,1/2+z
1/2+x,1/2-y,-z
1/2-x,y,1/2-z
1/2-x,1/2-y,-z
1/2+x,y,1/2-z
1/2-x,1/2+y,z
1/2+x,-y,1/2+z
loop_
_atom_site_type_symbol
_atom_site_label
_atom_site_fract_x
_atom_site_fract_y
_atom_site_fract_z
Si Si1 0.250000 0.916117 0.750000
Si Si2 0.181822 0.323380 0.169274
Si Si3 0.366359 0.500000 0.500000
Si Si4 0.395326 0.258946 0.153078
Si Si5 0.500000 0.862525 0.273701
Si Si6 0.086058 0.500000 0.500000
Si Si7 0.000000 0.834292 0.898240
O O1 0.225889 0.804577 0.837157
O O2 0.204849 0.011544 0.703824
O O3 0.139698 0.261681 0.247729
O O4 0.162623 0.355866 0.055231
O O5 0.394053 0.592274 0.408276
O O6 0.452015 0.275196 0.183367
O O7 0.380362 0.414547 0.085052
O O8 0.500000 0.840368 0.150564
O O9 0.500000 0.044770 0.302546
O O10 0.049888 0.641175 0.462173
#
# Coordination Sequence:
#
# PCOD8264555 Si02
#       7
#     8  16   8  16   8   8   8
#     4  10  24  50  78  96 148 180 228 306 370 420
#     4  11  25  49  69 111 140 182 236 300 356 437
#     4  12  28  43  75 110 143 193 240 290 366 430
#     4  11  26  44  69 106 146 188 239 297 349 424
#     4  10  24  39  66  98 143 198 221 302 344 408
#     4   9  22  40  63  92 135 191 236 281 350 411
#     4   9  20  38  60  94 127 187 245 270 345 414
#
# _framework density 23.928446999999998
#
# number of rings (size 3 to 8) (size 9 to 14) (size 15 to 20)
#    0.000    1.556    2.222    0.667   12.444    1.333 
#    0.000    0.000    0.000    0.000    0.000    0.000 
#    0.000    0.000    0.000    0.000    0.000    0.000 
#
# Total GULP energy -446039.835500 kJ/mol
# GULP energy per Si atom -12389.995431 kJ/mol
# Density = 2.387399 g / cm^3
# Si number density = 23.928447 Si / 1000 Ang^3
#
#
#
# Elastic Constant Matrix: (Units=GPa)
#
#
# Indices 1 2 3 4 5 6 
#
# 1 92.1602 31.5048 22.0800 0.0000 0.0000 0.0000
# 2 31.5048 64.4168 18.5072 0.0000 0.0000 0.0000
# 3 22.0800 18.5072 92.1863 0.0000 0.0000 0.0000
# 4 0.0000 0.0000 0.0000 59.5069 0.0000 0.0000
# 5 0.0000 0.0000 0.0000 0.0000 12.1975 0.0000
# 6 0.0000 0.0000 0.0000 0.0000 0.0000 -1.0872
#
#
#
# Elastic Compliance Matrix: (Units=1/GPa)
#
#
# Indices 1 2 3 4 5 6 
#
# 1 0.013369 -0.005963 -0.002005 0.000000 0.000000 0.000000
# 2 -0.005963 0.019133 -0.002413 0.000000 0.000000 0.000000
# 3 -0.002005 -0.002413 0.011812 0.000000 0.000000 0.000000
# 4 0.000000 0.000000 0.000000 0.016805 0.000000 0.000000
# 5 0.000000 0.000000 0.000000 0.000000 0.081984 0.000000
# 6 0.000000 0.000000 0.000000 0.000000 0.000000 -0.919766
#
#
# Mechanical properties :
#
#
# Convention : Reuss Voigt Hill
#
# Bulk Modulus (GPa) = 42.45654 43.66080 43.05867
# Shear Modulus (GPa) = -6.68405 25.90154 9.60875
#
# Velocity S-wave (km/s) = -1.67314 3.29364 2.00607
# Velocity P-wave (km/s) = 3.74821 5.72277 4.83731
#
# Compressibility (1/GPa) = 0.02355350
#
# Stress axis : x y z
#
# Youngs Moduli (GPa) = 74.79795 52.26482 84.65758
#
# Poissons Ratio (x) = 0.31163 0.16975
# Poissons Ratio (y) = 0.44599 0.20428
# Poissons Ratio (z) = 0.14998 0.12612
#
# Static dielectric constant tensor:
#      x y z
#    x 4.162390 0.000000 0.000000 
#    y 0.000000 4.380500 0.000000 
#    z 0.000000 0.000000 4.497700 
# 
# 
# High freq. dielectric constant tensor:
#      x y z
#    x 1.938310 0.000000 0.000000 
#    y 0.000000 1.955660 0.000000 
#    z 0.000000 0.000000 1.942210 
# 
# From -- ./inp_files/27873.got.cif
#   From: 2010.03.12/outbox.cif.g09.slc.cpg/sg64_14_cif.got.tgz:27873.got - 2010.04.10 20:19:32.
