data_PCOD8264924
_publ_section_title
;
Structure prediction by ZEFSAII (Michael W. Deem and Ramdas Pophale) SiO2 
 PCOD8264924
Probable space group: C M C A
;
_chemical_formula_sum "Si O2"
_cell_formula_units_Z 40
_cell_length_a 9.535710
_cell_length_b 11.478497
_cell_length_c 13.864073
_cell_angle_alpha 90.000000
_cell_angle_beta 90.000000
_cell_angle_gamma 90.000000
_cell_volume 1517.500687
_symmetry_space_group_name_H-M "C M C A"
_symmetry_group_IT_number 64
_symmetry_cell_setting 'orthorhombic'
loop_
_space_group_symop_operation_xyz
x,y,z
-x,1/2-y,1/2+z
x,-y,-z
-x,1/2+y,1/2-z
-x,-y,-z
x,1/2+y,1/2-z
-x,y,z
x,1/2-y,1/2+z
1/2+x,1/2+y,z
1/2-x,-y,1/2+z
1/2+x,1/2-y,-z
1/2-x,y,1/2-z
1/2-x,1/2-y,-z
1/2+x,y,1/2-z
1/2-x,1/2+y,z
1/2+x,-y,1/2+z
loop_
_atom_site_type_symbol
_atom_site_label
_atom_site_fract_x
_atom_site_fract_y
_atom_site_fract_z
Si Si1 0.500000 0.894423 0.374454
Si Si2 0.778945 0.079189 0.143392
Si Si3 0.500000 0.221033 0.836222
Si Si4 0.500000 0.849316 0.961334
O O1 0.500000 0.845837 0.265189
O O2 0.500000 0.789805 0.449896
O O3 0.633703 0.972974 0.401846
O O4 0.750000 0.033775 0.250000
O O5 0.636947 0.094883 0.084804
O O6 0.861382 0.200824 0.152878
O O7 0.500000 0.126404 0.923427
#
# Coordination Sequence:
#
# PCOD8264924 Si02
#       4
#     8  16   8   8
#     4  11  26  48  77 100 158 205 229 318 379 419
#     4  11  24  48  74 109 147 200 251 293 377 449
#     4  11  25  50  79 109 152 200 245 309 372 444
#     4  12  25  51  77 113 150 188 261 308 360 447
#
# _framework density 26.359131999999999
#
# number of rings (size 3 to 8) (size 9 to 14) (size 15 to 20)
#    0.000    0.800    4.000    2.400    5.600    3.200 
#    7.200    2.000    0.000    0.000    0.000    0.000 
#    0.000    0.000    0.000    0.000    0.000    0.000 
#
# Total GULP energy -248066.770207 kJ/mol
# GULP energy per Si atom -12403.338510 kJ/mol
# Density = 2.629914 g / cm^3
# Si number density = 26.359132 Si / 1000 Ang^3
#
#
#
# Elastic Constant Matrix: (Units=GPa)
#
#
# Indices 1 2 3 4 5 6 
#
# 1 188.9673 79.8581 17.2158 0.0000 0.0000 0.0000
# 2 79.8581 135.9274 11.8002 0.0000 0.0000 0.0000
# 3 17.2158 11.8002 92.1565 0.0000 0.0000 0.0000
# 4 0.0000 0.0000 0.0000 -81.3833 0.0000 0.0000
# 5 0.0000 0.0000 0.0000 0.0000 -17.4124 0.0000
# 6 0.0000 0.0000 0.0000 0.0000 0.0000 18.0518
#
#
#
# Elastic Compliance Matrix: (Units=1/GPa)
#
#
# Indices 1 2 3 4 5 6 
#
# 1 0.007098 -0.004100 -0.000801 0.000000 0.000000 0.000000
# 2 -0.004100 0.009808 -0.000490 0.000000 0.000000 0.000000
# 3 -0.000801 -0.000490 0.011063 0.000000 0.000000 0.000000
# 4 0.000000 0.000000 0.000000 -0.012288 0.000000 0.000000
# 5 0.000000 0.000000 0.000000 0.000000 -0.057430 0.000000
# 6 0.000000 0.000000 0.000000 0.000000 0.000000 0.055396
#
#
# Mechanical properties :
#
#
# Convention : Reuss Voigt Hill
#
# Bulk Modulus (GPa) = 58.18306 70.53326 64.35816
# Shear Modulus (GPa) = 165.78654 4.39636 85.09145
#
# Velocity S-wave (km/s) = 7.93926 1.29286 5.68785
# Velocity P-wave (km/s) = 10.30357 5.38937 8.22219
#
# Compressibility (1/GPa) = 0.01718713
#
# Stress axis : x y z
#
# Youngs Moduli (GPa) = 140.88994 101.95317 90.38770
#
# Poissons Ratio (x) = 0.41805 0.07239
# Poissons Ratio (y) = 0.57771 0.04428
# Poissons Ratio (z) = 0.11284 0.04995
#
# Static dielectric constant tensor:
#      x y z
#    x 4.576990 0.000000 0.000000 
#    y 0.000000 4.909390 0.000000 
#    z 0.000000 0.000000 4.897600 
# 
# 
# High freq. dielectric constant tensor:
#      x y z
#    x 2.070810 0.000000 0.000000 
#    y 0.000000 2.070420 0.000000 
#    z 0.000000 0.000000 2.072610 
# 
# From -- ./inp_files/20364.got.cif
#   From: 2010.03.12/outbox.cif.g09.slc.cpg/sg64_11_cif.got.tgz:20364.got - 2010.04.10 20:19:32.
