data_PCOD8264096
_publ_section_title
;
Structure prediction by ZEFSAII (Michael W. Deem and Ramdas Pophale) SiO2 
 PCOD8264096
Probable space group: C M C A
;
_chemical_formula_sum "Si O2"
_cell_formula_units_Z 120
_cell_length_a 25.944576
_cell_length_b 20.333259
_cell_length_c 10.836447
_cell_angle_alpha 90.000000
_cell_angle_beta 90.000000
_cell_angle_gamma 90.000000
_cell_volume 5716.635231
_symmetry_space_group_name_H-M "C M C A"
_symmetry_group_IT_number 64
_symmetry_cell_setting 'orthorhombic'
loop_
_space_group_symop_operation_xyz
x,y,z
-x,1/2-y,1/2+z
x,-y,-z
-x,1/2+y,1/2-z
-x,-y,-z
x,1/2+y,1/2-z
-x,y,z
x,1/2-y,1/2+z
1/2+x,1/2+y,z
1/2-x,-y,1/2+z
1/2+x,1/2-y,-z
1/2-x,y,1/2-z
1/2-x,1/2-y,-z
1/2+x,y,1/2-z
1/2-x,1/2+y,z
1/2+x,-y,1/2+z
loop_
_atom_site_type_symbol
_atom_site_label
_atom_site_fract_x
_atom_site_fract_y
_atom_site_fract_z
Si Si1 0.443336 0.377536 0.645434
Si Si2 0.218176 0.673654 0.866601
Si Si3 0.885248 0.100140 0.689031
Si Si4 0.389554 0.656611 0.117318
Si Si5 0.940507 0.433080 0.427540
Si Si6 0.410477 0.000000 0.000000
Si Si7 0.727146 0.170576 0.381243
Si Si8 0.558088 0.710230 0.579362
O O1 0.500000 0.368595 0.703868
O O2 0.401216 0.377366 0.752086
O O3 0.444653 0.446928 0.573571
O O4 0.430751 0.314636 0.559642
O O5 0.250000 0.646129 0.750000
O O6 0.161719 0.649444 0.831681
O O7 0.221338 0.751674 0.871511
O O8 0.237684 0.648066 0.001581
O O9 0.897280 0.068117 0.820721
O O10 0.875254 0.040133 0.595309
O O11 0.935346 0.145382 0.663800
O O12 0.329641 0.641616 0.092445
O O13 0.401235 0.734293 0.118682
O O14 0.427350 0.627929 0.014408
O O15 0.931422 0.500000 0.500000
O O16 0.000000 0.428028 0.381644
O O17 0.750000 0.143971 0.250000
O O18 0.500000 0.736565 0.595305
#
# Coordination Sequence:
#
# PCOD8264096 Si02
#       8
#    16  16  16  16  16   8  16  16
#     4  10  22  38  61  90 129 169 213 260 319 397
#     4  10  21  41  66  94 128 173 220 272 340 400
#     4  11  22  41  68  92 130 175 219 271 322 393
#     4  12  23  39  65  94 130 170 212 273 333 385
#     4  11  25  43  65  96 137 184 223 260 322 406
#     4  10  23  40  66  88 124 170 226 258 313 376
#     4  10  23  38  65  99 132 167 221 278 337 403
#     4  10  22  36  57  97 132 164 207 265 333 389
#
# _framework density 20.991368999999999
#
# number of rings (size 3 to 8) (size 9 to 14) (size 15 to 20)
#    0.000    1.467    1.333    3.400    5.600    3.733 
#    0.000    0.000    8.800    0.000    0.000    0.000 
#    0.000    0.000    0.000    0.000    0.000    0.000 
#
# Total GULP energy -743625.116757 kJ/mol
# GULP energy per Si atom -12393.751946 kJ/mol
# Density = 2.094359 g / cm^3
# Si number density = 20.991369 Si / 1000 Ang^3
#
#
#
# Elastic Constant Matrix: (Units=GPa)
#
#
# Indices 1 2 3 4 5 6 
#
# 1 102.5635 20.4810 51.8799 0.0000 0.0000 0.0000
# 2 20.4810 76.0307 31.5424 0.0000 0.0000 0.0000
# 3 51.8799 31.5424 140.9172 0.0000 0.0000 0.0000
# 4 0.0000 0.0000 0.0000 24.0321 0.0000 0.0000
# 5 0.0000 0.0000 0.0000 0.0000 -3.2582 0.0000
# 6 0.0000 0.0000 0.0000 0.0000 0.0000 23.4529
#
#
#
# Elastic Compliance Matrix: (Units=1/GPa)
#
#
# Indices 1 2 3 4 5 6 
#
# 1 0.012147 -0.001562 -0.004122 0.000000 0.000000 0.000000
# 2 -0.001562 0.014700 -0.002715 0.000000 0.000000 0.000000
# 3 -0.004122 -0.002715 0.009222 0.000000 0.000000 0.000000
# 4 0.000000 0.000000 0.000000 0.041611 0.000000 0.000000
# 5 0.000000 0.000000 0.000000 0.000000 -0.306914 0.000000
# 6 0.000000 0.000000 0.000000 0.000000 0.000000 0.042639
#
#
# Mechanical properties :
#
#
# Convention : Reuss Voigt Hill
#
# Bulk Modulus (GPa) = 51.89559 58.59090 55.24324
# Shear Modulus (GPa) = -30.60481 23.21922 -3.69280
#
# Velocity S-wave (km/s) = -3.82248 3.32946 -1.32779
# Velocity P-wave (km/s) = 2.30091 6.53857 4.90138
#
# Compressibility (1/GPa) = 0.01926946
#
# Stress axis : x y z
#
# Youngs Moduli (GPa) = 82.32317 68.02809 108.43772
#
# Poissons Ratio (x) = 0.10626 0.44703
# Poissons Ratio (y) = 0.12858 0.29444
# Poissons Ratio (z) = 0.33938 0.18472
#
# Static dielectric constant tensor:
#      x y z
#    x 3.698970 0.000000 0.000000 
#    y 0.000000 3.619130 0.000000 
#    z 0.000000 0.000000 4.031970 
# 
# 
# High freq. dielectric constant tensor:
#      x y z
#    x 1.813820 0.000000 0.000000 
#    y 0.000000 1.809160 0.000000 
#    z 0.000000 0.000000 1.831900 
# 
# From -- ./inp_files/18597.got.cif
#   From: 2010.03.12/outbox.cif.g09.slc.cpg/sg64_10_cif.got.tgz:18597.got - 2010.04.10 20:19:32.
