data_PCOD8264591
_publ_section_title
;
Structure prediction by ZEFSAII (Michael W. Deem and Ramdas Pophale) SiO2 
 PCOD8264591
Probable space group: C M C A
;
_chemical_formula_sum "Si O2"
_cell_formula_units_Z 72
_cell_length_a 25.328401
_cell_length_b 14.456928
_cell_length_c 9.321702
_cell_angle_alpha 90.000000
_cell_angle_beta 90.000000
_cell_angle_gamma 90.000000
_cell_volume 3413.335728
_symmetry_space_group_name_H-M "C M C A"
_symmetry_group_IT_number 64
_symmetry_cell_setting 'orthorhombic'
loop_
_space_group_symop_operation_xyz
x,y,z
-x,1/2-y,1/2+z
x,-y,-z
-x,1/2+y,1/2-z
-x,-y,-z
x,1/2+y,1/2-z
-x,y,z
x,1/2-y,1/2+z
1/2+x,1/2+y,z
1/2-x,-y,1/2+z
1/2+x,1/2-y,-z
1/2-x,y,1/2-z
1/2-x,1/2-y,-z
1/2+x,y,1/2-z
1/2-x,1/2+y,z
1/2+x,-y,1/2+z
loop_
_atom_site_type_symbol
_atom_site_label
_atom_site_fract_x
_atom_site_fract_y
_atom_site_fract_z
Si Si1 0.856104 0.342290 0.658517
Si Si2 0.500000 0.304848 0.418748
Si Si3 0.611848 0.668274 0.477170
Si Si4 0.314132 0.500000 0.500000
Si Si5 0.087508 0.000000 0.000000
Si Si6 0.750000 0.584643 0.250000
Si Si7 0.500000 0.370197 0.103243
O O1 0.885140 0.318835 0.806814
O O2 0.869697 0.264532 0.544336
O O3 0.875690 0.442114 0.606056
O O4 0.792953 0.347962 0.677275
O O5 0.551719 0.355651 0.480895
O O6 0.500000 0.308862 0.246494
O O7 0.500000 0.197098 0.464933
O O8 0.649371 0.587666 0.535436
O O9 0.277598 0.482415 0.636361
O O10 0.051818 0.933633 0.098848
#
# Coordination Sequence:
#
# PCOD8264591 Si02
#       7
#    16   8  16   8   8   8   8
#     4  11  25  45  70  98 138 180 228 289 336 405
#     4  12  24  44  69 103 139 181 216 279 329 418
#     4  11  26  42  70 101 139 178 230 273 347 402
#     4  10  25  45  65 104 129 179 231 280 344 408
#     4  11  25  44  67 102 139 180 227 277 346 400
#     4  10  24  44  70  98 134 180 230 284 348 392
#     4  11  26  41  72  97 138 187 227 270 345 406
#
# _framework density 21.093737000000001
#
# number of rings (size 3 to 8) (size 9 to 14) (size 15 to 20)
#    0.000    1.111    2.222    2.000    6.222    7.556 
#    0.000    0.000    0.000    0.000    0.000    0.000 
#    0.000    0.000    0.000    0.000    0.000    0.000 
#
# Total GULP energy -446630.672575 kJ/mol
# GULP energy per Si atom -12406.407572 kJ/mol
# Density = 2.104573 g / cm^3
# Si number density = 21.093737 Si / 1000 Ang^3
#
#
#
# Elastic Constant Matrix: (Units=GPa)
#
#
# Indices 1 2 3 4 5 6 
#
# 1 171.1558 58.3231 62.7373 0.0000 0.0000 0.0000
# 2 58.3231 116.0474 74.9612 0.0000 0.0000 0.0000
# 3 62.7373 74.9612 144.1127 0.0000 0.0000 0.0000
# 4 0.0000 0.0000 0.0000 40.9177 0.0000 0.0000
# 5 0.0000 0.0000 0.0000 0.0000 18.3067 0.0000
# 6 0.0000 0.0000 0.0000 0.0000 0.0000 24.6342
#
#
#
# Elastic Compliance Matrix: (Units=1/GPa)
#
#
# Indices 1 2 3 4 5 6 
#
# 1 0.007392 -0.002464 -0.001936 0.000000 0.000000 0.000000
# 2 -0.002464 0.013799 -0.006105 0.000000 0.000000 0.000000
# 3 -0.001936 -0.006105 0.010957 0.000000 0.000000 0.000000
# 4 0.000000 0.000000 0.000000 0.024439 0.000000 0.000000
# 5 0.000000 0.000000 0.000000 0.000000 0.054625 0.000000
# 6 0.000000 0.000000 0.000000 0.000000 0.000000 0.040594
#
#
# Mechanical properties :
#
#
# Convention : Reuss Voigt Hill
#
# Bulk Modulus (GPa) = 89.78490 91.48434 90.63462
# Shear Modulus (GPa) = 28.32373 32.45801 30.39087
#
# Velocity S-wave (km/s) = 3.66834 3.92695 3.79984
# Velocity P-wave (km/s) = 7.78456 8.00161 7.89383
#
# Compressibility (1/GPa) = 0.01113773
#
# Stress axis : x y z
#
# Youngs Moduli (GPa) = 135.27924 72.46773 91.26268
#
# Poissons Ratio (x) = 0.17860 0.17670
# Poissons Ratio (y) = 0.33339 0.55715
# Poissons Ratio (z) = 0.26192 0.44241
#
# Static dielectric constant tensor:
#      x y z
#    x 4.199890 0.000000 0.000000 
#    y 0.000000 3.735880 0.000000 
#    z 0.000000 0.000000 3.753160 
# 
# 
# High freq. dielectric constant tensor:
#      x y z
#    x 1.848690 0.000000 0.000000 
#    y 0.000000 1.825380 0.000000 
#    z 0.000000 0.000000 1.831850 
# 
# From -- ./inp_files/10079.got.cif
#   From: 2010.03.12/outbox.cif.g09.slc.cpg/sg64_6_cif.got.tgz:10079.got - 2010.04.10 20:19:32.
