data_PCOD8264612
_publ_section_title
;
Structure prediction by ZEFSAII (Michael W. Deem and Ramdas Pophale) SiO2 
 PCOD8264612
Probable space group: C M C A
;
_chemical_formula_sum "Si O2"
_cell_formula_units_Z 64
_cell_length_a 10.037953
_cell_length_b 8.889825
_cell_length_c 31.146654
_cell_angle_alpha 90.000000
_cell_angle_beta 90.000000
_cell_angle_gamma 90.000000
_cell_volume 2779.391776
_symmetry_space_group_name_H-M "C M C A"
_symmetry_group_IT_number 64
_symmetry_cell_setting 'orthorhombic'
loop_
_space_group_symop_operation_xyz
x,y,z
-x,1/2-y,1/2+z
x,-y,-z
-x,1/2+y,1/2-z
-x,-y,-z
x,1/2+y,1/2-z
-x,y,z
x,1/2-y,1/2+z
1/2+x,1/2+y,z
1/2-x,-y,1/2+z
1/2+x,1/2-y,-z
1/2-x,y,1/2-z
1/2-x,1/2-y,-z
1/2+x,y,1/2-z
1/2-x,1/2+y,z
1/2+x,-y,1/2+z
loop_
_atom_site_type_symbol
_atom_site_label
_atom_site_fract_x
_atom_site_fract_y
_atom_site_fract_z
Si Si1 0.000000 0.797320 0.307519
Si Si2 0.709420 0.751555 0.343841
Si Si3 0.145350 0.251585 0.537943
Si Si4 0.738550 0.998042 0.403596
Si Si5 0.000000 0.643066 0.219494
O O1 0.868278 0.769579 0.335982
O O2 0.000000 0.673736 0.269892
O O3 0.000000 0.964712 0.287827
O O4 0.674398 0.614834 0.375898
O O5 0.631183 0.723343 0.299894
O O6 0.655352 0.900282 0.368587
O O7 0.250000 0.250000 0.500000
O O8 0.147096 0.409880 0.563327
O O9 0.000000 0.234515 0.516941
O O10 0.166112 0.113824 0.570323
#
# Coordination Sequence:
#
# PCOD8264612 Si02
#       5
#     8  16  16  16   8
#     4  12  28  48  68 110 147 185 238 300 353 423
#     4  11  25  46  73 104 144 188 242 291 351 415
#     4  11  26  48  72 106 146 185 234 291 356 429
#     4  10  25  43  72 102 141 188 232 291 345 416
#     4  12  28  46  74 102 147 193 234 290 365 421
#
# _framework density 23.026620000000001
#
# number of rings (size 3 to 8) (size 9 to 14) (size 15 to 20)
#    0.000    1.000    2.500    1.500   14.000    6.000 
#    4.500    0.000    0.000    0.000    0.000    0.000 
#    0.000    0.000    0.000    0.000    0.000    0.000 
#
# Total GULP energy -396714.751902 kJ/mol
# GULP energy per Si atom -12397.335997 kJ/mol
# Density = 2.297421 g / cm^3
# Si number density = 23.026620 Si / 1000 Ang^3
#
#
#
# Elastic Constant Matrix: (Units=GPa)
#
#
# Indices 1 2 3 4 5 6 
#
# 1 144.7404 35.3166 45.3909 0.0000 0.0000 0.0000
# 2 35.3166 151.2970 46.2977 0.0000 0.0000 0.0000
# 3 45.3909 46.2977 121.8881 0.0000 0.0000 0.0000
# 4 0.0000 0.0000 0.0000 29.9450 0.0000 0.0000
# 5 0.0000 0.0000 0.0000 0.0000 27.9993 0.0000
# 6 0.0000 0.0000 0.0000 0.0000 0.0000 13.7049
#
#
#
# Elastic Compliance Matrix: (Units=1/GPa)
#
#
# Indices 1 2 3 4 5 6 
#
# 1 0.007975 -0.001078 -0.002560 0.000000 0.000000 0.000000
# 2 -0.001078 0.007625 -0.002495 0.000000 0.000000 0.000000
# 3 -0.002560 -0.002495 0.010105 0.000000 0.000000 0.000000
# 4 0.000000 0.000000 0.000000 0.033395 0.000000 0.000000
# 5 0.000000 0.000000 0.000000 0.000000 0.035715 0.000000
# 6 0.000000 0.000000 0.000000 0.000000 0.000000 0.072966
#
#
# Mechanical properties :
#
#
# Convention : Reuss Voigt Hill
#
# Bulk Modulus (GPa) = 74.41232 74.65956 74.53594
# Shear Modulus (GPa) = 27.09637 33.72452 30.41045
#
# Velocity S-wave (km/s) = 3.43409 3.83115 3.63804
# Velocity P-wave (km/s) = 6.93613 7.21552 7.07720
#
# Compressibility (1/GPa) = 0.01343863
#
# Stress axis : x y z
#
# Youngs Moduli (GPa) = 125.39340 131.15566 98.95834
#
# Poissons Ratio (x) = 0.14139 0.25337
# Poissons Ratio (y) = 0.13518 0.24686
# Poissons Ratio (z) = 0.32105 0.32718
#
# Static dielectric constant tensor:
#      x y z
#    x 3.875190 0.000000 0.000000 
#    y 0.000000 4.565710 0.000000 
#    z 0.000000 0.000000 4.203940 
# 
# 
# High freq. dielectric constant tensor:
#      x y z
#    x 1.885100 0.000000 0.000000 
#    y 0.000000 1.933920 0.000000 
#    z 0.000000 0.000000 1.920950 
# 
# From -- ./inp_files/52480.got.cif
#   From: 2010.03.12/outbox.cif.g09.slc.cpg/sg64_27_cif.got.tgz:52480.got - 2010.04.10 20:19:32.
