data_PCOD8264155
_publ_section_title
;
Structure prediction by ZEFSAII (Michael W. Deem and Ramdas Pophale) SiO2 
 PCOD8264155
Probable space group: C M C A
;
_chemical_formula_sum "Si O2"
_cell_formula_units_Z 96
_cell_length_a 25.551196
_cell_length_b 21.290349
_cell_length_c 8.787046
_cell_angle_alpha 90.000000
_cell_angle_beta 90.000000
_cell_angle_gamma 90.000000
_cell_volume 4780.099249
_symmetry_space_group_name_H-M "C M C A"
_symmetry_group_IT_number 64
_symmetry_cell_setting 'orthorhombic'
loop_
_space_group_symop_operation_xyz
x,y,z
-x,1/2-y,1/2+z
x,-y,-z
-x,1/2+y,1/2-z
-x,-y,-z
x,1/2+y,1/2-z
-x,y,z
x,1/2-y,1/2+z
1/2+x,1/2+y,z
1/2-x,-y,1/2+z
1/2+x,1/2-y,-z
1/2-x,y,1/2-z
1/2-x,1/2-y,-z
1/2+x,y,1/2-z
1/2-x,1/2+y,z
1/2+x,-y,1/2+z
loop_
_atom_site_type_symbol
_atom_site_label
_atom_site_fract_x
_atom_site_fract_y
_atom_site_fract_z
Si Si1 0.819772 0.642379 0.369377
Si Si2 0.293822 0.653094 0.454977
Si Si3 0.881694 0.756753 0.457404
Si Si4 0.119970 0.057741 0.907899
Si Si5 0.561294 0.322191 0.196791
Si Si6 0.699061 0.461499 0.345368
O O1 0.766226 0.673629 0.431319
O O2 0.812473 0.615313 0.198107
O O3 0.864184 0.695835 0.361917
O O4 0.835121 0.586597 0.483371
O O5 0.329610 0.714539 0.468037
O O6 0.298014 0.611486 0.606347
O O7 0.922746 0.733637 0.583485
O O8 0.909790 0.809473 0.356019
O O9 0.076561 0.109209 0.866174
O O10 0.147364 0.030441 0.756881
O O11 0.093120 0.000000 0.000000
O O12 0.500000 0.320449 0.223993
O O13 0.694442 0.500000 0.500000
O O14 0.750000 0.482261 0.250000
#
# Coordination Sequence:
#
# PCOD8264155 Si02
#       6
#    16  16  16  16  16  16
#     4  10  22  36  60  90 130 165 204 238 301 377
#     4  11  21  36  58  90 125 166 201 248 296 371
#     4  11  21  41  60  91 125 159 202 256 315 369
#     4  11  23  42  62  89 125 164 209 258 313 371
#     4  11  24  42  67  90 117 161 213 271 320 367
#     4  12  24  37  60  89 127 167 208 246 301 369
#
# _framework density 20.083265000000001
#
# number of rings (size 3 to 8) (size 9 to 14) (size 15 to 20)
#    0.000    1.000    5.000    2.500    2.333    0.333 
#    3.000    0.000    0.000    0.500    0.000    0.000 
#    0.000    0.000    0.000    0.000    0.000    0.000 
#
# Total GULP energy -595223.604757 kJ/mol
# GULP energy per Si atom -12400.491766 kJ/mol
# Density = 2.003755 g / cm^3
# Si number density = 20.083265 Si / 1000 Ang^3
#
#
#
# Elastic Constant Matrix: (Units=GPa)
#
#
# Indices 1 2 3 4 5 6 
#
# 1 90.8215 28.0468 26.6318 0.0000 0.0000 0.0000
# 2 28.0468 82.0278 34.2467 0.0000 0.0000 0.0000
# 3 26.6318 34.2467 98.5992 0.0000 0.0000 0.0000
# 4 0.0000 0.0000 0.0000 36.8757 0.0000 0.0000
# 5 0.0000 0.0000 0.0000 0.0000 23.1603 0.0000
# 6 0.0000 0.0000 0.0000 0.0000 0.0000 21.8330
#
#
#
# Elastic Compliance Matrix: (Units=1/GPa)
#
#
# Indices 1 2 3 4 5 6 
#
# 1 0.012724 -0.003410 -0.002252 0.000000 0.000000 0.000000
# 2 -0.003410 0.015173 -0.004349 0.000000 0.000000 0.000000
# 3 -0.002252 -0.004349 0.012261 0.000000 0.000000 0.000000
# 4 0.000000 0.000000 0.000000 0.027118 0.000000 0.000000
# 5 0.000000 0.000000 0.000000 0.000000 0.043177 0.000000
# 6 0.000000 0.000000 0.000000 0.000000 0.000000 0.045802
#
#
# Mechanical properties :
#
#
# Convention : Reuss Voigt Hill
#
# Bulk Modulus (GPa) = 49.66502 49.92212 49.79357
# Shear Modulus (GPa) = 27.32389 28.54200 27.93295
#
# Velocity S-wave (km/s) = 3.69254 3.77395 3.73347
# Velocity P-wave (km/s) = 6.55462 6.62584 6.59033
#
# Compressibility (1/GPa) = 0.02013490
#
# Stress axis : x y z
#
# Youngs Moduli (GPa) = 78.59034 65.90795 81.55994
#
# Poissons Ratio (x) = 0.22477 0.18370
# Poissons Ratio (y) = 0.26802 0.35469
# Poissons Ratio (z) = 0.17701 0.28662
#
# Static dielectric constant tensor:
#      x y z
#    x 3.292910 0.000000 0.000000 
#    y 0.000000 3.529820 0.000000 
#    z 0.000000 0.000000 3.811510 
# 
# 
# High freq. dielectric constant tensor:
#      x y z
#    x 1.754620 0.000000 0.000000 
#    y 0.000000 1.780970 0.000000 
#    z 0.000000 0.000000 1.799630 
# 
# From -- ./inp_files/10367.got.cif
#   From: 2010.03.12/outbox.cif.g09.slc.cpg/sg64_6_cif.got.tgz:10367.got - 2010.04.10 20:19:32.
