data_PCOD8264344
_publ_section_title
;
Structure prediction by ZEFSAII (Michael W. Deem and Ramdas Pophale) SiO2 
 PCOD8264344
Probable space group: C M C A
;
_chemical_formula_sum "Si O2"
_cell_formula_units_Z 104
_cell_length_a 26.376123
_cell_length_b 9.955885
_cell_length_c 20.339707
_cell_angle_alpha 90.000000
_cell_angle_beta 90.000000
_cell_angle_gamma 90.000000
_cell_volume 5341.159206
_symmetry_space_group_name_H-M "C M C A"
_symmetry_group_IT_number 64
_symmetry_cell_setting 'orthorhombic'
loop_
_space_group_symop_operation_xyz
x,y,z
-x,1/2-y,1/2+z
x,-y,-z
-x,1/2+y,1/2-z
-x,-y,-z
x,1/2+y,1/2-z
-x,y,z
x,1/2-y,1/2+z
1/2+x,1/2+y,z
1/2-x,-y,1/2+z
1/2+x,1/2-y,-z
1/2-x,y,1/2-z
1/2-x,1/2-y,-z
1/2+x,y,1/2-z
1/2-x,1/2+y,z
1/2+x,-y,1/2+z
loop_
_atom_site_type_symbol
_atom_site_label
_atom_site_fract_x
_atom_site_fract_y
_atom_site_fract_z
Si Si1 0.942729 0.938488 0.206182
Si Si2 0.558240 0.397208 0.056798
Si Si3 0.886931 0.828849 0.733504
Si Si4 0.737721 0.876750 0.387776
Si Si5 0.798899 0.000000 0.500000
Si Si6 0.357743 0.797640 0.910064
Si Si7 0.785225 0.854544 0.810215
O O1 0.932914 0.075243 0.245544
O O2 0.000000 0.891810 0.219733
O O3 0.934531 0.964734 0.128391
O O4 0.905011 0.825081 0.233938
O O5 0.500000 0.354144 0.044640
O O6 0.592382 0.262953 0.054661
O O7 0.576136 0.500000 0.000000
O O8 0.869784 0.867172 0.659863
O O9 0.843128 0.854435 0.786916
O O10 0.681486 0.822288 0.398126
O O11 0.776569 0.765898 0.360761
O O12 0.761252 0.910611 0.457615
O O13 0.732594 0.004660 0.340444
O O14 0.835269 0.088686 0.455661
O O15 0.750000 0.818327 0.750000
#
# Coordination Sequence:
#
# PCOD8264344 Si02
#       7
#    16  16  16  16   8  16  16
#     4  10  22  41  66  95 128 159 206 264 316 377
#     4   9  20  41  68  94 122 163 213 259 311 375
#     4  11  23  40  64  96 122 168 208 255 324 367
#     4  12  25  42  61  91 127 173 208 263 313 375
#     4  12  26  42  59  92 129 170 220 254 316 380
#     4  11  24  41  63  90 128 168 206 263 317 369
#     4  12  24  38  64  91 129 159 212 259 312 382
#
# _framework density 19.471428
#
# number of rings (size 3 to 8) (size 9 to 14) (size 15 to 20)
#    0.000    1.077    3.077    3.231    5.385    1.846 
#    0.000    0.385    0.000    0.000    0.000    0.000 
#    0.000    0.000    0.000    0.000    0.000    0.000 
#
# Total GULP energy -644978.970826 kJ/mol
# GULP energy per Si atom -12403.441747 kJ/mol
# Density = 1.942711 g / cm^3
# Si number density = 19.471428 Si / 1000 Ang^3
#
#
#
# Elastic Constant Matrix: (Units=GPa)
#
#
# Indices 1 2 3 4 5 6 
#
# 1 79.7669 18.6530 35.9582 0.0000 0.0000 0.0000
# 2 18.6530 81.5403 43.2866 0.0000 0.0000 0.0000
# 3 35.9582 43.2866 85.4213 0.0000 0.0000 0.0000
# 4 0.0000 0.0000 0.0000 35.3035 0.0000 0.0000
# 5 0.0000 0.0000 0.0000 0.0000 31.7465 0.0000
# 6 0.0000 0.0000 0.0000 0.0000 0.0000 31.2298
#
#
#
# Elastic Compliance Matrix: (Units=1/GPa)
#
#
# Indices 1 2 3 4 5 6 
#
# 1 0.015473 -0.000112 -0.006457 0.000000 0.000000 0.000000
# 2 -0.000112 0.016778 -0.008455 0.000000 0.000000 0.000000
# 3 -0.006457 -0.008455 0.018709 0.000000 0.000000 0.000000
# 4 0.000000 0.000000 0.000000 0.028326 0.000000 0.000000
# 5 0.000000 0.000000 0.000000 0.000000 0.031500 0.000000
# 6 0.000000 0.000000 0.000000 0.000000 0.000000 0.032021
#
#
# Mechanical properties :
#
#
# Convention : Reuss Voigt Hill
#
# Bulk Modulus (GPa) = 47.81717 49.16936 48.49326
# Shear Modulus (GPa) = 27.80482 29.57800 28.69141
#
# Velocity S-wave (km/s) = 3.78296 3.90172 3.84280
# Velocity P-wave (km/s) = 6.60999 6.75313 6.68195
#
# Compressibility (1/GPa) = 0.02091299
#
# Stress axis : x y z
#
# Youngs Moduli (GPa) = 64.62704 59.60225 53.44975
#
# Poissons Ratio (x) = 0.00668 0.34511
# Poissons Ratio (y) = 0.00724 0.45191
# Poissons Ratio (z) = 0.41728 0.50393
#
# Static dielectric constant tensor:
#      x y z
#    x 3.749030 0.000000 0.000000 
#    y 0.000000 3.452360 0.000000 
#    z 0.000000 0.000000 3.945190 
# 
# 
# High freq. dielectric constant tensor:
#      x y z
#    x 1.769770 0.000000 0.000000 
#    y 0.000000 1.753990 0.000000 
#    z 0.000000 0.000000 1.765880 
# 
# From -- ./inp_files/41868.got.cif
#   From: 2010.03.12/outbox.cif.g09.slc.cpg/sg64_21_cif.got.tgz:41868.got - 2010.04.10 20:19:32.
