data_PCOD8264186
_publ_section_title
;
Structure prediction by ZEFSAII (Michael W. Deem and Ramdas Pophale) SiO2 
 PCOD8264186
Probable space group: C M C A
;
_chemical_formula_sum "Si O2"
_cell_formula_units_Z 72
_cell_length_a 19.957078
_cell_length_b 25.920310
_cell_length_c 7.386379
_cell_angle_alpha 90.000000
_cell_angle_beta 90.000000
_cell_angle_gamma 90.000000
_cell_volume 3820.926942
_symmetry_space_group_name_H-M "C M C A"
_symmetry_group_IT_number 64
_symmetry_cell_setting 'orthorhombic'
loop_
_space_group_symop_operation_xyz
x,y,z
-x,1/2-y,1/2+z
x,-y,-z
-x,1/2+y,1/2-z
-x,-y,-z
x,1/2+y,1/2-z
-x,y,z
x,1/2-y,1/2+z
1/2+x,1/2+y,z
1/2-x,-y,1/2+z
1/2+x,1/2-y,-z
1/2-x,y,1/2-z
1/2-x,1/2-y,-z
1/2+x,y,1/2-z
1/2-x,1/2+y,z
1/2+x,-y,1/2+z
loop_
_atom_site_type_symbol
_atom_site_label
_atom_site_fract_x
_atom_site_fract_y
_atom_site_fract_z
Si Si1 0.076372 0.620421 0.409341
Si Si2 0.614939 0.814656 0.258917
Si Si3 0.750000 0.370714 0.250000
Si Si4 0.924778 0.706869 0.131536
Si Si5 0.794622 0.442498 0.572011
O O1 0.078191 0.645330 0.608501
O O2 0.101831 0.662354 0.263925
O O3 0.127788 0.572801 0.391842
O O4 0.000000 0.601692 0.369611
O O5 0.688748 0.833182 0.210892
O O6 0.620066 0.758094 0.349801
O O7 0.573972 0.813141 0.073094
O O8 0.761585 0.405397 0.425185
O O9 0.000000 0.721735 0.191156
O O10 0.794107 0.500000 0.500000
O O11 0.750000 0.437962 0.750000
#
# Coordination Sequence:
#
# PCOD8264186 Si02
#       5
#    16  16   8  16  16
#     4  10  22  38  58  87 116 149 193 236 278 331
#     4  11  21  35  55  82 116 155 190 225 274 334
#     4  10  24  40  56  84 112 146 192 236 280 336
#     4  11  20  34  55  81 118 155 186 223 272 331
#     4  11  22  42  66  83 110 149 190 238 294 347
#
# _framework density 18.843592999999998
#
# number of rings (size 3 to 8) (size 9 to 14) (size 15 to 20)
#    0.000    1.333    3.333    3.333    0.000    1.333 
#    2.000    0.000    0.000    0.667    0.000    0.000 
#    0.000    0.000    0.000    0.000    0.000    0.000 
#
# Total GULP energy -446506.631819 kJ/mol
# GULP energy per Si atom -12402.961995 kJ/mol
# Density = 1.880070 g / cm^3
# Si number density = 18.843593 Si / 1000 Ang^3
#
#
#
# Elastic Constant Matrix: (Units=GPa)
#
#
# Indices 1 2 3 4 5 6 
#
# 1 110.6156 55.0475 37.9285 0.0000 0.0000 0.0000
# 2 55.0475 87.2732 40.2799 0.0000 0.0000 0.0000
# 3 37.9285 40.2799 102.8271 0.0000 0.0000 0.0000
# 4 0.0000 0.0000 0.0000 19.5584 0.0000 0.0000
# 5 0.0000 0.0000 0.0000 0.0000 26.3923 0.0000
# 6 0.0000 0.0000 0.0000 0.0000 0.0000 19.6740
#
#
#
# Elastic Compliance Matrix: (Units=1/GPa)
#
#
# Indices 1 2 3 4 5 6 
#
# 1 0.013507 -0.007593 -0.002008 0.000000 0.000000 0.000000
# 2 -0.007593 0.018255 -0.004350 0.000000 0.000000 0.000000
# 3 -0.002008 -0.004350 0.012170 0.000000 0.000000 0.000000
# 4 0.000000 0.000000 0.000000 0.051129 0.000000 0.000000
# 5 0.000000 0.000000 0.000000 0.000000 0.037890 0.000000
# 6 0.000000 0.000000 0.000000 0.000000 0.000000 0.050828
#
#
# Mechanical properties :
#
#
# Convention : Reuss Voigt Hill
#
# Bulk Modulus (GPa) = 62.38287 63.02530 62.70409
# Shear Modulus (GPa) = 23.03872 24.28896 23.66384
#
# Velocity S-wave (km/s) = 3.50040 3.59413 3.54758
# Velocity P-wave (km/s) = 7.03666 7.12340 7.08016
#
# Compressibility (1/GPa) = 0.01603004
#
# Stress axis : x y z
#
# Youngs Moduli (GPa) = 74.03307 54.77820 82.17037
#
# Poissons Ratio (x) = 0.41594 0.16499
# Poissons Ratio (y) = 0.56214 0.35747
# Poissons Ratio (z) = 0.14865 0.23830
#
# Static dielectric constant tensor:
#      x y z
#    x 3.512120 0.000000 0.000000 
#    y 0.000000 3.372120 0.000000 
#    z 0.000000 0.000000 3.584810 
# 
# 
# High freq. dielectric constant tensor:
#      x y z
#    x 1.731940 0.000000 0.000000 
#    y 0.000000 1.720770 0.000000 
#    z 0.000000 0.000000 1.749610 
# 
# From -- ./inp_files/1840.got.cif
#   From: 2010.03.12/outbox.cif.g09.slc.cpg/sg64_1_cif.got.tgz:1840.got - 2010.04.10 20:19:32.
