data_PCOD8264632
_publ_section_title
;
Structure prediction by ZEFSAII (Michael W. Deem and Ramdas Pophale) SiO2 
 PCOD8264632
Probable space group: C M C A
;
_chemical_formula_sum "Si O2"
_cell_formula_units_Z 112
_cell_length_a 21.867891
_cell_length_b 24.614764
_cell_length_c 12.825518
_cell_angle_alpha 90.000000
_cell_angle_beta 90.000000
_cell_angle_gamma 90.000000
_cell_volume 6903.629744
_symmetry_space_group_name_H-M "C M C A"
_symmetry_group_IT_number 64
_symmetry_cell_setting 'orthorhombic'
loop_
_space_group_symop_operation_xyz
x,y,z
-x,1/2-y,1/2+z
x,-y,-z
-x,1/2+y,1/2-z
-x,-y,-z
x,1/2+y,1/2-z
-x,y,z
x,1/2-y,1/2+z
1/2+x,1/2+y,z
1/2-x,-y,1/2+z
1/2+x,1/2-y,-z
1/2-x,y,1/2-z
1/2-x,1/2-y,-z
1/2+x,y,1/2-z
1/2-x,1/2+y,z
1/2+x,-y,1/2+z
loop_
_atom_site_type_symbol
_atom_site_label
_atom_site_fract_x
_atom_site_fract_y
_atom_site_fract_z
Si Si1 0.865226 0.658880 0.917776
Si Si2 0.432449 0.373234 0.712466
Si Si3 0.570632 0.059821 0.017438
Si Si4 0.262952 0.311788 0.023366
Si Si5 0.342796 0.212226 0.708971
Si Si6 0.812155 0.829034 0.805340
Si Si7 0.433037 0.769503 0.932574
O O1 0.799756 0.654537 0.974587
O O2 0.861724 0.667811 0.794065
O O3 0.898133 0.602294 0.939133
O O4 0.899376 0.712778 0.961460
O O5 0.500000 0.379008 0.769355
O O6 0.420211 0.425295 0.639140
O O7 0.373284 0.365190 0.785962
O O8 0.437416 0.322457 0.637105
O O9 0.500000 0.060397 0.985812
O O10 0.599004 0.000000 0.000000
O O11 0.290606 0.315732 0.139169
O O12 0.250000 0.250000 0.000000
O O13 0.305206 0.333778 0.929989
O O14 0.320518 0.267590 0.764152
O O15 0.398314 0.222492 0.629409
O O16 0.750000 0.851980 0.750000
O O17 0.500000 0.747016 0.961443
#
# Coordination Sequence:
#
# PCOD8264632 Si02
#       7
#    16  16  16  16  16  16  16
#     4  11  19  30  49  68  98 130 164 207 253 293
#     4   8  16  29  46  69  96 124 157 205 259 300
#     4   9  18  34  55  77  97 122 166 217 259 301
#     4  12  19  30  45  68  98 135 176 205 233 301
#     4  11  19  29  43  67  97 132 164 201 242 294
#     4  11  17  27  47  69  97 134 174 202 240 298
#     4   9  17  28  41  63  94 125 157 193 238 299
#
# _framework density 16.22335
#
# number of rings (size 3 to 8) (size 9 to 14) (size 15 to 20)
#    0.000    1.857    4.286    3.429    0.000    1.143 
#    0.000    3.571    0.000    5.143    0.000    0.000 
#    0.000    3.429    0.000    0.000    0.000    0.000 
#
# Total GULP energy -694021.162926 kJ/mol
# GULP energy per Si atom -12393.235052 kJ/mol
# Density = 1.618642 g / cm^3
# Si number density = 16.223350 Si / 1000 Ang^3
#
#
#
# Elastic Constant Matrix: (Units=GPa)
#
#
# Indices 1 2 3 4 5 6 
#
# 1 111.0843 34.2702 38.0950 0.0000 0.0000 0.0000
# 2 34.2702 64.6293 30.2926 0.0000 0.0000 0.0000
# 3 38.0950 30.2926 89.4534 0.0000 0.0000 0.0000
# 4 0.0000 0.0000 0.0000 14.6234 0.0000 0.0000
# 5 0.0000 0.0000 0.0000 0.0000 21.5408 0.0000
# 6 0.0000 0.0000 0.0000 0.0000 0.0000 14.2353
#
#
#
# Elastic Compliance Matrix: (Units=1/GPa)
#
#
# Indices 1 2 3 4 5 6 
#
# 1 0.011566 -0.004546 -0.003386 0.000000 0.000000 0.000000
# 2 -0.004546 0.020179 -0.004898 0.000000 0.000000 0.000000
# 3 -0.003386 -0.004898 0.014280 0.000000 0.000000 0.000000
# 4 0.000000 0.000000 0.000000 0.068383 0.000000 0.000000
# 5 0.000000 0.000000 0.000000 0.000000 0.046424 0.000000
# 6 0.000000 0.000000 0.000000 0.000000 0.000000 0.070248
#
#
# Mechanical properties :
#
#
# Convention : Reuss Voigt Hill
#
# Bulk Modulus (GPa) = 49.10281 52.27586 50.68933
# Shear Modulus (GPa) = 18.97344 20.91384 19.94364
#
# Velocity S-wave (km/s) = 3.42353 3.59433 3.50997
# Velocity P-wave (km/s) = 6.77937 7.03691 6.90934
#
# Compressibility (1/GPa) = 0.02036543
#
# Stress axis : x y z
#
# Youngs Moduli (GPa) = 86.46201 49.55694 70.03039
#
# Poissons Ratio (x) = 0.22527 0.23713
# Poissons Ratio (y) = 0.39304 0.34297
# Poissons Ratio (z) = 0.29277 0.24271
#
# Static dielectric constant tensor:
#      x y z
#    x 2.201650 0.000000 0.000000 
#    y 0.000000 2.720450 0.000000 
#    z 0.000000 0.000000 3.003050 
# 
# 
# High freq. dielectric constant tensor:
#      x y z
#    x 1.642660 0.000000 0.000000 
#    y 0.000000 1.560860 0.000000 
#    z 0.000000 0.000000 1.617160 
# 
# From -- ./inp_files/17673.got.cif
#   From: 2010.03.12/outbox.cif.g09.slc.cpg/sg64_9_cif.got.tgz:17673.got - 2010.04.10 20:19:32.
