data_PCOD8264154
_publ_section_title
;
Structure prediction by ZEFSAII (Michael W. Deem and Ramdas Pophale) SiO2 
 PCOD8264154
Probable space group: C M C A
;
_chemical_formula_sum "Si O2"
_cell_formula_units_Z 72
_cell_length_a 22.597035
_cell_length_b 17.449214
_cell_length_c 9.668402
_cell_angle_alpha 90.000000
_cell_angle_beta 90.000000
_cell_angle_gamma 90.000000
_cell_volume 3812.255738
_symmetry_space_group_name_H-M "C M C A"
_symmetry_group_IT_number 64
_symmetry_cell_setting 'orthorhombic'
loop_
_space_group_symop_operation_xyz
x,y,z
-x,1/2-y,1/2+z
x,-y,-z
-x,1/2+y,1/2-z
-x,-y,-z
x,1/2+y,1/2-z
-x,y,z
x,1/2-y,1/2+z
1/2+x,1/2+y,z
1/2-x,-y,1/2+z
1/2+x,1/2-y,-z
1/2-x,y,1/2-z
1/2-x,1/2-y,-z
1/2+x,y,1/2-z
1/2-x,1/2+y,z
1/2+x,-y,1/2+z
loop_
_atom_site_type_symbol
_atom_site_label
_atom_site_fract_x
_atom_site_fract_y
_atom_site_fract_z
Si Si1 0.818284 0.669380 0.746885
Si Si2 0.164820 0.814611 0.930502
Si Si3 0.750000 0.912159 0.750000
Si Si4 0.568857 0.062405 0.387000
Si Si5 0.360481 0.991298 0.158001
O O1 0.750000 0.647489 0.750000
O O2 0.830565 0.700045 0.593256
O O3 0.837724 0.733595 0.855235
O O4 0.855858 0.595344 0.788503
O O5 0.221543 0.860997 0.871929
O O6 0.103770 0.858868 0.906849
O O7 0.700843 0.964705 0.819260
O O8 0.500000 0.081215 0.398362
O O9 0.589470 0.000000 0.500000
O O10 0.584805 0.029170 0.237686
O O11 0.378253 0.000000 0.000000
#
# Coordination Sequence:
#
# PCOD8264154 Si02
#       5
#    16  16   8  16  16
#     4  12  23  38  59  93 133 159 193 240 312 374
#     4  11  24  39  59  93 124 168 197 247 307 372
#     4  10  22  36  60  90 126 164 206 240 306 364
#     4  10  22  45  67  83 115 162 214 258 302 354
#     4  11  23  37  64  92 123 159 206 254 301 360
#
# _framework density 18.886455000000002
#
# number of rings (size 3 to 8) (size 9 to 14) (size 15 to 20)
#    0.000    1.111    4.444    2.000    6.222    0.444 
#    0.000    2.222    0.000    0.000    0.000    0.000 
#    0.000    0.000    0.000    0.000    0.000    0.000 
#
# Total GULP energy -446530.949256 kJ/mol
# GULP energy per Si atom -12403.637479 kJ/mol
# Density = 1.884347 g / cm^3
# Si number density = 18.886455 Si / 1000 Ang^3
#
#
#
# Elastic Constant Matrix: (Units=GPa)
#
#
# Indices 1 2 3 4 5 6 
#
# 1 62.7003 12.9722 11.7637 0.0000 0.0000 0.0000
# 2 12.9722 71.8248 18.4902 0.0000 0.0000 0.0000
# 3 11.7637 18.4902 147.5388 0.0000 0.0000 0.0000
# 4 0.0000 0.0000 0.0000 137.3975 0.0000 0.0000
# 5 0.0000 0.0000 0.0000 0.0000 18.2391 0.0000
# 6 0.0000 0.0000 0.0000 0.0000 0.0000 7.0915
#
#
#
# Elastic Compliance Matrix: (Units=1/GPa)
#
#
# Indices 1 2 3 4 5 6 
#
# 1 0.016706 -0.002763 -0.000986 0.000000 0.000000 0.000000
# 2 -0.002763 0.014844 -0.001640 0.000000 0.000000 0.000000
# 3 -0.000986 -0.001640 0.007062 0.000000 0.000000 0.000000
# 4 0.000000 0.000000 0.000000 0.007278 0.000000 0.000000
# 5 0.000000 0.000000 0.000000 0.000000 0.054827 0.000000
# 6 0.000000 0.000000 0.000000 0.000000 0.000000 0.141013
#
#
# Mechanical properties :
#
#
# Convention : Reuss Voigt Hill
#
# Bulk Modulus (GPa) = 35.92799 40.94624 38.43712
# Shear Modulus (GPa) = 19.09955 48.46814 33.78385
#
# Velocity S-wave (km/s) = 3.18352 5.07135 4.23399
# Velocity P-wave (km/s) = 5.70767 7.48457 6.65568
#
# Compressibility (1/GPa) = 0.02783345
#
# Stress axis : x y z
#
# Youngs Moduli (GPa) = 59.86038 67.36704 141.60295
#
# Poissons Ratio (x) = 0.18616 0.13957
# Poissons Ratio (y) = 0.16542 0.23223
# Poissons Ratio (z) = 0.05900 0.11048
#
# Static dielectric constant tensor:
#      x y z
#    x 3.249220 0.000000 0.000000 
#    y 0.000000 3.523960 0.000000 
#    z 0.000000 0.000000 3.766660 
# 
# 
# High freq. dielectric constant tensor:
#      x y z
#    x 1.713110 0.000000 0.000000 
#    y 0.000000 1.742830 0.000000 
#    z 0.000000 0.000000 1.751310 
# 
# From -- ./inp_files/9138.got.cif
#   From: 2010.03.12/outbox.cif.g09.slc.cpg/sg64_5_cif.got.tgz:9138.got - 2010.04.10 20:19:32.
