data_PCOD8264952
_publ_section_title
;
Structure prediction by ZEFSAII (Michael W. Deem and Ramdas Pophale) SiO2 
 PCOD8264952
Probable space group: C M C A
;
_chemical_formula_sum "Si O2"
_cell_formula_units_Z 64
_cell_length_a 27.775370
_cell_length_b 10.536140
_cell_length_c 9.796079
_cell_angle_alpha 90.000000
_cell_angle_beta 90.000000
_cell_angle_gamma 90.000000
_cell_volume 2866.775370
_symmetry_space_group_name_H-M "C M C A"
_symmetry_group_IT_number 64
_symmetry_cell_setting 'orthorhombic'
loop_
_space_group_symop_operation_xyz
x,y,z
-x,1/2-y,1/2+z
x,-y,-z
-x,1/2+y,1/2-z
-x,-y,-z
x,1/2+y,1/2-z
-x,y,z
x,1/2-y,1/2+z
1/2+x,1/2+y,z
1/2-x,-y,1/2+z
1/2+x,1/2-y,-z
1/2-x,y,1/2-z
1/2-x,1/2-y,-z
1/2+x,y,1/2-z
1/2-x,1/2+y,z
1/2+x,-y,1/2+z
loop_
_atom_site_type_symbol
_atom_site_label
_atom_site_fract_x
_atom_site_fract_y
_atom_site_fract_z
Si Si1 0.105957 0.807303 0.282138
Si Si2 0.747057 0.597412 0.103301
Si Si3 0.056605 0.462212 0.654162
Si Si4 0.168129 0.239030 0.978815
O O1 0.079569 0.672731 0.304340
O O2 0.140103 0.831397 0.414502
O O3 0.070688 0.928359 0.264367
O O4 0.133650 0.808125 0.139197
O O5 0.750000 0.532471 0.250000
O O6 0.690721 0.626210 0.071364
O O7 0.770268 0.500000 0.000000
O O8 0.783907 0.713953 0.098889
O O9 0.072402 0.500000 0.500000
O O10 0.000000 0.443322 0.662257
#
# Coordination Sequence:
#
# PCOD8264952 Si02
#       4
#    16  16  16  16
#     4  12  25  47  77 106 142 190 239 291 354 434
#     4  11  26  42  64  96 145 186 236 294 348 411
#     4  11  26  49  75 109 146 183 231 304 367 424
#     4  11  26  42  66 103 141 188 239 288 349 418
#
# _framework density 22.324735
#
# number of rings (size 3 to 8) (size 9 to 14) (size 15 to 20)
#    0.000    0.750    5.000    0.750   10.500    0.000 
#    0.000    1.250    0.000    0.000    0.000    0.000 
#    0.000    0.000    0.000    0.000    0.000    0.000 
#
# Total GULP energy -396492.714725 kJ/mol
# GULP energy per Si atom -12390.397335 kJ/mol
# Density = 2.227392 g / cm^3
# Si number density = 22.324735 Si / 1000 Ang^3
#
#
#
# Elastic Constant Matrix: (Units=GPa)
#
#
# Indices 1 2 3 4 5 6 
#
# 1 103.5257 34.2991 39.8988 0.0000 0.0000 0.0000
# 2 34.2991 108.1524 23.2145 0.0000 0.0000 0.0000
# 3 39.8988 23.2145 139.7875 0.0000 0.0000 0.0000
# 4 0.0000 0.0000 0.0000 35.0441 0.0000 0.0000
# 5 0.0000 0.0000 0.0000 0.0000 38.4049 0.0000
# 6 0.0000 0.0000 0.0000 0.0000 0.0000 15.5072
#
#
#
# Elastic Compliance Matrix: (Units=1/GPa)
#
#
# Indices 1 2 3 4 5 6 
#
# 1 0.011793 -0.003129 -0.002846 0.000000 0.000000 0.000000
# 2 -0.003129 0.010418 -0.000837 0.000000 0.000000 0.000000
# 3 -0.002846 -0.000837 0.008105 0.000000 0.000000 0.000000
# 4 0.000000 0.000000 0.000000 0.028535 0.000000 0.000000
# 5 0.000000 0.000000 0.000000 0.000000 0.026038 0.000000
# 6 0.000000 0.000000 0.000000 0.000000 0.000000 0.064486
#
#
# Mechanical properties :
#
#
# Convention : Reuss Voigt Hill
#
# Bulk Modulus (GPa) = 59.91077 60.69892 60.30484
# Shear Modulus (GPa) = 29.66209 34.72812 32.19510
#
# Velocity S-wave (km/s) = 3.64904 3.94837 3.80165
# Velocity P-wave (km/s) = 6.68194 6.93068 6.80745
#
# Compressibility (1/GPa) = 0.01669149
#
# Stress axis : x y z
#
# Youngs Moduli (GPa) = 84.79510 95.98568 123.37822
#
# Poissons Ratio (x) = 0.30035 0.35118
# Poissons Ratio (y) = 0.26533 0.10327
# Poissons Ratio (z) = 0.24136 0.08034
#
# Static dielectric constant tensor:
#      x y z
#    x 4.077700 0.000000 0.000000 
#    y 0.000000 3.857060 0.000000 
#    z 0.000000 0.000000 4.179880 
# 
# 
# High freq. dielectric constant tensor:
#      x y z
#    x 1.888970 0.000000 0.000000 
#    y 0.000000 1.866140 0.000000 
#    z 0.000000 0.000000 1.893190 
# 
# From -- ./inp_files/10858.got.cif
#   From: 2010.03.12/outbox.cif.g09.slc.cpg/sg64_6_cif.got.tgz:10858.got - 2010.04.10 20:19:32.
