data_PCOD8264236
_publ_section_title
;
Structure prediction by ZEFSAII (Michael W. Deem and Ramdas Pophale) SiO2 
 PCOD8264236
Probable space group: C M C A
;
_chemical_formula_sum "Si O2"
_cell_formula_units_Z 96
_cell_length_a 19.355204
_cell_length_b 19.094076
_cell_length_c 13.390448
_cell_angle_alpha 90.000000
_cell_angle_beta 90.000000
_cell_angle_gamma 90.000000
_cell_volume 4948.704335
_symmetry_space_group_name_H-M "C M C A"
_symmetry_group_IT_number 64
_symmetry_cell_setting 'orthorhombic'
loop_
_space_group_symop_operation_xyz
x,y,z
-x,1/2-y,1/2+z
x,-y,-z
-x,1/2+y,1/2-z
-x,-y,-z
x,1/2+y,1/2-z
-x,y,z
x,1/2-y,1/2+z
1/2+x,1/2+y,z
1/2-x,-y,1/2+z
1/2+x,1/2-y,-z
1/2-x,y,1/2-z
1/2-x,1/2-y,-z
1/2+x,y,1/2-z
1/2-x,1/2+y,z
1/2+x,-y,1/2+z
loop_
_atom_site_type_symbol
_atom_site_label
_atom_site_fract_x
_atom_site_fract_y
_atom_site_fract_z
Si Si1 0.420373 0.572386 0.037798
Si Si2 0.328309 0.263146 0.270243
Si Si3 0.714342 0.938166 0.918890
Si Si4 0.680311 0.205865 0.988866
Si Si5 0.842372 0.098705 0.219700
Si Si6 0.417393 0.300608 0.098151
O O1 0.500000 0.568799 0.012061
O O2 0.412478 0.585185 0.157551
O O3 0.385123 0.500000 0.000000
O O4 0.390527 0.636620 0.972715
O O5 0.250000 0.287968 0.250000
O O6 0.350426 0.284355 0.379879
O O7 0.332531 0.179714 0.251485
O O8 0.383238 0.308798 0.206946
O O9 0.787189 0.926596 0.863932
O O10 0.660854 0.945360 0.823865
O O11 0.696001 0.873661 0.988429
O O12 0.713315 0.000000 0.000000
O O13 0.750000 0.250000 0.000000
O O14 0.618115 0.229601 0.060043
O O15 0.500000 0.293120 0.104136
#
# Coordination Sequence:
#
# PCOD8264236 Si02
#       6
#    16  16  16  16  16  16
#     4  10  22  39  61  87 120 160 204 258 314 370
#     4  12  21  37  65  92 123 162 207 255 311 375
#     4  11  23  38  58  91 125 154 201 263 311 368
#     4  12  20  39  64  87 120 164 209 254 311 373
#     4  11  19  38  62  84 117 160 204 249 310 379
#     4  11  23  38  62  97 126 160 215 268 310 367
#
# _framework density 19.399016
#
# number of rings (size 3 to 8) (size 9 to 14) (size 15 to 20)
#    0.000    0.833    8.333    0.500    0.000    2.667 
#    3.000    0.000    0.000    2.000    0.000    0.000 
#    0.000    0.000    0.000    0.000    0.000    0.000 
#
# Total GULP energy -594750.587711 kJ/mol
# GULP energy per Si atom -12390.637244 kJ/mol
# Density = 1.935486 g / cm^3
# Si number density = 19.399016 Si / 1000 Ang^3
#
#
#
# Elastic Constant Matrix: (Units=GPa)
#
#
# Indices 1 2 3 4 5 6 
#
# 1 75.1969 28.6448 29.1882 0.0000 0.0000 0.0000
# 2 28.6448 115.1207 48.0205 0.0000 0.0000 0.0000
# 3 29.1882 48.0205 142.4759 0.0000 0.0000 0.0000
# 4 0.0000 0.0000 0.0000 40.2450 0.0000 0.0000
# 5 0.0000 0.0000 0.0000 0.0000 35.4670 0.0000
# 6 0.0000 0.0000 0.0000 0.0000 0.0000 14.4041
#
#
#
# Elastic Compliance Matrix: (Units=1/GPa)
#
#
# Indices 1 2 3 4 5 6 
#
# 1 0.015234 -0.002896 -0.002145 0.000000 0.000000 0.000000
# 2 -0.002896 0.010658 -0.002999 0.000000 0.000000 0.000000
# 3 -0.002145 -0.002999 0.008469 0.000000 0.000000 0.000000
# 4 0.000000 0.000000 0.000000 0.024848 0.000000 0.000000
# 5 0.000000 0.000000 0.000000 0.000000 0.028195 0.000000
# 6 0.000000 0.000000 0.000000 0.000000 0.000000 0.069425
#
#
# Mechanical properties :
#
#
# Convention : Reuss Voigt Hill
#
# Bulk Modulus (GPa) = 54.69980 60.50005 57.59992
# Shear Modulus (GPa) = 27.93259 33.15255 30.54257
#
# Velocity S-wave (km/s) = 3.79871 4.13847 3.97222
# Velocity P-wave (km/s) = 6.89193 7.35464 7.12704
#
# Compressibility (1/GPa) = 0.01828160
#
# Stress axis : x y z
#
# Youngs Moduli (GPa) = 65.64221 93.82561 118.07885
#
# Poissons Ratio (x) = 0.27171 0.25326
# Poissons Ratio (y) = 0.19009 0.35411
# Poissons Ratio (z) = 0.14079 0.28138
#
# Static dielectric constant tensor:
#      x y z
#    x 3.482390 0.000000 0.000000 
#    y 0.000000 4.300460 0.000000 
#    z 0.000000 0.000000 9.759330 
# 
# 
# High freq. dielectric constant tensor:
#      x y z
#    x 1.735830 0.000000 0.000000 
#    y 0.000000 1.741640 0.000000 
#    z 0.000000 0.000000 1.777360 
# 
# From -- ./inp_files/26329.got.cif
#   From: 2010.03.12/outbox.cif.g09.slc.cpg/sg64_14_cif.got.tgz:26329.got - 2010.04.10 20:19:32.
