data_PCOD8264824
_publ_section_title
;
Structure prediction by ZEFSAII (Michael W. Deem and Ramdas Pophale) SiO2 
 PCOD8264824
Probable space group: C M C A
;
_chemical_formula_sum "Si O2"
_cell_formula_units_Z 64
_cell_length_a 10.845863
_cell_length_b 14.577509
_cell_length_c 18.529135
_cell_angle_alpha 90.000000
_cell_angle_beta 90.000000
_cell_angle_gamma 90.000000
_cell_volume 2929.561220
_symmetry_space_group_name_H-M "C M C A"
_symmetry_group_IT_number 64
_symmetry_cell_setting 'orthorhombic'
loop_
_space_group_symop_operation_xyz
x,y,z
-x,1/2-y,1/2+z
x,-y,-z
-x,1/2+y,1/2-z
-x,-y,-z
x,1/2+y,1/2-z
-x,y,z
x,1/2-y,1/2+z
1/2+x,1/2+y,z
1/2-x,-y,1/2+z
1/2+x,1/2-y,-z
1/2-x,y,1/2-z
1/2-x,1/2-y,-z
1/2+x,y,1/2-z
1/2-x,1/2+y,z
1/2+x,-y,1/2+z
loop_
_atom_site_type_symbol
_atom_site_label
_atom_site_fract_x
_atom_site_fract_y
_atom_site_fract_z
Si Si1 0.000000 0.068444 0.098172
Si Si2 0.143424 0.390194 0.189486
Si Si3 0.229152 0.762921 0.084298
Si Si4 0.256688 0.914328 0.831525
Si Si5 0.500000 0.868686 0.449368
O O1 0.884178 0.070947 0.149231
O O2 0.000000 0.975951 0.054755
O O3 0.000000 0.150305 0.037083
O O4 0.250000 0.372869 0.250000
O O5 0.158839 0.312986 0.126918
O O6 0.163444 0.493026 0.158213
O O7 0.000000 0.382738 0.217359
O O8 0.189463 0.665334 0.117863
O O9 0.115521 0.830357 0.093403
O O10 0.250000 0.750000 0.000000
O O11 0.250000 0.879163 0.750000
#
# Coordination Sequence:
#
# PCOD8264824 Si02
#       5
#     8  16  16  16   8
#     4  11  22  47  70  99 138 196 239 282 355 438
#     4  11  28  50  72 104 146 188 235 298 357 426
#     4  12  26  45  70 105 140 188 240 294 355 427
#     4  11  26  44  71 101 141 183 239 295 357 421
#     4  11  24  43  74  96 145 190 241 285 356 429
#
# _framework density 21.846276
#
# number of rings (size 3 to 8) (size 9 to 14) (size 15 to 20)
#    0.000    0.750    5.000    0.750   14.000    1.000 
#    0.000    1.250    0.000    0.000    0.000    0.000 
#    0.000    0.000    0.000    0.000    0.000    0.000 
#
# Total GULP energy -396584.968156 kJ/mol
# GULP energy per Si atom -12393.280255 kJ/mol
# Density = 2.179655 g / cm^3
# Si number density = 21.846276 Si / 1000 Ang^3
#
#
#
# Elastic Constant Matrix: (Units=GPa)
#
#
# Indices 1 2 3 4 5 6 
#
# 1 156.9865 24.9746 43.0643 0.0000 0.0000 0.0000
# 2 24.9746 112.8843 59.7719 0.0000 0.0000 0.0000
# 3 43.0643 59.7719 136.6342 0.0000 0.0000 0.0000
# 4 0.0000 0.0000 0.0000 42.5757 0.0000 0.0000
# 5 0.0000 0.0000 0.0000 0.0000 44.2392 0.0000
# 6 0.0000 0.0000 0.0000 0.0000 0.0000 6.4441
#
#
#
# Elastic Compliance Matrix: (Units=1/GPa)
#
#
# Indices 1 2 3 4 5 6 
#
# 1 0.006994 -0.000495 -0.001988 0.000000 0.000000 0.000000
# 2 -0.000495 0.011564 -0.004903 0.000000 0.000000 0.000000
# 3 -0.001988 -0.004903 0.010090 0.000000 0.000000 0.000000
# 4 0.000000 0.000000 0.000000 0.023488 0.000000 0.000000
# 5 0.000000 0.000000 0.000000 0.000000 0.022604 0.000000
# 6 0.000000 0.000000 0.000000 0.000000 0.000000 0.155181
#
#
# Mechanical properties :
#
#
# Convention : Reuss Voigt Hill
#
# Bulk Modulus (GPa) = 72.06087 73.56965 72.81526
# Shear Modulus (GPa) = 20.05469 37.23142 28.64306
#
# Velocity S-wave (km/s) = 3.03312 4.13273 3.62487
# Velocity P-wave (km/s) = 6.73227 7.51810 7.13601
#
# Compressibility (1/GPa) = 0.01387716
#
# Stress axis : x y z
#
# Youngs Moduli (GPa) = 142.97949 86.47405 99.10614
#
# Poissons Ratio (x) = 0.04278 0.19702
# Poissons Ratio (y) = 0.07074 0.48591
# Poissons Ratio (z) = 0.28423 0.42397
#
# Static dielectric constant tensor:
#      x y z
#    x 4.093750 0.000000 0.000000 
#    y 0.000000 4.313910 0.000000 
#    z 0.000000 0.000000 4.096920 
# 
# 
# High freq. dielectric constant tensor:
#      x y z
#    x 1.854690 0.000000 0.000000 
#    y 0.000000 1.870160 0.000000 
#    z 0.000000 0.000000 1.867030 
# 
# From -- ./inp_files/30480.got.cif
#   From: 2010.03.12/outbox.cif.g09.slc.cpg/sg64_16_cif.got.tgz:30480.got - 2010.04.10 20:19:32.
