data_PCOD8264944
_publ_section_title
;
Structure prediction by ZEFSAII (Michael W. Deem and Ramdas Pophale) SiO2 
 PCOD8264944
Probable space group: C M C A
;
_chemical_formula_sum "Si O2"
_cell_formula_units_Z 40
_cell_length_a 29.713984
_cell_length_b 11.101847
_cell_length_c 4.766257
_cell_angle_alpha 90.000000
_cell_angle_beta 90.000000
_cell_angle_gamma 90.000000
_cell_volume 1572.293355
_symmetry_space_group_name_H-M "C M C A"
_symmetry_group_IT_number 64
_symmetry_cell_setting 'orthorhombic'
loop_
_space_group_symop_operation_xyz
x,y,z
-x,1/2-y,1/2+z
x,-y,-z
-x,1/2+y,1/2-z
-x,-y,-z
x,1/2+y,1/2-z
-x,y,z
x,1/2-y,1/2+z
1/2+x,1/2+y,z
1/2-x,-y,1/2+z
1/2+x,1/2-y,-z
1/2-x,y,1/2-z
1/2-x,1/2-y,-z
1/2+x,y,1/2-z
1/2-x,1/2+y,z
1/2+x,-y,1/2+z
loop_
_atom_site_type_symbol
_atom_site_label
_atom_site_fract_x
_atom_site_fract_y
_atom_site_fract_z
Si Si1 0.000000 0.168620 0.886583
Si Si2 0.423187 0.000000 0.500000
Si Si3 0.720503 0.000000 0.000000
Si Si4 0.853716 0.334795 0.744953
O O1 0.000000 0.290465 0.709667
O O2 0.954986 0.092188 0.828796
O O3 0.393226 0.065368 0.258129
O O4 0.750000 0.939282 0.250000
O O5 0.692226 0.101448 0.162235
O O6 0.857497 0.285898 0.427490
#
# Coordination Sequence:
#
# PCOD8264944 Si02
#       4
#     8   8   8  16
#     4  11  26  45  72 106 146 192 240 296 358 426
#     4  11  25  46  73 106 148 190 245 300 355 429
#     4  12  27  48  73 107 148 189 243 304 363 436
#     4  12  26  45  73 105 143 190 239 296 362 429
#
# _framework density 25.440546000000001
#
# number of rings (size 3 to 8) (size 9 to 14) (size 15 to 20)
#    0.000    0.400    0.000    8.400    0.000   14.400 
#    0.000    0.000    0.000    0.000    0.000    0.000 
#    0.000    0.000    0.000    0.000    0.000    0.000 
#
# Total GULP energy -247928.041715 kJ/mol
# GULP energy per Si atom -12396.402086 kJ/mol
# Density = 2.538264 g / cm^3
# Si number density = 25.440546 Si / 1000 Ang^3
#
#
#
# Elastic Constant Matrix: (Units=GPa)
#
#
# Indices 1 2 3 4 5 6 
#
# 1 183.1346 74.5330 60.7489 0.0000 0.0000 0.0000
# 2 74.5330 134.0854 39.0794 0.0000 0.0000 0.0000
# 3 60.7489 39.0794 89.9633 0.0000 0.0000 0.0000
# 4 0.0000 0.0000 0.0000 53.2736 0.0000 0.0000
# 5 0.0000 0.0000 0.0000 0.0000 26.9476 0.0000
# 6 0.0000 0.0000 0.0000 0.0000 0.0000 15.7291
#
#
#
# Elastic Compliance Matrix: (Units=1/GPa)
#
#
# Indices 1 2 3 4 5 6 
#
# 1 0.008175 -0.003361 -0.004060 0.000000 0.000000 0.000000
# 2 -0.003361 0.009921 -0.002040 0.000000 0.000000 0.000000
# 3 -0.004060 -0.002040 0.014744 0.000000 0.000000 0.000000
# 4 0.000000 0.000000 0.000000 0.018771 0.000000 0.000000
# 5 0.000000 0.000000 0.000000 0.000000 0.037109 0.000000
# 6 0.000000 0.000000 0.000000 0.000000 0.000000 0.063577
#
#
# Mechanical properties :
#
#
# Convention : Reuss Voigt Hill
#
# Bulk Modulus (GPa) = 71.85513 83.98956 77.92235
# Shear Modulus (GPa) = 28.43205 34.71151 31.57178
#
# Velocity S-wave (km/s) = 3.34666 3.69781 3.52661
# Velocity P-wave (km/s) = 6.57565 7.16362 6.87592
#
# Compressibility (1/GPa) = 0.01391689
#
# Stress axis : x y z
#
# Youngs Moduli (GPa) = 122.32091 100.79964 67.82550
#
# Poissons Ratio (x) = 0.33877 0.27540
# Poissons Ratio (y) = 0.41110 0.13836
# Poissons Ratio (z) = 0.49668 0.20563
#
# Static dielectric constant tensor:
#      x y z
#    x 4.757670 0.000000 0.000000 
#    y 0.000000 4.508030 0.000000 
#    z 0.000000 0.000000 4.478670 
# 
# 
# High freq. dielectric constant tensor:
#      x y z
#    x 2.026070 0.000000 0.000000 
#    y 0.000000 2.024140 0.000000 
#    z 0.000000 0.000000 2.014540 
# 
# From -- ./inp_files/2519.got.cif
#   From: 2010.03.12/outbox.cif.g09.slc.cpg/sg64_2_cif.got.tgz:2519.got - 2010.04.10 20:19:32.
