data_PCOD8264378
_publ_section_title
;
Structure prediction by ZEFSAII (Michael W. Deem and Ramdas Pophale) SiO2 
 PCOD8264378
Probable space group: C M C A
;
_chemical_formula_sum "Si O2"
_cell_formula_units_Z 88
_cell_length_a 13.725360
_cell_length_b 11.810185
_cell_length_c 23.855675
_cell_angle_alpha 90.000000
_cell_angle_beta 90.000000
_cell_angle_gamma 90.000000
_cell_volume 3866.982035
_symmetry_space_group_name_H-M "C M C A"
_symmetry_group_IT_number 64
_symmetry_cell_setting 'orthorhombic'
loop_
_space_group_symop_operation_xyz
x,y,z
-x,1/2-y,1/2+z
x,-y,-z
-x,1/2+y,1/2-z
-x,-y,-z
x,1/2+y,1/2-z
-x,y,z
x,1/2-y,1/2+z
1/2+x,1/2+y,z
1/2-x,-y,1/2+z
1/2+x,1/2-y,-z
1/2-x,y,1/2-z
1/2-x,1/2-y,-z
1/2+x,y,1/2-z
1/2-x,1/2+y,z
1/2+x,-y,1/2+z
loop_
_atom_site_type_symbol
_atom_site_label
_atom_site_fract_x
_atom_site_fract_y
_atom_site_fract_z
Si Si1 0.887566 0.006347 0.564811
Si Si2 0.887780 0.902769 0.835439
Si Si3 0.750000 0.485140 0.250000
Si Si4 0.109697 0.036003 0.942207
Si Si5 0.108226 0.761165 0.613377
Si Si6 0.199471 0.331399 0.152595
O O1 0.818621 0.098412 0.595098
O O2 0.000000 0.041903 0.572864
O O3 0.859098 0.000000 0.500000
O O4 0.867048 0.884397 0.591220
O O5 0.878785 0.769230 0.846486
O O6 0.000000 0.934838 0.825292
O O7 0.827835 0.935376 0.780424
O O8 0.842778 0.975630 0.887528
O O9 0.812856 0.410047 0.206722
O O10 0.110925 0.172014 0.938008
O O11 0.000000 0.987581 0.944807
O O12 0.164096 0.000000 0.000000
O O13 0.191558 0.722182 0.656547
O O14 0.000000 0.757311 0.641657
#
# Coordination Sequence:
#
# PCOD8264378 Si02
#       6
#    16  16   8  16  16  16
#     4  10  24  44  67 101 143 181 221 279 353 423
#     4  11  25  46  71 100 134 175 225 282 339 402
#     4  12  26  48  66  96 132 172 232 284 336 398
#     4   9  19  38  68 101 134 176 223 271 333 409
#     4  10  22  42  66  97 139 184 221 271 342 409
#     4  12  25  44  70 100 134 175 233 284 337 408
#
# _framework density 22.756764
#
# number of rings (size 3 to 8) (size 9 to 14) (size 15 to 20)
#    0.000    1.455    1.818    2.182    2.545    2.909 
#    0.000    4.545    0.000    0.000    0.000    0.000 
#    0.000    0.000    0.000    0.000    0.000    0.000 
#
# Total GULP energy -545617.511714 kJ/mol
# GULP energy per Si atom -12400.397994 kJ/mol
# Density = 2.270497 g / cm^3
# Si number density = 22.756764 Si / 1000 Ang^3
#
#
#
# Elastic Constant Matrix: (Units=GPa)
#
#
# Indices 1 2 3 4 5 6 
#
# 1 113.3090 42.8180 41.8024 0.0000 0.0000 0.0000
# 2 42.8180 137.4607 52.7679 0.0000 0.0000 0.0000
# 3 41.8024 52.7679 138.3436 0.0000 0.0000 0.0000
# 4 0.0000 0.0000 0.0000 32.1041 0.0000 0.0000
# 5 0.0000 0.0000 0.0000 0.0000 23.3008 0.0000
# 6 0.0000 0.0000 0.0000 0.0000 0.0000 33.5106
#
#
#
# Elastic Compliance Matrix: (Units=1/GPa)
#
#
# Indices 1 2 3 4 5 6 
#
# 1 0.010579 -0.002423 -0.002273 0.000000 0.000000 0.000000
# 2 -0.002423 0.009078 -0.002730 0.000000 0.000000 0.000000
# 3 -0.002273 -0.002730 0.008956 0.000000 0.000000 0.000000
# 4 0.000000 0.000000 0.000000 0.031149 0.000000 0.000000
# 5 0.000000 0.000000 0.000000 0.000000 0.042917 0.000000
# 6 0.000000 0.000000 0.000000 0.000000 0.000000 0.029841
#
#
# Mechanical properties :
#
#
# Convention : Reuss Voigt Hill
#
# Bulk Modulus (GPa) = 72.66469 73.76553 73.21511
# Shear Modulus (GPa) = 32.90349 34.56477 33.73413
#
# Velocity S-wave (km/s) = 3.80659 3.90151 3.85434
# Velocity P-wave (km/s) = 7.16384 7.26504 7.21462
#
# Compressibility (1/GPa) = 0.01376184
#
# Stress axis : x y z
#
# Youngs Moduli (GPa) = 94.52290 110.16048 111.65130
#
# Poissons Ratio (x) = 0.26692 0.25373
# Poissons Ratio (y) = 0.22903 0.30484
# Poissons Ratio (z) = 0.21480 0.30077
#
# Static dielectric constant tensor:
#      x y z
#    x 4.160250 0.000000 0.000000 
#    y 0.000000 4.173580 0.000000 
#    z 0.000000 0.000000 4.004070 
# 
# 
# High freq. dielectric constant tensor:
#      x y z
#    x 1.909250 0.000000 0.000000 
#    y 0.000000 1.908340 0.000000 
#    z 0.000000 0.000000 1.879030 
# 
# From -- ./inp_files/45053.got.cif
#   From: 2010.03.12/outbox.cif.g09.slc.cpg/sg64_23_cif.got.tgz:45053.got - 2010.04.10 20:19:32.
