data_PCOD8264110
_publ_section_title
;
Structure prediction by ZEFSAII (Michael W. Deem and Ramdas Pophale) SiO2 
 PCOD8264110
Probable space group: C M C A
;
_chemical_formula_sum "Si O2"
_cell_formula_units_Z 112
_cell_length_a 14.211449
_cell_length_b 24.339629
_cell_length_c 14.587890
_cell_angle_alpha 90.000000
_cell_angle_beta 90.000000
_cell_angle_gamma 90.000000
_cell_volume 5045.971519
_symmetry_space_group_name_H-M "C M C A"
_symmetry_group_IT_number 64
_symmetry_cell_setting 'orthorhombic'
loop_
_space_group_symop_operation_xyz
x,y,z
-x,1/2-y,1/2+z
x,-y,-z
-x,1/2+y,1/2-z
-x,-y,-z
x,1/2+y,1/2-z
-x,y,z
x,1/2-y,1/2+z
1/2+x,1/2+y,z
1/2-x,-y,1/2+z
1/2+x,1/2-y,-z
1/2-x,y,1/2-z
1/2-x,1/2-y,-z
1/2+x,y,1/2-z
1/2-x,1/2+y,z
1/2+x,-y,1/2+z
loop_
_atom_site_type_symbol
_atom_site_label
_atom_site_fract_x
_atom_site_fract_y
_atom_site_fract_z
Si Si1 0.393674 0.938696 0.195165
Si Si2 0.891915 0.340719 0.711665
Si Si3 0.891213 0.659077 0.925039
Si Si4 0.234255 0.627419 0.456684
Si Si5 0.828250 0.944200 0.679383
Si Si6 0.887688 0.122112 0.868918
Si Si7 0.892700 0.276747 0.255853
O O1 0.500000 0.917096 0.200852
O O2 0.351674 0.898925 0.116947
O O3 0.353846 0.925738 0.297429
O O4 0.392649 0.002311 0.166223
O O5 0.823610 0.344743 0.625157
O O6 0.884917 0.392572 0.779133
O O7 0.857677 0.286058 0.766655
O O8 0.000000 0.334287 0.678576
O O9 0.878310 0.706531 0.850177
O O10 0.000000 0.656710 0.960344
O O11 0.818081 0.668453 0.008897
O O12 0.283362 0.572167 0.417807
O O13 0.160932 0.610284 0.534800
O O14 0.750000 0.964112 0.750000
O O15 0.846500 0.179984 0.827017
O O16 0.000000 0.121925 0.884800
O O17 0.000000 0.280190 0.283211
#
# Coordination Sequence:
#
# PCOD8264110 Si02
#       7
#    16  16  16  16  16  16  16
#     4   9  19  38  64  85 114 163 208 249 304 369
#     4  10  21  42  63  83 124 168 203 243 306 378
#     4   9  20  38  59  90 122 155 205 256 305 357
#     4  11  23  38  58  97 122 157 197 259 311 352
#     4  10  23  39  54  81 124 164 202 239 304 372
#     4   9  19  39  66  97 121 152 208 258 308 358
#     4   8  17  38  64  87 120 164 202 246 303 370
#
# _framework density 22.195924000000002
#
# number of rings (size 3 to 8) (size 9 to 14) (size 15 to 20)
#    0.000    2.571    0.000    2.571    2.000    4.000 
#   12.857    1.429    0.000    4.286    0.000    0.000 
#    0.000    0.000    0.000    0.000    0.000    0.000 
#
# Total GULP energy -693898.174971 kJ/mol
# GULP energy per Si atom -12391.038839 kJ/mol
# Density = 2.214540 g / cm^3
# Si number density = 22.195924 Si / 1000 Ang^3
#
#
#
# Elastic Constant Matrix: (Units=GPa)
#
#
# Indices 1 2 3 4 5 6 
#
# 1 76.4308 13.8900 32.9576 0.0000 0.0000 0.0000
# 2 13.8900 144.1671 30.7376 0.0000 0.0000 0.0000
# 3 32.9576 30.7376 88.5249 0.0000 0.0000 0.0000
# 4 0.0000 0.0000 0.0000 7.7457 0.0000 0.0000
# 5 0.0000 0.0000 0.0000 0.0000 39.0219 0.0000
# 6 0.0000 0.0000 0.0000 0.0000 0.0000 5.3653
#
#
#
# Elastic Compliance Matrix: (Units=1/GPa)
#
#
# Indices 1 2 3 4 5 6 
#
# 1 0.015597 -0.000286 -0.005707 0.000000 0.000000 0.000000
# 2 -0.000286 0.007496 -0.002496 0.000000 0.000000 0.000000
# 3 -0.005707 -0.002496 0.014288 0.000000 0.000000 0.000000
# 4 0.000000 0.000000 0.000000 0.129104 0.000000 0.000000
# 5 0.000000 0.000000 0.000000 0.000000 0.025627 0.000000
# 6 0.000000 0.000000 0.000000 0.000000 0.000000 0.186381
#
#
# Mechanical properties :
#
#
# Convention : Reuss Voigt Hill
#
# Bulk Modulus (GPa) = 49.01577 51.58812 50.30195
# Shear Modulus (GPa) = 12.42939 25.86242 19.14591
#
# Velocity S-wave (km/s) = 2.36897 3.41719 2.94017
# Velocity P-wave (km/s) = 5.44186 6.23395 5.85133
#
# Compressibility (1/GPa) = 0.02040160
#
# Stress axis : x y z
#
# Youngs Moduli (GPa) = 64.11592 133.40109 69.98927
#
# Poissons Ratio (x) = 0.03813 0.39946
# Poissons Ratio (y) = 0.01833 0.17472
# Poissons Ratio (z) = 0.36593 0.33302
#
# Static dielectric constant tensor:
#      x y z
#    x 4.023250 0.000000 0.000000 
#    y 0.000000 3.923790 0.000000 
#    z 0.000000 0.000000 3.928120 
# 
# 
# High freq. dielectric constant tensor:
#      x y z
#    x 1.884110 0.000000 0.000000 
#    y 0.000000 1.861870 0.000000 
#    z 0.000000 0.000000 1.858920 
# 
# From -- ./inp_files/24199.got.cif
#   From: 2010.03.12/outbox.cif.g09.slc.cpg/sg64_13_cif.got.tgz:24199.got - 2010.04.10 20:19:32.
