data_PCOD8264965
_publ_section_title
;
Structure prediction by ZEFSAII (Michael W. Deem and Ramdas Pophale) SiO2 
 PCOD8264965
Probable space group: C M C A
;
_chemical_formula_sum "Si O2"
_cell_formula_units_Z 56
_cell_length_a 19.725191
_cell_length_b 12.844942
_cell_length_c 10.132906
_cell_angle_alpha 90.000000
_cell_angle_beta 90.000000
_cell_angle_gamma 90.000000
_cell_volume 2567.363595
_symmetry_space_group_name_H-M "C M C A"
_symmetry_group_IT_number 64
_symmetry_cell_setting 'orthorhombic'
loop_
_space_group_symop_operation_xyz
x,y,z
-x,1/2-y,1/2+z
x,-y,-z
-x,1/2+y,1/2-z
-x,-y,-z
x,1/2+y,1/2-z
-x,y,z
x,1/2-y,1/2+z
1/2+x,1/2+y,z
1/2-x,-y,1/2+z
1/2+x,1/2-y,-z
1/2-x,y,1/2-z
1/2-x,1/2-y,-z
1/2+x,y,1/2-z
1/2-x,1/2+y,z
1/2+x,-y,1/2+z
loop_
_atom_site_type_symbol
_atom_site_label
_atom_site_fract_x
_atom_site_fract_y
_atom_site_fract_z
Si Si1 0.425313 0.408074 0.102716
Si Si2 0.178758 0.218430 0.057804
Si Si3 0.750000 0.430987 0.750000
Si Si4 0.863338 0.443353 0.127815
O O1 0.500000 0.354890 0.107125
O O2 0.409724 0.459661 0.244308
O O3 0.425965 0.500000 0.000000
O O4 0.367930 0.326444 0.059277
O O5 0.192856 0.137150 0.175541
O O6 0.141446 0.319681 0.112046
O O7 0.250000 0.250000 0.000000
O O8 0.789225 0.504284 0.853410
O O9 0.896546 0.500000 0.000000
#
# Coordination Sequence:
#
# PCOD8264965 Si02
#       4
#    16  16   8  16
#     4  11  26  49  73 101 146 195 238 291 359 434
#     4  12  24  43  72 109 144 189 239 302 368 419
#     4  12  22  42  66 108 150 180 240 298 366 428
#     4  12  26  42  69 107 142 188 240 302 355 434
#
# _framework density 21.812258
#
# number of rings (size 3 to 8) (size 9 to 14) (size 15 to 20)
#    0.000    0.286    5.714    4.286    0.000    1.714 
#    0.000    2.857    0.000    0.000    0.000    0.000 
#    0.000    0.000    0.000    0.000    0.000    0.000 
#
# Total GULP energy -347258.509837 kJ/mol
# GULP energy per Si atom -12402.089637 kJ/mol
# Density = 2.176261 g / cm^3
# Si number density = 21.812258 Si / 1000 Ang^3
#
#
#
# Elastic Constant Matrix: (Units=GPa)
#
#
# Indices 1 2 3 4 5 6 
#
# 1 134.9007 40.4248 60.8027 0.0000 0.0000 0.0000
# 2 40.4248 97.5254 48.6135 0.0000 0.0000 0.0000
# 3 60.8027 48.6135 167.4646 0.0000 0.0000 0.0000
# 4 0.0000 0.0000 0.0000 43.0074 0.0000 0.0000
# 5 0.0000 0.0000 0.0000 0.0000 1.4972 0.0000
# 6 0.0000 0.0000 0.0000 0.0000 0.0000 25.9782
#
#
#
# Elastic Compliance Matrix: (Units=1/GPa)
#
#
# Indices 1 2 3 4 5 6 
#
# 1 0.009380 -0.002561 -0.002662 0.000000 0.000000 0.000000
# 2 -0.002561 0.012688 -0.002753 0.000000 0.000000 0.000000
# 3 -0.002662 -0.002753 0.007737 0.000000 0.000000 0.000000
# 4 0.000000 0.000000 0.000000 0.023252 0.000000 0.000000
# 5 0.000000 0.000000 0.000000 0.000000 0.667899 0.000000
# 6 0.000000 0.000000 0.000000 0.000000 0.000000 0.038494
#
#
# Mechanical properties :
#
#
# Convention : Reuss Voigt Hill
#
# Bulk Modulus (GPa) = 72.19186 77.73029 74.96108
# Shear Modulus (GPa) = 6.41009 30.76655 18.58832
#
# Velocity S-wave (km/s) = 1.71614 3.75976 2.92241
# Velocity P-wave (km/s) = 6.09062 7.38655 6.76967
#
# Compressibility (1/GPa) = 0.01385198
#
# Stress axis : x y z
#
# Youngs Moduli (GPa) = 106.60651 78.81623 129.24433
#
# Poissons Ratio (x) = 0.20186 0.34409
# Poissons Ratio (y) = 0.27303 0.35584
# Poissons Ratio (z) = 0.28382 0.21700
#
# Static dielectric constant tensor:
#      x y z
#    x 4.058550 0.000000 0.000000 
#    y 0.000000 4.853220 0.000000 
#    z 0.000000 0.000000 5.057840 
# 
# 
# High freq. dielectric constant tensor:
#      x y z
#    x 1.839320 0.000000 0.000000 
#    y 0.000000 1.860320 0.000000 
#    z 0.000000 0.000000 1.875740 
# 
# From -- ./inp_files/15368.got.cif
#   From: 2010.03.12/outbox.cif.g09.slc.cpg/sg64_8_cif.got.tgz:15368.got - 2010.04.10 20:19:32.
