data_PCOD8264923
_publ_section_title
;
Structure prediction by ZEFSAII (Michael W. Deem and Ramdas Pophale) SiO2 
 PCOD8264923
Probable space group: C M C A
;
_chemical_formula_sum "Si O2"
_cell_formula_units_Z 72
_cell_length_a 9.523622
_cell_length_b 23.992608
_cell_length_c 13.589686
_cell_angle_alpha 90.000000
_cell_angle_beta 90.000000
_cell_angle_gamma 90.000000
_cell_volume 3105.196086
_symmetry_space_group_name_H-M "C M C A"
_symmetry_group_IT_number 64
_symmetry_cell_setting 'orthorhombic'
loop_
_space_group_symop_operation_xyz
x,y,z
-x,1/2-y,1/2+z
x,-y,-z
-x,1/2+y,1/2-z
-x,-y,-z
x,1/2+y,1/2-z
-x,y,z
x,1/2-y,1/2+z
1/2+x,1/2+y,z
1/2-x,-y,1/2+z
1/2+x,1/2-y,-z
1/2-x,y,1/2-z
1/2-x,1/2-y,-z
1/2+x,y,1/2-z
1/2-x,1/2+y,z
1/2+x,-y,1/2+z
loop_
_atom_site_type_symbol
_atom_site_label
_atom_site_fract_x
_atom_site_fract_y
_atom_site_fract_z
Si Si1 0.500000 0.004233 0.146775
Si Si2 0.000000 0.320156 0.129644
Si Si3 0.500000 0.415673 0.202339
Si Si4 0.500000 0.197282 0.382518
Si Si5 0.222395 0.450709 0.445808
Si Si6 0.500000 0.864024 0.814483
Si Si7 0.279473 0.158291 0.036652
O O1 0.500000 0.070321 0.161645
O O2 0.500000 0.977368 0.253908
O O3 0.636203 0.979962 0.092577
O O4 0.000000 0.365531 0.217855
O O5 0.000000 0.257286 0.172221
O O6 0.861672 0.325312 0.062681
O O7 0.360198 0.414579 0.135951
O O8 0.500000 0.147959 0.301854
O O9 0.365386 0.192356 0.454356
O O10 0.133697 0.500000 0.500000
O O11 0.256495 0.407684 0.531926
O O12 0.366429 0.833255 0.863027
#
# Coordination Sequence:
#
# PCOD8264923 Si02
#       7
#     8   8   8   8  16   8  16
#     4  12  23  43  71 100 146 191 226 294 372 443
#     4  11  26  52  71  99 149 195 248 308 379 422
#     4  12  27  43  68 112 144 190 245 302 359 439
#     4  12  27  47  74 107 139 196 257 313 349 440
#     4  12  24  44  72 106 149 189 237 296 374 440
#     4  11  25  46  71 104 147 189 239 289 384 447
#     4  11  24  48  73 103 141 191 245 300 375 438
#
# _framework density 23.186942999999999
#
# number of rings (size 3 to 8) (size 9 to 14) (size 15 to 20)
#    0.000    0.444    4.444    4.000    3.111    1.778 
#   16.000    0.000    0.000    0.000    0.000    0.000 
#    0.000    0.000    0.000    0.000    0.000    0.000 
#
# Total GULP energy -446134.556165 kJ/mol
# GULP energy per Si atom -12392.626560 kJ/mol
# Density = 2.313417 g / cm^3
# Si number density = 23.186943 Si / 1000 Ang^3
#
#
#
# Elastic Constant Matrix: (Units=GPa)
#
#
# Indices 1 2 3 4 5 6 
#
# 1 163.0185 50.0613 58.3696 0.0000 0.0000 0.0000
# 2 50.0613 134.8148 39.4740 0.0000 0.0000 0.0000
# 3 58.3696 39.4740 116.7455 0.0000 0.0000 0.0000
# 4 0.0000 0.0000 0.0000 32.7747 0.0000 0.0000
# 5 0.0000 0.0000 0.0000 0.0000 34.4528 0.0000
# 6 0.0000 0.0000 0.0000 0.0000 0.0000 11.9339
#
#
#
# Elastic Compliance Matrix: (Units=1/GPa)
#
#
# Indices 1 2 3 4 5 6 
#
# 1 0.007920 -0.001977 -0.003291 0.000000 0.000000 0.000000
# 2 -0.001977 0.008726 -0.001962 0.000000 0.000000 0.000000
# 3 -0.003291 -0.001962 0.010875 0.000000 0.000000 0.000000
# 4 0.000000 0.000000 0.000000 0.030511 0.000000 0.000000
# 5 0.000000 0.000000 0.000000 0.000000 0.029025 0.000000
# 6 0.000000 0.000000 0.000000 0.000000 0.000000 0.083795
#
#
# Mechanical properties :
#
#
# Convention : Reuss Voigt Hill
#
# Bulk Modulus (GPa) = 76.57029 78.93207 77.75118
# Shear Modulus (GPa) = 26.36213 33.61053 29.98633
#
# Velocity S-wave (km/s) = 3.37551 3.81142 3.60007
# Velocity P-wave (km/s) = 6.94887 7.31333 7.13343
#
# Compressibility (1/GPa) = 0.01305990
#
# Stress axis : x y z
#
# Youngs Moduli (GPa) = 126.26428 114.59646 91.95809
#
# Poissons Ratio (x) = 0.22659 0.30265
# Poissons Ratio (y) = 0.24966 0.18042
# Poissons Ratio (z) = 0.41556 0.22483
#
# Static dielectric constant tensor:
#      x y z
#    x 4.442830 0.000000 0.000000 
#    y 0.000000 4.270370 0.000000 
#    z 0.000000 0.000000 4.153830 
# 
# 
# High freq. dielectric constant tensor:
#      x y z
#    x 1.926370 0.000000 0.000000 
#    y 0.000000 1.920050 0.000000 
#    z 0.000000 0.000000 1.914140 
# 
# From -- ./inp_files/21210.got.cif
#   From: 2010.03.12/outbox.cif.g09.slc.cpg/sg64_11_cif.got.tgz:21210.got - 2010.04.10 20:19:32.
