data_PCOD8264745
_publ_section_title
;
Structure prediction by ZEFSAII (Michael W. Deem and Ramdas Pophale) SiO2 
 PCOD8264745
Probable space group: C M C A
;
_chemical_formula_sum "Si O2"
_cell_formula_units_Z 72
_cell_length_a 16.584016
_cell_length_b 16.392624
_cell_length_c 12.626362
_cell_angle_alpha 90.000000
_cell_angle_beta 90.000000
_cell_angle_gamma 90.000000
_cell_volume 3432.546443
_symmetry_space_group_name_H-M "C M C A"
_symmetry_group_IT_number 64
_symmetry_cell_setting 'orthorhombic'
loop_
_space_group_symop_operation_xyz
x,y,z
-x,1/2-y,1/2+z
x,-y,-z
-x,1/2+y,1/2-z
-x,-y,-z
x,1/2+y,1/2-z
-x,y,z
x,1/2-y,1/2+z
1/2+x,1/2+y,z
1/2-x,-y,1/2+z
1/2+x,1/2-y,-z
1/2-x,y,1/2-z
1/2-x,1/2-y,-z
1/2+x,y,1/2-z
1/2-x,1/2+y,z
1/2+x,-y,1/2+z
loop_
_atom_site_type_symbol
_atom_site_label
_atom_site_fract_x
_atom_site_fract_y
_atom_site_fract_z
Si Si1 0.341559 0.605546 0.719944
Si Si2 0.310521 0.063977 0.168673
Si Si3 0.091454 0.148808 0.933831
Si Si4 0.095270 0.329968 0.997706
Si Si5 0.804308 0.500000 0.500000
O O1 0.250000 0.627070 0.750000
O O2 0.362032 0.507777 0.726462
O O3 0.397506 0.649358 0.807068
O O4 0.363311 0.640589 0.604778
O O5 0.250000 0.111987 0.250000
O O6 0.366803 0.123945 0.103471
O O7 0.252806 0.005404 0.100445
O O8 0.144190 0.081777 0.992980
O O9 0.000000 0.129105 0.961876
O O10 0.115836 0.235594 0.982827
O O11 0.000000 0.347950 0.999062
#
# Coordination Sequence:
#
# PCOD8264745 Si02
#       5
#    16  16  16  16   8
#     4  11  21  43  68  94 132 170 217 272 324 391
#     4  11  22  42  65  98 126 167 221 269 322 388
#     4  11  25  42  64  96 132 173 215 265 329 392
#     4  11  25  43  67 101 134 169 219 274 330 388
#     4  12  21  44  65  90 130 170 218 258 319 390
#
# _framework density 20.975680000000001
#
# number of rings (size 3 to 8) (size 9 to 14) (size 15 to 20)
#    0.000    0.889    6.667    1.000    0.000    8.889 
#    0.000    2.222    0.000    0.000    0.000    0.000 
#    0.000    0.000    0.000    0.000    0.000    0.000 
#
# Total GULP energy -446316.472266 kJ/mol
# GULP energy per Si atom -12397.679785 kJ/mol
# Density = 2.092794 g / cm^3
# Si number density = 20.975680 Si / 1000 Ang^3
#
#
#
# Elastic Constant Matrix: (Units=GPa)
#
#
# Indices 1 2 3 4 5 6 
#
# 1 101.0962 68.7986 35.1621 0.0000 0.0000 0.0000
# 2 68.7986 108.7337 24.7604 0.0000 0.0000 0.0000
# 3 35.1621 24.7604 90.1048 0.0000 0.0000 0.0000
# 4 0.0000 0.0000 0.0000 36.3944 0.0000 0.0000
# 5 0.0000 0.0000 0.0000 0.0000 28.7092 0.0000
# 6 0.0000 0.0000 0.0000 0.0000 0.0000 -3.2169
#
#
#
# Elastic Compliance Matrix: (Units=1/GPa)
#
#
# Indices 1 2 3 4 5 6 
#
# 1 0.018844 -0.010933 -0.004349 0.000000 0.000000 0.000000
# 2 -0.010933 0.016154 -0.000173 0.000000 0.000000 0.000000
# 3 -0.004349 -0.000173 0.012843 0.000000 0.000000 0.000000
# 4 0.000000 0.000000 0.000000 0.027477 0.000000 0.000000
# 5 0.000000 0.000000 0.000000 0.000000 0.034832 0.000000
# 6 0.000000 0.000000 0.000000 0.000000 0.000000 -0.310861
#
#
# Mechanical properties :
#
#
# Convention : Reuss Voigt Hill
#
# Bulk Modulus (GPa) = 59.06269 61.93076 60.49673
# Shear Modulus (GPa) = -30.45846 23.79158 -3.33344
#
# Velocity S-wave (km/s) = -3.81476 3.37151 -1.26200
# Velocity P-wave (km/s) = 2.96912 6.68919 5.17498
#
# Compressibility (1/GPa) = 0.01693116
#
# Stress axis : x y z
#
# Youngs Moduli (GPa) = 53.06590 61.90560 77.86396
#
# Poissons Ratio (x) = 0.67681 0.33867
# Poissons Ratio (y) = 0.58017 0.01343
# Poissons Ratio (z) = 0.23081 0.01068
#
# Static dielectric constant tensor:
#      x y z
#    x 3.794460 0.000000 0.000000 
#    y 0.000000 3.711080 0.000000 
#    z 0.000000 0.000000 4.273920 
# 
# 
# High freq. dielectric constant tensor:
#      x y z
#    x 1.822040 0.000000 0.000000 
#    y 0.000000 1.820190 0.000000 
#    z 0.000000 0.000000 1.837850 
# 
# From -- ./inp_files/15750.got.cif
#   From: 2010.03.12/outbox.cif.g09.slc.cpg/sg64_8_cif.got.tgz:15750.got - 2010.04.10 20:19:32.
