data_PCOD8264820
_publ_section_title
;
Structure prediction by ZEFSAII (Michael W. Deem and Ramdas Pophale) SiO2 
 PCOD8264820
Probable space group: C M C A
;
_chemical_formula_sum "Si O2"
_cell_formula_units_Z 64
_cell_length_a 15.544507
_cell_length_b 13.889421
_cell_length_c 13.305802
_cell_angle_alpha 90.000000
_cell_angle_beta 90.000000
_cell_angle_gamma 90.000000
_cell_volume 2872.778562
_symmetry_space_group_name_H-M "C M C A"
_symmetry_group_IT_number 64
_symmetry_cell_setting 'orthorhombic'
loop_
_space_group_symop_operation_xyz
x,y,z
-x,1/2-y,1/2+z
x,-y,-z
-x,1/2+y,1/2-z
-x,-y,-z
x,1/2+y,1/2-z
-x,y,z
x,1/2-y,1/2+z
1/2+x,1/2+y,z
1/2-x,-y,1/2+z
1/2+x,1/2-y,-z
1/2-x,y,1/2-z
1/2-x,1/2-y,-z
1/2+x,y,1/2-z
1/2-x,1/2+y,z
1/2+x,-y,1/2+z
loop_
_atom_site_type_symbol
_atom_site_label
_atom_site_fract_x
_atom_site_fract_y
_atom_site_fract_z
Si Si1 0.500000 0.083182 0.760995
Si Si2 0.317039 0.865692 0.161256
Si Si3 0.139354 0.674213 0.417685
Si Si4 0.500000 0.295077 0.080738
Si Si5 0.000000 0.636684 0.253291
Si Si6 0.247383 0.000000 0.000000
O O1 0.416157 0.136343 0.804634
O O2 0.500000 0.103237 0.640981
O O3 0.500000 0.971748 0.788157
O O4 0.250000 0.884280 0.250000
O O5 0.296582 0.762290 0.110168
O O6 0.308038 0.951166 0.081932
O O7 0.084385 0.650702 0.319379
O O8 0.189597 0.578343 0.444493
O O9 0.084172 0.709318 0.512492
O O10 0.500000 0.206126 0.157478
#
# Coordination Sequence:
#
# PCOD8264820 Si02
#       6
#     8  16  16   8   8   8
#     4  12  25  46  73 106 149 189 245 306 363 450
#     4  12  27  48  73 109 149 193 248 311 376 437
#     4  11  24  46  70 107 142 193 248 303 374 445
#     4  11  22  44  74 104 141 188 244 307 373 435
#     4  11  23  40  77 101 141 195 233 308 378 432
#     4  12  28  44  70 104 144 204 248 303 366 453
#
# _framework density 22.278082999999999
#
# number of rings (size 3 to 8) (size 9 to 14) (size 15 to 20)
#    0.000    0.500    2.500    6.000    3.500    5.500 
#    0.000    0.000    0.000    0.000    0.000    0.000 
#    0.000    0.000    0.000    0.000    0.000    0.000 
#
# Total GULP energy -396971.513828 kJ/mol
# GULP energy per Si atom -12405.359807 kJ/mol
# Density = 2.222738 g / cm^3
# Si number density = 22.278083 Si / 1000 Ang^3
#
#
#
# Elastic Constant Matrix: (Units=GPa)
#
#
# Indices 1 2 3 4 5 6 
#
# 1 106.2383 31.6093 34.7992 0.0000 0.0000 0.0000
# 2 31.6093 145.7623 43.6917 0.0000 0.0000 0.0000
# 3 34.7992 43.6917 74.0793 0.0000 0.0000 0.0000
# 4 0.0000 0.0000 0.0000 51.9814 0.0000 0.0000
# 5 0.0000 0.0000 0.0000 0.0000 10.7053 0.0000
# 6 0.0000 0.0000 0.0000 0.0000 0.0000 68.4121
#
#
#
# Elastic Compliance Matrix: (Units=1/GPa)
#
#
# Indices 1 2 3 4 5 6 
#
# 1 0.011253 -0.001040 -0.004673 0.000000 0.000000 0.000000
# 2 -0.001040 0.008430 -0.004484 0.000000 0.000000 0.000000
# 3 -0.004673 -0.004484 0.018339 0.000000 0.000000 0.000000
# 4 0.000000 0.000000 0.000000 0.019238 0.000000 0.000000
# 5 0.000000 0.000000 0.000000 0.000000 0.093412 0.000000
# 6 0.000000 0.000000 0.000000 0.000000 0.000000 0.014617
#
#
# Mechanical properties :
#
#
# Convention : Reuss Voigt Hill
#
# Bulk Modulus (GPa) = 56.72436 60.69782 58.71109
# Shear Modulus (GPa) = 26.10197 40.61840 33.36018
#
# Velocity S-wave (km/s) = 3.42664 4.27458 3.87388
# Velocity P-wave (km/s) = 6.41662 7.18800 6.81324
#
# Compressibility (1/GPa) = 0.01762911
#
# Stress axis : x y z
#
# Youngs Moduli (GPa) = 88.86711 118.62621 54.52984
#
# Poissons Ratio (x) = 0.12331 0.25482
# Poissons Ratio (y) = 0.09238 0.24449
# Poissons Ratio (z) = 0.41527 0.53187
#
# Static dielectric constant tensor:
#      x y z
#    x 3.938760 0.000000 0.000000 
#    y 0.000000 4.218280 0.000000 
#    z 0.000000 0.000000 4.188040 
# 
# 
# High freq. dielectric constant tensor:
#      x y z
#    x 1.874750 0.000000 0.000000 
#    y 0.000000 1.898060 0.000000 
#    z 0.000000 0.000000 1.890800 
# 
# From -- ./inp_files/15587.got.cif
#   From: 2010.03.12/outbox.cif.g09.slc.cpg/sg64_8_cif.got.tgz:15587.got - 2010.04.10 20:19:32.
