data_PCOD8264072
_publ_section_title
;
Structure prediction by ZEFSAII (Michael W. Deem and Ramdas Pophale) SiO2 
 PCOD8264072
Probable space group: C M C A
;
_chemical_formula_sum "Si O2"
_cell_formula_units_Z 112
_cell_length_a 13.899363
_cell_length_b 25.936285
_cell_length_c 14.751588
_cell_angle_alpha 90.000000
_cell_angle_beta 90.000000
_cell_angle_gamma 90.000000
_cell_volume 5317.915612
_symmetry_space_group_name_H-M "C M C A"
_symmetry_group_IT_number 64
_symmetry_cell_setting 'orthorhombic'
loop_
_space_group_symop_operation_xyz
x,y,z
-x,1/2-y,1/2+z
x,-y,-z
-x,1/2+y,1/2-z
-x,-y,-z
x,1/2+y,1/2-z
-x,y,z
x,1/2-y,1/2+z
1/2+x,1/2+y,z
1/2-x,-y,1/2+z
1/2+x,1/2-y,-z
1/2-x,y,1/2-z
1/2-x,1/2-y,-z
1/2+x,y,1/2-z
1/2-x,1/2+y,z
1/2+x,-y,1/2+z
loop_
_atom_site_type_symbol
_atom_site_label
_atom_site_fract_x
_atom_site_fract_y
_atom_site_fract_z
Si Si1 0.734518 0.808102 0.535037
Si Si2 0.391810 0.854822 0.856973
Si Si3 0.271815 0.991922 0.391539
Si Si4 0.107443 0.781171 0.805260
Si Si5 0.800180 0.124810 0.877979
Si Si6 0.109347 0.838168 0.298006
Si Si7 0.385749 0.464005 0.729626
O O1 0.750000 0.750000 0.500000
O O2 0.832132 0.840672 0.552915
O O3 0.678300 0.810219 0.628416
O O4 0.671929 0.841978 0.465750
O O5 0.500000 0.862309 0.891261
O O6 0.380418 0.805091 0.793455
O O7 0.359738 0.906195 0.803260
O O8 0.316195 0.935508 0.384980
O O9 0.264991 0.000000 0.500000
O O10 0.344755 0.028386 0.332600
O O11 0.167180 0.997630 0.342586
O O12 0.134447 0.721756 0.801203
O O13 0.000000 0.789244 0.842145
O O14 0.875055 0.143788 0.803861
O O15 0.686500 0.133671 0.860771
O O16 0.000000 0.850165 0.328786
O O17 0.500000 0.474858 0.728694
#
# Coordination Sequence:
#
# PCOD8264072 Si02
#       7
#    16  16  16  16  16  16  16
#     4  12  23  37  63  92 129 165 201 261 315 374
#     4  10  23  40  64  92 122 168 216 255 312 383
#     4  11  25  42  65  98 131 165 219 283 333 394
#     4  10  22  38  59  89 122 162 204 244 303 375
#     4  11  24  38  60  95 119 158 211 248 318 377
#     4  10  21  41  61  83 123 163 200 249 300 368
#     4  10  23  45  68  93 129 176 222 274 338 395
#
# _framework density 21.060884000000001
#
# number of rings (size 3 to 8) (size 9 to 14) (size 15 to 20)
#    0.000    1.429    1.429    3.857    8.000    4.571 
#    0.000    0.000    0.000    0.000    0.000    0.000 
#    0.000    0.000    0.000    0.000    0.000    0.000 
#
# Total GULP energy -694115.564156 kJ/mol
# GULP energy per Si atom -12394.920789 kJ/mol
# Density = 2.101295 g / cm^3
# Si number density = 21.060884 Si / 1000 Ang^3
#
#
#
# Elastic Constant Matrix: (Units=GPa)
#
#
# Indices 1 2 3 4 5 6 
#
# 1 71.7661 17.9260 21.1134 0.0000 0.0000 0.0000
# 2 17.9260 78.8617 21.4025 0.0000 0.0000 0.0000
# 3 21.1134 21.4025 98.1382 0.0000 0.0000 0.0000
# 4 0.0000 0.0000 0.0000 -138.7494 0.0000 0.0000
# 5 0.0000 0.0000 0.0000 0.0000 19.5454 0.0000
# 6 0.0000 0.0000 0.0000 0.0000 0.0000 32.0592
#
#
#
# Elastic Compliance Matrix: (Units=1/GPa)
#
#
# Indices 1 2 3 4 5 6 
#
# 1 0.015425 -0.002769 -0.002714 0.000000 0.000000 0.000000
# 2 -0.002769 0.013975 -0.002452 0.000000 0.000000 0.000000
# 3 -0.002714 -0.002452 0.011308 0.000000 0.000000 0.000000
# 4 0.000000 0.000000 0.000000 -0.007207 0.000000 0.000000
# 5 0.000000 0.000000 0.000000 0.000000 0.051163 0.000000
# 6 0.000000 0.000000 0.000000 0.000000 0.000000 0.031192
#
#
# Mechanical properties :
#
#
# Convention : Reuss Voigt Hill
#
# Bulk Modulus (GPa) = 40.26326 41.07220 40.66773
# Shear Modulus (GPa) = 35.71251 -4.87401 15.41925
#
# Velocity S-wave (km/s) = 4.12233 -1.52292 2.70872
# Velocity P-wave (km/s) = 6.46662 4.05606 5.39763
#
# Compressibility (1/GPa) = 0.02483654
#
# Stress axis : x y z
#
# Youngs Moduli (GPa) = 64.83191 71.55433 88.42952
#
# Poissons Ratio (x) = 0.19817 0.24004
# Poissons Ratio (y) = 0.17955 0.21683
# Poissons Ratio (z) = 0.17598 0.17545
#
# Static dielectric constant tensor:
#      x y z
#    x 4.051790 0.000000 0.000000 
#    y 0.000000 4.059960 0.000000 
#    z 0.000000 0.000000 3.802590 
# 
# 
# High freq. dielectric constant tensor:
#      x y z
#    x 1.823910 0.000000 0.000000 
#    y 0.000000 1.833360 0.000000 
#    z 0.000000 0.000000 1.825300 
# 
# From -- ./inp_files/24213.got.cif
#   From: 2010.03.12/outbox.cif.g09.slc.cpg/sg64_13_cif.got.tgz:24213.got - 2010.04.10 20:19:32.
