data_PCOD8264250
_publ_section_title
;
Structure prediction by ZEFSAII (Michael W. Deem and Ramdas Pophale) SiO2 
 PCOD8264250
Probable space group: C M C A
;
_chemical_formula_sum "Si O2"
_cell_formula_units_Z 96
_cell_length_a 21.128657
_cell_length_b 12.706910
_cell_length_c 17.483399
_cell_angle_alpha 90.000000
_cell_angle_beta 90.000000
_cell_angle_gamma 90.000000
_cell_volume 4693.941966
_symmetry_space_group_name_H-M "C M C A"
_symmetry_group_IT_number 64
_symmetry_cell_setting 'orthorhombic'
loop_
_space_group_symop_operation_xyz
x,y,z
-x,1/2-y,1/2+z
x,-y,-z
-x,1/2+y,1/2-z
-x,-y,-z
x,1/2+y,1/2-z
-x,y,z
x,1/2-y,1/2+z
1/2+x,1/2+y,z
1/2-x,-y,1/2+z
1/2+x,1/2-y,-z
1/2-x,y,1/2-z
1/2-x,1/2-y,-z
1/2+x,y,1/2-z
1/2-x,1/2+y,z
1/2+x,-y,1/2+z
loop_
_atom_site_type_symbol
_atom_site_label
_atom_site_fract_x
_atom_site_fract_y
_atom_site_fract_z
Si Si1 0.200095 0.898061 0.539388
Si Si2 0.812231 0.598336 0.213647
Si Si3 0.929482 0.881967 0.906324
Si Si4 0.872928 0.432398 0.315141
Si Si5 0.572743 0.736891 0.239892
Si Si6 0.667754 0.166144 0.531598
O O1 0.206457 0.927788 0.627570
O O2 0.268591 0.879026 0.503533
O O3 0.160033 0.792287 0.526237
O O4 0.167734 0.000000 0.500000
O O5 0.750000 0.656107 0.250000
O O6 0.822298 0.490719 0.261167
O O7 0.875985 0.667595 0.214092
O O8 0.916283 0.781238 0.851109
O O9 0.000000 0.880606 0.938185
O O10 0.919432 0.984970 0.854935
O O11 0.887581 0.884121 0.981747
O O12 0.915557 0.357871 0.261347
O O13 0.835894 0.366446 0.379818
O O14 0.500000 0.705223 0.261462
#
# Coordination Sequence:
#
# PCOD8264250 Si02
#       6
#    16  16  16  16  16  16
#     4  11  23  41  63  92 131 170 205 263 329 385
#     4  11  23  41  65  95 128 168 218 269 327 393
#     4  10  22  39  63  92 123 165 216 268 322 385
#     4  11  22  40  65  94 128 169 217 271 326 392
#     4  10  22  41  63  93 131 170 216 271 331 390
#     4  11  23  41  64  94 128 166 214 269 320 388
#
# _framework density 20.451892999999998
#
# number of rings (size 3 to 8) (size 9 to 14) (size 15 to 20)
#    0.000    1.333    1.667    5.000    2.333    3.333 
#    0.000    0.000    0.000    1.000    0.000    0.000 
#    0.000    0.000    0.000    0.000    0.000    0.000 
#
# Total GULP energy -595128.705018 kJ/mol
# GULP energy per Si atom -12398.514688 kJ/mol
# Density = 2.040534 g / cm^3
# Si number density = 20.451893 Si / 1000 Ang^3
#
#
#
# Elastic Constant Matrix: (Units=GPa)
#
#
# Indices 1 2 3 4 5 6 
#
# 1 83.6685 23.0985 14.0437 0.0000 0.0000 0.0000
# 2 23.0985 117.2285 31.5465 0.0000 0.0000 0.0000
# 3 14.0437 31.5465 86.4149 0.0000 0.0000 0.0000
# 4 0.0000 0.0000 0.0000 36.0770 0.0000 0.0000
# 5 0.0000 0.0000 0.0000 0.0000 23.6470 0.0000
# 6 0.0000 0.0000 0.0000 0.0000 0.0000 21.8407
#
#
#
# Elastic Compliance Matrix: (Units=1/GPa)
#
#
# Indices 1 2 3 4 5 6 
#
# 1 0.012766 -0.002170 -0.001282 0.000000 0.000000 0.000000
# 2 -0.002170 0.009829 -0.003235 0.000000 0.000000 0.000000
# 3 -0.001282 -0.003235 0.012962 0.000000 0.000000 0.000000
# 4 0.000000 0.000000 0.000000 0.027718 0.000000 0.000000
# 5 0.000000 0.000000 0.000000 0.000000 0.042289 0.000000
# 6 0.000000 0.000000 0.000000 0.000000 0.000000 0.045786
#
#
# Mechanical properties :
#
#
# Convention : Reuss Voigt Hill
#
# Bulk Modulus (GPa) = 45.08488 47.18770 46.13629
# Shear Modulus (GPa) = 29.04962 30.88784 29.96873
#
# Velocity S-wave (km/s) = 3.77289 3.89043 3.83211
# Velocity P-wave (km/s) = 6.40873 6.58052 6.49519
#
# Compressibility (1/GPa) = 0.02218039
#
# Stress axis : x y z
#
# Youngs Moduli (GPa) = 78.33091 101.74363 77.15120
#
# Poissons Ratio (x) = 0.22082 0.09894
# Poissons Ratio (y) = 0.17001 0.24961
# Poissons Ratio (z) = 0.10045 0.32917
#
# Static dielectric constant tensor:
#      x y z
#    x 3.605390 0.000000 0.000000 
#    y 0.000000 3.931100 0.000000 
#    z 0.000000 0.000000 3.791720 
# 
# 
# High freq. dielectric constant tensor:
#      x y z
#    x 1.790680 0.000000 0.000000 
#    y 0.000000 1.801010 0.000000 
#    z 0.000000 0.000000 1.807730 
# 
# From -- ./inp_files/34941.got.cif
#   From: 2010.03.12/outbox.cif.g09.slc.cpg/sg64_18_cif.got.tgz:34941.got - 2010.04.10 20:19:32.
