data_PCOD8264135
_publ_section_title
;
Structure prediction by ZEFSAII (Michael W. Deem and Ramdas Pophale) SiO2 
 PCOD8264135
Probable space group: C M C A
;
_chemical_formula_sum "Si O2"
_cell_formula_units_Z 72
_cell_length_a 22.829525
_cell_length_b 17.471642
_cell_length_c 9.121733
_cell_angle_alpha 90.000000
_cell_angle_beta 90.000000
_cell_angle_gamma 90.000000
_cell_volume 3638.379145
_symmetry_space_group_name_H-M "C M C A"
_symmetry_group_IT_number 64
_symmetry_cell_setting 'orthorhombic'
loop_
_space_group_symop_operation_xyz
x,y,z
-x,1/2-y,1/2+z
x,-y,-z
-x,1/2+y,1/2-z
-x,-y,-z
x,1/2+y,1/2-z
-x,y,z
x,1/2-y,1/2+z
1/2+x,1/2+y,z
1/2-x,-y,1/2+z
1/2+x,1/2-y,-z
1/2-x,y,1/2-z
1/2-x,1/2-y,-z
1/2+x,y,1/2-z
1/2-x,1/2+y,z
1/2+x,-y,1/2+z
loop_
_atom_site_type_symbol
_atom_site_label
_atom_site_fract_x
_atom_site_fract_y
_atom_site_fract_z
Si Si1 0.066618 0.475098 0.734630
Si Si2 0.066690 0.123045 0.957522
Si Si3 0.706666 0.343399 0.446984
Si Si4 0.351602 0.500000 0.500000
Si Si5 0.173472 0.286312 0.359105
O O1 0.078492 0.555726 0.657491
O O2 0.078993 0.406536 0.621520
O O3 0.108786 0.465308 0.871964
O O4 0.000000 0.470898 0.790595
O O5 0.109663 0.192369 0.920299
O O6 0.000000 0.152733 0.944179
O O7 0.689112 0.431900 0.441998
O O8 0.776990 0.340918 0.431705
O O9 0.686588 0.301870 0.597252
O O10 0.675862 0.295648 0.315823
#
# Coordination Sequence:
#
# PCOD8264135 Si02
#       5
#    16  16  16   8  16
#     4   9  19  34  57  87 123 156 189 247 302 343
#     4   9  18  37  61  83 115 160 199 237 295 356
#     4  10  24  39  64  84 125 154 198 239 312 333
#     4  12  21  38  58  98 111 156 204 248 280 366
#     4  10  21  45  57  87 119 160 191 252 290 361
#
# _framework density 19.789031999999999
#
# number of rings (size 3 to 8) (size 9 to 14) (size 15 to 20)
#    0.000    2.222    2.222    1.667    3.111    1.778 
#    0.000    3.333    0.000    0.000    0.000    0.000 
#    0.000    0.000    0.000    0.000    0.000    0.000 
#
# Total GULP energy -446442.621017 kJ/mol
# GULP energy per Si atom -12401.183917 kJ/mol
# Density = 1.974399 g / cm^3
# Si number density = 19.789032 Si / 1000 Ang^3
#
#
#
# Elastic Constant Matrix: (Units=GPa)
#
#
# Indices 1 2 3 4 5 6 
#
# 1 102.0149 23.6252 27.0335 0.0000 0.0000 0.0000
# 2 23.6252 62.3238 21.5027 0.0000 0.0000 0.0000
# 3 27.0335 21.5027 83.8882 0.0000 0.0000 0.0000
# 4 0.0000 0.0000 0.0000 21.9185 0.0000 0.0000
# 5 0.0000 0.0000 0.0000 0.0000 26.8794 0.0000
# 6 0.0000 0.0000 0.0000 0.0000 0.0000 27.6469
#
#
#
# Elastic Compliance Matrix: (Units=1/GPa)
#
#
# Indices 1 2 3 4 5 6 
#
# 1 0.011313 -0.003325 -0.002793 0.000000 0.000000 0.000000
# 2 -0.003325 0.018579 -0.003691 0.000000 0.000000 0.000000
# 3 -0.002793 -0.003691 0.013767 0.000000 0.000000 0.000000
# 4 0.000000 0.000000 0.000000 0.045624 0.000000 0.000000
# 5 0.000000 0.000000 0.000000 0.000000 0.037203 0.000000
# 6 0.000000 0.000000 0.000000 0.000000 0.000000 0.036170
#
#
# Mechanical properties :
#
#
# Convention : Reuss Voigt Hill
#
# Bulk Modulus (GPa) = 41.59603 43.61664 42.60634
# Shear Modulus (GPa) = 26.27613 27.02667 26.65140
#
# Velocity S-wave (km/s) = 3.64787 3.69960 3.67383
# Velocity P-wave (km/s) = 6.22960 6.35123 6.29071
#
# Compressibility (1/GPa) = 0.02404075
#
# Stress axis : x y z
#
# Youngs Moduli (GPa) = 88.39665 53.82452 72.63809
#
# Poissons Ratio (x) = 0.17894 0.20291
# Poissons Ratio (y) = 0.29388 0.26810
# Poissons Ratio (z) = 0.24693 0.19866
#
# Static dielectric constant tensor:
#      x y z
#    x 3.610270 0.000000 0.000000 
#    y 0.000000 3.198200 0.000000 
#    z 0.000000 0.000000 3.614160 
# 
# 
# High freq. dielectric constant tensor:
#      x y z
#    x 1.776180 0.000000 0.000000 
#    y 0.000000 1.744930 0.000000 
#    z 0.000000 0.000000 1.774770 
# 
# From -- ./inp_files/9148.got.cif
#   From: 2010.03.12/outbox.cif.g09.slc.cpg/sg64_5_cif.got.tgz:9148.got - 2010.04.10 20:19:32.
