data_PCOD8264730
_publ_section_title
;
Structure prediction by ZEFSAII (Michael W. Deem and Ramdas Pophale) SiO2 
 PCOD8264730
Probable space group: C M C A
;
_chemical_formula_sum "Si O2"
_cell_formula_units_Z 64
_cell_length_a 13.857958
_cell_length_b 15.407049
_cell_length_c 13.611361
_cell_angle_alpha 90.000000
_cell_angle_beta 90.000000
_cell_angle_gamma 90.000000
_cell_volume 2906.164926
_symmetry_space_group_name_H-M "C M C A"
_symmetry_group_IT_number 64
_symmetry_cell_setting 'orthorhombic'
loop_
_space_group_symop_operation_xyz
x,y,z
-x,1/2-y,1/2+z
x,-y,-z
-x,1/2+y,1/2-z
-x,-y,-z
x,1/2+y,1/2-z
-x,y,z
x,1/2-y,1/2+z
1/2+x,1/2+y,z
1/2-x,-y,1/2+z
1/2+x,1/2-y,-z
1/2-x,y,1/2-z
1/2-x,1/2-y,-z
1/2+x,y,1/2-z
1/2-x,1/2+y,z
1/2+x,-y,1/2+z
loop_
_atom_site_type_symbol
_atom_site_label
_atom_site_fract_x
_atom_site_fract_y
_atom_site_fract_z
Si Si1 0.706315 0.367926 0.061437
Si Si2 0.000000 0.130306 0.468604
Si Si3 0.294364 0.703293 0.150231
Si Si4 0.161155 0.500000 0.000000
Si Si5 0.000000 0.676710 0.617240
Si Si6 0.500000 0.775309 0.167783
O O1 0.731167 0.350677 0.946662
O O2 0.767214 0.455850 0.081441
O O3 0.745340 0.297083 0.136921
O O4 0.591497 0.374743 0.074159
O O5 0.905318 0.072669 0.446071
O O6 0.000000 0.152594 0.583556
O O7 0.000000 0.220369 0.408678
O O8 0.250000 0.661635 0.250000
O O9 0.408971 0.711779 0.160381
O O10 0.000000 0.668485 0.733699
#
# Coordination Sequence:
#
# PCOD8264730 Si02
#       6
#    16   8  16   8   8   8
#     4  11  22  40  63  95 128 170 209 268 320 383
#     4  11  22  44  65  94 125 175 214 260 313 397
#     4  11  21  38  65  94 123 165 225 265 308 376
#     4  11  24  39  66  88 136 169 202 253 344 382
#     4  12  23  40  73  94 124 168 230 267 313 370
#     4  12  21  37  70  97 119 160 230 276 300 370
#
# _framework density 22.022148999999999
#
# number of rings (size 3 to 8) (size 9 to 14) (size 15 to 20)
#    0.000    0.750    7.500    1.500    0.000    0.500 
#    0.000    3.750    0.000    0.000    0.000    0.000 
#    0.000    0.000    0.000    0.000    0.000    0.000 
#
# Total GULP energy -396677.416616 kJ/mol
# GULP energy per Si atom -12396.169269 kJ/mol
# Density = 2.197203 g / cm^3
# Si number density = 22.022149 Si / 1000 Ang^3
#
#
#
# Elastic Constant Matrix: (Units=GPa)
#
#
# Indices 1 2 3 4 5 6 
#
# 1 184.8139 44.4538 10.3066 0.0000 0.0000 0.0000
# 2 44.4538 63.9533 11.3996 0.0000 0.0000 0.0000
# 3 10.3066 11.3996 120.2822 0.0000 0.0000 0.0000
# 4 0.0000 0.0000 0.0000 15.4727 0.0000 0.0000
# 5 0.0000 0.0000 0.0000 0.0000 25.9805 0.0000
# 6 0.0000 0.0000 0.0000 0.0000 0.0000 -18.4018
#
#
#
# Elastic Compliance Matrix: (Units=1/GPa)
#
#
# Indices 1 2 3 4 5 6 
#
# 1 0.006499 -0.004494 -0.000131 0.000000 0.000000 0.000000
# 2 -0.004494 0.019013 -0.001417 0.000000 0.000000 0.000000
# 3 -0.000131 -0.001417 0.008459 0.000000 0.000000 0.000000
# 4 0.000000 0.000000 0.000000 0.064630 0.000000 0.000000
# 5 0.000000 0.000000 0.000000 0.000000 0.038490 0.000000
# 6 0.000000 0.000000 0.000000 0.000000 0.000000 -0.054343
#
#
# Mechanical properties :
#
#
# Convention : Reuss Voigt Hill
#
# Bulk Modulus (GPa) = 45.68858 55.70772 50.69815
# Shear Modulus (GPa) = 48.95779 24.80291 36.88035
#
# Velocity S-wave (km/s) = 4.72011 3.35964 4.09674
# Velocity P-wave (km/s) = 7.10616 6.35615 6.74160
#
# Compressibility (1/GPa) = 0.02188731
#
# Stress axis : x y z
#
# Youngs Moduli (GPa) = 153.86617 52.59597 118.21329
#
# Poissons Ratio (x) = 0.23638 0.01548
# Poissons Ratio (y) = 0.69151 0.16749
# Poissons Ratio (z) = 0.02015 0.07452
#
# Static dielectric constant tensor:
#      x y z
#    x 4.370110 0.000000 0.000000 
#    y 0.000000 3.697230 0.000000 
#    z 0.000000 0.000000 3.876910 
# 
# 
# High freq. dielectric constant tensor:
#      x y z
#    x 1.901620 0.000000 0.000000 
#    y 0.000000 1.829760 0.000000 
#    z 0.000000 0.000000 1.848010 
# 
# From -- ./inp_files/14098.got.cif
#   From: 2010.03.12/outbox.cif.g09.slc.cpg/sg64_8_cif.got.tgz:14098.got - 2010.04.10 20:19:32.
