data_PCOD8264870
_publ_section_title
;
Structure prediction by ZEFSAII (Michael W. Deem and Ramdas Pophale) SiO2 
 PCOD8264870
Probable space group: C M C A
;
_chemical_formula_sum "Si O2"
_cell_formula_units_Z 96
_cell_length_a 22.886316
_cell_length_b 9.379262
_cell_length_c 20.969609
_cell_angle_alpha 90.000000
_cell_angle_beta 90.000000
_cell_angle_gamma 90.000000
_cell_volume 4501.268200
_symmetry_space_group_name_H-M "C M C A"
_symmetry_group_IT_number 64
_symmetry_cell_setting 'orthorhombic'
loop_
_space_group_symop_operation_xyz
x,y,z
-x,1/2-y,1/2+z
x,-y,-z
-x,1/2+y,1/2-z
-x,-y,-z
x,1/2+y,1/2-z
-x,y,z
x,1/2-y,1/2+z
1/2+x,1/2+y,z
1/2-x,-y,1/2+z
1/2+x,1/2-y,-z
1/2-x,y,1/2-z
1/2-x,1/2-y,-z
1/2+x,y,1/2-z
1/2-x,1/2+y,z
1/2+x,-y,1/2+z
loop_
_atom_site_type_symbol
_atom_site_label
_atom_site_fract_x
_atom_site_fract_y
_atom_site_fract_z
Si Si1 0.121848 0.878813 0.209282
Si Si2 0.500000 0.067634 0.837250
Si Si3 0.896050 0.043376 0.569161
Si Si4 0.843058 0.925893 0.686076
Si Si5 0.276428 0.531593 0.140788
Si Si6 0.780015 0.803837 0.437459
Si Si7 0.000000 0.232564 0.791655
O O1 0.153752 0.727902 0.219073
O O2 0.160529 0.982798 0.165956
O O3 0.057909 0.843598 0.179245
O O4 0.115023 0.960146 0.277131
O O5 0.553507 0.098529 0.884801
O O6 0.500000 0.193489 0.784026
O O7 0.500000 0.903327 0.807514
O O8 0.847971 0.161801 0.551291
O O9 0.922006 0.000000 0.500000
O O10 0.862739 0.920010 0.611334
O O11 0.776245 0.980833 0.692573
O O12 0.259251 0.439574 0.079652
O O13 0.278951 0.695478 0.121210
O O14 0.750000 0.750000 0.500000
#
# Coordination Sequence:
#
# PCOD8264870 Si02
#       7
#    16   8  16  16  16  16   8
#     4  12  24  41  67  95 142 179 232 288 357 423
#     4  12  25  48  70 106 135 192 240 288 360 412
#     4  11  24  43  72  98 138 181 243 289 345 423
#     4  11  24  42  65 101 132 180 228 290 360 416
#     4  11  24  40  66  99 138 179 230 293 354 428
#     4  11  23  43  67 100 138 186 232 293 363 427
#     4  12  24  44  70 100 150 184 234 296 348 426
#
# _framework density 21.327324000000001
#
# number of rings (size 3 to 8) (size 9 to 14) (size 15 to 20)
#    0.000    0.667    5.000    3.250    4.667    2.667 
#    0.000    0.000    0.000    0.000    0.000    4.667 
#    0.000    0.000    0.000    0.000    0.000    0.000 
#
# Total GULP energy -594725.919982 kJ/mol
# GULP energy per Si atom -12390.123333 kJ/mol
# Density = 2.127878 g / cm^3
# Si number density = 21.327324 Si / 1000 Ang^3
#
#
#
# Elastic Constant Matrix: (Units=GPa)
#
#
# Indices 1 2 3 4 5 6 
#
# 1 136.2114 14.4988 33.8032 0.0000 0.0000 0.0000
# 2 14.4988 77.9191 25.9771 0.0000 0.0000 0.0000
# 3 33.8032 25.9771 90.0146 0.0000 0.0000 0.0000
# 4 0.0000 0.0000 0.0000 31.6167 0.0000 0.0000
# 5 0.0000 0.0000 0.0000 0.0000 38.0481 0.0000
# 6 0.0000 0.0000 0.0000 0.0000 0.0000 30.5599
#
#
#
# Elastic Compliance Matrix: (Units=1/GPa)
#
#
# Indices 1 2 3 4 5 6 
#
# 1 0.008117 -0.000547 -0.002890 0.000000 0.000000 0.000000
# 2 -0.000547 0.014237 -0.003903 0.000000 0.000000 0.000000
# 3 -0.002890 -0.003903 0.013321 0.000000 0.000000 0.000000
# 4 0.000000 0.000000 0.000000 0.031629 0.000000 0.000000
# 5 0.000000 0.000000 0.000000 0.000000 0.026283 0.000000
# 6 0.000000 0.000000 0.000000 0.000000 0.000000 0.032723
#
#
# Mechanical properties :
#
#
# Convention : Reuss Voigt Hill
#
# Bulk Modulus (GPa) = 47.63215 50.30037 48.96626
# Shear Modulus (GPa) = 33.78654 35.36935 34.57794
#
# Velocity S-wave (km/s) = 3.98451 4.07677 4.03090
# Velocity P-wave (km/s) = 6.59930 6.76729 6.68382
#
# Compressibility (1/GPa) = 0.02099422
#
# Stress axis : x y z
#
# Youngs Moduli (GPa) = 123.19772 70.24025 75.06843
#
# Poissons Ratio (x) = 0.03840 0.21698
# Poissons Ratio (y) = 0.06736 0.29301
# Poissons Ratio (z) = 0.35609 0.27417
#
# Static dielectric constant tensor:
#      x y z
#    x 4.214580 0.000000 0.000000 
#    y 0.000000 3.902430 0.000000 
#    z 0.000000 0.000000 3.825230 
# 
# 
# High freq. dielectric constant tensor:
#      x y z
#    x 1.855880 0.000000 0.000000 
#    y 0.000000 1.825290 0.000000 
#    z 0.000000 0.000000 1.826820 
# 
# From -- ./inp_files/46631.got.cif
#   From: 2010.03.12/outbox.cif.g09.slc.cpg/sg64_24_cif.got.tgz:46631.got - 2010.04.10 20:19:32.
