data_PCOD8264197
_publ_section_title
;
Structure prediction by ZEFSAII (Michael W. Deem and Ramdas Pophale) SiO2 
 PCOD8264197
Probable space group: C M C A
;
_chemical_formula_sum "Si O2"
_cell_formula_units_Z 80
_cell_length_a 24.702168
_cell_length_b 14.184617
_cell_length_c 11.235709
_cell_angle_alpha 90.000000
_cell_angle_beta 90.000000
_cell_angle_gamma 90.000000
_cell_volume 3936.888977
_symmetry_space_group_name_H-M "C M C A"
_symmetry_group_IT_number 64
_symmetry_cell_setting 'orthorhombic'
loop_
_space_group_symop_operation_xyz
x,y,z
-x,1/2-y,1/2+z
x,-y,-z
-x,1/2+y,1/2-z
-x,-y,-z
x,1/2+y,1/2-z
-x,y,z
x,1/2-y,1/2+z
1/2+x,1/2+y,z
1/2-x,-y,1/2+z
1/2+x,1/2-y,-z
1/2-x,y,1/2-z
1/2-x,1/2-y,-z
1/2+x,y,1/2-z
1/2-x,1/2+y,z
1/2+x,-y,1/2+z
loop_
_atom_site_type_symbol
_atom_site_label
_atom_site_fract_x
_atom_site_fract_y
_atom_site_fract_z
Si Si1 0.770551 0.096274 0.380584
Si Si2 0.060149 0.940986 0.620322
Si Si3 0.134402 0.798666 0.511838
Si Si4 0.652380 0.062995 0.806423
Si Si5 0.664291 0.095883 0.538436
O O1 0.750000 0.122059 0.250000
O O2 0.810056 0.180429 0.418804
O O3 0.721396 0.093414 0.471688
O O4 0.802328 0.995790 0.379532
O O5 0.083864 0.837896 0.588352
O O6 0.000000 0.929995 0.675225
O O7 0.058808 0.000000 0.500000
O O8 0.099467 0.996080 0.711744
O O9 0.136569 0.844316 0.380736
O O10 0.128594 0.685912 0.500153
O O11 0.675201 0.095069 0.679691
O O12 0.632728 0.000000 0.500000
#
# Coordination Sequence:
#
# PCOD8264197 Si02
#       5
#    16  16  16  16  16
#     4  11  22  37  56  84 119 164 206 243 304 366
#     4   8  16  38  68  92 114 150 203 261 310 366
#     4  10  23  37  58  91 118 158 213 249 302 377
#     4  10  22  38  61  88 123 156 210 255 305 378
#     4  12  24  38  56  85 130 169 200 256 307 358
#
# _framework density 20.320613999999999
#
# number of rings (size 3 to 8) (size 9 to 14) (size 15 to 20)
#    0.000    1.800    2.000    3.600    2.800    0.000 
#    0.000    1.000    0.000    7.200    0.000    0.000 
#    0.000    0.000    0.000    0.000    0.000    0.000 
#
# Total GULP energy -495924.008380 kJ/mol
# GULP energy per Si atom -12398.100210 kJ/mol
# Density = 2.027436 g / cm^3
# Si number density = 20.320614 Si / 1000 Ang^3
#
#
#
# Elastic Constant Matrix: (Units=GPa)
#
#
# Indices 1 2 3 4 5 6 
#
# 1 115.8182 44.4407 41.6506 0.0000 0.0000 0.0000
# 2 44.4407 165.5169 33.8614 0.0000 0.0000 0.0000
# 3 41.6506 33.8614 113.2314 0.0000 0.0000 0.0000
# 4 0.0000 0.0000 0.0000 23.4880 0.0000 0.0000
# 5 0.0000 0.0000 0.0000 0.0000 13.5699 0.0000
# 6 0.0000 0.0000 0.0000 0.0000 0.0000 15.4311
#
#
#
# Elastic Compliance Matrix: (Units=1/GPa)
#
#
# Indices 1 2 3 4 5 6 
#
# 1 0.010648 -0.002192 -0.003261 0.000000 0.000000 0.000000
# 2 -0.002192 0.006887 -0.001253 0.000000 0.000000 0.000000
# 3 -0.003261 -0.001253 0.010406 0.000000 0.000000 0.000000
# 4 0.000000 0.000000 0.000000 0.042575 0.000000 0.000000
# 5 0.000000 0.000000 0.000000 0.000000 0.073693 0.000000
# 6 0.000000 0.000000 0.000000 0.000000 0.000000 0.064804
#
#
# Mechanical properties :
#
#
# Convention : Reuss Voigt Hill
#
# Bulk Modulus (GPa) = 68.83283 70.49687 69.66485
# Shear Modulus (GPa) = 22.00051 28.80538 25.40294
#
# Velocity S-wave (km/s) = 3.29396 3.76911 3.53952
# Velocity P-wave (km/s) = 6.95801 7.32866 7.14574
#
# Compressibility (1/GPa) = 0.01452795
#
# Stress axis : x y z
#
# Youngs Moduli (GPa) = 93.91381 145.21091 96.09968
#
# Poissons Ratio (x) = 0.31827 0.31341
# Poissons Ratio (y) = 0.20584 0.12043
# Poissons Ratio (z) = 0.30628 0.18198
#
# Static dielectric constant tensor:
#      x y z
#    x 3.830230 0.000000 0.000000 
#    y 0.000000 3.882560 0.000000 
#    z 0.000000 0.000000 3.562990 
# 
# 
# High freq. dielectric constant tensor:
#      x y z
#    x 1.764630 0.000000 0.000000 
#    y 0.000000 1.790380 0.000000 
#    z 0.000000 0.000000 1.788220 
# 
# From -- ./inp_files/18086.got.cif
#   From: 2010.03.12/outbox.cif.g09.slc.cpg/sg64_10_cif.got.tgz:18086.got - 2010.04.10 20:19:32.
