data_PCOD8264760
_publ_section_title
;
Structure prediction by ZEFSAII (Michael W. Deem and Ramdas Pophale) SiO2 
 PCOD8264760
Probable space group: C M C A
;
_chemical_formula_sum "Si O2"
_cell_formula_units_Z 80
_cell_length_a 8.998709
_cell_length_b 15.393551
_cell_length_c 29.390112
_cell_angle_alpha 90.000000
_cell_angle_beta 90.000000
_cell_angle_gamma 90.000000
_cell_volume 4071.179620
_symmetry_space_group_name_H-M "C M C A"
_symmetry_group_IT_number 64
_symmetry_cell_setting 'orthorhombic'
loop_
_space_group_symop_operation_xyz
x,y,z
-x,1/2-y,1/2+z
x,-y,-z
-x,1/2+y,1/2-z
-x,-y,-z
x,1/2+y,1/2-z
-x,y,z
x,1/2-y,1/2+z
1/2+x,1/2+y,z
1/2-x,-y,1/2+z
1/2+x,1/2-y,-z
1/2-x,y,1/2-z
1/2-x,1/2-y,-z
1/2+x,y,1/2-z
1/2-x,1/2+y,z
1/2+x,-y,1/2+z
loop_
_atom_site_type_symbol
_atom_site_label
_atom_site_fract_x
_atom_site_fract_y
_atom_site_fract_z
Si Si1 0.173779 0.268043 0.363919
Si Si2 0.332307 0.468971 0.144990
Si Si3 0.174613 0.113648 0.298470
Si Si4 0.327808 0.221805 0.954140
Si Si5 0.833310 0.052108 0.954669
O O1 0.216819 0.367376 0.351019
O O2 0.221221 0.202469 0.323970
O O3 0.257855 0.234341 0.409217
O O4 0.000000 0.262418 0.374537
O O5 0.500000 0.479416 0.163685
O O6 0.223771 0.527844 0.174487
O O7 0.325059 0.502338 0.092316
O O8 0.250000 0.115793 0.250000
O O9 0.000000 0.108118 0.291846
O O10 0.500000 0.245216 0.956264
O O11 0.299200 0.119872 0.950357
O O12 0.250000 0.250000 0.000000
O O13 0.000000 0.094149 0.957767
O O14 0.800007 0.000000 0.000000
#
# Coordination Sequence:
#
# PCOD8264760 Si02
#       5
#    16  16  16  16  16
#     4   9  21  42  62  85 119 158 197 247 302 357
#     4   9  19  38  61  86 121 157 194 240 299 358
#     4  11  24  41  63  90 119 152 200 250 302 359
#     4  11  22  35  55  84 118 157 200 242 291 352
#     4   9  19  36  57  84 118 156 195 238 296 354
#
# _framework density 19.650324000000001
#
# number of rings (size 3 to 8) (size 9 to 14) (size 15 to 20)
#    0.000    2.200    0.000    3.600    2.800    6.000 
#    0.000    2.000    0.000    0.000    0.000    0.000 
#    0.000    0.000    0.000    0.000    0.000    0.000 
#
# Total GULP energy -495765.123419 kJ/mol
# GULP energy per Si atom -12394.128085 kJ/mol
# Density = 1.960560 g / cm^3
# Si number density = 19.650324 Si / 1000 Ang^3
#
#
#
# Elastic Constant Matrix: (Units=GPa)
#
#
# Indices 1 2 3 4 5 6 
#
# 1 93.9148 43.6043 70.9545 0.0000 0.0000 0.0000
# 2 43.6043 91.9203 73.3532 0.0000 0.0000 0.0000
# 3 70.9545 73.3532 174.5228 0.0000 0.0000 0.0000
# 4 0.0000 0.0000 0.0000 31.8982 0.0000 0.0000
# 5 0.0000 0.0000 0.0000 0.0000 33.2958 0.0000
# 6 0.0000 0.0000 0.0000 0.0000 0.0000 28.3204
#
#
#
# Elastic Compliance Matrix: (Units=1/GPa)
#
#
# Indices 1 2 3 4 5 6 
#
# 1 0.016140 -0.003641 -0.005032 0.000000 0.000000 0.000000
# 2 -0.003641 0.017191 -0.005745 0.000000 0.000000 0.000000
# 3 -0.005032 -0.005745 0.010190 0.000000 0.000000 0.000000
# 4 0.000000 0.000000 0.000000 0.031350 0.000000 0.000000
# 5 0.000000 0.000000 0.000000 0.000000 0.030034 0.000000
# 6 0.000000 0.000000 0.000000 0.000000 0.000000 0.035310
#
#
# Mechanical properties :
#
#
# Convention : Reuss Voigt Hill
#
# Bulk Modulus (GPa) = 68.09400 81.79798 74.94599
# Shear Modulus (GPa) = 28.74464 30.19927 29.47195
#
# Velocity S-wave (km/s) = 3.82882 3.92450 3.87695
# Velocity P-wave (km/s) = 7.36712 7.89004 7.63306
#
# Compressibility (1/GPa) = 0.01468558
#
# Stress axis : x y z
#
# Youngs Moduli (GPa) = 61.95825 58.17034 98.13300
#
# Poissons Ratio (x) = 0.21180 0.49376
# Poissons Ratio (y) = 0.22560 0.56379
# Poissons Ratio (z) = 0.31174 0.33420
#
# Static dielectric constant tensor:
#      x y z
#    x 3.250270 0.000000 0.000000 
#    y 0.000000 3.135980 0.000000 
#    z 0.000000 0.000000 3.706880 
# 
# 
# High freq. dielectric constant tensor:
#      x y z
#    x 1.761420 0.000000 0.000000 
#    y 0.000000 1.753620 0.000000 
#    z 0.000000 0.000000 1.776850 
# 
# From -- ./inp_files/47807.got.cif
#   From: 2010.03.12/outbox.cif.g09.slc.cpg/sg64_24_cif.got.tgz:47807.got - 2010.04.10 20:19:32.
