data_PCOD8264403
_publ_section_title
;
Structure prediction by ZEFSAII (Michael W. Deem and Ramdas Pophale) SiO2 
 PCOD8264403
Probable space group: C M C A
;
_chemical_formula_sum "Si O2"
_cell_formula_units_Z 80
_cell_length_a 24.870977
_cell_length_b 8.444990
_cell_length_c 17.756081
_cell_angle_alpha 90.000000
_cell_angle_beta 90.000000
_cell_angle_gamma 90.000000
_cell_volume 3729.401173
_symmetry_space_group_name_H-M "C M C A"
_symmetry_group_IT_number 64
_symmetry_cell_setting 'orthorhombic'
loop_
_space_group_symop_operation_xyz
x,y,z
-x,1/2-y,1/2+z
x,-y,-z
-x,1/2+y,1/2-z
-x,-y,-z
x,1/2+y,1/2-z
-x,y,z
x,1/2-y,1/2+z
1/2+x,1/2+y,z
1/2-x,-y,1/2+z
1/2+x,1/2-y,-z
1/2-x,y,1/2-z
1/2-x,1/2-y,-z
1/2+x,y,1/2-z
1/2-x,1/2+y,z
1/2+x,-y,1/2+z
loop_
_atom_site_type_symbol
_atom_site_label
_atom_site_fract_x
_atom_site_fract_y
_atom_site_fract_z
Si Si1 0.271287 0.090169 0.928910
Si Si2 0.645387 0.064205 0.166140
Si Si3 0.060415 0.600888 0.924825
Si Si4 0.826954 0.413329 0.318409
Si Si5 0.145686 0.138735 0.059630
O O1 0.229862 0.117016 0.860218
O O2 0.299466 0.257338 0.950149
O O3 0.317700 0.965967 0.906492
O O4 0.243266 0.000000 0.000000
O O5 0.639353 0.250606 0.180684
O O6 0.587076 0.991673 0.146185
O O7 0.676653 0.970141 0.232434
O O8 0.092241 0.759018 0.946237
O O9 0.000000 0.644661 0.899954
O O10 0.060046 0.500000 0.000000
O O11 0.857307 0.557128 0.358816
O O12 0.144015 0.000000 0.000000
#
# Coordination Sequence:
#
# PCOD8264403 Si02
#       5
#    16  16  16  16  16
#     4  11  23  39  60  89 127 169 209 250 302 366
#     4  11  23  41  61  88 124 163 206 256 310 367
#     4  10  22  43  69  94 122 158 204 261 319 373
#     4  12  24  39  60  88 124 166 210 254 306 368
#     4  11  22  39  64  95 130 165 206 256 308 369
#
# _framework density 21.451167000000002
#
# number of rings (size 3 to 8) (size 9 to 14) (size 15 to 20)
#    0.000    1.000    0.000    9.600    0.000    4.400 
#    0.000    8.000    0.000    0.000    0.000    0.000 
#    0.000    0.000    0.000    0.000    0.000    0.000 
#
# Total GULP energy -495902.667698 kJ/mol
# GULP energy per Si atom -12397.566692 kJ/mol
# Density = 2.140234 g / cm^3
# Si number density = 21.451167 Si / 1000 Ang^3
#
#
#
# Elastic Constant Matrix: (Units=GPa)
#
#
# Indices 1 2 3 4 5 6 
#
# 1 152.0844 60.9523 37.7921 0.0000 0.0000 0.0000
# 2 60.9523 157.8439 46.5286 0.0000 0.0000 0.0000
# 3 37.7921 46.5286 94.4829 0.0000 0.0000 0.0000
# 4 0.0000 0.0000 0.0000 46.1643 0.0000 0.0000
# 5 0.0000 0.0000 0.0000 0.0000 24.6011 0.0000
# 6 0.0000 0.0000 0.0000 0.0000 0.0000 27.0460
#
#
#
# Elastic Compliance Matrix: (Units=1/GPa)
#
#
# Indices 1 2 3 4 5 6 
#
# 1 0.008085 -0.002537 -0.001985 0.000000 0.000000 0.000000
# 2 -0.002537 0.008207 -0.003027 0.000000 0.000000 0.000000
# 3 -0.001985 -0.003027 0.012868 0.000000 0.000000 0.000000
# 4 0.000000 0.000000 0.000000 0.021662 0.000000 0.000000
# 5 0.000000 0.000000 0.000000 0.000000 0.040649 0.000000
# 6 0.000000 0.000000 0.000000 0.000000 0.000000 0.036974
#
#
# Mechanical properties :
#
#
# Convention : Reuss Voigt Hill
#
# Bulk Modulus (GPa) = 71.10516 77.21746 74.16131
# Shear Modulus (GPa) = 33.73121 36.83817 35.28469
#
# Velocity S-wave (km/s) = 3.96973 4.14853 4.06012
# Velocity P-wave (km/s) = 7.36418 7.68258 7.52507
#
# Compressibility (1/GPa) = 0.01406368
#
# Stress axis : x y z
#
# Youngs Moduli (GPa) = 123.68117 121.84146 77.70996
#
# Poissons Ratio (x) = 0.30913 0.15422
# Poissons Ratio (y) = 0.31380 0.23522
# Poissons Ratio (z) = 0.24546 0.36881
#
# Static dielectric constant tensor:
#      x y z
#    x 3.865660 0.000000 0.000000 
#    y 0.000000 4.239230 0.000000 
#    z 0.000000 0.000000 5.186710 
# 
# 
# High freq. dielectric constant tensor:
#      x y z
#    x 1.813130 0.000000 0.000000 
#    y 0.000000 1.865480 0.000000 
#    z 0.000000 0.000000 1.849430 
# 
# From -- ./inp_files/35331.got.cif
#   From: 2010.03.12/outbox.cif.g09.slc.cpg/sg64_18_cif.got.tgz:35331.got - 2010.04.10 20:19:32.
