data_PCOD8264759
_publ_section_title
;
Structure prediction by ZEFSAII (Michael W. Deem and Ramdas Pophale) SiO2 
 PCOD8264759
Probable space group: C M C A
;
_chemical_formula_sum "Si O2"
_cell_formula_units_Z 80
_cell_length_a 13.087378
_cell_length_b 17.395617
_cell_length_c 18.849497
_cell_angle_alpha 90.000000
_cell_angle_beta 90.000000
_cell_angle_gamma 90.000000
_cell_volume 4291.333322
_symmetry_space_group_name_H-M "C M C A"
_symmetry_group_IT_number 64
_symmetry_cell_setting 'orthorhombic'
loop_
_space_group_symop_operation_xyz
x,y,z
-x,1/2-y,1/2+z
x,-y,-z
-x,1/2+y,1/2-z
-x,-y,-z
x,1/2+y,1/2-z
-x,y,z
x,1/2-y,1/2+z
1/2+x,1/2+y,z
1/2-x,-y,1/2+z
1/2+x,1/2-y,-z
1/2-x,y,1/2-z
1/2-x,1/2-y,-z
1/2+x,y,1/2-z
1/2-x,1/2+y,z
1/2+x,-y,1/2+z
loop_
_atom_site_type_symbol
_atom_site_label
_atom_site_fract_x
_atom_site_fract_y
_atom_site_fract_z
Si Si1 0.112778 0.318528 0.336463
Si Si2 0.220497 0.712023 0.073325
Si Si3 0.118685 0.449929 0.929657
Si Si4 0.116325 0.277140 0.180721
Si Si5 0.283579 0.568830 0.671531
O O1 0.119704 0.254937 0.397814
O O2 0.147755 0.274553 0.264085
O O3 0.182709 0.390272 0.360212
O O4 0.000000 0.351681 0.328388
O O5 0.187683 0.625084 0.059040
O O6 0.311278 0.723452 0.131856
O O7 0.250000 0.750000 0.000000
O O8 0.176848 0.493406 0.866816
O O9 0.000000 0.431956 0.910126
O O10 0.123795 0.500000 0.000000
O O11 0.126502 0.367946 0.163252
O O12 0.000000 0.250271 0.167689
O O13 0.250000 0.543784 0.750000
#
# Coordination Sequence:
#
# PCOD8264759 Si02
#       5
#    16  16  16  16  16
#     4   9  18  35  58  81 107 141 179 218 264 320
#     4  11  22  35  54  79 108 140 182 229 270 317
#     4  11  23  38  56  79 109 145 184 226 274 326
#     4   9  18  35  58  81 107 142 180 219 266 320
#     4   9  18  33  56  84 113 142 176 217 264 320
#
# _framework density 18.642226000000001
#
# number of rings (size 3 to 8) (size 9 to 14) (size 15 to 20)
#    0.000    2.200    0.000    5.400    0.000    5.600 
#    0.000    1.000    0.000    2.400    0.000    0.000 
#    0.000    0.000    0.000    0.000    0.000    0.000 
#
# Total GULP energy -495527.617808 kJ/mol
# GULP energy per Si atom -12388.190445 kJ/mol
# Density = 1.859980 g / cm^3
# Si number density = 18.642226 Si / 1000 Ang^3
#
#
#
# Elastic Constant Matrix: (Units=GPa)
#
#
# Indices 1 2 3 4 5 6 
#
# 1 123.6673 50.1299 46.7798 0.0000 0.0000 0.0000
# 2 50.1299 119.2807 54.8236 0.0000 0.0000 0.0000
# 3 46.7798 54.8236 92.1013 0.0000 0.0000 0.0000
# 4 0.0000 0.0000 0.0000 33.9571 0.0000 0.0000
# 5 0.0000 0.0000 0.0000 0.0000 23.4117 0.0000
# 6 0.0000 0.0000 0.0000 0.0000 0.0000 16.7056
#
#
#
# Elastic Compliance Matrix: (Units=1/GPa)
#
#
# Indices 1 2 3 4 5 6 
#
# 1 0.010618 -0.002731 -0.003768 0.000000 0.000000 0.000000
# 2 -0.002731 0.012243 -0.005901 0.000000 0.000000 0.000000
# 3 -0.003768 -0.005901 0.016284 0.000000 0.000000 0.000000
# 4 0.000000 0.000000 0.000000 0.029449 0.000000 0.000000
# 5 0.000000 0.000000 0.000000 0.000000 0.042714 0.000000
# 6 0.000000 0.000000 0.000000 0.000000 0.000000 0.059860
#
#
# Mechanical properties :
#
#
# Convention : Reuss Voigt Hill
#
# Bulk Modulus (GPa) = 69.70233 70.94622 70.32427
# Shear Modulus (GPa) = 24.90663 27.03593 25.97128
#
# Velocity S-wave (km/s) = 3.65914 3.81235 3.73653
# Velocity P-wave (km/s) = 7.43795 7.58406 7.51136
#
# Compressibility (1/GPa) = 0.01434672
#
# Stress axis : x y z
#
# Youngs Moduli (GPa) = 94.17604 81.67634 61.41066
#
# Poissons Ratio (x) = 0.22305 0.23138
# Poissons Ratio (y) = 0.25718 0.36238
# Poissons Ratio (z) = 0.35483 0.48196
#
# Static dielectric constant tensor:
#      x y z
#    x 3.689260 0.000000 0.000000 
#    y 0.000000 3.179750 0.000000 
#    z 0.000000 0.000000 3.567720 
# 
# 
# High freq. dielectric constant tensor:
#      x y z
#    x 1.734190 0.000000 0.000000 
#    y 0.000000 1.697810 0.000000 
#    z 0.000000 0.000000 1.727850 
# 
# From -- ./inp_files/32016.got.cif
#   From: 2010.03.12/outbox.cif.g09.slc.cpg/sg64_17_cif.got.tgz:32016.got - 2010.04.10 20:19:32.
