data_PCOD8264393
_publ_section_title
;
Structure prediction by ZEFSAII (Michael W. Deem and Ramdas Pophale) SiO2 
 PCOD8264393
Probable space group: C M C A
;
_chemical_formula_sum "Si O2"
_cell_formula_units_Z 64
_cell_length_a 27.839812
_cell_length_b 19.471214
_cell_length_c 5.191269
_cell_angle_alpha 90.000000
_cell_angle_beta 90.000000
_cell_angle_gamma 90.000000
_cell_volume 2814.056817
_symmetry_space_group_name_H-M "C M C A"
_symmetry_group_IT_number 64
_symmetry_cell_setting 'orthorhombic'
loop_
_space_group_symop_operation_xyz
x,y,z
-x,1/2-y,1/2+z
x,-y,-z
-x,1/2+y,1/2-z
-x,-y,-z
x,1/2+y,1/2-z
-x,y,z
x,1/2-y,1/2+z
1/2+x,1/2+y,z
1/2-x,-y,1/2+z
1/2+x,1/2-y,-z
1/2-x,y,1/2-z
1/2-x,1/2-y,-z
1/2+x,y,1/2-z
1/2-x,1/2+y,z
1/2+x,-y,1/2+z
loop_
_atom_site_type_symbol
_atom_site_label
_atom_site_fract_x
_atom_site_fract_y
_atom_site_fract_z
Si Si1 0.250000 0.926112 0.250000
Si Si2 0.328834 0.500000 0.500000
Si Si3 0.000000 0.454050 0.749208
Si Si4 0.147263 0.711800 0.372091
Si Si5 0.396430 0.428842 0.838357
Si Si6 0.750000 0.834712 0.750000
O O1 0.203230 0.975703 0.253370
O O2 0.240602 0.882663 0.505344
O O3 0.363718 0.438250 0.585780
O O4 0.000000 0.500000 0.500000
O O5 0.048909 0.409456 0.743591
O O6 0.000000 0.500000 0.000000
O O7 0.128721 0.764170 0.591926
O O8 0.126632 0.638388 0.469288
O O9 0.205108 0.712028 0.335216
O O10 0.394551 0.500000 0.000000
#
# Coordination Sequence:
#
# PCOD8264393 Si02
#       6
#     8   8   8  16  16   8
#     4  12  25  37  62 102 134 182 224 292 332 414
#     4  12  24  39  66 100 144 175 228 288 354 402
#     4  10  22  42  72 108 134 168 231 291 350 406
#     4  12  27  45  66  98 139 185 230 281 346 413
#     4  11  25  45  75 102 138 181 234 293 349 416
#     4  12  23  45  62  88 140 186 240 268 338 408
#
# _framework density 22.742968000000001
#
# number of rings (size 3 to 8) (size 9 to 14) (size 15 to 20)
#    0.000    0.500    3.750    4.500    5.250    0.000 
#    0.000    1.250    0.000    0.000    0.000    0.000 
#    0.000    0.000    0.000    0.000    0.000    0.000 
#
# Total GULP energy -396466.815017 kJ/mol
# GULP energy per Si atom -12389.587969 kJ/mol
# Density = 2.269120 g / cm^3
# Si number density = 22.742968 Si / 1000 Ang^3
#
#
#
# Elastic Constant Matrix: (Units=GPa)
#
#
# Indices 1 2 3 4 5 6 
#
# 1 139.2005 27.3127 23.1962 0.0000 0.0000 0.0000
# 2 27.3127 104.5405 34.9941 0.0000 0.0000 0.0000
# 3 23.1962 34.9941 122.1377 0.0000 0.0000 0.0000
# 4 0.0000 0.0000 0.0000 -95.6372 0.0000 0.0000
# 5 0.0000 0.0000 0.0000 0.0000 21.0372 0.0000
# 6 0.0000 0.0000 0.0000 0.0000 0.0000 20.5613
#
#
#
# Elastic Compliance Matrix: (Units=1/GPa)
#
#
# Indices 1 2 3 4 5 6 
#
# 1 0.007676 -0.001678 -0.000977 0.000000 0.000000 0.000000
# 2 -0.001678 0.010947 -0.002818 0.000000 0.000000 0.000000
# 3 -0.000977 -0.002818 0.009180 0.000000 0.000000 0.000000
# 4 0.000000 0.000000 0.000000 -0.010456 0.000000 0.000000
# 5 0.000000 0.000000 0.000000 0.000000 0.047535 0.000000
# 6 0.000000 0.000000 0.000000 0.000000 0.000000 0.048635
#
#
# Mechanical properties :
#
#
# Convention : Reuss Voigt Hill
#
# Bulk Modulus (GPa) = 59.32105 59.65386 59.48745
# Shear Modulus (GPa) = 38.43701 7.88399 23.16050
#
# Velocity S-wave (km/s) = 4.11550 1.86389 3.19464
# Velocity P-wave (km/s) = 6.98018 5.56045 6.31037
#
# Compressibility (1/GPa) = 0.01685742
#
# Stress axis : x y z
#
# Youngs Moduli (GPa) = 130.27616 91.34565 108.92824
#
# Poissons Ratio (x) = 0.15332 0.10641
# Poissons Ratio (y) = 0.21866 0.30694
# Poissons Ratio (z) = 0.12727 0.25740
#
# Static dielectric constant tensor:
#      x y z
#    x 4.722850 0.000000 0.000000 
#    y 0.000000 4.099590 0.000000 
#    z 0.000000 0.000000 4.089010 
# 
# 
# High freq. dielectric constant tensor:
#      x y z
#    x 1.892070 0.000000 0.000000 
#    y 0.000000 1.881630 0.000000 
#    z 0.000000 0.000000 1.905080 
# 
# From -- ./inp_files/3176.got.cif
#   From: 2010.03.12/outbox.cif.g09.slc.cpg/sg64_2_cif.got.tgz:3176.got - 2010.04.10 20:19:32.
