data_PCOD8264294
_publ_section_title
;
Structure prediction by ZEFSAII (Michael W. Deem and Ramdas Pophale) SiO2 
 PCOD8264294
Probable space group: C M C A
;
_chemical_formula_sum "Si O2"
_cell_formula_units_Z 88
_cell_length_a 24.763764
_cell_length_b 8.473623
_cell_length_c 20.617921
_cell_angle_alpha 90.000000
_cell_angle_beta 90.000000
_cell_angle_gamma 90.000000
_cell_volume 4326.439805
_symmetry_space_group_name_H-M "C M C A"
_symmetry_group_IT_number 64
_symmetry_cell_setting 'orthorhombic'
loop_
_space_group_symop_operation_xyz
x,y,z
-x,1/2-y,1/2+z
x,-y,-z
-x,1/2+y,1/2-z
-x,-y,-z
x,1/2+y,1/2-z
-x,y,z
x,1/2-y,1/2+z
1/2+x,1/2+y,z
1/2-x,-y,1/2+z
1/2+x,1/2-y,-z
1/2-x,y,1/2-z
1/2-x,1/2-y,-z
1/2+x,y,1/2-z
1/2-x,1/2+y,z
1/2+x,-y,1/2+z
loop_
_atom_site_type_symbol
_atom_site_label
_atom_site_fract_x
_atom_site_fract_y
_atom_site_fract_z
Si Si1 0.225538 0.172708 0.684767
Si Si2 0.378695 0.431693 0.248736
Si Si3 0.619021 0.500000 0.000000
Si Si4 0.679762 0.464362 0.869157
Si Si5 0.563337 0.829602 0.972797
Si Si6 0.938308 0.165743 0.322085
O O1 0.250000 0.256154 0.750000
O O2 0.175077 0.066623 0.707376
O O3 0.205016 0.291180 0.629824
O O4 0.272240 0.079804 0.649386
O O5 0.367599 0.537490 0.184834
O O6 0.428423 0.491454 0.293309
O O7 0.396313 0.263492 0.221026
O O8 0.656817 0.487007 0.062005
O O9 0.585775 0.333645 0.994933
O O10 0.500000 0.825894 0.986313
O O11 0.577642 0.824502 0.897047
O O12 0.586022 0.000000 0.000000
O O13 0.000000 0.218931 0.312101
#
# Coordination Sequence:
#
# PCOD8264294 Si02
#       6
#    16  16   8  16  16  16
#     4  10  22  40  64  90 123 168 215 270 331 400
#     4  11  21  40  65  94 130 165 210 274 336 391
#     4  12  25  44  66 100 136 176 227 284 334 388
#     4  11  24  40  63  93 124 168 223 269 332 394
#     4  10  24  45  68  96 136 186 229 269 333 410
#     4  11  23  40  65 101 132 166 220 276 334 402
#
# _framework density 20.340047999999999
#
# number of rings (size 3 to 8) (size 9 to 14) (size 15 to 20)
#    0.000    1.273    3.636    2.455    5.091    0.727 
#    0.000    0.000    0.000    0.000    0.000    0.000 
#    0.000    0.000    0.000    0.000    0.000    0.000 
#
# Total GULP energy -545233.034946 kJ/mol
# GULP energy per Si atom -12391.659885 kJ/mol
# Density = 2.029375 g / cm^3
# Si number density = 20.340048 Si / 1000 Ang^3
#
#
#
# Elastic Constant Matrix: (Units=GPa)
#
#
# Indices 1 2 3 4 5 6 
#
# 1 81.5090 33.0548 54.1374 0.0000 0.0000 0.0000
# 2 33.0548 112.3811 45.9325 0.0000 0.0000 0.0000
# 3 54.1374 45.9325 94.8095 0.0000 0.0000 0.0000
# 4 0.0000 0.0000 0.0000 21.8300 0.0000 0.0000
# 5 0.0000 0.0000 0.0000 0.0000 33.9509 0.0000
# 6 0.0000 0.0000 0.0000 0.0000 0.0000 35.1376
#
#
#
# Elastic Compliance Matrix: (Units=1/GPa)
#
#
# Indices 1 2 3 4 5 6 
#
# 1 0.019969 -0.001513 -0.010670 0.000000 0.000000 0.000000
# 2 -0.001513 0.011210 -0.004567 0.000000 0.000000 0.000000
# 3 -0.010670 -0.004567 0.018853 0.000000 0.000000 0.000000
# 4 0.000000 0.000000 0.000000 0.045808 0.000000 0.000000
# 5 0.000000 0.000000 0.000000 0.000000 0.029454 0.000000
# 6 0.000000 0.000000 0.000000 0.000000 0.000000 0.028460
#
#
# Mechanical properties :
#
#
# Convention : Reuss Voigt Hill
#
# Bulk Modulus (GPa) = 60.48684 61.66101 61.07393
# Shear Modulus (GPa) = 25.93865 28.55538 27.24701
#
# Velocity S-wave (km/s) = 3.57494 3.75093 3.66399
# Velocity P-wave (km/s) = 6.84417 7.01001 6.92758
#
# Compressibility (1/GPa) = 0.01653252
#
# Stress axis : x y z
#
# Youngs Moduli (GPa) = 50.07876 89.20702 53.04313
#
# Poissons Ratio (x) = 0.13493 0.56594
# Poissons Ratio (y) = 0.07574 0.24226
# Poissons Ratio (z) = 0.53432 0.40743
#
# Static dielectric constant tensor:
#      x y z
#    x 3.646130 0.000000 0.000000 
#    y 0.000000 3.782240 0.000000 
#    z 0.000000 0.000000 3.645120 
# 
# 
# High freq. dielectric constant tensor:
#      x y z
#    x 1.795670 0.000000 0.000000 
#    y 0.000000 1.799390 0.000000 
#    z 0.000000 0.000000 1.787640 
# 
# From -- ./inp_files/41366.got.cif
#   From: 2010.03.12/outbox.cif.g09.slc.cpg/sg64_21_cif.got.tgz:41366.got - 2010.04.10 20:19:32.
