data_PCOD8264169
_publ_section_title
;
Structure prediction by ZEFSAII (Michael W. Deem and Ramdas Pophale) SiO2 
 PCOD8264169
Probable space group: C M C A
;
_chemical_formula_sum "Si O2"
_cell_formula_units_Z 88
_cell_length_a 19.668826
_cell_length_b 7.842677
_cell_length_c 26.573365
_cell_angle_alpha 90.000000
_cell_angle_beta 90.000000
_cell_angle_gamma 90.000000
_cell_volume 4099.107616
_symmetry_space_group_name_H-M "C M C A"
_symmetry_group_IT_number 64
_symmetry_cell_setting 'orthorhombic'
loop_
_space_group_symop_operation_xyz
x,y,z
-x,1/2-y,1/2+z
x,-y,-z
-x,1/2+y,1/2-z
-x,-y,-z
x,1/2+y,1/2-z
-x,y,z
x,1/2-y,1/2+z
1/2+x,1/2+y,z
1/2-x,-y,1/2+z
1/2+x,1/2-y,-z
1/2-x,y,1/2-z
1/2-x,1/2-y,-z
1/2+x,y,1/2-z
1/2-x,1/2+y,z
1/2+x,-y,1/2+z
loop_
_atom_site_type_symbol
_atom_site_label
_atom_site_fract_x
_atom_site_fract_y
_atom_site_fract_z
Si Si1 0.576407 0.263969 0.217066
Si Si2 0.311699 0.556002 0.106864
Si Si3 0.164641 0.671415 0.131411
Si Si4 0.421819 0.847720 0.961860
Si Si5 0.423738 0.645571 0.176984
Si Si6 0.142759 0.500000 0.500000
O O1 0.500000 0.188633 0.211647
O O2 0.627561 0.143058 0.185047
O O3 0.596944 0.264851 0.275933
O O4 0.579649 0.454207 0.197113
O O5 0.239122 0.592033 0.131181
O O6 0.331652 0.369407 0.121790
O O7 0.369845 0.677974 0.131661
O O8 0.310386 0.569760 0.045991
O O9 0.119602 0.592968 0.087002
O O10 0.500000 0.836445 0.946409
O O11 0.402269 0.660496 0.982694
O O12 0.407195 0.000000 0.000000
O O13 0.500000 0.686331 0.156866
#
# Coordination Sequence:
#
# PCOD8264169 Si02
#       6
#    16  16  16  16  16   8
#     4   9  18  36  59  81 111 149 186 239 297 343
#     4  10  23  37  58  85 113 159 193 238 295 349
#     4  10  22  37  57  82 117 152 191 238 290 353
#     4  10  22  39  61  89 117 152 199 246 291 348
#     4   9  19  37  58  84 112 145 194 239 290 352
#     4  10  23  40  62  84 121 162 196 248 301 342
#
# _framework density 21.468086
#
# number of rings (size 3 to 8) (size 9 to 14) (size 15 to 20)
#    0.000    2.364    0.000    0.818    3.818    8.727 
#    0.000    3.636    0.000    0.000    0.000    0.000 
#    0.000    0.000    0.000    0.000    0.000    0.000 
#
# Total GULP energy -545400.562703 kJ/mol
# GULP energy per Si atom -12395.467334 kJ/mol
# Density = 2.141922 g / cm^3
# Si number density = 21.468086 Si / 1000 Ang^3
#
#
#
# Elastic Constant Matrix: (Units=GPa)
#
#
# Indices 1 2 3 4 5 6 
#
# 1 94.4229 7.6787 36.1330 0.0000 0.0000 0.0000
# 2 7.6787 27.6307 4.5538 0.0000 0.0000 0.0000
# 3 36.1330 4.5538 98.9210 0.0000 0.0000 0.0000
# 4 0.0000 0.0000 0.0000 24.6009 0.0000 0.0000
# 5 0.0000 0.0000 0.0000 0.0000 39.1294 0.0000
# 6 0.0000 0.0000 0.0000 0.0000 0.0000 34.4365
#
#
#
# Elastic Compliance Matrix: (Units=1/GPa)
#
#
# Indices 1 2 3 4 5 6 
#
# 1 0.012515 -0.002745 -0.004445 0.000000 0.000000 0.000000
# 2 -0.002745 0.037071 -0.000704 0.000000 0.000000 0.000000
# 3 -0.004445 -0.000704 0.011765 0.000000 0.000000 0.000000
# 4 0.000000 0.000000 0.000000 0.040649 0.000000 0.000000
# 5 0.000000 0.000000 0.000000 0.000000 0.025556 0.000000
# 6 0.000000 0.000000 0.000000 0.000000 0.000000 0.029039
#
#
# Mechanical properties :
#
#
# Convention : Reuss Voigt Hill
#
# Bulk Modulus (GPa) = 21.94789 35.30061 28.62425
# Shear Modulus (GPa) = 26.65670 31.14065 28.89868
#
# Velocity S-wave (km/s) = 3.52758 3.81275 3.67293
# Velocity P-wave (km/s) = 5.18049 5.98847 5.59907
#
# Compressibility (1/GPa) = 0.04556247
#
# Stress axis : x y z
#
# Youngs Moduli (GPa) = 79.90499 26.97556 84.99730
#
# Poissons Ratio (x) = 0.07406 0.37781
# Poissons Ratio (y) = 0.21937 0.05981
# Poissons Ratio (z) = 0.35517 0.01898
#
# Static dielectric constant tensor:
#      x y z
#    x 3.468930 0.000000 0.000000 
#    y 0.000000 3.737840 0.000000 
#    z 0.000000 0.000000 4.440920 
# 
# 
# High freq. dielectric constant tensor:
#      x y z
#    x 1.841260 0.000000 0.000000 
#    y 0.000000 1.835330 0.000000 
#    z 0.000000 0.000000 1.846880 
# 
# From -- ./inp_files/53558.got.cif
#   From: 2010.03.12/outbox.cif.g09.slc.cpg/sg64_27_cif.got.tgz:53558.got - 2010.04.10 20:19:32.
