data_PCOD8264746
_publ_section_title
;
Structure prediction by ZEFSAII (Michael W. Deem and Ramdas Pophale) SiO2 
 PCOD8264746
Probable space group: C M C A
;
_chemical_formula_sum "Si O2"
_cell_formula_units_Z 88
_cell_length_a 18.829247
_cell_length_b 22.270724
_cell_length_c 9.498607
_cell_angle_alpha 90.000000
_cell_angle_beta 90.000000
_cell_angle_gamma 90.000000
_cell_volume 3983.155007
_symmetry_space_group_name_H-M "C M C A"
_symmetry_group_IT_number 64
_symmetry_cell_setting 'orthorhombic'
loop_
_space_group_symop_operation_xyz
x,y,z
-x,1/2-y,1/2+z
x,-y,-z
-x,1/2+y,1/2-z
-x,-y,-z
x,1/2+y,1/2-z
-x,y,z
x,1/2-y,1/2+z
1/2+x,1/2+y,z
1/2-x,-y,1/2+z
1/2+x,1/2-y,-z
1/2-x,y,1/2-z
1/2-x,1/2-y,-z
1/2+x,y,1/2-z
1/2-x,1/2+y,z
1/2+x,-y,1/2+z
loop_
_atom_site_type_symbol
_atom_site_label
_atom_site_fract_x
_atom_site_fract_y
_atom_site_fract_z
Si Si1 0.000000 0.193126 0.874656
Si Si2 0.653575 0.094530 0.861392
Si Si3 0.302115 0.064788 0.547858
Si Si4 0.614583 0.163644 0.395443
Si Si5 0.500000 0.390900 0.393463
Si Si6 0.201295 0.724132 0.877139
Si Si7 0.500000 0.169780 0.184375
O O1 0.000000 0.145200 0.751113
O O2 0.000000 0.258236 0.803076
O O3 0.929889 0.182450 0.967115
O O4 0.665558 0.083890 0.696419
O O5 0.716067 0.061683 0.948064
O O6 0.573730 0.070420 0.898842
O O7 0.655543 0.164638 0.910359
O O8 0.327257 0.113370 0.432886
O O9 0.331019 0.000000 0.500000
O O10 0.650192 0.222788 0.330530
O O11 0.566699 0.140465 0.266666
O O12 0.500000 0.345837 0.522829
O O13 0.250000 0.702443 0.750000
O O14 0.250000 0.750000 0.000000
#
# Coordination Sequence:
#
# PCOD8264746 Si02
#       7
#     8  16  16  16   8  16   8
#     4  11  21  43  68  96 149 194 226 285 365 435
#     4  11  23  47  72 106 132 180 249 285 369 422
#     4  11  24  49  75  95 139 193 247 291 338 428
#     4  11  24  42  68 108 141 187 244 282 360 434
#     4  12  24  42  72  95 144 182 217 304 359 418
#     4  12  23  39  69 106 147 181 229 307 356 430
#     4  11  25  37  62 112 148 182 229 285 367 431
#
# _framework density 22.093038
#
# number of rings (size 3 to 8) (size 9 to 14) (size 15 to 20)
#    0.000    0.727    5.455    3.273    5.091    0.000 
#    9.818    4.545    0.000    0.000    0.000    0.000 
#    0.000    0.000    0.000    0.000    0.000    0.000 
#
# Total GULP energy -545462.736548 kJ/mol
# GULP energy per Si atom -12396.880376 kJ/mol
# Density = 2.204275 g / cm^3
# Si number density = 22.093038 Si / 1000 Ang^3
#
#
#
# Elastic Constant Matrix: (Units=GPa)
#
#
# Indices 1 2 3 4 5 6 
#
# 1 151.0589 14.7971 24.7869 0.0000 0.0000 0.0000
# 2 14.7971 91.4937 13.7960 0.0000 0.0000 0.0000
# 3 24.7869 13.7960 65.0222 0.0000 0.0000 0.0000
# 4 0.0000 0.0000 0.0000 20.7181 0.0000 0.0000
# 5 0.0000 0.0000 0.0000 0.0000 17.5452 0.0000
# 6 0.0000 0.0000 0.0000 0.0000 0.0000 8.5659
#
#
#
# Elastic Compliance Matrix: (Units=1/GPa)
#
#
# Indices 1 2 3 4 5 6 
#
# 1 0.007113 -0.000766 -0.002549 0.000000 0.000000 0.000000
# 2 -0.000766 0.011373 -0.002121 0.000000 0.000000 0.000000
# 3 -0.002549 -0.002121 0.016801 0.000000 0.000000 0.000000
# 4 0.000000 0.000000 0.000000 0.048267 0.000000 0.000000
# 5 0.000000 0.000000 0.000000 0.000000 0.056996 0.000000
# 6 0.000000 0.000000 0.000000 0.000000 0.000000 0.116742
#
#
# Mechanical properties :
#
#
# Convention : Reuss Voigt Hill
#
# Bulk Modulus (GPa) = 40.95790 46.03721 43.49755
# Shear Modulus (GPa) = 18.09608 26.31216 22.20412
#
# Velocity S-wave (km/s) = 2.86507 3.45479 3.17366
# Velocity P-wave (km/s) = 5.43359 6.06607 5.75852
#
# Compressibility (1/GPa) = 0.02441531
#
# Stress axis : x y z
#
# Youngs Moduli (GPa) = 140.58280 87.92412 59.51978
#
# Poissons Ratio (x) = 0.06735 0.15172
# Poissons Ratio (y) = 0.10769 0.12625
# Poissons Ratio (z) = 0.35836 0.18650
#
# Static dielectric constant tensor:
#      x y z
#    x 4.602500 0.000000 0.000000 
#    y 0.000000 3.614740 0.000000 
#    z 0.000000 0.000000 3.871690 
# 
# 
# High freq. dielectric constant tensor:
#      x y z
#    x 1.890480 0.000000 0.000000 
#    y 0.000000 1.835580 0.000000 
#    z 0.000000 0.000000 1.869350 
# 
# From -- ./inp_files/8295.got.cif
#   From: 2010.03.12/outbox.cif.g09.slc.cpg/sg64_5_cif.got.tgz:8295.got - 2010.04.10 20:19:32.
