data_PCOD8264653
_publ_section_title
;
Structure prediction by ZEFSAII (Michael W. Deem and Ramdas Pophale) SiO2 
 PCOD8264653
Probable space group: C M C A
;
_chemical_formula_sum "Si O2"
_cell_formula_units_Z 64
_cell_length_a 24.782432
_cell_length_b 17.401546
_cell_length_c 7.627340
_cell_angle_alpha 90.000000
_cell_angle_beta 90.000000
_cell_angle_gamma 90.000000
_cell_volume 3289.310438
_symmetry_space_group_name_H-M "C M C A"
_symmetry_group_IT_number 64
_symmetry_cell_setting 'orthorhombic'
loop_
_space_group_symop_operation_xyz
x,y,z
-x,1/2-y,1/2+z
x,-y,-z
-x,1/2+y,1/2-z
-x,-y,-z
x,1/2+y,1/2-z
-x,y,z
x,1/2-y,1/2+z
1/2+x,1/2+y,z
1/2-x,-y,1/2+z
1/2+x,1/2-y,-z
1/2-x,y,1/2-z
1/2-x,1/2-y,-z
1/2+x,y,1/2-z
1/2-x,1/2+y,z
1/2+x,-y,1/2+z
loop_
_atom_site_type_symbol
_atom_site_label
_atom_site_fract_x
_atom_site_fract_y
_atom_site_fract_z
Si Si1 0.708727 0.205016 0.115464
Si Si2 0.061090 0.164576 0.198389
Si Si3 0.875461 0.089438 0.504030
Si Si4 0.891920 0.688051 0.672967
O O1 0.750000 0.165760 0.250000
O O2 0.680150 0.134688 0.020135
O O3 0.664704 0.265571 0.192511
O O4 0.750000 0.250000 0.000000
O O5 0.082872 0.107380 0.347748
O O6 0.061814 0.251236 0.273293
O O7 0.000000 0.141233 0.152683
O O8 0.098245 0.157945 0.024259
O O9 0.896991 0.116159 0.694713
O O10 0.863286 0.000000 0.500000
#
# Coordination Sequence:
#
# PCOD8264653 Si02
#       4
#    16  16  16  16
#     4  11  19  39  66  86 119 164 217 258 307 377
#     4  11  22  39  67  96 122 168 219 257 308 379
#     4  11  25  43  60  95 137 163 202 271 326 369
#     4  11  21  39  66  94 123 162 216 266 302 376
#
# _framework density 19.456963999999999
#
# number of rings (size 3 to 8) (size 9 to 14) (size 15 to 20)
#    0.000    1.000    7.500    2.250    0.000    2.500 
#    4.500    1.250    0.000    0.000    0.000    0.000 
#    0.000    0.000    0.000    0.000    0.000    0.000 
#
# Total GULP energy -396588.462069 kJ/mol
# GULP energy per Si atom -12393.389440 kJ/mol
# Density = 1.941268 g / cm^3
# Si number density = 19.456964 Si / 1000 Ang^3
#
#
#
# Elastic Constant Matrix: (Units=GPa)
#
#
# Indices 1 2 3 4 5 6 
#
# 1 114.3083 34.9501 32.3337 0.0000 0.0000 0.0000
# 2 34.9501 136.7735 46.6535 0.0000 0.0000 0.0000
# 3 32.3337 46.6535 127.4239 0.0000 0.0000 0.0000
# 4 0.0000 0.0000 0.0000 27.9756 0.0000 0.0000
# 5 0.0000 0.0000 0.0000 0.0000 28.3222 0.0000
# 6 0.0000 0.0000 0.0000 0.0000 0.0000 15.7320
#
#
#
# Elastic Compliance Matrix: (Units=1/GPa)
#
#
# Indices 1 2 3 4 5 6 
#
# 1 0.009839 -0.001900 -0.001801 0.000000 0.000000 0.000000
# 2 -0.001900 0.008722 -0.002711 0.000000 0.000000 0.000000
# 3 -0.001801 -0.002711 0.009297 0.000000 0.000000 0.000000
# 4 0.000000 0.000000 0.000000 0.035745 0.000000 0.000000
# 5 0.000000 0.000000 0.000000 0.000000 0.035308 0.000000
# 6 0.000000 0.000000 0.000000 0.000000 0.000000 0.063565
#
#
# Mechanical properties :
#
#
# Convention : Reuss Voigt Hill
#
# Bulk Modulus (GPa) = 66.51669 67.37557 66.94613
# Shear Modulus (GPa) = 27.72992 32.04386 29.88689
#
# Velocity S-wave (km/s) = 3.77927 4.06262 3.92350
# Velocity P-wave (km/s) = 7.30100 7.53058 7.41668
#
# Compressibility (1/GPa) = 0.01503382
#
# Stress axis : x y z
#
# Youngs Moduli (GPa) = 101.64098 114.65808 107.55643
#
# Poissons Ratio (x) = 0.21782 0.19371
# Poissons Ratio (y) = 0.19309 0.29160
# Poissons Ratio (z) = 0.18305 0.31086
#
# Static dielectric constant tensor:
#      x y z
#    x 3.441160 0.000000 0.000000 
#    y 0.000000 3.181340 0.000000 
#    z 0.000000 0.000000 4.119030 
# 
# 
# High freq. dielectric constant tensor:
#      x y z
#    x 1.762540 0.000000 0.000000 
#    y 0.000000 1.718810 0.000000 
#    z 0.000000 0.000000 1.779120 
# 
# From -- ./inp_files/8954.got.cif
#   From: 2010.03.12/outbox.cif.g09.slc.cpg/sg64_5_cif.got.tgz:8954.got - 2010.04.10 20:19:32.
