data_PCOD8264150
_publ_section_title
;
Structure prediction by ZEFSAII (Michael W. Deem and Ramdas Pophale) SiO2 
 PCOD8264150
Probable space group: C M C A
;
_chemical_formula_sum "Si O2"
_cell_formula_units_Z 104
_cell_length_a 14.797779
_cell_length_b 24.518989
_cell_length_c 16.059306
_cell_angle_alpha 90.000000
_cell_angle_beta 90.000000
_cell_angle_gamma 90.000000
_cell_volume 5826.743082
_symmetry_space_group_name_H-M "C M C A"
_symmetry_group_IT_number 64
_symmetry_cell_setting 'orthorhombic'
loop_
_space_group_symop_operation_xyz
x,y,z
-x,1/2-y,1/2+z
x,-y,-z
-x,1/2+y,1/2-z
-x,-y,-z
x,1/2+y,1/2-z
-x,y,z
x,1/2-y,1/2+z
1/2+x,1/2+y,z
1/2-x,-y,1/2+z
1/2+x,1/2-y,-z
1/2-x,y,1/2-z
1/2-x,1/2-y,-z
1/2+x,y,1/2-z
1/2-x,1/2+y,z
1/2+x,-y,1/2+z
loop_
_atom_site_type_symbol
_atom_site_label
_atom_site_fract_x
_atom_site_fract_y
_atom_site_fract_z
Si Si1 0.680155 0.833803 0.681383
Si Si2 0.500000 0.704083 0.852303
Si Si3 0.000000 0.253144 0.038423
Si Si4 0.195052 0.226755 0.575015
Si Si5 0.397303 0.546413 0.887343
Si Si6 0.397453 0.574777 0.078174
Si Si7 0.500000 0.700973 0.218433
Si Si8 0.308492 0.146387 0.669934
O O1 0.750000 0.853307 0.750000
O O2 0.698974 0.772697 0.647534
O O3 0.672259 0.878631 0.608084
O O4 0.588418 0.834280 0.735257
O O5 0.500000 0.750627 0.783935
O O6 0.590759 0.670844 0.833111
O O7 0.500000 0.722277 0.949350
O O8 0.907715 0.288245 0.046926
O O9 0.000000 0.213433 0.118250
O O10 0.250000 0.250000 0.500000
O O11 0.245685 0.170934 0.597647
O O12 0.500000 0.553318 0.854007
O O13 0.368679 0.483335 0.882593
O O14 0.323958 0.581233 0.835389
O O15 0.392669 0.570829 0.979613
O O16 0.500000 0.589451 0.105099
O O17 0.250000 0.161225 0.750000
#
# Coordination Sequence:
#
# PCOD8264150 Si02
#       8
#    16   8   8  16  16  16   8  16
#     4  11  21  33  53  78 111 146 177 230 289 328
#     4  12  22  38  57  78 119 160 198 228 287 346
#     4  10  22  36  58  76 111 167 184 236 287 328
#     4  11  21  35  53  82 112 147 196 226 272 352
#     4   9  19  36  59  82 105 140 190 240 292 341
#     4   9  18  35  59  83 105 136 188 245 287 341
#     4  10  22  36  49  80 117 142 192 230 276 334
#     4  12  23  35  55  82 117 152 191 240 286 345
#
# _framework density 17.848735999999999
#
# number of rings (size 3 to 8) (size 9 to 14) (size 15 to 20)
#    0.000    1.538    3.077    5.077    2.154    0.615 
#    0.000    0.000    0.000    0.000    0.000    0.000 
#    0.000    4.923    0.000    0.000    0.000    0.000 
#
# Total GULP energy -644246.129021 kJ/mol
# GULP energy per Si atom -12389.348635 kJ/mol
# Density = 1.780811 g / cm^3
# Si number density = 17.848736 Si / 1000 Ang^3
#
#
#
# Elastic Constant Matrix: (Units=GPa)
#
#
# Indices 1 2 3 4 5 6 
#
# 1 123.6583 21.0720 25.5236 0.0000 0.0000 0.0000
# 2 21.0720 61.3896 7.3132 0.0000 0.0000 0.0000
# 3 25.5236 7.3132 64.4092 0.0000 0.0000 0.0000
# 4 0.0000 0.0000 0.0000 26.4356 0.0000 0.0000
# 5 0.0000 0.0000 0.0000 0.0000 27.3496 0.0000
# 6 0.0000 0.0000 0.0000 0.0000 0.0000 20.1482
#
#
#
# Elastic Compliance Matrix: (Units=1/GPa)
#
#
# Indices 1 2 3 4 5 6 
#
# 1 0.009252 -0.002776 -0.003351 0.000000 0.000000 0.000000
# 2 -0.002776 0.017346 -0.000869 0.000000 0.000000 0.000000
# 3 -0.003351 -0.000869 0.016952 0.000000 0.000000 0.000000
# 4 0.000000 0.000000 0.000000 0.037828 0.000000 0.000000
# 5 0.000000 0.000000 0.000000 0.000000 0.036564 0.000000
# 6 0.000000 0.000000 0.000000 0.000000 0.000000 0.049632
#
#
# Mechanical properties :
#
#
# Convention : Reuss Voigt Hill
#
# Bulk Modulus (GPa) = 33.83335 39.69717 36.76526
# Shear Modulus (GPa) = 26.12072 27.82323 26.97197
#
# Velocity S-wave (km/s) = 3.82966 3.95249 3.89156
# Velocity P-wave (km/s) = 6.20901 6.56649 6.39025
#
# Compressibility (1/GPa) = 0.02955664
#
# Stress axis : x y z
#
# Youngs Moduli (GPa) = 108.08992 57.65026 58.98905
#
# Poissons Ratio (x) = 0.16006 0.19767
# Poissons Ratio (y) = 0.30010 0.05128
# Poissons Ratio (z) = 0.36220 0.05011
#
# Static dielectric constant tensor:
#      x y z
#    x 3.600380 0.000000 0.000000 
#    y 0.000000 3.387500 0.000000 
#    z 0.000000 0.000000 3.232090 
# 
# 
# High freq. dielectric constant tensor:
#      x y z
#    x 1.697650 0.000000 0.000000 
#    y 0.000000 1.674420 0.000000 
#    z 0.000000 0.000000 1.679920 
# 
# From -- ./inp_files/32498.got.cif
#   From: 2010.03.12/outbox.cif.g09.slc.cpg/sg64_17_cif.got.tgz:32498.got - 2010.04.10 20:19:32.
