data_PCOD8264633
_publ_section_title
;
Structure prediction by ZEFSAII (Michael W. Deem and Ramdas Pophale) SiO2 
 PCOD8264633
Probable space group: C M C A
;
_chemical_formula_sum "Si O2"
_cell_formula_units_Z 96
_cell_length_a 16.580760
_cell_length_b 17.523601
_cell_length_c 19.568384
_cell_angle_alpha 90.000000
_cell_angle_beta 90.000000
_cell_angle_gamma 90.000000
_cell_volume 5685.684426
_symmetry_space_group_name_H-M "C M C A"
_symmetry_group_IT_number 64
_symmetry_cell_setting 'orthorhombic'
loop_
_space_group_symop_operation_xyz
x,y,z
-x,1/2-y,1/2+z
x,-y,-z
-x,1/2+y,1/2-z
-x,-y,-z
x,1/2+y,1/2-z
-x,y,z
x,1/2-y,1/2+z
1/2+x,1/2+y,z
1/2-x,-y,1/2+z
1/2+x,1/2-y,-z
1/2-x,y,1/2-z
1/2-x,1/2-y,-z
1/2+x,y,1/2-z
1/2-x,1/2+y,z
1/2+x,-y,1/2+z
loop_
_atom_site_type_symbol
_atom_site_label
_atom_site_fract_x
_atom_site_fract_y
_atom_site_fract_z
Si Si1 0.241403 0.032100 0.574763
Si Si2 0.172088 0.276572 0.584014
Si Si3 0.409271 0.318224 0.602356
Si Si4 0.240557 0.389886 0.829169
Si Si5 0.091278 0.632487 0.947141
Si Si6 0.329880 0.179112 0.560385
O O1 0.150903 0.066407 0.578542
O O2 0.309112 0.096477 0.591385
O O3 0.258161 0.000000 0.500000
O O4 0.252115 0.969038 0.631994
O O5 0.188429 0.330787 0.649035
O O6 0.104366 0.211118 0.596170
O O7 0.253328 0.233414 0.565616
O O8 0.147094 0.329848 0.519721
O O9 0.500000 0.338101 0.625196
O O10 0.348184 0.356554 0.655582
O O11 0.389847 0.350930 0.526779
O O12 0.399907 0.225338 0.600841
O O13 0.250000 0.406611 0.750000
O O14 0.000000 0.603970 0.936062
#
# Coordination Sequence:
#
# PCOD8264633 Si02
#       6
#    16  16  16  16  16  16
#     4  11  17  29  49  75 107 137 166 209 254 299
#     4   8  14  29  47  69  95 124 164 206 243 291
#     4   9  17  32  54  78  98 122 164 219 261 294
#     4  11  21  32  48  74 104 137 171 203 252 315
#     4   9  17  29  52  81 102 123 164 218 264 293
#     4   8  14  27  50  72  93 123 162 206 247 288
#
# _framework density 16.884511
#
# number of rings (size 3 to 8) (size 9 to 14) (size 15 to 20)
#    0.000    2.667    3.333    2.000    0.000    1.000 
#    0.000    8.333    0.000    2.500    0.000    0.000 
#    0.000    0.000    0.000    0.000    0.000    0.000 
#
# Total GULP energy -594769.710944 kJ/mol
# GULP energy per Si atom -12391.035645 kJ/mol
# Density = 1.684608 g / cm^3
# Si number density = 16.884511 Si / 1000 Ang^3
#
#
#
# Elastic Constant Matrix: (Units=GPa)
#
#
# Indices 1 2 3 4 5 6 
#
# 1 30.4979 14.5753 13.4353 0.0000 0.0000 0.0000
# 2 14.5753 96.5374 49.1355 0.0000 0.0000 0.0000
# 3 13.4353 49.1355 93.5872 0.0000 0.0000 0.0000
# 4 0.0000 0.0000 0.0000 19.8899 0.0000 0.0000
# 5 0.0000 0.0000 0.0000 0.0000 13.7346 0.0000
# 6 0.0000 0.0000 0.0000 0.0000 0.0000 19.5922
#
#
#
# Elastic Compliance Matrix: (Units=1/GPa)
#
#
# Indices 1 2 3 4 5 6 
#
# 1 0.036011 -0.003829 -0.003159 0.000000 0.000000 0.000000
# 2 -0.003829 0.014543 -0.007086 0.000000 0.000000 0.000000
# 3 -0.003159 -0.007086 0.014859 0.000000 0.000000 0.000000
# 4 0.000000 0.000000 0.000000 0.050277 0.000000 0.000000
# 5 0.000000 0.000000 0.000000 0.000000 0.072809 0.000000
# 6 0.000000 0.000000 0.000000 0.000000 0.000000 0.051041
#
#
# Mechanical properties :
#
#
# Convention : Reuss Voigt Hill
#
# Bulk Modulus (GPa) = 26.83497 41.65719 34.24608
# Shear Modulus (GPa) = 17.85013 20.20841 19.02927
#
# Velocity S-wave (km/s) = 3.25497 3.46332 3.36076
# Velocity P-wave (km/s) = 5.48217 6.38108 5.94863
#
# Compressibility (1/GPa) = 0.03726481
#
# Stress axis : x y z
#
# Youngs Moduli (GPa) = 27.76939 68.75991 67.29890
#
# Poissons Ratio (x) = 0.26327 0.21263
# Poissons Ratio (y) = 0.10632 0.47688
# Poissons Ratio (z) = 0.08774 0.48723
#
# Static dielectric constant tensor:
#      x y z
#    x 3.309850 0.000000 0.000000 
#    y 0.000000 3.379430 0.000000 
#    z 0.000000 0.000000 2.840340 
# 
# 
# High freq. dielectric constant tensor:
#      x y z
#    x 1.631600 0.000000 0.000000 
#    y 0.000000 1.656750 0.000000 
#    z 0.000000 0.000000 1.603850 
# 
# From -- ./inp_files/33309.got.cif
#   From: 2010.03.12/outbox.cif.g09.slc.cpg/sg64_17_cif.got.tgz:33309.got - 2010.04.10 20:19:32.
