data_PCOD8264621
_publ_section_title
;
Structure prediction by ZEFSAII (Michael W. Deem and Ramdas Pophale) SiO2 
 PCOD8264621
Probable space group: C M C A
;
_chemical_formula_sum "Si O2"
_cell_formula_units_Z 48
_cell_length_a 7.996220
_cell_length_b 10.252728
_cell_length_c 25.284309
_cell_angle_alpha 90.000000
_cell_angle_beta 90.000000
_cell_angle_gamma 90.000000
_cell_volume 2072.885241
_symmetry_space_group_name_H-M "C M C A"
_symmetry_group_IT_number 64
_symmetry_cell_setting 'orthorhombic'
loop_
_space_group_symop_operation_xyz
x,y,z
-x,1/2-y,1/2+z
x,-y,-z
-x,1/2+y,1/2-z
-x,-y,-z
x,1/2+y,1/2-z
-x,y,z
x,1/2-y,1/2+z
1/2+x,1/2+y,z
1/2-x,-y,1/2+z
1/2+x,1/2-y,-z
1/2-x,y,1/2-z
1/2-x,1/2-y,-z
1/2+x,y,1/2-z
1/2-x,1/2+y,z
1/2+x,-y,1/2+z
loop_
_atom_site_type_symbol
_atom_site_label
_atom_site_fract_x
_atom_site_fract_y
_atom_site_fract_z
Si Si1 0.182038 0.796407 0.142226
Si Si2 0.500000 0.566214 0.773600
Si Si3 0.696622 0.375305 0.467785
Si Si4 0.500000 0.789939 0.692178
O O1 0.216644 0.877179 0.089239
O O2 0.334735 0.698273 0.155224
O O3 0.000000 0.722791 0.135987
O O4 0.164535 0.897626 0.191463
O O5 0.500000 0.648749 0.719901
O O6 0.500000 0.408693 0.765077
O O7 0.761444 0.500000 0.500000
O O8 0.500000 0.379857 0.459231
O O9 0.750000 0.250000 0.500000
#
# Coordination Sequence:
#
# PCOD8264621 Si02
#       4
#    16   8  16   8
#     4  10  25  45  71 109 139 191 231 292 356 423
#     4  10  28  46  76 105 138 195 234 296 359 422
#     4  11  25  45  72 105 143 188 236 293 354 421
#     4  12  24  54  70 106 148 183 242 297 355 424
#
# _framework density 23.156130999999998
#
# number of rings (size 3 to 8) (size 9 to 14) (size 15 to 20)
#    1.000    0.333    1.667    2.000    4.667    8.000 
#    3.000    0.000    0.000    0.000    0.000    0.000 
#    0.000    0.000    0.000    0.000    0.000    0.000 
#
# Total GULP energy -297402.431442 kJ/mol
# GULP energy per Si atom -12391.767977 kJ/mol
# Density = 2.310343 g / cm^3
# Si number density = 23.156131 Si / 1000 Ang^3
#
#
#
# Elastic Constant Matrix: (Units=GPa)
#
#
# Indices 1 2 3 4 5 6 
#
# 1 152.6722 24.2121 21.4690 0.0000 0.0000 0.0000
# 2 24.2121 106.6017 4.6547 0.0000 0.0000 0.0000
# 3 21.4690 4.6547 80.9866 0.0000 0.0000 0.0000
# 4 0.0000 0.0000 0.0000 30.8955 0.0000 0.0000
# 5 0.0000 0.0000 0.0000 0.0000 40.0586 0.0000
# 6 0.0000 0.0000 0.0000 0.0000 0.0000 14.9912
#
#
#
# Elastic Compliance Matrix: (Units=1/GPa)
#
#
# Indices 1 2 3 4 5 6 
#
# 1 0.007041 -0.001522 -0.001779 0.000000 0.000000 0.000000
# 2 -0.001522 0.009733 -0.000156 0.000000 0.000000 0.000000
# 3 -0.001779 -0.000156 0.012828 0.000000 0.000000 0.000000
# 4 0.000000 0.000000 0.000000 0.032367 0.000000 0.000000
# 5 0.000000 0.000000 0.000000 0.000000 0.024963 0.000000
# 6 0.000000 0.000000 0.000000 0.000000 0.000000 0.066706
#
#
# Mechanical properties :
#
#
# Convention : Reuss Voigt Hill
#
# Bulk Modulus (GPa) = 44.07375 48.99244 46.53310
# Shear Modulus (GPa) = 29.74135 36.51738 33.12936
#
# Velocity S-wave (km/s) = 3.58772 3.97546 3.78656
# Velocity P-wave (km/s) = 6.01971 6.50198 6.26549
#
# Compressibility (1/GPa) = 0.02268924
#
# Stress axis : x y z
#
# Youngs Moduli (GPa) = 142.01548 102.74188 77.95242
#
# Poissons Ratio (x) = 0.15633 0.13869
# Poissons Ratio (y) = 0.21609 0.01216
# Poissons Ratio (z) = 0.25267 0.01603
#
# Static dielectric constant tensor:
#      x y z
#    x 4.443300 0.000000 0.000000 
#    y 0.000000 3.716250 0.000000 
#    z 0.000000 0.000000 4.015750 
# 
# 
# High freq. dielectric constant tensor:
#      x y z
#    x 1.937240 0.000000 0.000000 
#    y 0.000000 1.878450 0.000000 
#    z 0.000000 0.000000 1.919670 
# 
# From -- ./inp_files/51468.got.cif
#   From: 2010.03.12/outbox.cif.g09.slc.cpg/sg64_26_cif.got.tgz:51468.got - 2010.04.10 20:19:32.
