data_PCOD8264995
_publ_section_title
;
Structure prediction by ZEFSAII (Michael W. Deem and Ramdas Pophale) SiO2 
 PCOD8264995
Probable space group: C M C A
;
_chemical_formula_sum "Si O2"
_cell_formula_units_Z 64
_cell_length_a 17.826434
_cell_length_b 14.250730
_cell_length_c 11.492818
_cell_angle_alpha 90.000000
_cell_angle_beta 90.000000
_cell_angle_gamma 90.000000
_cell_volume 2919.632012
_symmetry_space_group_name_H-M "C M C A"
_symmetry_group_IT_number 64
_symmetry_cell_setting 'orthorhombic'
loop_
_space_group_symop_operation_xyz
x,y,z
-x,1/2-y,1/2+z
x,-y,-z
-x,1/2+y,1/2-z
-x,-y,-z
x,1/2+y,1/2-z
-x,y,z
x,1/2-y,1/2+z
1/2+x,1/2+y,z
1/2-x,-y,1/2+z
1/2+x,1/2-y,-z
1/2-x,y,1/2-z
1/2-x,1/2-y,-z
1/2+x,y,1/2-z
1/2-x,1/2+y,z
1/2+x,-y,1/2+z
loop_
_atom_site_type_symbol
_atom_site_label
_atom_site_fract_x
_atom_site_fract_y
_atom_site_fract_z
Si Si1 0.790862 0.844762 0.541898
Si Si2 0.171736 0.872554 0.293361
Si Si3 0.914733 0.803253 0.730090
Si Si4 0.152072 0.043293 0.122464
O O1 0.750000 0.750000 0.500000
O O2 0.819559 0.900901 0.428329
O O3 0.862245 0.824786 0.620983
O O4 0.733895 0.910434 0.611863
O O5 0.250000 0.825489 0.250000
O O6 0.104795 0.798804 0.280294
O O7 0.154166 0.964209 0.219926
O O8 0.905915 0.877821 0.834894
O O9 0.000000 0.803599 0.686356
O O10 0.124358 0.000000 0.000000
#
# Coordination Sequence:
#
# PCOD8264995 Si02
#       4
#    16  16  16  16
#     4  12  23  46  76 103 139 188 250 300 342 427
#     4  12  23  44  73 106 139 186 247 299 352 426
#     4  12  28  46  68 108 155 189 231 300 377 437
#     4  12  25  44  79 108 137 187 250 304 352 430
#
# _framework density 21.920570999999999
#
# number of rings (size 3 to 8) (size 9 to 14) (size 15 to 20)
#    0.000    0.000    7.500    2.250    0.000    2.500 
#    0.000    1.250    0.000    0.000    0.000    0.000 
#    0.000    0.000    0.000    0.000    0.000    0.000 
#
# Total GULP energy -396964.754444 kJ/mol
# GULP energy per Si atom -12405.148576 kJ/mol
# Density = 2.187068 g / cm^3
# Si number density = 21.920571 Si / 1000 Ang^3
#
#
#
# Elastic Constant Matrix: (Units=GPa)
#
#
# Indices 1 2 3 4 5 6 
#
# 1 131.0009 47.4605 43.1143 0.0000 0.0000 0.0000
# 2 47.4605 147.6793 53.7065 0.0000 0.0000 0.0000
# 3 43.1143 53.7065 123.7128 0.0000 0.0000 0.0000
# 4 0.0000 0.0000 0.0000 43.3502 0.0000 0.0000
# 5 0.0000 0.0000 0.0000 0.0000 27.6317 0.0000
# 6 0.0000 0.0000 0.0000 0.0000 0.0000 1.8971
#
#
#
# Elastic Compliance Matrix: (Units=1/GPa)
#
#
# Indices 1 2 3 4 5 6 
#
# 1 0.009146 -0.002114 -0.002270 0.000000 0.000000 0.000000
# 2 -0.002114 0.008529 -0.002966 0.000000 0.000000 0.000000
# 3 -0.002270 -0.002966 0.010162 0.000000 0.000000 0.000000
# 4 0.000000 0.000000 0.000000 0.023068 0.000000 0.000000
# 5 0.000000 0.000000 0.000000 0.000000 0.036190 0.000000
# 6 0.000000 0.000000 0.000000 0.000000 0.000000 0.527126
#
#
# Mechanical properties :
#
#
# Convention : Reuss Voigt Hill
#
# Bulk Modulus (GPa) = 76.11497 76.77284 76.44391
# Shear Modulus (GPa) = 7.89514 31.78324 19.83919
#
# Velocity S-wave (km/s) = 1.89987 3.81192 3.01167
# Velocity P-wave (km/s) = 6.29374 7.38062 6.85874
#
# Compressibility (1/GPa) = 0.01313802
#
# Stress axis : x y z
#
# Youngs Moduli (GPa) = 109.33213 117.24020 98.40640
#
# Poissons Ratio (x) = 0.24784 0.22337
# Poissons Ratio (y) = 0.23112 0.29189
# Poissons Ratio (z) = 0.24817 0.34775
#
# Static dielectric constant tensor:
#      x y z
#    x 3.652150 0.000000 0.000000 
#    y 0.000000 4.175510 0.000000 
#    z 0.000000 0.000000 4.352890 
# 
# 
# High freq. dielectric constant tensor:
#      x y z
#    x 1.827390 0.000000 0.000000 
#    y 0.000000 1.878930 0.000000 
#    z 0.000000 0.000000 1.883190 
# 
# From -- ./inp_files/15452.got.cif
#   From: 2010.03.12/outbox.cif.g09.slc.cpg/sg64_8_cif.got.tgz:15452.got - 2010.04.10 20:19:32.
