data_PCOD8264405
_publ_section_title
;
Structure prediction by ZEFSAII (Michael W. Deem and Ramdas Pophale) SiO2 
 PCOD8264405
Probable space group: C M C A
;
_chemical_formula_sum "Si O2"
_cell_formula_units_Z 96
_cell_length_a 18.522423
_cell_length_b 8.726707
_cell_length_c 28.911846
_cell_angle_alpha 90.000000
_cell_angle_beta 90.000000
_cell_angle_gamma 90.000000
_cell_volume 4673.303804
_symmetry_space_group_name_H-M "C M C A"
_symmetry_group_IT_number 64
_symmetry_cell_setting 'orthorhombic'
loop_
_space_group_symop_operation_xyz
x,y,z
-x,1/2-y,1/2+z
x,-y,-z
-x,1/2+y,1/2-z
-x,-y,-z
x,1/2+y,1/2-z
-x,y,z
x,1/2-y,1/2+z
1/2+x,1/2+y,z
1/2-x,-y,1/2+z
1/2+x,1/2-y,-z
1/2-x,y,1/2-z
1/2-x,1/2-y,-z
1/2+x,y,1/2-z
1/2-x,1/2+y,z
1/2+x,-y,1/2+z
loop_
_atom_site_type_symbol
_atom_site_label
_atom_site_fract_x
_atom_site_fract_y
_atom_site_fract_z
Si Si1 0.914776 0.930990 0.292705
Si Si2 0.182612 0.927739 0.120879
Si Si3 0.414301 0.780852 0.302503
Si Si4 0.583300 0.861033 0.034364
Si Si5 0.818650 0.161057 0.981861
Si Si6 0.334211 0.291136 0.374749
O O1 0.887374 0.104758 0.300266
O O2 0.000000 0.925033 0.294782
O O3 0.887835 0.868542 0.243385
O O4 0.886679 0.814788 0.331556
O O5 0.120896 0.867240 0.154582
O O6 0.170815 0.838397 0.072968
O O7 0.261045 0.878740 0.139158
O O8 0.177258 0.111155 0.115575
O O9 0.500000 0.789644 0.308713
O O10 0.500000 0.849582 0.048928
O O11 0.631389 0.874257 0.080461
O O12 0.606349 0.712851 0.005184
O O13 0.599622 0.000000 0.000000
O O14 0.750000 0.250000 0.000000
O O15 0.797164 0.000000 0.000000
#
# Coordination Sequence:
#
# PCOD8264405 Si02
#       6
#    16  16  16  16  16  16
#     4  10  22  43  69  96 134 173 212 267 329 391
#     4  12  25  41  67  96 128 175 216 273 325 386
#     4  10  23  43  69 100 132 172 217 267 328 393
#     4  11  26  43  65  94 130 172 218 270 323 387
#     4  12  23  43  66  93 131 176 218 268 323 387
#     4  12  25  43  65  97 132 169 223 268 331 391
#
# _framework density 20.542213
#
# number of rings (size 3 to 8) (size 9 to 14) (size 15 to 20)
#    0.000    0.833    3.333    3.000    4.667    4.333 
#    0.000    3.333    0.000    0.000    0.000    0.000 
#    0.000    0.000    0.000    0.000    0.000    0.000 
#
# Total GULP energy -595263.259650 kJ/mol
# GULP energy per Si atom -12401.317909 kJ/mol
# Density = 2.049546 g / cm^3
# Si number density = 20.542213 Si / 1000 Ang^3
#
#
#
# Elastic Constant Matrix: (Units=GPa)
#
#
# Indices 1 2 3 4 5 6 
#
# 1 57.3522 48.6759 38.7650 0.0000 0.0000 0.0000
# 2 48.6759 120.7826 50.3442 0.0000 0.0000 0.0000
# 3 38.7650 50.3442 153.4453 0.0000 0.0000 0.0000
# 4 0.0000 0.0000 0.0000 39.3746 0.0000 0.0000
# 5 0.0000 0.0000 0.0000 0.0000 3.7795 0.0000
# 6 0.0000 0.0000 0.0000 0.0000 0.0000 35.9402
#
#
#
# Elastic Compliance Matrix: (Units=1/GPa)
#
#
# Indices 1 2 3 4 5 6 
#
# 1 0.028443 -0.009809 -0.003967 0.000000 0.000000 0.000000
# 2 -0.009809 0.012974 -0.001779 0.000000 0.000000 0.000000
# 3 -0.003967 -0.001779 0.008103 0.000000 0.000000 0.000000
# 4 0.000000 0.000000 0.000000 0.025397 0.000000 0.000000
# 5 0.000000 0.000000 0.000000 0.000000 0.264583 0.000000
# 6 0.000000 0.000000 0.000000 0.000000 0.000000 0.027824
#
#
# Mechanical properties :
#
#
# Convention : Reuss Voigt Hill
#
# Bulk Modulus (GPa) = 54.31919 67.46113 60.89016
# Shear Modulus (GPa) = 12.35884 28.73854 20.54869
#
# Velocity S-wave (km/s) = 2.45548 3.74438 3.16621
# Velocity P-wave (km/s) = 5.87701 7.18369 6.56295
#
# Compressibility (1/GPa) = 0.01840970
#
# Stress axis : x y z
#
# Youngs Moduli (GPa) = 35.15854 77.07917 123.41483
#
# Poissons Ratio (x) = 0.75606 0.48962
# Poissons Ratio (y) = 0.34487 0.21950
# Poissons Ratio (z) = 0.13948 0.13709
#
# Static dielectric constant tensor:
#      x y z
#    x 3.720690 0.000000 0.000000 
#    y 0.000000 4.168100 0.000000 
#    z 0.000000 0.000000 3.904580 
# 
# 
# High freq. dielectric constant tensor:
#      x y z
#    x 1.802320 0.000000 0.000000 
#    y 0.000000 1.816930 0.000000 
#    z 0.000000 0.000000 1.818040 
# 
# From -- ./inp_files/50672.got.cif
#   From: 2010.03.12/outbox.cif.g09.slc.cpg/sg64_26_cif.got.tgz:50672.got - 2010.04.10 20:19:32.
