data_PCOD8264845
_publ_section_title
;
Structure prediction by ZEFSAII (Michael W. Deem and Ramdas Pophale) SiO2 
 PCOD8264845
Probable space group: C M C A
;
_chemical_formula_sum "Si O2"
_cell_formula_units_Z 80
_cell_length_a 16.581386
_cell_length_b 29.251592
_cell_length_c 8.758939
_cell_angle_alpha 90.000000
_cell_angle_beta 90.000000
_cell_angle_gamma 90.000000
_cell_volume 4248.365159
_symmetry_space_group_name_H-M "C M C A"
_symmetry_group_IT_number 64
_symmetry_cell_setting 'orthorhombic'
loop_
_space_group_symop_operation_xyz
x,y,z
-x,1/2-y,1/2+z
x,-y,-z
-x,1/2+y,1/2-z
-x,-y,-z
x,1/2+y,1/2-z
-x,y,z
x,1/2-y,1/2+z
1/2+x,1/2+y,z
1/2-x,-y,1/2+z
1/2+x,1/2-y,-z
1/2-x,y,1/2-z
1/2-x,1/2-y,-z
1/2+x,y,1/2-z
1/2-x,1/2+y,z
1/2+x,-y,1/2+z
loop_
_atom_site_type_symbol
_atom_site_label
_atom_site_fract_x
_atom_site_fract_y
_atom_site_fract_z
Si Si1 0.409751 0.455169 0.565315
Si Si2 0.094163 0.853657 0.563159
Si Si3 0.909441 0.454802 0.577080
Si Si4 0.236192 0.700631 0.930210
Si Si5 0.324107 0.632506 0.139885
O O1 0.362436 0.500000 0.500000
O O2 0.500000 0.455335 0.497584
O O3 0.374124 0.405286 0.520405
O O4 0.410897 0.461823 0.744106
O O5 0.145833 0.817269 0.466628
O O6 0.106832 0.847406 0.746525
O O7 0.000000 0.846364 0.526039
O O8 0.871547 0.500000 0.500000
O O9 0.854049 0.411015 0.542050
O O10 0.000000 0.446531 0.513140
O O11 0.250000 0.701272 0.750000
O O12 0.250000 0.750000 0.000000
O O13 0.301903 0.669152 0.012462
O O14 0.250000 0.618986 0.250000
#
# Coordination Sequence:
#
# PCOD8264845 Si02
#       5
#    16  16  16  16  16
#     4   8  14  26  47  75 106 139 173 214 262 307
#     4   9  18  36  60  84 110 143 186 227 266 319
#     4   9  17  30  49  75 108 143 179 218 260 309
#     4  11  23  41  60  80 109 143 176 222 284 336
#     4   9  18  35  56  77 106 144 181 222 274 324
#
# _framework density 18.830773000000001
#
# number of rings (size 3 to 8) (size 9 to 14) (size 15 to 20)
#    0.000    2.800    0.000    3.600    0.000    1.600 
#    0.000   19.000    0.000    0.000    0.000    0.000 
#    0.000    0.000    0.000    0.000    0.000    0.000 
#
# Total GULP energy -495602.616836 kJ/mol
# GULP energy per Si atom -12390.065421 kJ/mol
# Density = 1.878791 g / cm^3
# Si number density = 18.830773 Si / 1000 Ang^3
#
#
#
# Elastic Constant Matrix: (Units=GPa)
#
#
# Indices 1 2 3 4 5 6 
#
# 1 74.6240 71.0601 39.6100 0.0000 0.0000 0.0000
# 2 71.0601 179.2052 74.9675 0.0000 0.0000 0.0000
# 3 39.6100 74.9675 85.8296 0.0000 0.0000 0.0000
# 4 0.0000 0.0000 0.0000 39.9565 0.0000 0.0000
# 5 0.0000 0.0000 0.0000 0.0000 23.4317 0.0000
# 6 0.0000 0.0000 0.0000 0.0000 0.0000 27.3803
#
#
#
# Elastic Compliance Matrix: (Units=1/GPa)
#
#
# Indices 1 2 3 4 5 6 
#
# 1 0.022395 -0.007180 -0.004063 0.000000 0.000000 0.000000
# 2 -0.007180 0.011095 -0.006377 0.000000 0.000000 0.000000
# 3 -0.004063 -0.006377 0.019097 0.000000 0.000000 0.000000
# 4 0.000000 0.000000 0.000000 0.025027 0.000000 0.000000
# 5 0.000000 0.000000 0.000000 0.000000 0.042677 0.000000
# 6 0.000000 0.000000 0.000000 0.000000 0.000000 0.036523
#
#
# Mechanical properties :
#
#
# Convention : Reuss Voigt Hill
#
# Bulk Modulus (GPa) = 57.65614 78.99268 68.32441
# Shear Modulus (GPa) = 25.27325 28.42179 26.84752
#
# Velocity S-wave (km/s) = 3.66748 3.88922 3.77997
# Velocity P-wave (km/s) = 6.97269 7.88719 7.44400
#
# Compressibility (1/GPa) = 0.01734421
#
# Stress axis : x y z
#
# Youngs Moduli (GPa) = 44.65330 90.12830 52.36521
#
# Poissons Ratio (x) = 0.64715 0.21279
# Poissons Ratio (y) = 0.32062 0.33396
# Poissons Ratio (z) = 0.18145 0.57479
#
# Static dielectric constant tensor:
#      x y z
#    x 3.529630 0.000000 0.000000 
#    y 0.000000 3.618420 0.000000 
#    z 0.000000 0.000000 3.355850 
# 
# 
# High freq. dielectric constant tensor:
#      x y z
#    x 1.715770 0.000000 0.000000 
#    y 0.000000 1.737890 0.000000 
#    z 0.000000 0.000000 1.712510 
# 
# From -- ./inp_files/7255.got.cif
#   From: 2010.03.12/outbox.cif.g09.slc.cpg/sg64_4_cif.got.tgz:7255.got - 2010.04.10 20:19:32.
