data_PCOD8264333
_publ_section_title
;
Structure prediction by ZEFSAII (Michael W. Deem and Ramdas Pophale) SiO2 
 PCOD8264333
Probable space group: C M C A
;
_chemical_formula_sum "Si O2"
_cell_formula_units_Z 80
_cell_length_a 13.908527
_cell_length_b 9.370151
_cell_length_c 27.828406
_cell_angle_alpha 90.000000
_cell_angle_beta 90.000000
_cell_angle_gamma 90.000000
_cell_volume 3626.736961
_symmetry_space_group_name_H-M "C M C A"
_symmetry_group_IT_number 64
_symmetry_cell_setting 'orthorhombic'
loop_
_space_group_symop_operation_xyz
x,y,z
-x,1/2-y,1/2+z
x,-y,-z
-x,1/2+y,1/2-z
-x,-y,-z
x,1/2+y,1/2-z
-x,y,z
x,1/2-y,1/2+z
1/2+x,1/2+y,z
1/2-x,-y,1/2+z
1/2+x,1/2-y,-z
1/2-x,y,1/2-z
1/2-x,1/2-y,-z
1/2+x,y,1/2-z
1/2-x,1/2+y,z
1/2+x,-y,1/2+z
loop_
_atom_site_type_symbol
_atom_site_label
_atom_site_fract_x
_atom_site_fract_y
_atom_site_fract_z
Si Si1 0.387574 0.279033 0.623005
Si Si2 0.768986 0.379473 0.965687
Si Si3 0.112226 0.043408 0.107024
Si Si4 0.385030 0.460717 0.712274
Si Si5 0.885788 0.281304 0.698291
O O1 0.500000 0.305315 0.620443
O O2 0.345942 0.344121 0.574606
O O3 0.344598 0.363224 0.668798
O O4 0.363079 0.112183 0.628514
O O5 0.668979 0.430545 0.942090
O O6 0.813076 0.500000 0.000000
O O7 0.750000 0.250000 0.000000
O O8 0.145146 0.161929 0.145855
O O9 0.000000 0.056084 0.094723
O O10 0.500000 0.461934 0.712089
O O11 0.344991 0.621810 0.706615
O O12 0.345552 0.390559 0.761494
O O13 0.000000 0.278977 0.702161
#
# Coordination Sequence:
#
# PCOD8264333 Si02
#       5
#    16  16  16  16  16
#     4  10  22  41  64  91 123 161 203 249 303 364
#     4  12  26  44  64  89 121 158 205 261 310 359
#     4  10  22  41  65  90 122 163 204 246 303 368
#     4   9  17  31  56  90 126 160 198 243 296 358
#     4   9  17  31  56  90 125 161 198 242 296 359
#
# _framework density 22.058396999999999
#
# number of rings (size 3 to 8) (size 9 to 14) (size 15 to 20)
#    0.000    2.000    2.000    1.200    2.800    6.400 
#    0.000    1.000    0.000    4.800    0.000    0.000 
#    0.000    0.000    0.000    0.000    0.000    0.000 
#
# Total GULP energy -496111.023861 kJ/mol
# GULP energy per Si atom -12402.775597 kJ/mol
# Density = 2.200819 g / cm^3
# Si number density = 22.058397 Si / 1000 Ang^3
#
#
#
# Elastic Constant Matrix: (Units=GPa)
#
#
# Indices 1 2 3 4 5 6 
#
# 1 20.4857 18.7462 10.6191 0.0000 0.0000 0.0000
# 2 18.7462 158.1925 53.3433 0.0000 0.0000 0.0000
# 3 10.6191 53.3433 127.4586 0.0000 0.0000 0.0000
# 4 0.0000 0.0000 0.0000 57.7476 0.0000 0.0000
# 5 0.0000 0.0000 0.0000 0.0000 25.8641 0.0000
# 6 0.0000 0.0000 0.0000 0.0000 0.0000 21.4381
#
#
#
# Elastic Compliance Matrix: (Units=1/GPa)
#
#
# Indices 1 2 3 4 5 6 
#
# 1 0.055262 -0.005817 -0.002170 0.000000 0.000000 0.000000
# 2 -0.005817 0.007972 -0.002852 0.000000 0.000000 0.000000
# 3 -0.002170 -0.002852 0.009220 0.000000 0.000000 0.000000
# 4 0.000000 0.000000 0.000000 0.017317 0.000000 0.000000
# 5 0.000000 0.000000 0.000000 0.000000 0.038664 0.000000
# 6 0.000000 0.000000 0.000000 0.000000 0.000000 0.046646
#
#
# Mechanical properties :
#
#
# Convention : Reuss Voigt Hill
#
# Bulk Modulus (GPa) = 19.69373 52.39487 36.04430
# Shear Modulus (GPa) = 23.39901 35.90519 29.65210
#
# Velocity S-wave (km/s) = 3.26049 4.03889 3.67039
# Velocity P-wave (km/s) = 4.80851 6.74941 5.85988
#
# Compressibility (1/GPa) = 0.05077759
#
# Stress axis : x y z
#
# Youngs Moduli (GPa) = 18.09548 125.43210 108.45963
#
# Poissons Ratio (x) = 0.72966 0.23531
# Poissons Ratio (y) = 0.10526 0.30932
# Poissons Ratio (z) = 0.03926 0.35772
#
# Static dielectric constant tensor:
#      x y z
#    x 3.705290 0.000000 0.000000 
#    y 0.000000 4.231720 0.000000 
#    z 0.000000 0.000000 3.882550 
# 
# 
# High freq. dielectric constant tensor:
#      x y z
#    x 1.858310 0.000000 0.000000 
#    y 0.000000 1.881790 0.000000 
#    z 0.000000 0.000000 1.873480 
# 
# From -- ./inp_files/50281.got.cif
#   From: 2010.03.12/outbox.cif.g09.slc.cpg/sg64_26_cif.got.tgz:50281.got - 2010.04.10 20:19:32.
