data_PCOD8264297
_publ_section_title
;
Structure prediction by ZEFSAII (Michael W. Deem and Ramdas Pophale) SiO2 
 PCOD8264297
Probable space group: C M C A
;
_chemical_formula_sum "Si O2"
_cell_formula_units_Z 112
_cell_length_a 24.123991
_cell_length_b 15.612650
_cell_length_c 13.957761
_cell_angle_alpha 90.000000
_cell_angle_beta 90.000000
_cell_angle_gamma 90.000000
_cell_volume 5257.043120
_symmetry_space_group_name_H-M "C M C A"
_symmetry_group_IT_number 64
_symmetry_cell_setting 'orthorhombic'
loop_
_space_group_symop_operation_xyz
x,y,z
-x,1/2-y,1/2+z
x,-y,-z
-x,1/2+y,1/2-z
-x,-y,-z
x,1/2+y,1/2-z
-x,y,z
x,1/2-y,1/2+z
1/2+x,1/2+y,z
1/2-x,-y,1/2+z
1/2+x,1/2-y,-z
1/2-x,y,1/2-z
1/2-x,1/2-y,-z
1/2+x,y,1/2-z
1/2-x,1/2+y,z
1/2+x,-y,1/2+z
loop_
_atom_site_type_symbol
_atom_site_label
_atom_site_fract_x
_atom_site_fract_y
_atom_site_fract_z
Si Si1 0.715973 0.409396 0.465224
Si Si2 0.060973 0.728312 0.909750
Si Si3 0.168910 0.856547 0.094354
Si Si4 0.586262 0.420970 0.945809
Si Si5 0.623419 0.171065 0.085035
Si Si6 0.869025 0.608572 0.799855
Si Si7 0.065975 0.449547 0.766373
O O1 0.740310 0.500000 0.500000
O O2 0.766501 0.347690 0.433533
O O3 0.680843 0.372736 0.553705
O O4 0.677512 0.420420 0.373503
O O5 0.057274 0.828113 0.940062
O O6 0.105084 0.703069 0.825420
O O7 0.000000 0.700965 0.875657
O O8 0.078423 0.670413 0.000074
O O9 0.139178 0.766946 0.110518
O O10 0.159679 0.900742 0.196701
O O11 0.142416 0.910111 0.007010
O O12 0.595344 0.449089 0.837056
O O13 0.553329 0.500000 0.000000
O O14 0.594555 0.126225 0.174531
O O15 0.920064 0.541756 0.811274
O O16 0.000000 0.434848 0.759364
#
# Coordination Sequence:
#
# PCOD8264297 Si02
#       7
#    16  16  16  16  16  16  16
#     4  11  22  41  69  95 127 168 213 270 329 384
#     4  10  22  40  64  93 128 170 214 270 328 382
#     4  11  23  43  66  91 133 171 210 270 330 385
#     4  11  23  42  61  93 131 167 220 266 316 398
#     4  10  23  43  65  97 127 166 222 269 323 397
#     4  11  23  42  64  96 130 168 220 268 322 399
#     4  12  24  41  65  95 133 172 217 273 324 384
#
# _framework density 21.304753000000002
#
# number of rings (size 3 to 8) (size 9 to 14) (size 15 to 20)
#    0.000    1.143    2.857    3.429    0.000    1.143 
#    0.000    5.714    0.000    0.000    0.000    0.000 
#    0.000    0.000    0.000    0.000    0.000    0.000 
#
# Total GULP energy -693921.381896 kJ/mol
# GULP energy per Si atom -12391.453248 kJ/mol
# Density = 2.125626 g / cm^3
# Si number density = 21.304753 Si / 1000 Ang^3
#
#
#
# Elastic Constant Matrix: (Units=GPa)
#
#
# Indices 1 2 3 4 5 6 
#
# 1 111.5135 36.6537 65.4630 0.0000 0.0000 0.0000
# 2 36.6537 98.7222 32.4615 0.0000 0.0000 0.0000
# 3 65.4630 32.4615 125.7286 0.0000 0.0000 0.0000
# 4 0.0000 0.0000 0.0000 30.1267 0.0000 0.0000
# 5 0.0000 0.0000 0.0000 0.0000 9.6324 0.0000
# 6 0.0000 0.0000 0.0000 0.0000 0.0000 18.6821
#
#
#
# Elastic Compliance Matrix: (Units=1/GPa)
#
#
# Indices 1 2 3 4 5 6 
#
# 1 0.013678 -0.002991 -0.006350 0.000000 0.000000 0.000000
# 2 -0.002991 0.011723 -0.001470 0.000000 0.000000 0.000000
# 3 -0.006350 -0.001470 0.011639 0.000000 0.000000 0.000000
# 4 0.000000 0.000000 0.000000 0.033193 0.000000 0.000000
# 5 0.000000 0.000000 0.000000 0.000000 0.103817 0.000000
# 6 0.000000 0.000000 0.000000 0.000000 0.000000 0.053527
#
#
# Mechanical properties :
#
#
# Convention : Reuss Voigt Hill
#
# Bulk Modulus (GPa) = 64.84848 67.23565 66.04206
# Shear Modulus (GPa) = 19.65896 25.11396 22.38646
#
# Velocity S-wave (km/s) = 3.04098 3.43708 3.24508
# Velocity P-wave (km/s) = 6.54482 6.88323 6.71616
#
# Compressibility (1/GPa) = 0.01542056
#
# Stress axis : x y z
#
# Youngs Moduli (GPa) = 73.11033 85.30239 85.91715
#
# Poissons Ratio (x) = 0.25510 0.54554
# Poissons Ratio (y) = 0.21864 0.12627
# Poissons Ratio (z) = 0.46422 0.12536
#
# Static dielectric constant tensor:
#      x y z
#    x 3.649050 0.000000 0.000000 
#    y 0.000000 3.978230 0.000000 
#    z 0.000000 0.000000 3.888080 
# 
# 
# High freq. dielectric constant tensor:
#      x y z
#    x 1.826610 0.000000 0.000000 
#    y 0.000000 1.845710 0.000000 
#    z 0.000000 0.000000 1.841630 
# 
# From -- ./inp_files/27411.got.cif
#   From: 2010.03.12/outbox.cif.g09.slc.cpg/sg64_14_cif.got.tgz:27411.got - 2010.04.10 20:19:32.
