data_PCOD8264345
_publ_section_title
;
Structure prediction by ZEFSAII (Michael W. Deem and Ramdas Pophale) SiO2 
 PCOD8264345
Probable space group: C M C A
;
_chemical_formula_sum "Si O2"
_cell_formula_units_Z 64
_cell_length_a 10.143732
_cell_length_b 8.845756
_cell_length_c 31.689534
_cell_angle_alpha 90.000000
_cell_angle_beta 90.000000
_cell_angle_gamma 90.000000
_cell_volume 2843.469505
_symmetry_space_group_name_H-M "C M C A"
_symmetry_group_IT_number 64
_symmetry_cell_setting 'orthorhombic'
loop_
_space_group_symop_operation_xyz
x,y,z
-x,1/2-y,1/2+z
x,-y,-z
-x,1/2+y,1/2-z
-x,-y,-z
x,1/2+y,1/2-z
-x,y,z
x,1/2-y,1/2+z
1/2+x,1/2+y,z
1/2-x,-y,1/2+z
1/2+x,1/2-y,-z
1/2-x,y,1/2-z
1/2-x,1/2-y,-z
1/2+x,y,1/2-z
1/2-x,1/2+y,z
1/2+x,-y,1/2+z
loop_
_atom_site_type_symbol
_atom_site_label
_atom_site_fract_x
_atom_site_fract_y
_atom_site_fract_z
Si Si1 0.219680 0.710146 0.100767
Si Si2 0.644006 0.546954 0.543878
Si Si3 0.500000 0.580985 0.692984
Si Si4 0.708563 0.965490 0.341076
Si Si5 0.500000 0.074277 0.279100
O O1 0.286910 0.813342 0.065836
O O2 0.126806 0.595305 0.075479
O O3 0.320850 0.607093 0.127981
O O4 0.148376 0.817693 0.135361
O O5 0.717728 0.500000 0.500000
O O6 0.500000 0.605886 0.531441
O O7 0.367026 0.555987 0.665551
O O8 0.500000 0.454704 0.729442
O O9 0.500000 0.746932 0.713501
O O10 0.631069 0.994887 0.297903
#
# Coordination Sequence:
#
# PCOD8264345 Si02
#       5
#    16  16   8  16   8
#     4  10  23  39  66  94 132 170 218 270 324 389
#     4  10  22  41  66  95 132 172 218 275 334 391
#     4  12  28  48  66 102 137 170 226 278 335 400
#     4  11  25  43  71  98 135 177 223 275 329 399
#     4  12  28  46  70  98 135 176 220 280 335 400
#
# _framework density 22.507712999999999
#
# number of rings (size 3 to 8) (size 9 to 14) (size 15 to 20)
#    0.000    1.250    2.500    1.500   14.000    2.000 
#    0.000    0.000    0.000    7.500    0.000    0.000 
#    0.000    0.000    0.000    0.000    0.000    0.000 
#
# Total GULP energy -396486.958629 kJ/mol
# GULP energy per Si atom -12390.217457 kJ/mol
# Density = 2.245648 g / cm^3
# Si number density = 22.507713 Si / 1000 Ang^3
#
#
#
# Elastic Constant Matrix: (Units=GPa)
#
#
# Indices 1 2 3 4 5 6 
#
# 1 86.1305 3.9446 8.1327 0.0000 0.0000 0.0000
# 2 3.9446 116.7147 24.0555 0.0000 0.0000 0.0000
# 3 8.1327 24.0555 104.4923 0.0000 0.0000 0.0000
# 4 0.0000 0.0000 0.0000 44.1227 0.0000 0.0000
# 5 0.0000 0.0000 0.0000 0.0000 1001.5103 0.0000
# 6 0.0000 0.0000 0.0000 0.0000 0.0000 70.8288
#
#
#
# Elastic Compliance Matrix: (Units=1/GPa)
#
#
# Indices 1 2 3 4 5 6 
#
# 1 0.011702 -0.000218 -0.000861 0.000000 0.000000 0.000000
# 2 -0.000218 0.008999 -0.002055 0.000000 0.000000 0.000000
# 3 -0.000861 -0.002055 0.010110 0.000000 0.000000 0.000000
# 4 0.000000 0.000000 0.000000 0.022664 0.000000 0.000000
# 5 0.000000 0.000000 0.000000 0.000000 0.000998 0.000000
# 6 0.000000 0.000000 0.000000 0.000000 0.000000 0.014119
#
#
# Mechanical properties :
#
#
# Convention : Reuss Voigt Hill
#
# Bulk Modulus (GPa) = 40.74357 42.17813 41.46085
# Shear Modulus (GPa) = 60.21247 241.37269 150.79258
#
# Velocity S-wave (km/s) = 5.17784 10.36691 8.19399
# Velocity P-wave (km/s) = 7.34085 12.73095 10.39147
#
# Compressibility (1/GPa) = 0.02454375
#
# Stress axis : x y z
#
# Youngs Moduli (GPa) = 85.45885 111.12659 98.91137
#
# Poissons Ratio (x) = 0.02424 0.08512
# Poissons Ratio (y) = 0.01864 0.20323
# Poissons Ratio (z) = 0.07354 0.22833
#
# Static dielectric constant tensor:
#      x y z
#    x 3.643130 0.000000 0.000000 
#    y 0.000000 4.347750 0.000000 
#    z 0.000000 0.000000 4.243810 
# 
# 
# High freq. dielectric constant tensor:
#      x y z
#    x 1.850260 0.000000 0.000000 
#    y 0.000000 1.907070 0.000000 
#    z 0.000000 0.000000 1.906450 
# 
# From -- ./inp_files/52469.got.cif
#   From: 2010.03.12/outbox.cif.g09.slc.cpg/sg64_27_cif.got.tgz:52469.got - 2010.04.10 20:19:32.
