data_PCOD8264736
_publ_section_title
;
Structure prediction by ZEFSAII (Michael W. Deem and Ramdas Pophale) SiO2 
 PCOD8264736
Probable space group: C M C A
;
_chemical_formula_sum "Si O2"
_cell_formula_units_Z 80
_cell_length_a 28.076935
_cell_length_b 18.814649
_cell_length_c 7.405575
_cell_angle_alpha 90.000000
_cell_angle_beta 90.000000
_cell_angle_gamma 90.000000
_cell_volume 3912.051847
_symmetry_space_group_name_H-M "C M C A"
_symmetry_group_IT_number 64
_symmetry_cell_setting 'orthorhombic'
loop_
_space_group_symop_operation_xyz
x,y,z
-x,1/2-y,1/2+z
x,-y,-z
-x,1/2+y,1/2-z
-x,-y,-z
x,1/2+y,1/2-z
-x,y,z
x,1/2-y,1/2+z
1/2+x,1/2+y,z
1/2-x,-y,1/2+z
1/2+x,1/2-y,-z
1/2-x,y,1/2-z
1/2-x,1/2-y,-z
1/2+x,y,1/2-z
1/2-x,1/2+y,z
1/2+x,-y,1/2+z
loop_
_atom_site_type_symbol
_atom_site_label
_atom_site_fract_x
_atom_site_fract_y
_atom_site_fract_z
Si Si1 0.551813 0.862116 0.441539
Si Si2 0.349273 0.669952 0.364376
Si Si3 0.694688 0.685273 0.737355
Si Si4 0.948028 0.715697 0.181422
Si Si5 0.149723 0.580307 0.484136
O O1 0.500000 0.901073 0.422685
O O2 0.558504 0.801114 0.290150
O O3 0.554029 0.814489 0.619179
O O4 0.594941 0.917996 0.442939
O O5 0.333519 0.741666 0.262914
O O6 0.317703 0.653410 0.540109
O O7 0.404297 0.679816 0.427618
O O8 0.344931 0.605003 0.223289
O O9 0.750000 0.703104 0.750000
O O10 0.682547 0.628699 0.890701
O O11 0.000000 0.698489 0.091923
O O12 0.168002 0.500000 0.500000
#
# Coordination Sequence:
#
# PCOD8264736 Si02
#       5
#    16  16  16  16  16
#     4   9  17  31  56  86 119 157 199 248 309 370
#     4  11  21  40  68  92 125 158 207 262 306 370
#     4  12  24  41  67  94 115 161 216 263 313 369
#     4   9  16  29  54  90 118 148 196 251 299 358
#     4  11  25  42  59  91 131 163 204 257 315 376
#
# _framework density 20.449627
#
# number of rings (size 3 to 8) (size 9 to 14) (size 15 to 20)
#    0.000    1.600    4.000    1.800    0.000    1.200 
#    3.600    0.000    0.000    0.000    0.000    7.000 
#    0.000    0.000    0.000    0.000    0.000    0.000 
#
# Total GULP energy -495780.382340 kJ/mol
# GULP energy per Si atom -12394.509558 kJ/mol
# Density = 2.040308 g / cm^3
# Si number density = 20.449627 Si / 1000 Ang^3
#
#
#
# Elastic Constant Matrix: (Units=GPa)
#
#
# Indices 1 2 3 4 5 6 
#
# 1 115.7332 18.6204 34.3962 0.0000 0.0000 0.0000
# 2 18.6204 73.0101 12.1809 0.0000 0.0000 0.0000
# 3 34.3962 12.1809 69.8786 0.0000 0.0000 0.0000
# 4 0.0000 0.0000 0.0000 22.7807 0.0000 0.0000
# 5 0.0000 0.0000 0.0000 0.0000 28.7814 0.0000
# 6 0.0000 0.0000 0.0000 0.0000 0.0000 9.1300
#
#
#
# Elastic Compliance Matrix: (Units=1/GPa)
#
#
# Indices 1 2 3 4 5 6 
#
# 1 0.010357 -0.001845 -0.004776 0.000000 0.000000 0.000000
# 2 -0.001845 0.014435 -0.001608 0.000000 0.000000 0.000000
# 3 -0.004776 -0.001608 0.016942 0.000000 0.000000 0.000000
# 4 0.000000 0.000000 0.000000 0.043897 0.000000 0.000000
# 5 0.000000 0.000000 0.000000 0.000000 0.034745 0.000000
# 6 0.000000 0.000000 0.000000 0.000000 0.000000 0.109530
#
#
# Mechanical properties :
#
#
# Convention : Reuss Voigt Hill
#
# Bulk Modulus (GPa) = 39.56370 43.22410 41.39390
# Shear Modulus (GPa) = 19.62406 25.03338 22.32872
#
# Velocity S-wave (km/s) = 3.10115 3.50258 3.30796
# Velocity P-wave (km/s) = 5.67554 6.12700 5.90559
#
# Compressibility (1/GPa) = 0.02527569
#
# Stress axis : x y z
#
# Youngs Moduli (GPa) = 96.55399 69.27369 59.02495
#
# Poissons Ratio (x) = 0.12778 0.28193
# Poissons Ratio (y) = 0.17810 0.09494
# Poissons Ratio (z) = 0.46118 0.11142
#
# Static dielectric constant tensor:
#      x y z
#    x 4.185620 0.000000 0.000000 
#    y 0.000000 3.274040 0.000000 
#    z 0.000000 0.000000 3.699380 
# 
# 
# High freq. dielectric constant tensor:
#      x y z
#    x 1.818700 0.000000 0.000000 
#    y 0.000000 1.748750 0.000000 
#    z 0.000000 0.000000 1.799410 
# 
# From -- ./inp_files/10219.got.cif
#   From: 2010.03.12/outbox.cif.g09.slc.cpg/sg64_6_cif.got.tgz:10219.got - 2010.04.10 20:19:32.
