data_PCOD8264834
_publ_section_title
;
Structure prediction by ZEFSAII (Michael W. Deem and Ramdas Pophale) SiO2 
 PCOD8264834
Probable space group: C M C A
;
_chemical_formula_sum "Si O2"
_cell_formula_units_Z 96
_cell_length_a 23.049697
_cell_length_b 13.011843
_cell_length_c 14.203310
_cell_angle_alpha 90.000000
_cell_angle_beta 90.000000
_cell_angle_gamma 90.000000
_cell_volume 4259.843080
_symmetry_space_group_name_H-M "C M C A"
_symmetry_group_IT_number 64
_symmetry_cell_setting 'orthorhombic'
loop_
_space_group_symop_operation_xyz
x,y,z
-x,1/2-y,1/2+z
x,-y,-z
-x,1/2+y,1/2-z
-x,-y,-z
x,1/2+y,1/2-z
-x,y,z
x,1/2-y,1/2+z
1/2+x,1/2+y,z
1/2-x,-y,1/2+z
1/2+x,1/2-y,-z
1/2-x,y,1/2-z
1/2-x,1/2-y,-z
1/2+x,y,1/2-z
1/2-x,1/2+y,z
1/2+x,-y,1/2+z
loop_
_atom_site_type_symbol
_atom_site_label
_atom_site_fract_x
_atom_site_fract_y
_atom_site_fract_z
Si Si1 0.168371 0.384082 0.604608
Si Si2 0.884338 0.223779 0.933728
Si Si3 0.500000 0.479230 0.341234
Si Si4 0.207656 0.610010 0.026763
Si Si5 0.112244 0.437336 0.277765
Si Si6 0.000000 0.165180 0.482056
Si Si7 0.299229 0.180441 0.826131
O O1 0.140525 0.363159 0.503059
O O2 0.236734 0.410553 0.592524
O O3 0.134510 0.476264 0.651997
O O4 0.162598 0.284350 0.671425
O O5 0.840008 0.319703 0.920686
O O6 0.896209 0.169792 0.833828
O O7 0.943858 0.263891 0.977337
O O8 0.445485 0.474123 0.272430
O O9 0.500000 0.586719 0.395308
O O10 0.500000 0.387643 0.416050
O O11 0.179126 0.500000 0.000000
O O12 0.228383 0.666466 0.930110
O O13 0.160151 0.416624 0.197307
O O14 0.250000 0.192203 0.750000
#
# Coordination Sequence:
#
# PCOD8264834 Si02
#       7
#    16  16   8  16  16   8  16
#     4  11  24  44  67 102 145 189 226 285 355 423
#     4  11  24  45  73  98 143 185 232 283 355 417
#     4  11  27  49  70 103 133 177 235 287 351 417
#     4  11  23  41  68  99 142 193 229 278 352 420
#     4  12  26  45  71 106 138 177 239 294 345 412
#     4  11  27  49  74  97 134 184 230 288 356 423
#     4  11  23  39  64 103 139 183 234 289 337 407
#
# _framework density 22.536041000000001
#
# number of rings (size 3 to 8) (size 9 to 14) (size 15 to 20)
#    0.000    0.833    0.000    9.000    7.000    2.667 
#    3.000    1.667    0.000    0.000    0.000    0.000 
#    0.000    0.000    0.000    0.000    0.000    0.000 
#
# Total GULP energy -595433.498319 kJ/mol
# GULP energy per Si atom -12404.864548 kJ/mol
# Density = 2.248475 g / cm^3
# Si number density = 22.536041 Si / 1000 Ang^3
#
#
#
# Elastic Constant Matrix: (Units=GPa)
#
#
# Indices 1 2 3 4 5 6 
#
# 1 127.1232 32.5342 51.9586 0.0000 0.0000 0.0000
# 2 32.5342 107.7091 34.3670 0.0000 0.0000 0.0000
# 3 51.9586 34.3670 88.6887 0.0000 0.0000 0.0000
# 4 0.0000 0.0000 0.0000 31.0276 0.0000 0.0000
# 5 0.0000 0.0000 0.0000 0.0000 8.4328 0.0000
# 6 0.0000 0.0000 0.0000 0.0000 0.0000 29.0741
#
#
#
# Elastic Compliance Matrix: (Units=1/GPa)
#
#
# Indices 1 2 3 4 5 6 
#
# 1 0.010520 -0.001382 -0.005628 0.000000 0.000000 0.000000
# 2 -0.001382 0.010776 -0.003366 0.000000 0.000000 0.000000
# 3 -0.005628 -0.003366 0.015877 0.000000 0.000000 0.000000
# 4 0.000000 0.000000 0.000000 0.032229 0.000000 0.000000
# 5 0.000000 0.000000 0.000000 0.000000 0.118585 0.000000
# 6 0.000000 0.000000 0.000000 0.000000 0.000000 0.034395
#
#
# Mechanical properties :
#
#
# Convention : Reuss Voigt Hill
#
# Bulk Modulus (GPa) = 60.89687 62.36008 61.62847
# Shear Modulus (GPa) = 20.11205 27.35096 23.73150
#
# Velocity S-wave (km/s) = 2.99061 3.48753 3.24859
# Velocity P-wave (km/s) = 6.24545 6.62937 6.44027
#
# Compressibility (1/GPa) = 0.01642121
#
# Stress axis : x y z
#
# Youngs Moduli (GPa) = 95.05398 92.80147 62.98505
#
# Poissons Ratio (x) = 0.12826 0.35447
# Poissons Ratio (y) = 0.13137 0.21200
# Poissons Ratio (z) = 0.53495 0.31236
#
# Static dielectric constant tensor:
#      x y z
#    x 4.134300 0.000000 0.000000 
#    y 0.000000 4.245900 0.000000 
#    z 0.000000 0.000000 4.116420 
# 
# 
# High freq. dielectric constant tensor:
#      x y z
#    x 1.879550 0.000000 0.000000 
#    y 0.000000 1.903490 0.000000 
#    z 0.000000 0.000000 1.897890 
# 
# From -- ./inp_files/26381.got.cif
#   From: 2010.03.12/outbox.cif.g09.slc.cpg/sg64_14_cif.got.tgz:26381.got - 2010.04.10 20:19:32.
