data_PCOD8264352
_publ_section_title
;
Structure prediction by ZEFSAII (Michael W. Deem and Ramdas Pophale) SiO2 
 PCOD8264352
Probable space group: C M C A
;
_chemical_formula_sum "Si O2"
_cell_formula_units_Z 80
_cell_length_a 24.022083
_cell_length_b 16.358768
_cell_length_c 9.294369
_cell_angle_alpha 90.000000
_cell_angle_beta 90.000000
_cell_angle_gamma 90.000000
_cell_volume 3652.423825
_symmetry_space_group_name_H-M "C M C A"
_symmetry_group_IT_number 64
_symmetry_cell_setting 'orthorhombic'
loop_
_space_group_symop_operation_xyz
x,y,z
-x,1/2-y,1/2+z
x,-y,-z
-x,1/2+y,1/2-z
-x,-y,-z
x,1/2+y,1/2-z
-x,y,z
x,1/2-y,1/2+z
1/2+x,1/2+y,z
1/2-x,-y,1/2+z
1/2+x,1/2-y,-z
1/2-x,y,1/2-z
1/2-x,1/2-y,-z
1/2+x,y,1/2-z
1/2-x,1/2+y,z
1/2+x,-y,1/2+z
loop_
_atom_site_type_symbol
_atom_site_label
_atom_site_fract_x
_atom_site_fract_y
_atom_site_fract_z
Si Si1 0.686016 0.666567 0.399470
Si Si2 0.500000 0.348605 0.736365
Si Si3 0.598537 0.070126 0.596732
Si Si4 0.313062 0.827525 0.563780
Si Si5 0.000000 0.813030 0.063491
Si Si6 0.403045 0.461896 0.640018
O O1 0.677766 0.686389 0.231894
O O2 0.665234 0.745773 0.485575
O O3 0.748332 0.650048 0.456238
O O4 0.649464 0.586430 0.428209
O O5 0.500000 0.279580 0.615715
O O6 0.444904 0.402711 0.723098
O O7 0.500000 0.307524 0.891852
O O8 0.652294 0.098638 0.505363
O O9 0.554619 0.142014 0.624175
O O10 0.569203 0.000000 0.500000
O O11 0.617092 0.032762 0.750402
O O12 0.433361 0.500000 0.500000
#
# Coordination Sequence:
#
# PCOD8264352 Si02
#       6
#    16   8  16  16   8  16
#     4  10  22  43  64  96 128 172 224 269 325 397
#     4  12  26  46  68  99 131 175 225 269 329 408
#     4  12  23  44  67  95 133 178 214 275 334 396
#     4  10  22  41  68  92 130 174 221 271 327 391
#     4  12  26  43  72  97 131 178 223 267 333 404
#     4  12  27  43  65  99 137 171 222 278 334 393
#
# _framework density 21.903262999999999
#
# number of rings (size 3 to 8) (size 9 to 14) (size 15 to 20)
#    0.000    0.800    4.000    2.400    5.600    0.800 
#    0.000    0.000    0.000    0.000    0.000    0.000 
#    0.000    0.000    0.000    0.000    0.000    0.000 
#
# Total GULP energy -496069.143185 kJ/mol
# GULP energy per Si atom -12401.728580 kJ/mol
# Density = 2.185341 g / cm^3
# Si number density = 21.903263 Si / 1000 Ang^3
#
#
#
# Elastic Constant Matrix: (Units=GPa)
#
#
# Indices 1 2 3 4 5 6 
#
# 1 94.1724 42.3465 32.6011 0.0000 0.0000 0.0000
# 2 42.3465 89.2006 60.9715 0.0000 0.0000 0.0000
# 3 32.6011 60.9715 134.1452 0.0000 0.0000 0.0000
# 4 0.0000 0.0000 0.0000 56.4162 0.0000 0.0000
# 5 0.0000 0.0000 0.0000 0.0000 26.4004 0.0000
# 6 0.0000 0.0000 0.0000 0.0000 0.0000 22.2151
#
#
#
# Elastic Compliance Matrix: (Units=1/GPa)
#
#
# Indices 1 2 3 4 5 6 
#
# 1 0.013527 -0.006056 -0.000535 0.000000 0.000000 0.000000
# 2 -0.006056 0.018975 -0.007153 0.000000 0.000000 0.000000
# 3 -0.000535 -0.007153 0.010836 0.000000 0.000000 0.000000
# 4 0.000000 0.000000 0.000000 0.017725 0.000000 0.000000
# 5 0.000000 0.000000 0.000000 0.000000 0.037878 0.000000
# 6 0.000000 0.000000 0.000000 0.000000 0.000000 0.045014
#
#
# Mechanical properties :
#
#
# Convention : Reuss Voigt Hill
#
# Bulk Modulus (GPa) = 63.09017 65.48405 64.28711
# Shear Modulus (GPa) = 28.29233 33.11297 30.70265
#
# Velocity S-wave (km/s) = 3.59791 3.89238 3.74804
# Velocity P-wave (km/s) = 6.79165 7.08256 6.93863
#
# Compressibility (1/GPa) = 0.01585033
#
# Stress axis : x y z
#
# Youngs Moduli (GPa) = 73.92461 52.70149 92.28877
#
# Poissons Ratio (x) = 0.31918 0.04936
# Poissons Ratio (y) = 0.44771 0.66010
# Poissons Ratio (z) = 0.03954 0.37695
#
# Static dielectric constant tensor:
#      x y z
#    x 3.943790 0.000000 0.000000 
#    y 0.000000 4.004980 0.000000 
#    z 0.000000 0.000000 3.995070 
# 
# 
# High freq. dielectric constant tensor:
#      x y z
#    x 1.857290 0.000000 0.000000 
#    y 0.000000 1.864790 0.000000 
#    z 0.000000 0.000000 1.874830 
# 
# From -- ./inp_files/10247.got.cif
#   From: 2010.03.12/outbox.cif.g09.slc.cpg/sg64_6_cif.got.tgz:10247.got - 2010.04.10 20:19:32.
