data_PCOD8264160
_publ_section_title
;
Structure prediction by ZEFSAII (Michael W. Deem and Ramdas Pophale) SiO2 
 PCOD8264160
Probable space group: C M C A
;
_chemical_formula_sum "Si O2"
_cell_formula_units_Z 88
_cell_length_a 21.547648
_cell_length_b 14.534990
_cell_length_c 12.339186
_cell_angle_alpha 90.000000
_cell_angle_beta 90.000000
_cell_angle_gamma 90.000000
_cell_volume 3864.569486
_symmetry_space_group_name_H-M "C M C A"
_symmetry_group_IT_number 64
_symmetry_cell_setting 'orthorhombic'
loop_
_space_group_symop_operation_xyz
x,y,z
-x,1/2-y,1/2+z
x,-y,-z
-x,1/2+y,1/2-z
-x,-y,-z
x,1/2+y,1/2-z
-x,y,z
x,1/2-y,1/2+z
1/2+x,1/2+y,z
1/2-x,-y,1/2+z
1/2+x,1/2-y,-z
1/2-x,y,1/2-z
1/2-x,1/2-y,-z
1/2+x,y,1/2-z
1/2-x,1/2+y,z
1/2+x,-y,1/2+z
loop_
_atom_site_type_symbol
_atom_site_label
_atom_site_fract_x
_atom_site_fract_y
_atom_site_fract_z
Si Si1 0.220917 0.577446 0.585141
Si Si2 0.750000 0.204415 0.250000
Si Si3 0.828184 0.256384 0.552217
Si Si4 0.135690 0.365597 0.865414
Si Si5 0.849920 0.437883 0.194296
Si Si6 0.572233 0.745528 0.700037
O O1 0.204209 0.500000 0.500000
O O2 0.206869 0.677013 0.530229
O O3 0.175846 0.557089 0.684339
O O4 0.293371 0.577319 0.611576
O O5 0.783793 0.268550 0.158779
O O6 0.798569 0.136152 0.303886
O O7 0.850725 0.163776 0.489363
O O8 0.890574 0.301390 0.605014
O O9 0.113573 0.470451 0.847266
O O10 0.085865 0.293950 0.815319
O O11 0.900781 0.357435 0.193506
O O12 0.500000 0.745110 0.675083
#
# Coordination Sequence:
#
# PCOD8264160 Si02
#       6
#    16   8  16  16  16  16
#     4  11  23  42  70 106 146 177 228 299 374 449
#     4  10  22  36  64 108 140 170 226 286 358 456
#     4  11  24  41  70 102 145 188 230 289 376 430
#     4  11  23  43  71 100 141 186 231 295 376 429
#     4  11  25  43  68 108 141 179 239 301 363 439
#     4  11  27  47  68 100 141 192 256 300 342 422
#
# _framework density 22.770970999999999
#
# number of rings (size 3 to 8) (size 9 to 14) (size 15 to 20)
#    0.000    1.091    1.818    4.909   10.182    1.455 
#    0.000    0.909    0.000    2.182    0.000    0.000 
#    0.000    0.000    0.000    0.000    0.000    0.000 
#
# Total GULP energy -545284.027667 kJ/mol
# GULP energy per Si atom -12392.818811 kJ/mol
# Density = 2.271914 g / cm^3
# Si number density = 22.770971 Si / 1000 Ang^3
#
#
#
# Elastic Constant Matrix: (Units=GPa)
#
#
# Indices 1 2 3 4 5 6 
#
# 1 136.7952 18.2479 55.1321 0.0000 0.0000 0.0000
# 2 18.2479 136.5300 47.3513 0.0000 0.0000 0.0000
# 3 55.1321 47.3513 141.7512 0.0000 0.0000 0.0000
# 4 0.0000 0.0000 0.0000 42.9343 0.0000 0.0000
# 5 0.0000 0.0000 0.0000 0.0000 20.6407 0.0000
# 6 0.0000 0.0000 0.0000 0.0000 0.0000 18.5412
#
#
#
# Elastic Compliance Matrix: (Units=1/GPa)
#
#
# Indices 1 2 3 4 5 6 
#
# 1 0.008669 0.000012 -0.003376 0.000000 0.000000 0.000000
# 2 0.000012 0.008284 -0.002772 0.000000 0.000000 0.000000
# 3 -0.003376 -0.002772 0.009294 0.000000 0.000000 0.000000
# 4 0.000000 0.000000 0.000000 0.023291 0.000000 0.000000
# 5 0.000000 0.000000 0.000000 0.000000 0.048448 0.000000
# 6 0.000000 0.000000 0.000000 0.000000 0.000000 0.053934
#
#
# Mechanical properties :
#
#
# Convention : Reuss Voigt Hill
#
# Bulk Modulus (GPa) = 71.55376 72.94878 72.25127
# Shear Modulus (GPa) = 29.61210 36.04624 32.82917
#
# Velocity S-wave (km/s) = 3.61006 3.98300 3.80111
# Velocity P-wave (km/s) = 6.99058 7.29779 7.14584
#
# Compressibility (1/GPa) = 0.01397551
#
# Stress axis : x y z
#
# Youngs Moduli (GPa) = 115.35209 120.71228 107.60155
#
# Poissons Ratio (x) = -0.00146 0.36324
# Poissons Ratio (y) = -0.00140 0.29827
# Poissons Ratio (z) = 0.38940 0.33461
#
# Static dielectric constant tensor:
#      x y z
#    x 3.771500 0.000000 0.000000 
#    y 0.000000 4.311750 0.000000 
#    z 0.000000 0.000000 4.657180 
# 
# 
# High freq. dielectric constant tensor:
#      x y z
#    x 1.851040 0.000000 0.000000 
#    y 0.000000 1.909030 0.000000 
#    z 0.000000 0.000000 1.929370 
# 
# From -- ./inp_files/18196.got.cif
#   From: 2010.03.12/outbox.cif.g09.slc.cpg/sg64_10_cif.got.tgz:18196.got - 2010.04.10 20:19:32.
