data_PCOD8264530
_publ_section_title
;
Structure prediction by ZEFSAII (Michael W. Deem and Ramdas Pophale) SiO2 
 PCOD8264530
Probable space group: C M C A
;
_chemical_formula_sum "Si O2"
_cell_formula_units_Z 80
_cell_length_a 13.234207
_cell_length_b 11.780635
_cell_length_c 21.424640
_cell_angle_alpha 90.000000
_cell_angle_beta 90.000000
_cell_angle_gamma 90.000000
_cell_volume 3340.259108
_symmetry_space_group_name_H-M "C M C A"
_symmetry_group_IT_number 64
_symmetry_cell_setting 'orthorhombic'
loop_
_space_group_symop_operation_xyz
x,y,z
-x,1/2-y,1/2+z
x,-y,-z
-x,1/2+y,1/2-z
-x,-y,-z
x,1/2+y,1/2-z
-x,y,z
x,1/2-y,1/2+z
1/2+x,1/2+y,z
1/2-x,-y,1/2+z
1/2+x,1/2-y,-z
1/2-x,y,1/2-z
1/2-x,1/2-y,-z
1/2+x,y,1/2-z
1/2-x,1/2+y,z
1/2+x,-y,1/2+z
loop_
_atom_site_type_symbol
_atom_site_label
_atom_site_fract_x
_atom_site_fract_y
_atom_site_fract_z
Si Si1 0.386804 0.248952 0.378110
Si Si2 0.112101 0.549137 0.796051
Si Si3 0.179899 0.998413 0.841899
Si Si4 0.115272 0.656134 0.548311
Si Si5 0.681616 0.374466 0.498436
O O1 0.500000 0.244401 0.404339
O O2 0.380420 0.316302 0.312131
O O3 0.351083 0.122193 0.367733
O O4 0.325093 0.318989 0.429682
O O5 0.129335 0.529409 0.723393
O O6 0.198474 0.487846 0.836819
O O7 0.000000 0.503225 0.814192
O O8 0.142839 0.099589 0.886221
O O9 0.194699 0.616207 0.493482
O O10 0.128880 0.794752 0.550593
O O11 0.000000 0.625934 0.529358
O O12 0.633025 0.500000 0.500000
#
# Coordination Sequence:
#
# PCOD8264530 Si02
#       5
#    16  16  16  16  16
#     4  11  24  46  73 101 142 187 227 290 356 407
#     4  10  23  44  71 101 141 188 226 282 358 422
#     4  11  24  45  72 106 143 175 243 294 344 424
#     4  11  25  44  72 101 135 186 234 290 351 415
#     4  11  27  48  67 101 145 184 237 292 351 421
#
# _framework density 23.950237999999999
#
# number of rings (size 3 to 8) (size 9 to 14) (size 15 to 20)
#    0.000    1.200    2.000    2.400    5.600    5.200 
#    3.600    3.000    0.000    0.000    0.000    0.000 
#    0.000    0.000    0.000    0.000    0.000    0.000 
#
# Total GULP energy -495578.099142 kJ/mol
# GULP energy per Si atom -12389.452479 kJ/mol
# Density = 2.389573 g / cm^3
# Si number density = 23.950238 Si / 1000 Ang^3
#
#
#
# Elastic Constant Matrix: (Units=GPa)
#
#
# Indices 1 2 3 4 5 6 
#
# 1 151.3796 17.0317 22.3967 0.0000 0.0000 0.0000
# 2 17.0317 182.3016 73.4502 0.0000 0.0000 0.0000
# 3 22.3967 73.4502 101.9433 0.0000 0.0000 0.0000
# 4 0.0000 0.0000 0.0000 -60.1443 0.0000 0.0000
# 5 0.0000 0.0000 0.0000 0.0000 14.8772 0.0000
# 6 0.0000 0.0000 0.0000 0.0000 0.0000 26.0438
#
#
#
# Elastic Compliance Matrix: (Units=1/GPa)
#
#
# Indices 1 2 3 4 5 6 
#
# 1 0.006828 -0.000047 -0.001466 0.000000 0.000000 0.000000
# 2 -0.000047 0.007729 -0.005559 0.000000 0.000000 0.000000
# 3 -0.001466 -0.005559 0.014137 0.000000 0.000000 0.000000
# 4 0.000000 0.000000 0.000000 -0.016627 0.000000 0.000000
# 5 0.000000 0.000000 0.000000 0.000000 0.067217 0.000000
# 6 0.000000 0.000000 0.000000 0.000000 0.000000 0.038397
#
#
# Mechanical properties :
#
#
# Convention : Reuss Voigt Hill
#
# Bulk Modulus (GPa) = 68.72825 73.48685 71.10755
# Shear Modulus (GPa) = 36.58310 17.67176 27.12743
#
# Velocity S-wave (km/s) = 3.91252 2.71929 3.36915
# Velocity P-wave (km/s) = 7.01206 6.37253 6.69993
#
# Compressibility (1/GPa) = 0.01455006
#
# Stress axis : x y z
#
# Youngs Moduli (GPa) = 146.45294 129.37529 70.73878
#
# Poissons Ratio (x) = 0.00611 0.10371
# Poissons Ratio (y) = 0.00692 0.39322
# Poissons Ratio (z) = 0.21471 0.71916
#
# Static dielectric constant tensor:
#      x y z
#    x 4.912920 0.000000 0.000000 
#    y 0.000000 4.461920 0.000000 
#    z 0.000000 0.000000 4.232600 
# 
# 
# High freq. dielectric constant tensor:
#      x y z
#    x 1.971450 0.000000 0.000000 
#    y 0.000000 1.951490 0.000000 
#    z 0.000000 0.000000 1.939040 
# 
# From -- ./inp_files/44950.got.cif
#   From: 2010.03.12/outbox.cif.g09.slc.cpg/sg64_23_cif.got.tgz:44950.got - 2010.04.10 20:19:32.
