data_PCOD8264218
_publ_section_title
;
Structure prediction by ZEFSAII (Michael W. Deem and Ramdas Pophale) SiO2 
 PCOD8264218
Probable space group: C M C A
;
_chemical_formula_sum "Si O2"
_cell_formula_units_Z 72
_cell_length_a 24.576478
_cell_length_b 15.255888
_cell_length_c 8.827253
_cell_angle_alpha 90.000000
_cell_angle_beta 90.000000
_cell_angle_gamma 90.000000
_cell_volume 3309.654894
_symmetry_space_group_name_H-M "C M C A"
_symmetry_group_IT_number 64
_symmetry_cell_setting 'orthorhombic'
loop_
_space_group_symop_operation_xyz
x,y,z
-x,1/2-y,1/2+z
x,-y,-z
-x,1/2+y,1/2-z
-x,-y,-z
x,1/2+y,1/2-z
-x,y,z
x,1/2-y,1/2+z
1/2+x,1/2+y,z
1/2-x,-y,1/2+z
1/2+x,1/2-y,-z
1/2-x,y,1/2-z
1/2-x,1/2-y,-z
1/2+x,y,1/2-z
1/2-x,1/2+y,z
1/2+x,-y,1/2+z
loop_
_atom_site_type_symbol
_atom_site_label
_atom_site_fract_x
_atom_site_fract_y
_atom_site_fract_z
Si Si1 0.827007 0.000000 0.500000
Si Si2 0.589054 0.000000 0.500000
Si Si3 0.882646 0.322170 0.938656
Si Si4 0.250000 0.065475 0.250000
Si Si5 0.344863 0.840789 0.604270
Si Si6 0.500000 0.490320 0.250406
Si Si7 0.000000 0.141996 0.496312
O O1 0.865787 0.084566 0.511698
O O2 0.790180 0.004772 0.348598
O O3 0.626332 0.085592 0.496733
O O4 0.553854 0.004117 0.651073
O O5 0.877203 0.324277 0.758910
O O6 0.945520 0.299751 0.978601
O O7 0.843462 0.248068 0.007333
O O8 0.283360 0.128634 0.362695
O O9 0.500000 0.568979 0.367569
O O10 0.500000 0.398157 0.336190
#
# Coordination Sequence:
#
# PCOD8264218 Si02
#       7
#     8   8  16   8  16   8   8
#     4  10  23  45  69  98 127 177 223 284 344 410
#     4  11  23  44  65 102 137 178 227 281 344 406
#     4  11  26  42  68  99 138 176 229 273 343 405
#     4  10  24  44  70  98 132 180 230 284 352 400
#     4  11  26  44  67 100 137 178 229 285 337 407
#     4  10  22  38  72  95 135 181 227 276 341 411
#     4  11  22  42  66 102 135 187 223 274 334 420
#
# _framework density 21.754535000000001
#
# number of rings (size 3 to 8) (size 9 to 14) (size 15 to 20)
#    0.000    1.333    2.222    2.000    6.222    8.889 
#    0.000    0.000    0.000    0.000    0.000    0.000 
#    0.000    0.000    0.000    0.000    0.000    0.000 
#
# Total GULP energy -446598.785840 kJ/mol
# GULP energy per Si atom -12405.521829 kJ/mol
# Density = 2.170502 g / cm^3
# Si number density = 21.754535 Si / 1000 Ang^3
#
#
#
# Elastic Constant Matrix: (Units=GPa)
#
#
# Indices 1 2 3 4 5 6 
#
# 1 108.9697 24.6111 17.1022 0.0000 0.0000 0.0000
# 2 24.6111 120.2715 31.9795 0.0000 0.0000 0.0000
# 3 17.1022 31.9795 71.8429 0.0000 0.0000 0.0000
# 4 0.0000 0.0000 0.0000 27.5616 0.0000 0.0000
# 5 0.0000 0.0000 0.0000 0.0000 4.9351 0.0000
# 6 0.0000 0.0000 0.0000 0.0000 0.0000 20.9408
#
#
#
# Elastic Compliance Matrix: (Units=1/GPa)
#
#
# Indices 1 2 3 4 5 6 
#
# 1 0.009787 -0.001569 -0.001631 0.000000 0.000000 0.000000
# 2 -0.001569 0.009682 -0.003936 0.000000 0.000000 0.000000
# 3 -0.001631 -0.003936 0.016060 0.000000 0.000000 0.000000
# 4 0.000000 0.000000 0.000000 0.036282 0.000000 0.000000
# 5 0.000000 0.000000 0.000000 0.000000 0.202629 0.000000
# 6 0.000000 0.000000 0.000000 0.000000 0.000000 0.047754
#
#
# Mechanical properties :
#
#
# Convention : Reuss Voigt Hill
#
# Bulk Modulus (GPa) = 47.04615 49.82999 48.43807
# Shear Modulus (GPa) = 14.55376 25.84690 20.20033
#
# Velocity S-wave (km/s) = 2.58931 3.45064 3.05053
# Velocity P-wave (km/s) = 5.53283 6.23147 5.89251
#
# Compressibility (1/GPa) = 0.02125572
#
# Stress axis : x y z
#
# Youngs Moduli (GPa) = 102.17358 103.28186 62.26716
#
# Poissons Ratio (x) = 0.16205 0.10159
# Poissons Ratio (y) = 0.16031 0.24511
# Poissons Ratio (z) = 0.16669 0.40656
#
# Static dielectric constant tensor:
#      x y z
#    x 4.071990 0.000000 0.000000 
#    y 0.000000 3.772830 0.000000 
#    z 0.000000 0.000000 3.943900 
# 
# 
# High freq. dielectric constant tensor:
#      x y z
#    x 1.866940 0.000000 0.000000 
#    y 0.000000 1.841450 0.000000 
#    z 0.000000 0.000000 1.864570 
# 
# From -- ./inp_files/10077.got.cif
#   From: 2010.03.12/outbox.cif.g09.slc.cpg/sg64_6_cif.got.tgz:10077.got - 2010.04.10 20:19:32.
