data_PCOD8264387
_publ_section_title
;
Structure prediction by ZEFSAII (Michael W. Deem and Ramdas Pophale) SiO2 
 PCOD8264387
Probable space group: C M C A
;
_chemical_formula_sum "Si O2"
_cell_formula_units_Z 96
_cell_length_a 18.327823
_cell_length_b 29.353311
_cell_length_c 8.646915
_cell_angle_alpha 90.000000
_cell_angle_beta 90.000000
_cell_angle_gamma 90.000000
_cell_volume 4651.887120
_symmetry_space_group_name_H-M "C M C A"
_symmetry_group_IT_number 64
_symmetry_cell_setting 'orthorhombic'
loop_
_space_group_symop_operation_xyz
x,y,z
-x,1/2-y,1/2+z
x,-y,-z
-x,1/2+y,1/2-z
-x,-y,-z
x,1/2+y,1/2-z
-x,y,z
x,1/2-y,1/2+z
1/2+x,1/2+y,z
1/2-x,-y,1/2+z
1/2+x,1/2-y,-z
1/2-x,y,1/2-z
1/2-x,1/2-y,-z
1/2+x,y,1/2-z
1/2-x,1/2+y,z
1/2+x,-y,1/2+z
loop_
_atom_site_type_symbol
_atom_site_label
_atom_site_fract_x
_atom_site_fract_y
_atom_site_fract_z
Si Si1 0.920222 0.530442 0.645889
Si Si2 0.683665 0.028524 0.141183
Si Si3 0.914722 0.205355 0.025742
Si Si4 0.160547 0.119773 0.887963
Si Si5 0.821003 0.118641 0.524231
Si Si6 0.086392 0.300480 0.882873
O O1 0.933347 0.500000 0.500000
O O2 0.875763 0.503518 0.777293
O O3 0.882160 0.574263 0.567688
O O4 0.000000 0.543401 0.716641
O O5 0.750000 0.041967 0.250000
O O6 0.649324 0.075123 0.072314
O O7 0.718150 0.000000 0.000000
O O8 0.883167 0.165396 0.921653
O O9 0.887463 0.253473 0.959757
O O10 0.000000 0.202551 0.005226
O O11 0.891922 0.200532 0.203516
O O12 0.168201 0.113637 0.705554
O O13 0.233584 0.123127 0.992091
O O14 0.865542 0.161361 0.463544
O O15 0.000000 0.309629 0.907805
#
# Coordination Sequence:
#
# PCOD8264387 Si02
#       6
#    16  16  16  16  16  16
#     4  11  25  43  65  94 130 171 218 271 324 386
#     4  12  24  43  67  93 130 175 219 266 327 386
#     4  10  22  42  69  94 130 171 211 265 326 386
#     4  11  23  44  63  94 128 169 221 260 328 383
#     4  11  25  40  65  94 129 171 213 270 319 385
#     4  10  23  42  65  97 127 167 214 262 325 389
#
# _framework density 20.636785
#
# number of rings (size 3 to 8) (size 9 to 14) (size 15 to 20)
#    0.000    1.167    1.667    4.000    4.667    4.333 
#    0.000    0.000    0.000    0.000    0.000    0.000 
#    0.000    0.000    0.000    0.000    0.000    0.000 
#
# Total GULP energy -595098.391830 kJ/mol
# GULP energy per Si atom -12397.883163 kJ/mol
# Density = 2.058982 g / cm^3
# Si number density = 20.636785 Si / 1000 Ang^3
#
#
#
# Elastic Constant Matrix: (Units=GPa)
#
#
# Indices 1 2 3 4 5 6 
#
# 1 60.2338 55.9680 46.4532 0.0000 0.0000 0.0000
# 2 55.9680 163.2057 38.6279 0.0000 0.0000 0.0000
# 3 46.4532 38.6279 70.8932 0.0000 0.0000 0.0000
# 4 0.0000 0.0000 0.0000 77.7876 0.0000 0.0000
# 5 0.0000 0.0000 0.0000 0.0000 17.3198 0.0000
# 6 0.0000 0.0000 0.0000 0.0000 0.0000 43.6467
#
#
#
# Elastic Compliance Matrix: (Units=1/GPa)
#
#
# Indices 1 2 3 4 5 6 
#
# 1 0.043134 -0.009302 -0.023195 0.000000 0.000000 0.000000
# 2 -0.009302 0.009040 0.001169 0.000000 0.000000 0.000000
# 3 -0.023195 0.001169 0.028667 0.000000 0.000000 0.000000
# 4 0.000000 0.000000 0.000000 0.012856 0.000000 0.000000
# 5 0.000000 0.000000 0.000000 0.000000 0.057737 0.000000
# 6 0.000000 0.000000 0.000000 0.000000 0.000000 0.022911
#
#
# Mechanical properties :
#
#
# Convention : Reuss Voigt Hill
#
# Bulk Modulus (GPa) = 54.98817 64.04788 59.51802
# Shear Modulus (GPa) = 20.57079 37.96971 29.27025
#
# Velocity S-wave (km/s) = 3.16064 4.29406 3.77019
# Velocity P-wave (km/s) = 6.32638 7.46247 6.91779
#
# Compressibility (1/GPa) = 0.01818573
#
# Stress axis : x y z
#
# Youngs Moduli (GPa) = 23.18381 110.61485 34.88275
#
# Poissons Ratio (x) = 1.02892 0.80911
# Poissons Ratio (y) = 0.21565 -0.04079
# Poissons Ratio (z) = 0.53775 -0.12933
#
# Static dielectric constant tensor:
#      x y z
#    x 3.916080 0.000000 0.000000 
#    y 0.000000 3.982080 0.000000 
#    z 0.000000 0.000000 4.049360 
# 
# 
# High freq. dielectric constant tensor:
#      x y z
#    x 1.802150 0.000000 0.000000 
#    y 0.000000 1.822690 0.000000 
#    z 0.000000 0.000000 1.820590 
# 
# From -- ./inp_files/8439.got.cif
#   From: 2010.03.12/outbox.cif.g09.slc.cpg/sg64_5_cif.got.tgz:8439.got - 2010.04.10 20:19:32.
