data_PCOD8264274
_publ_section_title
;
Structure prediction by ZEFSAII (Michael W. Deem and Ramdas Pophale) SiO2 
 PCOD8264274
Probable space group: C M C A
;
_chemical_formula_sum "Si O2"
_cell_formula_units_Z 88
_cell_length_a 14.703089
_cell_length_b 25.147310
_cell_length_c 11.643545
_cell_angle_alpha 90.000000
_cell_angle_beta 90.000000
_cell_angle_gamma 90.000000
_cell_volume 4305.120855
_symmetry_space_group_name_H-M "C M C A"
_symmetry_group_IT_number 64
_symmetry_cell_setting 'orthorhombic'
loop_
_space_group_symop_operation_xyz
x,y,z
-x,1/2-y,1/2+z
x,-y,-z
-x,1/2+y,1/2-z
-x,-y,-z
x,1/2+y,1/2-z
-x,y,z
x,1/2-y,1/2+z
1/2+x,1/2+y,z
1/2-x,-y,1/2+z
1/2+x,1/2-y,-z
1/2-x,y,1/2-z
1/2-x,1/2-y,-z
1/2+x,y,1/2-z
1/2-x,1/2+y,z
1/2+x,-y,1/2+z
loop_
_atom_site_type_symbol
_atom_site_label
_atom_site_fract_x
_atom_site_fract_y
_atom_site_fract_z
Si Si1 0.000000 0.056749 0.061206
Si Si2 0.847107 0.816634 0.779450
Si Si3 0.351254 0.363567 0.014542
Si Si4 0.313565 0.604437 0.643675
Si Si5 0.603168 0.698793 0.759276
Si Si6 0.500000 0.106947 0.202689
Si Si7 0.500000 0.940753 0.045577
O O1 0.000000 0.058246 0.202812
O O2 0.088990 0.085959 0.017113
O O3 0.000000 0.000000 0.000000
O O4 0.750000 0.840160 0.750000
O O5 0.855846 0.757295 0.730738
O O6 0.913868 0.856220 0.717495
O O7 0.857626 0.818677 0.916721
O O8 0.251192 0.389556 0.032737
O O9 0.391168 0.333606 0.123486
O O10 0.250000 0.581582 0.750000
O O11 0.341088 0.665448 0.666310
O O12 0.406603 0.570464 0.619597
O O13 0.500000 0.703522 0.717555
O O14 0.500000 0.092226 0.070342
O O15 0.500000 0.000000 0.000000
#
# Coordination Sequence:
#
# PCOD8264274 Si02
#       7
#     8  16  16  16  16   8   8
#     4  10  22  41  68  91 120 171 222 270 320 374
#     4  11  22  39  60  90 128 165 206 251 315 389
#     4  10  22  40  61  91 126 162 214 262 308 382
#     4  10  23  42  67  93 125 171 214 263 317 377
#     4  11  21  38  62  91 124 165 211 254 312 383
#     4  10  24  40  60  94 128 166 208 266 326 375
#     4  12  26  45  66  97 134 165 210 274 329 371
#
# _framework density 20.440773
#
# number of rings (size 3 to 8) (size 9 to 14) (size 15 to 20)
#    0.000    1.455    2.727    2.727    0.000    8.000 
#    0.000    2.727    0.000    0.000    0.000    0.000 
#    0.000    0.000    0.000    0.000    0.000    0.000 
#
# Total GULP energy -545246.384553 kJ/mol
# GULP energy per Si atom -12391.963285 kJ/mol
# Density = 2.039425 g / cm^3
# Si number density = 20.440773 Si / 1000 Ang^3
#
#
#
# Elastic Constant Matrix: (Units=GPa)
#
#
# Indices 1 2 3 4 5 6 
#
# 1 163.6935 35.8058 42.6503 0.0000 0.0000 0.0000
# 2 35.8058 95.5251 34.4375 0.0000 0.0000 0.0000
# 3 42.6503 34.4375 89.1882 0.0000 0.0000 0.0000
# 4 0.0000 0.0000 0.0000 15.0546 0.0000 0.0000
# 5 0.0000 0.0000 0.0000 0.0000 31.3375 0.0000
# 6 0.0000 0.0000 0.0000 0.0000 0.0000 36.6618
#
#
#
# Elastic Compliance Matrix: (Units=1/GPa)
#
#
# Indices 1 2 3 4 5 6 
#
# 1 0.007207 -0.001695 -0.002792 0.000000 0.000000 0.000000
# 2 -0.001695 0.012560 -0.004039 0.000000 0.000000 0.000000
# 3 -0.002792 -0.004039 0.014107 0.000000 0.000000 0.000000
# 4 0.000000 0.000000 0.000000 0.066425 0.000000 0.000000
# 5 0.000000 0.000000 0.000000 0.000000 0.031911 0.000000
# 6 0.000000 0.000000 0.000000 0.000000 0.000000 0.027276
#
#
# Mechanical properties :
#
#
# Convention : Reuss Voigt Hill
#
# Bulk Modulus (GPa) = 59.44644 63.79935 61.62289
# Shear Modulus (GPa) = 27.45061 32.31167 29.88114
#
# Velocity S-wave (km/s) = 3.66858 3.98017 3.82755
# Velocity P-wave (km/s) = 6.86222 7.23892 7.05308
#
# Compressibility (1/GPa) = 0.01682186
#
# Stress axis : x y z
#
# Youngs Moduli (GPa) = 138.75022 79.61849 70.88665
#
# Poissons Ratio (x) = 0.13495 0.19792
# Poissons Ratio (y) = 0.23517 0.28632
# Poissons Ratio (z) = 0.38740 0.32159
#
# Static dielectric constant tensor:
#      x y z
#    x 4.917730 0.000000 0.000000 
#    y 0.000000 3.479370 0.000000 
#    z 0.000000 0.000000 3.531440 
# 
# 
# High freq. dielectric constant tensor:
#      x y z
#    x 1.827750 0.000000 0.000000 
#    y 0.000000 1.778200 0.000000 
#    z 0.000000 0.000000 1.800430 
# 
# From -- ./inp_files/14631.got.cif
#   From: 2010.03.12/outbox.cif.g09.slc.cpg/sg64_8_cif.got.tgz:14631.got - 2010.04.10 20:19:32.
