data_PCOD8264936
_publ_section_title
;
Structure prediction by ZEFSAII (Michael W. Deem and Ramdas Pophale) SiO2 
 PCOD8264936
Probable space group: C M C A
;
_chemical_formula_sum "Si O2"
_cell_formula_units_Z 112
_cell_length_a 29.936865
_cell_length_b 11.070675
_cell_length_c 14.162285
_cell_angle_alpha 90.000000
_cell_angle_beta 90.000000
_cell_angle_gamma 90.000000
_cell_volume 4693.682947
_symmetry_space_group_name_H-M "C M C A"
_symmetry_group_IT_number 64
_symmetry_cell_setting 'orthorhombic'
loop_
_space_group_symop_operation_xyz
x,y,z
-x,1/2-y,1/2+z
x,-y,-z
-x,1/2+y,1/2-z
-x,-y,-z
x,1/2+y,1/2-z
-x,y,z
x,1/2-y,1/2+z
1/2+x,1/2+y,z
1/2-x,-y,1/2+z
1/2+x,1/2-y,-z
1/2-x,y,1/2-z
1/2-x,1/2-y,-z
1/2+x,y,1/2-z
1/2-x,1/2+y,z
1/2+x,-y,1/2+z
loop_
_atom_site_type_symbol
_atom_site_label
_atom_site_fract_x
_atom_site_fract_y
_atom_site_fract_z
Si Si1 0.949188 0.640373 0.203390
Si Si2 0.078687 0.878507 0.309832
Si Si3 0.161863 0.022564 0.602997
Si Si4 0.639501 0.140285 0.505306
Si Si5 0.549725 0.216394 0.997171
Si Si6 0.288460 0.761208 0.124309
Si Si7 0.809056 0.270881 0.839751
O O1 0.934128 0.507010 0.241341
O O2 0.923867 0.758373 0.244905
O O3 0.940955 0.637284 0.090818
O O4 0.000000 0.660053 0.233143
O O5 0.130134 0.887222 0.339352
O O6 0.048211 0.866281 0.403484
O O7 0.207277 0.099685 0.588300
O O8 0.140494 0.000000 0.500000
O O9 0.168214 0.901582 0.661512
O O10 0.589785 0.188697 0.483868
O O11 0.675575 0.178144 0.427363
O O12 0.657063 0.179398 0.608761
O O13 0.634250 0.000000 0.500000
O O14 0.500000 0.277227 0.006931
O O15 0.237895 0.719555 0.102678
O O16 0.298579 0.768274 0.235133
#
# Coordination Sequence:
#
# PCOD8264936 Si02
#       7
#    16  16  16  16  16  16  16
#     4  11  25  44  73 107 140 191 248 305 369 441
#     4  12  25  46  75 105 149 191 246 307 376 437
#     4  12  25  45  75 104 145 193 245 294 359 451
#     4  12  27  45  71 104 146 188 239 305 377 435
#     4  11  25  47  71 104 144 194 249 300 364 447
#     4  11  27  46  71 108 139 194 238 295 374 433
#     4  11  27  46  73 107 147 185 244 304 363 444
#
# _framework density 23.861858000000002
#
# number of rings (size 3 to 8) (size 9 to 14) (size 15 to 20)
#    0.000    0.571    2.857    3.857    8.000    3.714 
#    0.000    1.429    0.000    0.000    0.000    0.000 
#    0.000    0.000    0.000    0.000    0.000    0.000 
#
# Total GULP energy -694189.358978 kJ/mol
# GULP energy per Si atom -12396.238553 kJ/mol
# Density = 2.380755 g / cm^3
# Si number density = 23.861858 Si / 1000 Ang^3
#
#
#
# Elastic Constant Matrix: (Units=GPa)
#
#
# Indices 1 2 3 4 5 6 
#
# 1 118.7402 40.2865 17.3993 0.0000 0.0000 0.0000
# 2 40.2865 178.1921 28.0077 0.0000 0.0000 0.0000
# 3 17.3993 28.0077 68.6534 0.0000 0.0000 0.0000
# 4 0.0000 0.0000 0.0000 23.2345 0.0000 0.0000
# 5 0.0000 0.0000 0.0000 0.0000 16.1268 0.0000
# 6 0.0000 0.0000 0.0000 0.0000 0.0000 49.8915
#
#
#
# Elastic Compliance Matrix: (Units=1/GPa)
#
#
# Indices 1 2 3 4 5 6 
#
# 1 0.009283 -0.001847 -0.001599 0.000000 0.000000 0.000000
# 2 -0.001847 0.006364 -0.002128 0.000000 0.000000 0.000000
# 3 -0.001599 -0.002128 0.015839 0.000000 0.000000 0.000000
# 4 0.000000 0.000000 0.000000 0.043039 0.000000 0.000000
# 5 0.000000 0.000000 0.000000 0.000000 0.062009 0.000000
# 6 0.000000 0.000000 0.000000 0.000000 0.000000 0.020044
#
#
# Mechanical properties :
#
#
# Convention : Reuss Voigt Hill
#
# Bulk Modulus (GPa) = 49.17053 59.66364 54.41708
# Shear Modulus (GPa) = 28.65235 36.51003 32.58119
#
# Velocity S-wave (km/s) = 3.46896 3.91584 3.69915
# Velocity P-wave (km/s) = 6.05772 6.74560 6.41089
#
# Compressibility (1/GPa) = 0.02033739
#
# Stress axis : x y z
#
# Youngs Moduli (GPa) = 107.72572 157.13214 63.13401
#
# Poissons Ratio (x) = 0.29028 0.10095
# Poissons Ratio (y) = 0.19901 0.13435
# Poissons Ratio (z) = 0.17225 0.33439
#
# Static dielectric constant tensor:
#      x y z
#    x 4.634700 0.000000 0.000000 
#    y 0.000000 4.296000 0.000000 
#    z 0.000000 0.000000 4.334820 
# 
# 
# High freq. dielectric constant tensor:
#      x y z
#    x 1.964910 0.000000 0.000000 
#    y 0.000000 1.939900 0.000000 
#    z 0.000000 0.000000 1.946280 
# 
# From -- ./inp_files/28425.got.cif
#   From: 2010.03.12/outbox.cif.g09.slc.cpg/sg64_15_cif.got.tgz:28425.got - 2010.04.10 20:19:32.
