data_PCOD8264340
_publ_section_title
;
Structure prediction by ZEFSAII (Michael W. Deem and Ramdas Pophale) SiO2 
 PCOD8264340
Probable space group: C M C A
;
_chemical_formula_sum "Si O2"
_cell_formula_units_Z 112
_cell_length_a 21.747963
_cell_length_b 16.421728
_cell_length_c 14.968830
_cell_angle_alpha 90.000000
_cell_angle_beta 90.000000
_cell_angle_gamma 90.000000
_cell_volume 5345.954967
_symmetry_space_group_name_H-M "C M C A"
_symmetry_group_IT_number 64
_symmetry_cell_setting 'orthorhombic'
loop_
_space_group_symop_operation_xyz
x,y,z
-x,1/2-y,1/2+z
x,-y,-z
-x,1/2+y,1/2-z
-x,-y,-z
x,1/2+y,1/2-z
-x,y,z
x,1/2-y,1/2+z
1/2+x,1/2+y,z
1/2-x,-y,1/2+z
1/2+x,1/2-y,-z
1/2-x,y,1/2-z
1/2-x,1/2-y,-z
1/2+x,y,1/2-z
1/2-x,1/2+y,z
1/2+x,-y,1/2+z
loop_
_atom_site_type_symbol
_atom_site_label
_atom_site_fract_x
_atom_site_fract_y
_atom_site_fract_z
Si Si1 0.570242 0.281330 0.998377
Si Si2 0.168469 0.494770 0.896053
Si Si3 0.200829 0.448628 0.630836
Si Si4 0.872401 0.693681 0.305547
Si Si5 0.178796 0.118681 0.939597
Si Si6 0.288173 0.155439 0.831459
Si Si7 0.069976 0.360254 0.870684
O O1 0.500000 0.310359 0.011045
O O2 0.586911 0.288792 0.893775
O O3 0.613403 0.336369 0.061348
O O4 0.578954 0.189966 0.036930
O O5 0.226902 0.455011 0.843995
O O6 0.161537 0.587960 0.861722
O O7 0.107647 0.443815 0.877585
O O8 0.185427 0.500000 0.000000
O O9 0.160496 0.394979 0.698709
O O10 0.171466 0.538418 0.621817
O O11 0.196695 0.400518 0.539295
O O12 0.820585 0.762332 0.300868
O O13 0.912791 0.695216 0.215455
O O14 0.236199 0.174133 0.906599
O O15 0.250000 0.117564 0.750000
O O16 0.000000 0.387761 0.859493
#
# Coordination Sequence:
#
# PCOD8264340 Si02
#       7
#    16  16  16  16  16  16  16
#     4  10  22  41  66  91 130 177 215 264 322 388
#     4  11  22  42  65  92 130 167 209 272 328 385
#     4   9  19  35  62  92 125 163 200 268 328 381
#     4  11  24  40  67  94 130 171 218 271 326 387
#     4   9  18  37  56  91 127 155 209 258 319 387
#     4  11  23  36  59  96 128 159 208 265 331 392
#     4  11  26  44  64  94 130 173 229 269 314 394
#
# _framework density 20.950420000000001
#
# number of rings (size 3 to 8) (size 9 to 14) (size 15 to 20)
#    0.000    1.714    2.857    2.143    8.000    1.429 
#    0.000    7.857    0.000    0.000    0.000    0.000 
#    0.000    0.000    0.000    0.000    0.000    0.000 
#
# Total GULP energy -694115.284363 kJ/mol
# GULP energy per Si atom -12394.915792 kJ/mol
# Density = 2.090274 g / cm^3
# Si number density = 20.950420 Si / 1000 Ang^3
#
#
#
# Elastic Constant Matrix: (Units=GPa)
#
#
# Indices 1 2 3 4 5 6 
#
# 1 139.9928 45.8531 24.8669 0.0000 0.0000 0.0000
# 2 45.8531 62.7279 6.1667 0.0000 0.0000 0.0000
# 3 24.8669 6.1667 53.8045 0.0000 0.0000 0.0000
# 4 0.0000 0.0000 0.0000 22.1523 0.0000 0.0000
# 5 0.0000 0.0000 0.0000 0.0000 28.2304 0.0000
# 6 0.0000 0.0000 0.0000 0.0000 0.0000 36.6440
#
#
#
# Elastic Compliance Matrix: (Units=1/GPa)
#
#
# Indices 1 2 3 4 5 6 
#
# 1 0.010133 -0.007026 -0.003878 0.000000 0.000000 0.000000
# 2 -0.007026 0.020995 0.000841 0.000000 0.000000 0.000000
# 3 -0.003878 0.000841 0.020282 0.000000 0.000000 0.000000
# 4 0.000000 0.000000 0.000000 0.045142 0.000000 0.000000
# 5 0.000000 0.000000 0.000000 0.000000 0.035423 0.000000
# 6 0.000000 0.000000 0.000000 0.000000 0.000000 0.027290
#
#
# Mechanical properties :
#
#
# Convention : Reuss Voigt Hill
#
# Bulk Modulus (GPa) = 31.96537 45.58874 38.77706
# Shear Modulus (GPa) = 26.34085 29.38124 27.86105
#
# Velocity S-wave (km/s) = 3.54968 3.74895 3.65068
# Velocity P-wave (km/s) = 5.66490 6.36766 6.02653
#
# Compressibility (1/GPa) = 0.03128385
#
# Stress axis : x y z
#
# Youngs Moduli (GPa) = 98.68344 47.63003 49.30538
#
# Poissons Ratio (x) = 0.33465 0.19121
# Poissons Ratio (y) = 0.69336 -0.04146
# Poissons Ratio (z) = 0.38270 -0.04006
#
# Static dielectric constant tensor:
#      x y z
#    x 3.863500 0.000000 0.000000 
#    y 0.000000 3.859940 0.000000 
#    z 0.000000 0.000000 4.025060 
# 
# 
# High freq. dielectric constant tensor:
#      x y z
#    x 1.808150 0.000000 0.000000 
#    y 0.000000 1.813820 0.000000 
#    z 0.000000 0.000000 1.835050 
# 
# From -- ./inp_files/27407.got.cif
#   From: 2010.03.12/outbox.cif.g09.slc.cpg/sg64_14_cif.got.tgz:27407.got - 2010.04.10 20:19:32.
