data_PCOD8264164
_publ_section_title
;
Structure prediction by ZEFSAII (Michael W. Deem and Ramdas Pophale) SiO2 
 PCOD8264164
Probable space group: C M C A
;
_chemical_formula_sum "Si O2"
_cell_formula_units_Z 112
_cell_length_a 21.658278
_cell_length_b 13.226339
_cell_length_c 20.285414
_cell_angle_alpha 90.000000
_cell_angle_beta 90.000000
_cell_angle_gamma 90.000000
_cell_volume 5810.954156
_symmetry_space_group_name_H-M "C M C A"
_symmetry_group_IT_number 64
_symmetry_cell_setting 'orthorhombic'
loop_
_space_group_symop_operation_xyz
x,y,z
-x,1/2-y,1/2+z
x,-y,-z
-x,1/2+y,1/2-z
-x,-y,-z
x,1/2+y,1/2-z
-x,y,z
x,1/2-y,1/2+z
1/2+x,1/2+y,z
1/2-x,-y,1/2+z
1/2+x,1/2-y,-z
1/2-x,y,1/2-z
1/2-x,1/2-y,-z
1/2+x,y,1/2-z
1/2-x,1/2+y,z
1/2+x,-y,1/2+z
loop_
_atom_site_type_symbol
_atom_site_label
_atom_site_fract_x
_atom_site_fract_y
_atom_site_fract_z
Si Si1 0.644787 0.721192 0.802799
Si Si2 0.254099 0.842090 0.657907
Si Si3 0.070693 0.894867 0.308891
Si Si4 0.674934 0.602465 0.465750
Si Si5 0.165474 0.826584 0.397090
Si Si6 0.734833 0.064873 0.676702
Si Si7 0.070662 0.393492 0.866226
O O1 0.702425 0.800236 0.789097
O O2 0.616011 0.658283 0.743003
O O3 0.677096 0.634144 0.848859
O O4 0.590886 0.784521 0.837491
O O5 0.221620 0.852737 0.587007
O O6 0.311564 0.768909 0.645341
O O7 0.282727 0.947514 0.681449
O O8 0.094084 0.849916 0.378780
O O9 0.000000 0.863993 0.295924
O O10 0.078544 0.017195 0.311240
O O11 0.698970 0.500000 0.500000
O O12 0.669002 0.686194 0.524181
O O13 0.608986 0.580798 0.431761
O O14 0.206987 0.922636 0.372316
O O15 0.750000 0.105754 0.750000
O O16 0.000000 0.385089 0.887859
#
# Coordination Sequence:
#
# PCOD8264164 Si02
#       7
#    16  16  16  16  16  16  16
#     4  10  22  37  55  82 118 149 183 233 287 344
#     4  10  23  35  59  84 117 154 185 232 292 356
#     4  11  22  36  55  81 113 148 193 239 278 333
#     4  11  19  37  58  83 118 145 193 242 286 341
#     4  11  21  37  54  85 115 151 186 236 287 340
#     4  11  21  34  56  87 114 146 186 230 287 349
#     4  10  22  39  59  83 111 155 197 238 291 336
#
# _framework density 19.273944
#
# number of rings (size 3 to 8) (size 9 to 14) (size 15 to 20)
#    0.000    1.429    4.286    1.714    2.000    0.857 
#    0.000    0.000    0.000    0.857    0.000    1.000 
#    0.000    0.000    0.000    0.000    0.000    0.000 
#
# Total GULP energy -693884.228100 kJ/mol
# GULP energy per Si atom -12390.789788 kJ/mol
# Density = 1.923008 g / cm^3
# Si number density = 19.273944 Si / 1000 Ang^3
#
#
#
# Elastic Constant Matrix: (Units=GPa)
#
#
# Indices 1 2 3 4 5 6 
#
# 1 99.1703 40.1478 19.1050 0.0000 0.0000 0.0000
# 2 40.1478 119.7396 15.0950 0.0000 0.0000 0.0000
# 3 19.1050 15.0950 63.3242 0.0000 0.0000 0.0000
# 4 0.0000 0.0000 0.0000 27.9080 0.0000 0.0000
# 5 0.0000 0.0000 0.0000 0.0000 17.8014 0.0000
# 6 0.0000 0.0000 0.0000 0.0000 0.0000 29.5660
#
#
#
# Elastic Compliance Matrix: (Units=1/GPa)
#
#
# Indices 1 2 3 4 5 6 
#
# 1 0.012122 -0.003715 -0.002772 0.000000 0.000000 0.000000
# 2 -0.003715 0.009749 -0.001203 0.000000 0.000000 0.000000
# 3 -0.002772 -0.001203 0.016915 0.000000 0.000000 0.000000
# 4 0.000000 0.000000 0.000000 0.035832 0.000000 0.000000
# 5 0.000000 0.000000 0.000000 0.000000 0.056175 0.000000
# 6 0.000000 0.000000 0.000000 0.000000 0.000000 0.033823
#
#
# Mechanical properties :
#
#
# Convention : Reuss Voigt Hill
#
# Bulk Modulus (GPa) = 42.72418 47.88107 45.30262
# Shear Modulus (GPa) = 26.62466 28.91418 27.76942
#
# Velocity S-wave (km/s) = 3.72073 3.87740 3.79987
# Velocity P-wave (km/s) = 6.37756 6.70388 6.54276
#
# Compressibility (1/GPa) = 0.02340595
#
# Stress axis : x y z
#
# Youngs Moduli (GPa) = 82.49799 102.57794 59.12010
#
# Poissons Ratio (x) = 0.38106 0.16385
# Poissons Ratio (y) = 0.30647 0.07113
# Poissons Ratio (z) = 0.22865 0.12341
#
# Static dielectric constant tensor:
#      x y z
#    x 3.455780 0.000000 0.000000 
#    y 0.000000 3.613440 0.000000 
#    z 0.000000 0.000000 3.517760 
# 
# 
# High freq. dielectric constant tensor:
#      x y z
#    x 1.735670 0.000000 0.000000 
#    y 0.000000 1.758530 0.000000 
#    z 0.000000 0.000000 1.738320 
# 
# From -- ./inp_files/41510.got.cif
#   From: 2010.03.12/outbox.cif.g09.slc.cpg/sg64_21_cif.got.tgz:41510.got - 2010.04.10 20:19:32.
