data_PCOD8264859
_publ_section_title
;
Structure prediction by ZEFSAII (Michael W. Deem and Ramdas Pophale) SiO2 
 PCOD8264859
Probable space group: C M C A
;
_chemical_formula_sum "Si O2"
_cell_formula_units_Z 80
_cell_length_a 23.303383
_cell_length_b 8.719003
_cell_length_c 18.231478
_cell_angle_alpha 90.000000
_cell_angle_beta 90.000000
_cell_angle_gamma 90.000000
_cell_volume 3704.313018
_symmetry_space_group_name_H-M "C M C A"
_symmetry_group_IT_number 64
_symmetry_cell_setting 'orthorhombic'
loop_
_space_group_symop_operation_xyz
x,y,z
-x,1/2-y,1/2+z
x,-y,-z
-x,1/2+y,1/2-z
-x,-y,-z
x,1/2+y,1/2-z
-x,y,z
x,1/2-y,1/2+z
1/2+x,1/2+y,z
1/2-x,-y,1/2+z
1/2+x,1/2-y,-z
1/2-x,y,1/2-z
1/2-x,1/2-y,-z
1/2+x,y,1/2-z
1/2-x,1/2+y,z
1/2+x,-y,1/2+z
loop_
_atom_site_type_symbol
_atom_site_label
_atom_site_fract_x
_atom_site_fract_y
_atom_site_fract_z
Si Si1 0.673571 0.307892 0.611953
Si Si2 0.856221 0.841182 0.968724
Si Si3 0.285834 0.362270 0.362634
Si Si4 0.124838 0.335127 0.259028
Si Si5 0.566196 0.615088 0.159782
O O1 0.638231 0.273710 0.537646
O O2 0.702963 0.472000 0.602055
O O3 0.718299 0.172479 0.634569
O O4 0.629738 0.301381 0.680323
O O5 0.811815 0.773820 0.911018
O O6 0.916338 0.869445 0.926136
O O7 0.831422 0.000000 0.000000
O O8 0.313603 0.360318 0.281349
O O9 0.077959 0.278237 0.199581
O O10 0.104467 0.487762 0.299914
O O11 0.500000 0.570075 0.163815
#
# Coordination Sequence:
#
# PCOD8264859 Si02
#       5
#    16  16  16  16  16
#     4  12  23  41  63  98 135 174 213 260 330 386
#     4  11  23  42  65  96 131 171 218 263 318 389
#     4  11  25  39  68  94 138 175 213 259 323 396
#     4  11  23  42  68  96 130 168 218 274 321 390
#     4  11  24  45  69  95 126 170 223 275 330 380
#
# _framework density 21.596446
#
# number of rings (size 3 to 8) (size 9 to 14) (size 15 to 20)
#    0.000    0.800    4.000    3.600    2.800    2.000 
#    0.000    0.000    0.000    2.400    0.000    0.000 
#    0.000    0.000    0.000    0.000    0.000    0.000 
#
# Total GULP energy -495924.627986 kJ/mol
# GULP energy per Si atom -12398.115700 kJ/mol
# Density = 2.154729 g / cm^3
# Si number density = 21.596446 Si / 1000 Ang^3
#
#
#
# Elastic Constant Matrix: (Units=GPa)
#
#
# Indices 1 2 3 4 5 6 
#
# 1 84.1560 16.1995 46.4796 0.0000 0.0000 0.0000
# 2 16.1995 106.0655 35.6862 0.0000 0.0000 0.0000
# 3 46.4796 35.6862 142.1599 0.0000 0.0000 0.0000
# 4 0.0000 0.0000 0.0000 38.8825 0.0000 0.0000
# 5 0.0000 0.0000 0.0000 0.0000 23.9745 0.0000
# 6 0.0000 0.0000 0.0000 0.0000 0.0000 21.1271
#
#
#
# Elastic Compliance Matrix: (Units=1/GPa)
#
#
# Indices 1 2 3 4 5 6 
#
# 1 0.014546 -0.000679 -0.004585 0.000000 0.000000 0.000000
# 2 -0.000679 0.010330 -0.002371 0.000000 0.000000 0.000000
# 3 -0.004585 -0.002371 0.009129 0.000000 0.000000 0.000000
# 4 0.000000 0.000000 0.000000 0.025718 0.000000 0.000000
# 5 0.000000 0.000000 0.000000 0.000000 0.041711 0.000000
# 6 0.000000 0.000000 0.000000 0.000000 0.000000 0.047333
#
#
# Mechanical properties :
#
#
# Convention : Reuss Voigt Hill
#
# Bulk Modulus (GPa) = 53.38006 58.79024 56.08515
# Shear Modulus (GPa) = 29.36313 32.39789 30.88051
#
# Velocity S-wave (km/s) = 3.69131 3.87738 3.78549
# Velocity P-wave (km/s) = 6.55274 6.87944 6.71808
#
# Compressibility (1/GPa) = 0.01873359
#
# Stress axis : x y z
#
# Youngs Moduli (GPa) = 68.74784 96.80946 109.54394
#
# Poissons Ratio (x) = 0.06572 0.50231
# Poissons Ratio (y) = 0.04667 0.25974
# Poissons Ratio (z) = 0.31524 0.22954
#
# Static dielectric constant tensor:
#      x y z
#    x 3.504880 0.000000 0.000000 
#    y 0.000000 3.825970 0.000000 
#    z 0.000000 0.000000 4.206690 
# 
# 
# High freq. dielectric constant tensor:
#      x y z
#    x 1.807720 0.000000 0.000000 
#    y 0.000000 1.854950 0.000000 
#    z 0.000000 0.000000 1.870870 
# 
# From -- ./inp_files/35328.got.cif
#   From: 2010.03.12/outbox.cif.g09.slc.cpg/sg64_18_cif.got.tgz:35328.got - 2010.04.10 20:19:32.
