data_PCOD8264174
_publ_section_title
;
Structure prediction by ZEFSAII (Michael W. Deem and Ramdas Pophale) SiO2 
 PCOD8264174
Probable space group: C M C A
;
_chemical_formula_sum "Si O2"
_cell_formula_units_Z 88
_cell_length_a 22.761499
_cell_length_b 19.976686
_cell_length_c 9.392921
_cell_angle_alpha 90.000000
_cell_angle_beta 90.000000
_cell_angle_gamma 90.000000
_cell_volume 4270.954777
_symmetry_space_group_name_H-M "C M C A"
_symmetry_group_IT_number 64
_symmetry_cell_setting 'orthorhombic'
loop_
_space_group_symop_operation_xyz
x,y,z
-x,1/2-y,1/2+z
x,-y,-z
-x,1/2+y,1/2-z
-x,-y,-z
x,1/2+y,1/2-z
-x,y,z
x,1/2-y,1/2+z
1/2+x,1/2+y,z
1/2-x,-y,1/2+z
1/2+x,1/2-y,-z
1/2-x,y,1/2-z
1/2-x,1/2-y,-z
1/2+x,y,1/2-z
1/2-x,1/2+y,z
1/2+x,-y,1/2+z
loop_
_atom_site_type_symbol
_atom_site_label
_atom_site_fract_x
_atom_site_fract_y
_atom_site_fract_z
Si Si1 0.500000 0.811087 0.317388
Si Si2 0.000000 0.327233 0.985904
Si Si3 0.822013 0.500000 0.500000
Si Si4 0.881785 0.617031 0.666057
Si Si5 0.894212 0.424801 0.010182
Si Si6 0.272875 0.807318 0.400173
Si Si7 0.269738 0.409871 0.607732
O O1 0.500000 0.737237 0.384539
O O2 0.446263 0.856696 0.368592
O O3 0.500000 0.801399 0.147669
O O4 0.942524 0.372264 0.953773
O O5 0.865667 0.554032 0.568452
O O6 0.776178 0.527856 0.380886
O O7 0.874609 0.595880 0.830916
O O8 0.842278 0.681023 0.619533
O O9 0.920803 0.500000 0.000000
O O10 0.838882 0.425904 0.900709
O O11 0.250000 0.786566 0.250000
O O12 0.250000 0.750000 0.500000
O O13 0.244821 0.875119 0.458487
O O14 0.250000 0.367909 0.750000
#
# Coordination Sequence:
#
# PCOD8264174 Si02
#       7
#     8   8   8  16  16  16  16
#     4  10  24  47  68  90 135 175 223 276 340 387
#     4  10  25  46  68  96 125 179 223 276 332 406
#     4  10  22  37  62  97 136 166 224 264 346 392
#     4  10  23  42  65  97 135 178 218 285 327 402
#     4  11  21  41  70  94 135 171 228 277 338 395
#     4  11  23  39  61  91 131 172 218 270 330 394
#     4  11  22  37  61  96 130 168 210 274 333 391
#
# _framework density 20.604292000000001
#
# number of rings (size 3 to 8) (size 9 to 14) (size 15 to 20)
#    0.000    1.455    2.727    1.909    2.545    0.364 
#    9.818    0.000    0.000    0.000    0.000    0.000 
#    0.000    0.000    0.000    0.000    0.000    0.000 
#
# Total GULP energy -545135.076481 kJ/mol
# GULP energy per Si atom -12389.433556 kJ/mol
# Density = 2.055740 g / cm^3
# Si number density = 20.604292 Si / 1000 Ang^3
#
#
#
# Elastic Constant Matrix: (Units=GPa)
#
#
# Indices 1 2 3 4 5 6 
#
# 1 175.0008 86.9387 59.2387 0.0000 0.0000 0.0000
# 2 86.9387 133.4652 56.2894 0.0000 0.0000 0.0000
# 3 59.2387 56.2894 105.8458 0.0000 0.0000 0.0000
# 4 0.0000 0.0000 0.0000 18.6392 0.0000 0.0000
# 5 0.0000 0.0000 0.0000 0.0000 30.2408 0.0000
# 6 0.0000 0.0000 0.0000 0.0000 0.0000 29.2522
#
#
#
# Elastic Compliance Matrix: (Units=1/GPa)
#
#
# Indices 1 2 3 4 5 6 
#
# 1 0.008916 -0.004774 -0.002451 0.000000 0.000000 0.000000
# 2 -0.004774 0.012215 -0.003824 0.000000 0.000000 0.000000
# 3 -0.002451 -0.003824 0.012853 0.000000 0.000000 0.000000
# 4 0.000000 0.000000 0.000000 0.053650 0.000000 0.000000
# 5 0.000000 0.000000 0.000000 0.000000 0.033068 0.000000
# 6 0.000000 0.000000 0.000000 0.000000 0.000000 0.034185
#
#
# Mechanical properties :
#
#
# Convention : Reuss Voigt Hill
#
# Bulk Modulus (GPa) = 84.13518 91.02726 87.58122
# Shear Modulus (GPa) = 27.63226 29.74944 28.69085
#
# Velocity S-wave (km/s) = 3.66607 3.80392 3.73563
# Velocity P-wave (km/s) = 7.67089 7.97294 7.82337
#
# Compressibility (1/GPa) = 0.01188563
#
# Stress axis : x y z
#
# Youngs Moduli (GPa) = 112.16393 81.86550 77.80128
#
# Poissons Ratio (x) = 0.39081 0.19069
# Poissons Ratio (y) = 0.53545 0.29754
# Poissons Ratio (z) = 0.27491 0.31308
#
# Static dielectric constant tensor:
#      x y z
#    x 3.700190 0.000000 0.000000 
#    y 0.000000 7.739310 0.000000 
#    z 0.000000 0.000000 3.749350 
# 
# 
# High freq. dielectric constant tensor:
#      x y z
#    x 1.812490 0.000000 0.000000 
#    y 0.000000 1.807750 0.000000 
#    z 0.000000 0.000000 1.807510 
# 
# From -- ./inp_files/9391.got.cif
#   From: 2010.03.12/outbox.cif.g09.slc.cpg/sg64_5_cif.got.tgz:9391.got - 2010.04.10 20:19:32.
