data_PCOD8264468
_publ_section_title
;
Structure prediction by ZEFSAII (Michael W. Deem and Ramdas Pophale) SiO2 
 PCOD8264468
Probable space group: C M C A
;
_chemical_formula_sum "Si O2"
_cell_formula_units_Z 56
_cell_length_a 23.915910
_cell_length_b 5.289950
_cell_length_c 16.612498
_cell_angle_alpha 90.000000
_cell_angle_beta 90.000000
_cell_angle_gamma 90.000000
_cell_volume 2101.713042
_symmetry_space_group_name_H-M "C M C A"
_symmetry_group_IT_number 64
_symmetry_cell_setting 'orthorhombic'
loop_
_space_group_symop_operation_xyz
x,y,z
-x,1/2-y,1/2+z
x,-y,-z
-x,1/2+y,1/2-z
-x,-y,-z
x,1/2+y,1/2-z
-x,y,z
x,1/2-y,1/2+z
1/2+x,1/2+y,z
1/2-x,-y,1/2+z
1/2+x,1/2-y,-z
1/2-x,y,1/2-z
1/2-x,1/2-y,-z
1/2+x,y,1/2-z
1/2-x,1/2+y,z
1/2+x,-y,1/2+z
loop_
_atom_site_type_symbol
_atom_site_label
_atom_site_fract_x
_atom_site_fract_y
_atom_site_fract_z
Si Si1 0.934703 0.825995 0.702465
Si Si2 0.500000 0.250360 0.947520
Si Si3 0.773561 0.834741 0.841426
Si Si4 0.388122 0.964190 0.592256
O O1 0.916376 0.587171 0.758391
O O2 0.902696 0.752464 0.619947
O O3 0.000000 0.833037 0.681129
O O4 0.557195 0.275837 0.894675
O O5 0.500000 0.500000 0.000000
O O6 0.500000 0.000000 0.000000
O O7 0.750000 0.827479 0.750000
O O8 0.751866 0.581676 0.885383
O O9 0.840342 0.843950 0.851242
O O10 0.369593 0.000000 0.500000
#
# Coordination Sequence:
#
# PCOD8264468 Si02
#       4
#    16   8  16  16
#     4  10  23  41  66 102 143 189 239 291 361 451
#     4  10  24  44  68 110 154 184 221 292 381 446
#     4  10  25  46  71 100 140 194 250 307 366 431
#     4  11  25  46  75 109 148 193 245 311 379 448
#
# _framework density 26.644929000000001
#
# number of rings (size 3 to 8) (size 9 to 14) (size 15 to 20)
#    0.000    1.714    1.429    0.000    8.000   10.286 
#    0.000    0.000    0.000    0.000    0.000    0.000 
#    0.000    0.000    0.000    0.000    0.000    0.000 
#
# Total GULP energy -346954.353860 kJ/mol
# GULP energy per Si atom -12391.226924 kJ/mol
# Density = 2.658428 g / cm^3
# Si number density = 26.644929 Si / 1000 Ang^3
#
#
#
# Elastic Constant Matrix: (Units=GPa)
#
#
# Indices 1 2 3 4 5 6 
#
# 1 191.0763 40.4807 40.2569 0.0000 0.0000 0.0000
# 2 40.4807 134.0139 8.3740 0.0000 0.0000 0.0000
# 3 40.2569 8.3740 103.3881 0.0000 0.0000 0.0000
# 4 0.0000 0.0000 0.0000 15.7939 0.0000 0.0000
# 5 0.0000 0.0000 0.0000 0.0000 53.6180 0.0000
# 6 0.0000 0.0000 0.0000 0.0000 0.0000 35.4987
#
#
#
# Elastic Compliance Matrix: (Units=1/GPa)
#
#
# Indices 1 2 3 4 5 6 
#
# 1 0.006060 -0.001692 -0.002223 0.000000 0.000000 0.000000
# 2 -0.001692 0.007972 0.000013 0.000000 0.000000 0.000000
# 3 -0.002223 0.000013 0.010537 0.000000 0.000000 0.000000
# 4 0.000000 0.000000 0.000000 0.063316 0.000000 0.000000
# 5 0.000000 0.000000 0.000000 0.000000 0.018650 0.000000
# 6 0.000000 0.000000 0.000000 0.000000 0.000000 0.028170
#
#
# Mechanical properties :
#
#
# Convention : Reuss Voigt Hill
#
# Bulk Modulus (GPa) = 59.64357 67.41126 63.52741
# Shear Modulus (GPa) = 33.76179 43.60658 38.68418
#
# Velocity S-wave (km/s) = 3.56350 4.04986 3.81444
# Velocity P-wave (km/s) = 6.27412 6.87192 6.57981
#
# Compressibility (1/GPa) = 0.01676627
#
# Stress axis : x y z
#
# Youngs Moduli (GPa) = 165.01141 125.43755 94.90637
#
# Poissons Ratio (x) = 0.21220 0.21095
# Poissons Ratio (y) = 0.27915 -0.00123
# Poissons Ratio (z) = 0.36677 -0.00163
#
# Static dielectric constant tensor:
#      x y z
#    x 5.407250 0.000000 0.000000 
#    y 0.000000 6.403760 0.000000 
#    z 0.000000 0.000000 4.883880 
# 
# 
# High freq. dielectric constant tensor:
#      x y z
#    x 2.058710 0.000000 0.000000 
#    y 0.000000 2.095420 0.000000 
#    z 0.000000 0.000000 2.059120 
# 
# From -- ./inp_files/35245.got.cif
#   From: 2010.03.12/outbox.cif.g09.slc.cpg/sg64_18_cif.got.tgz:35245.got - 2010.04.10 20:19:32.
