data_PCOD8264205
_publ_section_title
;
Structure prediction by ZEFSAII (Michael W. Deem and Ramdas Pophale) SiO2 
 PCOD8264205
Probable space group: C M C A
;
_chemical_formula_sum "Si O2"
_cell_formula_units_Z 48
_cell_length_a 10.552594
_cell_length_b 23.078128
_cell_length_c 8.773309
_cell_angle_alpha 90.000000
_cell_angle_beta 90.000000
_cell_angle_gamma 90.000000
_cell_volume 2136.600043
_symmetry_space_group_name_H-M "C M C A"
_symmetry_group_IT_number 64
_symmetry_cell_setting 'orthorhombic'
loop_
_space_group_symop_operation_xyz
x,y,z
-x,1/2-y,1/2+z
x,-y,-z
-x,1/2+y,1/2-z
-x,-y,-z
x,1/2+y,1/2-z
-x,y,z
x,1/2-y,1/2+z
1/2+x,1/2+y,z
1/2-x,-y,1/2+z
1/2+x,1/2-y,-z
1/2-x,y,1/2-z
1/2-x,1/2-y,-z
1/2+x,y,1/2-z
1/2-x,1/2+y,z
1/2+x,-y,1/2+z
loop_
_atom_site_type_symbol
_atom_site_label
_atom_site_fract_x
_atom_site_fract_y
_atom_site_fract_z
Si Si1 0.782543 0.156382 0.414954
Si Si2 0.134923 0.719423 0.641329
Si Si3 0.144955 0.050925 0.616280
O O1 0.750000 0.128805 0.250000
O O2 0.871774 0.212632 0.397405
O O3 0.652272 0.180833 0.489187
O O4 0.850675 0.110071 0.521093
O O5 0.250000 0.702278 0.750000
O O6 0.000000 0.701850 0.715113
O O7 0.250000 0.051266 0.750000
O O8 0.000000 0.043715 0.679883
O O9 0.180039 0.000000 0.500000
#
# Coordination Sequence:
#
# PCOD8264205 Si02
#       3
#    16  16  16
#     4  10  22  38  62  92 127 165 207 255 307 364
#     4  10  22  39  61  91 127 168 211 255 305 362
#     4  11  25  45  68  93 123 160 204 255 309 368
#
# _framework density 22.465599999999998
#
# number of rings (size 3 to 8) (size 9 to 14) (size 15 to 20)
#    0.000    1.667    0.000    3.000    0.000   20.667 
#    0.000    0.000    0.000    0.000    0.000    0.000 
#    0.000    0.000    0.000    0.000    0.000    0.000 
#
# Total GULP energy -297396.723500 kJ/mol
# GULP energy per Si atom -12391.530146 kJ/mol
# Density = 2.241447 g / cm^3
# Si number density = 22.465600 Si / 1000 Ang^3
#
#
#
# Elastic Constant Matrix: (Units=GPa)
#
#
# Indices 1 2 3 4 5 6 
#
# 1 201.9603 20.7071 89.8809 0.0000 0.0000 0.0000
# 2 20.7071 75.2479 46.8744 0.0000 0.0000 0.0000
# 3 89.8809 46.8744 145.3343 0.0000 0.0000 0.0000
# 4 0.0000 0.0000 0.0000 42.6368 0.0000 0.0000
# 5 0.0000 0.0000 0.0000 0.0000 30.0015 0.0000
# 6 0.0000 0.0000 0.0000 0.0000 0.0000 -262.6844
#
#
#
# Elastic Compliance Matrix: (Units=1/GPa)
#
#
# Indices 1 2 3 4 5 6 
#
# 1 0.006885 0.000948 -0.004564 0.000000 0.000000 0.000000
# 2 0.000948 0.016761 -0.005993 0.000000 0.000000 0.000000
# 3 -0.004564 -0.005993 0.011636 0.000000 0.000000 0.000000
# 4 0.000000 0.000000 0.000000 0.023454 0.000000 0.000000
# 5 0.000000 0.000000 0.000000 0.000000 0.033332 0.000000
# 6 0.000000 0.000000 0.000000 0.000000 0.000000 -0.003807
#
#
# Mechanical properties :
#
#
# Convention : Reuss Voigt Hill
#
# Bulk Modulus (GPa) = 62.24187 81.94081 72.09134
# Shear Modulus (GPa) = 44.31298 -20.33722 11.98788
#
# Velocity S-wave (km/s) = 4.44608 -3.01202 2.31251
# Velocity P-wave (km/s) = 7.35679 4.94538 6.26814
#
# Compressibility (1/GPa) = 0.01606636
#
# Stress axis : x y z
#
# Youngs Moduli (GPa) = 145.23335 59.66100 85.93944
#
# Poissons Ratio (x) = -0.05658 0.39224
# Poissons Ratio (y) = -0.13774 0.51499
# Poissons Ratio (z) = 0.66287 0.35752
#
# Static dielectric constant tensor:
#      x y z
#    x 3.918180 0.000000 0.000000 
#    y 0.000000 4.103120 0.000000 
#    z 0.000000 0.000000 4.259650 
# 
# 
# High freq. dielectric constant tensor:
#      x y z
#    x 1.881040 0.000000 0.000000 
#    y 0.000000 1.881630 0.000000 
#    z 0.000000 0.000000 1.889560 
# 
# From -- ./inp_files/4343.got.cif
#   From: 2010.03.12/outbox.cif.g09.slc.cpg/sg64_3_cif.got.tgz:4343.got - 2010.04.10 20:19:32.
