data_PCOD8264949
_publ_section_title
;
Structure prediction by ZEFSAII (Michael W. Deem and Ramdas Pophale) SiO2 
 PCOD8264949
Probable space group: C M C A
;
_chemical_formula_sum "Si O2"
_cell_formula_units_Z 56
_cell_length_a 16.764038
_cell_length_b 9.649509
_cell_length_c 13.778158
_cell_angle_alpha 90.000000
_cell_angle_beta 90.000000
_cell_angle_gamma 90.000000
_cell_volume 2228.820085
_symmetry_space_group_name_H-M "C M C A"
_symmetry_group_IT_number 64
_symmetry_cell_setting 'orthorhombic'
loop_
_space_group_symop_operation_xyz
x,y,z
-x,1/2-y,1/2+z
x,-y,-z
-x,1/2+y,1/2-z
-x,-y,-z
x,1/2+y,1/2-z
-x,y,z
x,1/2-y,1/2+z
1/2+x,1/2+y,z
1/2-x,-y,1/2+z
1/2+x,1/2-y,-z
1/2-x,y,1/2-z
1/2-x,1/2-y,-z
1/2+x,y,1/2-z
1/2-x,1/2+y,z
1/2+x,-y,1/2+z
loop_
_atom_site_type_symbol
_atom_site_label
_atom_site_fract_x
_atom_site_fract_y
_atom_site_fract_z
Si Si1 0.087013 0.781630 0.000558
Si Si2 0.408923 0.801376 0.783364
Si Si3 0.650992 0.585948 0.639218
Si Si4 0.786791 0.500000 0.500000
O O1 0.097211 0.628127 0.954358
O O2 0.000000 0.841497 0.973005
O O3 0.096582 0.775931 0.115025
O O4 0.156740 0.878702 0.958541
O O5 0.500000 0.798228 0.743471
O O6 0.350140 0.721520 0.709271
O O7 0.383071 0.960248 0.797759
O O8 0.737375 0.550251 0.594295
#
# Coordination Sequence:
#
# PCOD8264949 Si02
#       4
#    16  16  16   8
#     4  11  25  50  79 110 159 210 259 319 385 473
#     4  11  25  47  78 116 151 206 265 319 387 466
#     4  12  26  50  80 112 159 199 264 325 389 461
#     4  12  27  50  75 118 158 204 258 322 403 452
#
# _framework density 25.125402000000001
#
# number of rings (size 3 to 8) (size 9 to 14) (size 15 to 20)
#    0.000    0.571    2.857    3.857    4.000    3.429 
#    0.000    0.000    0.000    0.000    0.000    0.000 
#    0.000    0.000    0.000    0.000    0.000    0.000 
#
# Total GULP energy -347078.568242 kJ/mol
# GULP energy per Si atom -12395.663151 kJ/mol
# Density = 2.506822 g / cm^3
# Si number density = 25.125402 Si / 1000 Ang^3
#
#
#
# Elastic Constant Matrix: (Units=GPa)
#
#
# Indices 1 2 3 4 5 6 
#
# 1 161.7825 88.8989 73.3708 0.0000 0.0000 0.0000
# 2 88.8989 159.8938 57.0642 0.0000 0.0000 0.0000
# 3 73.3708 57.0642 113.6275 0.0000 0.0000 0.0000
# 4 0.0000 0.0000 0.0000 50.9477 0.0000 0.0000
# 5 0.0000 0.0000 0.0000 0.0000 -26.7255 0.0000
# 6 0.0000 0.0000 0.0000 0.0000 0.0000 -344.6477
#
#
#
# Elastic Compliance Matrix: (Units=1/GPa)
#
#
# Indices 1 2 3 4 5 6 
#
# 1 0.010665 -0.004230 -0.004762 0.000000 0.000000 0.000000
# 2 -0.004230 0.009298 -0.001938 0.000000 0.000000 0.000000
# 3 -0.004762 -0.001938 0.012849 0.000000 0.000000 0.000000
# 4 0.000000 0.000000 0.000000 0.019628 0.000000 0.000000
# 5 0.000000 0.000000 0.000000 0.000000 -0.037417 0.000000
# 6 0.000000 0.000000 0.000000 0.000000 0.000000 -0.002902
#
#
# Mechanical properties :
#
#
# Convention : Reuss Voigt Hill
#
# Bulk Modulus (GPa) = 91.31358 97.10797 94.21078
# Shear Modulus (GPa) = 132.86383 -49.68712 41.58835
#
# Velocity S-wave (km/s) = 7.27977 -4.45181 4.07287
# Velocity P-wave (km/s) = 10.34805 3.50834 7.72627
#
# Compressibility (1/GPa) = 0.01095127
#
# Stress axis : x y z
#
# Youngs Moduli (GPa) = 93.76076 107.55368 77.82696
#
# Poissons Ratio (x) = 0.45497 0.37064
# Poissons Ratio (y) = 0.39663 0.15082
# Poissons Ratio (z) = 0.44653 0.20842
#
# Static dielectric constant tensor:
#      x y z
#    x 4.572900 0.000000 0.000000 
#    y 0.000000 4.533310 0.000000 
#    z 0.000000 0.000000 4.520860 
# 
# 
# High freq. dielectric constant tensor:
#      x y z
#    x 1.997030 0.000000 0.000000 
#    y 0.000000 2.005920 0.000000 
#    z 0.000000 0.000000 2.013940 
# 
# From -- ./inp_files/32676.got.cif
#   From: 2010.03.12/outbox.cif.g09.slc.cpg/sg64_17_cif.got.tgz:32676.got - 2010.04.10 20:19:32.
