data_PCOD8264793
_publ_section_title
;
Structure prediction by ZEFSAII (Michael W. Deem and Ramdas Pophale) SiO2 
 PCOD8264793
Probable space group: C M C A
;
_chemical_formula_sum "Si O2"
_cell_formula_units_Z 96
_cell_length_a 26.737799
_cell_length_b 9.814534
_cell_length_c 18.081533
_cell_angle_alpha 90.000000
_cell_angle_beta 90.000000
_cell_angle_gamma 90.000000
_cell_volume 4744.938484
_symmetry_space_group_name_H-M "C M C A"
_symmetry_group_IT_number 64
_symmetry_cell_setting 'orthorhombic'
loop_
_space_group_symop_operation_xyz
x,y,z
-x,1/2-y,1/2+z
x,-y,-z
-x,1/2+y,1/2-z
-x,-y,-z
x,1/2+y,1/2-z
-x,y,z
x,1/2-y,1/2+z
1/2+x,1/2+y,z
1/2-x,-y,1/2+z
1/2+x,1/2-y,-z
1/2-x,y,1/2-z
1/2-x,1/2-y,-z
1/2+x,y,1/2-z
1/2-x,1/2+y,z
1/2+x,-y,1/2+z
loop_
_atom_site_type_symbol
_atom_site_label
_atom_site_fract_x
_atom_site_fract_y
_atom_site_fract_z
Si Si1 0.350970 0.507262 0.583814
Si Si2 0.676407 0.269428 0.159398
Si Si3 0.442640 0.582335 0.186142
Si Si4 0.642893 0.041111 0.418016
Si Si5 0.395063 0.347624 0.281858
Si Si6 0.274650 0.770526 0.080280
O O1 0.372794 0.500000 0.500000
O O2 0.350473 0.357167 0.619085
O O3 0.384911 0.605469 0.634323
O O4 0.295614 0.574665 0.581409
O O5 0.664310 0.409972 0.121085
O O6 0.656208 0.285970 0.243835
O O7 0.736068 0.249985 0.148791
O O8 0.500000 0.546637 0.170551
O O9 0.411473 0.584495 0.110685
O O10 0.417367 0.474280 0.239432
O O11 0.437470 0.731882 0.221701
O O12 0.680637 0.165535 0.407507
O O13 0.633374 0.000000 0.500000
O O14 0.250000 0.750000 0.000000
#
# Coordination Sequence:
#
# PCOD8264793 Si02
#       6
#    16  16  16  16  16  16
#     4  12  23  41  67  97 137 178 224 275 335 398
#     4  11  24  38  63  95 138 179 220 264 332 405
#     4  11  24  45  71  93 127 175 225 287 350 402
#     4  11  22  40  64  98 133 171 227 272 327 406
#     4  11  24  46  66  98 131 172 228 287 340 411
#     4  12  22  38  65  99 135 187 216 263 335 407
#
# _framework density 20.232085000000001
#
# number of rings (size 3 to 8) (size 9 to 14) (size 15 to 20)
#    0.000    0.667    6.667    1.500    0.000    1.000 
#    0.000    1.667    0.000    2.000    0.000    0.000 
#    0.000    0.000    0.000    0.000    0.000    0.000 
#
# Total GULP energy -594980.679980 kJ/mol
# GULP energy per Si atom -12395.430833 kJ/mol
# Density = 2.018604 g / cm^3
# Si number density = 20.232085 Si / 1000 Ang^3
#
#
#
# Elastic Constant Matrix: (Units=GPa)
#
#
# Indices 1 2 3 4 5 6 
#
# 1 127.3036 33.4953 56.3847 0.0000 0.0000 0.0000
# 2 33.4953 108.7994 36.0179 0.0000 0.0000 0.0000
# 3 56.3847 36.0179 107.6149 0.0000 0.0000 0.0000
# 4 0.0000 0.0000 0.0000 31.2846 0.0000 0.0000
# 5 0.0000 0.0000 0.0000 0.0000 28.1499 0.0000
# 6 0.0000 0.0000 0.0000 0.0000 0.0000 26.7617
#
#
#
# Elastic Compliance Matrix: (Units=1/GPa)
#
#
# Indices 1 2 3 4 5 6 
#
# 1 0.010466 -0.001582 -0.004954 0.000000 0.000000 0.000000
# 2 -0.001582 0.010576 -0.002711 0.000000 0.000000 0.000000
# 3 -0.004954 -0.002711 0.012795 0.000000 0.000000 0.000000
# 4 0.000000 0.000000 0.000000 0.031965 0.000000 0.000000
# 5 0.000000 0.000000 0.000000 0.000000 0.035524 0.000000
# 6 0.000000 0.000000 0.000000 0.000000 0.000000 0.037367
#
#
# Mechanical properties :
#
#
# Convention : Reuss Voigt Hill
#
# Bulk Modulus (GPa) = 65.17536 66.16819 65.67177
# Shear Modulus (GPa) = 30.80716 31.76058 31.28387
#
# Velocity S-wave (km/s) = 3.90640 3.96638 3.93651
# Velocity P-wave (km/s) = 7.25468 7.33157 7.29322
#
# Compressibility (1/GPa) = 0.01534322
#
# Stress axis : x y z
#
# Youngs Moduli (GPa) = 95.55035 94.55697 78.15371
#
# Poissons Ratio (x) = 0.14959 0.38717
# Poissons Ratio (y) = 0.15116 0.21185
# Poissons Ratio (z) = 0.47336 0.25632
#
# Static dielectric constant tensor:
#      x y z
#    x 3.680990 0.000000 0.000000 
#    y 0.000000 4.037340 0.000000 
#    z 0.000000 0.000000 3.937280 
# 
# 
# High freq. dielectric constant tensor:
#      x y z
#    x 1.760150 0.000000 0.000000 
#    y 0.000000 1.822500 0.000000 
#    z 0.000000 0.000000 1.790430 
# 
# From -- ./inp_files/41823.got.cif
#   From: 2010.03.12/outbox.cif.g09.slc.cpg/sg64_21_cif.got.tgz:41823.got - 2010.04.10 20:19:32.
