data_PCOD8264260
_publ_section_title
;
Structure prediction by ZEFSAII (Michael W. Deem and Ramdas Pophale) SiO2 
 PCOD8264260
Probable space group: C M C A
;
_chemical_formula_sum "Si O2"
_cell_formula_units_Z 72
_cell_length_a 22.952730
_cell_length_b 5.061774
_cell_length_c 33.570267
_cell_angle_alpha 90.000000
_cell_angle_beta 90.000000
_cell_angle_gamma 90.000000
_cell_volume 3900.245048
_symmetry_space_group_name_H-M "C M C A"
_symmetry_group_IT_number 64
_symmetry_cell_setting 'orthorhombic'
loop_
_space_group_symop_operation_xyz
x,y,z
-x,1/2-y,1/2+z
x,-y,-z
-x,1/2+y,1/2-z
-x,-y,-z
x,1/2+y,1/2-z
-x,y,z
x,1/2-y,1/2+z
1/2+x,1/2+y,z
1/2-x,-y,1/2+z
1/2+x,1/2-y,-z
1/2-x,y,1/2-z
1/2-x,1/2-y,-z
1/2+x,y,1/2-z
1/2-x,1/2+y,z
1/2+x,-y,1/2+z
loop_
_atom_site_type_symbol
_atom_site_label
_atom_site_fract_x
_atom_site_fract_y
_atom_site_fract_z
Si Si1 0.712590 0.010262 0.545546
Si Si2 0.566883 0.367773 0.637713
Si Si3 0.597691 0.145052 0.409843
Si Si4 0.569392 0.222698 0.226437
Si Si5 0.000000 0.248013 0.027878
O O1 0.764697 0.804903 0.553996
O O2 0.660165 0.944343 0.574710
O O3 0.690536 0.000000 0.500000
O O4 0.500000 0.465583 0.639882
O O5 0.604963 0.608173 0.620137
O O6 0.592580 0.305966 0.681433
O O7 0.568616 0.104718 0.611381
O O8 0.557766 0.249324 0.445603
O O9 0.593728 0.490008 0.245674
O O10 0.500000 0.223783 0.225727
O O11 0.000000 0.500000 0.000000
O O12 0.000000 0.000000 0.000000
#
# Coordination Sequence:
#
# PCOD8264260 Si02
#       5
#    16  16  16  16   8
#     4  10  22  40  59  77 101 139 187 239 282 312
#     4  11  20  34  52  79 117 148 176 215 274 323
#     4  12  22  37  55  80 111 144 182 225 274 330
#     4   9  17  29  47  72 105 148 183 208 245 316
#     4  12  24  36  52  76 108 146 180 212 262 332
#
# _framework density 18.460380000000001
#
# number of rings (size 3 to 8) (size 9 to 14) (size 15 to 20)
#    0.000    1.333    2.222    4.667    0.000    6.222 
#    0.000    0.000    0.000    0.000    0.000    0.000 
#    0.000   62.222    0.000    0.000    0.000    0.000 
#
# Total GULP energy -446519.650008 kJ/mol
# GULP energy per Si atom -12403.323611 kJ/mol
# Density = 1.841836 g / cm^3
# Si number density = 18.460380 Si / 1000 Ang^3
#
#
#
# Elastic Constant Matrix: (Units=GPa)
#
#
# Indices 1 2 3 4 5 6 
#
# 1 43.9823 2.5278 28.5596 0.0000 0.0000 0.0000
# 2 2.5278 100.8327 23.4651 0.0000 0.0000 0.0000
# 3 28.5596 23.4651 95.0327 0.0000 0.0000 0.0000
# 4 0.0000 0.0000 0.0000 39.7072 0.0000 0.0000
# 5 0.0000 0.0000 0.0000 0.0000 15.1533 0.0000
# 6 0.0000 0.0000 0.0000 0.0000 0.0000 16.1130
#
#
#
# Elastic Compliance Matrix: (Units=1/GPa)
#
#
# Indices 1 2 3 4 5 6 
#
# 1 0.028422 0.001353 -0.008876 0.000000 0.000000 0.000000
# 2 0.001353 0.010586 -0.003021 0.000000 0.000000 0.000000
# 3 -0.008876 -0.003021 0.013936 0.000000 0.000000 0.000000
# 4 0.000000 0.000000 0.000000 0.025184 0.000000 0.000000
# 5 0.000000 0.000000 0.000000 0.000000 0.065992 0.000000
# 6 0.000000 0.000000 0.000000 0.000000 0.000000 0.062062
#
#
# Mechanical properties :
#
#
# Convention : Reuss Voigt Hill
#
# Bulk Modulus (GPa) = 31.38942 38.77254 35.08098
# Shear Modulus (GPa) = 21.01827 26.54770 23.78298
#
# Velocity S-wave (km/s) = 3.37792 3.79633 3.59322
# Velocity P-wave (km/s) = 5.67929 6.34546 6.02160
#
# Compressibility (1/GPa) = 0.03185787
#
# Stress axis : x y z
#
# Youngs Moduli (GPa) = 35.18409 94.46064 71.75746
#
# Poissons Ratio (x) = -0.12780 0.63689
# Poissons Ratio (y) = -0.04760 0.21675
# Poissons Ratio (z) = 0.31228 0.28532
#
# Static dielectric constant tensor:
#      x y z
#    x 2.915830 0.000000 0.000000 
#    y 0.000000 3.618890 0.000000 
#    z 0.000000 0.000000 3.608950 
# 
# 
# High freq. dielectric constant tensor:
#      x y z
#    x 1.661320 0.000000 0.000000 
#    y 0.000000 1.741700 0.000000 
#    z 0.000000 0.000000 1.724130 
# 
# From -- ./inp_files/50926.got.cif
#   From: 2010.03.12/outbox.cif.g09.slc.cpg/sg64_26_cif.got.tgz:50926.got - 2010.04.10 20:19:32.
