data_PCOD8264069
_publ_section_title
;
Structure prediction by ZEFSAII (Michael W. Deem and Ramdas Pophale) SiO2 
 PCOD8264069
Probable space group: C M C A
;
_chemical_formula_sum "Si O2"
_cell_formula_units_Z 64
_cell_length_a 18.269892
_cell_length_b 11.375600
_cell_length_c 14.636799
_cell_angle_alpha 90.000000
_cell_angle_beta 90.000000
_cell_angle_gamma 90.000000
_cell_volume 3041.980331
_symmetry_space_group_name_H-M "C M C A"
_symmetry_group_IT_number 64
_symmetry_cell_setting 'orthorhombic'
loop_
_space_group_symop_operation_xyz
x,y,z
-x,1/2-y,1/2+z
x,-y,-z
-x,1/2+y,1/2-z
-x,-y,-z
x,1/2+y,1/2-z
-x,y,z
x,1/2-y,1/2+z
1/2+x,1/2+y,z
1/2-x,-y,1/2+z
1/2+x,1/2-y,-z
1/2-x,y,1/2-z
1/2-x,1/2-y,-z
1/2+x,y,1/2-z
1/2-x,1/2+y,z
1/2+x,-y,1/2+z
loop_
_atom_site_type_symbol
_atom_site_label
_atom_site_fract_x
_atom_site_fract_y
_atom_site_fract_z
Si Si1 0.850687 0.042412 0.896672
Si Si2 0.500000 0.540897 0.398656
Si Si3 0.250000 0.070803 0.250000
Si Si4 0.000000 0.207850 0.689525
Si Si5 0.881677 0.286934 0.829675
Si Si6 0.500000 0.560185 0.098269
O O1 0.860566 0.182854 0.899810
O O2 0.784359 0.010423 0.829272
O O3 0.925313 0.984891 0.854134
O O4 0.834477 0.000000 0.000000
O O5 0.500000 0.500000 0.500000
O O6 0.500000 0.427645 0.334764
O O7 0.572297 0.616248 0.383115
O O8 0.191673 0.155660 0.294698
O O9 0.072977 0.233102 0.746158
O O10 0.000000 0.297177 0.601824
O O11 0.500000 0.500000 0.000000
#
# Coordination Sequence:
#
# PCOD8264069 Si02
#       6
#    16   8   8   8  16   8
#     4  11  25  44  72  99 136 184 233 281 342 423
#     4  11  27  41  67 102 133 168 221 288 341 392
#     4  12  24  44  68 104 136 182 228 282 346 408
#     4  11  22  43  67  97 137 175 223 291 340 406
#     4  11  25  42  67  98 133 179 226 279 347 404
#     4  10  21  40  73  98 126 176 231 277 335 413
#
# _framework density 21.038927000000001
#
# number of rings (size 3 to 8) (size 9 to 14) (size 15 to 20)
#    0.000    1.000    2.500    3.750   10.500    2.000 
#    0.000    0.000    0.000    0.000    0.000    0.000 
#    0.000    0.000    0.000    0.000    0.000    0.000 
#
# Total GULP energy -396803.592013 kJ/mol
# GULP energy per Si atom -12400.112250 kJ/mol
# Density = 2.099104 g / cm^3
# Si number density = 21.038927 Si / 1000 Ang^3
#
#
#
# Elastic Constant Matrix: (Units=GPa)
#
#
# Indices 1 2 3 4 5 6 
#
# 1 158.5315 70.8954 64.1244 0.0000 0.0000 0.0000
# 2 70.8954 199.0825 82.3394 0.0000 0.0000 0.0000
# 3 64.1244 82.3394 133.4342 0.0000 0.0000 0.0000
# 4 0.0000 0.0000 0.0000 44.1406 0.0000 0.0000
# 5 0.0000 0.0000 0.0000 0.0000 -5.8377 0.0000
# 6 0.0000 0.0000 0.0000 0.0000 0.0000 32.8636
#
#
#
# Elastic Compliance Matrix: (Units=1/GPa)
#
#
# Indices 1 2 3 4 5 6 
#
# 1 0.008258 -0.001745 -0.002892 0.000000 0.000000 0.000000
# 2 -0.001745 0.007113 -0.003551 0.000000 0.000000 0.000000
# 3 -0.002892 -0.003551 0.011075 0.000000 0.000000 0.000000
# 4 0.000000 0.000000 0.000000 0.022655 0.000000 0.000000
# 5 0.000000 0.000000 0.000000 0.000000 -0.171300 0.000000
# 6 0.000000 0.000000 0.000000 0.000000 0.000000 0.030429
#
#
# Mechanical properties :
#
#
# Convention : Reuss Voigt Hill
#
# Bulk Modulus (GPa) = 99.29206 102.86298 101.07752
# Shear Modulus (GPa) = -69.40696 32.47923 -18.46387
#
# Velocity S-wave (km/s) = -5.74990 3.93334 -2.96565
# Velocity P-wave (km/s) = 1.79305 8.34423 6.03495
#
# Compressibility (1/GPa) = 0.01007130
#
# Stress axis : x y z
#
# Youngs Moduli (GPa) = 121.09708 140.58913 90.29173
#
# Poissons Ratio (x) = 0.24528 0.26111
# Poissons Ratio (y) = 0.21127 0.32061
# Poissons Ratio (z) = 0.35020 0.49921
#
# Static dielectric constant tensor:
#      x y z
#    x 4.127780 0.000000 0.000000 
#    y 0.000000 3.859920 0.000000 
#    z 0.000000 0.000000 3.596370 
# 
# 
# High freq. dielectric constant tensor:
#      x y z
#    x 1.832610 0.000000 0.000000 
#    y 0.000000 1.843670 0.000000 
#    z 0.000000 0.000000 1.816640 
# 
# From -- ./inp_files/24944.got.cif
#   From: 2010.03.12/outbox.cif.g09.slc.cpg/sg64_13_cif.got.tgz:24944.got - 2010.04.10 20:19:32.
