data_PCOD8264772
_publ_section_title
;
Structure prediction by ZEFSAII (Michael W. Deem and Ramdas Pophale) SiO2 
 PCOD8264772
Probable space group: C M C A
;
_chemical_formula_sum "Si O2"
_cell_formula_units_Z 80
_cell_length_a 15.797320
_cell_length_b 9.043528
_cell_length_c 25.524735
_cell_angle_alpha 90.000000
_cell_angle_beta 90.000000
_cell_angle_gamma 90.000000
_cell_volume 3646.553125
_symmetry_space_group_name_H-M "C M C A"
_symmetry_group_IT_number 64
_symmetry_cell_setting 'orthorhombic'
loop_
_space_group_symop_operation_xyz
x,y,z
-x,1/2-y,1/2+z
x,-y,-z
-x,1/2+y,1/2-z
-x,-y,-z
x,1/2+y,1/2-z
-x,y,z
x,1/2-y,1/2+z
1/2+x,1/2+y,z
1/2-x,-y,1/2+z
1/2+x,1/2-y,-z
1/2-x,y,1/2-z
1/2-x,1/2-y,-z
1/2+x,y,1/2-z
1/2-x,1/2+y,z
1/2+x,-y,1/2+z
loop_
_atom_site_type_symbol
_atom_site_label
_atom_site_fract_x
_atom_site_fract_y
_atom_site_fract_z
Si Si1 0.095021 0.909504 0.806599
Si Si2 0.898745 0.212844 0.600616
Si Si3 0.661405 0.782136 0.277431
Si Si4 0.898348 0.882238 0.622612
Si Si5 0.907460 0.827279 0.510397
O O1 0.133194 0.841673 0.860529
O O2 0.091246 0.781475 0.762476
O O3 0.000000 0.967425 0.816378
O O4 0.152000 0.043706 0.786579
O O5 0.860709 0.240619 0.541441
O O6 0.000000 0.212624 0.596935
O O7 0.871070 0.054095 0.623822
O O8 0.750000 0.747289 0.250000
O O9 0.653739 0.699129 0.332525
O O10 0.865380 0.806974 0.567749
O O11 0.000000 0.863858 0.629191
O O12 0.000000 0.753479 0.514079
O O13 0.918182 0.000000 0.500000
#
# Coordination Sequence:
#
# PCOD8264772 Si02
#       5
#    16  16  16  16  16
#     4  11  22  38  59  81 109 147 194 239 281 336
#     4   8  15  29  54  87 117 145 183 234 283 332
#     4  12  25  39  54  79 114 151 190 238 292 336
#     4   9  16  31  57  86 117 153 192 230 277 344
#     4   7  11  23  48  84 119 146 177 224 281 337
#
# _framework density 21.938524000000001
#
# number of rings (size 3 to 8) (size 9 to 14) (size 15 to 20)
#    0.000    2.600    0.000    6.000    0.000    1.600 
#    0.000    2.000    0.000    6.000    0.000    2.800 
#    0.000    0.000    0.000    0.000    0.000    8.000 
#
# Total GULP energy -495531.261964 kJ/mol
# GULP energy per Si atom -12388.281549 kJ/mol
# Density = 2.188859 g / cm^3
# Si number density = 21.938524 Si / 1000 Ang^3
#
#
#
# Elastic Constant Matrix: (Units=GPa)
#
#
# Indices 1 2 3 4 5 6 
#
# 1 38.9956 27.8314 40.3908 0.0000 0.0000 0.0000
# 2 27.8314 78.6717 56.6130 0.0000 0.0000 0.0000
# 3 40.3908 56.6130 204.5758 0.0000 0.0000 0.0000
# 4 0.0000 0.0000 0.0000 39.9970 0.0000 0.0000
# 5 0.0000 0.0000 0.0000 0.0000 19.6771 0.0000
# 6 0.0000 0.0000 0.0000 0.0000 0.0000 18.9148
#
#
#
# Elastic Compliance Matrix: (Units=1/GPa)
#
#
# Indices 1 2 3 4 5 6 
#
# 1 0.037567 -0.009930 -0.004669 0.000000 0.000000 0.000000
# 2 -0.009930 0.018497 -0.003158 0.000000 0.000000 0.000000
# 3 -0.004669 -0.003158 0.006684 0.000000 0.000000 0.000000
# 4 0.000000 0.000000 0.000000 0.025002 0.000000 0.000000
# 5 0.000000 0.000000 0.000000 0.000000 0.050820 0.000000
# 6 0.000000 0.000000 0.000000 0.000000 0.000000 0.052869
#
#
# Mechanical properties :
#
#
# Convention : Reuss Voigt Hill
#
# Bulk Modulus (GPa) = 36.71985 63.54595 50.13290
# Shear Modulus (GPa) = 21.18364 28.87831 25.03098
#
# Velocity S-wave (km/s) = 3.11077 3.63206 3.38147
# Velocity P-wave (km/s) = 5.44761 6.82770 6.17632
#
# Compressibility (1/GPa) = 0.02723322
#
# Stress axis : x y z
#
# Youngs Moduli (GPa) = 26.61885 54.06417 149.61158
#
# Poissons Ratio (x) = 0.53686 0.69857
# Poissons Ratio (y) = 0.26433 0.47248
# Poissons Ratio (z) = 0.12429 0.17074
#
# Static dielectric constant tensor:
#      x y z
#    x 3.285320 0.000000 0.000000 
#    y 0.000000 3.625320 0.000000 
#    z 0.000000 0.000000 4.763280 
# 
# 
# High freq. dielectric constant tensor:
#      x y z
#    x 1.808620 0.000000 0.000000 
#    y 0.000000 1.835180 0.000000 
#    z 0.000000 0.000000 1.894190 
# 
# From -- ./inp_files/50286.got.cif
#   From: 2010.03.12/outbox.cif.g09.slc.cpg/sg64_26_cif.got.tgz:50286.got - 2010.04.10 20:19:32.
