data_PCOD8264492
_publ_section_title
;
Structure prediction by ZEFSAII (Michael W. Deem and Ramdas Pophale) SiO2 
 PCOD8264492
Probable space group: C M C A
;
_chemical_formula_sum "Si O2"
_cell_formula_units_Z 72
_cell_length_a 22.688138
_cell_length_b 16.861732
_cell_length_c 9.071756
_cell_angle_alpha 90.000000
_cell_angle_beta 90.000000
_cell_angle_gamma 90.000000
_cell_volume 3470.502792
_symmetry_space_group_name_H-M "C M C A"
_symmetry_group_IT_number 64
_symmetry_cell_setting 'orthorhombic'
loop_
_space_group_symop_operation_xyz
x,y,z
-x,1/2-y,1/2+z
x,-y,-z
-x,1/2+y,1/2-z
-x,-y,-z
x,1/2+y,1/2-z
-x,y,z
x,1/2-y,1/2+z
1/2+x,1/2+y,z
1/2-x,-y,1/2+z
1/2+x,1/2-y,-z
1/2-x,y,1/2-z
1/2-x,1/2-y,-z
1/2+x,y,1/2-z
1/2-x,1/2+y,z
1/2+x,-y,1/2+z
loop_
_atom_site_type_symbol
_atom_site_label
_atom_site_fract_x
_atom_site_fract_y
_atom_site_fract_z
Si Si1 0.908273 0.000000 0.000000
Si Si2 0.877922 0.188411 0.633756
Si Si3 0.770529 0.580213 0.909926
Si Si4 0.000000 0.480312 0.755354
Si Si5 0.155799 0.662269 0.540671
Si Si6 0.500000 0.625187 0.526041
O O1 0.944057 0.989724 0.849352
O O2 0.868232 0.076305 0.996690
O O3 0.835831 0.117099 0.579132
O O4 0.875448 0.192174 0.810216
O O5 0.856857 0.274867 0.585510
O O6 0.942740 0.176383 0.566863
O O7 0.750000 0.552341 0.750000
O O8 0.726336 0.650966 0.956918
O O9 0.769294 0.500000 0.000000
O O10 0.000000 0.548447 0.874213
O O11 0.000000 0.398275 0.850872
#
# Coordination Sequence:
#
# PCOD8264492 Si02
#       6
#     8  16  16   8  16   8
#     4  11  22  44  68  94 130 179 220 268 332 381
#     4  11  26  42  66  98 137 170 222 267 331 390
#     4  10  23  42  68  99 130 169 219 273 329 390
#     4  10  24  40  66  93 135 173 216 271 321 390
#     4  11  24  45  67  97 133 170 223 274 327 390
#     4  11  24  42  64  98 135 168 223 264 322 396
#
# _framework density 20.746274
#
# number of rings (size 3 to 8) (size 9 to 14) (size 15 to 20)
#    0.000    1.333    3.333    0.667    6.222    4.444 
#    0.000    0.000    0.000    0.000    0.000    0.000 
#    0.000    0.000    0.000    0.000    0.000    0.000 
#
# Total GULP energy -446337.206260 kJ/mol
# GULP energy per Si atom -12398.255729 kJ/mol
# Density = 2.069905 g / cm^3
# Si number density = 20.746274 Si / 1000 Ang^3
#
#
#
# Elastic Constant Matrix: (Units=GPa)
#
#
# Indices 1 2 3 4 5 6 
#
# 1 116.1270 28.7695 26.5060 0.0000 0.0000 0.0000
# 2 28.7695 125.9603 54.9657 0.0000 0.0000 0.0000
# 3 26.5060 54.9657 85.4674 0.0000 0.0000 0.0000
# 4 0.0000 0.0000 0.0000 -0.4225 0.0000 0.0000
# 5 0.0000 0.0000 0.0000 0.0000 20.8591 0.0000
# 6 0.0000 0.0000 0.0000 0.0000 0.0000 -0.3330
#
#
#
# Elastic Compliance Matrix: (Units=1/GPa)
#
#
# Indices 1 2 3 4 5 6 
#
# 1 0.009399 -0.001216 -0.002133 0.000000 0.000000 0.000000
# 2 -0.001216 0.011194 -0.006822 0.000000 0.000000 0.000000
# 3 -0.002133 -0.006822 0.016749 0.000000 0.000000 0.000000
# 4 0.000000 0.000000 0.000000 -2.366936 0.000000 0.000000
# 5 0.000000 0.000000 0.000000 0.000000 0.047941 0.000000
# 6 0.000000 0.000000 0.000000 0.000000 0.000000 -3.003165
#
#
# Mechanical properties :
#
#
# Convention : Reuss Voigt Hill
#
# Bulk Modulus (GPa) = 58.82151 60.89301 59.85726
# Shear Modulus (GPa) = -0.95079 18.50830 8.77876
#
# Velocity S-wave (km/s) = -0.67771 2.99009 2.05929
# Velocity P-wave (km/s) = 5.27276 6.42930 5.87953
#
# Compressibility (1/GPa) = 0.01700058
#
# Stress axis : x y z
#
# Youngs Moduli (GPa) = 106.38999 89.33728 59.70513
#
# Poissons Ratio (x) = 0.10864 0.12735
# Poissons Ratio (y) = 0.12938 0.40729
# Poissons Ratio (z) = 0.22693 0.60943
#
# Static dielectric constant tensor:
#      x y z
#    x 3.337060 0.000000 0.000000 
#    y 0.000000 3.646260 0.000000 
#    z 0.000000 0.000000 4.143050 
# 
# 
# High freq. dielectric constant tensor:
#      x y z
#    x 1.824230 0.000000 0.000000 
#    y 0.000000 1.815660 0.000000 
#    z 0.000000 0.000000 1.818630 
# 
# From -- ./inp_files/9190.got.cif
#   From: 2010.03.12/outbox.cif.g09.slc.cpg/sg64_5_cif.got.tgz:9190.got - 2010.04.10 20:19:32.
