data_PCOD8264394
_publ_section_title
;
Structure prediction by ZEFSAII (Michael W. Deem and Ramdas Pophale) SiO2 
 PCOD8264394
Probable space group: C M C A
;
_chemical_formula_sum "Si O2"
_cell_formula_units_Z 112
_cell_length_a 13.378139
_cell_length_b 23.822013
_cell_length_c 14.860284
_cell_angle_alpha 90.000000
_cell_angle_beta 90.000000
_cell_angle_gamma 90.000000
_cell_volume 4735.886339
_symmetry_space_group_name_H-M "C M C A"
_symmetry_group_IT_number 64
_symmetry_cell_setting 'orthorhombic'
loop_
_space_group_symop_operation_xyz
x,y,z
-x,1/2-y,1/2+z
x,-y,-z
-x,1/2+y,1/2-z
-x,-y,-z
x,1/2+y,1/2-z
-x,y,z
x,1/2-y,1/2+z
1/2+x,1/2+y,z
1/2-x,-y,1/2+z
1/2+x,1/2-y,-z
1/2-x,y,1/2-z
1/2-x,1/2-y,-z
1/2+x,y,1/2-z
1/2-x,1/2+y,z
1/2+x,-y,1/2+z
loop_
_atom_site_type_symbol
_atom_site_label
_atom_site_fract_x
_atom_site_fract_y
_atom_site_fract_z
Si Si1 0.383873 0.936109 0.206322
Si Si2 0.886368 0.344576 0.706767
Si Si3 0.884603 0.673245 0.902876
Si Si4 0.250232 0.633765 0.455884
Si Si5 0.883712 0.942033 0.658001
Si Si6 0.882016 0.125211 0.881645
Si Si7 0.884670 0.270754 0.274854
O O1 0.500000 0.944350 0.225994
O O2 0.368577 0.891532 0.126647
O O3 0.338054 0.914197 0.301385
O O4 0.339593 0.996504 0.179164
O O5 0.810680 0.336884 0.624549
O O6 0.869167 0.404296 0.752820
O O7 0.864488 0.296157 0.783205
O O8 0.000000 0.337783 0.671429
O O9 0.839234 0.711945 0.822827
O O10 0.000000 0.687591 0.924504
O O11 0.820586 0.680243 0.994593
O O12 0.319534 0.582820 0.423206
O O13 0.170027 0.608149 0.525694
O O14 0.000000 0.942980 0.628519
O O15 0.848703 0.189861 0.857045
O O16 0.000000 0.118477 0.894210
O O17 0.000000 0.286573 0.264895
#
# Coordination Sequence:
#
# PCOD8264394 Si02
#       7
#    16  16  16  16  16  16  16
#     4   8  17  39  67  86 115 165 209 249 301 366
#     4  10  22  43  62  82 124 170 204 243 306 378
#     4   9  19  38  62  91 122 155 204 257 306 356
#     4  12  23  37  57 101 123 154 197 261 313 353
#     4  10  22  43  63  83 122 173 210 241 301 376
#     4   9  19  40  67  95 121 155 208 258 308 360
#     4   8  17  39  66  86 117 167 206 244 302 372
#
# _framework density 23.649215999999999
#
# number of rings (size 3 to 8) (size 9 to 14) (size 15 to 20)
#    0.000    2.571    0.000    3.000    0.000    3.429 
#   15.429    2.143    0.000    3.429    0.000    0.000 
#    0.000    0.000    0.000    0.000    0.000    0.000 
#
# Total GULP energy -694098.899604 kJ/mol
# GULP energy per Si atom -12394.623207 kJ/mol
# Density = 2.359539 g / cm^3
# Si number density = 23.649216 Si / 1000 Ang^3
#
#
#
# Elastic Constant Matrix: (Units=GPa)
#
#
# Indices 1 2 3 4 5 6 
#
# 1 71.2734 -2.5665 31.6937 0.0000 0.0000 0.0000
# 2 -2.5665 102.8666 9.0405 0.0000 0.0000 0.0000
# 3 31.6937 9.0405 84.0343 0.0000 0.0000 0.0000
# 4 0.0000 0.0000 0.0000 21.4303 0.0000 0.0000
# 5 0.0000 0.0000 0.0000 0.0000 50.2856 0.0000
# 6 0.0000 0.0000 0.0000 0.0000 0.0000 -1.6149
#
#
#
# Elastic Compliance Matrix: (Units=1/GPa)
#
#
# Indices 1 2 3 4 5 6 
#
# 1 0.016958 0.000995 -0.006503 0.000000 0.000000 0.000000
# 2 0.000995 0.009872 -0.001437 0.000000 0.000000 0.000000
# 3 -0.006503 -0.001437 0.014507 0.000000 0.000000 0.000000
# 4 0.000000 0.000000 0.000000 0.046663 0.000000 0.000000
# 5 0.000000 0.000000 0.000000 0.000000 0.019886 0.000000
# 6 0.000000 0.000000 0.000000 0.000000 0.000000 -0.619241
#
#
# Mechanical properties :
#
#
# Convention : Reuss Voigt Hill
#
# Bulk Modulus (GPa) = 36.43417 37.16773 36.80095
# Shear Modulus (GPa) = -10.23930 28.68733 9.22401
#
# Velocity S-wave (km/s) = -2.08304 3.48664 1.97707
# Velocity P-wave (km/s) = 3.10711 5.65326 4.56144
#
# Compressibility (1/GPa) = 0.02744676
#
# Stress axis : x y z
#
# Youngs Moduli (GPa) = 58.96952 101.29196 68.93207
#
# Poissons Ratio (x) = -0.10074 0.44825
# Poissons Ratio (y) = -0.05865 0.09907
# Poissons Ratio (z) = 0.38346 0.14558
#
# Static dielectric constant tensor:
#      x y z
#    x 4.469460 0.000000 0.000000 
#    y 0.000000 4.177810 0.000000 
#    z 0.000000 0.000000 3.987730 
# 
# 
# High freq. dielectric constant tensor:
#      x y z
#    x 1.963510 0.000000 0.000000 
#    y 0.000000 1.916570 0.000000 
#    z 0.000000 0.000000 1.916260 
# 
# From -- ./inp_files/24197.got.cif
#   From: 2010.03.12/outbox.cif.g09.slc.cpg/sg64_13_cif.got.tgz:24197.got - 2010.04.10 20:19:32.
