data_PCOD8264175
_publ_section_title
;
Structure prediction by ZEFSAII (Michael W. Deem and Ramdas Pophale) SiO2 
 PCOD8264175
Probable space group: C M C A
;
_chemical_formula_sum "Si O2"
_cell_formula_units_Z 80
_cell_length_a 22.182450
_cell_length_b 5.057908
_cell_length_c 31.422244
_cell_angle_alpha 90.000000
_cell_angle_beta 90.000000
_cell_angle_gamma 90.000000
_cell_volume 3525.474953
_symmetry_space_group_name_H-M "C M C A"
_symmetry_group_IT_number 64
_symmetry_cell_setting 'orthorhombic'
loop_
_space_group_symop_operation_xyz
x,y,z
-x,1/2-y,1/2+z
x,-y,-z
-x,1/2+y,1/2-z
-x,-y,-z
x,1/2+y,1/2-z
-x,y,z
x,1/2-y,1/2+z
1/2+x,1/2+y,z
1/2-x,-y,1/2+z
1/2+x,1/2-y,-z
1/2-x,y,1/2-z
1/2-x,1/2-y,-z
1/2+x,y,1/2-z
1/2-x,1/2+y,z
1/2+x,-y,1/2+z
loop_
_atom_site_type_symbol
_atom_site_label
_atom_site_fract_x
_atom_site_fract_y
_atom_site_fract_z
Si Si1 0.288162 0.433414 0.806261
Si Si2 0.932141 0.216612 0.367978
Si Si3 0.911338 0.578487 0.725519
Si Si4 0.817454 0.749971 0.480566
Si Si5 0.359022 0.188408 0.388185
O O1 0.232654 0.632365 0.798732
O O2 0.339212 0.535559 0.774059
O O3 0.313317 0.438566 0.854267
O O4 0.934440 0.336111 0.320470
O O5 0.906811 0.453084 0.397993
O O6 0.000000 0.146084 0.382461
O O7 0.891525 0.952352 0.370488
O O8 0.935621 0.291399 0.740103
O O9 0.852398 0.500000 0.500000
O O10 0.750000 0.750000 0.500000
O O11 0.819481 0.756055 0.429630
O O12 0.852565 0.000000 0.500000
#
# Coordination Sequence:
#
# PCOD8264175 Si02
#       5
#    16  16  16  16  16
#     4  11  23  36  59  89 126 179 209 247 315 397
#     4  11  24  44  68  93 122 176 226 271 335 379
#     4  11  23  40  60  90 127 160 217 277 319 372
#     4  10  22  37  62  98 132 169 198 258 327 385
#     4  11  23  41  65  94 137 165 217 271 316 393
#
# _framework density 22.691977999999999
#
# number of rings (size 3 to 8) (size 9 to 14) (size 15 to 20)
#    0.000    1.200    0.000    7.800    5.600    3.200 
#    0.000    0.000    0.000   12.000    0.000    0.000 
#    0.000    0.000    0.000    0.000    0.000    0.000 
#
# Total GULP energy -495619.888125 kJ/mol
# GULP energy per Si atom -12390.497203 kJ/mol
# Density = 2.264033 g / cm^3
# Si number density = 22.691978 Si / 1000 Ang^3
#
#
#
# Elastic Constant Matrix: (Units=GPa)
#
#
# Indices 1 2 3 4 5 6 
#
# 1 88.0254 24.5147 22.3278 0.0000 0.0000 0.0000
# 2 24.5147 179.2825 30.3717 0.0000 0.0000 0.0000
# 3 22.3278 30.3717 93.7507 0.0000 0.0000 0.0000
# 4 0.0000 0.0000 0.0000 37.6889 0.0000 0.0000
# 5 0.0000 0.0000 0.0000 0.0000 10.8400 0.0000
# 6 0.0000 0.0000 0.0000 0.0000 0.0000 11.8982
#
#
#
# Elastic Compliance Matrix: (Units=1/GPa)
#
#
# Indices 1 2 3 4 5 6 
#
# 1 0.012354 -0.001260 -0.002534 0.000000 0.000000 0.000000
# 2 -0.001260 0.006030 -0.001653 0.000000 0.000000 0.000000
# 3 -0.002534 -0.001653 0.011806 0.000000 0.000000 0.000000
# 4 0.000000 0.000000 0.000000 0.026533 0.000000 0.000000
# 5 0.000000 0.000000 0.000000 0.000000 0.092251 0.000000
# 6 0.000000 0.000000 0.000000 0.000000 0.000000 0.084047
#
#
# Mechanical properties :
#
#
# Convention : Reuss Voigt Hill
#
# Bulk Modulus (GPa) = 51.82706 57.27634 54.55170
# Shear Modulus (GPa) = 19.97227 31.00838 25.49032
#
# Velocity S-wave (km/s) = 2.96994 3.70062 3.35523
# Velocity P-wave (km/s) = 5.88640 6.59962 6.25319
#
# Compressibility (1/GPa) = 0.01929494
#
# Stress axis : x y z
#
# Youngs Moduli (GPa) = 80.94523 165.83233 84.70435
#
# Poissons Ratio (x) = 0.20894 0.21465
# Poissons Ratio (y) = 0.10199 0.14006
# Poissons Ratio (z) = 0.20512 0.27420
#
# Static dielectric constant tensor:
#      x y z
#    x 4.083540 0.000000 0.000000 
#    y 0.000000 3.382760 0.000000 
#    z 0.000000 0.000000 3.895970 
# 
# 
# High freq. dielectric constant tensor:
#      x y z
#    x 1.869020 0.000000 0.000000 
#    y 0.000000 1.929800 0.000000 
#    z 0.000000 0.000000 1.877100 
# 
# From -- ./inp_files/53847.got.cif
#   From: 2010.03.12/outbox.cif.g09.slc.cpg/sg64_27_cif.got.tgz:53847.got - 2010.04.10 20:19:32.
