data_PCOD8264871
_publ_section_title
;
Structure prediction by ZEFSAII (Michael W. Deem and Ramdas Pophale) SiO2 
 PCOD8264871
Probable space group: C M C A
;
_chemical_formula_sum "Si O2"
_cell_formula_units_Z 112
_cell_length_a 26.087878
_cell_length_b 11.394951
_cell_length_c 15.248422
_cell_angle_alpha 90.000000
_cell_angle_beta 90.000000
_cell_angle_gamma 90.000000
_cell_volume 4532.899803
_symmetry_space_group_name_H-M "C M C A"
_symmetry_group_IT_number 64
_symmetry_cell_setting 'orthorhombic'
loop_
_space_group_symop_operation_xyz
x,y,z
-x,1/2-y,1/2+z
x,-y,-z
-x,1/2+y,1/2-z
-x,-y,-z
x,1/2+y,1/2-z
-x,y,z
x,1/2-y,1/2+z
1/2+x,1/2+y,z
1/2-x,-y,1/2+z
1/2+x,1/2-y,-z
1/2-x,y,1/2-z
1/2-x,1/2-y,-z
1/2+x,y,1/2-z
1/2-x,1/2+y,z
1/2+x,-y,1/2+z
loop_
_atom_site_type_symbol
_atom_site_label
_atom_site_fract_x
_atom_site_fract_y
_atom_site_fract_z
Si Si1 0.940733 0.248608 0.804053
Si Si2 0.442306 0.163056 0.392316
Si Si3 0.091790 0.635372 0.020089
Si Si4 0.126880 0.529510 0.655783
Si Si5 0.219809 0.697368 0.658171
Si Si6 0.699533 0.106178 0.948407
Si Si7 0.194114 0.442326 0.793536
O O1 0.932255 0.300261 0.707797
O O2 0.913448 0.122844 0.808188
O O3 0.000000 0.226078 0.823503
O O4 0.919585 0.337633 0.878441
O O5 0.500000 0.114639 0.402847
O O6 0.437260 0.273234 0.457443
O O7 0.402225 0.055885 0.414783
O O8 0.152006 0.656668 0.002272
O O9 0.075968 0.500000 0.000000
O O10 0.179597 0.596305 0.629868
O O11 0.146581 0.437115 0.727754
O O12 0.250000 0.673498 0.750000
O O13 0.260261 0.706971 0.577913
O O14 0.190501 0.819391 0.656307
O O15 0.680708 0.050108 0.856687
O O16 0.727454 0.000000 0.000000
O O17 0.250000 0.457490 0.750000
#
# Coordination Sequence:
#
# PCOD8264871 Si02
#       7
#    16  16  16  16  16  16  16
#     4  11  27  49  77 112 151 200 262 332 390 457
#     4  11  27  47  79 115 148 202 259 320 395 465
#     4  11  28  50  80 113 156 201 259 323 392 465
#     4  12  23  44  75 104 151 200 254 311 386 462
#     4  11  24  42  72 103 147 203 248 306 380 458
#     4  11  24  42  65 106 146 192 250 306 376 454
#     4  11  23  43  69 105 145 196 251 308 372 454
#
# _framework density 24.708247
#
# number of rings (size 3 to 8) (size 9 to 14) (size 15 to 20)
#    0.000    0.857    2.857    2.571   14.000    2.286 
#    2.571    1.429    0.000    0.000    0.000    0.000 
#    0.000    0.000    0.000    0.000    0.000    0.000 
#
# Total GULP energy -693814.053998 kJ/mol
# GULP energy per Si atom -12389.536679 kJ/mol
# Density = 2.465201 g / cm^3
# Si number density = 24.708247 Si / 1000 Ang^3
#
#
#
# Elastic Constant Matrix: (Units=GPa)
#
#
# Indices 1 2 3 4 5 6 
#
# 1 112.7436 45.7548 23.8932 0.0000 0.0000 0.0000
# 2 45.7548 114.2881 9.6516 0.0000 0.0000 0.0000
# 3 23.8932 9.6516 87.3208 0.0000 0.0000 0.0000
# 4 0.0000 0.0000 0.0000 11.7646 0.0000 0.0000
# 5 0.0000 0.0000 0.0000 0.0000 36.6085 0.0000
# 6 0.0000 0.0000 0.0000 0.0000 0.0000 35.3713
#
#
#
# Elastic Compliance Matrix: (Units=1/GPa)
#
#
# Indices 1 2 3 4 5 6 
#
# 1 0.011137 -0.004241 -0.002579 0.000000 0.000000 0.000000
# 2 -0.004241 0.010447 0.000006 0.000000 0.000000 0.000000
# 3 -0.002579 0.000006 0.012157 0.000000 0.000000 0.000000
# 4 0.000000 0.000000 0.000000 0.085001 0.000000 0.000000
# 5 0.000000 0.000000 0.000000 0.000000 0.027316 0.000000
# 6 0.000000 0.000000 0.000000 0.000000 0.000000 0.028272
#
#
# Mechanical properties :
#
#
# Convention : Reuss Voigt Hill
#
# Bulk Modulus (GPa) = 49.71777 52.55019 51.13398
# Shear Modulus (GPa) = 25.68552 32.41907 29.05229
#
# Velocity S-wave (km/s) = 3.22771 3.62619 3.43273
# Velocity P-wave (km/s) = 5.83579 6.23272 6.03751
#
# Compressibility (1/GPa) = 0.02011353
#
# Stress axis : x y z
#
# Youngs Moduli (GPa) = 89.78835 95.71932 82.25721
#
# Poissons Ratio (x) = 0.40595 0.21212
# Poissons Ratio (y) = 0.38079 -0.00047
# Poissons Ratio (z) = 0.23154 -0.00055
#
# Static dielectric constant tensor:
#      x y z
#    x 4.759010 0.000000 0.000000 
#    y 0.000000 4.749740 0.000000 
#    z 0.000000 0.000000 4.603200 
# 
# 
# High freq. dielectric constant tensor:
#      x y z
#    x 1.994110 0.000000 0.000000 
#    y 0.000000 1.991430 0.000000 
#    z 0.000000 0.000000 1.980870 
# 
# From -- ./inp_files/28419.got.cif
#   From: 2010.03.12/outbox.cif.g09.slc.cpg/sg64_15_cif.got.tgz:28419.got - 2010.04.10 20:19:32.
