data_PCOD8264861
_publ_section_title
;
Structure prediction by ZEFSAII (Michael W. Deem and Ramdas Pophale) SiO2 
 PCOD8264861
Probable space group: C M C A
;
_chemical_formula_sum "Si O2"
_cell_formula_units_Z 96
_cell_length_a 24.525246
_cell_length_b 9.643595
_cell_length_c 19.362195
_cell_angle_alpha 90.000000
_cell_angle_beta 90.000000
_cell_angle_gamma 90.000000
_cell_volume 4579.382551
_symmetry_space_group_name_H-M "C M C A"
_symmetry_group_IT_number 64
_symmetry_cell_setting 'orthorhombic'
loop_
_space_group_symop_operation_xyz
x,y,z
-x,1/2-y,1/2+z
x,-y,-z
-x,1/2+y,1/2-z
-x,-y,-z
x,1/2+y,1/2-z
-x,y,z
x,1/2-y,1/2+z
1/2+x,1/2+y,z
1/2-x,-y,1/2+z
1/2+x,1/2-y,-z
1/2-x,y,1/2-z
1/2-x,1/2-y,-z
1/2+x,y,1/2-z
1/2-x,1/2+y,z
1/2+x,-y,1/2+z
loop_
_atom_site_type_symbol
_atom_site_label
_atom_site_fract_x
_atom_site_fract_y
_atom_site_fract_z
Si Si1 0.242217 0.537303 0.114338
Si Si2 0.639810 0.088345 0.937765
Si Si3 0.897895 0.873775 0.285657
Si Si4 0.642201 0.901103 0.561176
Si Si5 0.792586 0.709751 0.697693
Si Si6 0.939616 0.084953 0.180670
O O1 0.204150 0.447899 0.063360
O O2 0.293335 0.597864 0.073166
O O3 0.204410 0.666851 0.140878
O O4 0.267348 0.434897 0.171638
O O5 0.619630 0.061209 0.859418
O O6 0.627114 0.245332 0.959029
O O7 0.611593 0.000000 0.000000
O O8 0.848268 0.819248 0.238237
O O9 0.937402 0.744969 0.298017
O O10 0.931481 0.992590 0.248210
O O11 0.607891 0.953259 0.626842
O O12 0.624204 0.000000 0.500000
O O13 0.750000 0.777898 0.750000
O O14 0.000000 0.056485 0.149828
#
# Coordination Sequence:
#
# PCOD8264861 Si02
#       6
#    16  16  16  16  16  16
#     4  12  22  38  60  94 130 170 210 250 299 380
#     4  11  25  40  60  92 133 173 208 253 310 383
#     4  11  23  42  66  95 128 166 209 270 324 380
#     4  11  25  42  61  91 130 171 211 258 315 378
#     4  12  22  35  63  95 132 167 207 250 310 378
#     4  11  24  44  69  95 121 159 217 276 329 376
#
# _framework density 20.963526000000002
#
# number of rings (size 3 to 8) (size 9 to 14) (size 15 to 20)
#    0.000    0.667    5.000    3.500    2.333    3.000 
#    0.000    0.000    0.000   12.500    0.000    0.000 
#    0.000    0.000    0.000    0.000    0.000    0.000 
#
# Total GULP energy -594964.720244 kJ/mol
# GULP energy per Si atom -12395.098338 kJ/mol
# Density = 2.091581 g / cm^3
# Si number density = 20.963526 Si / 1000 Ang^3
#
#
#
# Elastic Constant Matrix: (Units=GPa)
#
#
# Indices 1 2 3 4 5 6 
#
# 1 79.6974 15.7929 25.1224 0.0000 0.0000 0.0000
# 2 15.7929 98.4933 60.5490 0.0000 0.0000 0.0000
# 3 25.1224 60.5490 111.3932 0.0000 0.0000 0.0000
# 4 0.0000 0.0000 0.0000 45.0964 0.0000 0.0000
# 5 0.0000 0.0000 0.0000 0.0000 8.6623 0.0000
# 6 0.0000 0.0000 0.0000 0.0000 0.0000 9.6006
#
#
#
# Elastic Compliance Matrix: (Units=1/GPa)
#
#
# Indices 1 2 3 4 5 6 
#
# 1 0.013520 -0.000441 -0.002810 0.000000 0.000000 0.000000
# 2 -0.000441 0.015263 -0.008197 0.000000 0.000000 0.000000
# 3 -0.002810 -0.008197 0.014066 0.000000 0.000000 0.000000
# 4 0.000000 0.000000 0.000000 0.022175 0.000000 0.000000
# 5 0.000000 0.000000 0.000000 0.000000 0.115443 0.000000
# 6 0.000000 0.000000 0.000000 0.000000 0.000000 0.104161
#
#
# Mechanical properties :
#
#
# Convention : Reuss Voigt Hill
#
# Bulk Modulus (GPa) = 50.11255 54.72362 52.41808
# Shear Modulus (GPa) = 15.91478 25.21317 20.56398
#
# Velocity S-wave (km/s) = 2.75828 3.47178 3.13540
# Velocity P-wave (km/s) = 5.83958 6.49861 6.17789
#
# Compressibility (1/GPa) = 0.01995508
#
# Stress axis : x y z
#
# Youngs Moduli (GPa) = 73.96194 65.51955 71.09175
#
# Poissons Ratio (x) = 0.02887 0.19975
# Poissons Ratio (y) = 0.03259 0.58272
# Poissons Ratio (z) = 0.20781 0.53705
#
# Static dielectric constant tensor:
#      x y z
#    x 3.592760 0.000000 0.000000 
#    y 0.000000 3.927260 0.000000 
#    z 0.000000 0.000000 3.998880 
# 
# 
# High freq. dielectric constant tensor:
#      x y z
#    x 1.793140 0.000000 0.000000 
#    y 0.000000 1.837040 0.000000 
#    z 0.000000 0.000000 1.821100 
# 
# From -- ./inp_files/41801.got.cif
#   From: 2010.03.12/outbox.cif.g09.slc.cpg/sg64_21_cif.got.tgz:41801.got - 2010.04.10 20:19:32.
