data_PCOD8264414
_publ_section_title
;
Structure prediction by ZEFSAII (Michael W. Deem and Ramdas Pophale) SiO2 
 PCOD8264414
Probable space group: C M C A
;
_chemical_formula_sum "Si O2"
_cell_formula_units_Z 96
_cell_length_a 22.946466
_cell_length_b 9.645850
_cell_length_c 21.922284
_cell_angle_alpha 90.000000
_cell_angle_beta 90.000000
_cell_angle_gamma 90.000000
_cell_volume 4852.238202
_symmetry_space_group_name_H-M "C M C A"
_symmetry_group_IT_number 64
_symmetry_cell_setting 'orthorhombic'
loop_
_space_group_symop_operation_xyz
x,y,z
-x,1/2-y,1/2+z
x,-y,-z
-x,1/2+y,1/2-z
-x,-y,-z
x,1/2+y,1/2-z
-x,y,z
x,1/2-y,1/2+z
1/2+x,1/2+y,z
1/2-x,-y,1/2+z
1/2+x,1/2-y,-z
1/2-x,y,1/2-z
1/2-x,1/2-y,-z
1/2+x,y,1/2-z
1/2-x,1/2+y,z
1/2+x,-y,1/2+z
loop_
_atom_site_type_symbol
_atom_site_label
_atom_site_fract_x
_atom_site_fract_y
_atom_site_fract_z
Si Si1 0.626467 0.030662 0.171455
Si Si2 0.565358 0.230562 0.614957
Si Si3 0.271282 0.754270 0.817846
Si Si4 0.138779 0.525212 0.692708
Si Si5 0.652106 0.757560 0.622739
Si Si6 0.066496 0.840228 0.983282
O O1 0.616584 0.967944 0.238296
O O2 0.628712 0.897108 0.129018
O O3 0.572386 0.123091 0.149454
O O4 0.682647 0.128526 0.163665
O O5 0.500000 0.180872 0.618342
O O6 0.597399 0.104893 0.647137
O O7 0.583137 0.246600 0.543985
O O8 0.250000 0.794377 0.750000
O O9 0.298015 0.598680 0.813730
O O10 0.222889 0.751842 0.872010
O O11 0.137153 0.362706 0.677398
O O12 0.620484 0.812514 0.562203
O O13 0.000000 0.801539 0.959784
O O14 0.067308 0.000000 0.000000
#
# Coordination Sequence:
#
# PCOD8264414 Si02
#       6
#    16  16  16  16  16  16
#     4  11  23  38  61 100 133 163 208 266 328 383
#     4  10  23  44  65  88 129 173 211 267 326 375
#     4  11  21  38  63  91 132 171 203 251 320 388
#     4  11  21  38  63  95 127 170 211 256 317 390
#     4  12  22  35  67  97 120 168 224 260 309 390
#     4  10  22  44  69  88 118 171 227 269 316 382
#
# _framework density 19.784683999999999
#
# number of rings (size 3 to 8) (size 9 to 14) (size 15 to 20)
#    0.000    1.167    5.000    2.000    0.000    2.000 
#    0.000    6.667    0.000    0.000    0.000    0.000 
#    0.000    0.000    0.000    0.000    0.000    0.000 
#
# Total GULP energy -594721.511602 kJ/mol
# GULP energy per Si atom -12390.031492 kJ/mol
# Density = 1.973965 g / cm^3
# Si number density = 19.784684 Si / 1000 Ang^3
#
#
#
# Elastic Constant Matrix: (Units=GPa)
#
#
# Indices 1 2 3 4 5 6 
#
# 1 70.5825 9.9787 62.0153 0.0000 0.0000 0.0000
# 2 9.9787 101.2404 12.7101 0.0000 0.0000 0.0000
# 3 62.0153 12.7101 90.1296 0.0000 0.0000 0.0000
# 4 0.0000 0.0000 0.0000 30.2232 0.0000 0.0000
# 5 0.0000 0.0000 0.0000 0.0000 30.4421 0.0000
# 6 0.0000 0.0000 0.0000 0.0000 0.0000 -40.2860
#
#
#
# Elastic Compliance Matrix: (Units=1/GPa)
#
#
# Indices 1 2 3 4 5 6 
#
# 1 0.035847 -0.000445 -0.024602 0.000000 0.000000 0.000000
# 2 -0.000445 0.010061 -0.001113 0.000000 0.000000 0.000000
# 3 -0.024602 -0.001113 0.028180 0.000000 0.000000 0.000000
# 4 0.000000 0.000000 0.000000 0.033087 0.000000 0.000000
# 5 0.000000 0.000000 0.000000 0.000000 0.032849 0.000000
# 6 0.000000 0.000000 0.000000 0.000000 0.000000 -0.024823
#
#
# Mechanical properties :
#
#
# Convention : Reuss Voigt Hill
#
# Bulk Modulus (GPa) = 45.93826 47.92895 46.93360
# Shear Modulus (GPa) = 28.60775 15.89242 22.25009
#
# Velocity S-wave (km/s) = 3.80670 2.83727 3.35716
# Velocity P-wave (km/s) = 6.52616 5.91704 6.22905
#
# Compressibility (1/GPa) = 0.02176835
#
# Stress axis : x y z
#
# Youngs Moduli (GPa) = 27.89644 99.39357 35.48591
#
# Poissons Ratio (x) = 0.04419 0.87304
# Poissons Ratio (y) = 0.01240 0.03949
# Poissons Ratio (z) = 0.68632 0.11062
#
# Static dielectric constant tensor:
#      x y z
#    x 3.906570 0.000000 0.000000 
#    y 0.000000 3.840870 0.000000 
#    z 0.000000 0.000000 3.765080 
# 
# 
# High freq. dielectric constant tensor:
#      x y z
#    x 1.766230 0.000000 0.000000 
#    y 0.000000 1.788260 0.000000 
#    z 0.000000 0.000000 1.756900 
# 
# From -- ./inp_files/46593.got.cif
#   From: 2010.03.12/outbox.cif.g09.slc.cpg/sg64_24_cif.got.tgz:46593.got - 2010.04.10 20:19:32.
