data_PCOD8264548
_publ_section_title
;
Structure prediction by ZEFSAII (Michael W. Deem and Ramdas Pophale) SiO2 
 PCOD8264548
Probable space group: C M C A
;
_chemical_formula_sum "Si O2"
_cell_formula_units_Z 88
_cell_length_a 14.574337
_cell_length_b 28.933602
_cell_length_c 9.922057
_cell_angle_alpha 90.000000
_cell_angle_beta 90.000000
_cell_angle_gamma 90.000000
_cell_volume 4184.013029
_symmetry_space_group_name_H-M "C M C A"
_symmetry_group_IT_number 64
_symmetry_cell_setting 'orthorhombic'
loop_
_space_group_symop_operation_xyz
x,y,z
-x,1/2-y,1/2+z
x,-y,-z
-x,1/2+y,1/2-z
-x,-y,-z
x,1/2+y,1/2-z
-x,y,z
x,1/2-y,1/2+z
1/2+x,1/2+y,z
1/2-x,-y,1/2+z
1/2+x,1/2-y,-z
1/2-x,y,1/2-z
1/2-x,1/2-y,-z
1/2+x,y,1/2-z
1/2-x,1/2+y,z
1/2+x,-y,1/2+z
loop_
_atom_site_type_symbol
_atom_site_label
_atom_site_fract_x
_atom_site_fract_y
_atom_site_fract_z
Si Si1 0.106464 0.277185 0.784564
Si Si2 0.500000 0.953148 0.915976
Si Si3 0.893814 0.200378 0.583274
Si Si4 0.321481 0.896080 0.005793
Si Si5 0.500000 0.487950 0.156693
Si Si6 0.196772 0.969027 0.130963
Si Si7 0.750000 0.352864 0.750000
O O1 0.124344 0.271598 0.944144
O O2 0.142903 0.231612 0.706987
O O3 0.159702 0.321684 0.729317
O O4 0.000000 0.286007 0.751707
O O5 0.411087 0.923546 0.955598
O O6 0.500000 0.966971 0.756190
O O7 0.500000 0.000000 0.000000
O O8 0.845004 0.151074 0.583159
O O9 0.000000 0.190114 0.602639
O O10 0.258677 0.885786 0.877575
O O11 0.256874 0.923474 0.108425
O O12 0.592658 0.458025 0.181714
O O13 0.500000 0.500000 0.000000
O O14 0.250000 0.996629 0.250000
O O15 0.195027 0.000000 0.000000
#
# Coordination Sequence:
#
# PCOD8264548 Si02
#       7
#    16   8  16  16   8  16   8
#     4   9  19  38  63  88 126 167 205 252 319 376
#     4  12  24  44  72  88 125 177 217 259 330 392
#     4   9  18  39  64  93 126 164 213 256 308 384
#     4  11  23  39  67  97 128 164 220 271 308 395
#     4  10  24  40  64  94 123 167 205 271 326 384
#     4  11  24  44  65  93 128 170 216 269 333 387
#     4  10  24  38  62  98 122 170 216 254 324 384
#
# _framework density 21.032439
#
# number of rings (size 3 to 8) (size 9 to 14) (size 15 to 20)
#    0.000    1.818    0.909    2.727    7.636    2.909 
#    6.545    0.000    0.000    0.000    0.000    0.000 
#    0.000    0.000    0.000    0.000    0.000    0.000 
#
# Total GULP energy -545422.135302 kJ/mol
# GULP energy per Si atom -12395.957620 kJ/mol
# Density = 2.098457 g / cm^3
# Si number density = 21.032439 Si / 1000 Ang^3
#
#
#
# Elastic Constant Matrix: (Units=GPa)
#
#
# Indices 1 2 3 4 5 6 
#
# 1 137.6059 46.6928 52.4515 0.0000 0.0000 0.0000
# 2 46.6928 93.4856 48.7939 0.0000 0.0000 0.0000
# 3 52.4515 48.7939 85.1396 0.0000 0.0000 0.0000
# 4 0.0000 0.0000 0.0000 29.7589 0.0000 0.0000
# 5 0.0000 0.0000 0.0000 0.0000 30.7962 0.0000
# 6 0.0000 0.0000 0.0000 0.0000 0.0000 18.0244
#
#
#
# Elastic Compliance Matrix: (Units=1/GPa)
#
#
# Indices 1 2 3 4 5 6 
#
# 1 0.009894 -0.002512 -0.004656 0.000000 0.000000 0.000000
# 2 -0.002512 0.015900 -0.007565 0.000000 0.000000 0.000000
# 3 -0.004656 -0.007565 0.018949 0.000000 0.000000 0.000000
# 4 0.000000 0.000000 0.000000 0.033603 0.000000 0.000000
# 5 0.000000 0.000000 0.000000 0.000000 0.032472 0.000000
# 6 0.000000 0.000000 0.000000 0.000000 0.000000 0.055480
#
#
# Mechanical properties :
#
#
# Convention : Reuss Voigt Hill
#
# Bulk Modulus (GPa) = 65.45305 68.01192 66.73249
# Shear Modulus (GPa) = 24.89343 26.93542 25.91443
#
# Velocity S-wave (km/s) = 3.44404 3.58251 3.51396
# Velocity P-wave (km/s) = 6.85586 7.03700 6.94702
#
# Compressibility (1/GPa) = 0.01527813
#
# Stress axis : x y z
#
# Youngs Moduli (GPa) = 101.07022 62.89423 52.77246
#
# Poissons Ratio (x) = 0.15797 0.24571
# Poissons Ratio (y) = 0.25385 0.39922
# Poissons Ratio (z) = 0.47058 0.47579
#
# Static dielectric constant tensor:
#      x y z
#    x 4.314230 0.000000 0.000000 
#    y 0.000000 3.757430 0.000000 
#    z 0.000000 0.000000 4.110110 
# 
# 
# High freq. dielectric constant tensor:
#      x y z
#    x 1.840280 0.000000 0.000000 
#    y 0.000000 1.805150 0.000000 
#    z 0.000000 0.000000 1.835030 
# 
# From -- ./inp_files/14626.got.cif
#   From: 2010.03.12/outbox.cif.g09.slc.cpg/sg64_8_cif.got.tgz:14626.got - 2010.04.10 20:19:32.
