data_PCOD8264983
_publ_section_title
;
Structure prediction by ZEFSAII (Michael W. Deem and Ramdas Pophale) SiO2 
 PCOD8264983
Probable space group: C M C A
;
_chemical_formula_sum "Si O2"
_cell_formula_units_Z 72
_cell_length_a 20.751424
_cell_length_b 7.720190
_cell_length_c 16.872180
_cell_angle_alpha 90.000000
_cell_angle_beta 90.000000
_cell_angle_gamma 90.000000
_cell_volume 2703.006518
_symmetry_space_group_name_H-M "C M C A"
_symmetry_group_IT_number 64
_symmetry_cell_setting 'orthorhombic'
loop_
_space_group_symop_operation_xyz
x,y,z
-x,1/2-y,1/2+z
x,-y,-z
-x,1/2+y,1/2-z
-x,-y,-z
x,1/2+y,1/2-z
-x,y,z
x,1/2-y,1/2+z
1/2+x,1/2+y,z
1/2-x,-y,1/2+z
1/2+x,1/2-y,-z
1/2-x,y,1/2-z
1/2-x,1/2-y,-z
1/2+x,y,1/2-z
1/2-x,1/2+y,z
1/2+x,-y,1/2+z
loop_
_atom_site_type_symbol
_atom_site_label
_atom_site_fract_x
_atom_site_fract_y
_atom_site_fract_z
Si Si1 0.000000 0.704926 0.623101
Si Si2 0.181897 0.446693 0.709147
Si Si3 0.863403 0.000000 0.500000
Si Si4 0.000000 0.365138 0.722874
Si Si5 0.887255 0.133397 0.663408
Si Si6 0.859084 0.651494 0.562534
O O1 0.000000 0.878314 0.679504
O O2 0.063843 0.691648 0.569286
O O3 0.000000 0.560854 0.692390
O O4 0.250000 0.467943 0.750000
O O5 0.125213 0.473800 0.776252
O O6 0.176690 0.257513 0.668339
O O7 0.173122 0.600984 0.645325
O O8 0.904305 0.934285 0.424431
O O9 0.824259 0.830212 0.531580
O O10 0.939676 0.269319 0.687547
O O11 0.848285 0.500000 0.500000
#
# Coordination Sequence:
#
# PCOD8264983 Si02
#       6
#     8  16   8   8  16  16
#     4  12  25  41  76 115 161 211 258 330 408 485
#     4  12  26  51  79 108 158 214 267 326 392 479
#     4  12  28  47  80 120 164 204 266 335 406 484
#     4  12  22  43  74 113 161 204 264 333 392 486
#     4  12  25  47  75 116 153 210 268 327 409 475
#     4  12  25  50  77 121 163 205 268 334 409 482
#
# _framework density 26.637004999999998
#
# number of rings (size 3 to 8) (size 9 to 14) (size 15 to 20)
#    0.000    0.000    6.667    2.333    3.111    1.778 
#    2.000    3.333    0.000    0.000    0.000    0.000 
#    0.000    0.000    0.000    0.000    0.000    0.000 
#
# Total GULP energy -446186.749553 kJ/mol
# GULP energy per Si atom -12394.076376 kJ/mol
# Density = 2.657638 g / cm^3
# Si number density = 26.637005 Si / 1000 Ang^3
#
#
#
# Elastic Constant Matrix: (Units=GPa)
#
#
# Indices 1 2 3 4 5 6 
#
# 1 69.8291 11.0454 29.8376 0.0000 0.0000 0.0000
# 2 11.0454 155.6184 55.4633 0.0000 0.0000 0.0000
# 3 29.8376 55.4633 186.3909 0.0000 0.0000 0.0000
# 4 0.0000 0.0000 0.0000 52.0068 0.0000 0.0000
# 5 0.0000 0.0000 0.0000 0.0000 36.0381 0.0000
# 6 0.0000 0.0000 0.0000 0.0000 0.0000 329.3159
#
#
#
# Elastic Compliance Matrix: (Units=1/GPa)
#
#
# Indices 1 2 3 4 5 6 
#
# 1 0.015380 -0.000240 -0.002391 0.000000 0.000000 0.000000
# 2 -0.000240 0.007192 -0.002102 0.000000 0.000000 0.000000
# 3 -0.002391 -0.002102 0.006373 0.000000 0.000000 0.000000
# 4 0.000000 0.000000 0.000000 0.019228 0.000000 0.000000
# 5 0.000000 0.000000 0.000000 0.000000 0.027748 0.000000
# 6 0.000000 0.000000 0.000000 0.000000 0.000000 0.003037
#
#
# Mechanical properties :
#
#
# Convention : Reuss Voigt Hill
#
# Bulk Modulus (GPa) = 51.33153 67.17012 59.25082
# Shear Modulus (GPa) = 52.67786 104.50496 78.59141
#
# Velocity S-wave (km/s) = 4.45187 6.27042 5.43771
# Velocity P-wave (km/s) = 6.76299 8.81452 7.85601
#
# Compressibility (1/GPa) = 0.01948121
#
# Stress axis : x y z
#
# Youngs Moduli (GPa) = 65.01895 139.04228 156.90711
#
# Poissons Ratio (x) = 0.03331 0.37513
# Poissons Ratio (y) = 0.01558 0.32978
# Poissons Ratio (z) = 0.15545 0.29223
#
# Static dielectric constant tensor:
#      x y z
#    x 5.369240 0.000000 0.000000 
#    y 0.000000 5.508080 0.000000 
#    z 0.000000 0.000000 5.010040 
# 
# 
# High freq. dielectric constant tensor:
#      x y z
#    x 2.036730 0.000000 0.000000 
#    y 0.000000 2.104250 0.000000 
#    z 0.000000 0.000000 2.079710 
# 
# From -- ./inp_files/34865.got.cif
#   From: 2010.03.12/outbox.cif.g09.slc.cpg/sg64_18_cif.got.tgz:34865.got - 2010.04.10 20:19:32.
