data_PCOD8264567
_publ_section_title
;
Structure prediction by ZEFSAII (Michael W. Deem and Ramdas Pophale) SiO2 
 PCOD8264567
Probable space group: C M C A
;
_chemical_formula_sum "Si O2"
_cell_formula_units_Z 88
_cell_length_a 14.909044
_cell_length_b 26.982364
_cell_length_c 10.155817
_cell_angle_alpha 90.000000
_cell_angle_beta 90.000000
_cell_angle_gamma 90.000000
_cell_volume 4085.494779
_symmetry_space_group_name_H-M "C M C A"
_symmetry_group_IT_number 64
_symmetry_cell_setting 'orthorhombic'
loop_
_space_group_symop_operation_xyz
x,y,z
-x,1/2-y,1/2+z
x,-y,-z
-x,1/2+y,1/2-z
-x,-y,-z
x,1/2+y,1/2-z
-x,y,z
x,1/2-y,1/2+z
1/2+x,1/2+y,z
1/2-x,-y,1/2+z
1/2+x,1/2-y,-z
1/2-x,y,1/2-z
1/2-x,1/2-y,-z
1/2+x,y,1/2-z
1/2-x,1/2+y,z
1/2+x,-y,1/2+z
loop_
_atom_site_type_symbol
_atom_site_label
_atom_site_fract_x
_atom_site_fract_y
_atom_site_fract_z
Si Si1 0.097434 0.286944 0.753114
Si Si2 0.500000 0.050195 0.080354
Si Si3 0.839486 0.220092 0.530219
Si Si4 0.318998 0.895223 0.006812
Si Si5 0.500000 0.510380 0.843689
Si Si6 0.196847 0.970334 0.134676
Si Si7 0.750000 0.365670 0.750000
O O1 0.117309 0.239308 0.664088
O O2 0.164430 0.331339 0.726352
O O3 0.000000 0.308098 0.717957
O O4 0.097567 0.269711 0.904771
O O5 0.414649 0.081430 0.031445
O O6 0.500000 0.036719 0.239382
O O7 0.500000 0.000000 0.000000
O O8 0.750000 0.250000 0.500000
O O9 0.826455 0.161633 0.550421
O O10 0.259111 0.900202 0.875869
O O11 0.260666 0.922077 0.119065
O O12 0.593286 0.540799 0.819788
O O13 0.500000 0.500000 0.000000
O O14 0.250000 0.000404 0.250000
O O15 0.197833 0.000000 0.000000
#
# Coordination Sequence:
#
# PCOD8264567 Si02
#       7
#    16   8  16  16   8  16   8
#     4  11  22  41  69  94 137 180 228 275 335 399
#     4  12  26  48  72  97 133 178 241 281 339 425
#     4  11  22  45  65 102 139 181 227 280 337 406
#     4  11  25  41  72  97 136 183 227 281 345 417
#     4  10  24  42  66 101 127 160 217 291 334 395
#     4  11  24  44  68  96 131 175 224 281 350 402
#     4  10  24  42  64 106 130 182 230 274 342 412
#
# _framework density 21.539618000000001
#
# number of rings (size 3 to 8) (size 9 to 14) (size 15 to 20)
#    0.000    1.091    3.636    3.273   12.727    1.455 
#    1.636    0.000    4.000    0.000    0.000    0.000 
#    0.000    0.000    0.000    0.000    0.000    0.000 
#
# Total GULP energy -545092.503166 kJ/mol
# GULP energy per Si atom -12388.465981 kJ/mol
# Density = 2.149059 g / cm^3
# Si number density = 21.539618 Si / 1000 Ang^3
#
#
#
# Elastic Constant Matrix: (Units=GPa)
#
#
# Indices 1 2 3 4 5 6 
#
# 1 197.7958 57.8949 39.0514 0.0000 0.0000 0.0000
# 2 57.8949 95.3776 29.6938 0.0000 0.0000 0.0000
# 3 39.0514 29.6938 90.5318 0.0000 0.0000 0.0000
# 4 0.0000 0.0000 0.0000 30.3341 0.0000 0.0000
# 5 0.0000 0.0000 0.0000 0.0000 30.0371 0.0000
# 6 0.0000 0.0000 0.0000 0.0000 0.0000 89.5082
#
#
#
# Elastic Compliance Matrix: (Units=1/GPa)
#
#
# Indices 1 2 3 4 5 6 
#
# 1 0.006361 -0.003349 -0.001645 0.000000 0.000000 0.000000
# 2 -0.003349 0.013440 -0.002964 0.000000 0.000000 0.000000
# 3 -0.001645 -0.002964 0.012728 0.000000 0.000000 0.000000
# 4 0.000000 0.000000 0.000000 0.032966 0.000000 0.000000
# 5 0.000000 0.000000 0.000000 0.000000 0.033292 0.000000
# 6 0.000000 0.000000 0.000000 0.000000 0.000000 0.011172
#
#
# Mechanical properties :
#
#
# Convention : Reuss Voigt Hill
#
# Bulk Modulus (GPa) = 60.19480 70.77615 65.48547
# Shear Modulus (GPa) = 38.04818 47.11355 42.58087
#
# Velocity S-wave (km/s) = 4.20745 4.68193 4.45102
# Velocity P-wave (km/s) = 7.18403 7.88398 7.54213
#
# Compressibility (1/GPa) = 0.01661273
#
# Stress axis : x y z
#
# Youngs Moduli (GPa) = 157.21397 74.40442 78.56897
#
# Poissons Ratio (x) = 0.24916 0.12928
# Poissons Ratio (y) = 0.52647 0.23286
# Poissons Ratio (z) = 0.25868 0.22051
#
# Static dielectric constant tensor:
#      x y z
#    x 3.816830 0.000000 0.000000 
#    y 0.000000 3.844220 0.000000 
#    z 0.000000 0.000000 4.596290 
# 
# 
# High freq. dielectric constant tensor:
#      x y z
#    x 1.864870 0.000000 0.000000 
#    y 0.000000 1.822800 0.000000 
#    z 0.000000 0.000000 1.867330 
# 
# From -- ./inp_files/14624.got.cif
#   From: 2010.03.12/outbox.cif.g09.slc.cpg/sg64_8_cif.got.tgz:14624.got - 2010.04.10 20:19:32.
