data_PCOD8264674
_publ_section_title
;
Structure prediction by ZEFSAII (Michael W. Deem and Ramdas Pophale) SiO2 
 PCOD8264674
Probable space group: C M C A
;
_chemical_formula_sum "Si O2"
_cell_formula_units_Z 96
_cell_length_a 18.114739
_cell_length_b 23.116551
_cell_length_c 12.806635
_cell_angle_alpha 90.000000
_cell_angle_beta 90.000000
_cell_angle_gamma 90.000000
_cell_volume 5362.782094
_symmetry_space_group_name_H-M "C M C A"
_symmetry_group_IT_number 64
_symmetry_cell_setting 'orthorhombic'
loop_
_space_group_symop_operation_xyz
x,y,z
-x,1/2-y,1/2+z
x,-y,-z
-x,1/2+y,1/2-z
-x,-y,-z
x,1/2+y,1/2-z
-x,y,z
x,1/2-y,1/2+z
1/2+x,1/2+y,z
1/2-x,-y,1/2+z
1/2+x,1/2-y,-z
1/2-x,y,1/2-z
1/2-x,1/2-y,-z
1/2+x,y,1/2-z
1/2-x,1/2+y,z
1/2+x,-y,1/2+z
loop_
_atom_site_type_symbol
_atom_site_label
_atom_site_fract_x
_atom_site_fract_y
_atom_site_fract_z
Si Si1 0.086006 0.929163 0.094764
Si Si2 0.086619 0.753708 0.361367
Si Si3 0.586264 0.060328 0.358880
Si Si4 0.168608 0.834879 0.224261
Si Si5 0.836054 0.154230 0.268438
Si Si6 0.673023 0.263165 0.557698
O O1 0.128199 0.886308 0.168563
O O2 0.000000 0.916595 0.101831
O O3 0.103733 0.992329 0.140468
O O4 0.110957 0.918445 0.974692
O O5 0.123406 0.814647 0.326388
O O6 0.120770 0.698511 0.305169
O O7 0.104009 0.748623 0.484040
O O8 0.000000 0.754890 0.340715
O O9 0.500000 0.072385 0.340579
O O10 0.630976 0.091412 0.264315
O O11 0.250000 0.857461 0.250000
O O12 0.172470 0.777954 0.155972
O O13 0.750000 0.154677 0.250000
O O14 0.841365 0.172561 0.391732
O O15 0.750000 0.250000 0.500000
#
# Coordination Sequence:
#
# PCOD8264674 Si02
#       6
#    16  16  16  16  16  16
#     4   9  19  36  58  80 108 142 182 234 283 326
#     4  11  22  35  53  81 110 142 184 224 274 340
#     4   9  19  36  56  82 109 139 185 236 278 327
#     4  11  21  34  57  77 108 145 178 225 275 332
#     4  11  21  33  56  79 111 147 181 231 281 334
#     4  11  20  37  53  78 113 148 181 225 284 333
#
# _framework density 17.901156
#
# number of rings (size 3 to 8) (size 9 to 14) (size 15 to 20)
#    0.000    1.667    3.333    4.000    0.000    6.000 
#    0.000    0.000    0.000    1.000    0.000    3.500 
#    0.000    0.000    0.000    0.000    0.000    0.000 
#
# Total GULP energy -594827.196733 kJ/mol
# GULP energy per Si atom -12392.233265 kJ/mol
# Density = 1.786041 g / cm^3
# Si number density = 17.901156 Si / 1000 Ang^3
#
#
#
# Elastic Constant Matrix: (Units=GPa)
#
#
# Indices 1 2 3 4 5 6 
#
# 1 75.9298 28.0563 11.2492 0.0000 0.0000 0.0000
# 2 28.0563 55.5768 15.8299 0.0000 0.0000 0.0000
# 3 11.2492 15.8299 57.6388 0.0000 0.0000 0.0000
# 4 0.0000 0.0000 0.0000 25.8421 0.0000 0.0000
# 5 0.0000 0.0000 0.0000 0.0000 30.0950 0.0000
# 6 0.0000 0.0000 0.0000 0.0000 0.0000 15.8668
#
#
#
# Elastic Compliance Matrix: (Units=1/GPa)
#
#
# Indices 1 2 3 4 5 6 
#
# 1 0.016243 -0.007916 -0.000996 0.000000 0.000000 0.000000
# 2 -0.007916 0.023378 -0.004876 0.000000 0.000000 0.000000
# 3 -0.000996 -0.004876 0.018883 0.000000 0.000000 0.000000
# 4 0.000000 0.000000 0.000000 0.038697 0.000000 0.000000
# 5 0.000000 0.000000 0.000000 0.000000 0.033228 0.000000
# 6 0.000000 0.000000 0.000000 0.000000 0.000000 0.063025
#
#
# Mechanical properties :
#
#
# Convention : Reuss Voigt Hill
#
# Bulk Modulus (GPa) = 32.33274 33.26846 32.80060
# Shear Modulus (GPa) = 21.61347 23.29477 22.45412
#
# Velocity S-wave (km/s) = 3.47850 3.61127 3.54551
# Velocity P-wave (km/s) = 5.85101 6.00110 5.92653
#
# Compressibility (1/GPa) = 0.03092840
#
# Stress axis : x y z
#
# Youngs Moduli (GPa) = 61.56658 42.77542 52.95812
#
# Poissons Ratio (x) = 0.33861 0.05275
# Poissons Ratio (y) = 0.48735 0.25820
# Poissons Ratio (z) = 0.06132 0.20855
#
# Static dielectric constant tensor:
#      x y z
#    x 5.050230 0.000000 0.000000 
#    y 0.000000 3.343210 0.000000 
#    z 0.000000 0.000000 3.388450 
# 
# 
# High freq. dielectric constant tensor:
#      x y z
#    x 1.695930 0.000000 0.000000 
#    y 0.000000 1.681330 0.000000 
#    z 0.000000 0.000000 1.690480 
# 
# From -- ./inp_files/16220.got.cif
#   From: 2010.03.12/outbox.cif.g09.slc.cpg/sg64_9_cif.got.tgz:16220.got - 2010.04.10 20:19:32.
