data_PCOD8264276
_publ_section_title
;
Structure prediction by ZEFSAII (Michael W. Deem and Ramdas Pophale) SiO2 
 PCOD8264276
Probable space group: C M C A
;
_chemical_formula_sum "Si O2"
_cell_formula_units_Z 64
_cell_length_a 9.363476
_cell_length_b 17.405378
_cell_length_c 19.295883
_cell_angle_alpha 90.000000
_cell_angle_beta 90.000000
_cell_angle_gamma 90.000000
_cell_volume 3144.743429
_symmetry_space_group_name_H-M "C M C A"
_symmetry_group_IT_number 64
_symmetry_cell_setting 'orthorhombic'
loop_
_space_group_symop_operation_xyz
x,y,z
-x,1/2-y,1/2+z
x,-y,-z
-x,1/2+y,1/2-z
-x,-y,-z
x,1/2+y,1/2-z
-x,y,z
x,1/2-y,1/2+z
1/2+x,1/2+y,z
1/2-x,-y,1/2+z
1/2+x,1/2-y,-z
1/2-x,y,1/2-z
1/2-x,1/2-y,-z
1/2+x,y,1/2-z
1/2-x,1/2+y,z
1/2+x,-y,1/2+z
loop_
_atom_site_type_symbol
_atom_site_label
_atom_site_fract_x
_atom_site_fract_y
_atom_site_fract_z
Si Si1 0.274757 0.072921 0.950203
Si Si2 0.500000 0.164800 0.592934
Si Si3 0.000000 0.830457 0.527323
Si Si4 0.500000 0.684853 0.743176
Si Si5 0.750000 0.217553 0.250000
Si Si6 0.500000 0.871462 0.821241
Si Si7 0.500000 0.463823 0.337875
O O1 0.359363 0.041626 0.884214
O O2 0.131587 0.110149 0.922460
O O3 0.360151 0.142764 0.985975
O O4 0.245314 0.000000 0.000000
O O5 0.500000 0.239228 0.542495
O O6 0.500000 0.194731 0.672699
O O7 0.000000 0.879232 0.596982
O O8 0.639181 0.726547 0.709282
O O9 0.500000 0.597258 0.723469
O O10 0.649153 0.167386 0.200833
O O11 0.500000 0.958021 0.793328
#
# Coordination Sequence:
#
# PCOD8264276 Si02
#       7
#    16   8   8   8   8   8   8
#     4  11  23  43  66  92 129 174 212 264 317 384
#     4  12  24  40  67  98 130 162 217 278 311 378
#     4  11  21  45  65  91 126 171 211 258 322 377
#     4  11  23  42  63  94 129 161 216 261 322 379
#     4  10  22  40  62  86 126 168 200 266 316 374
#     4  11  22  42  65  88 130 166 213 259 319 381
#     4  11  23  42  66  91 127 174 212 256 325 384
#
# _framework density 20.351423
#
# number of rings (size 3 to 8) (size 9 to 14) (size 15 to 20)
#    0.000    1.000    5.000    3.375    0.000    3.000 
#    0.000    2.500    0.000    0.000    0.000    0.000 
#    0.000    0.000    0.000    0.000    0.000    0.000 
#
# Total GULP energy -396595.279811 kJ/mol
# GULP energy per Si atom -12393.602494 kJ/mol
# Density = 2.030510 g / cm^3
# Si number density = 20.351423 Si / 1000 Ang^3
#
#
#
# Elastic Constant Matrix: (Units=GPa)
#
#
# Indices 1 2 3 4 5 6 
#
# 1 177.0236 72.5513 40.9276 0.0000 0.0000 0.0000
# 2 72.5513 162.1110 30.3552 0.0000 0.0000 0.0000
# 3 40.9276 30.3552 64.7316 0.0000 0.0000 0.0000
# 4 0.0000 0.0000 0.0000 43.5584 0.0000 0.0000
# 5 0.0000 0.0000 0.0000 0.0000 -105.5834 0.0000
# 6 0.0000 0.0000 0.0000 0.0000 0.0000 968.7694
#
#
#
# Elastic Compliance Matrix: (Units=1/GPa)
#
#
# Indices 1 2 3 4 5 6 
#
# 1 0.007582 -0.002736 -0.003511 0.000000 0.000000 0.000000
# 2 -0.002736 0.007750 -0.001904 0.000000 0.000000 0.000000
# 3 -0.003511 -0.001904 0.018561 0.000000 0.000000 0.000000
# 4 0.000000 0.000000 0.000000 0.022958 0.000000 0.000000
# 5 0.000000 0.000000 0.000000 0.000000 -0.009471 0.000000
# 6 0.000000 0.000000 0.000000 0.000000 0.000000 0.001032
#
#
# Mechanical properties :
#
#
# Convention : Reuss Voigt Hill
#
# Bulk Modulus (GPa) = 56.84811 76.83714 66.84263
# Shear Modulus (GPa) = 70.84462 198.68436 134.76449
#
# Velocity S-wave (km/s) = 5.90646 9.89134 8.14632
# Velocity P-wave (km/s) = 8.63185 12.97261 11.01811
#
# Compressibility (1/GPa) = 0.01759073
#
# Stress axis : x y z
#
# Youngs Moduli (GPa) = 131.89289 129.03924 53.87574
#
# Poissons Ratio (x) = 0.35303 0.18915
# Poissons Ratio (y) = 0.36083 0.10260
# Poissons Ratio (z) = 0.46306 0.24573
#
# Static dielectric constant tensor:
#      x y z
#    x 3.867430 0.000000 0.000000 
#    y 0.000000 3.948020 0.000000 
#    z 0.000000 0.000000 3.511620 
# 
# 
# High freq. dielectric constant tensor:
#      x y z
#    x 1.808340 0.000000 0.000000 
#    y 0.000000 1.820140 0.000000 
#    z 0.000000 0.000000 1.774880 
# 
# From -- ./inp_files/36361.got.cif
#   From: 2010.03.12/outbox.cif.g09.slc.cpg/sg64_19_cif.got.tgz:36361.got - 2010.04.10 20:19:32.
