data_PCOD8264568
_publ_section_title
;
Structure prediction by ZEFSAII (Michael W. Deem and Ramdas Pophale) SiO2 
 PCOD8264568
Probable space group: C M C A
;
_chemical_formula_sum "Si O2"
_cell_formula_units_Z 56
_cell_length_a 26.281538
_cell_length_b 8.968981
_cell_length_c 10.462968
_cell_angle_alpha 90.000000
_cell_angle_beta 90.000000
_cell_angle_gamma 90.000000
_cell_volume 2466.316325
_symmetry_space_group_name_H-M "C M C A"
_symmetry_group_IT_number 64
_symmetry_cell_setting 'orthorhombic'
loop_
_space_group_symop_operation_xyz
x,y,z
-x,1/2-y,1/2+z
x,-y,-z
-x,1/2+y,1/2-z
-x,-y,-z
x,1/2+y,1/2-z
-x,y,z
x,1/2-y,1/2+z
1/2+x,1/2+y,z
1/2-x,-y,1/2+z
1/2+x,1/2-y,-z
1/2-x,y,1/2-z
1/2-x,1/2-y,-z
1/2+x,y,1/2-z
1/2-x,1/2+y,z
1/2+x,-y,1/2+z
loop_
_atom_site_type_symbol
_atom_site_label
_atom_site_fract_x
_atom_site_fract_y
_atom_site_fract_z
Si Si1 0.793393 0.265778 0.345785
Si Si2 0.761837 0.000000 0.500000
Si Si3 0.558142 0.167624 0.393072
Si Si4 0.905004 0.151086 0.831776
O O1 0.750000 0.208698 0.250000
O O2 0.798243 0.130915 0.447004
O O3 0.775868 0.424776 0.399340
O O4 0.848625 0.298076 0.287791
O O5 0.500000 0.118240 0.413424
O O6 0.579745 0.223214 0.530735
O O7 0.559839 0.295592 0.285534
O O8 0.590633 0.026819 0.343381
#
# Coordination Sequence:
#
# PCOD8264568 Si02
#       4
#    16   8  16  16
#     4  11  25  41  66  97 138 176 227 272 333 403
#     4  10  24  42  64  90 140 176 224 272 326 388
#     4  11  24  47  71 101 136 176 231 287 342 405
#     4  11  26  42  72 100 136 181 224 279 348 403
#
# _framework density 22.705928
#
# number of rings (size 3 to 8) (size 9 to 14) (size 15 to 20)
#    0.000    1.143    0.000    6.000   16.000    1.143 
#    0.000    2.857    0.000    0.000    0.000    0.000 
#    0.000    0.000    0.000    0.000    0.000    0.000 
#
# Total GULP energy -347129.145479 kJ/mol
# GULP energy per Si atom -12397.469481 kJ/mol
# Density = 2.265425 g / cm^3
# Si number density = 22.705928 Si / 1000 Ang^3
#
#
#
# Elastic Constant Matrix: (Units=GPa)
#
#
# Indices 1 2 3 4 5 6 
#
# 1 139.8131 15.1367 14.7041 0.0000 0.0000 0.0000
# 2 15.1367 71.2171 23.0636 0.0000 0.0000 0.0000
# 3 14.7041 23.0636 122.1403 0.0000 0.0000 0.0000
# 4 0.0000 0.0000 0.0000 40.0971 0.0000 0.0000
# 5 0.0000 0.0000 0.0000 0.0000 32.9740 0.0000
# 6 0.0000 0.0000 0.0000 0.0000 0.0000 22.0631
#
#
#
# Elastic Compliance Matrix: (Units=1/GPa)
#
#
# Indices 1 2 3 4 5 6 
#
# 1 0.007366 -0.001362 -0.000630 0.000000 0.000000 0.000000
# 2 -0.001362 0.015208 -0.002708 0.000000 0.000000 0.000000
# 3 -0.000630 -0.002708 0.008774 0.000000 0.000000 0.000000
# 4 0.000000 0.000000 0.000000 0.024939 0.000000 0.000000
# 5 0.000000 0.000000 0.000000 0.000000 0.030327 0.000000
# 6 0.000000 0.000000 0.000000 0.000000 0.000000 0.045324
#
#
# Mechanical properties :
#
#
# Convention : Reuss Voigt Hill
#
# Bulk Modulus (GPa) = 45.55778 48.77549 47.16664
# Shear Modulus (GPa) = 33.63512 37.71125 35.67318
#
# Velocity S-wave (km/s) = 3.85299 4.07978 3.96800
# Velocity P-wave (km/s) = 6.31679 6.61217 6.46617
#
# Compressibility (1/GPa) = 0.02195015
#
# Stress axis : x y z
#
# Youngs Moduli (GPa) = 135.75795 65.75535 113.96782
#
# Poissons Ratio (x) = 0.08954 0.07176
# Poissons Ratio (y) = 0.18486 0.30860
# Poissons Ratio (z) = 0.08548 0.17805
#
# Static dielectric constant tensor:
#      x y z
#    x 3.946720 0.000000 0.000000 
#    y 0.000000 3.884210 0.000000 
#    z 0.000000 0.000000 4.614430 
# 
# 
# High freq. dielectric constant tensor:
#      x y z
#    x 1.894550 0.000000 0.000000 
#    y 0.000000 1.893800 0.000000 
#    z 0.000000 0.000000 1.898370 
# 
# From -- ./inp_files/18837.got.cif
#   From: 2010.03.12/outbox.cif.g09.slc.cpg/sg64_10_cif.got.tgz:18837.got - 2010.04.10 20:19:32.
