data_PCOD8264134
_publ_section_title
;
Structure prediction by ZEFSAII (Michael W. Deem and Ramdas Pophale) SiO2 
 PCOD8264134
Probable space group: C M C A
;
_chemical_formula_sum "Si O2"
_cell_formula_units_Z 96
_cell_length_a 24.975700
_cell_length_b 17.229421
_cell_length_c 11.607355
_cell_angle_alpha 90.000000
_cell_angle_beta 90.000000
_cell_angle_gamma 90.000000
_cell_volume 4994.840441
_symmetry_space_group_name_H-M "C M C A"
_symmetry_group_IT_number 64
_symmetry_cell_setting 'orthorhombic'
loop_
_space_group_symop_operation_xyz
x,y,z
-x,1/2-y,1/2+z
x,-y,-z
-x,1/2+y,1/2-z
-x,-y,-z
x,1/2+y,1/2-z
-x,y,z
x,1/2-y,1/2+z
1/2+x,1/2+y,z
1/2-x,-y,1/2+z
1/2+x,1/2-y,-z
1/2-x,y,1/2-z
1/2-x,1/2-y,-z
1/2+x,y,1/2-z
1/2-x,1/2+y,z
1/2+x,-y,1/2+z
loop_
_atom_site_type_symbol
_atom_site_label
_atom_site_fract_x
_atom_site_fract_y
_atom_site_fract_z
Si Si1 0.561690 0.414692 0.453546
Si Si2 0.168028 0.864307 0.044842
Si Si3 0.780550 0.084952 0.558985
Si Si4 0.853226 0.812250 0.581076
Si Si5 0.686308 0.894345 0.720183
Si Si6 0.135101 0.944796 0.257563
O O1 0.573881 0.500000 0.500000
O O2 0.500000 0.390831 0.459904
O O3 0.593149 0.351433 0.530467
O O4 0.579799 0.420408 0.320286
O O5 0.224556 0.882264 0.105333
O O6 0.147739 0.776781 0.045758
O O7 0.128376 0.914662 0.125846
O O8 0.174977 0.892749 0.915080
O O9 0.800433 0.143718 0.461716
O O10 0.818741 0.095959 0.667817
O O11 0.776860 0.000000 0.500000
O O12 0.843508 0.820730 0.719440
O O13 0.750000 0.903643 0.750000
O O14 0.650817 0.965555 0.765705
#
# Coordination Sequence:
#
# PCOD8264134 Si02
#       6
#    16  16  16  16  16  16
#     4  10  21  44  73  88 106 154 215 263 298 348
#     4  12  25  33  57  88 131 169 191 243 318 368
#     4  11  19  38  57  83 123 174 210 236 281 363
#     4  11  23  38  57  92 122 158 210 257 296 357
#     4  12  22  37  58  87 134 172 200 237 294 374
#     4  11  21  38  61  90 122 160 213 250 295 364
#
# _framework density 19.219833999999999
#
# number of rings (size 3 to 8) (size 9 to 14) (size 15 to 20)
#    0.000    0.833    5.000    4.500    4.667    0.000 
#    0.000    0.833    0.000    4.000    0.000    0.000 
#    0.000    0.000    0.000    0.000    0.000    0.000 
#
# Total GULP energy -594653.911404 kJ/mol
# GULP energy per Si atom -12388.623154 kJ/mol
# Density = 1.917609 g / cm^3
# Si number density = 19.219834 Si / 1000 Ang^3
#
#
#
# Elastic Constant Matrix: (Units=GPa)
#
#
# Indices 1 2 3 4 5 6 
#
# 1 60.9185 37.4056 25.8790 0.0000 0.0000 0.0000
# 2 37.4056 69.9006 12.8479 0.0000 0.0000 0.0000
# 3 25.8790 12.8479 119.7190 0.0000 0.0000 0.0000
# 4 0.0000 0.0000 0.0000 24.8645 0.0000 0.0000
# 5 0.0000 0.0000 0.0000 0.0000 17.1412 0.0000
# 6 0.0000 0.0000 0.0000 0.0000 0.0000 4.2531
#
#
#
# Elastic Compliance Matrix: (Units=1/GPa)
#
#
# Indices 1 2 3 4 5 6 
#
# 1 0.026438 -0.013361 -0.004281 0.000000 0.000000 0.000000
# 2 -0.013361 0.021346 0.000597 0.000000 0.000000 0.000000
# 3 -0.004281 0.000597 0.009214 0.000000 0.000000 0.000000
# 4 0.000000 0.000000 0.000000 0.040218 0.000000 0.000000
# 5 0.000000 0.000000 0.000000 0.000000 0.058339 0.000000
# 6 0.000000 0.000000 0.000000 0.000000 0.000000 0.235121
#
#
# Mechanical properties :
#
#
# Convention : Reuss Voigt Hill
#
# Bulk Modulus (GPa) = 43.65089 44.75589 44.20339
# Shear Modulus (GPa) = 11.56333 20.87880 16.22107
#
# Velocity S-wave (km/s) = 2.45549 3.29951 2.90828
# Velocity P-wave (km/s) = 5.54977 6.15244 5.85886
#
# Compressibility (1/GPa) = 0.02290904
#
# Stress axis : x y z
#
# Youngs Moduli (GPa) = 37.82455 46.84746 108.52806
#
# Poissons Ratio (x) = 0.62591 0.46462
# Poissons Ratio (y) = 0.50536 -0.06483
# Poissons Ratio (z) = 0.16193 -0.02798
#
# Static dielectric constant tensor:
#      x y z
#    x 3.283730 0.000000 0.000000 
#    y 0.000000 3.427790 0.000000 
#    z 0.000000 0.000000 4.011230 
# 
# 
# High freq. dielectric constant tensor:
#      x y z
#    x 1.709230 0.000000 0.000000 
#    y 0.000000 1.741550 0.000000 
#    z 0.000000 0.000000 1.767280 
# 
# From -- ./inp_files/19152.got.cif
#   From: 2010.03.12/outbox.cif.g09.slc.cpg/sg64_10_cif.got.tgz:19152.got - 2010.04.10 20:19:32.
