data_PCOD8264273
_publ_section_title
;
Structure prediction by ZEFSAII (Michael W. Deem and Ramdas Pophale) SiO2 
 PCOD8264273
Probable space group: C M C A
;
_chemical_formula_sum "Si O2"
_cell_formula_units_Z 80
_cell_length_a 17.845205
_cell_length_b 9.322745
_cell_length_c 23.921655
_cell_angle_alpha 90.000000
_cell_angle_beta 90.000000
_cell_angle_gamma 90.000000
_cell_volume 3979.757129
_symmetry_space_group_name_H-M "C M C A"
_symmetry_group_IT_number 64
_symmetry_cell_setting 'orthorhombic'
loop_
_space_group_symop_operation_xyz
x,y,z
-x,1/2-y,1/2+z
x,-y,-z
-x,1/2+y,1/2-z
-x,-y,-z
x,1/2+y,1/2-z
-x,y,z
x,1/2-y,1/2+z
1/2+x,1/2+y,z
1/2-x,-y,1/2+z
1/2+x,1/2-y,-z
1/2-x,y,1/2-z
1/2-x,1/2-y,-z
1/2+x,y,1/2-z
1/2-x,1/2+y,z
1/2+x,-y,1/2+z
loop_
_atom_site_type_symbol
_atom_site_label
_atom_site_fract_x
_atom_site_fract_y
_atom_site_fract_z
Si Si1 0.166837 0.923080 0.815380
Si Si2 0.201645 0.106829 0.649272
Si Si3 0.584304 0.145400 0.617926
Si Si4 0.214947 0.631051 0.538557
Si Si5 0.085844 0.409426 0.801536
O O1 0.198904 0.775395 0.839398
O O2 0.129856 0.895147 0.756026
O O3 0.236238 0.033716 0.810507
O O4 0.105835 0.988632 0.858202
O O5 0.224814 0.081146 0.584937
O O6 0.121171 0.034505 0.660164
O O7 0.500000 0.142025 0.594391
O O8 0.639716 0.190969 0.568028
O O9 0.592422 0.257065 0.668482
O O10 0.190955 0.500000 0.500000
O O11 0.250000 0.750000 0.500000
O O12 0.000000 0.452590 0.790192
#
# Coordination Sequence:
#
# PCOD8264273 Si02
#       5
#    16  16  16  16  16
#     4  11  22  38  61  88 121 157 192 233 288 355
#     4  11  23  39  60  89 118 153 202 244 287 350
#     4  10  22  40  61  89 121 153 196 245 293 351
#     4  11  22  40  62  83 112 153 200 251 300 341
#     4  11  23  39  59  87 125 159 187 231 292 353
#
# _framework density 20.101728999999999
#
# number of rings (size 3 to 8) (size 9 to 14) (size 15 to 20)
#    0.000    1.200    0.000    8.400    0.000    6.800 
#    0.000    1.000    0.000    3.600    0.000    0.000 
#    0.000    0.000    0.000    0.000    0.000    0.000 
#
# Total GULP energy -496158.869988 kJ/mol
# GULP energy per Si atom -12403.971750 kJ/mol
# Density = 2.005598 g / cm^3
# Si number density = 20.101729 Si / 1000 Ang^3
#
#
#
# Elastic Constant Matrix: (Units=GPa)
#
#
# Indices 1 2 3 4 5 6 
#
# 1 131.1511 55.2336 68.5696 0.0000 0.0000 0.0000
# 2 55.2336 106.9985 30.2214 0.0000 0.0000 0.0000
# 3 68.5696 30.2214 119.2733 0.0000 0.0000 0.0000
# 4 0.0000 0.0000 0.0000 35.9524 0.0000 0.0000
# 5 0.0000 0.0000 0.0000 0.0000 28.1708 0.0000
# 6 0.0000 0.0000 0.0000 0.0000 0.0000 30.6451
#
#
#
# Elastic Compliance Matrix: (Units=1/GPa)
#
#
# Indices 1 2 3 4 5 6 
#
# 1 0.012936 -0.004930 -0.006188 0.000000 0.000000 0.000000
# 2 -0.004930 0.011945 -0.000192 0.000000 0.000000 0.000000
# 3 -0.006188 -0.000192 0.011990 0.000000 0.000000 0.000000
# 4 0.000000 0.000000 0.000000 0.027815 0.000000 0.000000
# 5 0.000000 0.000000 0.000000 0.000000 0.035498 0.000000
# 6 0.000000 0.000000 0.000000 0.000000 0.000000 0.032632
#
#
# Mechanical properties :
#
#
# Convention : Reuss Voigt Hill
#
# Bulk Modulus (GPa) = 70.17001 73.94133 72.05567
# Shear Modulus (GPa) = 31.21362 32.51354 31.86358
#
# Velocity S-wave (km/s) = 3.94481 4.02612 3.98567
# Velocity P-wave (km/s) = 7.46538 7.64698 7.55672
#
# Compressibility (1/GPa) = 0.01425110
#
# Stress axis : x y z
#
# Youngs Moduli (GPa) = 77.30231 83.71552 83.40157
#
# Poissons Ratio (x) = 0.41272 0.51607
# Poissons Ratio (y) = 0.38111 0.01605
# Poissons Ratio (z) = 0.47833 0.01611
#
# Static dielectric constant tensor:
#      x y z
#    x 3.872570 0.000000 0.000000 
#    y 0.000000 3.734520 0.000000 
#    z 0.000000 0.000000 3.643810 
# 
# 
# High freq. dielectric constant tensor:
#      x y z
#    x 1.790300 0.000000 0.000000 
#    y 0.000000 1.791600 0.000000 
#    z 0.000000 0.000000 1.782800 
# 
# From -- ./inp_files/50280.got.cif
#   From: 2010.03.12/outbox.cif.g09.slc.cpg/sg64_26_cif.got.tgz:50280.got - 2010.04.10 20:19:32.
