data_PCOD8264933
_publ_section_title
;
Structure prediction by ZEFSAII (Michael W. Deem and Ramdas Pophale) SiO2 
 PCOD8264933
Probable space group: C M C A
;
_chemical_formula_sum "Si O2"
_cell_formula_units_Z 72
_cell_length_a 18.789476
_cell_length_b 18.389836
_cell_length_c 9.152768
_cell_angle_alpha 90.000000
_cell_angle_beta 90.000000
_cell_angle_gamma 90.000000
_cell_volume 3162.605189
_symmetry_space_group_name_H-M "C M C A"
_symmetry_group_IT_number 64
_symmetry_cell_setting 'orthorhombic'
loop_
_space_group_symop_operation_xyz
x,y,z
-x,1/2-y,1/2+z
x,-y,-z
-x,1/2+y,1/2-z
-x,-y,-z
x,1/2+y,1/2-z
-x,y,z
x,1/2-y,1/2+z
1/2+x,1/2+y,z
1/2-x,-y,1/2+z
1/2+x,1/2-y,-z
1/2-x,y,1/2-z
1/2-x,1/2-y,-z
1/2+x,y,1/2-z
1/2-x,1/2+y,z
1/2+x,-y,1/2+z
loop_
_atom_site_type_symbol
_atom_site_label
_atom_site_fract_x
_atom_site_fract_y
_atom_site_fract_z
Si Si1 0.250000 0.416627 0.250000
Si Si2 0.762950 0.666919 0.029026
Si Si3 0.000000 0.781266 0.898635
Si Si4 0.000000 0.355208 0.285988
Si Si5 0.891330 0.519756 0.662170
Si Si6 0.131764 0.634017 0.277556
O O1 0.285185 0.368065 0.375797
O O2 0.192294 0.467106 0.326371
O O3 0.831688 0.661800 0.131013
O O4 0.691788 0.629557 0.094730
O O5 0.750000 0.750000 0.000000
O O6 0.929145 0.810679 0.823104
O O7 0.000000 0.694454 0.860951
O O8 0.000000 0.802083 0.071006
O O9 0.067664 0.409070 0.281890
O O10 0.916703 0.500000 0.500000
O O11 0.904063 0.445083 0.752238
#
# Coordination Sequence:
#
# PCOD8264933 Si02
#       6
#     8  16   8   8  16  16
#     4  12  24  40  74 106 134 182 240 288 350 426
#     4  11  25  43  70 107 146 185 230 297 360 424
#     4  12  27  46  69 108 135 191 241 299 359 438
#     4  12  28  47  76  99 147 191 245 297 373 435
#     4  12  24  46  73 104 136 193 237 291 357 429
#     4  11  25  45  73 100 146 188 240 290 359 431
#
# _framework density 22.766038999999999
#
# number of rings (size 3 to 8) (size 9 to 14) (size 15 to 20)
#    0.000    0.444    4.444    3.667    9.333    0.000 
#    0.000    0.000    0.000    4.000    0.000    0.000 
#    0.000    0.000    0.000    0.000    0.000    0.000 
#
# Total GULP energy -446345.876361 kJ/mol
# GULP energy per Si atom -12398.496566 kJ/mol
# Density = 2.271422 g / cm^3
# Si number density = 22.766039 Si / 1000 Ang^3
#
#
#
# Elastic Constant Matrix: (Units=GPa)
#
#
# Indices 1 2 3 4 5 6 
#
# 1 93.7903 18.7012 13.0206 0.0000 0.0000 0.0000
# 2 18.7012 164.3772 31.5623 0.0000 0.0000 0.0000
# 3 13.0206 31.5623 96.1250 0.0000 0.0000 0.0000
# 4 0.0000 0.0000 0.0000 46.5203 0.0000 0.0000
# 5 0.0000 0.0000 0.0000 0.0000 20.1831 0.0000
# 6 0.0000 0.0000 0.0000 0.0000 0.0000 34.2367
#
#
#
# Elastic Compliance Matrix: (Units=1/GPa)
#
#
# Indices 1 2 3 4 5 6 
#
# 1 0.011028 -0.001033 -0.001155 0.000000 0.000000 0.000000
# 2 -0.001033 0.006590 -0.002024 0.000000 0.000000 0.000000
# 3 -0.001155 -0.002024 0.011224 0.000000 0.000000 0.000000
# 4 0.000000 0.000000 0.000000 0.021496 0.000000 0.000000
# 5 0.000000 0.000000 0.000000 0.000000 0.049546 0.000000
# 6 0.000000 0.000000 0.000000 0.000000 0.000000 0.029208
#
#
# Mechanical properties :
#
#
# Convention : Reuss Voigt Hill
#
# Bulk Modulus (GPa) = 48.97352 53.42897 51.20125
# Shear Modulus (GPa) = 34.64470 39.58858 37.11664
#
# Velocity S-wave (km/s) = 3.90522 4.17457 4.04214
# Velocity P-wave (km/s) = 6.47246 6.83782 6.65764
#
# Compressibility (1/GPa) = 0.02041920
#
# Stress axis : x y z
#
# Youngs Moduli (GPa) = 90.67534 151.75250 89.09460
#
# Poissons Ratio (x) = 0.15676 0.10287
# Poissons Ratio (y) = 0.09367 0.18031
# Poissons Ratio (z) = 0.10470 0.30711
#
# Static dielectric constant tensor:
#      x y z
#    x 4.134920 0.000000 0.000000 
#    y 0.000000 4.278270 0.000000 
#    z 0.000000 0.000000 4.193300 
# 
# 
# High freq. dielectric constant tensor:
#      x y z
#    x 1.901180 0.000000 0.000000 
#    y 0.000000 1.918290 0.000000 
#    z 0.000000 0.000000 1.885360 
# 
# From -- ./inp_files/9189.got.cif
#   From: 2010.03.12/outbox.cif.g09.slc.cpg/sg64_5_cif.got.tgz:9189.got - 2010.04.10 20:19:32.
