data_PCOD8264593
_publ_section_title
;
Structure prediction by ZEFSAII (Michael W. Deem and Ramdas Pophale) SiO2 
 PCOD8264593
Probable space group: C M C A
;
_chemical_formula_sum "Si O2"
_cell_formula_units_Z 72
_cell_length_a 25.470889
_cell_length_b 8.882679
_cell_length_c 14.196699
_cell_angle_alpha 90.000000
_cell_angle_beta 90.000000
_cell_angle_gamma 90.000000
_cell_volume 3211.999327
_symmetry_space_group_name_H-M "C M C A"
_symmetry_group_IT_number 64
_symmetry_cell_setting 'orthorhombic'
loop_
_space_group_symop_operation_xyz
x,y,z
-x,1/2-y,1/2+z
x,-y,-z
-x,1/2+y,1/2-z
-x,-y,-z
x,1/2+y,1/2-z
-x,y,z
x,1/2-y,1/2+z
1/2+x,1/2+y,z
1/2-x,-y,1/2+z
1/2+x,1/2-y,-z
1/2-x,y,1/2-z
1/2-x,1/2-y,-z
1/2+x,y,1/2-z
1/2-x,1/2+y,z
1/2+x,-y,1/2+z
loop_
_atom_site_type_symbol
_atom_site_label
_atom_site_fract_x
_atom_site_fract_y
_atom_site_fract_z
Si Si1 0.257406 0.000000 0.500000
Si Si2 0.609175 0.060004 0.804467
Si Si3 0.500000 0.328429 0.029864
Si Si4 0.110064 0.762571 0.123374
Si Si5 0.500000 0.916028 0.101435
Si Si6 0.178562 0.745748 0.939847
O O1 0.221766 0.885277 0.441743
O O2 0.292112 0.905526 0.576964
O O3 0.617053 0.097847 0.694816
O O4 0.548825 0.050756 0.832898
O O5 0.637026 0.194724 0.862142
O O6 0.628633 0.891885 0.825923
O O7 0.550041 0.268791 0.088371
O O8 0.500000 0.500000 0.000000
O O9 0.500000 0.258620 0.925636
O O10 0.149449 0.777138 0.037700
O O11 0.500000 0.000000 0.000000
#
# Coordination Sequence:
#
# PCOD8264593 Si02
#       6
#     8  16   8  16   8  16
#     4  10  24  44  76  96 130 184 234 300 346 418
#     4  12  25  43  70 102 141 185 224 288 344 424
#     4  12  27  42  70 103 139 185 231 273 334 411
#     4  12  26  44  69 105 142 181 231 278 351 417
#     4  12  21  44  70  93 139 185 216 274 338 404
#     4  11  23  48  71  98 138 181 235 287 362 402
#
# _framework density 22.415944
#
# number of rings (size 3 to 8) (size 9 to 14) (size 15 to 20)
#    0.000    0.444    6.667    0.667    7.778    0.000 
#    0.000    6.667    0.000    0.000    0.000    0.000 
#    0.000    0.000    0.000    0.000    0.000    0.000 
#
# Total GULP energy -446128.495655 kJ/mol
# GULP energy per Si atom -12392.458213 kJ/mol
# Density = 2.236492 g / cm^3
# Si number density = 22.415944 Si / 1000 Ang^3
#
#
#
# Elastic Constant Matrix: (Units=GPa)
#
#
# Indices 1 2 3 4 5 6 
#
# 1 112.5275 26.3686 27.9433 0.0000 0.0000 0.0000
# 2 26.3686 99.2655 14.1788 0.0000 0.0000 0.0000
# 3 27.9433 14.1788 91.2451 0.0000 0.0000 0.0000
# 4 0.0000 0.0000 0.0000 38.9236 0.0000 0.0000
# 5 0.0000 0.0000 0.0000 0.0000 -11.5193 0.0000
# 6 0.0000 0.0000 0.0000 0.0000 0.0000 37.3153
#
#
#
# Elastic Compliance Matrix: (Units=1/GPa)
#
#
# Indices 1 2 3 4 5 6 
#
# 1 0.010104 -0.002293 -0.002738 0.000000 0.000000 0.000000
# 2 -0.002293 0.010823 -0.000980 0.000000 0.000000 0.000000
# 3 -0.002738 -0.000980 0.011950 0.000000 0.000000 0.000000
# 4 0.000000 0.000000 0.000000 0.025691 0.000000 0.000000
# 5 0.000000 0.000000 0.000000 0.000000 -0.086811 0.000000
# 6 0.000000 0.000000 0.000000 0.000000 0.000000 0.026799
#
#
# Mechanical properties :
#
#
# Convention : Reuss Voigt Hill
#
# Bulk Modulus (GPa) = 47.94748 48.89103 48.41925
# Shear Modulus (GPa) = 285.23385 28.58041 156.90713
#
# Velocity S-wave (km/s) = 11.29257 3.57459 8.37556
# Velocity P-wave (km/s) = 13.83712 6.23660 10.73222
#
# Compressibility (1/GPa) = 0.02085616
#
# Stress axis : x y z
#
# Youngs Moduli (GPa) = 98.97155 92.39581 83.68055
#
# Poissons Ratio (x) = 0.21185 0.22911
# Poissons Ratio (y) = 0.22693 0.08198
# Poissons Ratio (z) = 0.27098 0.09051
#
# Static dielectric constant tensor:
#      x y z
#    x 4.316910 0.000000 0.000000 
#    y 0.000000 4.488470 0.000000 
#    z 0.000000 0.000000 3.823310 
# 
# 
# High freq. dielectric constant tensor:
#      x y z
#    x 1.894020 0.000000 0.000000 
#    y 0.000000 1.907240 0.000000 
#    z 0.000000 0.000000 1.855000 
# 
# From -- ./inp_files/27847.got.cif
#   From: 2010.03.12/outbox.cif.g09.slc.cpg/sg64_14_cif.got.tgz:27847.got - 2010.04.10 20:19:32.
