data_PCOD8264724
_publ_section_title
;
Structure prediction by ZEFSAII (Michael W. Deem and Ramdas Pophale) SiO2 
 PCOD8264724
Probable space group: C M C A
;
_chemical_formula_sum "Si O2"
_cell_formula_units_Z 72
_cell_length_a 17.805914
_cell_length_b 13.650364
_cell_length_c 14.984267
_cell_angle_alpha 90.000000
_cell_angle_beta 90.000000
_cell_angle_gamma 90.000000
_cell_volume 3642.034093
_symmetry_space_group_name_H-M "C M C A"
_symmetry_group_IT_number 64
_symmetry_cell_setting 'orthorhombic'
loop_
_space_group_symop_operation_xyz
x,y,z
-x,1/2-y,1/2+z
x,-y,-z
-x,1/2+y,1/2-z
-x,-y,-z
x,1/2+y,1/2-z
-x,y,z
x,1/2-y,1/2+z
1/2+x,1/2+y,z
1/2-x,-y,1/2+z
1/2+x,1/2-y,-z
1/2-x,y,1/2-z
1/2-x,1/2-y,-z
1/2+x,y,1/2-z
1/2-x,1/2+y,z
1/2+x,-y,1/2+z
loop_
_atom_site_type_symbol
_atom_site_label
_atom_site_fract_x
_atom_site_fract_y
_atom_site_fract_z
Si Si1 0.208391 0.500000 0.000000
Si Si2 0.586984 0.186566 0.366819
Si Si3 0.194922 0.510129 0.326523
Si Si4 0.166582 0.295719 0.282899
Si Si5 0.833059 0.214115 0.475433
O O1 0.259367 0.517992 0.914194
O O2 0.157976 0.597027 0.012308
O O3 0.500000 0.160555 0.365356
O O4 0.606176 0.264513 0.290496
O O5 0.607284 0.231038 0.462852
O O6 0.631510 0.087226 0.349540
O O7 0.250000 0.553302 0.250000
O O8 0.155546 0.411705 0.292270
O O9 0.250000 0.269238 0.250000
O O10 0.148688 0.238710 0.373633
O O11 0.750000 0.250000 0.500000
#
# Coordination Sequence:
#
# PCOD8264724 Si02
#       5
#     8  16  16  16  16
#     4  12  20  36  68  98 112 156 216 258 292 360
#     4  12  26  41  58  92 133 163 198 255 312 364
#     4  11  21  37  65  90 115 160 212 252 304 362
#     4  11  21  40  66  92 118 162 212 256 301 364
#     4  12  21  40  67  92 123 157 209 251 303 363
#
# _framework density 19.769172000000001
#
# number of rings (size 3 to 8) (size 9 to 14) (size 15 to 20)
#    0.000    0.444    6.667    3.333    0.000    1.778 
#    0.000    4.444    0.000    0.000    0.000    0.000 
#    0.000    0.000    0.000    0.000    0.000    0.000 
#
# Total GULP energy -446620.230853 kJ/mol
# GULP energy per Si atom -12406.117524 kJ/mol
# Density = 1.972418 g / cm^3
# Si number density = 19.769172 Si / 1000 Ang^3
#
#
#
# Elastic Constant Matrix: (Units=GPa)
#
#
# Indices 1 2 3 4 5 6 
#
# 1 89.7374 53.9778 40.5548 0.0000 0.0000 0.0000
# 2 53.9778 156.6806 49.3530 0.0000 0.0000 0.0000
# 3 40.5548 49.3530 151.2005 0.0000 0.0000 0.0000
# 4 0.0000 0.0000 0.0000 34.9361 0.0000 0.0000
# 5 0.0000 0.0000 0.0000 0.0000 23.7645 0.0000
# 6 0.0000 0.0000 0.0000 0.0000 0.0000 19.6662
#
#
#
# Elastic Compliance Matrix: (Units=1/GPa)
#
#
# Indices 1 2 3 4 5 6 
#
# 1 0.014914 -0.004322 -0.002589 0.000000 0.000000 0.000000
# 2 -0.004322 0.008367 -0.001572 0.000000 0.000000 0.000000
# 3 -0.002589 -0.001572 0.007821 0.000000 0.000000 0.000000
# 4 0.000000 0.000000 0.000000 0.028624 0.000000 0.000000
# 5 0.000000 0.000000 0.000000 0.000000 0.042080 0.000000
# 6 0.000000 0.000000 0.000000 0.000000 0.000000 0.050849
#
#
# Mechanical properties :
#
#
# Convention : Reuss Voigt Hill
#
# Bulk Modulus (GPa) = 70.74596 76.15440 73.45018
# Shear Modulus (GPa) = 28.68101 32.58889 30.63495
#
# Velocity S-wave (km/s) = 3.81306 4.06454 3.94081
# Velocity P-wave (km/s) = 7.43301 7.78670 7.61191
#
# Compressibility (1/GPa) = 0.01413508
#
# Stress axis : x y z
#
# Youngs Moduli (GPa) = 67.05247 119.52419 127.85748
#
# Poissons Ratio (x) = 0.51662 0.33106
# Poissons Ratio (y) = 0.28982 0.20094
# Poissons Ratio (z) = 0.17362 0.18784
#
# Static dielectric constant tensor:
#      x y z
#    x 3.211660 0.000000 0.000000 
#    y 0.000000 3.862790 0.000000 
#    z 0.000000 0.000000 3.956300 
# 
# 
# High freq. dielectric constant tensor:
#      x y z
#    x 1.721310 0.000000 0.000000 
#    y 0.000000 1.793640 0.000000 
#    z 0.000000 0.000000 1.798090 
# 
# From -- ./inp_files/25136.got.cif
#   From: 2010.03.12/outbox.cif.g09.slc.cpg/sg64_13_cif.got.tgz:25136.got - 2010.04.10 20:19:32.
