data_PCOD8264721
_publ_section_title
;
Structure prediction by ZEFSAII (Michael W. Deem and Ramdas Pophale) SiO2 
 PCOD8264721
Probable space group: C M C A
;
_chemical_formula_sum "Si O2"
_cell_formula_units_Z 112
_cell_length_a 29.154900
_cell_length_b 11.615470
_cell_length_c 17.910360
_cell_angle_alpha 90.000000
_cell_angle_beta 90.000000
_cell_angle_gamma 90.000000
_cell_volume 6065.305199
_symmetry_space_group_name_H-M "C M C A"
_symmetry_group_IT_number 64
_symmetry_cell_setting 'orthorhombic'
loop_
_space_group_symop_operation_xyz
x,y,z
-x,1/2-y,1/2+z
x,-y,-z
-x,1/2+y,1/2-z
-x,-y,-z
x,1/2+y,1/2-z
-x,y,z
x,1/2-y,1/2+z
1/2+x,1/2+y,z
1/2-x,-y,1/2+z
1/2+x,1/2-y,-z
1/2-x,y,1/2-z
1/2-x,1/2-y,-z
1/2+x,y,1/2-z
1/2-x,1/2+y,z
1/2+x,-y,1/2+z
loop_
_atom_site_type_symbol
_atom_site_label
_atom_site_fract_x
_atom_site_fract_y
_atom_site_fract_z
Si Si1 0.550079 0.689248 0.997142
Si Si2 0.213940 0.938754 0.577577
Si Si3 0.449891 0.985097 0.620634
Si Si4 0.855948 0.755521 0.548672
Si Si5 0.355663 0.549924 0.836106
Si Si6 0.192996 0.169952 0.099217
Si Si7 0.795357 0.125254 0.703741
O O1 0.500000 0.750937 0.992185
O O2 0.551547 0.582831 0.941425
O O3 0.591107 0.776636 0.976360
O O4 0.557620 0.638294 0.080364
O O5 0.164393 0.876538 0.577163
O O6 0.252361 0.841865 0.590326
O O7 0.223955 0.000000 0.500000
O O8 0.217426 0.030970 0.642807
O O9 0.500000 0.986272 0.661134
O O10 0.408321 0.008651 0.677861
O O11 0.852644 0.664780 0.615229
O O12 0.827296 0.712560 0.478280
O O13 0.328712 0.451869 0.880397
O O14 0.334672 0.572726 0.755600
O O15 0.183971 0.261520 0.164882
O O16 0.750000 0.157595 0.750000
#
# Coordination Sequence:
#
# PCOD8264721 Si02
#       7
#    16  16  16  16  16  16  16
#     4   8  14  27  52  88 118 141 183 240 290 338
#     4  12  25  41  58  82 116 157 195 238 285 353
#     4   8  14  28  53  85 117 145 182 237 292 338
#     4  11  21  37  62  87 114 151 194 243 292 343
#     4  11  22  36  62  87 118 149 192 243 297 342
#     4  12  24  39  58  83 117 150 197 237 289 347
#     4  12  27  41  54  82 118 159 193 237 291 349
#
# _framework density 18.465682999999999
#
# number of rings (size 3 to 8) (size 9 to 14) (size 15 to 20)
#    0.000    1.429    4.286    3.429    4.000    0.000 
#    0.000    0.000    0.000    3.000    0.000    0.000 
#    0.000    0.000    0.000    0.000    0.000    0.000 
#
# Total GULP energy -694315.628112 kJ/mol
# GULP energy per Si atom -12398.493359 kJ/mol
# Density = 1.842365 g / cm^3
# Si number density = 18.465683 Si / 1000 Ang^3
#
#
#
# Elastic Constant Matrix: (Units=GPa)
#
#
# Indices 1 2 3 4 5 6 
#
# 1 117.2264 5.7457 16.1876 0.0000 0.0000 0.0000
# 2 5.7457 40.2974 4.5385 0.0000 0.0000 0.0000
# 3 16.1876 4.5385 73.2625 0.0000 0.0000 0.0000
# 4 0.0000 0.0000 0.0000 14.2993 0.0000 0.0000
# 5 0.0000 0.0000 0.0000 0.0000 16.9061 0.0000
# 6 0.0000 0.0000 0.0000 0.0000 0.0000 23.5043
#
#
#
# Elastic Compliance Matrix: (Units=1/GPa)
#
#
# Indices 1 2 3 4 5 6 
#
# 1 0.008843 -0.001048 -0.001889 0.000000 0.000000 0.000000
# 2 -0.001048 0.025114 -0.001324 0.000000 0.000000 0.000000
# 3 -0.001889 -0.001324 0.014149 0.000000 0.000000 0.000000
# 4 0.000000 0.000000 0.000000 0.069934 0.000000 0.000000
# 5 0.000000 0.000000 0.000000 0.000000 0.059150 0.000000
# 6 0.000000 0.000000 0.000000 0.000000 0.000000 0.042545
#
#
# Mechanical properties :
#
#
# Convention : Reuss Voigt Hill
#
# Bulk Modulus (GPa) = 25.26312 31.52553 28.39433
# Shear Modulus (GPa) = 20.70805 24.56289 22.63547
#
# Velocity S-wave (km/s) = 3.35242 3.65114 3.50496
# Velocity P-wave (km/s) = 5.35684 5.90626 5.63825
#
# Compressibility (1/GPa) = 0.03958339
#
# Stress axis : x y z
#
# Youngs Moduli (GPa) = 113.08755 39.81827 70.67670
#
# Poissons Ratio (x) = 0.04173 0.13350
# Poissons Ratio (y) = 0.11852 0.09359
# Poissons Ratio (z) = 0.21361 0.05273
#
# Static dielectric constant tensor:
#      x y z
#    x 3.939860 0.000000 0.000000 
#    y 0.000000 3.216720 0.000000 
#    z 0.000000 0.000000 3.336700 
# 
# 
# High freq. dielectric constant tensor:
#      x y z
#    x 1.728160 0.000000 0.000000 
#    y 0.000000 1.693480 0.000000 
#    z 0.000000 0.000000 1.698300 
# 
# From -- ./inp_files/28408.got.cif
#   From: 2010.03.12/outbox.cif.g09.slc.cpg/sg64_15_cif.got.tgz:28408.got - 2010.04.10 20:19:32.
