data_PCOD8264476
_publ_section_title
;
Structure prediction by ZEFSAII (Michael W. Deem and Ramdas Pophale) SiO2 
 PCOD8264476
Probable space group: C M C A
;
_chemical_formula_sum "Si O2"
_cell_formula_units_Z 104
_cell_length_a 24.014686
_cell_length_b 11.138653
_cell_length_c 18.714308
_cell_angle_alpha 90.000000
_cell_angle_beta 90.000000
_cell_angle_gamma 90.000000
_cell_volume 5005.913719
_symmetry_space_group_name_H-M "C M C A"
_symmetry_group_IT_number 64
_symmetry_cell_setting 'orthorhombic'
loop_
_space_group_symop_operation_xyz
x,y,z
-x,1/2-y,1/2+z
x,-y,-z
-x,1/2+y,1/2-z
-x,-y,-z
x,1/2+y,1/2-z
-x,y,z
x,1/2-y,1/2+z
1/2+x,1/2+y,z
1/2-x,-y,1/2+z
1/2+x,1/2-y,-z
1/2-x,y,1/2-z
1/2-x,1/2-y,-z
1/2+x,y,1/2-z
1/2-x,1/2+y,z
1/2+x,-y,1/2+z
loop_
_atom_site_type_symbol
_atom_site_label
_atom_site_fract_x
_atom_site_fract_y
_atom_site_fract_z
Si Si1 0.131719 0.722149 0.945432
Si Si2 0.316811 0.073670 0.362698
Si Si3 0.861467 0.361786 0.286439
Si Si4 0.290110 0.019366 0.918344
Si Si5 0.436719 0.579883 0.651936
Si Si6 0.250000 0.766245 0.750000
Si Si7 0.879152 0.655413 0.109355
O O1 0.147538 0.856671 0.922750
O O2 0.181693 0.648035 0.905202
O O3 0.073798 0.674674 0.912134
O O4 0.124642 0.711190 0.030162
O O5 0.279921 0.153448 0.309783
O O6 0.361900 0.994027 0.321052
O O7 0.275249 0.981758 0.403362
O O8 0.895983 0.376142 0.214506
O O9 0.797205 0.323698 0.278502
O O10 0.891364 0.262897 0.336079
O O11 0.320658 0.912873 0.873453
O O12 0.304560 0.000000 0.000000
O O13 0.500000 0.588649 0.678343
O O14 0.426415 0.445642 0.621119
#
# Coordination Sequence:
#
# PCOD8264476 Si02
#       7
#    16  16  16  16  16   8  16
#     4  10  23  42  63  97 130 165 225 269 323 391
#     4  12  23  35  62  93 137 179 210 261 323 391
#     4  12  25  39  63 100 134 176 214 262 330 389
#     4   9  20  35  58  89 130 175 211 251 306 384
#     4  11  25  47  70  90 120 168 228 280 325 384
#     4  12  22  40  60  90 142 182 224 250 306 396
#     4  10  23  43  64  95 131 164 218 274 319 389
#
# _framework density 20.775428000000002
#
# number of rings (size 3 to 8) (size 9 to 14) (size 15 to 20)
#    0.000    1.231    3.077    3.692    6.462    3.077 
#    0.000    0.000    0.000    0.000    0.000    3.231 
#    0.000    0.000    0.000    0.000    0.000    0.000 
#
# Total GULP energy -644438.259196 kJ/mol
# GULP energy per Si atom -12393.043446 kJ/mol
# Density = 2.072814 g / cm^3
# Si number density = 20.775428 Si / 1000 Ang^3
#
#
#
# Elastic Constant Matrix: (Units=GPa)
#
#
# Indices 1 2 3 4 5 6 
#
# 1 74.6293 27.7662 19.1868 0.0000 0.0000 0.0000
# 2 27.7662 76.2360 33.4277 0.0000 0.0000 0.0000
# 3 19.1868 33.4277 72.1515 0.0000 0.0000 0.0000
# 4 0.0000 0.0000 0.0000 30.6959 0.0000 0.0000
# 5 0.0000 0.0000 0.0000 0.0000 16.6231 0.0000
# 6 0.0000 0.0000 0.0000 0.0000 0.0000 12.7016
#
#
#
# Elastic Compliance Matrix: (Units=1/GPa)
#
#
# Indices 1 2 3 4 5 6 
#
# 1 0.015708 -0.004881 -0.001916 0.000000 0.000000 0.000000
# 2 -0.004881 0.017978 -0.007031 0.000000 0.000000 0.000000
# 3 -0.001916 -0.007031 0.017627 0.000000 0.000000 0.000000
# 4 0.000000 0.000000 0.000000 0.032578 0.000000 0.000000
# 5 0.000000 0.000000 0.000000 0.000000 0.060157 0.000000
# 6 0.000000 0.000000 0.000000 0.000000 0.000000 0.078730
#
#
# Mechanical properties :
#
#
# Convention : Reuss Voigt Hill
#
# Bulk Modulus (GPa) = 42.27123 42.64199 42.45661
# Shear Modulus (GPa) = 19.35590 21.51321 20.43455
#
# Velocity S-wave (km/s) = 3.05564 3.22143 3.13963
# Velocity P-wave (km/s) = 5.73064 5.86571 5.79857
#
# Compressibility (1/GPa) = 0.02365675
#
# Stress axis : x y z
#
# Youngs Moduli (GPa) = 63.66132 55.62383 56.73214
#
# Poissons Ratio (x) = 0.27151 0.10868
# Poissons Ratio (y) = 0.31074 0.39889
# Poissons Ratio (z) = 0.12196 0.39110
#
# Static dielectric constant tensor:
#      x y z
#    x 3.437990 0.000000 0.000000 
#    y 0.000000 3.843520 0.000000 
#    z 0.000000 0.000000 3.759610 
# 
# 
# High freq. dielectric constant tensor:
#      x y z
#    x 1.772280 0.000000 0.000000 
#    y 0.000000 1.817220 0.000000 
#    z 0.000000 0.000000 1.825100 
# 
# From -- ./inp_files/35491.got.cif
#   From: 2010.03.12/outbox.cif.g09.slc.cpg/sg64_18_cif.got.tgz:35491.got - 2010.04.10 20:19:32.
