data_PCOD8264253
_publ_section_title
;
Structure prediction by ZEFSAII (Michael W. Deem and Ramdas Pophale) SiO2 
 PCOD8264253
Probable space group: C M C A
;
_chemical_formula_sum "Si O2"
_cell_formula_units_Z 64
_cell_length_a 15.809046
_cell_length_b 20.871531
_cell_length_c 8.736530
_cell_angle_alpha 90.000000
_cell_angle_beta 90.000000
_cell_angle_gamma 90.000000
_cell_volume 2882.696647
_symmetry_space_group_name_H-M "C M C A"
_symmetry_group_IT_number 64
_symmetry_cell_setting 'orthorhombic'
loop_
_space_group_symop_operation_xyz
x,y,z
-x,1/2-y,1/2+z
x,-y,-z
-x,1/2+y,1/2-z
-x,-y,-z
x,1/2+y,1/2-z
-x,y,z
x,1/2-y,1/2+z
1/2+x,1/2+y,z
1/2-x,-y,1/2+z
1/2+x,1/2-y,-z
1/2-x,y,1/2-z
1/2-x,1/2-y,-z
1/2+x,y,1/2-z
1/2-x,1/2+y,z
1/2+x,-y,1/2+z
loop_
_atom_site_type_symbol
_atom_site_label
_atom_site_fract_x
_atom_site_fract_y
_atom_site_fract_z
Si Si1 0.656598 0.938456 0.186264
Si Si2 0.596252 0.311977 0.856670
Si Si3 0.344185 0.692382 0.814527
Si Si4 0.402949 0.572520 0.354388
O O1 0.750000 0.949064 0.250000
O O2 0.615553 0.876143 0.266807
O O3 0.603669 0.002542 0.225031
O O4 0.656806 0.925733 0.003526
O O5 0.500000 0.322749 0.911166
O O6 0.599097 0.249317 0.751102
O O7 0.629155 0.373233 0.761711
O O8 0.656934 0.302990 0.002000
O O9 0.250000 0.698378 0.750000
O O10 0.500000 0.585159 0.403073
#
# Coordination Sequence:
#
# PCOD8264253 Si02
#       4
#    16  16  16  16
#     4  10  22  39  63  94 125 163 206 252 307 367
#     4  11  24  41  65  94 124 163 210 258 309 370
#     4  11  24  41  62  92 127 165 206 255 313 372
#     4  10  23  43  66  92 126 167 208 255 311 369
#
# _framework density 22.201433000000002
#
# number of rings (size 3 to 8) (size 9 to 14) (size 15 to 20)
#    0.000    1.500    0.000    4.500    0.000   18.000 
#    0.000    2.500    0.000    0.000    0.000    0.000 
#    0.000    0.000    0.000    0.000    0.000    0.000 
#
# Total GULP energy -396875.686338 kJ/mol
# GULP energy per Si atom -12402.365198 kJ/mol
# Density = 2.215090 g / cm^3
# Si number density = 22.201433 Si / 1000 Ang^3
#
#
#
# Elastic Constant Matrix: (Units=GPa)
#
#
# Indices 1 2 3 4 5 6 
#
# 1 78.1979 11.6048 52.9134 0.0000 0.0000 0.0000
# 2 11.6048 179.9302 74.4777 0.0000 0.0000 0.0000
# 3 52.9134 74.4777 158.4601 0.0000 0.0000 0.0000
# 4 0.0000 0.0000 0.0000 45.3484 0.0000 0.0000
# 5 0.0000 0.0000 0.0000 0.0000 35.6745 0.0000
# 6 0.0000 0.0000 0.0000 0.0000 0.0000 30.7254
#
#
#
# Elastic Compliance Matrix: (Units=1/GPa)
#
#
# Indices 1 2 3 4 5 6 
#
# 1 0.016859 0.001543 -0.006355 0.000000 0.000000 0.000000
# 2 0.001543 0.007041 -0.003825 0.000000 0.000000 0.000000
# 3 -0.006355 -0.003825 0.010230 0.000000 0.000000 0.000000
# 4 0.000000 0.000000 0.000000 0.022051 0.000000 0.000000
# 5 0.000000 0.000000 0.000000 0.000000 0.028031 0.000000
# 6 0.000000 0.000000 0.000000 0.000000 0.000000 0.032546
#
#
# Mechanical properties :
#
#
# Convention : Reuss Voigt Hill
#
# Bulk Modulus (GPa) = 59.31966 77.17556 68.24761
# Shear Modulus (GPa) = 35.80312 40.85582 38.32947
#
# Velocity S-wave (km/s) = 4.02014 4.29445 4.15955
# Velocity P-wave (km/s) = 6.95166 7.70887 7.34003
#
# Compressibility (1/GPa) = 0.01685782
#
# Stress axis : x y z
#
# Youngs Moduli (GPa) = 59.31480 142.01796 97.74706
#
# Poissons Ratio (x) = -0.21915 0.62118
# Poissons Ratio (y) = -0.09153 0.37386
# Poissons Ratio (z) = 0.37694 0.54319
#
# Static dielectric constant tensor:
#      x y z
#    x 3.655130 0.000000 0.000000 
#    y 0.000000 4.566120 0.000000 
#    z 0.000000 0.000000 3.889190 
# 
# 
# High freq. dielectric constant tensor:
#      x y z
#    x 1.857510 0.000000 0.000000 
#    y 0.000000 1.900540 0.000000 
#    z 0.000000 0.000000 1.868870 
# 
# From -- ./inp_files/5583.got.cif
#   From: 2010.03.12/outbox.cif.g09.slc.cpg/sg64_3_cif.got.tgz:5583.got - 2010.04.10 20:19:32.
