data_PCOD8264444
_publ_section_title
;
Structure prediction by ZEFSAII (Michael W. Deem and Ramdas Pophale) SiO2 
 PCOD8264444
Probable space group: C M C A
;
_chemical_formula_sum "Si O2"
_cell_formula_units_Z 96
_cell_length_a 23.883557
_cell_length_b 9.105469
_cell_length_c 22.652104
_cell_angle_alpha 90.000000
_cell_angle_beta 90.000000
_cell_angle_gamma 90.000000
_cell_volume 4926.175434
_symmetry_space_group_name_H-M "C M C A"
_symmetry_group_IT_number 64
_symmetry_cell_setting 'orthorhombic'
loop_
_space_group_symop_operation_xyz
x,y,z
-x,1/2-y,1/2+z
x,-y,-z
-x,1/2+y,1/2-z
-x,-y,-z
x,1/2+y,1/2-z
-x,y,z
x,1/2-y,1/2+z
1/2+x,1/2+y,z
1/2-x,-y,1/2+z
1/2+x,1/2-y,-z
1/2-x,y,1/2-z
1/2-x,1/2-y,-z
1/2+x,y,1/2-z
1/2-x,1/2+y,z
1/2+x,-y,1/2+z
loop_
_atom_site_type_symbol
_atom_site_label
_atom_site_fract_x
_atom_site_fract_y
_atom_site_fract_z
Si Si1 0.435396 0.030942 0.825495
Si Si2 0.345698 0.412424 0.419180
Si Si3 0.686719 0.866359 0.353356
Si Si4 0.114955 0.744946 0.239300
Si Si5 0.192339 0.203207 0.468448
Si Si6 0.209129 0.692793 0.328868
O O1 0.500000 0.019191 0.841984
O O2 0.402909 0.034634 0.888180
O O3 0.424599 0.176931 0.787141
O O4 0.417060 0.894466 0.785943
O O5 0.355407 0.324695 0.481248
O O6 0.303924 0.549957 0.431672
O O7 0.314706 0.300645 0.377481
O O8 0.629507 0.854407 0.315212
O O9 0.674445 0.827979 0.421938
O O10 0.727819 0.750130 0.320533
O O11 0.711764 0.028055 0.352453
O O12 0.173105 0.696268 0.269531
O O13 0.250000 0.250000 0.500000
#
# Coordination Sequence:
#
# PCOD8264444 Si02
#       6
#    16  16  16  16  16  16
#     4  11  23  44  67  88 119 161 213 270 318 366
#     4  10  23  40  59  93 124 163 212 252 303 370
#     4  12  23  37  59  91 129 170 201 249 308 382
#     4  11  23  40  62  94 124 155 209 262 319 379
#     4  11  22  37  62  88 129 162 203 248 297 372
#     4  11  24  36  59  92 129 169 201 244 312 384
#
# _framework density 19.487735000000001
#
# number of rings (size 3 to 8) (size 9 to 14) (size 15 to 20)
#    0.000    1.000    5.000    2.000    4.667    2.000 
#    0.000    1.667    0.000    0.000    0.000    2.333 
#    0.000    0.000    0.000    0.000    0.000    0.000 
#
# Total GULP energy -594890.321465 kJ/mol
# GULP energy per Si atom -12393.548364 kJ/mol
# Density = 1.944338 g / cm^3
# Si number density = 19.487735 Si / 1000 Ang^3
#
#
#
# Elastic Constant Matrix: (Units=GPa)
#
#
# Indices 1 2 3 4 5 6 
#
# 1 77.7928 36.1775 65.5573 0.0000 0.0000 0.0000
# 2 36.1775 115.8802 57.3058 0.0000 0.0000 0.0000
# 3 65.5573 57.3058 118.9650 0.0000 0.0000 0.0000
# 4 0.0000 0.0000 0.0000 33.4481 0.0000 0.0000
# 5 0.0000 0.0000 0.0000 0.0000 23.8500 0.0000
# 6 0.0000 0.0000 0.0000 0.0000 0.0000 19.8685
#
#
#
# Elastic Compliance Matrix: (Units=1/GPa)
#
#
# Indices 1 2 3 4 5 6 
#
# 1 0.024139 -0.001257 -0.012696 0.000000 0.000000 0.000000
# 2 -0.001257 0.011394 -0.004795 0.000000 0.000000 0.000000
# 3 -0.012696 -0.004795 0.017712 0.000000 0.000000 0.000000
# 4 0.000000 0.000000 0.000000 0.029897 0.000000 0.000000
# 5 0.000000 0.000000 0.000000 0.000000 0.041929 0.000000
# 6 0.000000 0.000000 0.000000 0.000000 0.000000 0.050331
#
#
# Mechanical properties :
#
#
# Convention : Reuss Voigt Hill
#
# Bulk Modulus (GPa) = 63.50656 70.07991 66.79323
# Shear Modulus (GPa) = 22.92014 25.67314 24.29664
#
# Velocity S-wave (km/s) = 3.43320 3.63354 3.53479
# Velocity P-wave (km/s) = 6.95518 7.32411 7.14203
#
# Compressibility (1/GPa) = 0.01574641
#
# Stress axis : x y z
#
# Youngs Moduli (GPa) = 41.42700 87.76831 56.45786
#
# Poissons Ratio (x) = 0.11036 0.71681
# Poissons Ratio (y) = 0.05209 0.27074
# Poissons Ratio (z) = 0.52597 0.42089
#
# Static dielectric constant tensor:
#      x y z
#    x 3.411920 0.000000 0.000000 
#    y 0.000000 3.652870 0.000000 
#    z 0.000000 0.000000 4.009440 
# 
# 
# High freq. dielectric constant tensor:
#      x y z
#    x 1.712310 0.000000 0.000000 
#    y 0.000000 1.769440 0.000000 
#    z 0.000000 0.000000 1.781650 
# 
# From -- ./inp_files/46843.got.cif
#   From: 2010.03.12/outbox.cif.g09.slc.cpg/sg64_24_cif.got.tgz:46843.got - 2010.04.10 20:19:32.
