data_PCOD8264789
_publ_section_title
;
Structure prediction by ZEFSAII (Michael W. Deem and Ramdas Pophale) SiO2 
 PCOD8264789
Probable space group: C M C A
;
_chemical_formula_sum "Si O2"
_cell_formula_units_Z 96
_cell_length_a 18.095301
_cell_length_b 9.122825
_cell_length_c 26.936919
_cell_angle_alpha 90.000000
_cell_angle_beta 90.000000
_cell_angle_gamma 90.000000
_cell_volume 4446.753709
_symmetry_space_group_name_H-M "C M C A"
_symmetry_group_IT_number 64
_symmetry_cell_setting 'orthorhombic'
loop_
_space_group_symop_operation_xyz
x,y,z
-x,1/2-y,1/2+z
x,-y,-z
-x,1/2+y,1/2-z
-x,-y,-z
x,1/2+y,1/2-z
-x,y,z
x,1/2-y,1/2+z
1/2+x,1/2+y,z
1/2-x,-y,1/2+z
1/2+x,1/2-y,-z
1/2-x,y,1/2-z
1/2-x,1/2-y,-z
1/2+x,y,1/2-z
1/2-x,1/2+y,z
1/2+x,-y,1/2+z
loop_
_atom_site_type_symbol
_atom_site_label
_atom_site_fract_x
_atom_site_fract_y
_atom_site_fract_z
Si Si1 0.415943 0.017075 0.857263
Si Si2 0.840784 0.077853 0.545492
Si Si3 0.915027 0.764093 0.777570
Si Si4 0.171698 0.447469 0.654822
Si Si5 0.307868 0.095228 0.455039
Si Si6 0.817413 0.775987 0.680470
O O1 0.500000 0.972681 0.862172
O O2 0.391421 0.102468 0.906646
O O3 0.401781 0.115837 0.808804
O O4 0.371399 0.866622 0.854881
O O5 0.808013 0.234598 0.528924
O O6 0.885735 0.000000 0.500000
O O7 0.773910 0.965299 0.555948
O O8 0.854618 0.765375 0.734359
O O9 0.000000 0.773858 0.758127
O O10 0.900621 0.905249 0.812846
O O11 0.150437 0.416912 0.597647
O O12 0.194001 0.615669 0.658648
O O13 0.237278 0.350353 0.678921
O O14 0.344706 0.000000 0.500000
#
# Coordination Sequence:
#
# PCOD8264789 Si02
#       6
#    16  16  16  16  16  16
#     4  11  24  43  66  94 132 177 222 272 331 395
#     4  11  22  39  67  95 131 169 214 275 333 394
#     4  11  25  46  66  92 135 178 217 269 334 394
#     4  12  24  42  69 100 133 170 222 277 330 385
#     4  11  22  39  67 101 131 169 214 274 337 392
#     4  12  25  41  67  98 130 172 223 272 322 397
#
# _framework density 21.588784
#
# number of rings (size 3 to 8) (size 9 to 14) (size 15 to 20)
#    0.000    0.667    3.333    6.000    2.333    4.333 
#    0.000    0.000    0.000    1.000    0.000    0.000 
#    0.000    0.000    0.000    0.000    0.000    0.000 
#
# Total GULP energy -595058.890533 kJ/mol
# GULP energy per Si atom -12397.060219 kJ/mol
# Density = 2.153965 g / cm^3
# Si number density = 21.588784 Si / 1000 Ang^3
#
#
#
# Elastic Constant Matrix: (Units=GPa)
#
#
# Indices 1 2 3 4 5 6 
#
# 1 52.8653 37.5948 33.3393 0.0000 0.0000 0.0000
# 2 37.5948 147.4824 28.2980 0.0000 0.0000 0.0000
# 3 33.3393 28.2980 144.3985 0.0000 0.0000 0.0000
# 4 0.0000 0.0000 0.0000 34.2210 0.0000 0.0000
# 5 0.0000 0.0000 0.0000 0.0000 15.3164 0.0000
# 6 0.0000 0.0000 0.0000 0.0000 0.0000 23.8730
#
#
#
# Elastic Compliance Matrix: (Units=1/GPa)
#
#
# Indices 1 2 3 4 5 6 
#
# 1 0.026062 -0.005703 -0.004900 0.000000 0.000000 0.000000
# 2 -0.005703 0.008293 -0.000308 0.000000 0.000000 0.000000
# 3 -0.004900 -0.000308 0.008117 0.000000 0.000000 0.000000
# 4 0.000000 0.000000 0.000000 0.029222 0.000000 0.000000
# 5 0.000000 0.000000 0.000000 0.000000 0.065289 0.000000
# 6 0.000000 0.000000 0.000000 0.000000 0.000000 0.041888
#
#
# Mechanical properties :
#
#
# Convention : Reuss Voigt Hill
#
# Bulk Modulus (GPa) = 48.42729 60.35672 54.39201
# Shear Modulus (GPa) = 24.08737 31.04968 27.56852
#
# Velocity S-wave (km/s) = 3.34389 3.79652 3.57737
# Velocity P-wave (km/s) = 6.11467 6.87286 6.50482
#
# Compressibility (1/GPa) = 0.02064951
#
# Stress axis : x y z
#
# Youngs Moduli (GPa) = 38.37034 120.57640 123.19881
#
# Poissons Ratio (x) = 0.68769 0.60362
# Poissons Ratio (y) = 0.21884 0.03800
# Poissons Ratio (z) = 0.18800 0.03720
#
# Static dielectric constant tensor:
#      x y z
#    x 3.680890 0.000000 0.000000 
#    y 0.000000 4.018450 0.000000 
#    z 0.000000 0.000000 4.318720 
# 
# 
# High freq. dielectric constant tensor:
#      x y z
#    x 1.816450 0.000000 0.000000 
#    y 0.000000 1.862450 0.000000 
#    z 0.000000 0.000000 1.866600 
# 
# From -- ./inp_files/50656.got.cif
#   From: 2010.03.12/outbox.cif.g09.slc.cpg/sg64_26_cif.got.tgz:50656.got - 2010.04.10 20:19:32.
