data_PCOD8264698
_publ_section_title
;
Structure prediction by ZEFSAII (Michael W. Deem and Ramdas Pophale) SiO2 
 PCOD8264698
Probable space group: C M C A
;
_chemical_formula_sum "Si O2"
_cell_formula_units_Z 80
_cell_length_a 8.888086
_cell_length_b 18.737071
_cell_length_c 25.837049
_cell_angle_alpha 90.000000
_cell_angle_beta 90.000000
_cell_angle_gamma 90.000000
_cell_volume 4302.816838
_symmetry_space_group_name_H-M "C M C A"
_symmetry_group_IT_number 64
_symmetry_cell_setting 'orthorhombic'
loop_
_space_group_symop_operation_xyz
x,y,z
-x,1/2-y,1/2+z
x,-y,-z
-x,1/2+y,1/2-z
-x,-y,-z
x,1/2+y,1/2-z
-x,y,z
x,1/2-y,1/2+z
1/2+x,1/2+y,z
1/2-x,-y,1/2+z
1/2+x,1/2-y,-z
1/2-x,y,1/2-z
1/2-x,1/2-y,-z
1/2+x,y,1/2-z
1/2-x,1/2+y,z
1/2+x,-y,1/2+z
loop_
_atom_site_type_symbol
_atom_site_label
_atom_site_fract_x
_atom_site_fract_y
_atom_site_fract_z
Si Si1 0.667994 0.082030 0.800119
Si Si2 0.177383 0.072113 0.411112
Si Si3 0.677485 0.326522 0.493867
Si Si4 0.835902 0.413355 0.798857
Si Si5 0.321154 0.921918 0.407307
O O1 0.500000 0.114488 0.805587
O O2 0.750000 0.115999 0.750000
O O3 0.765732 0.100114 0.850435
O O4 0.655575 0.997847 0.792340
O O5 0.213871 0.129889 0.454213
O O6 0.236324 0.102673 0.355498
O O7 0.000000 0.054017 0.406981
O O8 0.262160 0.999229 0.425096
O O9 0.500000 0.320967 0.484098
O O10 0.750000 0.250000 0.500000
O O11 0.756255 0.363595 0.445825
O O12 0.750000 0.378855 0.750000
O O13 0.000000 0.378369 0.796886
O O14 0.500000 0.921529 0.408713
#
# Coordination Sequence:
#
# PCOD8264698 Si02
#       5
#    16  16  16  16  16
#     4   9  16  28  47  74 107 139 171 210 258 307
#     4   9  19  35  54  76 105 139 172 213 264 313
#     4  11  23  39  56  74 101 137 177 222 272 321
#     4   8  14  25  43  70 101 131 162 198 246 300
#     4  11  21  33  53  81 109 138 175 217 260 311
#
# _framework density 18.592471
#
# number of rings (size 3 to 8) (size 9 to 14) (size 15 to 20)
#    0.000    2.400    0.000    4.800    0.000    8.800 
#    0.000    0.000    0.000    1.200    0.000    5.600 
#    0.000    0.000    0.000    0.000    0.000    0.000 
#
# Total GULP energy -495854.574578 kJ/mol
# GULP energy per Si atom -12396.364364 kJ/mol
# Density = 1.855015 g / cm^3
# Si number density = 18.592471 Si / 1000 Ang^3
#
#
#
# Elastic Constant Matrix: (Units=GPa)
#
#
# Indices 1 2 3 4 5 6 
#
# 1 127.6278 56.0635 73.7598 0.0000 0.0000 0.0000
# 2 56.0635 81.7561 70.6465 0.0000 0.0000 0.0000
# 3 73.7598 70.6465 157.5196 0.0000 0.0000 0.0000
# 4 0.0000 0.0000 0.0000 -2.3959 0.0000 0.0000
# 5 0.0000 0.0000 0.0000 0.0000 36.1005 0.0000
# 6 0.0000 0.0000 0.0000 0.0000 0.0000 18.2778
#
#
#
# Elastic Compliance Matrix: (Units=1/GPa)
#
#
# Indices 1 2 3 4 5 6 
#
# 1 0.012115 -0.005561 -0.003179 0.000000 0.000000 0.000000
# 2 -0.005561 0.022524 -0.007498 0.000000 0.000000 0.000000
# 3 -0.003179 -0.007498 0.011200 0.000000 0.000000 0.000000
# 4 0.000000 0.000000 0.000000 -0.417373 0.000000 0.000000
# 5 0.000000 0.000000 0.000000 0.000000 0.027700 0.000000
# 6 0.000000 0.000000 0.000000 0.000000 0.000000 0.054711
#
#
# Mechanical properties :
#
#
# Convention : Reuss Voigt Hill
#
# Bulk Modulus (GPa) = 74.83190 85.31592 80.07391
# Shear Modulus (GPa) = -19.82614 21.49206 0.83296
#
# Velocity S-wave (km/s) = -3.26905 3.40362 0.67006
# Velocity P-wave (km/s) = 5.10754 7.83793 6.61514
#
# Compressibility (1/GPa) = 0.01336329
#
# Stress axis : x y z
#
# Youngs Moduli (GPa) = 82.54023 44.39740 89.28746
#
# Poissons Ratio (x) = 0.24689 0.28385
# Poissons Ratio (y) = 0.45900 0.66947
# Poissons Ratio (z) = 0.26240 0.33289
#
# Static dielectric constant tensor:
#      x y z
#    x 3.617120 0.000000 0.000000 
#    y 0.000000 2.881270 0.000000 
#    z 0.000000 0.000000 3.838540 
# 
# 
# High freq. dielectric constant tensor:
#      x y z
#    x 1.728430 0.000000 0.000000 
#    y 0.000000 1.663760 0.000000 
#    z 0.000000 0.000000 1.746400 
# 
# From -- ./inp_files/47882.got.cif
#   From: 2010.03.12/outbox.cif.g09.slc.cpg/sg64_24_cif.got.tgz:47882.got - 2010.04.10 20:19:32.
