data_PCOD8264423
_publ_section_title
;
Structure prediction by ZEFSAII (Michael W. Deem and Ramdas Pophale) SiO2 
 PCOD8264423
Probable space group: C M C A
;
_chemical_formula_sum "Si O2"
_cell_formula_units_Z 88
_cell_length_a 12.976181
_cell_length_b 25.608320
_cell_length_c 14.808065
_cell_angle_alpha 90.000000
_cell_angle_beta 90.000000
_cell_angle_gamma 90.000000
_cell_volume 4920.693277
_symmetry_space_group_name_H-M "C M C A"
_symmetry_group_IT_number 64
_symmetry_cell_setting 'orthorhombic'
loop_
_space_group_symop_operation_xyz
x,y,z
-x,1/2-y,1/2+z
x,-y,-z
-x,1/2+y,1/2-z
-x,-y,-z
x,1/2+y,1/2-z
-x,y,z
x,1/2-y,1/2+z
1/2+x,1/2+y,z
1/2-x,-y,1/2+z
1/2+x,1/2-y,-z
1/2-x,y,1/2-z
1/2-x,1/2-y,-z
1/2+x,y,1/2-z
1/2-x,1/2+y,z
1/2+x,-y,1/2+z
loop_
_atom_site_type_symbol
_atom_site_label
_atom_site_fract_x
_atom_site_fract_y
_atom_site_fract_z
Si Si1 0.500000 0.560024 0.891932
Si Si2 0.676283 0.135810 0.666327
Si Si3 0.500000 0.787516 0.346926
Si Si4 0.500000 0.210963 0.300129
Si Si5 0.677628 0.866781 0.667427
Si Si6 0.000000 0.059646 0.104604
Si Si7 0.000000 0.225935 0.519908
Si Si8 0.781966 0.688753 0.001005
O O1 0.394971 0.585781 0.854883
O O2 0.500000 0.499963 0.863026
O O3 0.500000 0.567114 0.998336
O O4 0.750000 0.122331 0.750000
O O5 0.600798 0.183344 0.688876
O O6 0.744257 0.154763 0.582975
O O7 0.500000 0.731937 0.300895
O O8 0.500000 0.778278 0.455663
O O9 0.604175 0.179532 0.303995
O O10 0.500000 0.254902 0.377258
O O11 0.750000 0.884529 0.750000
O O12 0.605995 0.915440 0.640419
O O13 0.746195 0.843519 0.587514
O O14 0.904782 0.188316 0.500171
O O15 0.750000 0.750000 0.000000
#
# Coordination Sequence:
#
# PCOD8264423 Si02
#       8
#     8  16   8   8  16   8   8  16
#     4  10  22  45  71  89 113 156 214 270 310 365
#     4  11  23  37  59  91 122 159 206 255 304 365
#     4  11  21  33  51  79 120 163 209 229 281 362
#     4  11  21  33  51  79 120 163 209 229 281 362
#     4  11  23  37  59  91 122 159 206 255 304 365
#     4  10  22  45  71  89 113 156 214 270 310 365
#     4  12  22  32  52  78 116 180 204 234 276 352
#     4  12  22  36  56  81 130 170 203 245 297 357
#
# _framework density 17.883658
#
# number of rings (size 3 to 8) (size 9 to 14) (size 15 to 20)
#    0.000    0.909    5.455    2.182    2.545    2.182 
#    0.000    0.000    0.000    0.000    0.000    2.545 
#    0.000    0.000    0.000    0.000    0.000    0.000 
#
# Total GULP energy -545475.687794 kJ/mol
# GULP energy per Si atom -12397.174723 kJ/mol
# Density = 1.784295 g / cm^3
# Si number density = 17.883658 Si / 1000 Ang^3
#
#
#
# Elastic Constant Matrix: (Units=GPa)
#
#
# Indices 1 2 3 4 5 6 
#
# 1 156.8090 65.0197 53.5730 0.0000 0.0000 0.0000
# 2 65.0197 108.1832 54.9628 0.0000 0.0000 0.0000
# 3 53.5730 54.9628 101.7747 0.0000 0.0000 0.0000
# 4 0.0000 0.0000 0.0000 23.5293 0.0000 0.0000
# 5 0.0000 0.0000 0.0000 0.0000 38.9913 0.0000
# 6 0.0000 0.0000 0.0000 0.0000 0.0000 18.9246
#
#
#
# Elastic Compliance Matrix: (Units=1/GPa)
#
#
# Indices 1 2 3 4 5 6 
#
# 1 0.008927 -0.004104 -0.002483 0.000000 0.000000 0.000000
# 2 -0.004104 0.014625 -0.005738 0.000000 0.000000 0.000000
# 3 -0.002483 -0.005738 0.014231 0.000000 0.000000 0.000000
# 4 0.000000 0.000000 0.000000 0.042500 0.000000 0.000000
# 5 0.000000 0.000000 0.000000 0.000000 0.025647 0.000000
# 6 0.000000 0.000000 0.000000 0.000000 0.000000 0.052841
#
#
# Mechanical properties :
#
#
# Convention : Reuss Voigt Hill
#
# Bulk Modulus (GPa) = 76.13721 79.31974 77.72847
# Shear Modulus (GPa) = 26.62411 29.16980 27.89695
#
# Velocity S-wave (km/s) = 3.86260 4.04305 3.95386
# Velocity P-wave (km/s) = 7.90942 8.13907 8.02507
#
# Compressibility (1/GPa) = 0.01313418
#
# Stress axis : x y z
#
# Youngs Moduli (GPa) = 112.01866 68.37454 70.26735
#
# Poissons Ratio (x) = 0.28060 0.17446
# Poissons Ratio (y) = 0.45971 0.40320
# Poissons Ratio (z) = 0.27812 0.39234
#
# Static dielectric constant tensor:
#      x y z
#    x 3.544130 0.000000 0.000000 
#    y 0.000000 3.170170 0.000000 
#    z 0.000000 0.000000 3.319300 
# 
# 
# High freq. dielectric constant tensor:
#      x y z
#    x 1.712670 0.000000 0.000000 
#    y 0.000000 1.667390 0.000000 
#    z 0.000000 0.000000 1.700650 
# 
# From -- ./inp_files/22485.got.cif
#   From: 2010.03.12/outbox.cif.g09.slc.cpg/sg64_12_cif.got.tgz:22485.got - 2010.04.10 20:19:32.
