data_PCOD8264727
_publ_section_title
;
Structure prediction by ZEFSAII (Michael W. Deem and Ramdas Pophale) SiO2 
 PCOD8264727
Probable space group: C M C A
;
_chemical_formula_sum "Si O2"
_cell_formula_units_Z 96
_cell_length_a 8.286934
_cell_length_b 23.600278
_cell_length_c 25.132272
_cell_angle_alpha 90.000000
_cell_angle_beta 90.000000
_cell_angle_gamma 90.000000
_cell_volume 4915.217611
_symmetry_space_group_name_H-M "C M C A"
_symmetry_group_IT_number 64
_symmetry_cell_setting 'orthorhombic'
loop_
_space_group_symop_operation_xyz
x,y,z
-x,1/2-y,1/2+z
x,-y,-z
-x,1/2+y,1/2-z
-x,-y,-z
x,1/2+y,1/2-z
-x,y,z
x,1/2-y,1/2+z
1/2+x,1/2+y,z
1/2-x,-y,1/2+z
1/2+x,1/2-y,-z
1/2-x,y,1/2-z
1/2-x,1/2-y,-z
1/2+x,y,1/2-z
1/2-x,1/2+y,z
1/2+x,-y,1/2+z
loop_
_atom_site_type_symbol
_atom_site_label
_atom_site_fract_x
_atom_site_fract_y
_atom_site_fract_z
Si Si1 0.813359 0.306806 0.193329
Si Si2 0.186300 0.687030 0.995728
Si Si3 0.809658 0.001262 0.940563
Si Si4 0.313218 0.878529 0.593150
Si Si5 0.687699 0.814913 0.808840
Si Si6 0.812742 0.380922 0.398350
O O1 0.750000 0.329211 0.250000
O O2 0.719001 0.250340 0.175328
O O3 0.788836 0.355510 0.150111
O O4 0.000000 0.290675 0.198466
O O5 0.291025 0.655009 0.951798
O O6 0.000000 0.687026 0.978509
O O7 0.250000 0.750000 0.000000
O O8 0.205166 0.657034 0.052501
O O9 0.744038 0.055727 0.908403
O O10 0.000000 0.008689 0.945722
O O11 0.761341 0.944383 0.909307
O O12 0.734171 0.000000 0.000000
O O13 0.500000 0.871431 0.577224
O O14 0.283952 0.856593 0.652406
O O15 0.500000 0.828328 0.813371
O O16 0.750000 0.827502 0.750000
O O17 0.000000 0.380818 0.382360
#
# Coordination Sequence:
#
# PCOD8264727 Si02
#       6
#    16  16  16  16  16  16
#     4  11  22  39  61  88 118 153 194 238 292 347
#     4  12  24  37  54  83 117 152 190 238 291 346
#     4   9  18  36  61  86 113 154 197 235 286 344
#     4  11  21  38  61  86 116 152 194 239 288 345
#     4  11  22  39  61  88 118 153 194 238 292 347
#     4  11  21  38  61  86 116 152 194 239 288 345
#
# _framework density 19.531179999999999
#
# number of rings (size 3 to 8) (size 9 to 14) (size 15 to 20)
#    0.000    1.167    1.667    7.500    0.000    0.000 
#    0.000    5.000    0.000    0.000    0.000    0.000 
#    0.000    0.000    0.000    0.000    0.000    0.000 
#
# Total GULP energy -595473.285367 kJ/mol
# GULP energy per Si atom -12405.693445 kJ/mol
# Density = 1.948673 g / cm^3
# Si number density = 19.531180 Si / 1000 Ang^3
#
#
#
# Elastic Constant Matrix: (Units=GPa)
#
#
# Indices 1 2 3 4 5 6 
#
# 1 65.3668 10.3645 6.3535 0.0000 0.0000 0.0000
# 2 10.3645 152.0894 70.7654 0.0000 0.0000 0.0000
# 3 6.3535 70.7654 117.1265 0.0000 0.0000 0.0000
# 4 0.0000 0.0000 0.0000 16.1470 0.0000 0.0000
# 5 0.0000 0.0000 0.0000 0.0000 31.3085 0.0000
# 6 0.0000 0.0000 0.0000 0.0000 0.0000 20.6103
#
#
#
# Elastic Compliance Matrix: (Units=1/GPa)
#
#
# Indices 1 2 3 4 5 6 
#
# 1 0.015472 -0.000923 -0.000281 0.000000 0.000000 0.000000
# 2 -0.000923 0.009201 -0.005509 0.000000 0.000000 0.000000
# 3 -0.000281 -0.005509 0.011882 0.000000 0.000000 0.000000
# 4 0.000000 0.000000 0.000000 0.061931 0.000000 0.000000
# 5 0.000000 0.000000 0.000000 0.000000 0.031940 0.000000
# 6 0.000000 0.000000 0.000000 0.000000 0.000000 0.048519
#
#
# Mechanical properties :
#
#
# Convention : Reuss Voigt Hill
#
# Bulk Modulus (GPa) = 43.23945 56.61660 49.92803
# Shear Modulus (GPa) = 24.98966 30.08644 27.53805
#
# Velocity S-wave (km/s) = 3.58086 3.92909 3.75901
# Velocity P-wave (km/s) = 6.26765 7.04517 6.66775
#
# Compressibility (1/GPa) = 0.02312703
#
# Stress axis : x y z
#
# Youngs Moduli (GPa) = 64.63260 108.67947 84.16392
#
# Poissons Ratio (x) = 0.10036 0.02368
# Poissons Ratio (y) = 0.05969 0.46367
# Poissons Ratio (z) = 0.01818 0.59874
#
# Static dielectric constant tensor:
#      x y z
#    x 3.452170 0.000000 0.000000 
#    y 0.000000 3.754550 0.000000 
#    z 0.000000 0.000000 3.548690 
# 
# 
# High freq. dielectric constant tensor:
#      x y z
#    x 1.759920 0.000000 0.000000 
#    y 0.000000 1.761680 0.000000 
#    z 0.000000 0.000000 1.759780 
# 
# From -- ./inp_files/48091.got.cif
#   From: 2010.03.12/outbox.cif.g09.slc.cpg/sg64_25_cif.got.tgz:48091.got - 2010.04.10 20:19:32.
