data_PCOD8264426
_publ_section_title
;
Structure prediction by ZEFSAII (Michael W. Deem and Ramdas Pophale) SiO2 
 PCOD8264426
Probable space group: C M C A
;
_chemical_formula_sum "Si O2"
_cell_formula_units_Z 104
_cell_length_a 21.288886
_cell_length_b 14.591112
_cell_length_c 15.758730
_cell_angle_alpha 90.000000
_cell_angle_beta 90.000000
_cell_angle_gamma 90.000000
_cell_volume 4895.110977
_symmetry_space_group_name_H-M "C M C A"
_symmetry_group_IT_number 64
_symmetry_cell_setting 'orthorhombic'
loop_
_space_group_symop_operation_xyz
x,y,z
-x,1/2-y,1/2+z
x,-y,-z
-x,1/2+y,1/2-z
-x,-y,-z
x,1/2+y,1/2-z
-x,y,z
x,1/2-y,1/2+z
1/2+x,1/2+y,z
1/2-x,-y,1/2+z
1/2+x,1/2-y,-z
1/2-x,y,1/2-z
1/2-x,1/2-y,-z
1/2+x,y,1/2-z
1/2-x,1/2+y,z
1/2+x,-y,1/2+z
loop_
_atom_site_type_symbol
_atom_site_label
_atom_site_fract_x
_atom_site_fract_y
_atom_site_fract_z
Si Si1 0.301943 0.555484 0.692249
Si Si2 0.634776 0.379839 0.618772
Si Si3 0.500000 0.768232 0.244454
Si Si4 0.500000 0.808866 0.563569
Si Si5 0.122005 0.107259 0.988442
Si Si6 0.000000 0.659892 0.078727
Si Si7 0.239165 0.893625 0.485564
Si Si8 0.878052 0.315274 0.306075
O O1 0.250000 0.503589 0.750000
O O2 0.349713 0.475483 0.665067
O O3 0.276965 0.616797 0.613730
O O4 0.324147 0.631753 0.758466
O O5 0.565297 0.397074 0.578492
O O6 0.684642 0.352907 0.545135
O O7 0.636645 0.293315 0.682548
O O8 0.500000 0.703240 0.163801
O O9 0.500000 0.716983 0.334974
O O10 0.437537 0.829207 0.243489
O O11 0.434706 0.861696 0.548180
O O12 0.500000 0.717715 0.507682
O O13 0.192034 0.150320 0.008068
O O14 0.103881 0.136662 0.894057
O O15 0.127700 0.000000 0.000000
O O16 0.243371 0.000000 0.500000
#
# Coordination Sequence:
#
# PCOD8264426 Si02
#       8
#    16  16   8   8  16   8  16  16
#     4  11  23  42  65  99 137 176 235 286 344 411
#     4  10  23  45  69  93 139 185 224 291 343 407
#     4  10  24  43  65  93 138 173 225 287 340 419
#     4  12  23  43  67 100 133 184 233 288 348 418
#     4  11  22  41  68  97 139 178 226 288 350 408
#     4  10  22  46  64  97 140 173 239 288 329 421
#     4   9  21  43  64  96 133 178 226 282 338 422
#     4  11  23  44  66 100 139 175 228 294 338 415
#
# _framework density 21.245687
#
# number of rings (size 3 to 8) (size 9 to 14) (size 15 to 20)
#    0.000    1.538    4.615    0.231    2.154    4.308 
#    2.769    3.462    0.000    0.000    0.000    0.000 
#    0.000    0.000    0.000    0.000    0.000    0.000 
#
# Total GULP energy -644193.059999 kJ/mol
# GULP energy per Si atom -12388.328077 kJ/mol
# Density = 2.119733 g / cm^3
# Si number density = 21.245687 Si / 1000 Ang^3
#
#
#
# Elastic Constant Matrix: (Units=GPa)
#
#
# Indices 1 2 3 4 5 6 
#
# 1 172.2447 42.4592 33.3195 0.0000 0.0000 0.0000
# 2 42.4592 66.8139 20.0497 0.0000 0.0000 0.0000
# 3 33.3195 20.0497 89.0621 0.0000 0.0000 0.0000
# 4 0.0000 0.0000 0.0000 31.1515 0.0000 0.0000
# 5 0.0000 0.0000 0.0000 0.0000 47.1401 0.0000
# 6 0.0000 0.0000 0.0000 0.0000 0.0000 -4.7870
#
#
#
# Elastic Compliance Matrix: (Units=1/GPa)
#
#
# Indices 1 2 3 4 5 6 
#
# 1 0.007135 -0.004003 -0.001768 0.000000 0.000000 0.000000
# 2 -0.004003 0.018298 -0.002621 0.000000 0.000000 0.000000
# 3 -0.001768 -0.002621 0.012480 0.000000 0.000000 0.000000
# 4 0.000000 0.000000 0.000000 0.032101 0.000000 0.000000
# 5 0.000000 0.000000 0.000000 0.000000 0.021213 0.000000
# 6 0.000000 0.000000 0.000000 0.000000 0.000000 -0.208900
#
#
# Mechanical properties :
#
#
# Convention : Reuss Voigt Hill
#
# Bulk Modulus (GPa) = 47.33408 57.75306 52.54357
# Shear Modulus (GPa) = -53.27858 30.18707 -11.54576
#
# Velocity S-wave (km/s) = -5.01316 3.77351 -2.33371
# Velocity P-wave (km/s) = 3.34385 6.79914 4.18611
#
# Compressibility (1/GPa) = 0.02112643
#
# Stress axis : x y z
#
# Youngs Moduli (GPa) = 140.16328 54.65169 80.13042
#
# Poissons Ratio (x) = 0.21879 0.14166
# Poissons Ratio (y) = 0.56113 0.21006
# Poissons Ratio (z) = 0.24779 0.14327
#
# Static dielectric constant tensor:
#      x y z
#    x 4.839770 0.000000 0.000000 
#    y 0.000000 4.151010 0.000000 
#    z 0.000000 0.000000 3.386560 
# 
# 
# High freq. dielectric constant tensor:
#      x y z
#    x 1.862680 0.000000 0.000000 
#    y 0.000000 1.808380 0.000000 
#    z 0.000000 0.000000 1.832990 
# 
# From -- ./inp_files/34387.got.cif
#   From: 2010.03.12/outbox.cif.g09.slc.cpg/sg64_18_cif.got.tgz:34387.got - 2010.04.10 20:19:32.
