data_PCOD8264216
_publ_section_title
;
Structure prediction by ZEFSAII (Michael W. Deem and Ramdas Pophale) SiO2 
 PCOD8264216
Probable space group: C M C A
;
_chemical_formula_sum "Si O2"
_cell_formula_units_Z 96
_cell_length_a 16.975724
_cell_length_b 20.042533
_cell_length_c 14.160705
_cell_angle_alpha 90.000000
_cell_angle_beta 90.000000
_cell_angle_gamma 90.000000
_cell_volume 4817.988827
_symmetry_space_group_name_H-M "C M C A"
_symmetry_group_IT_number 64
_symmetry_cell_setting 'orthorhombic'
loop_
_space_group_symop_operation_xyz
x,y,z
-x,1/2-y,1/2+z
x,-y,-z
-x,1/2+y,1/2-z
-x,-y,-z
x,1/2+y,1/2-z
-x,y,z
x,1/2-y,1/2+z
1/2+x,1/2+y,z
1/2-x,-y,1/2+z
1/2+x,1/2-y,-z
1/2-x,y,1/2-z
1/2-x,1/2-y,-z
1/2+x,y,1/2-z
1/2-x,1/2+y,z
1/2+x,-y,1/2+z
loop_
_atom_site_type_symbol
_atom_site_label
_atom_site_fract_x
_atom_site_fract_y
_atom_site_fract_z
Si Si1 0.590932 0.423159 0.172999
Si Si2 0.660386 0.439107 0.780936
Si Si3 0.091908 0.320351 0.826250
Si Si4 0.839441 0.697643 0.777628
Si Si5 0.311027 0.924708 0.509494
Si Si6 0.810268 0.310312 0.011062
O O1 0.500000 0.441325 0.165072
O O2 0.634457 0.483980 0.225671
O O3 0.602628 0.356397 0.232591
O O4 0.622285 0.410063 0.067618
O O5 0.750000 0.432580 0.750000
O O6 0.606975 0.395233 0.710871
O O7 0.650621 0.412184 0.887897
O O8 0.139085 0.271004 0.757829
O O9 0.000000 0.304071 0.825063
O O10 0.122766 0.309483 0.931983
O O11 0.750000 0.679953 0.750000
O O12 0.853432 0.696183 0.889196
O O13 0.235496 0.879580 0.493145
O O14 0.279483 0.000000 0.500000
O O15 0.750000 0.250000 0.000000
#
# Coordination Sequence:
#
# PCOD8264216 Si02
#       6
#    16  16  16  16  16  16
#     4  11  24  41  63  99 133 162 210 270 320 365
#     4  11  22  41  68  92 127 174 216 251 311 384
#     4  12  26  42  63  96 130 161 207 269 320 367
#     4  12  23  41  70  90 123 169 215 254 310 383
#     4  10  22  38  66  95 122 167 214 261 304 372
#     4  12  23  41  66  93 122 166 214 256 309 381
#
# _framework density 19.925328
#
# number of rings (size 3 to 8) (size 9 to 14) (size 15 to 20)
#    0.000    0.667    5.000    3.000    2.333    5.000 
#    0.000    0.000    0.000    2.500    0.000    0.000 
#    0.000    0.000    0.000    0.000    0.000    0.000 
#
# Total GULP energy -595546.769261 kJ/mol
# GULP energy per Si atom -12407.224360 kJ/mol
# Density = 1.987998 g / cm^3
# Si number density = 19.925328 Si / 1000 Ang^3
#
#
#
# Elastic Constant Matrix: (Units=GPa)
#
#
# Indices 1 2 3 4 5 6 
#
# 1 87.6737 19.4827 36.6464 0.0000 0.0000 0.0000
# 2 19.4827 81.4562 27.8602 0.0000 0.0000 0.0000
# 3 36.6464 27.8602 126.7008 0.0000 0.0000 0.0000
# 4 0.0000 0.0000 0.0000 32.1649 0.0000 0.0000
# 5 0.0000 0.0000 0.0000 0.0000 26.3424 0.0000
# 6 0.0000 0.0000 0.0000 0.0000 0.0000 26.1739
#
#
#
# Elastic Compliance Matrix: (Units=1/GPa)
#
#
# Indices 1 2 3 4 5 6 
#
# 1 0.013273 -0.002013 -0.003396 0.000000 0.000000 0.000000
# 2 -0.002013 0.013580 -0.002404 0.000000 0.000000 0.000000
# 3 -0.003396 -0.002404 0.009404 0.000000 0.000000 0.000000
# 4 0.000000 0.000000 0.000000 0.031090 0.000000 0.000000
# 5 0.000000 0.000000 0.000000 0.000000 0.037962 0.000000
# 6 0.000000 0.000000 0.000000 0.000000 0.000000 0.038206
#
#
# Mechanical properties :
#
#
# Convention : Reuss Voigt Hill
#
# Bulk Modulus (GPa) = 48.47275 51.53435 50.00355
# Shear Modulus (GPa) = 30.11736 31.05901 30.58818
#
# Velocity S-wave (km/s) = 3.89203 3.95241 3.92234
# Velocity P-wave (km/s) = 6.67662 6.83730 6.75743
#
# Compressibility (1/GPa) = 0.02063015
#
# Stress axis : x y z
#
# Youngs Moduli (GPa) = 75.34160 73.63663 106.34274
#
# Poissons Ratio (x) = 0.14823 0.36118
# Poissons Ratio (y) = 0.15166 0.25564
# Poissons Ratio (z) = 0.25589 0.17702
#
# Static dielectric constant tensor:
#      x y z
#    x 3.379230 0.000000 0.000000 
#    y 0.000000 3.733860 0.000000 
#    z 0.000000 0.000000 3.723840 
# 
# 
# High freq. dielectric constant tensor:
#      x y z
#    x 1.764110 0.000000 0.000000 
#    y 0.000000 1.792770 0.000000 
#    z 0.000000 0.000000 1.791670 
# 
# From -- ./inp_files/23872.got.cif
#   From: 2010.03.12/outbox.cif.g09.slc.cpg/sg64_12_cif.got.tgz:23872.got - 2010.04.10 20:19:32.
