data_PCOD8264103
_publ_section_title
;
Structure prediction by ZEFSAII (Michael W. Deem and Ramdas Pophale) SiO2 
 PCOD8264103
Probable space group: C M C A
;
_chemical_formula_sum "Si O2"
_cell_formula_units_Z 64
_cell_length_a 21.532431
_cell_length_b 11.898424
_cell_length_c 11.274943
_cell_angle_alpha 90.000000
_cell_angle_beta 90.000000
_cell_angle_gamma 90.000000
_cell_volume 2888.662876
_symmetry_space_group_name_H-M "C M C A"
_symmetry_group_IT_number 64
_symmetry_cell_setting 'orthorhombic'
loop_
_space_group_symop_operation_xyz
x,y,z
-x,1/2-y,1/2+z
x,-y,-z
-x,1/2+y,1/2-z
-x,-y,-z
x,1/2+y,1/2-z
-x,y,z
x,1/2-y,1/2+z
1/2+x,1/2+y,z
1/2-x,-y,1/2+z
1/2+x,1/2-y,-z
1/2-x,y,1/2-z
1/2-x,1/2-y,-z
1/2+x,y,1/2-z
1/2-x,1/2+y,z
1/2+x,-y,1/2+z
loop_
_atom_site_type_symbol
_atom_site_label
_atom_site_fract_x
_atom_site_fract_y
_atom_site_fract_z
Si Si1 0.624162 0.903614 0.413739
Si Si2 0.615319 0.549226 0.655505
Si Si3 0.255613 0.169203 0.884073
Si Si4 0.569588 0.666439 0.443386
O O1 0.593471 0.919210 0.286058
O O2 0.698142 0.916132 0.397243
O O3 0.605366 0.782764 0.463110
O O4 0.598781 0.000000 0.500000
O O5 0.682519 0.594352 0.613242
O O6 0.564582 0.607036 0.571178
O O7 0.610549 0.413495 0.643298
O O8 0.250000 0.227201 0.750000
O O9 0.250000 0.250000 0.000000
O O10 0.500000 0.685449 0.393811
#
# Coordination Sequence:
#
# PCOD8264103 Si02
#       4
#    16  16  16  16
#     4  11  26  42  69 105 135 177 227 285 347 406
#     4  10  23  45  68  99 135 180 226 279 343 408
#     4  10  21  41  70 103 142 178 220 284 347 412
#     4  11  25  45  70  96 135 185 231 279 338 405
#
# _framework density 22.15558
#
# number of rings (size 3 to 8) (size 9 to 14) (size 15 to 20)
#    0.000    1.500    2.500    1.500    7.000    2.500 
#    0.000    3.750    0.000    0.000    0.000    0.000 
#    0.000    0.000    0.000    0.000    0.000    0.000 
#
# Total GULP energy -396515.964986 kJ/mol
# GULP energy per Si atom -12391.123906 kJ/mol
# Density = 2.210515 g / cm^3
# Si number density = 22.155580 Si / 1000 Ang^3
#
#
#
# Elastic Constant Matrix: (Units=GPa)
#
#
# Indices 1 2 3 4 5 6 
#
# 1 105.6624 33.0130 8.8140 0.0000 0.0000 0.0000
# 2 33.0130 144.2825 39.8900 0.0000 0.0000 0.0000
# 3 8.8140 39.8900 136.4067 0.0000 0.0000 0.0000
# 4 0.0000 0.0000 0.0000 31.3986 0.0000 0.0000
# 5 0.0000 0.0000 0.0000 0.0000 20.9174 0.0000
# 6 0.0000 0.0000 0.0000 0.0000 0.0000 19.8803
#
#
#
# Elastic Compliance Matrix: (Units=1/GPa)
#
#
# Indices 1 2 3 4 5 6 
#
# 1 0.010193 -0.002339 0.000025 0.000000 0.000000 0.000000
# 2 -0.002339 0.008077 -0.002211 0.000000 0.000000 0.000000
# 3 0.000025 -0.002211 0.007976 0.000000 0.000000 0.000000
# 4 0.000000 0.000000 0.000000 0.031849 0.000000 0.000000
# 5 0.000000 0.000000 0.000000 0.000000 0.047807 0.000000
# 6 0.000000 0.000000 0.000000 0.000000 0.000000 0.050301
#
#
# Mechanical properties :
#
#
# Convention : Reuss Voigt Hill
#
# Bulk Modulus (GPa) = 58.15079 61.08729 59.61904
# Shear Modulus (GPa) = 29.24245 34.74826 31.99535
#
# Velocity S-wave (km/s) = 3.63694 3.96457 3.80428
# Velocity P-wave (km/s) = 6.62873 6.97057 6.80180
#
# Compressibility (1/GPa) = 0.01719667
#
# Stress axis : x y z
#
# Youngs Moduli (GPa) = 98.10798 123.80304 125.37722
#
# Poissons Ratio (x) = 0.28961 -0.00319
# Poissons Ratio (y) = 0.22950 0.27720
# Poissons Ratio (z) = -0.00250 0.27372
#
# Static dielectric constant tensor:
#      x y z
#    x 3.870380 0.000000 0.000000 
#    y 0.000000 3.876880 0.000000 
#    z 0.000000 0.000000 4.359670 
# 
# 
# High freq. dielectric constant tensor:
#      x y z
#    x 1.870760 0.000000 0.000000 
#    y 0.000000 1.856680 0.000000 
#    z 0.000000 0.000000 1.881080 
# 
# From -- ./inp_files/16767.got.cif
#   From: 2010.03.12/outbox.cif.g09.slc.cpg/sg64_9_cif.got.tgz:16767.got - 2010.04.10 20:19:32.
