data_PCOD8264970
_publ_section_title
;
Structure prediction by ZEFSAII (Michael W. Deem and Ramdas Pophale) SiO2 
 PCOD8264970
Probable space group: C M C A
;
_chemical_formula_sum "Si O2"
_cell_formula_units_Z 80
_cell_length_a 21.444436
_cell_length_b 11.724543
_cell_length_c 15.033781
_cell_angle_alpha 90.000000
_cell_angle_beta 90.000000
_cell_angle_gamma 90.000000
_cell_volume 3779.886609
_symmetry_space_group_name_H-M "C M C A"
_symmetry_group_IT_number 64
_symmetry_cell_setting 'orthorhombic'
loop_
_space_group_symop_operation_xyz
x,y,z
-x,1/2-y,1/2+z
x,-y,-z
-x,1/2+y,1/2-z
-x,-y,-z
x,1/2+y,1/2-z
-x,y,z
x,1/2-y,1/2+z
1/2+x,1/2+y,z
1/2-x,-y,1/2+z
1/2+x,1/2-y,-z
1/2-x,y,1/2-z
1/2-x,1/2-y,-z
1/2+x,y,1/2-z
1/2-x,1/2+y,z
1/2+x,-y,1/2+z
loop_
_atom_site_type_symbol
_atom_site_label
_atom_site_fract_x
_atom_site_fract_y
_atom_site_fract_z
Si Si1 0.573304 0.381526 0.458112
Si Si2 0.163417 0.500000 0.500000
Si Si3 0.145750 0.184242 0.716755
Si Si4 0.750000 0.017743 0.750000
Si Si5 0.867219 0.209706 0.906916
Si Si6 0.758590 0.837860 0.887042
O O1 0.598395 0.500000 0.500000
O O2 0.500000 0.385374 0.444702
O O3 0.601581 0.365076 0.359574
O O4 0.590205 0.278993 0.524136
O O5 0.123482 0.427321 0.427941
O O6 0.204847 0.606282 0.467975
O O7 0.188502 0.091473 0.767636
O O8 0.109438 0.232949 0.804426
O O9 0.191361 0.277526 0.676195
O O10 0.729953 0.944147 0.834620
O O11 0.795540 0.253726 0.919622
#
# Coordination Sequence:
#
# PCOD8264970 Si02
#       6
#    16   8  16   8  16  16
#     4  11  28  49  69  94 126 177 238 279 321 392
#     4  12  24  36  61 104 141 176 212 262 338 406
#     4  12  23  41  67  99 137 173 211 276 338 394
#     4  12  20  36  62 104 138 166 216 266 338 412
#     4  12  24  41  68  99 138 177 215 273 334 401
#     4  12  22  38  61 104 139 173 212 265 340 409
#
# _framework density 21.164656000000001
#
# number of rings (size 3 to 8) (size 9 to 14) (size 15 to 20)
#    0.000    0.200    8.000    1.800    4.200    0.800 
#    0.000    0.500    0.000    0.000    0.000    0.000 
#    0.000    0.000    0.000    0.000    0.000    0.000 
#
# Total GULP energy -495633.549868 kJ/mol
# GULP energy per Si atom -12390.838747 kJ/mol
# Density = 2.111648 g / cm^3
# Si number density = 21.164656 Si / 1000 Ang^3
#
#
#
# Elastic Constant Matrix: (Units=GPa)
#
#
# Indices 1 2 3 4 5 6 
#
# 1 53.5311 22.0112 35.0860 0.0000 0.0000 0.0000
# 2 22.0112 115.4590 53.1976 0.0000 0.0000 0.0000
# 3 35.0860 53.1976 105.4920 0.0000 0.0000 0.0000
# 4 0.0000 0.0000 0.0000 41.5650 0.0000 0.0000
# 5 0.0000 0.0000 0.0000 0.0000 -18.6694 0.0000
# 6 0.0000 0.0000 0.0000 0.0000 0.0000 27.8364
#
#
#
# Elastic Compliance Matrix: (Units=1/GPa)
#
#
# Indices 1 2 3 4 5 6 
#
# 1 0.024009 -0.001170 -0.007395 0.000000 0.000000 0.000000
# 2 -0.001170 0.011340 -0.005329 0.000000 0.000000 0.000000
# 3 -0.007395 -0.005329 0.014626 0.000000 0.000000 0.000000
# 4 0.000000 0.000000 0.000000 0.024059 0.000000 0.000000
# 5 0.000000 0.000000 0.000000 0.000000 -0.053564 0.000000
# 6 0.000000 0.000000 0.000000 0.000000 0.000000 0.035924
#
#
# Mechanical properties :
#
#
# Convention : Reuss Voigt Hill
#
# Bulk Modulus (GPa) = 45.07294 55.00797 50.04045
# Shear Modulus (GPa) = 54.59814 21.09221 37.84518
#
# Velocity S-wave (km/s) = 5.08457 3.16029 4.23322
# Velocity P-wave (km/s) = 7.47081 6.27403 6.89842
#
# Compressibility (1/GPa) = 0.02218626
#
# Stress axis : x y z
#
# Youngs Moduli (GPa) = 41.65133 88.18702 68.36909
#
# Poissons Ratio (x) = 0.10315 0.50561
# Poissons Ratio (y) = 0.04872 0.36436
# Poissons Ratio (z) = 0.30803 0.46997
#
# Static dielectric constant tensor:
#      x y z
#    x 3.363550 0.000000 0.000000 
#    y 0.000000 4.355290 0.000000 
#    z 0.000000 0.000000 4.194440 
# 
# 
# High freq. dielectric constant tensor:
#      x y z
#    x 1.771730 0.000000 0.000000 
#    y 0.000000 1.848440 0.000000 
#    z 0.000000 0.000000 1.860410 
# 
# From -- ./inp_files/27128.got.cif
#   From: 2010.03.12/outbox.cif.g09.slc.cpg/sg64_14_cif.got.tgz:27128.got - 2010.04.10 20:19:32.
