data_PCOD8264391
_publ_section_title
;
Structure prediction by ZEFSAII (Michael W. Deem and Ramdas Pophale) SiO2 
 PCOD8264391
Probable space group: C M C A
;
_chemical_formula_sum "Si O2"
_cell_formula_units_Z 88
_cell_length_a 24.251592
_cell_length_b 5.244485
_cell_length_c 28.901895
_cell_angle_alpha 90.000000
_cell_angle_beta 90.000000
_cell_angle_gamma 90.000000
_cell_volume 3675.948512
_symmetry_space_group_name_H-M "C M C A"
_symmetry_group_IT_number 64
_symmetry_cell_setting 'orthorhombic'
loop_
_space_group_symop_operation_xyz
x,y,z
-x,1/2-y,1/2+z
x,-y,-z
-x,1/2+y,1/2-z
-x,-y,-z
x,1/2+y,1/2-z
-x,y,z
x,1/2-y,1/2+z
1/2+x,1/2+y,z
1/2-x,-y,1/2+z
1/2+x,1/2-y,-z
1/2-x,y,1/2-z
1/2-x,1/2-y,-z
1/2+x,y,1/2-z
1/2-x,1/2+y,z
1/2+x,-y,1/2+z
loop_
_atom_site_type_symbol
_atom_site_label
_atom_site_fract_x
_atom_site_fract_y
_atom_site_fract_z
Si Si1 0.062393 0.543627 0.270244
Si Si2 0.117214 0.308252 0.646494
Si Si3 0.888581 0.801592 0.588738
Si Si4 0.724667 0.546412 0.447396
Si Si5 0.726851 0.751579 0.697231
Si Si6 0.000000 0.752249 0.531230
O O1 0.091939 0.275660 0.257911
O O2 0.063424 0.600324 0.325235
O O3 0.000000 0.513387 0.252873
O O4 0.105355 0.030413 0.625557
O O5 0.162465 0.297450 0.688003
O O6 0.130146 0.529088 0.609470
O O7 0.840121 0.889506 0.554194
O O8 0.945627 0.757419 0.562459
O O9 0.743845 0.500000 0.500000
O O10 0.760492 0.774608 0.423132
O O11 0.750000 0.725989 0.750000
O O12 0.741370 0.484911 0.672220
O O13 0.000000 0.500000 0.500000
O O14 0.000000 0.000000 0.500000
#
# Coordination Sequence:
#
# PCOD8264391 Si02
#       6
#    16  16  16  16  16   8
#     4  10  23  41  65  90 123 174 233 281 334 414
#     4  12  26  41  69  99 139 182 231 301 353 402
#     4  12  27  44  71 109 144 183 234 301 364 419
#     4  10  22  42  70  99 135 179 225 279 349 437
#     4  10  23  40  63  91 132 186 239 289 345 430
#     4  12  28  52  80 106 148 198 240 288 362 468
#
# _framework density 23.939399999999999
#
# number of rings (size 3 to 8) (size 9 to 14) (size 15 to 20)
#    0.000    1.091    0.000    4.909    7.636    6.545 
#    0.000    0.000    0.000    0.000    0.000    0.000 
#    0.000    0.000    0.000    0.000    0.000    0.000 
#
# Total GULP energy -545170.833263 kJ/mol
# GULP energy per Si atom -12390.246211 kJ/mol
# Density = 2.388491 g / cm^3
# Si number density = 23.939400 Si / 1000 Ang^3
#
#
#
# Elastic Constant Matrix: (Units=GPa)
#
#
# Indices 1 2 3 4 5 6 
#
# 1 129.1421 46.4168 38.4784 0.0000 0.0000 0.0000
# 2 46.4168 181.6626 29.8629 0.0000 0.0000 0.0000
# 3 38.4784 29.8629 61.0427 0.0000 0.0000 0.0000
# 4 0.0000 0.0000 0.0000 31.9834 0.0000 0.0000
# 5 0.0000 0.0000 0.0000 0.0000 43.7897 0.0000
# 6 0.0000 0.0000 0.0000 0.0000 0.0000 29.6527
#
#
#
# Elastic Compliance Matrix: (Units=1/GPa)
#
#
# Indices 1 2 3 4 5 6 
#
# 1 0.009967 -0.001646 -0.005477 0.000000 0.000000 0.000000
# 2 -0.001646 0.006258 -0.002024 0.000000 0.000000 0.000000
# 3 -0.005477 -0.002024 0.020825 0.000000 0.000000 0.000000
# 4 0.000000 0.000000 0.000000 0.031266 0.000000 0.000000
# 5 0.000000 0.000000 0.000000 0.000000 0.022836 0.000000
# 6 0.000000 0.000000 0.000000 0.000000 0.000000 0.033724
#
#
# Mechanical properties :
#
#
# Convention : Reuss Voigt Hill
#
# Bulk Modulus (GPa) = 53.31928 66.81818 60.06873
# Shear Modulus (GPa) = 33.46205 38.22443 35.84324
#
# Velocity S-wave (km/s) = 3.74275 4.00023 3.87363
# Velocity P-wave (km/s) = 6.40301 7.02195 6.71961
#
# Compressibility (1/GPa) = 0.01875494
#
# Stress axis : x y z
#
# Youngs Moduli (GPa) = 100.32951 159.79446 48.01982
#
# Poissons Ratio (x) = 0.26307 0.26303
# Poissons Ratio (y) = 0.16517 0.09718
# Poissons Ratio (z) = 0.54955 0.32339
#
# Static dielectric constant tensor:
#      x y z
#    x 4.251760 0.000000 0.000000 
#    y 0.000000 5.460710 0.000000 
#    z 0.000000 0.000000 4.740650 
# 
# 
# High freq. dielectric constant tensor:
#      x y z
#    x 1.941450 0.000000 0.000000 
#    y 0.000000 1.992650 0.000000 
#    z 0.000000 0.000000 1.932350 
# 
# From -- ./inp_files/53895.got.cif
#   From: 2010.03.12/outbox.cif.g09.slc.cpg/sg64_27_cif.got.tgz:53895.got - 2010.04.10 20:19:32.
