data_PCOD8264709
_publ_section_title
;
Structure prediction by ZEFSAII (Michael W. Deem and Ramdas Pophale) SiO2 
 PCOD8264709
Probable space group: C M C A
;
_chemical_formula_sum "Si O2"
_cell_formula_units_Z 64
_cell_length_a 8.368003
_cell_length_b 20.431195
_cell_length_c 19.111358
_cell_angle_alpha 90.000000
_cell_angle_beta 90.000000
_cell_angle_gamma 90.000000
_cell_volume 3267.436408
_symmetry_space_group_name_H-M "C M C A"
_symmetry_group_IT_number 64
_symmetry_cell_setting 'orthorhombic'
loop_
_space_group_symop_operation_xyz
x,y,z
-x,1/2-y,1/2+z
x,-y,-z
-x,1/2+y,1/2-z
-x,-y,-z
x,1/2+y,1/2-z
-x,y,z
x,1/2-y,1/2+z
1/2+x,1/2+y,z
1/2-x,-y,1/2+z
1/2+x,1/2-y,-z
1/2-x,y,1/2-z
1/2-x,1/2-y,-z
1/2+x,y,1/2-z
1/2-x,1/2+y,z
1/2+x,-y,1/2+z
loop_
_atom_site_type_symbol
_atom_site_label
_atom_site_fract_x
_atom_site_fract_y
_atom_site_fract_z
Si Si1 0.312572 0.011832 0.825745
Si Si2 0.314660 0.933529 0.461766
Si Si3 0.686888 0.631516 0.176281
Si Si4 0.315050 0.187919 0.040466
O O1 0.500000 0.023476 0.831609
O O2 0.250000 0.032512 0.750000
O O3 0.274457 0.936265 0.841850
O O4 0.222430 0.059026 0.879892
O O5 0.500000 0.917161 0.474298
O O6 0.209704 0.875605 0.492976
O O7 0.263513 0.000000 0.500000
O O8 0.500000 0.617035 0.182067
O O9 0.750000 0.660233 0.250000
O O10 0.723084 0.682506 0.114538
O O11 0.500000 0.197483 0.056978
O O12 0.250000 0.250000 0.000000
#
# Coordination Sequence:
#
# PCOD8264709 Si02
#       4
#    16  16  16  16
#     4  11  21  35  58  89 123 159 201 251 306 360
#     4  11  22  38  62  90 122 157 200 250 302 356
#     4  11  21  37  60  89 121 158 202 250 301 358
#     4  12  25  42  63  90 124 163 205 250 304 363
#
# _framework density 19.587219999999999
#
# number of rings (size 3 to 8) (size 9 to 14) (size 15 to 20)
#    0.000    0.750    2.500    9.000    0.000    1.000 
#    0.000    1.250    0.000    0.000    0.000    0.000 
#    0.000    0.000    0.000    0.000    0.000    0.000 
#
# Total GULP energy -397022.019325 kJ/mol
# GULP energy per Si atom -12406.938104 kJ/mol
# Density = 1.954264 g / cm^3
# Si number density = 19.587220 Si / 1000 Ang^3
#
#
#
# Elastic Constant Matrix: (Units=GPa)
#
#
# Indices 1 2 3 4 5 6 
#
# 1 80.9678 16.9575 15.2692 0.0000 0.0000 0.0000
# 2 16.9575 74.9929 48.7548 0.0000 0.0000 0.0000
# 3 15.2692 48.7548 150.8376 0.0000 0.0000 0.0000
# 4 0.0000 0.0000 0.0000 28.5793 0.0000 0.0000
# 5 0.0000 0.0000 0.0000 0.0000 37.0519 0.0000
# 6 0.0000 0.0000 0.0000 0.0000 0.0000 28.7666
#
#
#
# Elastic Compliance Matrix: (Units=1/GPa)
#
#
# Indices 1 2 3 4 5 6 
#
# 1 0.012990 -0.002636 -0.000463 0.000000 0.000000 0.000000
# 2 -0.002636 0.017417 -0.005363 0.000000 0.000000 0.000000
# 3 -0.000463 -0.005363 0.008410 0.000000 0.000000 0.000000
# 4 0.000000 0.000000 0.000000 0.034990 0.000000 0.000000
# 5 0.000000 0.000000 0.000000 0.000000 0.026989 0.000000
# 6 0.000000 0.000000 0.000000 0.000000 0.000000 0.034762
#
#
# Mechanical properties :
#
#
# Convention : Reuss Voigt Hill
#
# Bulk Modulus (GPa) = 45.67662 52.08458 48.88060
# Shear Modulus (GPa) = 31.29281 33.93401 32.61341
#
# Velocity S-wave (km/s) = 4.00135 4.16679 4.08491
# Velocity P-wave (km/s) = 6.68715 7.05680 6.87446
#
# Compressibility (1/GPa) = 0.02189304
#
# Stress axis : x y z
#
# Youngs Moduli (GPa) = 76.98210 57.41421 118.90720
#
# Poissons Ratio (x) = 0.15137 0.05503
# Poissons Ratio (y) = 0.20296 0.63768
# Poissons Ratio (z) = 0.03563 0.30790
#
# Static dielectric constant tensor:
#      x y z
#    x 3.657790 0.000000 0.000000 
#    y 0.000000 3.307190 0.000000 
#    z 0.000000 0.000000 3.979840 
# 
# 
# High freq. dielectric constant tensor:
#      x y z
#    x 1.783140 0.000000 0.000000 
#    y 0.000000 1.727060 0.000000 
#    z 0.000000 0.000000 1.784080 
# 
# From -- ./inp_files/29243.got.cif
#   From: 2010.03.12/outbox.cif.g09.slc.cpg/sg64_15_cif.got.tgz:29243.got - 2010.04.10 20:19:32.
