data_PCOD8264908
_publ_section_title
;
Structure prediction by ZEFSAII (Michael W. Deem and Ramdas Pophale) SiO2 
 PCOD8264908
Probable space group: C M C A
;
_chemical_formula_sum "Si O2"
_cell_formula_units_Z 64
_cell_length_a 25.702868
_cell_length_b 11.170988
_cell_length_c 9.591391
_cell_angle_alpha 90.000000
_cell_angle_beta 90.000000
_cell_angle_gamma 90.000000
_cell_volume 2753.941857
_symmetry_space_group_name_H-M "C M C A"
_symmetry_group_IT_number 64
_symmetry_cell_setting 'orthorhombic'
loop_
_space_group_symop_operation_xyz
x,y,z
-x,1/2-y,1/2+z
x,-y,-z
-x,1/2+y,1/2-z
-x,-y,-z
x,1/2+y,1/2-z
-x,y,z
x,1/2-y,1/2+z
1/2+x,1/2+y,z
1/2-x,-y,1/2+z
1/2+x,1/2-y,-z
1/2-x,y,1/2-z
1/2-x,1/2-y,-z
1/2+x,y,1/2-z
1/2-x,1/2+y,z
1/2+x,-y,1/2+z
loop_
_atom_site_type_symbol
_atom_site_label
_atom_site_fract_x
_atom_site_fract_y
_atom_site_fract_z
Si Si1 0.000000 0.469697 0.158365
Si Si2 0.808839 0.000000 0.000000
Si Si3 0.411693 0.708144 0.630766
Si Si4 0.250000 0.377808 0.750000
Si Si5 0.500000 0.380398 0.912428
Si Si6 0.344616 0.748306 0.889598
O O1 0.053081 0.398677 0.190656
O O2 0.000000 0.589891 0.248028
O O3 0.000000 0.500000 0.000000
O O4 0.843029 0.887668 0.051931
O O5 0.776085 0.037581 0.135430
O O6 0.448674 0.804551 0.553754
O O7 0.382872 0.765236 0.760995
O O8 0.368414 0.669848 0.515106
O O9 0.288470 0.293623 0.660546
O O10 0.500000 0.500000 0.000000
#
# Coordination Sequence:
#
# PCOD8264908 Si02
#       6
#     8   8  16   8   8  16
#     4  11  24  43  68  98 142 182 231 290 354 416
#     4  12  28  46  76 103 138 197 230 298 376 420
#     4  11  26  43  70 104 142 184 239 293 349 430
#     4  12  28  50  72 106 146 182 246 306 356 434
#     4  11  24  45  70 103 143 186 235 293 359 422
#     4  12  26  48  70 106 145 185 243 295 357 431
#
# _framework density 23.239415000000001
#
# number of rings (size 3 to 8) (size 9 to 14) (size 15 to 20)
#    0.000    0.500    2.500    4.500    8.750    6.000 
#    0.000    0.000    0.000    0.000    0.000    0.000 
#    0.000    0.000    0.000    0.000    0.000    0.000 
#
# Total GULP energy -396783.874875 kJ/mol
# GULP energy per Si atom -12399.496090 kJ/mol
# Density = 2.318652 g / cm^3
# Si number density = 23.239415 Si / 1000 Ang^3
#
#
#
# Elastic Constant Matrix: (Units=GPa)
#
#
# Indices 1 2 3 4 5 6 
#
# 1 113.0947 19.9126 28.1539 0.0000 0.0000 0.0000
# 2 19.9126 52.4555 -2.0295 0.0000 0.0000 0.0000
# 3 28.1539 -2.0295 120.1963 0.0000 0.0000 0.0000
# 4 0.0000 0.0000 0.0000 49.7649 0.0000 0.0000
# 5 0.0000 0.0000 0.0000 0.0000 37.2159 0.0000
# 6 0.0000 0.0000 0.0000 0.0000 0.0000 -7.3580
#
#
#
# Elastic Compliance Matrix: (Units=1/GPa)
#
#
# Indices 1 2 3 4 5 6 
#
# 1 0.010145 -0.003946 -0.002443 0.000000 0.000000 0.000000
# 2 -0.003946 0.020611 0.001272 0.000000 0.000000 0.000000
# 3 -0.002443 0.001272 0.008913 0.000000 0.000000 0.000000
# 4 0.000000 0.000000 0.000000 0.020094 0.000000 0.000000
# 5 0.000000 0.000000 0.000000 0.000000 0.026870 0.000000
# 6 0.000000 0.000000 0.000000 0.000000 0.000000 -0.135907
#
#
# Mechanical properties :
#
#
# Convention : Reuss Voigt Hill
#
# Bulk Modulus (GPa) = 33.97140 41.98005 37.97573
# Shear Modulus (GPa) = -171.07006 31.90520 -69.58243
#
# Velocity S-wave (km/s) = -8.58905 3.70928 -5.47782
# Velocity P-wave (km/s) = 9.14946 6.03725 4.86129
#
# Compressibility (1/GPa) = 0.02943652
#
# Stress axis : x y z
#
# Youngs Moduli (GPa) = 98.57068 48.51824 112.19044
#
# Poissons Ratio (x) = 0.19144 0.27407
# Poissons Ratio (y) = 0.38893 -0.14273
# Poissons Ratio (z) = 0.24080 -0.06173
#
# Static dielectric constant tensor:
#      x y z
#    x 4.181710 0.000000 0.000000 
#    y 0.000000 3.099710 0.000000 
#    z 0.000000 0.000000 4.306310 
# 
# 
# High freq. dielectric constant tensor:
#      x y z
#    x 1.932630 0.000000 0.000000 
#    y 0.000000 1.903600 0.000000 
#    z 0.000000 0.000000 1.943640 
# 
# From -- ./inp_files/10920.got.cif
#   From: 2010.03.12/outbox.cif.g09.slc.cpg/sg64_6_cif.got.tgz:10920.got - 2010.04.10 20:19:32.
