data_PCOD8264044
_publ_section_title
;
Structure prediction by ZEFSAII (Michael W. Deem and Ramdas Pophale) SiO2 
 PCOD8264044
Probable space group: C M C A
;
_chemical_formula_sum "Si O2"
_cell_formula_units_Z 80
_cell_length_a 17.094409
_cell_length_b 26.330436
_cell_length_c 8.846116
_cell_angle_alpha 90.000000
_cell_angle_beta 90.000000
_cell_angle_gamma 90.000000
_cell_volume 3981.665492
_symmetry_space_group_name_H-M "C M C A"
_symmetry_group_IT_number 64
_symmetry_cell_setting 'orthorhombic'
loop_
_space_group_symop_operation_xyz
x,y,z
-x,1/2-y,1/2+z
x,-y,-z
-x,1/2+y,1/2-z
-x,-y,-z
x,1/2+y,1/2-z
-x,y,z
x,1/2-y,1/2+z
1/2+x,1/2+y,z
1/2-x,-y,1/2+z
1/2+x,1/2-y,-z
1/2-x,y,1/2-z
1/2-x,1/2-y,-z
1/2+x,y,1/2-z
1/2-x,1/2+y,z
1/2+x,-y,1/2+z
loop_
_atom_site_type_symbol
_atom_site_label
_atom_site_fract_x
_atom_site_fract_y
_atom_site_fract_z
Si Si1 0.173039 0.285077 0.696673
Si Si2 0.090948 0.555407 0.569352
Si Si3 0.408072 0.799205 0.009613
Si Si4 0.674425 0.889598 0.166503
Si Si5 0.780368 0.607354 0.404059
O O1 0.250000 0.252898 0.750000
O O2 0.120209 0.253358 0.582963
O O3 0.212811 0.331727 0.605156
O O4 0.123975 0.305608 0.839919
O O5 0.104483 0.500000 0.500000
O O6 0.130891 0.566834 0.733493
O O7 0.131950 0.591062 0.446520
O O8 0.000000 0.569040 0.581622
O O9 0.500000 0.797112 0.998011
O O10 0.385486 0.845435 0.120178
O O11 0.750000 0.865210 0.250000
O O12 0.713515 0.913625 0.017476
O O13 0.750000 0.582502 0.250000
#
# Coordination Sequence:
#
# PCOD8264044 Si02
#       5
#    16  16  16  16  16
#     4  11  23  40  59  85 125 171 218 266 315 374
#     4  10  23  42  65  94 128 163 203 263 333 390
#     4  12  24  37  58  91 127 169 219 268 319 375
#     4  10  21  40  65  90 121 170 212 260 317 382
#     4  10  21  41  65  91 122 163 219 266 315 375
#
# _framework density 20.092095
#
# number of rings (size 3 to 8) (size 9 to 14) (size 15 to 20)
#    0.000    1.400    4.000    2.400    5.600    4.000 
#    0.000    0.000    0.000    2.400    0.000    0.000 
#    0.000    0.000    0.000    0.000    0.000    0.000 
#
# Total GULP energy -495574.778135 kJ/mol
# GULP energy per Si atom -12389.369453 kJ/mol
# Density = 2.004636 g / cm^3
# Si number density = 20.092095 Si / 1000 Ang^3
#
#
#
# Elastic Constant Matrix: (Units=GPa)
#
#
# Indices 1 2 3 4 5 6 
#
# 1 167.0091 40.5950 61.7405 0.0000 0.0000 0.0000
# 2 40.5950 63.5015 38.8499 0.0000 0.0000 0.0000
# 3 61.7405 38.8499 140.4078 0.0000 0.0000 0.0000
# 4 0.0000 0.0000 0.0000 24.8379 0.0000 0.0000
# 5 0.0000 0.0000 0.0000 0.0000 35.4965 0.0000
# 6 0.0000 0.0000 0.0000 0.0000 0.0000 28.6788
#
#
#
# Elastic Compliance Matrix: (Units=1/GPa)
#
#
# Indices 1 2 3 4 5 6 
#
# 1 0.007729 -0.003445 -0.002445 0.000000 0.000000 0.000000
# 2 -0.003445 0.020492 -0.004155 0.000000 0.000000 0.000000
# 3 -0.002445 -0.004155 0.009347 0.000000 0.000000 0.000000
# 4 0.000000 0.000000 0.000000 0.040261 0.000000 0.000000
# 5 0.000000 0.000000 0.000000 0.000000 0.028172 0.000000
# 6 0.000000 0.000000 0.000000 0.000000 0.000000 0.034869
#
#
# Mechanical properties :
#
#
# Convention : Reuss Voigt Hill
#
# Bulk Modulus (GPa) = 57.21764 72.58770 64.90267
# Shear Modulus (GPa) = 29.97834 33.11816 31.54825
#
# Velocity S-wave (km/s) = 3.86689 4.06435 3.96685
# Velocity P-wave (km/s) = 6.96252 7.63094 7.30438
#
# Compressibility (1/GPa) = 0.01747713
#
# Stress axis : x y z
#
# Youngs Moduli (GPa) = 129.38103 48.79936 106.98429
#
# Poissons Ratio (x) = 0.16811 0.26163
# Poissons Ratio (y) = 0.44571 0.44454
# Poissons Ratio (z) = 0.31640 0.20277
#
# Static dielectric constant tensor:
#      x y z
#    x 3.825760 0.000000 0.000000 
#    y 0.000000 3.350940 0.000000 
#    z 0.000000 0.000000 4.103610 
# 
# 
# High freq. dielectric constant tensor:
#      x y z
#    x 1.800290 0.000000 0.000000 
#    y 0.000000 1.751220 0.000000 
#    z 0.000000 0.000000 1.800780 
# 
# From -- ./inp_files/7084.got.cif
#   From: 2010.03.12/outbox.cif.g09.slc.cpg/sg64_4_cif.got.tgz:7084.got - 2010.04.10 20:19:32.
