data_PCOD8264101
_publ_section_title
;
Structure prediction by ZEFSAII (Michael W. Deem and Ramdas Pophale) SiO2 
 PCOD8264101
Probable space group: C M C A
;
_chemical_formula_sum "Si O2"
_cell_formula_units_Z 88
_cell_length_a 22.770061
_cell_length_b 14.379324
_cell_length_c 12.463402
_cell_angle_alpha 90.000000
_cell_angle_beta 90.000000
_cell_angle_gamma 90.000000
_cell_volume 4080.743211
_symmetry_space_group_name_H-M "C M C A"
_symmetry_group_IT_number 64
_symmetry_cell_setting 'orthorhombic'
loop_
_space_group_symop_operation_xyz
x,y,z
-x,1/2-y,1/2+z
x,-y,-z
-x,1/2+y,1/2-z
-x,-y,-z
x,1/2+y,1/2-z
-x,y,z
x,1/2-y,1/2+z
1/2+x,1/2+y,z
1/2-x,-y,1/2+z
1/2+x,1/2-y,-z
1/2-x,y,1/2-z
1/2-x,1/2-y,-z
1/2+x,y,1/2-z
1/2-x,1/2+y,z
1/2+x,-y,1/2+z
loop_
_atom_site_type_symbol
_atom_site_label
_atom_site_fract_x
_atom_site_fract_y
_atom_site_fract_z
Si Si1 0.126984 0.714673 0.441880
Si Si2 0.682234 0.912408 0.725666
Si Si3 0.000000 0.884387 0.642833
Si Si4 0.888975 0.062106 0.900968
Si Si5 0.000000 0.921171 0.241294
Si Si6 0.377582 0.599998 0.451632
Si Si7 0.500000 0.263425 0.848155
O O1 0.169568 0.677201 0.348577
O O2 0.139378 0.655591 0.550141
O O3 0.145526 0.821032 0.466189
O O4 0.058388 0.701655 0.408970
O O5 0.750000 0.925602 0.750000
O O6 0.650571 0.892155 0.836133
O O7 0.658744 0.006028 0.668890
O O8 0.946222 0.880310 0.561281
O O9 0.000000 0.799248 0.725442
O O10 0.000000 0.976470 0.712723
O O11 0.942330 0.094141 0.828119
O O12 0.912222 0.000000 0.000000
O O13 0.000000 0.848446 0.339182
O O14 0.363052 0.500000 0.500000
#
# Coordination Sequence:
#
# PCOD8264101 Si02
#       7
#    16  16   8  16   8  16   8
#     4  11  24  43  68 100 137 179 218 274 342 404
#     4  11  26  47  69  96 130 176 235 283 326 392
#     4  12  20  40  62  98 139 176 211 276 341 403
#     4  10  21  41  68  98 133 172 224 275 342 407
#     4  12  20  34  70 100 136 180 204 271 353 395
#     4  12  25  42  67  98 138 176 224 276 340 398
#     4  12  22  38  68 102 141 172 216 267 339 423
#
# _framework density 21.564699999999998
#
# number of rings (size 3 to 8) (size 9 to 14) (size 15 to 20)
#    0.000    0.727    3.636    4.909    0.000    2.909 
#    0.000    1.818    0.000    0.000    0.000    0.000 
#    0.000    0.000    0.000    0.000    0.000    0.000 
#
# Total GULP energy -545764.793963 kJ/mol
# GULP energy per Si atom -12403.745317 kJ/mol
# Density = 2.151562 g / cm^3
# Si number density = 21.564700 Si / 1000 Ang^3
#
#
#
# Elastic Constant Matrix: (Units=GPa)
#
#
# Indices 1 2 3 4 5 6 
#
# 1 121.7069 39.3830 51.5400 0.0000 0.0000 0.0000
# 2 39.3830 144.8442 60.3809 0.0000 0.0000 0.0000
# 3 51.5400 60.3809 117.0808 0.0000 0.0000 0.0000
# 4 0.0000 0.0000 0.0000 55.1276 0.0000 0.0000
# 5 0.0000 0.0000 0.0000 0.0000 -5.9563 0.0000
# 6 0.0000 0.0000 0.0000 0.0000 0.0000 0.2346
#
#
#
# Elastic Compliance Matrix: (Units=1/GPa)
#
#
# Indices 1 2 3 4 5 6 
#
# 1 0.010248 -0.001154 -0.003916 0.000000 0.000000 0.000000
# 2 -0.001154 0.008925 -0.004095 0.000000 0.000000 0.000000
# 3 -0.003916 -0.004095 0.012377 0.000000 0.000000 0.000000
# 4 0.000000 0.000000 0.000000 0.018140 0.000000 0.000000
# 5 0.000000 0.000000 0.000000 0.000000 -0.167888 0.000000
# 6 0.000000 0.000000 0.000000 0.000000 0.000000 4.262582
#
#
# Mechanical properties :
#
#
# Convention : Reuss Voigt Hill
#
# Bulk Modulus (GPa) = 75.64292 76.24886 75.94589
# Shear Modulus (GPa) = 1.19987 25.36971 13.28479
#
# Velocity S-wave (km/s) = 0.74673 3.43366 2.48471
# Velocity P-wave (km/s) = 5.99140 7.15227 6.59742
#
# Compressibility (1/GPa) = 0.01322001
#
# Stress axis : x y z
#
# Youngs Moduli (GPa) = 97.57700 112.04919 80.79643
#
# Poissons Ratio (x) = 0.12930 0.31642
# Poissons Ratio (y) = 0.11260 0.33083
# Poissons Ratio (z) = 0.38214 0.45880
#
# Static dielectric constant tensor:
#      x y z
#    x 3.263130 0.000000 0.000000 
#    y 0.000000 4.090790 0.000000 
#    z 0.000000 0.000000 4.057540 
# 
# 
# High freq. dielectric constant tensor:
#      x y z
#    x 1.817400 0.000000 0.000000 
#    y 0.000000 1.859640 0.000000 
#    z 0.000000 0.000000 1.865550 
# 
# From -- ./inp_files/18241.got.cif
#   From: 2010.03.12/outbox.cif.g09.slc.cpg/sg64_10_cif.got.tgz:18241.got - 2010.04.10 20:19:32.
