data_PCOD8264225
_publ_section_title
;
Structure prediction by ZEFSAII (Michael W. Deem and Ramdas Pophale) SiO2 
 PCOD8264225
Probable space group: C M C A
;
_chemical_formula_sum "Si O2"
_cell_formula_units_Z 64
_cell_length_a 17.262186
_cell_length_b 14.265514
_cell_length_c 12.502072
_cell_angle_alpha 90.000000
_cell_angle_beta 90.000000
_cell_angle_gamma 90.000000
_cell_volume 3078.684689
_symmetry_space_group_name_H-M "C M C A"
_symmetry_group_IT_number 64
_symmetry_cell_setting 'orthorhombic'
loop_
_space_group_symop_operation_xyz
x,y,z
-x,1/2-y,1/2+z
x,-y,-z
-x,1/2+y,1/2-z
-x,-y,-z
x,1/2+y,1/2-z
-x,y,z
x,1/2-y,1/2+z
1/2+x,1/2+y,z
1/2-x,-y,1/2+z
1/2+x,1/2-y,-z
1/2-x,y,1/2-z
1/2-x,1/2-y,-z
1/2+x,y,1/2-z
1/2-x,1/2+y,z
1/2+x,-y,1/2+z
loop_
_atom_site_type_symbol
_atom_site_label
_atom_site_fract_x
_atom_site_fract_y
_atom_site_fract_z
Si Si1 0.915559 0.930091 0.401231
Si Si2 0.337161 0.722827 0.474920
Si Si3 0.907764 0.607038 0.214586
Si Si4 0.090801 0.596530 0.454564
O O1 0.859159 0.843879 0.425040
O O2 0.000000 0.885564 0.378160
O O3 0.920925 0.000000 0.500000
O O4 0.889243 0.996089 0.303125
O O5 0.250000 0.750000 0.500000
O O6 0.354413 0.670961 0.362618
O O7 0.386971 0.817700 0.469087
O O8 0.880131 0.623832 0.335614
O O9 0.000000 0.626899 0.194411
O O10 0.128676 0.500000 0.500000
O O11 0.000000 0.582301 0.450827
#
# Coordination Sequence:
#
# PCOD8264225 Si02
#       4
#    16  16  16  16
#     4   8  15  32  58  82 103 138 193 242 278 330
#     4  11  22  35  55  86 120 153 188 230 288 359
#     4   9  19  38  62  83 108 148 197 248 294 335
#     4  10  22  39  58  83 114 149 195 246 292 345
#
# _framework density 20.788098999999999
#
# number of rings (size 3 to 8) (size 9 to 14) (size 15 to 20)
#    0.000    2.500    0.000    3.750    0.000    6.000 
#    0.000    5.000    0.000    0.000    0.000    0.000 
#    0.000    0.000    0.000    0.000    0.000    0.000 
#
# Total GULP energy -396530.650377 kJ/mol
# GULP energy per Si atom -12391.582824 kJ/mol
# Density = 2.074078 g / cm^3
# Si number density = 20.788099 Si / 1000 Ang^3
#
#
#
# Elastic Constant Matrix: (Units=GPa)
#
#
# Indices 1 2 3 4 5 6 
#
# 1 74.8206 48.3214 44.5117 0.0000 0.0000 0.0000
# 2 48.3214 148.0886 49.1982 0.0000 0.0000 0.0000
# 3 44.5117 49.1982 89.7349 0.0000 0.0000 0.0000
# 4 0.0000 0.0000 0.0000 30.7216 0.0000 0.0000
# 5 0.0000 0.0000 0.0000 0.0000 14.0635 0.0000
# 6 0.0000 0.0000 0.0000 0.0000 0.0000 18.7279
#
#
#
# Elastic Compliance Matrix: (Units=1/GPa)
#
#
# Indices 1 2 3 4 5 6 
#
# 1 0.020825 -0.004113 -0.008075 0.000000 0.000000 0.000000
# 2 -0.004113 0.009069 -0.002932 0.000000 0.000000 0.000000
# 3 -0.008075 -0.002932 0.016757 0.000000 0.000000 0.000000
# 4 0.000000 0.000000 0.000000 0.032550 0.000000 0.000000
# 5 0.000000 0.000000 0.000000 0.000000 0.071106 0.000000
# 6 0.000000 0.000000 0.000000 0.000000 0.000000 0.053396
#
#
# Mechanical properties :
#
#
# Convention : Reuss Voigt Hill
#
# Bulk Modulus (GPa) = 60.93361 66.30075 63.61718
# Shear Modulus (GPa) = 20.88427 24.07678 22.48053
#
# Velocity S-wave (km/s) = 3.17302 3.40693 3.29205
# Velocity P-wave (km/s) = 6.54213 6.88760 6.71709
#
# Compressibility (1/GPa) = 0.01641131
#
# Stress axis : x y z
#
# Youngs Moduli (GPa) = 48.01807 110.26899 59.67591
#
# Poissons Ratio (x) = 0.45349 0.48191
# Poissons Ratio (y) = 0.19748 0.17497
# Poissons Ratio (z) = 0.38777 0.32332
#
# Static dielectric constant tensor:
#      x y z
#    x 3.453690 0.000000 0.000000 
#    y 0.000000 4.193580 0.000000 
#    z 0.000000 0.000000 4.140650 
# 
# 
# High freq. dielectric constant tensor:
#      x y z
#    x 1.783080 0.000000 0.000000 
#    y 0.000000 1.825020 0.000000 
#    z 0.000000 0.000000 1.802000 
# 
# From -- ./inp_files/15454.got.cif
#   From: 2010.03.12/outbox.cif.g09.slc.cpg/sg64_8_cif.got.tgz:15454.got - 2010.04.10 20:19:32.
