data_PCOD8264977
_publ_section_title
;
Structure prediction by ZEFSAII (Michael W. Deem and Ramdas Pophale) SiO2 
 PCOD8264977
Probable space group: C M C A
;
_chemical_formula_sum "Si O2"
_cell_formula_units_Z 56
_cell_length_a 17.355644
_cell_length_b 21.838861
_cell_length_c 7.567368
_cell_angle_alpha 90.000000
_cell_angle_beta 90.000000
_cell_angle_gamma 90.000000
_cell_volume 2868.240551
_symmetry_space_group_name_H-M "C M C A"
_symmetry_group_IT_number 64
_symmetry_cell_setting 'orthorhombic'
loop_
_space_group_symop_operation_xyz
x,y,z
-x,1/2-y,1/2+z
x,-y,-z
-x,1/2+y,1/2-z
-x,-y,-z
x,1/2+y,1/2-z
-x,y,z
x,1/2-y,1/2+z
1/2+x,1/2+y,z
1/2-x,-y,1/2+z
1/2+x,1/2-y,-z
1/2-x,y,1/2-z
1/2-x,1/2-y,-z
1/2+x,y,1/2-z
1/2-x,1/2+y,z
1/2+x,-y,1/2+z
loop_
_atom_site_type_symbol
_atom_site_label
_atom_site_fract_x
_atom_site_fract_y
_atom_site_fract_z
Si Si1 0.589476 0.833712 0.207938
Si Si2 0.750000 0.861232 0.750000
Si Si3 0.834849 0.724616 0.461466
Si Si4 0.804352 0.435652 0.080123
O O1 0.500000 0.840499 0.248912
O O2 0.604254 0.778741 0.069902
O O3 0.636633 0.818885 0.383425
O O4 0.619630 0.898070 0.132774
O O5 0.825235 0.817924 0.785712
O O6 0.759106 0.900583 0.573791
O O7 0.750000 0.750000 0.500000
O O8 0.750000 0.445298 0.250000
O O9 0.832070 0.500000 0.000000
#
# Coordination Sequence:
#
# PCOD8264977 Si02
#       4
#    16   8  16  16
#     4  12  24  39  62 100 142 171 207 270 345 394
#     4  12  22  38  68  98 122 158 226 280 306 370
#     4  12  20  38  67  95 127 171 219 264 319 392
#     4  12  24  42  69  94 123 174 231 273 311 380
#
# _framework density 19.524165
#
# number of rings (size 3 to 8) (size 9 to 14) (size 15 to 20)
#    0.000    0.000   10.000    0.857    0.000    0.571 
#    0.000    1.429    0.000    2.571    0.000    0.000 
#    0.000    0.000    0.000    0.000    0.000    0.000 
#
# Total GULP energy -347164.185319 kJ/mol
# GULP energy per Si atom -12398.720904 kJ/mol
# Density = 1.947973 g / cm^3
# Si number density = 19.524165 Si / 1000 Ang^3
#
#
#
# Elastic Constant Matrix: (Units=GPa)
#
#
# Indices 1 2 3 4 5 6 
#
# 1 118.9331 53.8774 44.1291 0.0000 0.0000 0.0000
# 2 53.8774 148.2866 54.0477 0.0000 0.0000 0.0000
# 3 44.1291 54.0477 121.5013 0.0000 0.0000 0.0000
# 4 0.0000 0.0000 0.0000 43.9837 0.0000 0.0000
# 5 0.0000 0.0000 0.0000 0.0000 24.4835 0.0000
# 6 0.0000 0.0000 0.0000 0.0000 0.0000 16.8160
#
#
#
# Elastic Compliance Matrix: (Units=1/GPa)
#
#
# Indices 1 2 3 4 5 6 
#
# 1 0.010699 -0.002949 -0.002574 0.000000 0.000000 0.000000
# 2 -0.002949 0.008862 -0.002871 0.000000 0.000000 0.000000
# 3 -0.002574 -0.002871 0.010442 0.000000 0.000000 0.000000
# 4 0.000000 0.000000 0.000000 0.022736 0.000000 0.000000
# 5 0.000000 0.000000 0.000000 0.000000 0.040844 0.000000
# 6 0.000000 0.000000 0.000000 0.000000 0.000000 0.059467
#
#
# Mechanical properties :
#
#
# Convention : Reuss Voigt Hill
#
# Bulk Modulus (GPa) = 75.67143 76.98107 76.32625
# Shear Modulus (GPa) = 28.69562 32.83442 30.76502
#
# Velocity S-wave (km/s) = 3.83789 4.10534 3.97387
# Velocity P-wave (km/s) = 7.64730 7.87312 7.76103
#
# Compressibility (1/GPa) = 0.01321503
#
# Stress axis : x y z
#
# Youngs Moduli (GPa) = 93.46533 112.84677 95.76466
#
# Poissons Ratio (x) = 0.33280 0.24650
# Poissons Ratio (y) = 0.27565 0.27492
# Poissons Ratio (z) = 0.24058 0.32396
#
# Static dielectric constant tensor:
#      x y z
#    x 3.271860 0.000000 0.000000 
#    y 0.000000 3.972870 0.000000 
#    z 0.000000 0.000000 3.928230 
# 
# 
# High freq. dielectric constant tensor:
#      x y z
#    x 1.724770 0.000000 0.000000 
#    y 0.000000 1.770320 0.000000 
#    z 0.000000 0.000000 1.786020 
# 
# From -- ./inp_files/6528.got.cif
#   From: 2010.03.12/outbox.cif.g09.slc.cpg/sg64_4_cif.got.tgz:6528.got - 2010.04.10 20:19:32.
