data_PCOD8264587
_publ_section_title
;
Structure prediction by ZEFSAII (Michael W. Deem and Ramdas Pophale) SiO2 
 PCOD8264587
Probable space group: C M C A
;
_chemical_formula_sum "Si O2"
_cell_formula_units_Z 56
_cell_length_a 19.626648
_cell_length_b 12.431261
_cell_length_c 8.791612
_cell_angle_alpha 90.000000
_cell_angle_beta 90.000000
_cell_angle_gamma 90.000000
_cell_volume 2145.012520
_symmetry_space_group_name_H-M "C M C A"
_symmetry_group_IT_number 64
_symmetry_cell_setting 'orthorhombic'
loop_
_space_group_symop_operation_xyz
x,y,z
-x,1/2-y,1/2+z
x,-y,-z
-x,1/2+y,1/2-z
-x,-y,-z
x,1/2+y,1/2-z
-x,y,z
x,1/2-y,1/2+z
1/2+x,1/2+y,z
1/2-x,-y,1/2+z
1/2+x,1/2-y,-z
1/2-x,y,1/2-z
1/2-x,1/2-y,-z
1/2+x,y,1/2-z
1/2-x,1/2+y,z
1/2+x,-y,1/2+z
loop_
_atom_site_type_symbol
_atom_site_label
_atom_site_fract_x
_atom_site_fract_y
_atom_site_fract_z
Si Si1 0.121202 0.000000 0.000000
Si Si2 0.250000 0.839384 0.750000
Si Si3 0.000000 0.786692 0.161566
Si Si4 0.708771 0.000000 0.000000
Si Si5 0.000000 0.603465 0.350166
Si Si6 0.354327 0.351612 0.249020
O O1 0.167545 0.088097 0.910644
O O2 0.069874 0.962306 0.865638
O O3 0.253746 0.918454 0.604025
O O4 0.316653 0.763652 0.746910
O O5 0.934720 0.834513 0.247088
O O6 0.000000 0.658235 0.185653
O O7 0.000000 0.806475 0.983145
O O8 0.662821 0.075556 0.893512
#
# Coordination Sequence:
#
# PCOD8264587 Si02
#       6
#     8   8   8   8   8  16
#     4   9  22  45  73 111 152 204 248 310 386 444
#     4  12  30  56  76 112 154 202 262 320 386 468
#     4  10  24  43  74 116 153 206 253 315 383 443
#     4  12  30  50  79 112 148 209 254 322 392 462
#     4   9  20  40  70 108 157 200 243 310 373 455
#     4  11  27  49  80 116 158 202 259 318 380 464
#
# _framework density 26.107073
#
# number of rings (size 3 to 8) (size 9 to 14) (size 15 to 20)
#    0.000    1.429    0.000    2.571   12.000    5.143 
#    0.000    0.000    0.000    0.000    0.000    0.000 
#    0.000    0.000    0.000    0.000    0.000    0.000 
#
# Total GULP energy -346980.989875 kJ/mol
# GULP energy per Si atom -12392.178210 kJ/mol
# Density = 2.604765 g / cm^3
# Si number density = 26.107073 Si / 1000 Ang^3
#
#
#
# Elastic Constant Matrix: (Units=GPa)
#
#
# Indices 1 2 3 4 5 6 
#
# 1 125.9046 44.2720 51.9696 0.0000 0.0000 0.0000
# 2 44.2720 167.6010 66.0393 0.0000 0.0000 0.0000
# 3 51.9696 66.0393 103.4712 0.0000 0.0000 0.0000
# 4 0.0000 0.0000 0.0000 75.8781 0.0000 0.0000
# 5 0.0000 0.0000 0.0000 0.0000 46.9476 0.0000
# 6 0.0000 0.0000 0.0000 0.0000 0.0000 42.2270
#
#
#
# Elastic Compliance Matrix: (Units=1/GPa)
#
#
# Indices 1 2 3 4 5 6 
#
# 1 0.010119 -0.000896 -0.004511 0.000000 0.000000 0.000000
# 2 -0.000896 0.008050 -0.004688 0.000000 0.000000 0.000000
# 3 -0.004511 -0.004688 0.014922 0.000000 0.000000 0.000000
# 4 0.000000 0.000000 0.000000 0.013179 0.000000 0.000000
# 5 0.000000 0.000000 0.000000 0.000000 0.021300 0.000000
# 6 0.000000 0.000000 0.000000 0.000000 0.000000 0.023682
#
#
# Mechanical properties :
#
#
# Convention : Reuss Voigt Hill
#
# Bulk Modulus (GPa) = 77.50378 80.17094 78.83736
# Shear Modulus (GPa) = 43.19886 48.65695 45.92790
#
# Velocity S-wave (km/s) = 4.07219 4.32180 4.19885
# Velocity P-wave (km/s) = 7.20150 7.46184 7.33283
#
# Compressibility (1/GPa) = 0.01290260
#
# Stress axis : x y z
#
# Youngs Moduli (GPa) = 98.81967 124.21701 67.01312
#
# Poissons Ratio (x) = 0.11125 0.30230
# Poissons Ratio (y) = 0.08850 0.31418
# Poissons Ratio (z) = 0.44577 0.58236
#
# Static dielectric constant tensor:
#      x y z
#    x 4.790010 0.000000 0.000000 
#    y 0.000000 5.331360 0.000000 
#    z 0.000000 0.000000 4.831000 
# 
# 
# High freq. dielectric constant tensor:
#      x y z
#    x 2.063470 0.000000 0.000000 
#    y 0.000000 2.064410 0.000000 
#    z 0.000000 0.000000 2.043460 
# 
# From -- ./inp_files/7680.got.cif
#   From: 2010.03.12/outbox.cif.g09.slc.cpg/sg64_4_cif.got.tgz:7680.got - 2010.04.10 20:19:32.
