data_PCOD8264620
_publ_section_title
;
Structure prediction by ZEFSAII (Michael W. Deem and Ramdas Pophale) SiO2 
 PCOD8264620
Probable space group: C M C A
;
_chemical_formula_sum "Si O2"
_cell_formula_units_Z 64
_cell_length_a 17.014091
_cell_length_b 14.425999
_cell_length_c 11.285045
_cell_angle_alpha 90.000000
_cell_angle_beta 90.000000
_cell_angle_gamma 90.000000
_cell_volume 2769.860801
_symmetry_space_group_name_H-M "C M C A"
_symmetry_group_IT_number 64
_symmetry_cell_setting 'orthorhombic'
loop_
_space_group_symop_operation_xyz
x,y,z
-x,1/2-y,1/2+z
x,-y,-z
-x,1/2+y,1/2-z
-x,-y,-z
x,1/2+y,1/2-z
-x,y,z
x,1/2-y,1/2+z
1/2+x,1/2+y,z
1/2-x,-y,1/2+z
1/2+x,1/2-y,-z
1/2-x,y,1/2-z
1/2-x,1/2-y,-z
1/2+x,y,1/2-z
1/2-x,1/2+y,z
1/2+x,-y,1/2+z
loop_
_atom_site_type_symbol
_atom_site_label
_atom_site_fract_x
_atom_site_fract_y
_atom_site_fract_z
Si Si1 0.311070 0.101784 0.387924
Si Si2 0.000000 0.141033 0.446593
Si Si3 0.146928 0.093267 0.858048
Si Si4 0.157426 0.702663 0.157375
Si Si5 0.500000 0.550185 0.694682
O O1 0.369118 0.108031 0.500653
O O2 0.227384 0.151266 0.413918
O O3 0.356189 0.152335 0.281960
O O4 0.292885 0.994000 0.352308
O O5 0.922581 0.200857 0.417823
O O6 0.000000 0.123175 0.587122
O O7 0.000000 0.050053 0.365329
O O8 0.181713 0.191018 0.813551
O O9 0.072901 0.064594 0.780651
#
# Coordination Sequence:
#
# PCOD8264620 Si02
#       5
#    16   8  16  16   8
#     4  10  25  45  71 106 137 182 239 297 350 431
#     4  11  25  47  68 101 147 182 237 293 358 435
#     4  11  24  46  71 103 139 188 233 296 356 423
#     4  11  24  46  71 103 140 186 234 295 358 429
#     4  11  25  44  71 103 139 193 229 295 365 420
#
# _framework density 23.105854000000001
#
# number of rings (size 3 to 8) (size 9 to 14) (size 15 to 20)
#    0.000    1.250    2.500    1.500    3.500   11.000 
#    0.000    0.000    0.000    0.000    0.000    0.000 
#    0.000    0.000    0.000    0.000    0.000    0.000 
#
# Total GULP energy -396479.114561 kJ/mol
# GULP energy per Si atom -12389.972330 kJ/mol
# Density = 2.305326 g / cm^3
# Si number density = 23.105854 Si / 1000 Ang^3
#
#
#
# Elastic Constant Matrix: (Units=GPa)
#
#
# Indices 1 2 3 4 5 6 
#
# 1 122.9851 32.3150 34.7425 0.0000 0.0000 0.0000
# 2 32.3150 196.4951 29.7661 0.0000 0.0000 0.0000
# 3 34.7425 29.7661 152.0367 0.0000 0.0000 0.0000
# 4 0.0000 0.0000 0.0000 24.9059 0.0000 0.0000
# 5 0.0000 0.0000 0.0000 0.0000 16.7990 0.0000
# 6 0.0000 0.0000 0.0000 0.0000 0.0000 -58.4820
#
#
#
# Elastic Compliance Matrix: (Units=1/GPa)
#
#
# Indices 1 2 3 4 5 6 
#
# 1 0.008958 -0.001199 -0.001812 0.000000 0.000000 0.000000
# 2 -0.001199 0.005405 -0.000784 0.000000 0.000000 0.000000
# 3 -0.001812 -0.000784 0.007145 0.000000 0.000000 0.000000
# 4 0.000000 0.000000 0.000000 0.040151 0.000000 0.000000
# 5 0.000000 0.000000 0.000000 0.000000 0.059527 0.000000
# 6 0.000000 0.000000 0.000000 0.000000 0.000000 -0.017099
#
#
# Mechanical properties :
#
#
# Convention : Reuss Voigt Hill
#
# Bulk Modulus (GPa) = 71.85184 73.90712 72.87948
# Shear Modulus (GPa) = 42.98588 21.62413 32.30500
#
# Velocity S-wave (km/s) = 4.31790 3.06252 3.74322
# Velocity P-wave (km/s) = 7.48488 6.67541 7.09170
#
# Compressibility (1/GPa) = 0.01391753
#
# Stress axis : x y z
#
# Youngs Moduli (GPa) = 111.63204 185.00958 139.95675
#
# Poissons Ratio (x) = 0.22176 0.25365
# Poissons Ratio (y) = 0.13381 0.10977
# Poissons Ratio (z) = 0.20232 0.14511
#
# Static dielectric constant tensor:
#      x y z
#    x 3.738150 0.000000 0.000000 
#    y 0.000000 4.677320 0.000000 
#    z 0.000000 0.000000 4.284060 
# 
# 
# High freq. dielectric constant tensor:
#      x y z
#    x 1.881070 0.000000 0.000000 
#    y 0.000000 1.939330 0.000000 
#    z 0.000000 0.000000 1.926690 
# 
# From -- ./inp_files/15546.got.cif
#   From: 2010.03.12/outbox.cif.g09.slc.cpg/sg64_8_cif.got.tgz:15546.got - 2010.04.10 20:19:32.
