data_PCOD8264416
_publ_section_title
;
Structure prediction by ZEFSAII (Michael W. Deem and Ramdas Pophale) SiO2 
 PCOD8264416
Probable space group: C M C A
;
_chemical_formula_sum "Si O2"
_cell_formula_units_Z 104
_cell_length_a 18.992388
_cell_length_b 9.294111
_cell_length_c 26.258407
_cell_angle_alpha 90.000000
_cell_angle_beta 90.000000
_cell_angle_gamma 90.000000
_cell_volume 4635.064740
_symmetry_space_group_name_H-M "C M C A"
_symmetry_group_IT_number 64
_symmetry_cell_setting 'orthorhombic'
loop_
_space_group_symop_operation_xyz
x,y,z
-x,1/2-y,1/2+z
x,-y,-z
-x,1/2+y,1/2-z
-x,-y,-z
x,1/2+y,1/2-z
-x,y,z
x,1/2-y,1/2+z
1/2+x,1/2+y,z
1/2-x,-y,1/2+z
1/2+x,1/2-y,-z
1/2-x,y,1/2-z
1/2-x,1/2-y,-z
1/2+x,y,1/2-z
1/2-x,1/2+y,z
1/2+x,-y,1/2+z
loop_
_atom_site_type_symbol
_atom_site_label
_atom_site_fract_x
_atom_site_fract_y
_atom_site_fract_z
Si Si1 0.191821 0.298736 0.710987
Si Si2 0.500000 0.588390 0.134744
Si Si3 0.000000 0.784393 0.174658
Si Si4 0.272345 0.122433 0.035766
Si Si5 0.000000 0.847814 0.289808
Si Si6 0.140543 0.510896 0.214814
Si Si7 0.842736 0.048037 0.113489
Si Si8 0.146269 0.223888 0.369313
O O1 0.250000 0.365547 0.750000
O O2 0.126647 0.394953 0.733338
O O3 0.189072 0.129653 0.721462
O O4 0.192757 0.332927 0.650981
O O5 0.500000 0.456039 0.173035
O O6 0.500000 0.735259 0.164763
O O7 0.426249 0.577329 0.102258
O O8 0.000000 0.761881 0.235812
O O9 0.935852 0.714164 0.144050
O O10 0.200902 0.063463 0.061783
O O11 0.334081 0.167360 0.074760
O O12 0.250000 0.250000 0.000000
O O13 0.305542 0.000000 0.000000
O O14 0.934889 0.951730 0.301090
O O15 0.179565 0.616623 0.173059
O O16 0.828646 0.888947 0.137063
#
# Coordination Sequence:
#
# PCOD8264416 Si02
#       8
#    16   8   8  16   8  16  16  16
#     4  12  25  40  61  95 140 184 229 278 336 419
#     4  10  22  44  70 100 140 182 240 280 343 424
#     4  10  23  42  72 100 146 191 233 277 343 420
#     4  12  27  49  77 103 136 181 239 307 380 431
#     4  12  23  38  66 103 145 195 225 273 329 423
#     4  12  25  39  64  98 143 185 234 275 337 414
#     4  11  24  47  72 102 138 185 237 296 360 435
#     4  11  25  46  71 104 140 186 234 295 355 430
#
# _framework density 22.437659
#
# number of rings (size 3 to 8) (size 9 to 14) (size 15 to 20)
#    0.000    0.615    3.077    5.538    4.308    2.462 
#    0.000    2.308    0.000    0.000    0.000    0.000 
#    0.000    0.000    0.000    0.000    0.000    0.000 
#
# Total GULP energy -644346.430470 kJ/mol
# GULP energy per Si atom -12391.277509 kJ/mol
# Density = 2.238659 g / cm^3
# Si number density = 22.437659 Si / 1000 Ang^3
#
#
#
# Elastic Constant Matrix: (Units=GPa)
#
#
# Indices 1 2 3 4 5 6 
#
# 1 82.0097 17.6082 28.3110 0.0000 0.0000 0.0000
# 2 17.6082 144.8044 53.1329 0.0000 0.0000 0.0000
# 3 28.3110 53.1329 114.9496 0.0000 0.0000 0.0000
# 4 0.0000 0.0000 0.0000 50.9383 0.0000 0.0000
# 5 0.0000 0.0000 0.0000 0.0000 34.5129 0.0000
# 6 0.0000 0.0000 0.0000 0.0000 0.0000 27.9090
#
#
#
# Elastic Compliance Matrix: (Units=1/GPa)
#
#
# Indices 1 2 3 4 5 6 
#
# 1 0.013357 -0.000502 -0.003058 0.000000 0.000000 0.000000
# 2 -0.000502 0.008335 -0.003729 0.000000 0.000000 0.000000
# 3 -0.003058 -0.003729 0.011176 0.000000 0.000000 0.000000
# 4 0.000000 0.000000 0.000000 0.019632 0.000000 0.000000
# 5 0.000000 0.000000 0.000000 0.000000 0.028975 0.000000
# 6 0.000000 0.000000 0.000000 0.000000 0.000000 0.035831
#
#
# Mechanical properties :
#
#
# Convention : Reuss Voigt Hill
#
# Bulk Modulus (GPa) = 54.67275 59.98532 57.32903
# Shear Modulus (GPa) = 36.23709 38.85282 37.54495
#
# Velocity S-wave (km/s) = 4.02308 4.16575 4.09504
# Velocity P-wave (km/s) = 6.78230 7.06613 6.92567
#
# Compressibility (1/GPa) = 0.01829065
#
# Stress axis : x y z
#
# Youngs Moduli (GPa) = 74.86690 119.97237 89.47593
#
# Poissons Ratio (x) = 0.06026 0.27357
# Poissons Ratio (y) = 0.03761 0.33366
# Poissons Ratio (z) = 0.22891 0.44739
#
# Static dielectric constant tensor:
#      x y z
#    x 4.367680 0.000000 0.000000 
#    y 0.000000 4.272410 0.000000 
#    z 0.000000 0.000000 3.743620 
# 
# 
# High freq. dielectric constant tensor:
#      x y z
#    x 1.899010 0.000000 0.000000 
#    y 0.000000 1.910090 0.000000 
#    z 0.000000 0.000000 1.851230 
# 
# From -- ./inp_files/50810.got.cif
#   From: 2010.03.12/outbox.cif.g09.slc.cpg/sg64_26_cif.got.tgz:50810.got - 2010.04.10 20:19:32.
