data_PCOD8264037
_publ_section_title
;
Structure prediction by ZEFSAII (Michael W. Deem and Ramdas Pophale) SiO2 
 PCOD8264037
Probable space group: C M C A
;
_chemical_formula_sum "Si O2"
_cell_formula_units_Z 64
_cell_length_a 8.608662
_cell_length_b 14.568828
_cell_length_c 24.038232
_cell_angle_alpha 90.000000
_cell_angle_beta 90.000000
_cell_angle_gamma 90.000000
_cell_volume 3014.829769
_symmetry_space_group_name_H-M "C M C A"
_symmetry_group_IT_number 64
_symmetry_cell_setting 'orthorhombic'
loop_
_space_group_symop_operation_xyz
x,y,z
-x,1/2-y,1/2+z
x,-y,-z
-x,1/2+y,1/2-z
-x,-y,-z
x,1/2+y,1/2-z
-x,y,z
x,1/2-y,1/2+z
1/2+x,1/2+y,z
1/2-x,-y,1/2+z
1/2+x,1/2-y,-z
1/2-x,y,1/2-z
1/2-x,1/2-y,-z
1/2+x,y,1/2-z
1/2-x,1/2+y,z
1/2+x,-y,1/2+z
loop_
_atom_site_type_symbol
_atom_site_label
_atom_site_fract_x
_atom_site_fract_y
_atom_site_fract_z
Si Si1 0.680570 0.380744 0.892504
Si Si2 0.170869 0.391539 0.004342
Si Si3 0.816672 0.922274 0.374724
Si Si4 0.817130 0.765972 0.190028
O O1 0.500000 0.400392 0.885673
O O2 0.714691 0.352709 0.956941
O O3 0.773561 0.470967 0.874196
O O4 0.731962 0.298113 0.853991
O O5 0.000000 0.347924 0.995091
O O6 0.157565 0.500000 0.000000
O O7 0.231216 0.372318 0.066978
O O8 0.724070 0.871025 0.325688
O O9 0.000000 0.913527 0.364545
O O10 0.750000 0.741868 0.250000
O O11 0.000000 0.749381 0.189315
#
# Coordination Sequence:
#
# PCOD8264037 Si02
#       4
#    16  16  16  16
#     4  11  22  38  62  92 124 159 198 242 296 353
#     4   8  16  33  58  88 122 157 194 239 291 350
#     4  10  21  40  64  91 123 158 197 243 297 354
#     4  12  26  44  63  86 117 155 203 252 298 351
#
# _framework density 21.228394999999999
#
# number of rings (size 3 to 8) (size 9 to 14) (size 15 to 20)
#    0.000    1.750    0.000    6.750    0.000    7.500 
#    0.000    5.000    0.000    0.000    0.000    0.000 
#    0.000    0.000    0.000    0.000    0.000    0.000 
#
# Total GULP energy -396801.704925 kJ/mol
# GULP energy per Si atom -12400.053279 kJ/mol
# Density = 2.118008 g / cm^3
# Si number density = 21.228395 Si / 1000 Ang^3
#
#
#
# Elastic Constant Matrix: (Units=GPa)
#
#
# Indices 1 2 3 4 5 6 
#
# 1 92.3812 5.7389 34.7945 0.0000 0.0000 0.0000
# 2 5.7389 36.4016 9.9890 0.0000 0.0000 0.0000
# 3 34.7945 9.9890 78.2765 0.0000 0.0000 0.0000
# 4 0.0000 0.0000 0.0000 31.6329 0.0000 0.0000
# 5 0.0000 0.0000 0.0000 0.0000 37.1919 0.0000
# 6 0.0000 0.0000 0.0000 0.0000 0.0000 33.5231
#
#
#
# Elastic Compliance Matrix: (Units=1/GPa)
#
#
# Indices 1 2 3 4 5 6 
#
# 1 0.013010 -0.000481 -0.005721 0.000000 0.000000 0.000000
# 2 -0.000481 0.028486 -0.003421 0.000000 0.000000 0.000000
# 3 -0.005721 -0.003421 0.015755 0.000000 0.000000 0.000000
# 4 0.000000 0.000000 0.000000 0.031613 0.000000 0.000000
# 5 0.000000 0.000000 0.000000 0.000000 0.026888 0.000000
# 6 0.000000 0.000000 0.000000 0.000000 0.000000 0.029830
#
#
# Mechanical properties :
#
#
# Convention : Reuss Voigt Hill
#
# Bulk Modulus (GPa) = 26.31372 34.23380 30.27376
# Shear Modulus (GPa) = 28.16961 30.90537 29.53749
#
# Velocity S-wave (km/s) = 3.64672 3.81970 3.73421
# Velocity P-wave (km/s) = 5.49126 5.96782 5.73449
#
# Compressibility (1/GPa) = 0.03800300
#
# Stress axis : x y z
#
# Youngs Moduli (GPa) = 76.86674 35.10498 63.47168
#
# Poissons Ratio (x) = 0.01689 0.36315
# Poissons Ratio (y) = 0.03697 0.21716
# Poissons Ratio (z) = 0.43979 0.12011
#
# Static dielectric constant tensor:
#      x y z
#    x 3.813810 0.000000 0.000000 
#    y 0.000000 3.636340 0.000000 
#    z 0.000000 0.000000 4.281810 
# 
# 
# High freq. dielectric constant tensor:
#      x y z
#    x 1.836220 0.000000 0.000000 
#    y 0.000000 1.824710 0.000000 
#    z 0.000000 0.000000 1.835320 
# 
# From -- ./inp_files/42472.got.cif
#   From: 2010.03.12/outbox.cif.g09.slc.cpg/sg64_22_cif.got.tgz:42472.got - 2010.04.10 20:19:32.
