data_PCOD8264783
_publ_section_title
;
Structure prediction by ZEFSAII (Michael W. Deem and Ramdas Pophale) SiO2 
 PCOD8264783
Probable space group: C M C A
;
_chemical_formula_sum "Si O2"
_cell_formula_units_Z 64
_cell_length_a 32.816852
_cell_length_b 8.502729
_cell_length_c 9.154275
_cell_angle_alpha 90.000000
_cell_angle_beta 90.000000
_cell_angle_gamma 90.000000
_cell_volume 2554.342978
_symmetry_space_group_name_H-M "C M C A"
_symmetry_group_IT_number 64
_symmetry_cell_setting 'orthorhombic'
loop_
_space_group_symop_operation_xyz
x,y,z
-x,1/2-y,1/2+z
x,-y,-z
-x,1/2+y,1/2-z
-x,-y,-z
x,1/2+y,1/2-z
-x,y,z
x,1/2-y,1/2+z
1/2+x,1/2+y,z
1/2-x,-y,1/2+z
1/2+x,1/2-y,-z
1/2-x,y,1/2-z
1/2-x,1/2-y,-z
1/2+x,y,1/2-z
1/2-x,1/2+y,z
1/2+x,-y,1/2+z
loop_
_atom_site_type_symbol
_atom_site_label
_atom_site_fract_x
_atom_site_fract_y
_atom_site_fract_z
Si Si1 0.703839 0.768668 0.547570
Si Si2 0.827663 0.558665 0.712439
Si Si3 0.546931 0.267434 0.950609
Si Si4 0.421333 0.441370 0.212431
O O1 0.750000 0.750000 0.500000
O O2 0.688088 0.611989 0.628669
O O3 0.676472 0.797915 0.403828
O O4 0.700186 0.914951 0.659076
O O5 0.874466 0.505445 0.717740
O O6 0.500000 0.244632 0.992384
O O7 0.563982 0.111235 0.872507
O O8 0.551251 0.414139 0.840199
O O9 0.572724 0.297232 0.097875
#
# Coordination Sequence:
#
# PCOD8264783 Si02
#       4
#    16  16  16  16
#     4  11  25  43  67  95 129 167 214 274 330 393
#     4  11  24  45  66  96 128 170 220 270 330 394
#     4  11  22  39  62  95 131 171 216 268 325 386
#     4  11  22  41  66  92 129 173 217 270 325 390
#
# _framework density 25.055367
#
# number of rings (size 3 to 8) (size 9 to 14) (size 15 to 20)
#    0.000    1.000    0.000    9.750    0.000   10.000 
#    0.000    7.500    0.000    0.000    0.000    0.000 
#    0.000    0.000    0.000    0.000    0.000    0.000 
#
# Total GULP energy -397002.164174 kJ/mol
# GULP energy per Si atom -12406.317630 kJ/mol
# Density = 2.499834 g / cm^3
# Si number density = 25.055367 Si / 1000 Ang^3
#
#
#
# Elastic Constant Matrix: (Units=GPa)
#
#
# Indices 1 2 3 4 5 6 
#
# 1 169.4562 30.9110 28.4999 0.0000 0.0000 0.0000
# 2 30.9110 18.4231 16.6648 0.0000 0.0000 0.0000
# 3 28.4999 16.6648 76.2941 0.0000 0.0000 0.0000
# 4 0.0000 0.0000 0.0000 58.1371 0.0000 0.0000
# 5 0.0000 0.0000 0.0000 0.0000 41.7105 0.0000
# 6 0.0000 0.0000 0.0000 0.0000 0.0000 34.4183
#
#
#
# Elastic Compliance Matrix: (Units=1/GPa)
#
#
# Indices 1 2 3 4 5 6 
#
# 1 0.008504 -0.014201 -0.000075 0.000000 0.000000 0.000000
# 2 -0.014201 0.091359 -0.014650 0.000000 0.000000 0.000000
# 3 -0.000075 -0.014650 0.016335 0.000000 0.000000 0.000000
# 4 0.000000 0.000000 0.000000 0.017201 0.000000 0.000000
# 5 0.000000 0.000000 0.000000 0.000000 0.023975 0.000000
# 6 0.000000 0.000000 0.000000 0.000000 0.000000 0.029054
#
#
# Mechanical properties :
#
#
# Convention : Reuss Voigt Hill
#
# Bulk Modulus (GPa) = 17.13931 46.25831 31.69881
# Shear Modulus (GPa) = 18.95883 39.39303 29.17593
#
# Velocity S-wave (km/s) = 2.75376 3.96945 3.41612
# Velocity P-wave (km/s) = 4.11902 6.28579 5.31402
#
# Compressibility (1/GPa) = 0.05834542
#
# Stress axis : x y z
#
# Youngs Moduli (GPa) = 117.58791 10.94586 61.21740
#
# Poissons Ratio (x) = 0.15544 0.00458
# Poissons Ratio (y) = 1.66987 0.89687
# Poissons Ratio (z) = 0.00881 0.16036
#
# Static dielectric constant tensor:
#      x y z
#    x 4.277010 0.000000 0.000000 
#    y 0.000000 4.522640 0.000000 
#    z 0.000000 0.000000 4.880430 
# 
# 
# High freq. dielectric constant tensor:
#      x y z
#    x 1.995740 0.000000 0.000000 
#    y 0.000000 1.994580 0.000000 
#    z 0.000000 0.000000 2.011900 
# 
# From -- ./inp_files/19496.got.cif
#   From: 2010.03.12/outbox.cif.g09.slc.cpg/sg64_10_cif.got.tgz:19496.got - 2010.04.10 20:19:32.
