data_PCOD8264081
_publ_section_title
;
Structure prediction by ZEFSAII (Michael W. Deem and Ramdas Pophale) SiO2 
 PCOD8264081
Probable space group: C M C A
;
_chemical_formula_sum "Si O2"
_cell_formula_units_Z 64
_cell_length_a 25.480008
_cell_length_b 12.815143
_cell_length_c 9.084313
_cell_angle_alpha 90.000000
_cell_angle_beta 90.000000
_cell_angle_gamma 90.000000
_cell_volume 2966.300235
_symmetry_space_group_name_H-M "C M C A"
_symmetry_group_IT_number 64
_symmetry_cell_setting 'orthorhombic'
loop_
_space_group_symop_operation_xyz
x,y,z
-x,1/2-y,1/2+z
x,-y,-z
-x,1/2+y,1/2-z
-x,-y,-z
x,1/2+y,1/2-z
-x,y,z
x,1/2-y,1/2+z
1/2+x,1/2+y,z
1/2-x,-y,1/2+z
1/2+x,1/2-y,-z
1/2-x,y,1/2-z
1/2-x,1/2-y,-z
1/2+x,y,1/2-z
1/2-x,1/2+y,z
1/2+x,-y,1/2+z
loop_
_atom_site_type_symbol
_atom_site_label
_atom_site_fract_x
_atom_site_fract_y
_atom_site_fract_z
Si Si1 0.688173 0.841454 0.256245
Si Si2 0.559893 0.350369 0.467391
Si Si3 0.366346 0.670795 0.069359
Si Si4 0.111683 0.992435 0.702552
O O1 0.750000 0.848985 0.250000
O O2 0.665716 0.846770 0.421117
O O3 0.671037 0.733212 0.181573
O O4 0.665562 0.943054 0.170575
O O5 0.500000 0.352245 0.521729
O O6 0.578782 0.232098 0.451583
O O7 0.599689 0.402755 0.584190
O O8 0.566117 0.417512 0.314836
O O9 0.383979 0.559534 0.137015
#
# Coordination Sequence:
#
# PCOD8264081 Si02
#       4
#    16  16  16  16
#     4  11  24  42  66  96 131 176 217 269 332 389
#     4  10  22  42  69  95 132 177 215 276 346 391
#     4  11  22  44  65  98 135 166 225 275 320 404
#     4  10  21  41  63  93 134 164 218 273 325 394
#
# _framework density 21.575697000000002
#
# number of rings (size 3 to 8) (size 9 to 14) (size 15 to 20)
#    0.000    1.500    2.500    3.000    0.000    3.000 
#   18.000    1.250    0.000    9.000    0.000    0.000 
#    0.000    0.000    0.000    0.000    0.000    0.000 
#
# Total GULP energy -396460.990883 kJ/mol
# GULP energy per Si atom -12389.405965 kJ/mol
# Density = 2.152659 g / cm^3
# Si number density = 21.575697 Si / 1000 Ang^3
#
#
#
# Elastic Constant Matrix: (Units=GPa)
#
#
# Indices 1 2 3 4 5 6 
#
# 1 148.6999 41.4571 61.8697 0.0000 0.0000 0.0000
# 2 41.4571 71.9041 30.7565 0.0000 0.0000 0.0000
# 3 61.8697 30.7565 115.4898 0.0000 0.0000 0.0000
# 4 0.0000 0.0000 0.0000 43.5416 0.0000 0.0000
# 5 0.0000 0.0000 0.0000 0.0000 21.8711 0.0000
# 6 0.0000 0.0000 0.0000 0.0000 0.0000 12.6563
#
#
#
# Elastic Compliance Matrix: (Units=1/GPa)
#
#
# Indices 1 2 3 4 5 6 
#
# 1 0.009455 -0.003707 -0.004078 0.000000 0.000000 0.000000
# 2 -0.003707 0.017149 -0.002581 0.000000 0.000000 0.000000
# 3 -0.004078 -0.002581 0.011531 0.000000 0.000000 0.000000
# 4 0.000000 0.000000 0.000000 0.022967 0.000000 0.000000
# 5 0.000000 0.000000 0.000000 0.000000 0.045722 0.000000
# 6 0.000000 0.000000 0.000000 0.000000 0.000000 0.079012
#
#
# Mechanical properties :
#
#
# Convention : Reuss Voigt Hill
#
# Bulk Modulus (GPa) = 57.46311 67.14004 62.30158
# Shear Modulus (GPa) = 23.54394 29.08119 26.31256
#
# Velocity S-wave (km/s) = 3.30695 3.67531 3.49599
# Velocity P-wave (km/s) = 6.42435 7.01402 6.72565
#
# Compressibility (1/GPa) = 0.01740247
#
# Stress axis : x y z
#
# Youngs Moduli (GPa) = 105.76124 58.31312 86.72426
#
# Poissons Ratio (x) = 0.21618 0.35367
# Poissons Ratio (y) = 0.39207 0.22383
# Poissons Ratio (z) = 0.43130 0.15050
#
# Static dielectric constant tensor:
#      x y z
#    x 3.726750 0.000000 0.000000 
#    y 0.000000 4.145920 0.000000 
#    z 0.000000 0.000000 4.012060 
# 
# 
# High freq. dielectric constant tensor:
#      x y z
#    x 1.827260 0.000000 0.000000 
#    y 0.000000 1.865300 0.000000 
#    z 0.000000 0.000000 1.843100 
# 
# From -- ./inp_files/8959.got.cif
#   From: 2010.03.12/outbox.cif.g09.slc.cpg/sg64_5_cif.got.tgz:8959.got - 2010.04.10 20:19:32.
