data_PCOD8264211
_publ_section_title
;
Structure prediction by ZEFSAII (Michael W. Deem and Ramdas Pophale) SiO2 
 PCOD8264211
Probable space group: C M C A
;
_chemical_formula_sum "Si O2"
_cell_formula_units_Z 96
_cell_length_a 13.903235
_cell_length_b 19.379501
_cell_length_c 17.083404
_cell_angle_alpha 90.000000
_cell_angle_beta 90.000000
_cell_angle_gamma 90.000000
_cell_volume 4602.914049
_symmetry_space_group_name_H-M "C M C A"
_symmetry_group_IT_number 64
_symmetry_cell_setting 'orthorhombic'
loop_
_space_group_symop_operation_xyz
x,y,z
-x,1/2-y,1/2+z
x,-y,-z
-x,1/2+y,1/2-z
-x,-y,-z
x,1/2+y,1/2-z
-x,y,z
x,1/2-y,1/2+z
1/2+x,1/2+y,z
1/2-x,-y,1/2+z
1/2+x,1/2-y,-z
1/2-x,y,1/2-z
1/2-x,1/2-y,-z
1/2+x,y,1/2-z
1/2-x,1/2+y,z
1/2+x,-y,1/2+z
loop_
_atom_site_type_symbol
_atom_site_label
_atom_site_fract_x
_atom_site_fract_y
_atom_site_fract_z
Si Si1 0.000000 0.561602 0.331135
Si Si2 0.795065 0.565769 0.832093
Si Si3 0.677794 0.291003 0.400445
Si Si4 0.500000 0.658477 0.320282
Si Si5 0.814336 0.953251 0.925995
Si Si6 0.500000 0.938705 0.226239
Si Si7 0.500000 0.783674 0.210757
Si Si8 0.179813 0.674696 0.071336
O O1 0.907836 0.578623 0.384007
O O2 0.000000 0.480970 0.307313
O O3 0.000000 0.603964 0.250315
O O4 0.750000 0.586309 0.750000
O O5 0.780321 0.633002 0.884946
O O6 0.741299 0.499763 0.864303
O O7 0.907059 0.544509 0.826318
O O8 0.592079 0.271049 0.342989
O O9 0.759733 0.234050 0.384745
O O10 0.640862 0.291793 0.490429
O O11 0.500000 0.734398 0.284890
O O12 0.406326 0.648562 0.374016
O O13 0.747083 0.890024 0.950766
O O14 0.843989 0.000000 0.000000
O O15 0.500000 0.858713 0.249880
#
# Coordination Sequence:
#
# PCOD8264211 Si02
#       8
#     8  16  16   8  16   8   8  16
#     4  12  25  43  64  97 133 168 217 276 327 395
#     4  11  22  41  69  95 132 172 224 274 324 400
#     4  10  23  44  67  93 134 171 221 269 329 390
#     4  12  27  42  67 102 134 172 220 270 337 395
#     4  12  25  45  66  96 131 177 219 271 337 398
#     4  10  22  38  63  98 121 164 218 270 318 374
#     4  10  23  41  66  97 125 170 215 270 321 386
#     4  11  25  43  66  98 132 175 215 272 332 392
#
# _framework density 20.856352999999999
#
# number of rings (size 3 to 8) (size 9 to 14) (size 15 to 20)
#    0.000    1.000    3.333    2.750    4.667    1.333 
#    0.000    1.667    0.000    0.000    0.000    0.000 
#    0.000    0.000    0.000    0.000    0.000    0.000 
#
# Total GULP energy -595368.413948 kJ/mol
# GULP energy per Si atom -12403.508624 kJ/mol
# Density = 2.080888 g / cm^3
# Si number density = 20.856353 Si / 1000 Ang^3
#
#
#
# Elastic Constant Matrix: (Units=GPa)
#
#
# Indices 1 2 3 4 5 6 
#
# 1 126.1238 33.7729 47.4513 0.0000 0.0000 0.0000
# 2 33.7729 67.3049 19.1300 0.0000 0.0000 0.0000
# 3 47.4513 19.1300 98.1087 0.0000 0.0000 0.0000
# 4 0.0000 0.0000 0.0000 43.0260 0.0000 0.0000
# 5 0.0000 0.0000 0.0000 0.0000 27.3236 0.0000
# 6 0.0000 0.0000 0.0000 0.0000 0.0000 28.3867
#
#
#
# Elastic Compliance Matrix: (Units=1/GPa)
#
#
# Indices 1 2 3 4 5 6 
#
# 1 0.010671 -0.004116 -0.004358 0.000000 0.000000 0.000000
# 2 -0.004116 0.017317 -0.001386 0.000000 0.000000 0.000000
# 3 -0.004358 -0.001386 0.012571 0.000000 0.000000 0.000000
# 4 0.000000 0.000000 0.000000 0.023242 0.000000 0.000000
# 5 0.000000 0.000000 0.000000 0.000000 0.036598 0.000000
# 6 0.000000 0.000000 0.000000 0.000000 0.000000 0.035228
#
#
# Mechanical properties :
#
#
# Convention : Reuss Voigt Hill
#
# Bulk Modulus (GPa) = 47.98845 54.69399 51.34122
# Shear Modulus (GPa) = 30.80856 32.49280 31.65068
#
# Velocity S-wave (km/s) = 3.84758 3.95135 3.89981
# Velocity P-wave (km/s) = 6.54198 6.86284 6.70433
#
# Compressibility (1/GPa) = 0.02083835
#
# Stress axis : x y z
#
# Youngs Moduli (GPa) = 93.71600 57.74716 79.54796
#
# Poissons Ratio (x) = 0.23766 0.34670
# Poissons Ratio (y) = 0.38570 0.11026
# Poissons Ratio (z) = 0.40845 0.08004
#
# Static dielectric constant tensor:
#      x y z
#    x 3.852870 0.000000 0.000000 
#    y 0.000000 3.853640 0.000000 
#    z 0.000000 0.000000 3.751600 
# 
# 
# High freq. dielectric constant tensor:
#      x y z
#    x 1.820190 0.000000 0.000000 
#    y 0.000000 1.827600 0.000000 
#    z 0.000000 0.000000 1.818870 
# 
# From -- ./inp_files/24027.got.cif
#   From: 2010.03.12/outbox.cif.g09.slc.cpg/sg64_13_cif.got.tgz:24027.got - 2010.04.10 20:19:32.
