data_PCOD8264920
_publ_section_title
;
Structure prediction by ZEFSAII (Michael W. Deem and Ramdas Pophale) SiO2 
 PCOD8264920
Probable space group: C M C A
;
_chemical_formula_sum "Si O2"
_cell_formula_units_Z 72
_cell_length_a 26.377863
_cell_length_b 16.629307
_cell_length_c 7.696977
_cell_angle_alpha 90.000000
_cell_angle_beta 90.000000
_cell_angle_gamma 90.000000
_cell_volume 3376.244955
_symmetry_space_group_name_H-M "C M C A"
_symmetry_group_IT_number 64
_symmetry_cell_setting 'orthorhombic'
loop_
_space_group_symop_operation_xyz
x,y,z
-x,1/2-y,1/2+z
x,-y,-z
-x,1/2+y,1/2-z
-x,-y,-z
x,1/2+y,1/2-z
-x,y,z
x,1/2-y,1/2+z
1/2+x,1/2+y,z
1/2-x,-y,1/2+z
1/2+x,1/2-y,-z
1/2-x,y,1/2-z
1/2-x,1/2-y,-z
1/2+x,y,1/2-z
1/2-x,1/2+y,z
1/2+x,-y,1/2+z
loop_
_atom_site_type_symbol
_atom_site_label
_atom_site_fract_x
_atom_site_fract_y
_atom_site_fract_z
Si Si1 0.056735 0.436073 0.854838
Si Si2 0.138008 0.673022 0.980199
Si Si3 0.910114 0.000000 0.000000
Si Si4 0.652433 0.350381 0.088538
Si Si5 0.243173 0.407605 0.952618
O O1 0.057045 0.484716 0.672391
O O2 0.000000 0.400751 0.878708
O O3 0.070814 0.500000 0.000000
O O4 0.096879 0.364065 0.885279
O O5 0.129089 0.649773 0.781068
O O6 0.136713 0.768904 0.993419
O O7 0.193536 0.643316 0.019819
O O8 0.874481 0.922996 0.993683
O O9 0.712619 0.367480 0.070139
O O10 0.250000 0.400027 0.750000
O O11 0.234761 0.500000 0.000000
#
# Coordination Sequence:
#
# PCOD8264920 Si02
#       5
#    16  16   8  16  16
#     4  11  24  46  73 102 136 181 233 287 348 410
#     4  12  25  45  67 101 140 182 230 294 344 415
#     4  12  23  46  72 104 138 184 231 286 352 420
#     4  12  25  43  68 101 139 182 231 282 355 419
#     4  12  24  40  65 100 137 184 231 280 348 424
#
# _framework density 21.325467
#
# number of rings (size 3 to 8) (size 9 to 14) (size 15 to 20)
#    0.000    0.222    3.333    7.667    0.000    0.000 
#    0.000    5.556    0.000    0.000    0.000    0.000 
#    0.000    0.000    0.000    0.000    0.000    0.000 
#
# Total GULP energy -446291.074112 kJ/mol
# GULP energy per Si atom -12396.974281 kJ/mol
# Density = 2.127693 g / cm^3
# Si number density = 21.325467 Si / 1000 Ang^3
#
#
#
# Elastic Constant Matrix: (Units=GPa)
#
#
# Indices 1 2 3 4 5 6 
#
# 1 105.6976 49.7033 11.2534 0.0000 0.0000 0.0000
# 2 49.7033 148.4047 31.1717 0.0000 0.0000 0.0000
# 3 11.2534 31.1717 115.6634 0.0000 0.0000 0.0000
# 4 0.0000 0.0000 0.0000 38.3908 0.0000 0.0000
# 5 0.0000 0.0000 0.0000 0.0000 -105.7148 0.0000
# 6 0.0000 0.0000 0.0000 0.0000 0.0000 32.5978
#
#
#
# Elastic Compliance Matrix: (Units=1/GPa)
#
#
# Indices 1 2 3 4 5 6 
#
# 1 0.011230 -0.003744 -0.000084 0.000000 0.000000 0.000000
# 2 -0.003744 0.008391 -0.001897 0.000000 0.000000 0.000000
# 3 -0.000084 -0.001897 0.009165 0.000000 0.000000 0.000000
# 4 0.000000 0.000000 0.000000 0.026048 0.000000 0.000000
# 5 0.000000 0.000000 0.000000 0.000000 -0.009459 0.000000
# 6 0.000000 0.000000 0.000000 0.000000 0.000000 0.030677
#
#
# Mechanical properties :
#
#
# Convention : Reuss Voigt Hill
#
# Bulk Modulus (GPa) = 57.67928 61.55803 59.61865
# Shear Modulus (GPa) = 53.60240 11.56392 32.58316
#
# Velocity S-wave (km/s) = 5.01896 2.33117 3.91308
# Velocity P-wave (km/s) = 7.79054 6.01452 6.95941
#
# Compressibility (1/GPa) = 0.01733725
#
# Stress axis : x y z
#
# Youngs Moduli (GPa) = 89.04500 119.18088 109.10850
#
# Poissons Ratio (x) = 0.44617 0.00913
# Poissons Ratio (y) = 0.33335 0.20699
# Poissons Ratio (z) = 0.00745 0.22609
#
# Static dielectric constant tensor:
#      x y z
#    x 3.791290 0.000000 0.000000 
#    y 0.000000 4.191520 0.000000 
#    z 0.000000 0.000000 2.878320 
# 
# 
# High freq. dielectric constant tensor:
#      x y z
#    x 1.830670 0.000000 0.000000 
#    y 0.000000 1.842870 0.000000 
#    z 0.000000 0.000000 1.859590 
# 
# From -- ./inp_files/10017.got.cif
#   From: 2010.03.12/outbox.cif.g09.slc.cpg/sg64_6_cif.got.tgz:10017.got - 2010.04.10 20:19:32.
