data_PCOD8264456
_publ_section_title
;
Structure prediction by ZEFSAII (Michael W. Deem and Ramdas Pophale) SiO2 
 PCOD8264456
Probable space group: C M C A
;
_chemical_formula_sum "Si O2"
_cell_formula_units_Z 96
_cell_length_a 18.658995
_cell_length_b 13.491861
_cell_length_c 19.057416
_cell_angle_alpha 90.000000
_cell_angle_beta 90.000000
_cell_angle_gamma 90.000000
_cell_volume 4797.600938
_symmetry_space_group_name_H-M "C M C A"
_symmetry_group_IT_number 64
_symmetry_cell_setting 'orthorhombic'
loop_
_space_group_symop_operation_xyz
x,y,z
-x,1/2-y,1/2+z
x,-y,-z
-x,1/2+y,1/2-z
-x,-y,-z
x,1/2+y,1/2-z
-x,y,z
x,1/2-y,1/2+z
1/2+x,1/2+y,z
1/2-x,-y,1/2+z
1/2+x,1/2-y,-z
1/2-x,y,1/2-z
1/2-x,1/2-y,-z
1/2+x,y,1/2-z
1/2-x,1/2+y,z
1/2+x,-y,1/2+z
loop_
_atom_site_type_symbol
_atom_site_label
_atom_site_fract_x
_atom_site_fract_y
_atom_site_fract_z
Si Si1 0.082940 0.720550 0.789012
Si Si2 0.219194 0.481144 0.421253
Si Si3 0.156815 0.200456 0.855139
Si Si4 0.281782 0.161260 0.320386
Si Si5 0.121634 0.072420 0.592711
Si Si6 0.920107 0.856969 0.555372
O O1 0.100354 0.697408 0.708209
O O2 0.134477 0.809783 0.814530
O O3 0.097766 0.622614 0.834942
O O4 0.000000 0.753386 0.795924
O O5 0.193104 0.500000 0.500000
O O6 0.161597 0.411860 0.382671
O O7 0.226907 0.586562 0.384136
O O8 0.293883 0.422731 0.420628
O O9 0.234778 0.239220 0.830803
O O10 0.131617 0.270886 0.918120
O O11 0.250000 0.108995 0.250000
O O12 0.085967 0.130591 0.528172
O O13 0.096806 0.958854 0.595747
O O14 0.000000 0.824226 0.574095
#
# Coordination Sequence:
#
# PCOD8264456 Si02
#       6
#    16  16  16  16  16  16
#     4  11  24  42  65  96 127 170 215 263 325 383
#     4  12  24  40  66  98 129 167 216 261 322 385
#     4  11  24  41  65  91 131 169 212 264 316 383
#     4  10  23  40  66  93 127 168 212 269 314 375
#     4  11  21  38  68  97 128 162 214 273 316 374
#     4  11  22  40  63  95 129 167 213 267 319 371
#
# _framework density 20.010000999999999
#
# number of rings (size 3 to 8) (size 9 to 14) (size 15 to 20)
#    0.000    1.000    5.000    2.500    4.667    1.333 
#    0.000    3.333    0.000    2.500    0.000    0.000 
#    0.000    0.000    0.000    0.000    0.000    0.000 
#
# Total GULP energy -595369.283576 kJ/mol
# GULP energy per Si atom -12403.526741 kJ/mol
# Density = 1.996446 g / cm^3
# Si number density = 20.010001 Si / 1000 Ang^3
#
#
#
# Elastic Constant Matrix: (Units=GPa)
#
#
# Indices 1 2 3 4 5 6 
#
# 1 109.0564 22.5999 21.1849 0.0000 0.0000 0.0000
# 2 22.5999 69.6501 45.0495 0.0000 0.0000 0.0000
# 3 21.1849 45.0495 99.9523 0.0000 0.0000 0.0000
# 4 0.0000 0.0000 0.0000 36.8054 0.0000 0.0000
# 5 0.0000 0.0000 0.0000 0.0000 28.1661 0.0000
# 6 0.0000 0.0000 0.0000 0.0000 0.0000 21.2623
#
#
#
# Elastic Compliance Matrix: (Units=1/GPa)
#
#
# Indices 1 2 3 4 5 6 
#
# 1 0.009890 -0.002616 -0.000917 0.000000 0.000000 0.000000
# 2 -0.002616 0.020957 -0.008891 0.000000 0.000000 0.000000
# 3 -0.000917 -0.008891 0.014206 0.000000 0.000000 0.000000
# 4 0.000000 0.000000 0.000000 0.027170 0.000000 0.000000
# 5 0.000000 0.000000 0.000000 0.000000 0.035504 0.000000
# 6 0.000000 0.000000 0.000000 0.000000 0.000000 0.047032
#
#
# Mechanical properties :
#
#
# Convention : Reuss Voigt Hill
#
# Bulk Modulus (GPa) = 49.49240 50.70303 50.09772
# Shear Modulus (GPa) = 26.83243 29.90173 28.36708
#
# Velocity S-wave (km/s) = 3.66587 3.86986 3.76925
# Velocity P-wave (km/s) = 6.53496 6.73510 6.63579
#
# Compressibility (1/GPa) = 0.02020512
#
# Stress axis : x y z
#
# Youngs Moduli (GPa) = 101.11422 47.71674 70.39043
#
# Poissons Ratio (x) = 0.12482 0.06456
# Poissons Ratio (y) = 0.26449 0.62585
# Poissons Ratio (z) = 0.09274 0.42425
#
# Static dielectric constant tensor:
#      x y z
#    x 3.656780 0.000000 0.000000 
#    y 0.000000 3.423910 0.000000 
#    z 0.000000 0.000000 3.760820 
# 
# 
# High freq. dielectric constant tensor:
#      x y z
#    x 1.780200 0.000000 0.000000 
#    y 0.000000 1.764250 0.000000 
#    z 0.000000 0.000000 1.790850 
# 
# From -- ./inp_files/40863.got.cif
#   From: 2010.03.12/outbox.cif.g09.slc.cpg/sg64_21_cif.got.tgz:40863.got - 2010.04.10 20:19:32.
