data_PCOD8264221
_publ_section_title
;
Structure prediction by ZEFSAII (Michael W. Deem and Ramdas Pophale) SiO2 
 PCOD8264221
Probable space group: C M C A
;
_chemical_formula_sum "Si O2"
_cell_formula_units_Z 80
_cell_length_a 14.544271
_cell_length_b 10.374806
_cell_length_c 26.091776
_cell_angle_alpha 90.000000
_cell_angle_beta 90.000000
_cell_angle_gamma 90.000000
_cell_volume 3937.092188
_symmetry_space_group_name_H-M "C M C A"
_symmetry_group_IT_number 64
_symmetry_cell_setting 'orthorhombic'
loop_
_space_group_symop_operation_xyz
x,y,z
-x,1/2-y,1/2+z
x,-y,-z
-x,1/2+y,1/2-z
-x,-y,-z
x,1/2+y,1/2-z
-x,y,z
x,1/2-y,1/2+z
1/2+x,1/2+y,z
1/2-x,-y,1/2+z
1/2+x,1/2-y,-z
1/2-x,y,1/2-z
1/2-x,1/2-y,-z
1/2+x,y,1/2-z
1/2-x,1/2+y,z
1/2+x,-y,1/2+z
loop_
_atom_site_type_symbol
_atom_site_label
_atom_site_fract_x
_atom_site_fract_y
_atom_site_fract_z
Si Si1 0.600900 0.628343 0.935274
Si Si2 0.745014 0.261719 0.369747
Si Si3 0.601116 0.351658 0.287861
Si Si4 0.163873 0.372703 0.782809
Si Si5 0.398591 0.671031 0.047387
O O1 0.500000 0.675352 0.915570
O O2 0.676986 0.645467 0.891837
O O3 0.595254 0.480006 0.947395
O O4 0.625304 0.704971 0.988033
O O5 0.681443 0.333756 0.328881
O O6 0.800868 0.146786 0.341428
O O7 0.681375 0.220205 0.416342
O O8 0.500000 0.313040 0.309023
O O9 0.620105 0.261541 0.238152
O O10 0.596289 0.505026 0.276175
O O11 0.250000 0.415514 0.750000
O O12 0.500000 0.729497 0.061283
#
# Coordination Sequence:
#
# PCOD8264221 Si02
#       5
#    16  16  16  16  16
#     4   9  19  34  53  78 110 146 184 222 265 320
#     4  11  20  34  57  83 110 141 183 231 278 323
#     4  11  23  39  58  82 112 147 185 230 281 335
#     4  10  22  39  57  80 111 147 186 229 278 334
#     4   9  18  34  54  79 110 145 183 222 265 322
#
# _framework density 20.319565000000001
#
# number of rings (size 3 to 8) (size 9 to 14) (size 15 to 20)
#    0.000    2.000    0.000    6.000    0.000    3.200 
#    0.000    4.000    0.000    0.000    0.000   12.600 
#    0.000    0.000    0.000    0.000    0.000    0.000 
#
# Total GULP energy -495549.572324 kJ/mol
# GULP energy per Si atom -12388.739308 kJ/mol
# Density = 2.027332 g / cm^3
# Si number density = 20.319565 Si / 1000 Ang^3
#
#
#
# Elastic Constant Matrix: (Units=GPa)
#
#
# Indices 1 2 3 4 5 6 
#
# 1 141.1233 31.9021 57.0417 0.0000 0.0000 0.0000
# 2 31.9021 74.7283 15.4634 0.0000 0.0000 0.0000
# 3 57.0417 15.4634 72.3330 0.0000 0.0000 0.0000
# 4 0.0000 0.0000 0.0000 17.5913 0.0000 0.0000
# 5 0.0000 0.0000 0.0000 0.0000 36.3352 0.0000
# 6 0.0000 0.0000 0.0000 0.0000 0.0000 14.8227
#
#
#
# Elastic Compliance Matrix: (Units=1/GPa)
#
#
# Indices 1 2 3 4 5 6 
#
# 1 0.011025 -0.003042 -0.008044 0.000000 0.000000 0.000000
# 2 -0.003042 0.014841 -0.000774 0.000000 0.000000 0.000000
# 3 -0.008044 -0.000774 0.020334 0.000000 0.000000 0.000000
# 4 0.000000 0.000000 0.000000 0.056846 0.000000 0.000000
# 5 0.000000 0.000000 0.000000 0.000000 0.027522 0.000000
# 6 0.000000 0.000000 0.000000 0.000000 0.000000 0.067464
#
#
# Mechanical properties :
#
#
# Convention : Reuss Voigt Hill
#
# Bulk Modulus (GPa) = 44.48402 55.22212 49.85307
# Shear Modulus (GPa) = 21.81079 26.00165 23.90622
#
# Velocity S-wave (km/s) = 3.27982 3.58108 3.43375
# Velocity P-wave (km/s) = 6.02351 6.65843 6.34891
#
# Compressibility (1/GPa) = 0.02247998
#
# Stress axis : x y z
#
# Youngs Moduli (GPa) = 90.70228 67.38265 49.17912
#
# Poissons Ratio (x) = 0.20499 0.39560
# Poissons Ratio (y) = 0.27593 0.03805
# Poissons Ratio (z) = 0.72961 0.05213
#
# Static dielectric constant tensor:
#      x y z
#    x 4.151960 0.000000 0.000000 
#    y 0.000000 3.373440 0.000000 
#    z 0.000000 0.000000 3.975010 
# 
# 
# High freq. dielectric constant tensor:
#      x y z
#    x 1.812460 0.000000 0.000000 
#    y 0.000000 1.765460 0.000000 
#    z 0.000000 0.000000 1.791550 
# 
# From -- ./inp_files/44936.got.cif
#   From: 2010.03.12/outbox.cif.g09.slc.cpg/sg64_23_cif.got.tgz:44936.got - 2010.04.10 20:19:32.
