data_PCOD8264316
_publ_section_title
;
Structure prediction by ZEFSAII (Michael W. Deem and Ramdas Pophale) SiO2 
 PCOD8264316
Probable space group: C M C A
;
_chemical_formula_sum "Si O2"
_cell_formula_units_Z 104
_cell_length_a 22.452142
_cell_length_b 24.264605
_cell_length_c 9.248830
_cell_angle_alpha 90.000000
_cell_angle_beta 90.000000
_cell_angle_gamma 90.000000
_cell_volume 5038.691896
_symmetry_space_group_name_H-M "C M C A"
_symmetry_group_IT_number 64
_symmetry_cell_setting 'orthorhombic'
loop_
_space_group_symop_operation_xyz
x,y,z
-x,1/2-y,1/2+z
x,-y,-z
-x,1/2+y,1/2-z
-x,-y,-z
x,1/2+y,1/2-z
-x,y,z
x,1/2-y,1/2+z
1/2+x,1/2+y,z
1/2-x,-y,1/2+z
1/2+x,1/2-y,-z
1/2-x,y,1/2-z
1/2-x,1/2-y,-z
1/2+x,y,1/2-z
1/2-x,1/2+y,z
1/2+x,-y,1/2+z
loop_
_atom_site_type_symbol
_atom_site_label
_atom_site_fract_x
_atom_site_fract_y
_atom_site_fract_z
Si Si1 0.000000 0.640221 0.169414
Si Si2 0.111113 0.412053 0.323751
Si Si3 0.000000 0.738241 0.618971
Si Si4 0.810340 0.486951 0.664608
Si Si5 0.180724 0.695054 0.725624
Si Si6 0.390332 0.386818 0.854153
Si Si7 0.377002 0.231472 0.453673
Si Si8 0.500000 0.867108 0.174430
O O1 0.000000 0.705160 0.211579
O O2 0.942791 0.609438 0.236042
O O3 0.000000 0.640383 0.996649
O O4 0.138103 0.471243 0.284552
O O5 0.163755 0.367876 0.303531
O O6 0.086575 0.407610 0.488502
O O7 0.057558 0.402493 0.214352
O O8 0.056293 0.734085 0.513964
O O9 0.000000 0.690538 0.739275
O O10 0.794480 0.500000 0.500000
O O11 0.750000 0.495608 0.750000
O O12 0.835110 0.425412 0.692406
O O13 0.250000 0.700354 0.750000
O O14 0.139230 0.715863 0.857273
O O15 0.168009 0.732775 0.587375
O O16 0.367603 0.324013 0.860698
#
# Coordination Sequence:
#
# PCOD8264316 Si02
#       8
#     8  16   8  16  16  16  16   8
#     4  12  26  36  64  98 129 168 209 266 332 385
#     4  10  22  42  66  91 124 174 218 261 329 401
#     4  12  23  40  64  91 136 171 218 264 331 401
#     4  10  23  44  70  94 125 173 222 270 328 388
#     4  11  22  38  60  91 128 167 217 268 322 395
#     4  10  22  41  61  91 129 165 208 266 323 388
#     4  11  23  39  63  91 129 171 214 267 332 396
#     4  12  23  40  64  94 124 164 215 267 325 392
#
# _framework density 20.640277000000001
#
# number of rings (size 3 to 8) (size 9 to 14) (size 15 to 20)
#    0.000    1.231    3.077    3.692    2.154    2.462 
#    0.000    9.231    0.000    0.000    0.000    0.000 
#    0.000    0.000    0.000    0.000    0.000    0.000 
#
# Total GULP energy -644917.051883 kJ/mol
# GULP energy per Si atom -12402.250998 kJ/mol
# Density = 2.059330 g / cm^3
# Si number density = 20.640277 Si / 1000 Ang^3
#
#
#
# Elastic Constant Matrix: (Units=GPa)
#
#
# Indices 1 2 3 4 5 6 
#
# 1 137.5855 47.4146 71.0586 0.0000 0.0000 0.0000
# 2 47.4146 91.4974 35.2985 0.0000 0.0000 0.0000
# 3 71.0586 35.2985 118.7819 0.0000 0.0000 0.0000
# 4 0.0000 0.0000 0.0000 23.4442 0.0000 0.0000
# 5 0.0000 0.0000 0.0000 0.0000 35.3381 0.0000
# 6 0.0000 0.0000 0.0000 0.0000 0.0000 22.3439
#
#
#
# Elastic Compliance Matrix: (Units=1/GPa)
#
#
# Indices 1 2 3 4 5 6 
#
# 1 0.011555 -0.003751 -0.005798 0.000000 0.000000 0.000000
# 2 -0.003751 0.013562 -0.001786 0.000000 0.000000 0.000000
# 3 -0.005798 -0.001786 0.012418 0.000000 0.000000 0.000000
# 4 0.000000 0.000000 0.000000 0.042654 0.000000 0.000000
# 5 0.000000 0.000000 0.000000 0.000000 0.028298 0.000000
# 6 0.000000 0.000000 0.000000 0.000000 0.000000 0.044755
#
#
# Mechanical properties :
#
#
# Convention : Reuss Voigt Hill
#
# Bulk Modulus (GPa) = 67.27267 72.82313 70.04790
# Shear Modulus (GPa) = 27.64424 29.16477 28.40451
#
# Velocity S-wave (km/s) = 3.66366 3.76307 3.71370
# Velocity P-wave (km/s) = 7.11057 7.36475 7.23878
#
# Compressibility (1/GPa) = 0.01486488
#
# Stress axis : x y z
#
# Youngs Moduli (GPa) = 86.53893 73.73367 80.52742
#
# Poissons Ratio (x) = 0.27660 0.46690
# Poissons Ratio (y) = 0.32464 0.14384
# Poissons Ratio (z) = 0.50176 0.13170
#
# Static dielectric constant tensor:
#      x y z
#    x 3.633850 0.000000 0.000000 
#    y 0.000000 3.865180 0.000000 
#    z 0.000000 0.000000 3.806790 
# 
# 
# High freq. dielectric constant tensor:
#      x y z
#    x 1.808020 0.000000 0.000000 
#    y 0.000000 1.804330 0.000000 
#    z 0.000000 0.000000 1.810540 
# 
# From -- ./inp_files/8580.got.cif
#   From: 2010.03.12/outbox.cif.g09.slc.cpg/sg64_5_cif.got.tgz:8580.got - 2010.04.10 20:19:32.
