data_PCOD8264766
_publ_section_title
;
Structure prediction by ZEFSAII (Michael W. Deem and Ramdas Pophale) SiO2 
 PCOD8264766
Probable space group: C M C A
;
_chemical_formula_sum "Si O2"
_cell_formula_units_Z 64
_cell_length_a 8.913416
_cell_length_b 15.131776
_cell_length_c 27.159285
_cell_angle_alpha 90.000000
_cell_angle_beta 90.000000
_cell_angle_gamma 90.000000
_cell_volume 3663.130680
_symmetry_space_group_name_H-M "C M C A"
_symmetry_group_IT_number 64
_symmetry_cell_setting 'orthorhombic'
loop_
_space_group_symop_operation_xyz
x,y,z
-x,1/2-y,1/2+z
x,-y,-z
-x,1/2+y,1/2-z
-x,-y,-z
x,1/2+y,1/2-z
-x,y,z
x,1/2-y,1/2+z
1/2+x,1/2+y,z
1/2-x,-y,1/2+z
1/2+x,1/2-y,-z
1/2-x,y,1/2-z
1/2-x,1/2-y,-z
1/2+x,y,1/2-z
1/2-x,1/2+y,z
1/2+x,-y,1/2+z
loop_
_atom_site_type_symbol
_atom_site_label
_atom_site_fract_x
_atom_site_fract_y
_atom_site_fract_z
Si Si1 0.676746 0.494590 0.556106
Si Si2 0.169250 0.882063 0.871970
Si Si3 0.330536 0.574646 0.858267
Si Si4 0.677951 0.273356 0.302007
O O1 0.731214 0.500000 0.500000
O O2 0.500000 0.505478 0.560686
O O3 0.728796 0.399882 0.579358
O O4 0.755809 0.574311 0.586911
O O5 0.234015 0.801404 0.840214
O O6 0.000000 0.860640 0.889361
O O7 0.170447 0.972577 0.839179
O O8 0.500000 0.611846 0.861272
O O9 0.233471 0.631882 0.820683
O O10 0.500000 0.273898 0.296479
O O11 0.750000 0.250698 0.250000
#
# Coordination Sequence:
#
# PCOD8264766 Si02
#       4
#    16  16  16  16
#     4   9  17  32  56  82 107 138 176 219 267 315
#     4   8  19  36  54  77 108 140 177 218 262 315
#     4   9  19  36  55  79 108 140 178 218 263 313
#     4  11  22  37  55  79 108 140 177 219 264 313
#
# _framework density 17.471392999999999
#
# number of rings (size 3 to 8) (size 9 to 14) (size 15 to 20)
#    1.500    1.250    0.000    1.500    0.000    5.000 
#    0.000    3.750    0.000    0.000    0.000    0.000 
#    0.000    0.000    0.000    0.000    0.000    0.000 
#
# Total GULP energy -396447.670765 kJ/mol
# GULP energy per Si atom -12388.989711 kJ/mol
# Density = 1.743163 g / cm^3
# Si number density = 17.471393 Si / 1000 Ang^3
#
#
#
# Elastic Constant Matrix: (Units=GPa)
#
#
# Indices 1 2 3 4 5 6 
#
# 1 78.0880 18.0868 34.7805 0.0000 0.0000 0.0000
# 2 18.0868 46.4458 10.5471 0.0000 0.0000 0.0000
# 3 34.7805 10.5471 78.2846 0.0000 0.0000 0.0000
# 4 0.0000 0.0000 0.0000 31.4586 0.0000 0.0000
# 5 0.0000 0.0000 0.0000 0.0000 29.6985 0.0000
# 6 0.0000 0.0000 0.0000 0.0000 0.0000 14.5804
#
#
#
# Elastic Compliance Matrix: (Units=1/GPa)
#
#
# Indices 1 2 3 4 5 6 
#
# 1 0.017051 -0.005075 -0.006892 0.000000 0.000000 0.000000
# 2 -0.005075 0.023720 -0.000941 0.000000 0.000000 0.000000
# 3 -0.006892 -0.000941 0.015963 0.000000 0.000000 0.000000
# 4 0.000000 0.000000 0.000000 0.031788 0.000000 0.000000
# 5 0.000000 0.000000 0.000000 0.000000 0.033672 0.000000
# 6 0.000000 0.000000 0.000000 0.000000 0.000000 0.068585
#
#
# Mechanical properties :
#
#
# Convention : Reuss Voigt Hill
#
# Bulk Modulus (GPa) = 32.34311 36.62748 34.48530
# Shear Modulus (GPa) = 22.03606 24.44109 23.23858
#
# Velocity S-wave (km/s) = 3.55528 3.74427 3.65100
# Velocity P-wave (km/s) = 5.95026 6.30100 6.12814
#
# Compressibility (1/GPa) = 0.03091849
#
# Stress axis : x y z
#
# Youngs Moduli (GPa) = 58.64703 42.15768 62.64639
#
# Poissons Ratio (x) = 0.21395 0.43175
# Poissons Ratio (y) = 0.29763 0.05895
# Poissons Ratio (z) = 0.40418 0.03967
#
# Static dielectric constant tensor:
#      x y z
#    x 3.240170 0.000000 0.000000 
#    y 0.000000 3.089430 0.000000 
#    z 0.000000 0.000000 3.098770 
# 
# 
# High freq. dielectric constant tensor:
#      x y z
#    x 1.687380 0.000000 0.000000 
#    y 0.000000 1.655950 0.000000 
#    z 0.000000 0.000000 1.657380 
# 
# From -- ./inp_files/42484.got.cif
#   From: 2010.03.12/outbox.cif.g09.slc.cpg/sg64_22_cif.got.tgz:42484.got - 2010.04.10 20:19:32.
