data_PCOD8264125
_publ_section_title
;
Structure prediction by ZEFSAII (Michael W. Deem and Ramdas Pophale) SiO2 
 PCOD8264125
Probable space group: C M C A
;
_chemical_formula_sum "Si O2"
_cell_formula_units_Z 104
_cell_length_a 20.800579
_cell_length_b 24.652483
_cell_length_c 8.766577
_cell_angle_alpha 90.000000
_cell_angle_beta 90.000000
_cell_angle_gamma 90.000000
_cell_volume 4495.377254
_symmetry_space_group_name_H-M "C M C A"
_symmetry_group_IT_number 64
_symmetry_cell_setting 'orthorhombic'
loop_
_space_group_symop_operation_xyz
x,y,z
-x,1/2-y,1/2+z
x,-y,-z
-x,1/2+y,1/2-z
-x,-y,-z
x,1/2+y,1/2-z
-x,y,z
x,1/2-y,1/2+z
1/2+x,1/2+y,z
1/2-x,-y,1/2+z
1/2+x,1/2-y,-z
1/2-x,y,1/2-z
1/2-x,1/2-y,-z
1/2+x,y,1/2-z
1/2-x,1/2+y,z
1/2+x,-y,1/2+z
loop_
_atom_site_type_symbol
_atom_site_label
_atom_site_fract_x
_atom_site_fract_y
_atom_site_fract_z
Si Si1 0.870265 0.281268 0.783754
Si Si2 0.000000 0.252962 0.144197
Si Si3 0.298973 0.289556 0.424957
Si Si4 0.385155 0.557254 0.439086
Si Si5 0.000000 0.635276 0.042710
Si Si6 0.131690 0.896487 0.877047
Si Si7 0.000000 0.360892 0.587606
Si Si8 0.253850 0.908879 0.081920
O O1 0.938961 0.254591 0.754919
O O2 0.819117 0.235287 0.736854
O O3 0.854386 0.336803 0.692433
O O4 0.861863 0.293910 0.963451
O O5 0.000000 0.201277 0.026089
O O6 0.000000 0.309346 0.053488
O O7 0.250000 0.250000 0.500000
O O8 0.265610 0.345891 0.396628
O O9 0.411713 0.500000 0.500000
O O10 0.435347 0.602295 0.500184
O O11 0.379177 0.559206 0.255672
O O12 0.312930 0.564256 0.497137
O O13 0.000000 0.645173 0.225230
O O14 0.063803 0.892357 0.969425
O O15 0.187991 0.917450 0.987287
O O16 0.250000 0.935746 0.250000
#
# Coordination Sequence:
#
# PCOD8264125 Si02
#       8
#    16   8  16  16   8  16   8  16
#     4  11  23  37  60  91 134 184 220 266 337 405
#     4  10  22  35  61  93 135 174 217 270 330 418
#     4  12  23  37  58  89 134 181 223 261 328 417
#     4  11  24  44  73  99 128 180 238 298 359 404
#     4  10  21  44  68  99 141 173 231 289 339 431
#     4  10  21  43  67  94 141 179 229 284 347 413
#     4   8  20  39  65  98 135 190 220 262 346 420
#     4  12  25  41  64 100 139 180 236 290 345 417
#
# _framework density 23.134878
#
# number of rings (size 3 to 8) (size 9 to 14) (size 15 to 20)
#    0.000    1.231    3.077    3.000    4.308    1.231 
#    0.000    0.769    0.000    0.000    0.000    4.846 
#    0.000    0.000    0.000    0.000    0.000    0.000 
#
# Total GULP energy -644514.977535 kJ/mol
# GULP energy per Si atom -12394.518799 kJ/mol
# Density = 2.308222 g / cm^3
# Si number density = 23.134878 Si / 1000 Ang^3
#
#
#
# Elastic Constant Matrix: (Units=GPa)
#
#
# Indices 1 2 3 4 5 6 
#
# 1 157.5396 33.7150 44.7741 0.0000 0.0000 0.0000
# 2 33.7150 87.7312 23.6758 0.0000 0.0000 0.0000
# 3 44.7741 23.6758 93.6110 0.0000 0.0000 0.0000
# 4 0.0000 0.0000 0.0000 27.0257 0.0000 0.0000
# 5 0.0000 0.0000 0.0000 0.0000 24.3109 0.0000
# 6 0.0000 0.0000 0.0000 0.0000 0.0000 16.3082
#
#
#
# Elastic Compliance Matrix: (Units=1/GPa)
#
#
# Indices 1 2 3 4 5 6 
#
# 1 0.007693 -0.002107 -0.003147 0.000000 0.000000 0.000000
# 2 -0.002107 0.012811 -0.002232 0.000000 0.000000 0.000000
# 3 -0.003147 -0.002232 0.012752 0.000000 0.000000 0.000000
# 4 0.000000 0.000000 0.000000 0.037002 0.000000 0.000000
# 5 0.000000 0.000000 0.000000 0.000000 0.041134 0.000000
# 6 0.000000 0.000000 0.000000 0.000000 0.000000 0.061319
#
#
# Mechanical properties :
#
#
# Convention : Reuss Voigt Hill
#
# Bulk Modulus (GPa) = 54.69343 60.35685 57.52514
# Shear Modulus (GPa) = 25.80293 29.31009 27.55651
#
# Velocity S-wave (km/s) = 3.34327 3.56325 3.45501
# Velocity P-wave (km/s) = 6.21255 6.56313 6.39024
#
# Compressibility (1/GPa) = 0.01828373
#
# Stress axis : x y z
#
# Youngs Moduli (GPa) = 129.99094 78.06017 78.41879
#
# Poissons Ratio (x) = 0.16449 0.24675
# Poissons Ratio (y) = 0.27392 0.17504
# Poissons Ratio (z) = 0.40902 0.17424
#
# Static dielectric constant tensor:
#      x y z
#    x 4.565640 0.000000 0.000000 
#    y 0.000000 4.024390 0.000000 
#    z 0.000000 0.000000 4.285050 
# 
# 
# High freq. dielectric constant tensor:
#      x y z
#    x 1.943730 0.000000 0.000000 
#    y 0.000000 1.894990 0.000000 
#    z 0.000000 0.000000 1.892330 
# 
# From -- ./inp_files/8586.got.cif
#   From: 2010.03.12/outbox.cif.g09.slc.cpg/sg64_5_cif.got.tgz:8586.got - 2010.04.10 20:19:32.
