data_PCOD8264667
_publ_section_title
;
Structure prediction by ZEFSAII (Michael W. Deem and Ramdas Pophale) SiO2 
 PCOD8264667
Probable space group: C M C A
;
_chemical_formula_sum "Si O2"
_cell_formula_units_Z 80
_cell_length_a 10.003666
_cell_length_b 22.930499
_cell_length_c 17.710963
_cell_angle_alpha 90.000000
_cell_angle_beta 90.000000
_cell_angle_gamma 90.000000
_cell_volume 4062.701034
_symmetry_space_group_name_H-M "C M C A"
_symmetry_group_IT_number 64
_symmetry_cell_setting 'orthorhombic'
loop_
_space_group_symop_operation_xyz
x,y,z
-x,1/2-y,1/2+z
x,-y,-z
-x,1/2+y,1/2-z
-x,-y,-z
x,1/2+y,1/2-z
-x,y,z
x,1/2-y,1/2+z
1/2+x,1/2+y,z
1/2-x,-y,1/2+z
1/2+x,1/2-y,-z
1/2-x,y,1/2-z
1/2-x,1/2-y,-z
1/2+x,y,1/2-z
1/2-x,1/2+y,z
1/2+x,-y,1/2+z
loop_
_atom_site_type_symbol
_atom_site_label
_atom_site_fract_x
_atom_site_fract_y
_atom_site_fract_z
Si Si1 0.500000 0.929462 0.324772
Si Si2 0.000000 0.689838 0.864996
Si Si3 0.768970 0.044486 0.933003
Si Si4 0.500000 0.441530 0.356601
Si Si5 0.500000 0.704315 0.809276
Si Si6 0.727078 0.250805 0.601667
Si Si7 0.651308 0.340555 0.986968
O O1 0.627414 0.959161 0.363785
O O2 0.500000 0.942871 0.235109
O O3 0.500000 0.860302 0.347994
O O4 0.000000 0.623228 0.889790
O O5 0.869437 0.720386 0.895015
O O6 0.000000 0.690431 0.776533
O O7 0.629272 0.027732 0.893127
O O8 0.771258 0.108472 0.969881
O O9 0.804395 0.000000 0.000000
O O10 0.366311 0.742391 0.825122
O O11 0.641536 0.218457 0.536720
O O12 0.757469 0.319574 0.584930
O O13 0.500000 0.359708 0.964122
#
# Coordination Sequence:
#
# PCOD8264667 Si02
#       7
#     8   8  16   8   8  16  16
#     4  11  21  40  61  87 121 159 193 244 306 365
#     4  11  20  33  58  84 117 156 179 234 301 353
#     4  12  23  39  62  89 118 154 207 253 292 351
#     4  11  23  38  59  91 125 147 193 256 312 347
#     4  11  20  35  56  86 119 146 193 234 287 365
#     4  11  20  34  54  83 117 146 183 229 287 355
#     4  11  21  35  56  82 116 149 190 233 290 346
#
# _framework density 19.691333
#
# number of rings (size 3 to 8) (size 9 to 14) (size 15 to 20)
#    0.000    0.800    7.000    1.800    0.000    4.000 
#    0.000    0.000    0.000    7.200    0.000    0.000 
#    0.000    0.000    0.000    0.000    0.000    0.000 
#
# Total GULP energy -495695.936979 kJ/mol
# GULP energy per Si atom -12392.398424 kJ/mol
# Density = 1.964651 g / cm^3
# Si number density = 19.691333 Si / 1000 Ang^3
#
#
#
# Elastic Constant Matrix: (Units=GPa)
#
#
# Indices 1 2 3 4 5 6 
#
# 1 133.2659 19.6148 41.6615 0.0000 0.0000 0.0000
# 2 19.6148 49.9099 31.3757 0.0000 0.0000 0.0000
# 3 41.6615 31.3757 53.7723 0.0000 0.0000 0.0000
# 4 0.0000 0.0000 0.0000 28.6649 0.0000 0.0000
# 5 0.0000 0.0000 0.0000 0.0000 -27.4831 0.0000
# 6 0.0000 0.0000 0.0000 0.0000 0.0000 47.9115
#
#
#
# Elastic Compliance Matrix: (Units=1/GPa)
#
#
# Indices 1 2 3 4 5 6 
#
# 1 0.009971 0.001481 -0.008590 0.000000 0.000000 0.000000
# 2 0.001481 0.031863 -0.019739 0.000000 0.000000 0.000000
# 3 -0.008590 -0.019739 0.036770 0.000000 0.000000 0.000000
# 4 0.000000 0.000000 0.000000 0.034886 0.000000 0.000000
# 5 0.000000 0.000000 0.000000 0.000000 -0.036386 0.000000
# 6 0.000000 0.000000 0.000000 0.000000 0.000000 0.020872
#
#
# Mechanical properties :
#
#
# Convention : Reuss Voigt Hill
#
# Bulk Modulus (GPa) = 40.14745 46.91692 43.53219
# Shear Modulus (GPa) = 31.25505 19.43841 25.34673
#
# Velocity S-wave (km/s) = 3.98835 3.14531 3.59165
# Velocity P-wave (km/s) = 6.45305 6.08839 6.27337
#
# Compressibility (1/GPa) = 0.02490818
#
# Stress axis : x y z
#
# Youngs Moduli (GPa) = 100.29019 31.38418 27.19627
#
# Poissons Ratio (x) = -0.04648 0.23360
# Poissons Ratio (y) = -0.14854 0.53684
# Poissons Ratio (z) = 0.86145 0.61951
#
# Static dielectric constant tensor:
#      x y z
#    x 3.587240 0.000000 0.000000 
#    y 0.000000 4.600820 0.000000 
#    z 0.000000 0.000000 3.632410 
# 
# 
# High freq. dielectric constant tensor:
#      x y z
#    x 1.787880 0.000000 0.000000 
#    y 0.000000 1.727030 0.000000 
#    z 0.000000 0.000000 1.760670 
# 
# From -- ./inp_files/29883.got.cif
#   From: 2010.03.12/outbox.cif.g09.slc.cpg/sg64_15_cif.got.tgz:29883.got - 2010.04.10 20:19:32.
