data_PCOD8264877
_publ_section_title
;
Structure prediction by ZEFSAII (Michael W. Deem and Ramdas Pophale) SiO2 
 PCOD8264877
Probable space group: C M C A
;
_chemical_formula_sum "Si O2"
_cell_formula_units_Z 88
_cell_length_a 14.125557
_cell_length_b 19.900992
_cell_length_c 14.526707
_cell_angle_alpha 90.000000
_cell_angle_beta 90.000000
_cell_angle_gamma 90.000000
_cell_volume 4083.640328
_symmetry_space_group_name_H-M "C M C A"
_symmetry_group_IT_number 64
_symmetry_cell_setting 'orthorhombic'
loop_
_space_group_symop_operation_xyz
x,y,z
-x,1/2-y,1/2+z
x,-y,-z
-x,1/2+y,1/2-z
-x,-y,-z
x,1/2+y,1/2-z
-x,y,z
x,1/2-y,1/2+z
1/2+x,1/2+y,z
1/2-x,-y,1/2+z
1/2+x,1/2-y,-z
1/2-x,y,1/2-z
1/2-x,1/2-y,-z
1/2+x,y,1/2-z
1/2-x,1/2+y,z
1/2+x,-y,1/2+z
loop_
_atom_site_type_symbol
_atom_site_label
_atom_site_fract_x
_atom_site_fract_y
_atom_site_fract_z
Si Si1 0.394763 0.632138 0.068287
Si Si2 0.500000 0.383259 0.460384
Si Si3 0.334724 0.774553 0.068163
Si Si4 0.000000 0.477966 0.863417
Si Si5 0.606073 0.597001 0.871010
Si Si6 0.150713 0.534564 0.285583
Si Si7 0.750000 0.828656 0.250000
O O1 0.500000 0.600916 0.070897
O O2 0.404153 0.711792 0.078007
O O3 0.336556 0.602688 0.154869
O O4 0.345690 0.613311 0.969965
O O5 0.597220 0.338170 0.459652
O O6 0.500000 0.440344 0.379368
O O7 0.500000 0.430649 0.548685
O O8 0.287507 0.784085 0.166916
O O9 0.250000 0.750000 0.000000
O O10 0.909582 0.455495 0.805686
O O11 0.500000 0.627394 0.869392
O O12 0.603207 0.517388 0.856548
O O13 0.663533 0.626946 0.786148
O O14 0.250000 0.507557 0.250000
#
# Coordination Sequence:
#
# PCOD8264877 Si02
#       7
#    16   8  16   8  16  16   8
#     4  11  24  46  68 101 141 187 233 298 355 420
#     4  11  28  51  77 101 154 196 237 318 361 445
#     4  12  27  48  70 108 147 188 249 290 366 439
#     4  11  26  49  74 111 143 194 250 298 384 422
#     4  11  23  44  71 101 138 184 236 291 358 426
#     4  12  25  42  72 105 141 182 242 301 362 433
#     4  12  26  42  72 104 140 194 234 298 356 434
#
# _framework density 21.549401
#
# number of rings (size 3 to 8) (size 9 to 14) (size 15 to 20)
#    0.000    0.545    5.455    1.636    5.091    1.455 
#    3.273    0.000    0.000    0.000    0.000    0.000 
#    0.000    0.000    0.000    0.000    0.000    0.000 
#
# Total GULP energy -545333.073350 kJ/mol
# GULP energy per Si atom -12393.933485 kJ/mol
# Density = 2.150035 g / cm^3
# Si number density = 21.549401 Si / 1000 Ang^3
#
#
#
# Elastic Constant Matrix: (Units=GPa)
#
#
# Indices 1 2 3 4 5 6 
#
# 1 118.1827 29.7890 55.2429 0.0000 0.0000 0.0000
# 2 29.7890 117.2467 61.2051 0.0000 0.0000 0.0000
# 3 55.2429 61.2051 138.3440 0.0000 0.0000 0.0000
# 4 0.0000 0.0000 0.0000 43.0984 0.0000 0.0000
# 5 0.0000 0.0000 0.0000 0.0000 34.2505 0.0000
# 6 0.0000 0.0000 0.0000 0.0000 0.0000 28.6355
#
#
#
# Elastic Compliance Matrix: (Units=1/GPa)
#
#
# Indices 1 2 3 4 5 6 
#
# 1 0.010438 -0.000619 -0.003894 0.000000 0.000000 0.000000
# 2 -0.000619 0.011127 -0.004675 0.000000 0.000000 0.000000
# 3 -0.003894 -0.004675 0.010852 0.000000 0.000000 0.000000
# 4 0.000000 0.000000 0.000000 0.023203 0.000000 0.000000
# 5 0.000000 0.000000 0.000000 0.000000 0.029197 0.000000
# 6 0.000000 0.000000 0.000000 0.000000 0.000000 0.034922
#
#
# Mechanical properties :
#
#
# Convention : Reuss Voigt Hill
#
# Bulk Modulus (GPa) = 71.22909 74.02748 72.62829
# Shear Modulus (GPa) = 35.01530 36.36598 35.69064
#
# Velocity S-wave (km/s) = 4.03536 4.11245 4.07409
# Velocity P-wave (km/s) = 7.40525 7.54829 7.47712
#
# Compressibility (1/GPa) = 0.01403921
#
# Stress axis : x y z
#
# Youngs Moduli (GPa) = 95.80601 89.87116 92.15063
#
# Poissons Ratio (x) = 0.05565 0.35884
# Poissons Ratio (y) = 0.05932 0.43085
# Poissons Ratio (z) = 0.37307 0.42019
#
# Static dielectric constant tensor:
#      x y z
#    x 3.965010 0.000000 0.000000 
#    y 0.000000 3.940670 0.000000 
#    z 0.000000 0.000000 3.960310 
# 
# 
# High freq. dielectric constant tensor:
#      x y z
#    x 1.850360 0.000000 0.000000 
#    y 0.000000 1.848050 0.000000 
#    z 0.000000 0.000000 1.857380 
# 
# From -- ./inp_files/23789.got.cif
#   From: 2010.03.12/outbox.cif.g09.slc.cpg/sg64_12_cif.got.tgz:23789.got - 2010.04.10 20:19:32.
