data_PCOD8264424
_publ_section_title
;
Structure prediction by ZEFSAII (Michael W. Deem and Ramdas Pophale) SiO2 
 PCOD8264424
Probable space group: C M C A
;
_chemical_formula_sum "Si O2"
_cell_formula_units_Z 64
_cell_length_a 14.077060
_cell_length_b 12.616273
_cell_length_c 14.738245
_cell_angle_alpha 90.000000
_cell_angle_beta 90.000000
_cell_angle_gamma 90.000000
_cell_volume 2617.512784
_symmetry_space_group_name_H-M "C M C A"
_symmetry_group_IT_number 64
_symmetry_cell_setting 'orthorhombic'
loop_
_space_group_symop_operation_xyz
x,y,z
-x,1/2-y,1/2+z
x,-y,-z
-x,1/2+y,1/2-z
-x,-y,-z
x,1/2+y,1/2-z
-x,y,z
x,1/2-y,1/2+z
1/2+x,1/2+y,z
1/2-x,-y,1/2+z
1/2+x,1/2-y,-z
1/2-x,y,1/2-z
1/2-x,1/2-y,-z
1/2+x,y,1/2-z
1/2-x,1/2+y,z
1/2+x,-y,1/2+z
loop_
_atom_site_type_symbol
_atom_site_label
_atom_site_fract_x
_atom_site_fract_y
_atom_site_fract_z
Si Si1 0.607699 0.641951 0.449272
Si Si2 0.390914 0.258236 0.361720
Si Si3 0.389669 0.346602 0.170732
Si Si4 0.225772 0.051122 0.146039
O O1 0.500000 0.603580 0.429951
O O2 0.623057 0.661535 0.555390
O O3 0.630602 0.748180 0.393943
O O4 0.677734 0.549927 0.413898
O O5 0.500000 0.226460 0.346328
O O6 0.352527 0.318274 0.271986
O O7 0.337151 0.150381 0.384674
O O8 0.500000 0.378662 0.172439
O O9 0.330821 0.443171 0.128429
O O10 0.250000 0.065766 0.250000
#
# Coordination Sequence:
#
# PCOD8264424 Si02
#       4
#    16  16  16  16
#     4  10  23  46  72 100 139 181 227 282 342 408
#     4  10  22  45  73 101 137 182 228 285 343 401
#     4  10  23  44  69 100 136 178 231 283 340 406
#     4  12  24  39  70 100 137 176 233 280 342 400
#
# _framework density 24.450692
#
# number of rings (size 3 to 8) (size 9 to 14) (size 15 to 20)
#    0.000    1.500    2.500    1.500    3.500    2.000 
#    4.500    3.750    0.000    4.500    0.000    0.000 
#    0.000    0.000    0.000    0.000    0.000    0.000 
#
# Total GULP energy -397023.918068 kJ/mol
# GULP energy per Si atom -12406.997440 kJ/mol
# Density = 2.439504 g / cm^3
# Si number density = 24.450692 Si / 1000 Ang^3
#
#
#
# Elastic Constant Matrix: (Units=GPa)
#
#
# Indices 1 2 3 4 5 6 
#
# 1 114.9322 72.6959 49.6921 0.0000 0.0000 0.0000
# 2 72.6959 119.1087 56.2793 0.0000 0.0000 0.0000
# 3 49.6921 56.2793 81.4996 0.0000 0.0000 0.0000
# 4 0.0000 0.0000 0.0000 3.0407 0.0000 0.0000
# 5 0.0000 0.0000 0.0000 0.0000 31.2762 0.0000
# 6 0.0000 0.0000 0.0000 0.0000 0.0000 33.0139
#
#
#
# Elastic Compliance Matrix: (Units=1/GPa)
#
#
# Indices 1 2 3 4 5 6 
#
# 1 0.015088 -0.007217 -0.004216 0.000000 0.000000 0.000000
# 2 -0.007217 0.015914 -0.006589 0.000000 0.000000 0.000000
# 3 -0.004216 -0.006589 0.019391 0.000000 0.000000 0.000000
# 4 0.000000 0.000000 0.000000 0.328876 0.000000 0.000000
# 5 0.000000 0.000000 0.000000 0.000000 0.031973 0.000000
# 6 0.000000 0.000000 0.000000 0.000000 0.000000 0.030290
#
#
# Mechanical properties :
#
#
# Convention : Reuss Voigt Hill
#
# Bulk Modulus (GPa) = 69.69154 74.76390 72.22772
# Shear Modulus (GPa) = 10.36574 22.59103 16.47838
#
# Velocity S-wave (km/s) = 2.06123 3.04294 2.59886
# Velocity P-wave (km/s) = 5.85061 6.55666 6.21367
#
# Compressibility (1/GPa) = 0.01434894
#
# Stress axis : x y z
#
# Youngs Moduli (GPa) = 66.27614 62.83936 51.57127
#
# Poissons Ratio (x) = 0.45350 0.21743
# Poissons Ratio (y) = 0.47830 0.33980
# Poissons Ratio (z) = 0.27943 0.41404
#
# Static dielectric constant tensor:
#      x y z
#    x 4.780180 0.000000 0.000000 
#    y 0.000000 4.219840 0.000000 
#    z 0.000000 0.000000 4.488830 
# 
# 
# High freq. dielectric constant tensor:
#      x y z
#    x 1.990320 0.000000 0.000000 
#    y 0.000000 1.968750 0.000000 
#    z 0.000000 0.000000 1.980290 
# 
# From -- ./inp_files/23241.got.cif
#   From: 2010.03.12/outbox.cif.g09.slc.cpg/sg64_12_cif.got.tgz:23241.got - 2010.04.10 20:19:32.
