data_PCOD8264569
_publ_section_title
;
Structure prediction by ZEFSAII (Michael W. Deem and Ramdas Pophale) SiO2 
 PCOD8264569
Probable space group: C M C A
;
_chemical_formula_sum "Si O2"
_cell_formula_units_Z 56
_cell_length_a 20.936110
_cell_length_b 23.902334
_cell_length_c 5.042435
_cell_angle_alpha 90.000000
_cell_angle_beta 90.000000
_cell_angle_gamma 90.000000
_cell_volume 2523.344872
_symmetry_space_group_name_H-M "C M C A"
_symmetry_group_IT_number 64
_symmetry_cell_setting 'orthorhombic'
loop_
_space_group_symop_operation_xyz
x,y,z
-x,1/2-y,1/2+z
x,-y,-z
-x,1/2+y,1/2-z
-x,-y,-z
x,1/2+y,1/2-z
-x,y,z
x,1/2-y,1/2+z
1/2+x,1/2+y,z
1/2-x,-y,1/2+z
1/2+x,1/2-y,-z
1/2-x,y,1/2-z
1/2-x,1/2-y,-z
1/2+x,y,1/2-z
1/2-x,1/2+y,z
1/2+x,-y,1/2+z
loop_
_atom_site_type_symbol
_atom_site_label
_atom_site_fract_x
_atom_site_fract_y
_atom_site_fract_z
Si Si1 0.853605 0.436259 0.999847
Si Si2 0.572924 0.897297 0.490316
Si Si3 0.250000 0.359422 0.250000
Si Si4 0.639100 0.212652 0.586936
O O1 0.880756 0.420878 0.714171
O O2 0.830104 0.500000 0.000000
O O3 0.909052 0.427602 0.216409
O O4 0.792873 0.397379 0.058031
O O5 0.500000 0.910873 0.560709
O O6 0.581141 0.830382 0.460095
O O7 0.294129 0.320806 0.061977
O O8 0.634405 0.263338 0.383187
#
# Coordination Sequence:
#
# PCOD8264569 Si02
#       4
#    16  16   8  16
#     4  11  25  43  67  96 129 170 211 263 324 377
#     4  11  25  44  65  95 130 167 218 266 311 379
#     4  10  24  42  64  96 132 164 214 266 316 386
#     4  11  23  40  64  92 126 168 209 259 318 374
#
# _framework density 22.192767
#
# number of rings (size 3 to 8) (size 9 to 14) (size 15 to 20)
#    0.000    1.143    0.000    6.000    0.000   18.286 
#    0.000    0.000    0.000    0.000    0.000    0.000 
#    0.000    0.000    0.000    0.000    0.000    0.000 
#
# Total GULP energy -347379.443615 kJ/mol
# GULP energy per Si atom -12406.408701 kJ/mol
# Density = 2.214226 g / cm^3
# Si number density = 22.192767 Si / 1000 Ang^3
#
#
#
# Elastic Constant Matrix: (Units=GPa)
#
#
# Indices 1 2 3 4 5 6 
#
# 1 59.7480 -1.8361 -7.0963 0.0000 0.0000 0.0000
# 2 -1.8361 110.7173 22.1567 0.0000 0.0000 0.0000
# 3 -7.0963 22.1567 75.6513 0.0000 0.0000 0.0000
# 4 0.0000 0.0000 0.0000 13.6129 0.0000 0.0000
# 5 0.0000 0.0000 0.0000 0.0000 27.5879 0.0000
# 6 0.0000 0.0000 0.0000 0.0000 0.0000 11.9342
#
#
#
# Elastic Compliance Matrix: (Units=1/GPa)
#
#
# Indices 1 2 3 4 5 6 
#
# 1 0.016926 -0.000039 0.001599 0.000000 0.000000 0.000000
# 2 -0.000039 0.009594 -0.002814 0.000000 0.000000 0.000000
# 3 0.001599 -0.002814 0.014193 0.000000 0.000000 0.000000
# 4 0.000000 0.000000 0.000000 0.073460 0.000000 0.000000
# 5 0.000000 0.000000 0.000000 0.000000 0.036248 0.000000
# 6 0.000000 0.000000 0.000000 0.000000 0.000000 0.083793
#
#
# Mechanical properties :
#
#
# Convention : Reuss Voigt Hill
#
# Bulk Modulus (GPa) = 26.17452 30.28501 28.22977
# Shear Modulus (GPa) = 20.04363 26.15315 23.09839
#
# Velocity S-wave (km/s) = 3.00852 3.43659 3.22965
# Velocity P-wave (km/s) = 4.88754 5.42428 5.16289
#
# Compressibility (1/GPa) = 0.03820509
#
# Stress axis : x y z
#
# Youngs Moduli (GPa) = 59.08173 104.22712 70.45914
#
# Poissons Ratio (x) = 0.00410 -0.11268
# Poissons Ratio (y) = 0.00232 0.19825
# Poissons Ratio (z) = -0.09448 0.29326
#
# Static dielectric constant tensor:
#      x y z
#    x 3.892380 0.000000 0.000000 
#    y 0.000000 4.220310 0.000000 
#    z 0.000000 0.000000 3.906710 
# 
# 
# High freq. dielectric constant tensor:
#      x y z
#    x 1.864770 0.000000 0.000000 
#    y 0.000000 1.890140 0.000000 
#    z 0.000000 0.000000 1.882100 
# 
# From -- ./inp_files/1632.got.cif
#   From: 2010.03.12/outbox.cif.g09.slc.cpg/sg64_1_cif.got.tgz:1632.got - 2010.04.10 20:19:32.
