data_PCOD8264559
_publ_section_title
;
Structure prediction by ZEFSAII (Michael W. Deem and Ramdas Pophale) SiO2 
 PCOD8264559
Probable space group: C M C A
;
_chemical_formula_sum "Si O2"
_cell_formula_units_Z 96
_cell_length_a 27.496106
_cell_length_b 8.591468
_cell_length_c 19.102891
_cell_angle_alpha 90.000000
_cell_angle_beta 90.000000
_cell_angle_gamma 90.000000
_cell_volume 4512.712520
_symmetry_space_group_name_H-M "C M C A"
_symmetry_group_IT_number 64
_symmetry_cell_setting 'orthorhombic'
loop_
_space_group_symop_operation_xyz
x,y,z
-x,1/2-y,1/2+z
x,-y,-z
-x,1/2+y,1/2-z
-x,-y,-z
x,1/2+y,1/2-z
-x,y,z
x,1/2-y,1/2+z
1/2+x,1/2+y,z
1/2-x,-y,1/2+z
1/2+x,1/2-y,-z
1/2-x,y,1/2-z
1/2-x,1/2-y,-z
1/2+x,y,1/2-z
1/2-x,1/2+y,z
1/2+x,-y,1/2+z
loop_
_atom_site_type_symbol
_atom_site_label
_atom_site_fract_x
_atom_site_fract_y
_atom_site_fract_z
Si Si1 0.208071 0.611791 0.156602
Si Si2 0.797630 0.603126 0.439817
Si Si3 0.640334 0.167431 0.030364
Si Si4 0.446295 0.611878 0.935100
Si Si5 0.829340 0.819313 0.274966
Si Si6 0.874079 0.528468 0.338866
O O1 0.259262 0.652176 0.119460
O O2 0.164102 0.656729 0.106544
O O3 0.204768 0.428906 0.176789
O O4 0.205423 0.713187 0.227127
O O5 0.771268 0.500000 0.500000
O O6 0.823537 0.751119 0.474623
O O7 0.837215 0.488554 0.403384
O O8 0.588872 0.248780 0.042859
O O9 0.628124 0.000000 0.000000
O O10 0.500000 0.676925 0.915896
O O11 0.427369 0.512568 0.867775
O O12 0.450410 0.500000 0.000000
O O13 0.864665 0.711398 0.322584
O O14 0.864806 0.927555 0.229760
#
# Coordination Sequence:
#
# PCOD8264559 Si02
#       6
#    16  16  16  16  16  16
#     4  11  24  40  63  96 135 180 227 264 320 400
#     4  12  23  41  65  92 136 178 224 270 335 396
#     4  12  23  41  68 101 133 170 218 285 337 393
#     4  11  23  45  74  98 127 170 216 282 351 399
#     4  10  24  40  64  90 136 183 216 268 321 387
#     4  11  21  43  63  92 131 171 221 269 325 397
#
# _framework density 21.273237000000002
#
# number of rings (size 3 to 8) (size 9 to 14) (size 15 to 20)
#    0.000    0.833    5.000    2.000    0.000    8.333 
#    0.000    2.500    0.000    0.000    0.000    0.000 
#    0.000    0.000    0.000    0.000    0.000    0.000 
#
# Total GULP energy -595267.908376 kJ/mol
# GULP energy per Si atom -12401.414758 kJ/mol
# Density = 2.122482 g / cm^3
# Si number density = 21.273237 Si / 1000 Ang^3
#
#
#
# Elastic Constant Matrix: (Units=GPa)
#
#
# Indices 1 2 3 4 5 6 
#
# 1 145.7798 67.4823 50.2158 0.0000 0.0000 0.0000
# 2 67.4823 136.9895 48.9063 0.0000 0.0000 0.0000
# 3 50.2158 48.9063 109.6251 0.0000 0.0000 0.0000
# 4 0.0000 0.0000 0.0000 37.7043 0.0000 0.0000
# 5 0.0000 0.0000 0.0000 0.0000 55.9159 0.0000
# 6 0.0000 0.0000 0.0000 0.0000 0.0000 35.2051
#
#
#
# Elastic Compliance Matrix: (Units=1/GPa)
#
#
# Indices 1 2 3 4 5 6 
#
# 1 0.009512 -0.003723 -0.002696 0.000000 0.000000 0.000000
# 2 -0.003723 0.010140 -0.002818 0.000000 0.000000 0.000000
# 3 -0.002696 -0.002818 0.011614 0.000000 0.000000 0.000000
# 4 0.000000 0.000000 0.000000 0.026522 0.000000 0.000000
# 5 0.000000 0.000000 0.000000 0.000000 0.017884 0.000000
# 6 0.000000 0.000000 0.000000 0.000000 0.000000 0.028405
#
#
# Mechanical properties :
#
#
# Convention : Reuss Voigt Hill
#
# Bulk Modulus (GPa) = 78.17875 80.62259 79.40067
# Shear Modulus (GPa) = 39.42725 40.81773 40.12249
#
# Velocity S-wave (km/s) = 4.30975 4.38509 4.34758
# Velocity P-wave (km/s) = 7.84824 7.97619 7.91247
#
# Compressibility (1/GPa) = 0.01279120
#
# Stress axis : x y z
#
# Youngs Moduli (GPa) = 105.13256 98.61945 86.10081
#
# Poissons Ratio (x) = 0.36717 0.23214
# Poissons Ratio (y) = 0.39142 0.24265
# Poissons Ratio (z) = 0.28345 0.27794
#
# Static dielectric constant tensor:
#      x y z
#    x 3.859290 0.000000 0.000000 
#    y 0.000000 4.023180 0.000000 
#    z 0.000000 0.000000 4.165290 
# 
# 
# High freq. dielectric constant tensor:
#      x y z
#    x 1.795000 0.000000 0.000000 
#    y 0.000000 1.848170 0.000000 
#    z 0.000000 0.000000 1.858330 
# 
# From -- ./inp_files/41820.got.cif
#   From: 2010.03.12/outbox.cif.g09.slc.cpg/sg64_21_cif.got.tgz:41820.got - 2010.04.10 20:19:32.
