data_PCOD8264680
_publ_section_title
;
Structure prediction by ZEFSAII (Michael W. Deem and Ramdas Pophale) SiO2 
 PCOD8264680
Probable space group: C M C A
;
_chemical_formula_sum "Si O2"
_cell_formula_units_Z 96
_cell_length_a 15.486768
_cell_length_b 18.984059
_cell_length_c 14.132411
_cell_angle_alpha 90.000000
_cell_angle_beta 90.000000
_cell_angle_gamma 90.000000
_cell_volume 4154.953105
_symmetry_space_group_name_H-M "C M C A"
_symmetry_group_IT_number 64
_symmetry_cell_setting 'orthorhombic'
loop_
_space_group_symop_operation_xyz
x,y,z
-x,1/2-y,1/2+z
x,-y,-z
-x,1/2+y,1/2-z
-x,-y,-z
x,1/2+y,1/2-z
-x,y,z
x,1/2-y,1/2+z
1/2+x,1/2+y,z
1/2-x,-y,1/2+z
1/2+x,1/2-y,-z
1/2-x,y,1/2-z
1/2-x,1/2-y,-z
1/2+x,y,1/2-z
1/2-x,1/2+y,z
1/2+x,-y,1/2+z
loop_
_atom_site_type_symbol
_atom_site_label
_atom_site_fract_x
_atom_site_fract_y
_atom_site_fract_z
Si Si1 0.500000 0.545524 0.851083
Si Si2 0.835299 0.324514 0.623897
Si Si3 0.900451 0.238562 0.302382
Si Si4 0.830476 0.392192 0.312316
Si Si5 0.099945 0.803585 0.481048
Si Si6 0.000000 0.897873 0.952635
Si Si7 0.270885 0.583776 0.504747
O O1 0.587432 0.556554 0.790339
O O2 0.500000 0.472964 0.904617
O O3 0.500000 0.604920 0.933272
O O4 0.845175 0.316282 0.737650
O O5 0.834576 0.245853 0.578717
O O6 0.919186 0.356525 0.580362
O O7 0.756457 0.376205 0.593622
O O8 0.857077 0.313736 0.285321
O O9 0.892325 0.215467 0.409475
O O10 0.000000 0.240315 0.268981
O O11 0.750000 0.418492 0.250000
O O12 0.805740 0.399459 0.422151
O O13 0.137239 0.882574 0.464529
O O14 0.000000 0.800532 0.446895
O O15 0.282306 0.500000 0.500000
#
# Coordination Sequence:
#
# PCOD8264680 Si02
#       7
#     8  16  16  16  16   8  16
#     4  11  22  43  70 102 148 192 231 298 360 427
#     4  12  22  42  74 107 137 180 246 303 351 417
#     4  11  23  41  69 107 139 179 241 297 359 421
#     4  12  25  43  69 106 144 186 234 297 358 430
#     4  11  24  45  70  99 144 190 238 300 359 428
#     4  11  20  39  76 102 136 185 244 293 353 415
#     4  12  27  48  70 102 146 192 238 292 365 434
#
# _framework density 23.104953999999999
#
# number of rings (size 3 to 8) (size 9 to 14) (size 15 to 20)
#    0.000    0.500    5.833    2.500    2.333    0.333 
#    7.500    0.000    0.000    0.000    0.000    0.000 
#    0.000    0.000    0.000    0.000    0.000    0.000 
#
# Total GULP energy -595022.108348 kJ/mol
# GULP energy per Si atom -12396.293924 kJ/mol
# Density = 2.305237 g / cm^3
# Si number density = 23.104954 Si / 1000 Ang^3
#
#
#
# Elastic Constant Matrix: (Units=GPa)
#
#
# Indices 1 2 3 4 5 6 
#
# 1 12.1627 -15.9491 -285.0232 0.0000 0.0000 0.0000
# 2 -15.9491 90.8195 -141.6927 0.0000 0.0000 0.0000
# 3 -285.0232 -141.6927 -809.0920 0.0000 0.0000 0.0000
# 4 0.0000 0.0000 0.0000 31.2004 0.0000 0.0000
# 5 0.0000 0.0000 0.0000 0.0000 32.3276 0.0000
# 6 0.0000 0.0000 0.0000 0.0000 0.0000 43.3471
#
#
#
# Elastic Compliance Matrix: (Units=1/GPa)
#
#
# Indices 1 2 3 4 5 6 
#
# 1 0.009747 -0.002863 -0.002932 0.000000 0.000000 0.000000
# 2 -0.002863 0.009489 -0.000653 0.000000 0.000000 0.000000
# 3 -0.002932 -0.000653 -0.000089 0.000000 0.000000 0.000000
# 4 0.000000 0.000000 0.000000 0.032051 0.000000 0.000000
# 5 0.000000 0.000000 0.000000 0.000000 0.030933 0.000000
# 6 0.000000 0.000000 0.000000 0.000000 0.000000 0.023070
#
#
# Mechanical properties :
#
#
# Convention : Reuss Voigt Hill
#
# Bulk Modulus (GPa) = 159.98724 -176.82664 -8.41970
# Shear Modulus (GPa) = 41.60345 3.81202 22.70773
#
# Velocity S-wave (km/s) = 4.24799 1.28587 3.13838
# Velocity P-wave (km/s) = 9.66719 8.63096 3.07905
#
# Compressibility (1/GPa) = 0.00625050
#
# Stress axis : x y z
#
# Youngs Moduli (GPa) = 102.59236 105.38500 -11289.08128
#
# Poissons Ratio (x) = 0.30173 -33.10332
# Poissons Ratio (y) = 0.29374 -7.37353
# Poissons Ratio (z) = 0.30083 0.06883
#
# Static dielectric constant tensor:
#      x y z
#    x 4.287440 0.000000 0.000000 
#    y 0.000000 4.392030 0.000000 
#    z 0.000000 0.000000 7.346890 
# 
# 
# High freq. dielectric constant tensor:
#      x y z
#    x 1.930360 0.000000 0.000000 
#    y 0.000000 1.898800 0.000000 
#    z 0.000000 0.000000 1.907060 
# 
# From -- ./inp_files/23970.got.cif
#   From: 2010.03.12/outbox.cif.g09.slc.cpg/sg64_12_cif.got.tgz:23970.got - 2010.04.10 20:19:32.
