data_PCOD8264408
_publ_section_title
;
Structure prediction by ZEFSAII (Michael W. Deem and Ramdas Pophale) SiO2 
 PCOD8264408
Probable space group: C M C A
;
_chemical_formula_sum "Si O2"
_cell_formula_units_Z 88
_cell_length_a 12.542502
_cell_length_b 17.642671
_cell_length_c 19.668282
_cell_angle_alpha 90.000000
_cell_angle_beta 90.000000
_cell_angle_gamma 90.000000
_cell_volume 4352.261093
_symmetry_space_group_name_H-M "C M C A"
_symmetry_group_IT_number 64
_symmetry_cell_setting 'orthorhombic'
loop_
_space_group_symop_operation_xyz
x,y,z
-x,1/2-y,1/2+z
x,-y,-z
-x,1/2+y,1/2-z
-x,-y,-z
x,1/2+y,1/2-z
-x,y,z
x,1/2-y,1/2+z
1/2+x,1/2+y,z
1/2-x,-y,1/2+z
1/2+x,1/2-y,-z
1/2-x,y,1/2-z
1/2-x,1/2-y,-z
1/2+x,y,1/2-z
1/2-x,1/2+y,z
1/2+x,-y,1/2+z
loop_
_atom_site_type_symbol
_atom_site_label
_atom_site_fract_x
_atom_site_fract_y
_atom_site_fract_z
Si Si1 0.122283 0.440369 0.552231
Si Si2 0.777324 0.437359 0.830067
Si Si3 0.250000 0.319381 0.250000
Si Si4 0.373065 0.407697 0.366200
Si Si5 0.378122 0.776256 0.843927
Si Si6 0.714233 0.821384 0.459592
O O1 0.174532 0.500000 0.500000
O O2 0.169683 0.449211 0.627458
O O3 0.139657 0.361085 0.515152
O O4 0.000000 0.458145 0.564318
O O5 0.750000 0.441334 0.750000
O O6 0.860211 0.501918 0.855072
O O7 0.819078 0.355875 0.854659
O O8 0.311737 0.370867 0.303255
O O9 0.341583 0.262768 0.225082
O O10 0.500000 0.388766 0.369657
O O11 0.313336 0.374079 0.433325
O O12 0.500000 0.797693 0.839698
O O13 0.357146 0.710880 0.899016
O O14 0.750000 0.750000 0.500000
#
# Coordination Sequence:
#
# PCOD8264408 Si02
#       6
#    16  16   8  16  16  16
#     4  11  24  45  70  93 128 179 225 273 332 391
#     4  12  24  45  64 101 142 171 225 276 329 414
#     4  10  22  44  60  92 136 166 226 268 310 406
#     4  11  24  42  68  95 131 178 216 271 337 389
#     4  11  23  40  66  94 129 175 218 274 332 382
#     4  11  23  44  65  95 132 163 223 279 324 400
#
# _framework density 20.219374999999999
#
# number of rings (size 3 to 8) (size 9 to 14) (size 15 to 20)
#    0.000    0.909    5.455    1.636    0.000    2.909 
#    0.000    0.909    0.000    0.000    0.000    0.000 
#    0.000    0.000    0.000    0.000    0.000    0.000 
#
# Total GULP energy -545222.698285 kJ/mol
# GULP energy per Si atom -12391.424961 kJ/mol
# Density = 2.017335 g / cm^3
# Si number density = 20.219375 Si / 1000 Ang^3
#
#
#
# Elastic Constant Matrix: (Units=GPa)
#
#
# Indices 1 2 3 4 5 6 
#
# 1 108.3452 21.5240 43.6055 0.0000 0.0000 0.0000
# 2 21.5240 105.7268 27.0479 0.0000 0.0000 0.0000
# 3 43.6055 27.0479 116.6389 0.0000 0.0000 0.0000
# 4 0.0000 0.0000 0.0000 32.4109 0.0000 0.0000
# 5 0.0000 0.0000 0.0000 0.0000 26.5994 0.0000
# 6 0.0000 0.0000 0.0000 0.0000 0.0000 26.5960
#
#
#
# Elastic Compliance Matrix: (Units=1/GPa)
#
#
# Indices 1 2 3 4 5 6 
#
# 1 0.011021 -0.001265 -0.003827 0.000000 0.000000 0.000000
# 2 -0.001265 0.010200 -0.001893 0.000000 0.000000 0.000000
# 3 -0.003827 -0.001893 0.010443 0.000000 0.000000 0.000000
# 4 0.000000 0.000000 0.000000 0.030854 0.000000 0.000000
# 5 0.000000 0.000000 0.000000 0.000000 0.037595 0.000000
# 6 0.000000 0.000000 0.000000 0.000000 0.000000 0.037600
#
#
# Mechanical properties :
#
#
# Convention : Reuss Voigt Hill
#
# Bulk Modulus (GPa) = 56.51036 57.22950 56.86993
# Shear Modulus (GPa) = 31.72999 33.02349 32.37674
#
# Velocity S-wave (km/s) = 3.96572 4.04575 4.00593
# Velocity P-wave (km/s) = 6.99847 7.08448 7.04160
#
# Compressibility (1/GPa) = 0.01769587
#
# Stress axis : x y z
#
# Youngs Moduli (GPa) = 90.73373 98.03956 95.75730
#
# Poissons Ratio (x) = 0.12399 0.36647
# Poissons Ratio (y) = 0.11475 0.18122
# Poissons Ratio (z) = 0.34724 0.18554
#
# Static dielectric constant tensor:
#      x y z
#    x 3.518380 0.000000 0.000000 
#    y 0.000000 3.914600 0.000000 
#    z 0.000000 0.000000 3.658040 
# 
# 
# High freq. dielectric constant tensor:
#      x y z
#    x 1.780310 0.000000 0.000000 
#    y 0.000000 1.813070 0.000000 
#    z 0.000000 0.000000 1.797450 
# 
# From -- ./inp_files/38119.got.cif
#   From: 2010.03.12/outbox.cif.g09.slc.cpg/sg64_20_cif.got.tgz:38119.got - 2010.04.10 20:19:32.
