data_PCOD8264768
_publ_section_title
;
Structure prediction by ZEFSAII (Michael W. Deem and Ramdas Pophale) SiO2 
 PCOD8264768
Probable space group: C M C A
;
_chemical_formula_sum "Si O2"
_cell_formula_units_Z 96
_cell_length_a 22.024925
_cell_length_b 9.179604
_cell_length_c 24.644376
_cell_angle_alpha 90.000000
_cell_angle_beta 90.000000
_cell_angle_gamma 90.000000
_cell_volume 4982.602149
_symmetry_space_group_name_H-M "C M C A"
_symmetry_group_IT_number 64
_symmetry_cell_setting 'orthorhombic'
loop_
_space_group_symop_operation_xyz
x,y,z
-x,1/2-y,1/2+z
x,-y,-z
-x,1/2+y,1/2-z
-x,-y,-z
x,1/2+y,1/2-z
-x,y,z
x,1/2-y,1/2+z
1/2+x,1/2+y,z
1/2-x,-y,1/2+z
1/2+x,1/2-y,-z
1/2-x,y,1/2-z
1/2-x,1/2-y,-z
1/2+x,y,1/2-z
1/2-x,1/2+y,z
1/2+x,-y,1/2+z
loop_
_atom_site_type_symbol
_atom_site_label
_atom_site_fract_x
_atom_site_fract_y
_atom_site_fract_z
Si Si1 0.567181 0.165776 0.004829
Si Si2 0.069724 0.837420 0.188625
Si Si3 0.360145 0.621866 0.917502
Si Si4 0.381960 0.787763 0.592316
Si Si5 0.230356 0.130514 0.540506
Si Si6 0.568940 0.327620 0.793709
O O1 0.500000 0.174018 0.031442
O O2 0.562897 0.223696 0.943093
O O3 0.615328 0.268189 0.036227
O O4 0.590578 0.000000 0.000000
O O5 0.115600 0.811133 0.138881
O O6 0.093541 0.735167 0.237060
O O7 0.000000 0.800744 0.171358
O O8 0.074005 0.000214 0.210452
O O9 0.383038 0.457518 0.924549
O O10 0.287329 0.603283 0.919295
O O11 0.323405 0.690792 0.577801
O O12 0.391996 0.766352 0.656249
O O13 0.250000 0.250000 0.500000
O O14 0.211435 0.000000 0.500000
O O15 0.500000 0.275660 0.802568
#
# Coordination Sequence:
#
# PCOD8264768 Si02
#       6
#    16  16  16  16  16  16
#     4  11  23  35  52  84 118 145 184 238 292 347
#     4   9  19  37  60  85 113 147 189 237 293 353
#     4  11  22  38  59  82 112 155 196 235 290 352
#     4  11  22  37  59  83 112 153 196 236 289 351
#     4  12  22  39  59  84 117 155 194 238 289 346
#     4   9  19  37  59  84 113 147 189 238 293 351
#
# _framework density 19.267043000000001
#
# number of rings (size 3 to 8) (size 9 to 14) (size 15 to 20)
#    0.000    1.500    3.333    2.000    0.000    4.000 
#    0.000    4.167    0.000    4.000    0.000    0.000 
#    0.000    0.000    0.000    0.000    0.000    0.000 
#
# Total GULP energy -594786.145376 kJ/mol
# GULP energy per Si atom -12391.378029 kJ/mol
# Density = 1.922319 g / cm^3
# Si number density = 19.267043 Si / 1000 Ang^3
#
#
#
# Elastic Constant Matrix: (Units=GPa)
#
#
# Indices 1 2 3 4 5 6 
#
# 1 86.2744 18.6930 34.2666 0.0000 0.0000 0.0000
# 2 18.6930 77.7387 32.4298 0.0000 0.0000 0.0000
# 3 34.2666 32.4298 95.3968 0.0000 0.0000 0.0000
# 4 0.0000 0.0000 0.0000 36.3834 0.0000 0.0000
# 5 0.0000 0.0000 0.0000 0.0000 35.6895 0.0000
# 6 0.0000 0.0000 0.0000 0.0000 0.0000 20.9871
#
#
#
# Elastic Compliance Matrix: (Units=1/GPa)
#
#
# Indices 1 2 3 4 5 6 
#
# 1 0.013657 -0.001442 -0.004415 0.000000 0.000000 0.000000
# 2 -0.001442 0.015142 -0.004629 0.000000 0.000000 0.000000
# 3 -0.004415 -0.004629 0.013642 0.000000 0.000000 0.000000
# 4 0.000000 0.000000 0.000000 0.027485 0.000000 0.000000
# 5 0.000000 0.000000 0.000000 0.000000 0.028019 0.000000
# 6 0.000000 0.000000 0.000000 0.000000 0.000000 0.047648
#
#
# Mechanical properties :
#
#
# Convention : Reuss Voigt Hill
#
# Bulk Modulus (GPa) = 46.58237 47.79874 47.19055
# Shear Modulus (GPa) = 28.78145 30.21338 29.49742
#
# Velocity S-wave (km/s) = 3.86919 3.96427 3.91702
# Velocity P-wave (km/s) = 6.64760 6.76877 6.70846
#
# Compressibility (1/GPa) = 0.02146735
#
# Stress axis : x y z
#
# Youngs Moduli (GPa) = 73.22207 66.04341 73.30155
#
# Poissons Ratio (x) = 0.09524 0.32366
# Poissons Ratio (y) = 0.10559 0.33934
# Poissons Ratio (z) = 0.32331 0.30574
#
# Static dielectric constant tensor:
#      x y z
#    x 3.566490 0.000000 0.000000 
#    y 0.000000 3.582850 0.000000 
#    z 0.000000 0.000000 3.528160 
# 
# 
# High freq. dielectric constant tensor:
#      x y z
#    x 1.743430 0.000000 0.000000 
#    y 0.000000 1.762420 0.000000 
#    z 0.000000 0.000000 1.741070 
# 
# From -- ./inp_files/46582.got.cif
#   From: 2010.03.12/outbox.cif.g09.slc.cpg/sg64_24_cif.got.tgz:46582.got - 2010.04.10 20:19:32.
