data_PCOD8264685
_publ_section_title
;
Structure prediction by ZEFSAII (Michael W. Deem and Ramdas Pophale) SiO2 
 PCOD8264685
Probable space group: C M C A
;
_chemical_formula_sum "Si O2"
_cell_formula_units_Z 80
_cell_length_a 19.416359
_cell_length_b 10.926265
_cell_length_c 17.383499
_cell_angle_alpha 90.000000
_cell_angle_beta 90.000000
_cell_angle_gamma 90.000000
_cell_volume 3687.879479
_symmetry_space_group_name_H-M "C M C A"
_symmetry_group_IT_number 64
_symmetry_cell_setting 'orthorhombic'
loop_
_space_group_symop_operation_xyz
x,y,z
-x,1/2-y,1/2+z
x,-y,-z
-x,1/2+y,1/2-z
-x,-y,-z
x,1/2+y,1/2-z
-x,y,z
x,1/2-y,1/2+z
1/2+x,1/2+y,z
1/2-x,-y,1/2+z
1/2+x,1/2-y,-z
1/2-x,y,1/2-z
1/2-x,1/2-y,-z
1/2+x,y,1/2-z
1/2-x,1/2+y,z
1/2+x,-y,1/2+z
loop_
_atom_site_type_symbol
_atom_site_label
_atom_site_fract_x
_atom_site_fract_y
_atom_site_fract_z
Si Si1 0.500000 0.698618 0.959039
Si Si2 0.348396 0.736317 0.449169
Si Si3 0.000000 0.448834 0.615839
Si Si4 0.174930 0.682542 0.714476
Si Si5 0.865001 0.575576 0.292675
Si Si6 0.221430 0.901847 0.937986
O O1 0.568697 0.782582 0.951945
O O2 0.500000 0.596273 0.892200
O O3 0.500000 0.622155 0.036393
O O4 0.326836 0.827452 0.378781
O O5 0.304897 0.611552 0.435744
O O6 0.319967 0.782780 0.531567
O O7 0.934299 0.405156 0.661450
O O8 0.250000 0.688585 0.750000
O O9 0.136843 0.810213 0.734443
O O10 0.137782 0.559221 0.747919
O O11 0.799844 0.574790 0.350381
O O12 0.196898 0.000000 0.000000
#
# Coordination Sequence:
#
# PCOD8264685 Si02
#       6
#     8  16   8  16  16  16
#     4  11  20  41  68  99 127 171 229 283 333 389
#     4  11  23  39  70  97 128 173 227 282 330 397
#     4  11  22  39  69  97 133 174 226 280 326 405
#     4  12  25  43  65  99 140 176 221 276 340 403
#     4  12  25  42  69 100 137 181 222 276 337 398
#     4  11  21  41  67  99 125 172 232 282 324 392
#
# _framework density 21.692682999999999
#
# number of rings (size 3 to 8) (size 9 to 14) (size 15 to 20)
#    0.000    0.600    8.000    0.600    0.000    1.600 
#    0.000    0.500    0.000    0.000    0.000    0.000 
#    0.000    0.000    0.000    0.000    0.000    0.000 
#
# Total GULP energy -495693.439903 kJ/mol
# GULP energy per Si atom -12392.335998 kJ/mol
# Density = 2.164331 g / cm^3
# Si number density = 21.692683 Si / 1000 Ang^3
#
#
#
# Elastic Constant Matrix: (Units=GPa)
#
#
# Indices 1 2 3 4 5 6 
#
# 1 140.4770 8.0672 11.3924 0.0000 0.0000 0.0000
# 2 8.0672 102.3805 23.4940 0.0000 0.0000 0.0000
# 3 11.3924 23.4940 55.5737 0.0000 0.0000 0.0000
# 4 0.0000 0.0000 0.0000 25.1625 0.0000 0.0000
# 5 0.0000 0.0000 0.0000 0.0000 21.5488 0.0000
# 6 0.0000 0.0000 0.0000 0.0000 0.0000 29.2267
#
#
#
# Elastic Compliance Matrix: (Units=1/GPa)
#
#
# Indices 1 2 3 4 5 6 
#
# 1 0.007245 -0.000255 -0.001377 0.000000 0.000000 0.000000
# 2 -0.000255 0.010826 -0.004524 0.000000 0.000000 0.000000
# 3 -0.001377 -0.004524 0.020189 0.000000 0.000000 0.000000
# 4 0.000000 0.000000 0.000000 0.039742 0.000000 0.000000
# 5 0.000000 0.000000 0.000000 0.000000 0.046406 0.000000
# 6 0.000000 0.000000 0.000000 0.000000 0.000000 0.034215
#
#
# Mechanical properties :
#
#
# Convention : Reuss Voigt Hill
#
# Bulk Modulus (GPa) = 38.54066 42.70426 40.62246
# Shear Modulus (GPa) = 27.84187 32.21942 30.03065
#
# Velocity S-wave (km/s) = 3.58644 3.85810 3.72475
# Velocity P-wave (km/s) = 5.91230 6.29089 6.10453
#
# Compressibility (1/GPa) = 0.02594662
#
# Stress axis : x y z
#
# Youngs Moduli (GPa) = 138.02725 92.37182 49.53135
#
# Poissons Ratio (x) = 0.02353 0.06823
# Poissons Ratio (y) = 0.03517 0.22410
# Poissons Ratio (z) = 0.19013 0.41793
#
# Static dielectric constant tensor:
#      x y z
#    x 3.900350 0.000000 0.000000 
#    y 0.000000 3.975840 0.000000 
#    z 0.000000 0.000000 3.852530 
# 
# 
# High freq. dielectric constant tensor:
#      x y z
#    x 1.848140 0.000000 0.000000 
#    y 0.000000 1.834840 0.000000 
#    z 0.000000 0.000000 1.845890 
# 
# From -- ./inp_files/34066.got.cif
#   From: 2010.03.12/outbox.cif.g09.slc.cpg/sg64_18_cif.got.tgz:34066.got - 2010.04.10 20:19:32.
