data_PCOD8264111
_publ_section_title
;
Structure prediction by ZEFSAII (Michael W. Deem and Ramdas Pophale) SiO2 
 PCOD8264111
Probable space group: C M C A
;
_chemical_formula_sum "Si O2"
_cell_formula_units_Z 72
_cell_length_a 17.357310
_cell_length_b 9.151900
_cell_length_c 21.046227
_cell_angle_alpha 90.000000
_cell_angle_beta 90.000000
_cell_angle_gamma 90.000000
_cell_volume 3343.242941
_symmetry_space_group_name_H-M "C M C A"
_symmetry_group_IT_number 64
_symmetry_cell_setting 'orthorhombic'
loop_
_space_group_symop_operation_xyz
x,y,z
-x,1/2-y,1/2+z
x,-y,-z
-x,1/2+y,1/2-z
-x,-y,-z
x,1/2+y,1/2-z
-x,y,z
x,1/2-y,1/2+z
1/2+x,1/2+y,z
1/2-x,-y,1/2+z
1/2+x,1/2-y,-z
1/2-x,y,1/2-z
1/2-x,1/2-y,-z
1/2+x,y,1/2-z
1/2-x,1/2+y,z
1/2+x,-y,1/2+z
loop_
_atom_site_type_symbol
_atom_site_label
_atom_site_fract_x
_atom_site_fract_y
_atom_site_fract_z
Si Si1 0.170444 0.923102 0.674548
Si Si2 0.250000 0.175277 0.750000
Si Si3 0.415971 0.394460 0.050094
Si Si4 0.000000 0.374689 0.794373
Si Si5 0.806085 0.143417 0.461669
Si Si6 0.500000 0.952030 0.331257
O O1 0.200429 0.073970 0.703639
O O2 0.189074 0.778760 0.714792
O O3 0.076947 0.934791 0.670221
O O4 0.218544 0.909501 0.608432
O O5 0.500000 0.369836 0.019351
O O6 0.381977 0.234730 0.053300
O O7 0.424308 0.461231 0.121821
O O8 0.369178 0.500000 0.000000
O O9 0.000000 0.200046 0.794068
O O10 0.000000 0.419031 0.719680
O O11 0.750000 0.250000 0.500000
O O12 0.827361 0.000000 0.500000
#
# Coordination Sequence:
#
# PCOD8264111 Si02
#       6
#    16   8  16   8  16   8
#     4  11  23  45  65 102 133 183 227 287 341 434
#     4  10  24  42  68  92 146 178 224 278 358 410
#     4   9  20  44  65  92 136 179 224 286 344 413
#     4  12  22  42  72 100 141 177 234 287 355 409
#     4  12  25  43  68  98 134 184 235 292 348 421
#     4  10  21  42  64 104 137 174 218 291 347 423
#
# _framework density 21.535976999999999
#
# number of rings (size 3 to 8) (size 9 to 14) (size 15 to 20)
#    0.667    0.667    2.222    3.333    0.000    0.444 
#   12.000    0.000    0.000    0.000    0.000    0.000 
#    0.000    0.000    0.000    0.000    0.000    0.000 
#
# Total GULP energy -445996.514522 kJ/mol
# GULP energy per Si atom -12388.792070 kJ/mol
# Density = 2.148696 g / cm^3
# Si number density = 21.535977 Si / 1000 Ang^3
#
#
#
# Elastic Constant Matrix: (Units=GPa)
#
#
# Indices 1 2 3 4 5 6 
#
# 1 71.7695 7.0267 22.3858 0.0000 0.0000 0.0000
# 2 7.0267 99.2810 62.4152 0.0000 0.0000 0.0000
# 3 22.3858 62.4152 167.0265 0.0000 0.0000 0.0000
# 4 0.0000 0.0000 0.0000 38.9854 0.0000 0.0000
# 5 0.0000 0.0000 0.0000 0.0000 24.1615 0.0000
# 6 0.0000 0.0000 0.0000 0.0000 0.0000 15.6951
#
#
#
# Elastic Compliance Matrix: (Units=1/GPa)
#
#
# Indices 1 2 3 4 5 6 
#
# 1 0.014546 0.000256 -0.002045 0.000000 0.000000 0.000000
# 2 0.000256 0.013170 -0.004956 0.000000 0.000000 0.000000
# 3 -0.002045 -0.004956 0.008113 0.000000 0.000000 0.000000
# 4 0.000000 0.000000 0.000000 0.025651 0.000000 0.000000
# 5 0.000000 0.000000 0.000000 0.000000 0.041388 0.000000
# 6 0.000000 0.000000 0.000000 0.000000 0.000000 0.063714
#
#
# Mechanical properties :
#
#
# Convention : Reuss Voigt Hill
#
# Bulk Modulus (GPa) = 44.76321 57.97026 51.36674
# Shear Modulus (GPa) = 26.66407 32.18502 29.42454
#
# Velocity S-wave (km/s) = 3.52251 3.87004 3.70036
# Velocity P-wave (km/s) = 6.11347 6.85171 6.49309
#
# Compressibility (1/GPa) = 0.02233977
#
# Stress axis : x y z
#
# Youngs Moduli (GPa) = 68.74562 75.93136 123.25777
#
# Poissons Ratio (x) = -0.01946 0.25211
# Poissons Ratio (y) = -0.01762 0.61083
# Poissons Ratio (z) = 0.14061 0.37629
#
# Static dielectric constant tensor:
#      x y z
#    x 3.843160 0.000000 0.000000 
#    y 0.000000 4.041140 0.000000 
#    z 0.000000 0.000000 4.228250 
# 
# 
# High freq. dielectric constant tensor:
#      x y z
#    x 1.835900 0.000000 0.000000 
#    y 0.000000 1.850080 0.000000 
#    z 0.000000 0.000000 1.852570 
# 
# From -- ./inp_files/46132.got.cif
#   From: 2010.03.12/outbox.cif.g09.slc.cpg/sg64_24_cif.got.tgz:46132.got - 2010.04.10 20:19:32.
