data_PCOD8264275
_publ_section_title
;
Structure prediction by ZEFSAII (Michael W. Deem and Ramdas Pophale) SiO2 
 PCOD8264275
Probable space group: C M C A
;
_chemical_formula_sum "Si O2"
_cell_formula_units_Z 80
_cell_length_a 22.745071
_cell_length_b 11.614743
_cell_length_c 13.681528
_cell_angle_alpha 90.000000
_cell_angle_beta 90.000000
_cell_angle_gamma 90.000000
_cell_volume 3614.360813
_symmetry_space_group_name_H-M "C M C A"
_symmetry_group_IT_number 64
_symmetry_cell_setting 'orthorhombic'
loop_
_space_group_symop_operation_xyz
x,y,z
-x,1/2-y,1/2+z
x,-y,-z
-x,1/2+y,1/2-z
-x,-y,-z
x,1/2+y,1/2-z
-x,y,z
x,1/2-y,1/2+z
1/2+x,1/2+y,z
1/2-x,-y,1/2+z
1/2+x,1/2-y,-z
1/2-x,y,1/2-z
1/2-x,1/2-y,-z
1/2+x,y,1/2-z
1/2-x,1/2+y,z
1/2+x,-y,1/2+z
loop_
_atom_site_type_symbol
_atom_site_label
_atom_site_fract_x
_atom_site_fract_y
_atom_site_fract_z
Si Si1 0.861550 0.664944 0.579652
Si Si2 0.140366 0.278846 0.630003
Si Si3 0.430918 0.095533 0.761789
Si Si4 0.262424 0.398970 0.360210
Si Si5 0.346453 0.594819 0.319862
O O1 0.883758 0.657933 0.467513
O O2 0.906195 0.598471 0.650906
O O3 0.798122 0.603026 0.580970
O O4 0.857773 0.798019 0.610621
O O5 0.086506 0.212540 0.682249
O O6 0.191395 0.191628 0.595314
O O7 0.166609 0.369554 0.707605
O O8 0.500000 0.080831 0.758723
O O9 0.403556 0.987748 0.819884
O O10 0.250000 0.357754 0.250000
O O11 0.290058 0.526745 0.361994
#
# Coordination Sequence:
#
# PCOD8264275 Si02
#       5
#    16  16  16  16  16
#     4  11  23  41  63  93 122 161 206 252 304 366
#     4  10  23  41  63  92 124 160 203 253 306 364
#     4  10  23  42  62  88 120 161 211 255 309 365
#     4  11  20  38  59  92 122 162 196 240 298 375
#     4  10  22  40  62  83 129 161 199 249 313 356
#
# _framework density 22.133928000000001
#
# number of rings (size 3 to 8) (size 9 to 14) (size 15 to 20)
#    0.000    1.600    6.000    0.600    2.800    8.000 
#    3.600    2.000    0.000    0.000    0.000    0.000 
#    0.000    0.000    0.000    0.000    0.000    0.000 
#
# Total GULP energy -496057.822586 kJ/mol
# GULP energy per Si atom -12401.445565 kJ/mol
# Density = 2.208355 g / cm^3
# Si number density = 22.133928 Si / 1000 Ang^3
#
#
#
# Elastic Constant Matrix: (Units=GPa)
#
#
# Indices 1 2 3 4 5 6 
#
# 1 136.1337 38.5039 9.3907 0.0000 0.0000 0.0000
# 2 38.5039 80.7335 0.4548 0.0000 0.0000 0.0000
# 3 9.3907 0.4548 85.7389 0.0000 0.0000 0.0000
# 4 0.0000 0.0000 0.0000 19.8151 0.0000 0.0000
# 5 0.0000 0.0000 0.0000 0.0000 17.3197 0.0000
# 6 0.0000 0.0000 0.0000 0.0000 0.0000 16.9922
#
#
#
# Elastic Compliance Matrix: (Units=1/GPa)
#
#
# Indices 1 2 3 4 5 6 
#
# 1 0.008562 -0.004079 -0.000916 0.000000 0.000000 0.000000
# 2 -0.004079 0.014329 0.000371 0.000000 0.000000 0.000000
# 3 -0.000916 0.000371 0.011762 0.000000 0.000000 0.000000
# 4 0.000000 0.000000 0.000000 0.050467 0.000000 0.000000
# 5 0.000000 0.000000 0.000000 0.000000 0.057738 0.000000
# 6 0.000000 0.000000 0.000000 0.000000 0.000000 0.058851
#
#
# Mechanical properties :
#
#
# Convention : Reuss Voigt Hill
#
# Bulk Modulus (GPa) = 39.36129 44.36721 41.86425
# Shear Modulus (GPa) = 22.78680 27.77583 25.28131
#
# Velocity S-wave (km/s) = 3.21206 3.54630 3.38331
# Velocity P-wave (km/s) = 5.61945 6.07097 5.84957
#
# Compressibility (1/GPa) = 0.02540567
#
# Stress axis : x y z
#
# Youngs Moduli (GPa) = 116.78862 69.78612 85.02175
#
# Poissons Ratio (x) = 0.28462 0.07790
# Poissons Ratio (y) = 0.47632 -0.03152
# Poissons Ratio (z) = 0.10700 -0.02587
#
# Static dielectric constant tensor:
#      x y z
#    x 3.712050 0.000000 0.000000 
#    y 0.000000 4.118960 0.000000 
#    z 0.000000 0.000000 3.904090 
# 
# 
# High freq. dielectric constant tensor:
#      x y z
#    x 1.838330 0.000000 0.000000 
#    y 0.000000 1.882900 0.000000 
#    z 0.000000 0.000000 1.867370 
# 
# From -- ./inp_files/27049.got.cif
#   From: 2010.03.12/outbox.cif.g09.slc.cpg/sg64_14_cif.got.tgz:27049.got - 2010.04.10 20:19:32.
