data_PCOD8264495
_publ_section_title
;
Structure prediction by ZEFSAII (Michael W. Deem and Ramdas Pophale) SiO2 
 PCOD8264495
Probable space group: C M C A
;
_chemical_formula_sum "Si O2"
_cell_formula_units_Z 72
_cell_length_a 26.590994
_cell_length_b 16.416208
_cell_length_c 8.101052
_cell_angle_alpha 90.000000
_cell_angle_beta 90.000000
_cell_angle_gamma 90.000000
_cell_volume 3536.297859
_symmetry_space_group_name_H-M "C M C A"
_symmetry_group_IT_number 64
_symmetry_cell_setting 'orthorhombic'
loop_
_space_group_symop_operation_xyz
x,y,z
-x,1/2-y,1/2+z
x,-y,-z
-x,1/2+y,1/2-z
-x,-y,-z
x,1/2+y,1/2-z
-x,y,z
x,1/2-y,1/2+z
1/2+x,1/2+y,z
1/2-x,-y,1/2+z
1/2+x,1/2-y,-z
1/2-x,y,1/2-z
1/2-x,1/2-y,-z
1/2+x,y,1/2-z
1/2-x,1/2+y,z
1/2+x,-y,1/2+z
loop_
_atom_site_type_symbol
_atom_site_label
_atom_site_fract_x
_atom_site_fract_y
_atom_site_fract_z
Si Si1 0.830084 0.342354 0.451224
Si Si2 0.143233 0.826689 0.414482
Si Si3 0.732575 0.410064 0.567100
Si Si4 0.057585 0.444546 0.160254
Si Si5 0.107340 0.500000 0.500000
O O1 0.828187 0.335917 0.256141
O O2 0.859963 0.266785 0.530964
O O3 0.770859 0.345365 0.487157
O O4 0.857465 0.421841 0.523551
O O5 0.175566 0.877238 0.549342
O O6 0.087601 0.862272 0.384583
O O7 0.736728 0.500000 0.500000
O O8 0.750000 0.417456 0.750000
O O9 0.075122 0.488237 0.331100
O O10 0.000000 0.419227 0.185270
O O11 0.064902 0.500000 0.000000
#
# Coordination Sequence:
#
# PCOD8264495 Si02
#       5
#    16  16  16  16   8
#     4  11  23  41  62  96 128 173 213 266 333 395
#     4  11  24  40  64  92 132 165 217 272 325 392
#     4  12  24  38  62  94 131 173 215 265 327 403
#     4  10  23  43  69  96 127 172 221 271 333 390
#     4  10  23  42  70  92 134 170 223 268 330 400
#
# _framework density 20.360275999999999
#
# number of rings (size 3 to 8) (size 9 to 14) (size 15 to 20)
#    0.000    1.111    1.111    5.000    9.333    0.000 
#    0.000    5.556    0.000    0.000    0.000    0.000 
#    0.000    0.000    0.000    0.000    0.000    0.000 
#
# Total GULP energy -446276.506381 kJ/mol
# GULP energy per Si atom -12396.569622 kJ/mol
# Density = 2.031394 g / cm^3
# Si number density = 20.360276 Si / 1000 Ang^3
#
#
#
# Elastic Constant Matrix: (Units=GPa)
#
#
# Indices 1 2 3 4 5 6 
#
# 1 117.2653 50.2622 47.4488 0.0000 0.0000 0.0000
# 2 50.2622 137.4372 55.3121 0.0000 0.0000 0.0000
# 3 47.4488 55.3121 89.4754 0.0000 0.0000 0.0000
# 4 0.0000 0.0000 0.0000 35.3575 0.0000 0.0000
# 5 0.0000 0.0000 0.0000 0.0000 34.1630 0.0000
# 6 0.0000 0.0000 0.0000 0.0000 0.0000 13.6185
#
#
#
# Elastic Compliance Matrix: (Units=1/GPa)
#
#
# Indices 1 2 3 4 5 6 
#
# 1 0.011382 -0.002307 -0.004609 0.000000 0.000000 0.000000
# 2 -0.002307 0.010154 -0.005053 0.000000 0.000000 0.000000
# 3 -0.004609 -0.005053 0.016744 0.000000 0.000000 0.000000
# 4 0.000000 0.000000 0.000000 0.028283 0.000000 0.000000
# 5 0.000000 0.000000 0.000000 0.000000 0.029271 0.000000
# 6 0.000000 0.000000 0.000000 0.000000 0.000000 0.073429
#
#
# Mechanical properties :
#
#
# Convention : Reuss Voigt Hill
#
# Bulk Modulus (GPa) = 69.73551 72.24713 70.99132
# Shear Modulus (GPa) = 25.25474 29.37146 27.31310
#
# Velocity S-wave (km/s) = 3.52574 3.80226 3.66661
# Velocity P-wave (km/s) = 7.13440 7.40524 7.27108
#
# Compressibility (1/GPa) = 0.01433990
#
# Stress axis : x y z
#
# Youngs Moduli (GPa) = 87.86010 98.48791 59.72158
#
# Poissons Ratio (x) = 0.22725 0.27528
# Poissons Ratio (y) = 0.20272 0.30178
# Poissons Ratio (z) = 0.40498 0.49767
#
# Static dielectric constant tensor:
#      x y z
#    x 3.814200 0.000000 0.000000 
#    y 0.000000 25.596860 0.000000 
#    z 0.000000 0.000000 3.964290 
# 
# 
# High freq. dielectric constant tensor:
#      x y z
#    x 1.789490 0.000000 0.000000 
#    y 0.000000 1.796960 0.000000 
#    z 0.000000 0.000000 1.819100 
# 
# From -- ./inp_files/10001.got.cif
#   From: 2010.03.12/outbox.cif.g09.slc.cpg/sg64_6_cif.got.tgz:10001.got - 2010.04.10 20:19:32.
