data_PCOD8264716
_publ_section_title
;
Structure prediction by ZEFSAII (Michael W. Deem and Ramdas Pophale) SiO2 
 PCOD8264716
Probable space group: C M C A
;
_chemical_formula_sum "Si O2"
_cell_formula_units_Z 72
_cell_length_a 14.724787
_cell_length_b 13.470071
_cell_length_c 18.255486
_cell_angle_alpha 90.000000
_cell_angle_beta 90.000000
_cell_angle_gamma 90.000000
_cell_volume 3620.864771
_symmetry_space_group_name_H-M "C M C A"
_symmetry_group_IT_number 64
_symmetry_cell_setting 'orthorhombic'
loop_
_space_group_symop_operation_xyz
x,y,z
-x,1/2-y,1/2+z
x,-y,-z
-x,1/2+y,1/2-z
-x,-y,-z
x,1/2+y,1/2-z
-x,y,z
x,1/2-y,1/2+z
1/2+x,1/2+y,z
1/2-x,-y,1/2+z
1/2+x,1/2-y,-z
1/2-x,y,1/2-z
1/2-x,1/2-y,-z
1/2+x,y,1/2-z
1/2-x,1/2+y,z
1/2+x,-y,1/2+z
loop_
_atom_site_type_symbol
_atom_site_label
_atom_site_fract_x
_atom_site_fract_y
_atom_site_fract_z
Si Si1 0.169440 0.466549 0.582280
Si Si2 0.500000 0.429745 0.704708
Si Si3 0.674999 0.137235 0.695255
Si Si4 0.000000 0.845526 0.289623
Si Si5 0.000000 0.858366 0.865982
Si Si6 0.302748 0.354600 0.675753
O O1 0.183571 0.500000 0.500000
O O2 0.147285 0.561925 0.631970
O O3 0.088206 0.387134 0.587154
O O4 0.262224 0.415546 0.608168
O O5 0.500000 0.543725 0.676844
O O6 0.500000 0.424375 0.792483
O O7 0.409874 0.376202 0.676460
O O8 0.750000 0.088887 0.750000
O O9 0.588037 0.170903 0.740816
O O10 0.715055 0.238216 0.660537
O O11 0.000000 0.760168 0.351804
O O12 0.250000 0.386577 0.750000
#
# Coordination Sequence:
#
# PCOD8264716 Si02
#       6
#    16   8  16   8   8  16
#     4  12  25  40  59  89 132 165 195 250 319 376
#     4  12  20  37  66  94 121 146 206 267 298 350
#     4  11  21  36  63  89 115 158 210 255 299 352
#     4  12  20  34  64  95 116 148 194 264 310 338
#     4  12  21  39  62  93 118 152 205 254 304 357
#     4  11  21  39  62  91 119 156 211 260 297 360
#
# _framework density 19.884753
#
# number of rings (size 3 to 8) (size 9 to 14) (size 15 to 20)
#    0.000    0.444    6.667    3.667    0.000    0.889 
#    0.000    0.556    0.000    0.000    0.000    0.000 
#    0.000    0.000    0.000    0.000    0.000    0.000 
#
# Total GULP energy -446499.811592 kJ/mol
# GULP energy per Si atom -12402.772544 kJ/mol
# Density = 1.983949 g / cm^3
# Si number density = 19.884753 Si / 1000 Ang^3
#
#
#
# Elastic Constant Matrix: (Units=GPa)
#
#
# Indices 1 2 3 4 5 6 
#
# 1 131.4648 10.8174 23.5070 0.0000 0.0000 0.0000
# 2 10.8174 117.5983 21.1447 0.0000 0.0000 0.0000
# 3 23.5070 21.1447 59.4204 0.0000 0.0000 0.0000
# 4 0.0000 0.0000 0.0000 17.4504 0.0000 0.0000
# 5 0.0000 0.0000 0.0000 0.0000 22.7740 0.0000
# 6 0.0000 0.0000 0.0000 0.0000 0.0000 30.0082
#
#
#
# Elastic Compliance Matrix: (Units=1/GPa)
#
#
# Indices 1 2 3 4 5 6 
#
# 1 0.008189 -0.000182 -0.003175 0.000000 0.000000 0.000000
# 2 -0.000182 0.009089 -0.003162 0.000000 0.000000 0.000000
# 3 -0.003175 -0.003162 0.019210 0.000000 0.000000 0.000000
# 4 0.000000 0.000000 0.000000 0.057305 0.000000 0.000000
# 5 0.000000 0.000000 0.000000 0.000000 0.043910 0.000000
# 6 0.000000 0.000000 0.000000 0.000000 0.000000 0.033324
#
#
# Mechanical properties :
#
#
# Convention : Reuss Voigt Hill
#
# Bulk Modulus (GPa) = 42.64408 46.60241 44.62325
# Shear Modulus (GPa) = 26.05753 30.91415 28.48584
#
# Velocity S-wave (km/s) = 3.62391 3.94720 3.78901
# Velocity P-wave (km/s) = 6.24520 6.65290 6.45227
#
# Compressibility (1/GPa) = 0.02344991
#
# Stress axis : x y z
#
# Youngs Moduli (GPa) = 122.11073 110.02474 52.05504
#
# Poissons Ratio (x) = 0.02007 0.16526
# Poissons Ratio (y) = 0.02228 0.16460
# Poissons Ratio (z) = 0.38768 0.34791
#
# Static dielectric constant tensor:
#      x y z
#    x 3.892570 0.000000 0.000000 
#    y 0.000000 3.838450 0.000000 
#    z 0.000000 0.000000 3.183210 
# 
# 
# High freq. dielectric constant tensor:
#      x y z
#    x 1.795160 0.000000 0.000000 
#    y 0.000000 1.799290 0.000000 
#    z 0.000000 0.000000 1.720570 
# 
# From -- ./inp_files/31945.got.cif
#   From: 2010.03.12/outbox.cif.g09.slc.cpg/sg64_16_cif.got.tgz:31945.got - 2010.04.10 20:19:32.
