data_PCOD8264564
_publ_section_title
;
Structure prediction by ZEFSAII (Michael W. Deem and Ramdas Pophale) SiO2 
 PCOD8264564
Probable space group: C M C A
;
_chemical_formula_sum "Si O2"
_cell_formula_units_Z 56
_cell_length_a 24.994660
_cell_length_b 17.651990
_cell_length_c 5.314204
_cell_angle_alpha 90.000000
_cell_angle_beta 90.000000
_cell_angle_gamma 90.000000
_cell_volume 2344.655971
_symmetry_space_group_name_H-M "C M C A"
_symmetry_group_IT_number 64
_symmetry_cell_setting 'orthorhombic'
loop_
_space_group_symop_operation_xyz
x,y,z
-x,1/2-y,1/2+z
x,-y,-z
-x,1/2+y,1/2-z
-x,-y,-z
x,1/2+y,1/2-z
-x,y,z
x,1/2-y,1/2+z
1/2+x,1/2+y,z
1/2-x,-y,1/2+z
1/2+x,1/2-y,-z
1/2-x,y,1/2-z
1/2-x,1/2-y,-z
1/2+x,y,1/2-z
1/2-x,1/2+y,z
1/2+x,-y,1/2+z
loop_
_atom_site_type_symbol
_atom_site_label
_atom_site_fract_x
_atom_site_fract_y
_atom_site_fract_z
Si Si1 0.644261 0.077896 0.145742
Si Si2 0.216034 0.500000 0.500000
Si Si3 0.937304 0.704485 0.230672
Si Si4 0.310016 0.218714 0.971731
O O1 0.589837 0.121501 0.209787
O O2 0.676853 0.067194 0.406983
O O3 0.684232 0.127834 0.965379
O O4 0.631724 0.000000 0.000000
O O5 0.250000 0.523893 0.750000
O O6 0.920197 0.748012 0.484117
O O7 0.000000 0.687973 0.233143
O O8 0.339631 0.255400 0.730796
O O9 0.250000 0.250000 0.000000
#
# Coordination Sequence:
#
# PCOD8264564 Si02
#       4
#    16   8  16  16
#     4  12  28  45  75 107 150 195 252 311 381 438
#     4  12  30  46  65 100 155 196 240 304 374 438
#     4  10  24  49  80 111 148 194 247 310 380 457
#     4  10  24  41  64  91 130 183 243 290 344 427
#
# _framework density 23.884101000000001
#
# number of rings (size 3 to 8) (size 9 to 14) (size 15 to 20)
#    0.000    1.143    1.429    1.714   12.000    2.857 
#    0.000    0.714    0.000    0.000    0.000    0.000 
#    0.000    0.000    0.000    0.000    0.000    0.000 
#
# Total GULP energy -347014.672375 kJ/mol
# GULP energy per Si atom -12393.381156 kJ/mol
# Density = 2.382974 g / cm^3
# Si number density = 23.884101 Si / 1000 Ang^3
#
#
#
# Elastic Constant Matrix: (Units=GPa)
#
#
# Indices 1 2 3 4 5 6 
#
# 1 119.7524 62.7285 75.0676 0.0000 0.0000 0.0000
# 2 62.7285 180.9807 83.1391 0.0000 0.0000 0.0000
# 3 75.0676 83.1391 219.1090 0.0000 0.0000 0.0000
# 4 0.0000 0.0000 0.0000 36.9757 0.0000 0.0000
# 5 0.0000 0.0000 0.0000 0.0000 41.2681 0.0000
# 6 0.0000 0.0000 0.0000 0.0000 0.0000 50.0811
#
#
#
# Elastic Compliance Matrix: (Units=1/GPa)
#
#
# Indices 1 2 3 4 5 6 
#
# 1 0.011603 -0.002659 -0.002966 0.000000 0.000000 0.000000
# 2 -0.002659 0.007301 -0.001859 0.000000 0.000000 0.000000
# 3 -0.002966 -0.001859 0.006286 0.000000 0.000000 0.000000
# 4 0.000000 0.000000 0.000000 0.027045 0.000000 0.000000
# 5 0.000000 0.000000 0.000000 0.000000 0.024232 0.000000
# 6 0.000000 0.000000 0.000000 0.000000 0.000000 0.019968
#
#
# Mechanical properties :
#
#
# Convention : Reuss Voigt Hill
#
# Bulk Modulus (GPa) = 97.84230 106.85694 102.34962
# Shear Modulus (GPa) = 43.55022 45.59211 44.57117
#
# Velocity S-wave (km/s) = 4.27476 4.37382 4.32458
# Velocity P-wave (km/s) = 8.08821 8.38713 8.23903
#
# Compressibility (1/GPa) = 0.01022053
#
# Stress axis : x y z
#
# Youngs Moduli (GPa) = 86.18632 136.96326 159.09037
#
# Poissons Ratio (x) = 0.36417 0.47190
# Poissons Ratio (y) = 0.22916 0.29582
# Poissons Ratio (z) = 0.25565 0.25467
#
# Static dielectric constant tensor:
#      x y z
#    x 2.770030 0.000000 0.000000 
#    y 0.000000 4.147720 0.000000 
#    z 0.000000 0.000000 1.012320 
# 
# 
# High freq. dielectric constant tensor:
#      x y z
#    x 1.968990 0.000000 0.000000 
#    y 0.000000 1.937640 0.000000 
#    z 0.000000 0.000000 1.977890 
# 
# From -- ./inp_files/3092.got.cif
#   From: 2010.03.12/outbox.cif.g09.slc.cpg/sg64_2_cif.got.tgz:3092.got - 2010.04.10 20:19:32.
