data_PCOD8264156
_publ_section_title
;
Structure prediction by ZEFSAII (Michael W. Deem and Ramdas Pophale) SiO2 
 PCOD8264156
Probable space group: C M C A
;
_chemical_formula_sum "Si O2"
_cell_formula_units_Z 88
_cell_length_a 14.649967
_cell_length_b 19.585837
_cell_length_c 15.749844
_cell_angle_alpha 90.000000
_cell_angle_beta 90.000000
_cell_angle_gamma 90.000000
_cell_volume 4519.132124
_symmetry_space_group_name_H-M "C M C A"
_symmetry_group_IT_number 64
_symmetry_cell_setting 'orthorhombic'
loop_
_space_group_symop_operation_xyz
x,y,z
-x,1/2-y,1/2+z
x,-y,-z
-x,1/2+y,1/2-z
-x,-y,-z
x,1/2+y,1/2-z
-x,y,z
x,1/2-y,1/2+z
1/2+x,1/2+y,z
1/2-x,-y,1/2+z
1/2+x,1/2-y,-z
1/2-x,y,1/2-z
1/2-x,1/2-y,-z
1/2+x,y,1/2-z
1/2-x,1/2+y,z
1/2+x,-y,1/2+z
loop_
_atom_site_type_symbol
_atom_site_label
_atom_site_fract_x
_atom_site_fract_y
_atom_site_fract_z
Si Si1 0.000000 0.309551 0.733007
Si Si2 0.309263 0.611858 0.834171
Si Si3 0.104994 0.019014 0.097431
Si Si4 0.500000 0.249239 0.455308
Si Si5 0.195717 0.778686 0.422774
Si Si6 0.676445 0.855053 0.684991
Si Si7 0.000000 0.685345 0.641128
O O1 0.090219 0.352824 0.748730
O O2 0.000000 0.294394 0.630978
O O3 0.000000 0.250362 0.800463
O O4 0.250000 0.617252 0.750000
O O5 0.327810 0.533304 0.855271
O O6 0.244681 0.650594 0.900784
O O7 0.409523 0.645164 0.831449
O O8 0.000000 0.018371 0.132067
O O9 0.153195 0.092766 0.108684
O O10 0.102899 0.000000 0.000000
O O11 0.591667 0.295053 0.452272
O O12 0.500000 0.201449 0.539910
O O13 0.250000 0.750000 0.500000
O O14 0.199906 0.721170 0.348687
O O15 0.750000 0.884260 0.750000
#
# Coordination Sequence:
#
# PCOD8264156 Si02
#       7
#     8  16  16   8  16  16   8
#     4  10  22  37  58  95 128 162 208 266 318 386
#     4  12  24  40  63  95 131 171 219 271 331 394
#     4  11  24  42  66  90 123 170 220 272 326 397
#     4  10  22  36  62  91 137 168 209 264 331 378
#     4  11  21  37  62  96 129 164 212 266 324 387
#     4  11  22  39  62  89 124 165 209 265 324 379
#     4  12  22  39  64  97 132 176 211 266 333 398
#
# _framework density 19.472764999999999
#
# number of rings (size 3 to 8) (size 9 to 14) (size 15 to 20)
#    0.000    0.909    3.636    5.455    2.545    0.000 
#    0.000    0.000    0.000    0.000    0.000    3.182 
#    0.000    0.000    0.000    0.000    0.000    0.000 
#
# Total GULP energy -545126.980233 kJ/mol
# GULP energy per Si atom -12389.249551 kJ/mol
# Density = 1.942844 g / cm^3
# Si number density = 19.472765 Si / 1000 Ang^3
#
#
#
# Elastic Constant Matrix: (Units=GPa)
#
#
# Indices 1 2 3 4 5 6 
#
# 1 162.6397 24.2838 33.3431 0.0000 0.0000 0.0000
# 2 24.2838 62.1819 3.9329 0.0000 0.0000 0.0000
# 3 33.3431 3.9329 73.9171 0.0000 0.0000 0.0000
# 4 0.0000 0.0000 0.0000 27.6490 0.0000 0.0000
# 5 0.0000 0.0000 0.0000 0.0000 38.7600 0.0000
# 6 0.0000 0.0000 0.0000 0.0000 0.0000 33.7989
#
#
#
# Elastic Compliance Matrix: (Units=1/GPa)
#
#
# Indices 1 2 3 4 5 6 
#
# 1 0.007172 -0.002605 -0.003097 0.000000 0.000000 0.000000
# 2 -0.002605 0.017082 0.000266 0.000000 0.000000 0.000000
# 3 -0.003097 0.000266 0.014911 0.000000 0.000000 0.000000
# 4 0.000000 0.000000 0.000000 0.036168 0.000000 0.000000
# 5 0.000000 0.000000 0.000000 0.000000 0.025800 0.000000
# 6 0.000000 0.000000 0.000000 0.000000 0.000000 0.029587
#
#
# Mechanical properties :
#
#
# Convention : Reuss Voigt Hill
#
# Bulk Modulus (GPa) = 35.34208 46.87314 41.10761
# Shear Modulus (GPa) = 33.10744 35.85352 34.48048
#
# Velocity S-wave (km/s) = 4.12781 4.29559 4.21254
# Velocity P-wave (km/s) = 6.39588 6.98041 6.69453
#
# Compressibility (1/GPa) = 0.02829488
#
# Stress axis : x y z
#
# Youngs Moduli (GPa) = 139.42306 58.53976 67.06267
#
# Poissons Ratio (x) = 0.15251 0.20768
# Poissons Ratio (y) = 0.36322 -0.01786
# Poissons Ratio (z) = 0.43176 -0.01559
#
# Static dielectric constant tensor:
#      x y z
#    x 4.272620 0.000000 0.000000 
#    y 0.000000 3.836630 0.000000 
#    z 0.000000 0.000000 3.396410 
# 
# 
# High freq. dielectric constant tensor:
#      x y z
#    x 1.786910 0.000000 0.000000 
#    y 0.000000 1.738900 0.000000 
#    z 0.000000 0.000000 1.753210 
# 
# From -- ./inp_files/23787.got.cif
#   From: 2010.03.12/outbox.cif.g09.slc.cpg/sg64_12_cif.got.tgz:23787.got - 2010.04.10 20:19:32.
