data_PCOD8264086
_publ_section_title
;
Structure prediction by ZEFSAII (Michael W. Deem and Ramdas Pophale) SiO2 
 PCOD8264086
Probable space group: C M C A
;
_chemical_formula_sum "Si O2"
_cell_formula_units_Z 88
_cell_length_a 13.528698
_cell_length_b 17.127972
_cell_length_c 18.963938
_cell_angle_alpha 90.000000
_cell_angle_beta 90.000000
_cell_angle_gamma 90.000000
_cell_volume 4394.307794
_symmetry_space_group_name_H-M "C M C A"
_symmetry_group_IT_number 64
_symmetry_cell_setting 'orthorhombic'
loop_
_space_group_symop_operation_xyz
x,y,z
-x,1/2-y,1/2+z
x,-y,-z
-x,1/2+y,1/2-z
-x,-y,-z
x,1/2+y,1/2-z
-x,y,z
x,1/2-y,1/2+z
1/2+x,1/2+y,z
1/2-x,-y,1/2+z
1/2+x,1/2-y,-z
1/2-x,y,1/2-z
1/2-x,1/2-y,-z
1/2+x,y,1/2-z
1/2-x,1/2+y,z
1/2+x,-y,1/2+z
loop_
_atom_site_type_symbol
_atom_site_label
_atom_site_fract_x
_atom_site_fract_y
_atom_site_fract_z
Si Si1 0.855288 0.096452 0.730079
Si Si2 0.809611 0.769932 0.813732
Si Si3 0.000000 0.039040 0.615225
Si Si4 0.500000 0.879655 0.967897
Si Si5 0.166800 0.256123 0.942364
Si Si6 0.000000 0.636113 0.530068
Si Si7 0.000000 0.959051 0.159444
Si Si8 0.000000 0.365284 0.636046
O O1 0.750000 0.061075 0.750000
O O2 0.854137 0.187883 0.711902
O O3 0.903484 0.051137 0.663904
O O4 0.908670 0.082848 0.803787
O O5 0.750000 0.811893 0.750000
O O6 0.723262 0.756997 0.869328
O O7 0.900737 0.820576 0.841796
O O8 0.000000 0.099805 0.550711
O O9 0.000000 0.952777 0.584079
O O10 0.600012 0.832787 0.952556
O O11 0.098052 0.181069 0.947004
O O12 0.250000 0.250000 0.000000
O O13 0.000000 0.556149 0.575135
O O14 0.000000 0.620999 0.447277
O O15 0.000000 0.051456 0.174243
#
# Coordination Sequence:
#
# PCOD8264086 Si02
#       8
#    16  16   8   8  16   8   8   8
#     4  10  22  42  68  87 123 171 214 261 320 383
#     4  11  24  42  67  98 123 167 223 266 314 381
#     4  10  21  41  64  92 134 169 213 260 326 389
#     4  10  24  38  62  99 131 172 212 270 321 375
#     4  11  22  40  66  93 123 166 218 262 310 372
#     4  11  22  42  65  89 131 166 212 261 320 385
#     4  11  25  40  59  95 125 169 208 252 329 390
#     4  12  25  41  64  93 132 168 203 273 322 375
#
# _framework density 20.025907
#
# number of rings (size 3 to 8) (size 9 to 14) (size 15 to 20)
#    0.000    1.273    1.818    4.636    2.545    6.545 
#    0.000    1.818    0.000    0.000    0.000    0.000 
#    0.000    0.000    0.000    0.000    0.000    0.000 
#
# Total GULP energy -545421.049419 kJ/mol
# GULP energy per Si atom -12395.932941 kJ/mol
# Density = 1.998033 g / cm^3
# Si number density = 20.025907 Si / 1000 Ang^3
#
#
#
# Elastic Constant Matrix: (Units=GPa)
#
#
# Indices 1 2 3 4 5 6 
#
# 1 162.3107 52.5150 63.6983 0.0000 0.0000 0.0000
# 2 52.5150 101.1297 43.6553 0.0000 0.0000 0.0000
# 3 63.6983 43.6553 150.9225 0.0000 0.0000 0.0000
# 4 0.0000 0.0000 0.0000 30.2561 0.0000 0.0000
# 5 0.0000 0.0000 0.0000 0.0000 -202.4970 0.0000
# 6 0.0000 0.0000 0.0000 0.0000 0.0000 18.9103
#
#
#
# Elastic Compliance Matrix: (Units=1/GPa)
#
#
# Indices 1 2 3 4 5 6 
#
# 1 0.008177 -0.003150 -0.002540 0.000000 0.000000 0.000000
# 2 -0.003150 0.012512 -0.002290 0.000000 0.000000 0.000000
# 3 -0.002540 -0.002290 0.008360 0.000000 0.000000 0.000000
# 4 0.000000 0.000000 0.000000 0.033051 0.000000 0.000000
# 5 0.000000 0.000000 0.000000 0.000000 -0.004938 0.000000
# 6 0.000000 0.000000 0.000000 0.000000 0.000000 0.052881
#
#
# Mechanical properties :
#
#
# Convention : Reuss Voigt Hill
#
# Bulk Modulus (GPa) = 76.39248 81.56668 78.97958
# Shear Modulus (GPa) = 38.35337 -13.69983 12.32677
#
# Velocity S-wave (km/s) = 4.38103 -2.61838 2.48370
# Velocity P-wave (km/s) = 7.98880 5.62830 6.91009
#
# Compressibility (1/GPa) = 0.01309029
#
# Stress axis : x y z
#
# Youngs Moduli (GPa) = 122.29531 79.92091 119.61198
#
# Poissons Ratio (x) = 0.25172 0.30383
# Poissons Ratio (y) = 0.38519 0.27390
# Poissons Ratio (z) = 0.31064 0.18301
#
# Static dielectric constant tensor:
#      x y z
#    x 3.838350 0.000000 0.000000 
#    y 0.000000 3.514800 0.000000 
#    z 0.000000 0.000000 3.807790 
# 
# 
# High freq. dielectric constant tensor:
#      x y z
#    x 1.800880 0.000000 0.000000 
#    y 0.000000 1.770830 0.000000 
#    z 0.000000 0.000000 1.803970 
# 
# From -- ./inp_files/38150.got.cif
#   From: 2010.03.12/outbox.cif.g09.slc.cpg/sg64_20_cif.got.tgz:38150.got - 2010.04.10 20:19:32.
