data_PCOD8264629
_publ_section_title
;
Structure prediction by ZEFSAII (Michael W. Deem and Ramdas Pophale) SiO2 
 PCOD8264629
Probable space group: C M C A
;
_chemical_formula_sum "Si O2"
_cell_formula_units_Z 40
_cell_length_a 19.990484
_cell_length_b 8.373201
_cell_length_c 9.228503
_cell_angle_alpha 90.000000
_cell_angle_beta 90.000000
_cell_angle_gamma 90.000000
_cell_volume 1544.706890
_symmetry_space_group_name_H-M "C M C A"
_symmetry_group_IT_number 64
_symmetry_cell_setting 'orthorhombic'
loop_
_space_group_symop_operation_xyz
x,y,z
-x,1/2-y,1/2+z
x,-y,-z
-x,1/2+y,1/2-z
-x,-y,-z
x,1/2+y,1/2-z
-x,y,z
x,1/2-y,1/2+z
1/2+x,1/2+y,z
1/2-x,-y,1/2+z
1/2+x,1/2-y,-z
1/2-x,y,1/2-z
1/2-x,1/2-y,-z
1/2+x,y,1/2-z
1/2-x,1/2+y,z
1/2+x,-y,1/2+z
loop_
_atom_site_type_symbol
_atom_site_label
_atom_site_fract_x
_atom_site_fract_y
_atom_site_fract_z
Si Si1 0.659467 0.211139 0.361257
Si Si2 0.266935 0.000000 0.000000
Si Si3 0.073853 0.169195 0.418990
O O1 0.687074 0.389083 0.397406
O O2 0.720018 0.092337 0.387623
O O3 0.594923 0.192223 0.466769
O O4 0.632825 0.181625 0.199791
O O5 0.000000 0.208764 0.355604
O O6 0.071743 0.000000 0.500000
#
# Coordination Sequence:
#
# PCOD8264629 Si02
#       3
#    16   8  16
#     4  11  25  48  74 111 151 203 252 332 378 475
#     4  10  26  46  78 108 158 198 262 308 410 460
#     4  11  26  49  76 110 154 204 262 320 388 464
#
# _framework density 25.894881000000002
#
# number of rings (size 3 to 8) (size 9 to 14) (size 15 to 20)
#    0.000    1.200    2.000    1.200    5.600    9.600 
#    0.000    2.000    0.000    0.000    0.000    0.000 
#    0.000    0.000    0.000    0.000    0.000    0.000 
#
# Total GULP energy -247770.009646 kJ/mol
# GULP energy per Si atom -12388.500482 kJ/mol
# Density = 2.583594 g / cm^3
# Si number density = 25.894881 Si / 1000 Ang^3
#
#
#
# Elastic Constant Matrix: (Units=GPa)
#
#
# Indices 1 2 3 4 5 6 
#
# 1 192.6184 51.3118 49.0657 0.0000 0.0000 0.0000
# 2 51.3118 98.3109 41.3091 0.0000 0.0000 0.0000
# 3 49.0657 41.3091 136.0826 0.0000 0.0000 0.0000
# 4 0.0000 0.0000 0.0000 29.2354 0.0000 0.0000
# 5 0.0000 0.0000 0.0000 0.0000 55.0206 0.0000
# 6 0.0000 0.0000 0.0000 0.0000 0.0000 24.0813
#
#
#
# Elastic Compliance Matrix: (Units=1/GPa)
#
#
# Indices 1 2 3 4 5 6 
#
# 1 0.006271 -0.002663 -0.001453 0.000000 0.000000 0.000000
# 2 -0.002663 0.012789 -0.002922 0.000000 0.000000 0.000000
# 3 -0.001453 -0.002922 0.008759 0.000000 0.000000 0.000000
# 4 0.000000 0.000000 0.000000 0.034205 0.000000 0.000000
# 5 0.000000 0.000000 0.000000 0.000000 0.018175 0.000000
# 6 0.000000 0.000000 0.000000 0.000000 0.000000 0.041526
#
#
# Mechanical properties :
#
#
# Convention : Reuss Voigt Hill
#
# Bulk Modulus (GPa) = 72.75705 78.93168 75.84436
# Shear Modulus (GPa) = 35.61690 40.68916 38.15303
#
# Velocity S-wave (km/s) = 3.71272 3.96829 3.84263
# Velocity P-wave (km/s) = 6.82181 7.17943 7.00290
#
# Compressibility (1/GPa) = 0.01374437
#
# Stress axis : x y z
#
# Youngs Moduli (GPa) = 159.46499 78.18955 114.16307
#
# Poissons Ratio (x) = 0.20819 0.16586
# Poissons Ratio (y) = 0.42459 0.33362
# Poissons Ratio (z) = 0.23167 0.22850
#
# Static dielectric constant tensor:
#      x y z
#    x 5.702040 0.000000 0.000000 
#    y 0.000000 4.868210 0.000000 
#    z 0.000000 0.000000 4.580250 
# 
# 
# High freq. dielectric constant tensor:
#      x y z
#    x 2.074300 0.000000 0.000000 
#    y 0.000000 2.020090 0.000000 
#    z 0.000000 0.000000 2.036970 
# 
# From -- ./inp_files/8753.got.cif
#   From: 2010.03.12/outbox.cif.g09.slc.cpg/sg64_5_cif.got.tgz:8753.got - 2010.04.10 20:19:32.
