data_PCOD8264194
_publ_section_title
;
Structure prediction by ZEFSAII (Michael W. Deem and Ramdas Pophale) SiO2 
 PCOD8264194
Probable space group: C M C A
;
_chemical_formula_sum "Si O2"
_cell_formula_units_Z 112
_cell_length_a 24.630484
_cell_length_b 14.554704
_cell_length_c 14.113539
_cell_angle_alpha 90.000000
_cell_angle_beta 90.000000
_cell_angle_gamma 90.000000
_cell_volume 5059.554184
_symmetry_space_group_name_H-M "C M C A"
_symmetry_group_IT_number 64
_symmetry_cell_setting 'orthorhombic'
loop_
_space_group_symop_operation_xyz
x,y,z
-x,1/2-y,1/2+z
x,-y,-z
-x,1/2+y,1/2-z
-x,-y,-z
x,1/2+y,1/2-z
-x,y,z
x,1/2-y,1/2+z
1/2+x,1/2+y,z
1/2-x,-y,1/2+z
1/2+x,1/2-y,-z
1/2-x,y,1/2-z
1/2-x,1/2-y,-z
1/2+x,y,1/2-z
1/2-x,1/2+y,z
1/2+x,-y,1/2+z
loop_
_atom_site_type_symbol
_atom_site_label
_atom_site_fract_x
_atom_site_fract_y
_atom_site_fract_z
Si Si1 0.881459 0.845392 0.604961
Si Si2 0.608931 0.731610 0.587100
Si Si3 0.439064 0.695139 0.771412
Si Si4 0.793401 0.625999 0.828279
Si Si5 0.150545 0.580653 0.428226
Si Si6 0.616665 0.503574 0.740205
Si Si7 0.263268 0.146891 0.029644
O O1 0.904291 0.840760 0.496958
O O2 0.898731 0.753798 0.662285
O O3 0.816026 0.852163 0.596832
O O4 0.904754 0.937773 0.654735
O O5 0.560783 0.734633 0.663586
O O6 0.662826 0.705428 0.648142
O O7 0.620469 0.827759 0.534181
O O8 0.500000 0.703211 0.811915
O O9 0.423140 0.587677 0.764134
O O10 0.750000 0.662050 0.750000
O O11 0.823365 0.538926 0.783857
O O12 0.768262 0.592953 0.928806
O O13 0.137195 0.500000 0.500000
O O14 0.122172 0.561931 0.329246
O O15 0.214558 0.598394 0.414251
O O16 0.250000 0.250000 0.000000
#
# Coordination Sequence:
#
# PCOD8264194 Si02
#       7
#    16  16  16  16  16  16  16
#     4  11  24  45  69 104 142 180 231 289 344 425
#     4  10  23  44  68  97 137 182 228 290 346 413
#     4  11  26  50  74  97 132 178 239 306 364 407
#     4  10  22  38  59  95 139 185 227 273 327 411
#     4  12  23  40  63 104 146 185 227 274 338 418
#     4  11  26  41  67 100 136 180 232 286 346 421
#     4  11  24  39  63 100 142 192 231 263 342 422
#
# _framework density 22.136337999999999
#
# number of rings (size 3 to 8) (size 9 to 14) (size 15 to 20)
#    0.000    1.143    4.286    1.714    8.000    5.714 
#    0.000    0.714    0.000    1.714    0.000    0.000 
#    0.000    0.000    0.000    0.000    0.000    0.000 
#
# Total GULP energy -694086.411082 kJ/mol
# GULP energy per Si atom -12394.400198 kJ/mol
# Density = 2.208595 g / cm^3
# Si number density = 22.136338 Si / 1000 Ang^3
#
#
#
# Elastic Constant Matrix: (Units=GPa)
#
#
# Indices 1 2 3 4 5 6 
#
# 1 74.0679 25.7626 40.6792 0.0000 0.0000 0.0000
# 2 25.7626 103.8252 37.0541 0.0000 0.0000 0.0000
# 3 40.6792 37.0541 121.3791 0.0000 0.0000 0.0000
# 4 0.0000 0.0000 0.0000 42.8723 0.0000 0.0000
# 5 0.0000 0.0000 0.0000 0.0000 20.9032 0.0000
# 6 0.0000 0.0000 0.0000 0.0000 0.0000 19.9986
#
#
#
# Elastic Compliance Matrix: (Units=1/GPa)
#
#
# Indices 1 2 3 4 5 6 
#
# 1 0.017091 -0.002465 -0.004975 0.000000 0.000000 0.000000
# 2 -0.002465 0.011165 -0.002582 0.000000 0.000000 0.000000
# 3 -0.004975 -0.002582 0.010694 0.000000 0.000000 0.000000
# 4 0.000000 0.000000 0.000000 0.023325 0.000000 0.000000
# 5 0.000000 0.000000 0.000000 0.000000 0.047840 0.000000
# 6 0.000000 0.000000 0.000000 0.000000 0.000000 0.050004
#
#
# Mechanical properties :
#
#
# Convention : Reuss Voigt Hill
#
# Bulk Modulus (GPa) = 52.89658 56.25156 54.57407
# Shear Modulus (GPa) = 26.81459 29.80657 28.31058
#
# Velocity S-wave (km/s) = 3.48420 3.67345 3.58008
# Velocity P-wave (km/s) = 6.33513 6.59234 6.46501
#
# Compressibility (1/GPa) = 0.01890481
#
# Stress axis : x y z
#
# Youngs Moduli (GPa) = 58.50987 89.56698 93.50714
#
# Poissons Ratio (x) = 0.22080 0.46523
# Poissons Ratio (y) = 0.14424 0.24145
# Poissons Ratio (z) = 0.29111 0.23128
#
# Static dielectric constant tensor:
#      x y z
#    x 3.751250 0.000000 0.000000 
#    y 0.000000 4.032950 0.000000 
#    z 0.000000 0.000000 4.375860 
# 
# 
# High freq. dielectric constant tensor:
#      x y z
#    x 1.831640 0.000000 0.000000 
#    y 0.000000 1.879490 0.000000 
#    z 0.000000 0.000000 1.881130 
# 
# From -- ./inp_files/28094.got.cif
#   From: 2010.03.12/outbox.cif.g09.slc.cpg/sg64_15_cif.got.tgz:28094.got - 2010.04.10 20:19:32.
