data_PCOD8264545
_publ_section_title
;
Structure prediction by ZEFSAII (Michael W. Deem and Ramdas Pophale) SiO2 
 PCOD8264545
Probable space group: C M C A
;
_chemical_formula_sum "Si O2"
_cell_formula_units_Z 72
_cell_length_a 9.032169
_cell_length_b 16.563200
_cell_length_c 20.787136
_cell_angle_alpha 90.000000
_cell_angle_beta 90.000000
_cell_angle_gamma 90.000000
_cell_volume 3109.789254
_symmetry_space_group_name_H-M "C M C A"
_symmetry_group_IT_number 64
_symmetry_cell_setting 'orthorhombic'
loop_
_space_group_symop_operation_xyz
x,y,z
-x,1/2-y,1/2+z
x,-y,-z
-x,1/2+y,1/2-z
-x,-y,-z
x,1/2+y,1/2-z
-x,y,z
x,1/2-y,1/2+z
1/2+x,1/2+y,z
1/2-x,-y,1/2+z
1/2+x,1/2-y,-z
1/2-x,y,1/2-z
1/2-x,1/2-y,-z
1/2+x,y,1/2-z
1/2-x,1/2+y,z
1/2+x,-y,1/2+z
loop_
_atom_site_type_symbol
_atom_site_label
_atom_site_fract_x
_atom_site_fract_y
_atom_site_fract_z
Si Si1 0.000000 0.270374 0.043356
Si Si2 0.250573 0.826685 0.128335
Si Si3 0.747929 0.500000 0.500000
Si Si4 0.000000 0.289579 0.893934
Si Si5 0.000000 0.018766 0.401161
Si Si6 0.500000 0.895140 0.207452
Si Si7 0.000000 0.943052 0.144656
Si Si8 0.500000 0.908509 0.558644
O O1 0.854065 0.318223 0.065511
O O2 0.000000 0.184187 0.079618
O O3 0.000000 0.260278 0.967504
O O4 0.147084 0.747472 0.139827
O O5 0.354179 0.841763 0.191064
O O6 0.146137 0.903358 0.114183
O O7 0.643881 0.486444 0.438297
O O8 0.854926 0.424082 0.514891
O O9 0.000000 0.385466 0.890226
O O10 0.000000 0.978022 0.332105
O O11 0.500000 0.925257 0.279890
O O12 0.000000 0.036711 0.123735
#
# Coordination Sequence:
#
# PCOD8264545 Si02
#       8
#     8  16   8   8   8   8   8   8
#     4  11  24  39  63  99 143 172 209 272 340 415
#     4  10  24  41  63  93 131 170 219 267 335 393
#     4  10  24  36  64  98 132 168 206 276 326 400
#     4  11  24  39  63  99 143 172 209 272 340 415
#     4  11  24  39  66  94 136 172 223 264 340 392
#     4  11  24  44  67  91 124 175 235 279 316 394
#     4  11  24  44  67  91 124 175 235 279 316 394
#     4  11  24  39  66  94 136 172 223 264 340 392
#
# _framework density 23.152694
#
# number of rings (size 3 to 8) (size 9 to 14) (size 15 to 20)
#    0.000    1.333    0.000    4.000   18.667    0.000 
#    0.000    6.667    0.000    0.000    0.000    0.000 
#    0.000    0.000    0.000    0.000    0.000    0.000 
#
# Total GULP energy -446379.083046 kJ/mol
# GULP energy per Si atom -12399.418974 kJ/mol
# Density = 2.310000 g / cm^3
# Si number density = 23.152694 Si / 1000 Ang^3
#
#
#
# Elastic Constant Matrix: (Units=GPa)
#
#
# Indices 1 2 3 4 5 6 
#
# 1 189.5253 62.9719 55.5560 0.0000 0.0000 0.0000
# 2 62.9719 143.2343 72.5829 0.0000 0.0000 0.0000
# 3 55.5560 72.5829 123.7702 0.0000 0.0000 0.0000
# 4 0.0000 0.0000 0.0000 26.6072 0.0000 0.0000
# 5 0.0000 0.0000 0.0000 0.0000 60.4346 0.0000
# 6 0.0000 0.0000 0.0000 0.0000 0.0000 54.4889
#
#
#
# Elastic Compliance Matrix: (Units=1/GPa)
#
#
# Indices 1 2 3 4 5 6 
#
# 1 0.006434 -0.001943 -0.001749 0.000000 0.000000 0.000000
# 2 -0.001943 0.010520 -0.005297 0.000000 0.000000 0.000000
# 3 -0.001749 -0.005297 0.011971 0.000000 0.000000 0.000000
# 4 0.000000 0.000000 0.000000 0.037584 0.000000 0.000000
# 5 0.000000 0.000000 0.000000 0.000000 0.016547 0.000000
# 6 0.000000 0.000000 0.000000 0.000000 0.000000 0.018352
#
#
# Mechanical properties :
#
#
# Convention : Reuss Voigt Hill
#
# Bulk Modulus (GPa) = 91.34311 93.19460 92.26886
# Shear Modulus (GPa) = 40.63865 46.00073 43.31969
#
# Velocity S-wave (km/s) = 4.19411 4.46224 4.33025
# Velocity P-wave (km/s) = 7.93676 8.17853 8.05855
#
# Compressibility (1/GPa) = 0.01094773
#
# Stress axis : x y z
#
# Youngs Moduli (GPa) = 155.41280 95.05725 83.53470
#
# Poissons Ratio (x) = 0.18466 0.14610
# Poissons Ratio (y) = 0.30190 0.44251
# Poissons Ratio (z) = 0.27182 0.50355
#
# Static dielectric constant tensor:
#      x y z
#    x 4.752500 0.000000 0.000000 
#    y 0.000000 3.988210 0.000000 
#    z 0.000000 0.000000 3.761300 
# 
# 
# High freq. dielectric constant tensor:
#      x y z
#    x 1.950390 0.000000 0.000000 
#    y 0.000000 1.910580 0.000000 
#    z 0.000000 0.000000 1.886760 
# 
# From -- ./inp_files/42689.got.cif
#   From: 2010.03.12/outbox.cif.g09.slc.cpg/sg64_22_cif.got.tgz:42689.got - 2010.04.10 20:19:32.
