data_PCOD8264095
_publ_section_title
;
Structure prediction by ZEFSAII (Michael W. Deem and Ramdas Pophale) SiO2 
 PCOD8264095
Probable space group: C M C A
;
_chemical_formula_sum "Si O2"
_cell_formula_units_Z 96
_cell_length_a 18.299858
_cell_length_b 26.739557
_cell_length_c 9.595483
_cell_angle_alpha 90.000000
_cell_angle_beta 90.000000
_cell_angle_gamma 90.000000
_cell_volume 4695.358618
_symmetry_space_group_name_H-M "C M C A"
_symmetry_group_IT_number 64
_symmetry_cell_setting 'orthorhombic'
loop_
_space_group_symop_operation_xyz
x,y,z
-x,1/2-y,1/2+z
x,-y,-z
-x,1/2+y,1/2-z
-x,-y,-z
x,1/2+y,1/2-z
-x,y,z
x,1/2-y,1/2+z
1/2+x,1/2+y,z
1/2-x,-y,1/2+z
1/2+x,1/2-y,-z
1/2-x,y,1/2-z
1/2-x,1/2-y,-z
1/2+x,y,1/2-z
1/2-x,1/2+y,z
1/2+x,-y,1/2+z
loop_
_atom_site_type_symbol
_atom_site_label
_atom_site_fract_x
_atom_site_fract_y
_atom_site_fract_z
Si Si1 0.415175 0.205308 0.824032
Si Si2 0.085944 0.697990 0.147511
Si Si3 0.333559 0.390461 0.216354
Si Si4 0.348441 0.096514 0.169959
Si Si5 0.082300 0.949755 0.432531
Si Si6 0.197127 0.056963 0.054139
O O1 0.500000 0.193734 0.808428
O O2 0.392656 0.255186 0.743268
O O3 0.376137 0.160000 0.745933
O O4 0.393743 0.209626 0.986504
O O5 0.139831 0.654728 0.207522
O O6 0.000000 0.685163 0.165012
O O7 0.250000 0.381490 0.250000
O O8 0.364153 0.435737 0.308733
O O9 0.343762 0.408901 0.058791
O O10 0.273805 0.084000 0.087991
O O11 0.352683 0.060820 0.306376
O O12 0.415179 0.089005 0.061278
O O13 0.000000 0.954654 0.375898
O O14 0.113657 0.000000 0.500000
O O15 0.206520 0.000000 0.000000
#
# Coordination Sequence:
#
# PCOD8264095 Si02
#       6
#    16  16  16  16  16  16
#     4  10  22  41  65  92 126 171 219 269 333 401
#     4  10  21  41  66  93 125 170 221 271 332 396
#     4  12  23  40  64  95 128 170 217 276 331 396
#     4  11  22  41  64  93 127 171 218 271 323 400
#     4  11  22  39  65  92 124 170 220 270 328 400
#     4  11  25  40  63  94 133 173 216 270 333 399
#
# _framework density 20.445723000000001
#
# number of rings (size 3 to 8) (size 9 to 14) (size 15 to 20)
#    0.000    1.167    3.333    2.500    4.667    0.000 
#    3.000    4.167    0.000    6.000    0.000    0.000 
#    0.000    0.000    0.000    0.000    0.000    0.000 
#
# Total GULP energy -595027.890722 kJ/mol
# GULP energy per Si atom -12396.414390 kJ/mol
# Density = 2.039919 g / cm^3
# Si number density = 20.445723 Si / 1000 Ang^3
#
#
#
# Elastic Constant Matrix: (Units=GPa)
#
#
# Indices 1 2 3 4 5 6 
#
# 1 54.0462 46.8152 34.4128 0.0000 0.0000 0.0000
# 2 46.8152 138.6719 61.3621 0.0000 0.0000 0.0000
# 3 34.4128 61.3621 140.5882 0.0000 0.0000 0.0000
# 4 0.0000 0.0000 0.0000 41.1937 0.0000 0.0000
# 5 0.0000 0.0000 0.0000 0.0000 -5.2513 0.0000
# 6 0.0000 0.0000 0.0000 0.0000 0.0000 40.3696
#
#
#
# Elastic Compliance Matrix: (Units=1/GPa)
#
#
# Indices 1 2 3 4 5 6 
#
# 1 0.027332 -0.007767 -0.003300 0.000000 0.000000 0.000000
# 2 -0.007767 0.011144 -0.002963 0.000000 0.000000 0.000000
# 3 -0.003300 -0.002963 0.009214 0.000000 0.000000 0.000000
# 4 0.000000 0.000000 0.000000 0.024276 0.000000 0.000000
# 5 0.000000 0.000000 0.000000 0.000000 -0.190430 0.000000
# 6 0.000000 0.000000 0.000000 0.000000 0.000000 0.024771
#
#
# Mechanical properties :
#
#
# Convention : Reuss Voigt Hill
#
# Bulk Modulus (GPa) = 50.94216 68.72073 59.83145
# Shear Modulus (GPa) = -84.61691 27.97682 -28.32005
#
# Velocity S-wave (km/s) = -6.44018 3.70313 -3.72578
# Velocity P-wave (km/s) = 5.50739 7.20892 3.28916
#
# Compressibility (1/GPa) = 0.01963010
#
# Stress axis : x y z
#
# Youngs Moduli (GPa) = 36.58759 89.73086 108.52959
#
# Poissons Ratio (x) = 0.69692 0.35817
# Poissons Ratio (y) = 0.28417 0.32158
# Poissons Ratio (z) = 0.12075 0.26588
#
# Static dielectric constant tensor:
#      x y z
#    x 3.533130 0.000000 0.000000 
#    y 0.000000 4.011510 0.000000 
#    z 0.000000 0.000000 4.042030 
# 
# 
# High freq. dielectric constant tensor:
#      x y z
#    x 1.785090 0.000000 0.000000 
#    y 0.000000 1.809360 0.000000 
#    z 0.000000 0.000000 1.811300 
# 
# From -- ./inp_files/8378.got.cif
#   From: 2010.03.12/outbox.cif.g09.slc.cpg/sg64_5_cif.got.tgz:8378.got - 2010.04.10 20:19:32.
