data_PCOD8264573
_publ_section_title
;
Structure prediction by ZEFSAII (Michael W. Deem and Ramdas Pophale) SiO2 
 PCOD8264573
Probable space group: C M C A
;
_chemical_formula_sum "Si O2"
_cell_formula_units_Z 88
_cell_length_a 26.547145
_cell_length_b 11.775075
_cell_length_c 11.824433
_cell_angle_alpha 90.000000
_cell_angle_beta 90.000000
_cell_angle_gamma 90.000000
_cell_volume 3696.254181
_symmetry_space_group_name_H-M "C M C A"
_symmetry_group_IT_number 64
_symmetry_cell_setting 'orthorhombic'
loop_
_space_group_symop_operation_xyz
x,y,z
-x,1/2-y,1/2+z
x,-y,-z
-x,1/2+y,1/2-z
-x,-y,-z
x,1/2+y,1/2-z
-x,y,z
x,1/2-y,1/2+z
1/2+x,1/2+y,z
1/2-x,-y,1/2+z
1/2+x,1/2-y,-z
1/2-x,y,1/2-z
1/2-x,1/2-y,-z
1/2+x,y,1/2-z
1/2-x,1/2+y,z
1/2+x,-y,1/2+z
loop_
_atom_site_type_symbol
_atom_site_label
_atom_site_fract_x
_atom_site_fract_y
_atom_site_fract_z
Si Si1 0.500000 0.199132 0.017772
Si Si2 0.750000 0.311525 0.750000
Si Si3 0.655078 0.259810 0.391199
Si Si4 0.587748 0.619894 0.977417
Si Si5 0.500000 0.478978 0.326777
Si Si6 0.176012 0.904798 0.592517
Si Si7 0.608066 0.046115 0.756054
O O1 0.549166 0.276363 0.038146
O O2 0.500000 0.094043 0.102293
O O3 0.500000 0.139749 0.895707
O O4 0.704130 0.240920 0.808931
O O5 0.770129 0.391354 0.848805
O O6 0.624062 0.142525 0.411515
O O7 0.664670 0.289559 0.524448
O O8 0.617506 0.355221 0.346734
O O9 0.622833 0.597048 0.866257
O O10 0.559471 0.500000 0.000000
O O11 0.451135 0.481286 0.248146
O O12 0.181862 0.000000 0.500000
O O13 0.136870 0.934350 0.694177
#
# Coordination Sequence:
#
# PCOD8264573 Si02
#       7
#     8   8  16  16   8  16  16
#     4  11  24  43  73 103 145 192 247 293 362 429
#     4  12  24  42  68 102 134 196 232 312 374 424
#     4  11  24  44  69  99 141 185 250 300 361 436
#     4  12  25  43  67 106 151 186 234 310 362 430
#     4  11  23  45  76 101 137 195 246 289 355 438
#     4  10  24  42  67  97 138 178 247 296 361 441
#     4  11  24  45  71 105 136 195 235 297 363 438
#
# _framework density 23.807887999999998
#
# number of rings (size 3 to 8) (size 9 to 14) (size 15 to 20)
#    0.000    0.909    1.818    4.636    5.091    6.545 
#    3.273    0.000    0.000    0.000    0.000    0.000 
#    0.000    0.000    0.000    0.000    0.000    0.000 
#
# Total GULP energy -545081.478095 kJ/mol
# GULP energy per Si atom -12388.215411 kJ/mol
# Density = 2.375370 g / cm^3
# Si number density = 23.807888 Si / 1000 Ang^3
#
#
#
# Elastic Constant Matrix: (Units=GPa)
#
#
# Indices 1 2 3 4 5 6 
#
# 1 111.6630 26.7062 22.9209 0.0000 0.0000 0.0000
# 2 26.7062 92.8255 7.9377 0.0000 0.0000 0.0000
# 3 22.9209 7.9377 98.0861 0.0000 0.0000 0.0000
# 4 0.0000 0.0000 0.0000 17.1122 0.0000 0.0000
# 5 0.0000 0.0000 0.0000 0.0000 47.6528 0.0000
# 6 0.0000 0.0000 0.0000 0.0000 0.0000 24.0311
#
#
#
# Elastic Compliance Matrix: (Units=1/GPa)
#
#
# Indices 1 2 3 4 5 6 
#
# 1 0.010039 -0.002706 -0.002127 0.000000 0.000000 0.000000
# 2 -0.002706 0.011578 -0.000304 0.000000 0.000000 0.000000
# 3 -0.002127 -0.000304 0.010717 0.000000 0.000000 0.000000
# 4 0.000000 0.000000 0.000000 0.058438 0.000000 0.000000
# 5 0.000000 0.000000 0.000000 0.000000 0.020985 0.000000
# 6 0.000000 0.000000 0.000000 0.000000 0.000000 0.041613
#
#
# Mechanical properties :
#
#
# Convention : Reuss Voigt Hill
#
# Bulk Modulus (GPa) = 45.33522 46.41157 45.87340
# Shear Modulus (GPa) = 29.24008 34.09319 31.66664
#
# Velocity S-wave (km/s) = 3.50832 3.78830 3.65100
# Velocity P-wave (km/s) = 5.95773 6.21864 6.08958
#
# Compressibility (1/GPa) = 0.02205791
#
# Stress axis : x y z
#
# Youngs Moduli (GPa) = 99.60721 86.37364 93.31142
#
# Poissons Ratio (x) = 0.23377 0.19847
# Poissons Ratio (y) = 0.26959 0.02841
# Poissons Ratio (z) = 0.21186 0.02630
#
# Static dielectric constant tensor:
#      x y z
#    x 4.106280 0.000000 0.000000 
#    y 0.000000 4.453730 0.000000 
#    z 0.000000 0.000000 4.722740 
# 
# 
# High freq. dielectric constant tensor:
#      x y z
#    x 1.927880 0.000000 0.000000 
#    y 0.000000 1.951580 0.000000 
#    z 0.000000 0.000000 1.964470 
# 
# From -- ./inp_files/19720.got.cif
#   From: 2010.03.12/outbox.cif.g09.slc.cpg/sg64_10_cif.got.tgz:19720.got - 2010.04.10 20:19:32.
