data_PCOD8264161
_publ_section_title
;
Structure prediction by ZEFSAII (Michael W. Deem and Ramdas Pophale) SiO2 
 PCOD8264161
Probable space group: C M C A
;
_chemical_formula_sum "Si O2"
_cell_formula_units_Z 104
_cell_length_a 9.263391
_cell_length_b 26.591737
_cell_length_c 21.753474
_cell_angle_alpha 90.000000
_cell_angle_beta 90.000000
_cell_angle_gamma 90.000000
_cell_volume 5358.525793
_symmetry_space_group_name_H-M "C M C A"
_symmetry_group_IT_number 64
_symmetry_cell_setting 'orthorhombic'
loop_
_space_group_symop_operation_xyz
x,y,z
-x,1/2-y,1/2+z
x,-y,-z
-x,1/2+y,1/2-z
-x,-y,-z
x,1/2+y,1/2-z
-x,y,z
x,1/2-y,1/2+z
1/2+x,1/2+y,z
1/2-x,-y,1/2+z
1/2+x,1/2-y,-z
1/2-x,y,1/2-z
1/2-x,1/2-y,-z
1/2+x,y,1/2-z
1/2-x,1/2+y,z
1/2+x,-y,1/2+z
loop_
_atom_site_type_symbol
_atom_site_label
_atom_site_fract_x
_atom_site_fract_y
_atom_site_fract_z
Si Si1 0.338306 0.698962 0.492685
Si Si2 0.844359 0.082093 0.805182
Si Si3 0.227369 0.335118 0.862556
Si Si4 0.173616 0.731540 0.812394
Si Si5 0.828184 0.156967 0.904025
Si Si6 0.500000 0.891225 0.781722
Si Si7 0.000000 0.985294 0.795661
Si Si8 0.500000 0.887695 0.644206
O O1 0.500000 0.705838 0.519879
O O2 0.250000 0.750000 0.500000
O O3 0.359411 0.683926 0.421603
O O4 0.249110 0.655985 0.529488
O O5 0.750000 0.103113 0.750000
O O6 0.791923 0.103358 0.871074
O O7 0.000000 0.107414 0.793287
O O8 0.858031 0.021131 0.802025
O O9 0.286319 0.289589 0.821852
O O10 0.359983 0.367135 0.890192
O O11 0.138972 0.373495 0.819587
O O12 0.250000 0.712823 0.750000
O O13 0.248129 0.701225 0.867371
O O14 0.000000 0.723910 0.810343
O O15 0.000000 0.167266 0.910617
O O16 0.500000 0.952462 0.768314
O O17 0.500000 0.865617 0.714610
O O18 0.000000 0.948413 0.854378
#
# Coordination Sequence:
#
# PCOD8264161 Si02
#       8
#    16  16  16  16  16   8   8   8
#     4  12  26  43  63  86 128 184 233 266 311 379
#     4   9  20  38  63  96 124 160 206 265 328 391
#     4  12  24  39  58  93 129 169 217 256 323 396
#     4  12  25  38  58  89 134 176 212 267 326 395
#     4  11  24  41  64  88 127 173 228 268 316 384
#     4  10  22  38  62  93 131 160 203 271 329 398
#     4   8  22  38  68  96 130 152 210 255 344 398
#     4  10  22  36  64  93 126 165 195 266 335 388
#
# _framework density 19.408322999999999
#
# number of rings (size 3 to 8) (size 9 to 14) (size 15 to 20)
#    0.923    0.308    3.077    3.231    6.462    2.462 
#    0.000    0.000    0.000    1.846    0.000    2.154 
#    0.000    0.000    0.000    0.000    0.000    0.000 
#
# Total GULP energy -644211.248611 kJ/mol
# GULP energy per Si atom -12388.677858 kJ/mol
# Density = 1.936415 g / cm^3
# Si number density = 19.408323 Si / 1000 Ang^3
#
#
#
# Elastic Constant Matrix: (Units=GPa)
#
#
# Indices 1 2 3 4 5 6 
#
# 1 122.4717 35.4047 22.1808 0.0000 0.0000 0.0000
# 2 35.4047 99.3973 27.6884 0.0000 0.0000 0.0000
# 3 22.1808 27.6884 72.5873 0.0000 0.0000 0.0000
# 4 0.0000 0.0000 0.0000 25.1691 0.0000 0.0000
# 5 0.0000 0.0000 0.0000 0.0000 29.9928 0.0000
# 6 0.0000 0.0000 0.0000 0.0000 0.0000 24.6213
#
#
#
# Elastic Compliance Matrix: (Units=1/GPa)
#
#
# Indices 1 2 3 4 5 6 
#
# 1 0.009300 -0.002821 -0.001766 0.000000 0.000000 0.000000
# 2 -0.002821 0.012112 -0.003758 0.000000 0.000000 0.000000
# 3 -0.001766 -0.003758 0.015750 0.000000 0.000000 0.000000
# 4 0.000000 0.000000 0.000000 0.039731 0.000000 0.000000
# 5 0.000000 0.000000 0.000000 0.000000 0.033341 0.000000
# 6 0.000000 0.000000 0.000000 0.000000 0.000000 0.040615
#
#
# Mechanical properties :
#
#
# Convention : Reuss Voigt Hill
#
# Bulk Modulus (GPa) = 48.84631 51.66710 50.25670
# Shear Modulus (GPa) = 28.67555 29.90213 29.28884
#
# Velocity S-wave (km/s) = 3.84798 3.92942 3.88891
# Velocity P-wave (km/s) = 6.70559 6.87503 6.79084
#
# Compressibility (1/GPa) = 0.02047238
#
# Stress axis : x y z
#
# Youngs Moduli (GPa) = 107.52176 82.56064 63.49315
#
# Poissons Ratio (x) = 0.23289 0.11213
# Poissons Ratio (y) = 0.30330 0.23862
# Poissons Ratio (z) = 0.18988 0.31028
#
# Static dielectric constant tensor:
#      x y z
#    x 3.622210 0.000000 0.000000 
#    y 0.000000 3.369520 0.000000 
#    z 0.000000 0.000000 3.539480 
# 
# 
# High freq. dielectric constant tensor:
#      x y z
#    x 1.768610 0.000000 0.000000 
#    y 0.000000 1.737940 0.000000 
#    z 0.000000 0.000000 1.741930 
# 
# From -- ./inp_files/43340.got.cif
#   From: 2010.03.12/outbox.cif.g09.slc.cpg/sg64_22_cif.got.tgz:43340.got - 2010.04.10 20:19:32.
