data_PCOD8264371
_publ_section_title
;
Structure prediction by ZEFSAII (Michael W. Deem and Ramdas Pophale) SiO2 
 PCOD8264371
Probable space group: C M C A
;
_chemical_formula_sum "Si O2"
_cell_formula_units_Z 64
_cell_length_a 17.793349
_cell_length_b 13.165300
_cell_length_c 12.965806
_cell_angle_alpha 90.000000
_cell_angle_beta 90.000000
_cell_angle_gamma 90.000000
_cell_volume 3037.302001
_symmetry_space_group_name_H-M "C M C A"
_symmetry_group_IT_number 64
_symmetry_cell_setting 'orthorhombic'
loop_
_space_group_symop_operation_xyz
x,y,z
-x,1/2-y,1/2+z
x,-y,-z
-x,1/2+y,1/2-z
-x,-y,-z
x,1/2+y,1/2-z
-x,y,z
x,1/2-y,1/2+z
1/2+x,1/2+y,z
1/2-x,-y,1/2+z
1/2+x,1/2-y,-z
1/2-x,y,1/2-z
1/2-x,1/2-y,-z
1/2+x,y,1/2-z
1/2-x,1/2+y,z
1/2+x,-y,1/2+z
loop_
_atom_site_type_symbol
_atom_site_label
_atom_site_fract_x
_atom_site_fract_y
_atom_site_fract_z
Si Si1 0.829936 0.239970 0.557509
Si Si2 0.583322 0.116119 0.302236
Si Si3 0.166419 0.424930 0.236848
Si Si4 0.918393 0.279702 0.370322
O O1 0.750000 0.250000 0.500000
O O2 0.855284 0.346837 0.612175
O O3 0.835798 0.145401 0.635301
O O4 0.890952 0.217486 0.469553
O O5 0.500000 0.091717 0.349836
O O6 0.572495 0.207363 0.225386
O O7 0.612271 0.021941 0.233245
O O8 0.250000 0.466405 0.250000
O O9 0.142811 0.364551 0.340234
O O10 0.000000 0.329308 0.393397
#
# Coordination Sequence:
#
# PCOD8264371 Si02
#       4
#    16  16  16  16
#     4  11  23  42  66  94 128 170 217 269 324 385
#     4  10  24  42  65  94 131 171 214 266 327 392
#     4  11  23  40  65  93 130 170 214 266 322 389
#     4  10  22  42  65  92 128 167 212 267 325 386
#
# _framework density 21.071332000000002
#
# number of rings (size 3 to 8) (size 9 to 14) (size 15 to 20)
#    0.000    1.500    2.500    1.500    3.500    5.000 
#    0.000    5.000    0.000    0.000    0.000    0.000 
#    0.000    0.000    0.000    0.000    0.000    0.000 
#
# Total GULP energy -396469.131840 kJ/mol
# GULP energy per Si atom -12389.660370 kJ/mol
# Density = 2.102337 g / cm^3
# Si number density = 21.071332 Si / 1000 Ang^3
#
#
#
# Elastic Constant Matrix: (Units=GPa)
#
#
# Indices 1 2 3 4 5 6 
#
# 1 170.1030 56.6119 59.5042 0.0000 0.0000 0.0000
# 2 56.6119 68.4391 6.6927 0.0000 0.0000 0.0000
# 3 59.5042 6.6927 89.2556 0.0000 0.0000 0.0000
# 4 0.0000 0.0000 0.0000 18.1557 0.0000 0.0000
# 5 0.0000 0.0000 0.0000 0.0000 27.1526 0.0000
# 6 0.0000 0.0000 0.0000 0.0000 0.0000 273.2438
#
#
#
# Elastic Compliance Matrix: (Units=1/GPa)
#
#
# Indices 1 2 3 4 5 6 
#
# 1 0.011062 -0.008491 -0.006738 0.000000 0.000000 0.000000
# 2 -0.008491 0.021237 0.004068 0.000000 0.000000 0.000000
# 3 -0.006738 0.004068 0.015391 0.000000 0.000000 0.000000
# 4 0.000000 0.000000 0.000000 0.055079 0.000000 0.000000
# 5 0.000000 0.000000 0.000000 0.000000 0.036829 0.000000
# 6 0.000000 0.000000 0.000000 0.000000 0.000000 0.003660
#
#
# Mechanical properties :
#
#
# Convention : Reuss Voigt Hill
#
# Bulk Modulus (GPa) = 39.41891 63.71283 51.56587
# Shear Modulus (GPa) = 28.72985 77.37635 53.05310
#
# Velocity S-wave (km/s) = 3.69651 6.06637 5.02320
# Velocity P-wave (km/s) = 6.08004 8.90900 7.62683
#
# Compressibility (1/GPa) = 0.02536853
#
# Stress axis : x y z
#
# Youngs Moduli (GPa) = 90.40178 47.08653 64.97455
#
# Poissons Ratio (x) = 0.39982 0.43779
# Poissons Ratio (y) = 0.76762 -0.26434
# Poissons Ratio (z) = 0.60911 -0.19157
#
# Static dielectric constant tensor:
#      x y z
#    x 3.340840 0.000000 0.000000 
#    y 0.000000 3.674290 0.000000 
#    z 0.000000 0.000000 3.864830 
# 
# 
# High freq. dielectric constant tensor:
#      x y z
#    x 1.848430 0.000000 0.000000 
#    y 0.000000 1.805740 0.000000 
#    z 0.000000 0.000000 1.824710 
# 
# From -- ./inp_files/15471.got.cif
#   From: 2010.03.12/outbox.cif.g09.slc.cpg/sg64_8_cif.got.tgz:15471.got - 2010.04.10 20:19:32.
