data_PCOD8264498
_publ_section_title
;
Structure prediction by ZEFSAII (Michael W. Deem and Ramdas Pophale) SiO2 
 PCOD8264498
Probable space group: C M C A
;
_chemical_formula_sum "Si O2"
_cell_formula_units_Z 80
_cell_length_a 10.295367
_cell_length_b 23.568496
_cell_length_c 18.013731
_cell_angle_alpha 90.000000
_cell_angle_beta 90.000000
_cell_angle_gamma 90.000000
_cell_volume 4370.965464
_symmetry_space_group_name_H-M "C M C A"
_symmetry_group_IT_number 64
_symmetry_cell_setting 'orthorhombic'
loop_
_space_group_symop_operation_xyz
x,y,z
-x,1/2-y,1/2+z
x,-y,-z
-x,1/2+y,1/2-z
-x,-y,-z
x,1/2+y,1/2-z
-x,y,z
x,1/2-y,1/2+z
1/2+x,1/2+y,z
1/2-x,-y,1/2+z
1/2+x,1/2-y,-z
1/2-x,y,1/2-z
1/2-x,1/2-y,-z
1/2+x,y,1/2-z
1/2-x,1/2+y,z
1/2+x,-y,1/2+z
loop_
_atom_site_type_symbol
_atom_site_label
_atom_site_fract_x
_atom_site_fract_y
_atom_site_fract_z
Si Si1 0.751405 0.209308 0.070976
Si Si2 0.350819 0.479587 0.113837
Si Si3 0.500000 0.737726 0.167599
Si Si4 0.000000 0.737076 0.165736
Si Si5 0.250000 0.422844 0.250000
Si Si6 0.500000 0.154305 0.749962
Si Si7 0.649108 0.408351 0.969284
O O1 0.624557 0.217792 0.120098
O O2 0.755670 0.144613 0.042411
O O3 0.873718 0.219794 0.123137
O O4 0.750000 0.250000 0.000000
O O5 0.500000 0.469887 0.137980
O O6 0.253036 0.463880 0.179316
O O7 0.327791 0.545343 0.094927
O O8 0.316645 0.438160 0.046346
O O9 0.500000 0.709608 0.250852
O O10 0.500000 0.806026 0.176726
O O11 0.000000 0.805852 0.175759
O O12 0.374125 0.383553 0.251237
O O13 0.500000 0.387335 0.968326
#
# Coordination Sequence:
#
# PCOD8264498 Si02
#       7
#    16  16   8   8   8   8  16
#     4  12  23  38  64  94 120 164 210 248 303 378
#     4   9  20  39  60  89 117 156 204 255 296 364
#     4  10  23  43  57  86 123 166 205 245 311 365
#     4  10  25  41  55  90 129 164 197 253 315 357
#     4  12  20  38  62  92 112 158 212 244 298 356
#     4  10  24  36  62  82 128 158 198 250 308 348
#     4   9  20  39  62  85 122 160 203 246 305 356
#
# _framework density 18.302592000000001
#
# number of rings (size 3 to 8) (size 9 to 14) (size 15 to 20)
#    0.600    1.200    2.000    3.600    5.600    0.000 
#    3.600    1.000    0.000    2.400    0.000    0.000 
#    0.000    0.000    0.000    0.000    0.000    0.000 
#
# Total GULP energy -495906.925362 kJ/mol
# GULP energy per Si atom -12397.673134 kJ/mol
# Density = 1.826093 g / cm^3
# Si number density = 18.302592 Si / 1000 Ang^3
#
#
#
# Elastic Constant Matrix: (Units=GPa)
#
#
# Indices 1 2 3 4 5 6 
#
# 1 125.1213 50.5893 60.3718 0.0000 0.0000 0.0000
# 2 50.5893 121.8091 56.5799 0.0000 0.0000 0.0000
# 3 60.3718 56.5799 118.4531 0.0000 0.0000 0.0000
# 4 0.0000 0.0000 0.0000 29.7674 0.0000 0.0000
# 5 0.0000 0.0000 0.0000 0.0000 38.5609 0.0000
# 6 0.0000 0.0000 0.0000 0.0000 0.0000 24.0624
#
#
#
# Elastic Compliance Matrix: (Units=1/GPa)
#
#
# Indices 1 2 3 4 5 6 
#
# 1 0.011191 -0.002568 -0.004477 0.000000 0.000000 0.000000
# 2 -0.002568 0.011140 -0.004012 0.000000 0.000000 0.000000
# 3 -0.004477 -0.004012 0.012640 0.000000 0.000000 0.000000
# 4 0.000000 0.000000 0.000000 0.033594 0.000000 0.000000
# 5 0.000000 0.000000 0.000000 0.000000 0.025933 0.000000
# 6 0.000000 0.000000 0.000000 0.000000 0.000000 0.041559
#
#
# Mechanical properties :
#
#
# Convention : Reuss Voigt Hill
#
# Bulk Modulus (GPa) = 77.78139 77.82950 77.80545
# Shear Modulus (GPa) = 30.77758 31.66764 31.22261
#
# Velocity S-wave (km/s) = 4.10518 4.16411 4.13475
# Velocity P-wave (km/s) = 8.06596 8.10776 8.08689
#
# Compressibility (1/GPa) = 0.01285655
#
# Stress axis : x y z
#
# Youngs Moduli (GPa) = 89.35972 89.76843 79.11245
#
# Poissons Ratio (x) = 0.23054 0.35417
# Poissons Ratio (y) = 0.22950 0.31740
# Poissons Ratio (z) = 0.40005 0.36016
#
# Static dielectric constant tensor:
#      x y z
#    x 2.496960 0.000000 0.000000 
#    y 0.000000 3.438610 0.000000 
#    z 0.000000 0.000000 3.491160 
# 
# 
# High freq. dielectric constant tensor:
#      x y z
#    x 1.700900 0.000000 0.000000 
#    y 0.000000 1.712890 0.000000 
#    z 0.000000 0.000000 1.716030 
# 
# From -- ./inp_files/29892.got.cif
#   From: 2010.03.12/outbox.cif.g09.slc.cpg/sg64_15_cif.got.tgz:29892.got - 2010.04.10 20:19:32.
