data_PCOD8264917
_publ_section_title
;
Structure prediction by ZEFSAII (Michael W. Deem and Ramdas Pophale) SiO2 
 PCOD8264917
Probable space group: C M C A
;
_chemical_formula_sum "Si O2"
_cell_formula_units_Z 56
_cell_length_a 18.516828
_cell_length_b 14.100137
_cell_length_c 8.529083
_cell_angle_alpha 90.000000
_cell_angle_beta 90.000000
_cell_angle_gamma 90.000000
_cell_volume 2226.856674
_symmetry_space_group_name_H-M "C M C A"
_symmetry_group_IT_number 64
_symmetry_cell_setting 'orthorhombic'
loop_
_space_group_symop_operation_xyz
x,y,z
-x,1/2-y,1/2+z
x,-y,-z
-x,1/2+y,1/2-z
-x,-y,-z
x,1/2+y,1/2-z
-x,y,z
x,1/2-y,1/2+z
1/2+x,1/2+y,z
1/2-x,-y,1/2+z
1/2+x,1/2-y,-z
1/2-x,y,1/2-z
1/2-x,1/2-y,-z
1/2+x,y,1/2-z
1/2-x,1/2+y,z
1/2+x,-y,1/2+z
loop_
_atom_site_type_symbol
_atom_site_label
_atom_site_fract_x
_atom_site_fract_y
_atom_site_fract_z
Si Si1 0.500000 0.868058 0.606774
Si Si2 0.649974 0.130138 0.890792
Si Si3 0.250000 0.520361 0.250000
Si Si4 0.000000 0.078939 0.764549
Si Si5 0.647178 0.322013 0.753749
O O1 0.500000 0.855690 0.419045
O O2 0.431183 0.812981 0.670397
O O3 0.500000 0.973096 0.671783
O O4 0.571036 0.095263 0.837865
O O5 0.680370 0.218477 0.789039
O O6 0.706598 0.044155 0.872968
O O7 0.645297 0.158934 0.070410
O O8 0.306511 0.593080 0.163377
#
# Coordination Sequence:
#
# PCOD8264917 Si02
#       5
#     8  16   8   8  16
#     4  11  24  45  76 108 142 186 238 297 357 423
#     4  12  27  48  75 107 145 189 239 296 357 426
#     4  12  28  46  72 104 140 194 236 294 352 424
#     4  11  24  45  76 108 142 186 238 297 357 423
#     4  12  27  48  75 107 145 189 239 296 357 426
#
# _framework density 25.147554
#
# number of rings (size 3 to 8) (size 9 to 14) (size 15 to 20)
#    0.000    0.286    2.857    5.143    0.000   12.571 
#    0.000    0.000    0.000    0.000    0.000    0.000 
#    0.000    0.000    0.000    0.000    0.000    0.000 
#
# Total GULP energy -347215.512937 kJ/mol
# GULP energy per Si atom -12400.554033 kJ/mol
# Density = 2.509032 g / cm^3
# Si number density = 25.147554 Si / 1000 Ang^3
#
#
#
# Elastic Constant Matrix: (Units=GPa)
#
#
# Indices 1 2 3 4 5 6 
#
# 1 164.7983 51.5269 54.7869 0.0000 0.0000 0.0000
# 2 51.5269 148.9200 31.4562 0.0000 0.0000 0.0000
# 3 54.7869 31.4562 116.5098 0.0000 0.0000 0.0000
# 4 0.0000 0.0000 0.0000 39.5639 0.0000 0.0000
# 5 0.0000 0.0000 0.0000 0.0000 18.3425 0.0000
# 6 0.0000 0.0000 0.0000 0.0000 0.0000 23.1045
#
#
#
# Elastic Compliance Matrix: (Units=1/GPa)
#
#
# Indices 1 2 3 4 5 6 
#
# 1 0.007726 -0.002021 -0.003088 0.000000 0.000000 0.000000
# 2 -0.002021 0.007650 -0.001115 0.000000 0.000000 0.000000
# 3 -0.003088 -0.001115 0.010336 0.000000 0.000000 0.000000
# 4 0.000000 0.000000 0.000000 0.025276 0.000000 0.000000
# 5 0.000000 0.000000 0.000000 0.000000 0.054518 0.000000
# 6 0.000000 0.000000 0.000000 0.000000 0.000000 0.043282
#
#
# Mechanical properties :
#
#
# Convention : Reuss Voigt Hill
#
# Bulk Modulus (GPa) = 75.38739 78.41867 76.90303
# Shear Modulus (GPa) = 30.18295 35.69938 32.94117
#
# Velocity S-wave (km/s) = 3.46820 3.77184 3.62320
# Velocity P-wave (km/s) = 6.78830 7.08662 6.93906
#
# Compressibility (1/GPa) = 0.01326482
#
# Stress axis : x y z
#
# Youngs Moduli (GPa) = 129.42583 130.72130 96.75058
#
# Poissons Ratio (x) = 0.26421 0.29872
# Poissons Ratio (y) = 0.26160 0.10787
# Poissons Ratio (z) = 0.39961 0.14575
#
# Static dielectric constant tensor:
#      x y z
#    x 4.939750 0.000000 0.000000 
#    y 0.000000 5.112340 0.000000 
#    z 0.000000 0.000000 4.294850 
# 
# 
# High freq. dielectric constant tensor:
#      x y z
#    x 2.018370 0.000000 0.000000 
#    y 0.000000 2.033280 0.000000 
#    z 0.000000 0.000000 1.991800 
# 
# From -- ./inp_files/7670.got.cif
#   From: 2010.03.12/outbox.cif.g09.slc.cpg/sg64_4_cif.got.tgz:7670.got - 2010.04.10 20:19:32.
