data_PCOD8264235
_publ_section_title
;
Structure prediction by ZEFSAII (Michael W. Deem and Ramdas Pophale) SiO2 
 PCOD8264235
Probable space group: C M C A
;
_chemical_formula_sum "Si O2"
_cell_formula_units_Z 80
_cell_length_a 25.693877
_cell_length_b 14.943799
_cell_length_c 10.635523
_cell_angle_alpha 90.000000
_cell_angle_beta 90.000000
_cell_angle_gamma 90.000000
_cell_volume 4083.659372
_symmetry_space_group_name_H-M "C M C A"
_symmetry_group_IT_number 64
_symmetry_cell_setting 'orthorhombic'
loop_
_space_group_symop_operation_xyz
x,y,z
-x,1/2-y,1/2+z
x,-y,-z
-x,1/2+y,1/2-z
-x,-y,-z
x,1/2+y,1/2-z
-x,y,z
x,1/2-y,1/2+z
1/2+x,1/2+y,z
1/2-x,-y,1/2+z
1/2+x,1/2-y,-z
1/2-x,y,1/2-z
1/2-x,1/2-y,-z
1/2+x,y,1/2-z
1/2-x,1/2+y,z
1/2+x,-y,1/2+z
loop_
_atom_site_type_symbol
_atom_site_label
_atom_site_fract_x
_atom_site_fract_y
_atom_site_fract_z
Si Si1 0.558986 0.504718 0.854644
Si Si2 0.627288 0.664063 0.760706
Si Si3 0.857519 0.395650 0.989343
Si Si4 0.283291 0.265271 0.624833
Si Si5 0.440275 0.665147 0.310438
O O1 0.500000 0.538400 0.830128
O O2 0.599789 0.570899 0.791346
O O3 0.566854 0.405593 0.801375
O O4 0.571993 0.500000 0.000000
O O5 0.649973 0.655658 0.620701
O O6 0.675630 0.683720 0.854515
O O7 0.585498 0.743043 0.766372
O O8 0.815360 0.357060 0.891556
O O9 0.915207 0.375364 0.937087
O O10 0.847351 0.500000 0.000000
O O11 0.250000 0.277790 0.750000
O O12 0.250000 0.250000 0.500000
O O13 0.500000 0.684444 0.342262
#
# Coordination Sequence:
#
# PCOD8264235 Si02
#       5
#    16  16  16  16  16
#     4  10  22  39  60  92 132 172 216 258 308 382
#     4  11  23  41  67  90 130 166 214 267 319 383
#     4  11  23  43  66  95 127 166 216 267 321 388
#     4  11  24  46  69  93 124 164 213 274 333 385
#     4  10  23  38  61  95 131 173 211 254 315 378
#
# _framework density 19.590271999999999
#
# number of rings (size 3 to 8) (size 9 to 14) (size 15 to 20)
#    0.000    1.400    4.000    0.600    5.600    2.000 
#    3.600    0.000    0.000    0.000    0.000    0.000 
#    0.000    0.000    0.000    0.000    0.000    0.000 
#
# Total GULP energy -496098.228080 kJ/mol
# GULP energy per Si atom -12402.455702 kJ/mol
# Density = 1.954568 g / cm^3
# Si number density = 19.590272 Si / 1000 Ang^3
#
#
#
# Elastic Constant Matrix: (Units=GPa)
#
#
# Indices 1 2 3 4 5 6 
#
# 1 120.1355 36.9751 51.3639 0.0000 0.0000 0.0000
# 2 36.9751 71.6648 17.3896 0.0000 0.0000 0.0000
# 3 51.3639 17.3896 115.6041 0.0000 0.0000 0.0000
# 4 0.0000 0.0000 0.0000 32.7354 0.0000 0.0000
# 5 0.0000 0.0000 0.0000 0.0000 36.6955 0.0000
# 6 0.0000 0.0000 0.0000 0.0000 0.0000 18.1231
#
#
#
# Elastic Compliance Matrix: (Units=1/GPa)
#
#
# Indices 1 2 3 4 5 6 
#
# 1 0.011775 -0.004988 -0.004482 0.000000 0.000000 0.000000
# 2 -0.004988 0.016595 -0.000280 0.000000 0.000000 0.000000
# 3 -0.004482 -0.000280 0.010684 0.000000 0.000000 0.000000
# 4 0.000000 0.000000 0.000000 0.030548 0.000000 0.000000
# 5 0.000000 0.000000 0.000000 0.000000 0.027251 0.000000
# 6 0.000000 0.000000 0.000000 0.000000 0.000000 0.055178
#
#
# Mechanical properties :
#
#
# Convention : Reuss Voigt Hill
#
# Bulk Modulus (GPa) = 51.13817 57.65130 54.39474
# Shear Modulus (GPa) = 28.08214 30.95583 29.51898
#
# Velocity S-wave (km/s) = 3.79023 3.97944 3.88599
# Velocity P-wave (km/s) = 6.73164 7.11386 6.92539
#
# Compressibility (1/GPa) = 0.01955487
#
# Stress axis : x y z
#
# Youngs Moduli (GPa) = 84.92441 60.25796 93.60206
#
# Poissons Ratio (x) = 0.30056 0.41948
# Poissons Ratio (y) = 0.42359 0.02622
# Poissons Ratio (z) = 0.38059 0.01688
#
# Static dielectric constant tensor:
#      x y z
#    x 3.772820 0.000000 0.000000 
#    y 0.000000 3.501930 0.000000 
#    z 0.000000 0.000000 3.740410 
# 
# 
# High freq. dielectric constant tensor:
#      x y z
#    x 1.771800 0.000000 0.000000 
#    y 0.000000 1.763540 0.000000 
#    z 0.000000 0.000000 1.772060 
# 
# From -- ./inp_files/18036.got.cif
#   From: 2010.03.12/outbox.cif.g09.slc.cpg/sg64_10_cif.got.tgz:18036.got - 2010.04.10 20:19:32.
