data_PCOD8264857
_publ_section_title
;
Structure prediction by ZEFSAII (Michael W. Deem and Ramdas Pophale) SiO2 
 PCOD8264857
Probable space group: C M C A
;
_chemical_formula_sum "Si O2"
_cell_formula_units_Z 112
_cell_length_a 28.293645
_cell_length_b 10.561048
_cell_length_c 17.719108
_cell_angle_alpha 90.000000
_cell_angle_beta 90.000000
_cell_angle_gamma 90.000000
_cell_volume 5294.656282
_symmetry_space_group_name_H-M "C M C A"
_symmetry_group_IT_number 64
_symmetry_cell_setting 'orthorhombic'
loop_
_space_group_symop_operation_xyz
x,y,z
-x,1/2-y,1/2+z
x,-y,-z
-x,1/2+y,1/2-z
-x,-y,-z
x,1/2+y,1/2-z
-x,y,z
x,1/2-y,1/2+z
1/2+x,1/2+y,z
1/2-x,-y,1/2+z
1/2+x,1/2-y,-z
1/2-x,y,1/2-z
1/2-x,1/2-y,-z
1/2+x,y,1/2-z
1/2-x,1/2+y,z
1/2+x,-y,1/2+z
loop_
_atom_site_type_symbol
_atom_site_label
_atom_site_fract_x
_atom_site_fract_y
_atom_site_fract_z
Si Si1 0.052917 0.075655 0.276866
Si Si2 0.267734 0.926376 0.424144
Si Si3 0.053254 0.652719 0.667942
Si Si4 0.791789 0.603489 0.296630
Si Si5 0.640784 0.786216 0.430114
Si Si6 0.177902 0.790841 0.413540
Si Si7 0.648171 0.541480 0.340797
O O1 0.060022 0.230692 0.270206
O O2 0.091336 0.028001 0.336561
O O3 0.000000 0.047812 0.307065
O O4 0.061338 0.988240 0.202476
O O5 0.323299 0.900015 0.417566
O O6 0.234600 0.800955 0.429014
O O7 0.256621 0.000000 0.500000
O O8 0.259930 0.011055 0.349422
O O9 0.088601 0.671694 0.596915
O O10 0.000000 0.660583 0.635543
O O11 0.750000 0.675710 0.250000
O O12 0.826387 0.696129 0.343119
O O13 0.827907 0.529928 0.241508
O O14 0.643955 0.754381 0.519125
O O15 0.661390 0.672494 0.380279
O O16 0.163918 0.932499 0.395846
#
# Coordination Sequence:
#
# PCOD8264857 Si02
#       7
#    16  16  16  16  16  16  16
#     4   9  19  37  63  97 128 163 212 266 324 380
#     4  12  24  42  61  87 125 171 210 256 314 385
#     4   9  19  38  67  98 132 169 213 271 330 389
#     4  12  26  40  59  92 121 162 214 264 316 370
#     4  11  23  42  65  89 126 169 211 255 322 388
#     4  12  26  41  61  88 129 166 210 260 320 382
#     4  11  24  39  65  92 126 162 210 266 318 377
#
# _framework density 21.153403999999998
#
# number of rings (size 3 to 8) (size 9 to 14) (size 15 to 20)
#    0.000    1.143    2.857    3.429    8.000    0.000 
#    0.000    0.714    0.000    4.714    0.000    0.000 
#    0.000    0.000    0.000    0.000    0.000    0.000 
#
# Total GULP energy -693748.195846 kJ/mol
# GULP energy per Si atom -12388.360640 kJ/mol
# Density = 2.110526 g / cm^3
# Si number density = 21.153404 Si / 1000 Ang^3
#
#
#
# Elastic Constant Matrix: (Units=GPa)
#
#
# Indices 1 2 3 4 5 6 
#
# 1 100.1386 16.2926 42.3910 0.0000 0.0000 0.0000
# 2 16.2926 49.1561 27.0453 0.0000 0.0000 0.0000
# 3 42.3910 27.0453 114.5629 0.0000 0.0000 0.0000
# 4 0.0000 0.0000 0.0000 26.5237 0.0000 0.0000
# 5 0.0000 0.0000 0.0000 0.0000 32.4265 0.0000
# 6 0.0000 0.0000 0.0000 0.0000 0.0000 29.5484
#
#
#
# Elastic Compliance Matrix: (Units=1/GPa)
#
#
# Indices 1 2 3 4 5 6 
#
# 1 0.011972 -0.001759 -0.004015 0.000000 0.000000 0.000000
# 2 -0.001759 0.023639 -0.004930 0.000000 0.000000 0.000000
# 3 -0.004015 -0.004930 0.011378 0.000000 0.000000 0.000000
# 4 0.000000 0.000000 0.000000 0.037702 0.000000 0.000000
# 5 0.000000 0.000000 0.000000 0.000000 0.030839 0.000000
# 6 0.000000 0.000000 0.000000 0.000000 0.000000 0.033843
#
#
# Mechanical properties :
#
#
# Convention : Reuss Voigt Hill
#
# Bulk Modulus (GPa) = 39.09013 48.36838 43.72926
# Shear Modulus (GPa) = 27.88524 29.57496 28.73010
#
# Velocity S-wave (km/s) = 3.63469 3.74320 3.68935
# Velocity P-wave (km/s) = 6.01117 6.44959 6.23423
#
# Compressibility (1/GPa) = 0.02558191
#
# Stress axis : x y z
#
# Youngs Moduli (GPa) = 83.52930 42.30361 87.88866
#
# Poissons Ratio (x) = 0.07442 0.35283
# Poissons Ratio (y) = 0.14695 0.43325
# Poissons Ratio (z) = 0.33533 0.20854
#
# Static dielectric constant tensor:
#      x y z
#    x 4.010070 0.000000 0.000000 
#    y 0.000000 4.010570 0.000000 
#    z 0.000000 0.000000 3.722980 
# 
# 
# High freq. dielectric constant tensor:
#      x y z
#    x 1.835760 0.000000 0.000000 
#    y 0.000000 1.834240 0.000000 
#    z 0.000000 0.000000 1.808740 
# 
# From -- ./inp_files/28421.got.cif
#   From: 2010.03.12/outbox.cif.g09.slc.cpg/sg64_15_cif.got.tgz:28421.got - 2010.04.10 20:19:32.
