data_PCOD8264829
_publ_section_title
;
Structure prediction by ZEFSAII (Michael W. Deem and Ramdas Pophale) SiO2 
 PCOD8264829
Probable space group: C M C A
;
_chemical_formula_sum "Si O2"
_cell_formula_units_Z 80
_cell_length_a 9.340818
_cell_length_b 14.998170
_cell_length_c 29.583083
_cell_angle_alpha 90.000000
_cell_angle_beta 90.000000
_cell_angle_gamma 90.000000
_cell_volume 4144.447228
_symmetry_space_group_name_H-M "C M C A"
_symmetry_group_IT_number 64
_symmetry_cell_setting 'orthorhombic'
loop_
_space_group_symop_operation_xyz
x,y,z
-x,1/2-y,1/2+z
x,-y,-z
-x,1/2+y,1/2-z
-x,-y,-z
x,1/2+y,1/2-z
-x,y,z
x,1/2-y,1/2+z
1/2+x,1/2+y,z
1/2-x,-y,1/2+z
1/2+x,1/2-y,-z
1/2-x,y,1/2-z
1/2-x,1/2-y,-z
1/2+x,y,1/2-z
1/2-x,1/2+y,z
1/2+x,-y,1/2+z
loop_
_atom_site_type_symbol
_atom_site_label
_atom_site_fract_x
_atom_site_fract_y
_atom_site_fract_z
Si Si1 0.831421 0.405790 0.611493
Si Si2 0.328959 0.253579 0.452679
Si Si3 0.658382 0.104060 0.290723
Si Si4 0.670284 0.606679 0.891846
Si Si5 0.156883 0.892306 0.209520
O O1 0.786202 0.337613 0.572661
O O2 0.768757 0.374405 0.660381
O O3 0.781853 0.504946 0.597950
O O4 0.000000 0.409337 0.619186
O O5 0.500000 0.263172 0.458440
O O6 0.250000 0.250000 0.500000
O O7 0.266387 0.336005 0.425211
O O8 0.500000 0.145569 0.286953
O O9 0.750000 0.146439 0.250000
O O10 0.650655 0.998114 0.285962
O O11 0.500000 0.620665 0.900232
O O12 0.713961 0.632894 0.840501
O O13 0.250000 0.850023 0.250000
O O14 0.000000 0.851335 0.215605
#
# Coordination Sequence:
#
# PCOD8264829 Si02
#       5
#    16  16  16  16  16
#     4   8  17  35  57  76 103 143 177 203 252 321
#     4  11  23  39  57  78 103 134 173 222 272 320
#     4   8  13  25  46  73 101 133 170 205 242 294
#     4   9  18  36  58  79 104 139 178 214 253 307
#     4   8  14  25  46  74 104 135 169 206 246 294
#
# _framework density 19.302935999999999
#
# number of rings (size 3 to 8) (size 9 to 14) (size 15 to 20)
#    0.000    3.200    0.000    3.000    0.000    1.600 
#    0.000   12.000    0.000    4.800    0.000    0.000 
#    0.000    0.000    0.000    0.000    0.000    0.000 
#
# Total GULP energy -495680.682935 kJ/mol
# GULP energy per Si atom -12392.017073 kJ/mol
# Density = 1.925900 g / cm^3
# Si number density = 19.302936 Si / 1000 Ang^3
#
#
#
# Elastic Constant Matrix: (Units=GPa)
#
#
# Indices 1 2 3 4 5 6 
#
# 1 81.2389 41.7276 80.3371 0.0000 0.0000 0.0000
# 2 41.7276 83.2087 73.4711 0.0000 0.0000 0.0000
# 3 80.3371 73.4711 194.0680 0.0000 0.0000 0.0000
# 4 0.0000 0.0000 0.0000 82.1591 0.0000 0.0000
# 5 0.0000 0.0000 0.0000 0.0000 38.1180 0.0000
# 6 0.0000 0.0000 0.0000 0.0000 0.0000 20.8166
#
#
#
# Elastic Compliance Matrix: (Units=1/GPa)
#
#
# Indices 1 2 3 4 5 6 
#
# 1 0.021895 -0.004472 -0.007371 0.000000 0.000000 0.000000
# 2 -0.004472 0.018966 -0.005329 0.000000 0.000000 0.000000
# 3 -0.007371 -0.005329 0.010222 0.000000 0.000000 0.000000
# 4 0.000000 0.000000 0.000000 0.012172 0.000000 0.000000
# 5 0.000000 0.000000 0.000000 0.000000 0.026234 0.000000
# 6 0.000000 0.000000 0.000000 0.000000 0.000000 0.048038
#
#
# Mechanical properties :
#
#
# Convention : Reuss Voigt Hill
#
# Bulk Modulus (GPa) = 59.73938 83.28747 71.51343
# Shear Modulus (GPa) = 28.17687 39.08407 33.63047
#
# Velocity S-wave (km/s) = 3.82477 4.50463 4.17855
# Velocity P-wave (km/s) = 7.10779 8.38432 7.77231
#
# Compressibility (1/GPa) = 0.01673938
#
# Stress axis : x y z
#
# Youngs Moduli (GPa) = 45.67172 52.72626 97.83184
#
# Poissons Ratio (x) = 0.23578 0.72111
# Poissons Ratio (y) = 0.20423 0.52135
# Poissons Ratio (z) = 0.33664 0.28098
#
# Static dielectric constant tensor:
#      x y z
#    x 3.510630 0.000000 0.000000 
#    y 0.000000 3.343530 0.000000 
#    z 0.000000 0.000000 3.682140 
# 
# 
# High freq. dielectric constant tensor:
#      x y z
#    x 1.727390 0.000000 0.000000 
#    y 0.000000 1.732230 0.000000 
#    z 0.000000 0.000000 1.761330 
# 
# From -- ./inp_files/47857.got.cif
#   From: 2010.03.12/outbox.cif.g09.slc.cpg/sg64_24_cif.got.tgz:47857.got - 2010.04.10 20:19:32.
