data_PCOD8264005
_publ_section_title
;
Structure prediction by ZEFSAII (Michael W. Deem and Ramdas Pophale) SiO2 
 PCOD8264005
Probable space group: C M C A
;
_chemical_formula_sum "Si O2"
_cell_formula_units_Z 64
_cell_length_a 17.856032
_cell_length_b 8.556130
_cell_length_c 19.497241
_cell_angle_alpha 90.000000
_cell_angle_beta 90.000000
_cell_angle_gamma 90.000000
_cell_volume 2978.759840
_symmetry_space_group_name_H-M "C M C A"
_symmetry_group_IT_number 64
_symmetry_cell_setting 'orthorhombic'
loop_
_space_group_symop_operation_xyz
x,y,z
-x,1/2-y,1/2+z
x,-y,-z
-x,1/2+y,1/2-z
-x,-y,-z
x,1/2+y,1/2-z
-x,y,z
x,1/2-y,1/2+z
1/2+x,1/2+y,z
1/2-x,-y,1/2+z
1/2+x,1/2-y,-z
1/2-x,y,1/2-z
1/2-x,1/2-y,-z
1/2+x,y,1/2-z
1/2-x,1/2+y,z
1/2+x,-y,1/2+z
loop_
_atom_site_type_symbol
_atom_site_label
_atom_site_fract_x
_atom_site_fract_y
_atom_site_fract_z
Si Si1 0.415295 0.363763 0.176803
Si Si2 0.167894 0.831013 0.782457
Si Si3 0.811954 0.129639 0.585544
Si Si4 0.157947 0.719199 0.057643
O O1 0.500000 0.418049 0.190938
O O2 0.392450 0.222271 0.226560
O O3 0.356391 0.502236 0.188398
O O4 0.410201 0.299057 0.098780
O O5 0.250000 0.845481 0.750000
O O6 0.164817 0.705787 0.843368
O O7 0.863568 0.193876 0.522364
O O8 0.726905 0.162174 0.564697
O O9 0.820389 0.944247 0.593812
#
# Coordination Sequence:
#
# PCOD8264005 Si02
#       4
#    16  16  16  16
#     4  12  26  43  63  96 137 174 213 269 333 388
#     4  12  24  41  67  97 125 174 224 270 318 386
#     4  10  21  39  68  98 125 164 221 272 315 377
#     4  10  21  40  65  98 130 165 213 270 325 383
#
# _framework density 21.485451000000001
#
# number of rings (size 3 to 8) (size 9 to 14) (size 15 to 20)
#    0.000    1.000    2.500    4.500    0.000    3.000 
#    0.000    7.500    0.000    0.000    0.000    0.000 
#    0.000    0.000    0.000    0.000    0.000    0.000 
#
# Total GULP energy -396871.895802 kJ/mol
# GULP energy per Si atom -12402.246744 kJ/mol
# Density = 2.143655 g / cm^3
# Si number density = 21.485451 Si / 1000 Ang^3
#
#
#
# Elastic Constant Matrix: (Units=GPa)
#
#
# Indices 1 2 3 4 5 6 
#
# 1 94.7025 37.3489 50.3204 0.0000 0.0000 0.0000
# 2 37.3489 106.1016 31.1455 0.0000 0.0000 0.0000
# 3 50.3204 31.1455 120.1681 0.0000 0.0000 0.0000
# 4 0.0000 0.0000 0.0000 40.3538 0.0000 0.0000
# 5 0.0000 0.0000 0.0000 0.0000 24.1644 0.0000
# 6 0.0000 0.0000 0.0000 0.0000 0.0000 17.1194
#
#
#
# Elastic Compliance Matrix: (Units=1/GPa)
#
#
# Indices 1 2 3 4 5 6 
#
# 1 0.014792 -0.003668 -0.005244 0.000000 0.000000 0.000000
# 2 -0.003668 0.011110 -0.001344 0.000000 0.000000 0.000000
# 3 -0.005244 -0.001344 0.010866 0.000000 0.000000 0.000000
# 4 0.000000 0.000000 0.000000 0.024781 0.000000 0.000000
# 5 0.000000 0.000000 0.000000 0.000000 0.041383 0.000000
# 6 0.000000 0.000000 0.000000 0.000000 0.000000 0.058413
#
#
# Mechanical properties :
#
#
# Convention : Reuss Voigt Hill
#
# Bulk Modulus (GPa) = 61.50792 62.06687 61.78739
# Shear Modulus (GPa) = 26.69873 29.80470 28.25171
#
# Velocity S-wave (km/s) = 3.52894 3.72856 3.63012
# Velocity P-wave (km/s) = 6.73011 6.89106 6.81106
#
# Compressibility (1/GPa) = 0.01625807
#
# Stress axis : x y z
#
# Youngs Moduli (GPa) = 67.60390 90.00516 92.03276
#
# Poissons Ratio (x) = 0.33012 0.48258
# Poissons Ratio (y) = 0.24795 0.12367
# Poissons Ratio (z) = 0.35448 0.12095
#
# Static dielectric constant tensor:
#      x y z
#    x 3.424830 0.000000 0.000000 
#    y 0.000000 3.916760 0.000000 
#    z 0.000000 0.000000 4.353810 
# 
# 
# High freq. dielectric constant tensor:
#      x y z
#    x 1.797680 0.000000 0.000000 
#    y 0.000000 1.858100 0.000000 
#    z 0.000000 0.000000 1.866690 
# 
# From -- ./inp_files/39790.got.cif
#   From: 2010.03.12/outbox.cif.g09.slc.cpg/sg64_20_cif.got.tgz:39790.got - 2010.04.10 20:19:32.
