data_PCOD8264686
_publ_section_title
;
Structure prediction by ZEFSAII (Michael W. Deem and Ramdas Pophale) SiO2 
 PCOD8264686
Probable space group: C M C A
;
_chemical_formula_sum "Si O2"
_cell_formula_units_Z 64
_cell_length_a 17.357391
_cell_length_b 14.311325
_cell_length_c 12.016805
_cell_angle_alpha 90.000000
_cell_angle_beta 90.000000
_cell_angle_gamma 90.000000
_cell_volume 2985.061649
_symmetry_space_group_name_H-M "C M C A"
_symmetry_group_IT_number 64
_symmetry_cell_setting 'orthorhombic'
loop_
_space_group_symop_operation_xyz
x,y,z
-x,1/2-y,1/2+z
x,-y,-z
-x,1/2+y,1/2-z
-x,-y,-z
x,1/2+y,1/2-z
-x,y,z
x,1/2-y,1/2+z
1/2+x,1/2+y,z
1/2-x,-y,1/2+z
1/2+x,1/2-y,-z
1/2-x,y,1/2-z
1/2-x,1/2-y,-z
1/2+x,y,1/2-z
1/2-x,1/2+y,z
1/2+x,-y,1/2+z
loop_
_atom_site_type_symbol
_atom_site_label
_atom_site_fract_x
_atom_site_fract_y
_atom_site_fract_z
Si Si1 0.210271 0.149632 0.488007
Si Si2 0.588227 0.676868 0.297106
Si Si3 0.814983 0.451254 0.664930
Si Si4 0.331701 0.646365 0.730421
O O1 0.250000 0.250000 0.500000
O O2 0.139319 0.153087 0.403538
O O3 0.278501 0.076238 0.454933
O O4 0.170565 0.112326 0.602147
O O5 0.500000 0.661587 0.329885
O O6 0.609152 0.609810 0.192641
O O7 0.599071 0.783836 0.256632
O O8 0.750000 0.417608 0.750000
O O9 0.835442 0.560190 0.682525
O O10 0.250000 0.700088 0.750000
#
# Coordination Sequence:
#
# PCOD8264686 Si02
#       4
#    16  16  16  16
#     4  11  20  42  68  89 125 168 218 258 318 375
#     4  11  23  39  59  94 135 169 207 264 325 381
#     4   9  21  38  63  95 122 161 217 270 305 381
#     4  11  21  39  67  93 122 165 219 269 318 375
#
# _framework density 21.440093000000001
#
# number of rings (size 3 to 8) (size 9 to 14) (size 15 to 20)
#    0.000    1.500    5.000    0.750    0.000   11.000 
#    0.000    1.250    0.000    1.500    0.000    0.000 
#    0.000    0.000    0.000    0.000    0.000    0.000 
#
# Total GULP energy -396574.467127 kJ/mol
# GULP energy per Si atom -12392.952098 kJ/mol
# Density = 2.139129 g / cm^3
# Si number density = 21.440093 Si / 1000 Ang^3
#
#
#
# Elastic Constant Matrix: (Units=GPa)
#
#
# Indices 1 2 3 4 5 6 
#
# 1 118.0748 27.7394 18.7446 0.0000 0.0000 0.0000
# 2 27.7394 109.4715 9.8674 0.0000 0.0000 0.0000
# 3 18.7446 9.8674 91.3218 0.0000 0.0000 0.0000
# 4 0.0000 0.0000 0.0000 32.1527 0.0000 0.0000
# 5 0.0000 0.0000 0.0000 0.0000 23.1786 0.0000
# 6 0.0000 0.0000 0.0000 0.0000 0.0000 11.2112
#
#
#
# Elastic Compliance Matrix: (Units=1/GPa)
#
#
# Indices 1 2 3 4 5 6 
#
# 1 0.009248 -0.002194 -0.001661 0.000000 0.000000 0.000000
# 2 -0.002194 0.009745 -0.000603 0.000000 0.000000 0.000000
# 3 -0.001661 -0.000603 0.011356 0.000000 0.000000 0.000000
# 4 0.000000 0.000000 0.000000 0.031102 0.000000 0.000000
# 5 0.000000 0.000000 0.000000 0.000000 0.043143 0.000000
# 6 0.000000 0.000000 0.000000 0.000000 0.000000 0.089196
#
#
# Mechanical properties :
#
#
# Convention : Reuss Voigt Hill
#
# Bulk Modulus (GPa) = 46.65400 47.95231 47.30315
# Shear Modulus (GPa) = 23.82643 30.80962 27.31803
#
# Velocity S-wave (km/s) = 3.33724 3.79490 3.57340
# Velocity P-wave (km/s) = 6.05450 6.45105 6.25591
#
# Compressibility (1/GPa) = 0.02143439
#
# Stress axis : x y z
#
# Youngs Moduli (GPa) = 108.12792 102.61683 88.05607
#
# Poissons Ratio (x) = 0.22511 0.14628
# Poissons Ratio (y) = 0.23720 0.05307
# Poissons Ratio (z) = 0.17963 0.06184
#
# Static dielectric constant tensor:
#      x y z
#    x 3.514660 0.000000 0.000000 
#    y 0.000000 3.816970 0.000000 
#    z 0.000000 0.000000 4.194970 
# 
# 
# High freq. dielectric constant tensor:
#      x y z
#    x 1.795690 0.000000 0.000000 
#    y 0.000000 1.852120 0.000000 
#    z 0.000000 0.000000 1.848490 
# 
# From -- ./inp_files/15444.got.cif
#   From: 2010.03.12/outbox.cif.g09.slc.cpg/sg64_8_cif.got.tgz:15444.got - 2010.04.10 20:19:32.
