data_PCOD8264982
_publ_section_title
;
Structure prediction by ZEFSAII (Michael W. Deem and Ramdas Pophale) SiO2 
 PCOD8264982
Probable space group: C M C A
;
_chemical_formula_sum "Si O2"
_cell_formula_units_Z 64
_cell_length_a 10.065712
_cell_length_b 21.011841
_cell_length_c 14.074465
_cell_angle_alpha 90.000000
_cell_angle_beta 90.000000
_cell_angle_gamma 90.000000
_cell_volume 2976.737245
_symmetry_space_group_name_H-M "C M C A"
_symmetry_group_IT_number 64
_symmetry_cell_setting 'orthorhombic'
loop_
_space_group_symop_operation_xyz
x,y,z
-x,1/2-y,1/2+z
x,-y,-z
-x,1/2+y,1/2-z
-x,-y,-z
x,1/2+y,1/2-z
-x,y,z
x,1/2-y,1/2+z
1/2+x,1/2+y,z
1/2-x,-y,1/2+z
1/2+x,1/2-y,-z
1/2-x,y,1/2-z
1/2-x,1/2-y,-z
1/2+x,y,1/2-z
1/2-x,1/2+y,z
1/2+x,-y,1/2+z
loop_
_atom_site_type_symbol
_atom_site_label
_atom_site_fract_x
_atom_site_fract_y
_atom_site_fract_z
Si Si1 0.500000 0.695460 0.469483
Si Si2 0.262744 0.363950 0.642454
Si Si3 0.500000 0.095467 0.870152
Si Si4 0.000000 0.926813 0.163123
Si Si5 0.000000 0.658630 0.476387
Si Si6 0.746968 0.994761 0.106026
O O1 0.370563 0.679270 0.409026
O O2 0.500000 0.659779 0.570027
O O3 0.500000 0.769078 0.492405
O O4 0.250000 0.338804 0.750000
O O5 0.125689 0.358176 0.586886
O O6 0.307235 0.437819 0.644072
O O7 0.500000 0.115129 0.759261
O O8 0.628910 0.055449 0.897172
O O9 0.869318 0.971089 0.170511
O O10 0.000000 0.882395 0.072013
O O11 0.804889 0.000000 0.000000
#
# Coordination Sequence:
#
# PCOD8264982 Si02
#       6
#     8  16   8   8   8  16
#     4  12  26  46  66  95 133 177 223 265 316 381
#     4  12  25  43  70  99 131 170 216 271 328 387
#     4  12  24  41  67  98 133 172 215 268 328 388
#     4  12  24  41  67  98 133 172 215 268 328 388
#     4  12  26  46  66  95 133 177 223 265 316 381
#     4  12  22  43  68  98 133 170 208 272 338 385
#
# _framework density 21.500049000000001
#
# number of rings (size 3 to 8) (size 9 to 14) (size 15 to 20)
#    0.000    0.000    5.000    6.000    0.000    2.000 
#    0.000    0.000    0.000    0.000    0.000    0.000 
#    0.000    0.000    0.000    0.000    0.000    0.000 
#
# Total GULP energy -397039.383418 kJ/mol
# GULP energy per Si atom -12407.480732 kJ/mol
# Density = 2.145111 g / cm^3
# Si number density = 21.500049 Si / 1000 Ang^3
#
#
#
# Elastic Constant Matrix: (Units=GPa)
#
#
# Indices 1 2 3 4 5 6 
#
# 1 115.2602 18.2847 19.6935 0.0000 0.0000 0.0000
# 2 18.2847 110.8031 24.6215 0.0000 0.0000 0.0000
# 3 19.6935 24.6215 160.0277 0.0000 0.0000 0.0000
# 4 0.0000 0.0000 0.0000 12.3475 0.0000 0.0000
# 5 0.0000 0.0000 0.0000 0.0000 36.8837 0.0000
# 6 0.0000 0.0000 0.0000 0.0000 0.0000 11.8582
#
#
#
# Elastic Compliance Matrix: (Units=1/GPa)
#
#
# Indices 1 2 3 4 5 6 
#
# 1 0.009037 -0.001288 -0.000914 0.000000 0.000000 0.000000
# 2 -0.001288 0.009528 -0.001307 0.000000 0.000000 0.000000
# 3 -0.000914 -0.001307 0.006563 0.000000 0.000000 0.000000
# 4 0.000000 0.000000 0.000000 0.080988 0.000000 0.000000
# 5 0.000000 0.000000 0.000000 0.000000 0.027112 0.000000
# 6 0.000000 0.000000 0.000000 0.000000 0.000000 0.084330
#
#
# Mechanical properties :
#
#
# Convention : Reuss Voigt Hill
#
# Bulk Modulus (GPa) = 55.22343 56.81005 56.01674
# Shear Modulus (GPa) = 21.68144 33.78397 27.73270
#
# Velocity S-wave (km/s) = 3.17903 3.96832 3.59540
# Velocity P-wave (km/s) = 6.26227 6.89038 6.58382
#
# Compressibility (1/GPa) = 0.01810825
#
# Stress axis : x y z
#
# Youngs Moduli (GPa) = 110.66218 104.95259 152.37987
#
# Poissons Ratio (x) = 0.13519 0.13926
# Poissons Ratio (y) = 0.14255 0.19923
# Poissons Ratio (z) = 0.10113 0.13722
#
# Static dielectric constant tensor:
#      x y z
#    x 4.064750 0.000000 0.000000 
#    y 0.000000 3.746790 0.000000 
#    z 0.000000 0.000000 4.185090 
# 
# 
# High freq. dielectric constant tensor:
#      x y z
#    x 1.859310 0.000000 0.000000 
#    y 0.000000 1.831100 0.000000 
#    z 0.000000 0.000000 1.869160 
# 
# From -- ./inp_files/20949.got.cif
#   From: 2010.03.12/outbox.cif.g09.slc.cpg/sg64_11_cif.got.tgz:20949.got - 2010.04.10 20:19:32.
