data_PCOD8264435
_publ_section_title
;
Structure prediction by ZEFSAII (Michael W. Deem and Ramdas Pophale) SiO2 
 PCOD8264435
Probable space group: C M C A
;
_chemical_formula_sum "Si O2"
_cell_formula_units_Z 80
_cell_length_a 31.118192
_cell_length_b 11.005595
_cell_length_c 12.312302
_cell_angle_alpha 90.000000
_cell_angle_beta 90.000000
_cell_angle_gamma 90.000000
_cell_volume 4216.646003
_symmetry_space_group_name_H-M "C M C A"
_symmetry_group_IT_number 64
_symmetry_cell_setting 'orthorhombic'
loop_
_space_group_symop_operation_xyz
x,y,z
-x,1/2-y,1/2+z
x,-y,-z
-x,1/2+y,1/2-z
-x,-y,-z
x,1/2+y,1/2-z
-x,y,z
x,1/2-y,1/2+z
1/2+x,1/2+y,z
1/2-x,-y,1/2+z
1/2+x,1/2-y,-z
1/2-x,y,1/2-z
1/2-x,1/2-y,-z
1/2+x,y,1/2-z
1/2-x,1/2+y,z
1/2+x,-y,1/2+z
loop_
_atom_site_type_symbol
_atom_site_label
_atom_site_fract_x
_atom_site_fract_y
_atom_site_fract_z
Si Si1 0.428760 0.134543 0.976738
Si Si2 0.306422 0.955025 0.844959
Si Si3 0.500000 0.822353 0.851325
Si Si4 0.836631 0.187828 0.531522
Si Si5 0.500000 0.402620 0.304611
Si Si6 0.293177 0.424617 0.896433
O O1 0.387357 0.221839 0.958487
O O2 0.457375 0.131239 0.869794
O O3 0.457215 0.179665 0.076807
O O4 0.410468 0.000000 0.000000
O O5 0.316978 0.955599 0.716736
O O6 0.256495 0.948685 0.875385
O O7 0.327150 0.074789 0.892052
O O8 0.327734 0.838705 0.904048
O O9 0.500000 0.691160 0.794428
O O10 0.500000 0.949797 0.779650
O O11 0.803746 0.287176 0.574798
O O12 0.310374 0.500000 0.000000
#
# Coordination Sequence:
#
# PCOD8264435 Si02
#       6
#    16  16   8  16   8  16
#     4   9  18  38  60  83 115 158 199 228 292 376
#     4  10  23  38  60  80 115 167 200 247 315 351
#     4   9  19  37  62  88 120 153 195 239 302 365
#     4  11  21  40  60  85 120 158 211 252 297 370
#     4   9  19  37  62  90 114 155 191 241 298 365
#     4  11  24  38  58  89 118 158 208 258 307 353
#
# _framework density 18.972424
#
# number of rings (size 3 to 8) (size 9 to 14) (size 15 to 20)
#    0.000    2.000    4.000    1.800    2.800    3.200 
#    0.000    2.000    0.000    0.000    0.000    0.000 
#    0.000    0.000    0.000    0.000    0.000    0.000 
#
# Total GULP energy -495603.756477 kJ/mol
# GULP energy per Si atom -12390.093912 kJ/mol
# Density = 1.892924 g / cm^3
# Si number density = 18.972424 Si / 1000 Ang^3
#
#
#
# Elastic Constant Matrix: (Units=GPa)
#
#
# Indices 1 2 3 4 5 6 
#
# 1 89.7948 21.0996 34.3861 0.0000 0.0000 0.0000
# 2 21.0996 70.6180 46.6015 0.0000 0.0000 0.0000
# 3 34.3861 46.6015 137.6362 0.0000 0.0000 0.0000
# 4 0.0000 0.0000 0.0000 27.1716 0.0000 0.0000
# 5 0.0000 0.0000 0.0000 0.0000 7.8176 0.0000
# 6 0.0000 0.0000 0.0000 0.0000 0.0000 -3.0147
#
#
#
# Elastic Compliance Matrix: (Units=1/GPa)
#
#
# Indices 1 2 3 4 5 6 
#
# 1 0.012567 -0.002167 -0.002406 0.000000 0.000000 0.000000
# 2 -0.002167 0.018609 -0.005759 0.000000 0.000000 0.000000
# 3 -0.002406 -0.005759 0.009817 0.000000 0.000000 0.000000
# 4 0.000000 0.000000 0.000000 0.036803 0.000000 0.000000
# 5 0.000000 0.000000 0.000000 0.000000 0.127916 0.000000
# 6 0.000000 0.000000 0.000000 0.000000 0.000000 -0.331709
#
#
# Mechanical properties :
#
#
# Convention : Reuss Voigt Hill
#
# Bulk Modulus (GPa) = 49.19361 55.80260 52.49811
# Shear Modulus (GPa) = -50.73192 19.45902 -15.63645
#
# Velocity S-wave (km/s) = -5.17667 3.20605 -2.87395
# Velocity P-wave (km/s) = 3.12173 6.57125 4.08877
#
# Compressibility (1/GPa) = 0.02032784
#
# Stress axis : x y z
#
# Youngs Moduli (GPa) = 79.57317 53.73806 101.86836
#
# Poissons Ratio (x) = 0.11646 0.24508
# Poissons Ratio (y) = 0.17245 0.58668
# Poissons Ratio (z) = 0.19144 0.30949
#
# Static dielectric constant tensor:
#      x y z
#    x 3.455540 0.000000 0.000000 
#    y 0.000000 3.378780 0.000000 
#    z 0.000000 0.000000 3.751830 
# 
# 
# High freq. dielectric constant tensor:
#      x y z
#    x 1.740770 0.000000 0.000000 
#    y 0.000000 1.718770 0.000000 
#    z 0.000000 0.000000 1.736220 
# 
# From -- ./inp_files/19645.got.cif
#   From: 2010.03.12/outbox.cif.g09.slc.cpg/sg64_10_cif.got.tgz:19645.got - 2010.04.10 20:19:32.
