data_PCOD8264399
_publ_section_title
;
Structure prediction by ZEFSAII (Michael W. Deem and Ramdas Pophale) SiO2 
 PCOD8264399
Probable space group: C M C A
;
_chemical_formula_sum "Si O2"
_cell_formula_units_Z 104
_cell_length_a 15.398175
_cell_length_b 10.598773
_cell_length_c 30.294421
_cell_angle_alpha 90.000000
_cell_angle_beta 90.000000
_cell_angle_gamma 90.000000
_cell_volume 4944.102869
_symmetry_space_group_name_H-M "C M C A"
_symmetry_group_IT_number 64
_symmetry_cell_setting 'orthorhombic'
loop_
_space_group_symop_operation_xyz
x,y,z
-x,1/2-y,1/2+z
x,-y,-z
-x,1/2+y,1/2-z
-x,-y,-z
x,1/2+y,1/2-z
-x,y,z
x,1/2-y,1/2+z
1/2+x,1/2+y,z
1/2-x,-y,1/2+z
1/2+x,1/2-y,-z
1/2-x,y,1/2-z
1/2-x,1/2-y,-z
1/2+x,y,1/2-z
1/2-x,1/2+y,z
1/2+x,-y,1/2+z
loop_
_atom_site_type_symbol
_atom_site_label
_atom_site_fract_x
_atom_site_fract_y
_atom_site_fract_z
Si Si1 0.837998 0.809322 0.725155
Si Si2 0.598712 0.412712 0.286355
Si Si3 0.401243 0.626556 0.098764
Si Si4 0.774694 0.779805 0.350136
Si Si5 0.203699 0.590362 0.564803
Si Si6 0.904120 0.235514 0.005097
Si Si7 0.663244 0.500000 0.500000
O O1 0.750000 0.840319 0.750000
O O2 0.887193 0.688648 0.746654
O O3 0.810340 0.769938 0.675605
O O4 0.892759 0.939558 0.727658
O O5 0.500000 0.395067 0.303827
O O6 0.671185 0.387076 0.323847
O O7 0.500000 0.628907 0.115100
O O8 0.342289 0.666567 0.140402
O O9 0.376505 0.485825 0.084855
O O10 0.385339 0.716725 0.056823
O O11 0.742708 0.825133 0.397117
O O12 0.169728 0.670017 0.523466
O O13 0.278703 0.502445 0.544560
O O14 0.000000 0.183409 0.992895
O O15 0.900728 0.382857 0.995782
#
# Coordination Sequence:
#
# PCOD8264399 Si02
#       7
#    16  16  16  16  16  16   8
#     4  10  22  43  68  95 128 163 206 249 311 385
#     4  11  23  43  69  99 128 164 202 256 317 380
#     4  11  22  38  59  87 121 161 210 263 312 364
#     4  11  23  40  62  94 129 164 208 254 311 380
#     4  12  22  39  62  88 121 167 216 264 311 365
#     4  11  23  39  57  84 118 162 213 268 316 362
#     4  12  21  38  59  84 116 164 216 260 317 374
#
# _framework density 21.035162
#
# number of rings (size 3 to 8) (size 9 to 14) (size 15 to 20)
#    0.000    0.923    3.077    5.308    0.000    2.462 
#    0.000    7.692    0.000    0.000    0.000    0.000 
#    0.000    0.000    0.000    0.000    0.000    0.000 
#
# Total GULP energy -644695.238647 kJ/mol
# GULP energy per Si atom -12397.985359 kJ/mol
# Density = 2.098729 g / cm^3
# Si number density = 21.035162 Si / 1000 Ang^3
#
#
#
# Elastic Constant Matrix: (Units=GPa)
#
#
# Indices 1 2 3 4 5 6 
#
# 1 86.7412 31.6997 30.0298 0.0000 0.0000 0.0000
# 2 31.6997 95.1953 2.5324 0.0000 0.0000 0.0000
# 3 30.0298 2.5324 55.8492 0.0000 0.0000 0.0000
# 4 0.0000 0.0000 0.0000 26.4757 0.0000 0.0000
# 5 0.0000 0.0000 0.0000 0.0000 28.4104 0.0000
# 6 0.0000 0.0000 0.0000 0.0000 0.0000 30.6500
#
#
#
# Elastic Compliance Matrix: (Units=1/GPa)
#
#
# Indices 1 2 3 4 5 6 
#
# 1 0.016417 -0.005238 -0.008590 0.000000 0.000000 0.000000
# 2 -0.005238 0.012189 0.002264 0.000000 0.000000 0.000000
# 3 -0.008590 0.002264 0.022421 0.000000 0.000000 0.000000
# 4 0.000000 0.000000 0.000000 0.037770 0.000000 0.000000
# 5 0.000000 0.000000 0.000000 0.000000 0.035198 0.000000
# 6 0.000000 0.000000 0.000000 0.000000 0.000000 0.032626
#
#
# Mechanical properties :
#
#
# Convention : Reuss Voigt Hill
#
# Bulk Modulus (GPa) = 35.84379 40.70106 38.27243
# Shear Modulus (GPa) = 26.44815 28.67548 27.56182
#
# Velocity S-wave (km/s) = 3.54973 3.69618 3.62370
# Velocity P-wave (km/s) = 5.82046 6.13243 5.97848
#
# Compressibility (1/GPa) = 0.02789883
#
# Stress axis : x y z
#
# Youngs Moduli (GPa) = 60.91417 82.04271 44.60052
#
# Poissons Ratio (x) = 0.42975 0.38310
# Poissons Ratio (y) = 0.31908 -0.10097
# Poissons Ratio (z) = 0.52323 -0.18573
#
# Static dielectric constant tensor:
#      x y z
#    x 3.921620 0.000000 0.000000 
#    y 0.000000 3.782220 0.000000 
#    z 0.000000 0.000000 3.873810 
# 
# 
# High freq. dielectric constant tensor:
#      x y z
#    x 1.830350 0.000000 0.000000 
#    y 0.000000 1.826910 0.000000 
#    z 0.000000 0.000000 1.816950 
# 
# From -- ./inp_files/53235.got.cif
#   From: 2010.03.12/outbox.cif.g09.slc.cpg/sg64_27_cif.got.tgz:53235.got - 2010.04.10 20:19:32.
