data_PCOD8264878
_publ_section_title
;
Structure prediction by ZEFSAII (Michael W. Deem and Ramdas Pophale) SiO2 
 PCOD8264878
Probable space group: C M C A
;
_chemical_formula_sum "Si O2"
_cell_formula_units_Z 56
_cell_length_a 9.758303
_cell_length_b 16.080503
_cell_length_c 17.056705
_cell_angle_alpha 90.000000
_cell_angle_beta 90.000000
_cell_angle_gamma 90.000000
_cell_volume 2676.511210
_symmetry_space_group_name_H-M "C M C A"
_symmetry_group_IT_number 64
_symmetry_cell_setting 'orthorhombic'
loop_
_space_group_symop_operation_xyz
x,y,z
-x,1/2-y,1/2+z
x,-y,-z
-x,1/2+y,1/2-z
-x,-y,-z
x,1/2+y,1/2-z
-x,y,z
x,1/2-y,1/2+z
1/2+x,1/2+y,z
1/2-x,-y,1/2+z
1/2+x,1/2-y,-z
1/2-x,y,1/2-z
1/2-x,1/2-y,-z
1/2+x,y,1/2-z
1/2-x,1/2+y,z
1/2+x,-y,1/2+z
loop_
_atom_site_type_symbol
_atom_site_label
_atom_site_fract_x
_atom_site_fract_y
_atom_site_fract_z
Si Si1 0.750000 0.751504 0.750000
Si Si2 0.000000 0.178459 0.836605
Si Si3 0.500000 0.093735 0.034372
Si Si4 0.788262 0.634663 0.394233
Si Si5 0.000000 0.497792 0.593294
Si Si6 0.500000 0.266897 0.992185
O O1 0.631684 0.692730 0.782935
O O2 0.806977 0.809776 0.818008
O O3 0.000000 0.086244 0.867984
O O4 0.000000 0.238053 0.912729
O O5 0.366034 0.108750 0.086834
O O6 0.500000 0.168028 0.967983
O O7 0.500000 0.000000 0.000000
O O8 0.864742 0.548743 0.377305
O O9 0.862966 0.685581 0.464405
O O10 0.000000 0.500000 0.500000
#
# Coordination Sequence:
#
# PCOD8264878 Si02
#       6
#     8   8   8  16   8   8
#     4  12  26  46  68 102 142 188 220 284 368 430
#     4  12  25  46  73 101 136 186 238 280 354 431
#     4  12  25  38  70 110 135 177 243 299 330 415
#     4  11  24  45  70  98 146 183 225 291 362 414
#     4  11  23  44  72 100 132 182 236 294 341 407
#     4  11  23  45  72  96 135 195 240 286 343 424
#
# _framework density 20.92276
#
# number of rings (size 3 to 8) (size 9 to 14) (size 15 to 20)
#    0.000    0.571    5.714    3.429    0.000    1.143 
#    0.000    4.286    0.000    0.000    0.000    0.000 
#    0.000    0.000    0.000    0.000    0.000    0.000 
#
# Total GULP energy -347140.966993 kJ/mol
# GULP energy per Si atom -12397.891678 kJ/mol
# Density = 2.087514 g / cm^3
# Si number density = 20.922760 Si / 1000 Ang^3
#
#
#
# Elastic Constant Matrix: (Units=GPa)
#
#
# Indices 1 2 3 4 5 6 
#
# 1 174.4671 76.4948 71.3741 0.0000 0.0000 0.0000
# 2 76.4948 192.7947 59.6068 0.0000 0.0000 0.0000
# 3 71.3741 59.6068 119.7687 0.0000 0.0000 0.0000
# 4 0.0000 0.0000 0.0000 43.7746 0.0000 0.0000
# 5 0.0000 0.0000 0.0000 0.0000 22.8996 0.0000
# 6 0.0000 0.0000 0.0000 0.0000 0.0000 11.9350
#
#
#
# Elastic Compliance Matrix: (Units=1/GPa)
#
#
# Indices 1 2 3 4 5 6 
#
# 1 0.008221 -0.002065 -0.003871 0.000000 0.000000 0.000000
# 2 -0.002065 0.006649 -0.002078 0.000000 0.000000 0.000000
# 3 -0.003871 -0.002078 0.011691 0.000000 0.000000 0.000000
# 4 0.000000 0.000000 0.000000 0.022844 0.000000 0.000000
# 5 0.000000 0.000000 0.000000 0.000000 0.043669 0.000000
# 6 0.000000 0.000000 0.000000 0.000000 0.000000 0.083787
#
#
# Mechanical properties :
#
#
# Convention : Reuss Voigt Hill
#
# Bulk Modulus (GPa) = 94.95706 100.22022 97.58864
# Shear Modulus (GPa) = 25.45812 34.35882 29.90847
#
# Velocity S-wave (km/s) = 3.49200 4.05677 3.78494
# Velocity P-wave (km/s) = 7.85760 8.36345 8.11447
#
# Compressibility (1/GPa) = 0.01053108
#
# Stress axis : x y z
#
# Youngs Moduli (GPa) = 121.64169 150.40476 85.53612
#
# Poissons Ratio (x) = 0.31056 0.33115
# Poissons Ratio (y) = 0.25117 0.17778
# Poissons Ratio (z) = 0.47093 0.31261
#
# Static dielectric constant tensor:
#      x y z
#    x 4.051290 0.000000 0.000000 
#    y 0.000000 4.063310 0.000000 
#    z 0.000000 0.000000 3.612330 
# 
# 
# High freq. dielectric constant tensor:
#      x y z
#    x 1.839350 0.000000 0.000000 
#    y 0.000000 1.838530 0.000000 
#    z 0.000000 0.000000 1.802820 
# 
# From -- ./inp_files/29143.got.cif
#   From: 2010.03.12/outbox.cif.g09.slc.cpg/sg64_15_cif.got.tgz:29143.got - 2010.04.10 20:19:32.
