data_PCOD8264425
_publ_section_title
;
Structure prediction by ZEFSAII (Michael W. Deem and Ramdas Pophale) SiO2 
 PCOD8264425
Probable space group: C M C A
;
_chemical_formula_sum "Si O2"
_cell_formula_units_Z 48
_cell_length_a 22.999174
_cell_length_b 8.117099
_cell_length_c 10.122796
_cell_angle_alpha 90.000000
_cell_angle_beta 90.000000
_cell_angle_gamma 90.000000
_cell_volume 1889.790087
_symmetry_space_group_name_H-M "C M C A"
_symmetry_group_IT_number 64
_symmetry_cell_setting 'orthorhombic'
loop_
_space_group_symop_operation_xyz
x,y,z
-x,1/2-y,1/2+z
x,-y,-z
-x,1/2+y,1/2-z
-x,-y,-z
x,1/2+y,1/2-z
-x,y,z
x,1/2-y,1/2+z
1/2+x,1/2+y,z
1/2-x,-y,1/2+z
1/2+x,1/2-y,-z
1/2-x,y,1/2-z
1/2-x,1/2-y,-z
1/2+x,y,1/2-z
1/2-x,1/2+y,z
1/2+x,-y,1/2+z
loop_
_atom_site_type_symbol
_atom_site_label
_atom_site_fract_x
_atom_site_fract_y
_atom_site_fract_z
Si Si1 0.434275 0.874894 0.617864
Si Si2 0.634896 0.424168 0.303731
Si Si3 0.210370 0.708085 0.126705
O O1 0.500000 0.807478 0.624595
O O2 0.388715 0.723572 0.602937
O O3 0.425270 0.000000 0.500000
O O4 0.420209 0.970673 0.753264
O O5 0.668599 0.358140 0.172395
O O6 0.674888 0.538511 0.396205
O O7 0.250000 0.665413 0.250000
O O8 0.250000 0.750000 0.000000
#
# Coordination Sequence:
#
# PCOD8264425 Si02
#       3
#    16  16  16
#     4  10  22  45  74 106 143 189 245 307 379 450
#     4  10  24  44  72 106 146 193 240 314 367 453
#     4  11  26  46  71 107 145 196 248 304 367 444
#
# _framework density 25.399646000000001
#
# number of rings (size 3 to 8) (size 9 to 14) (size 15 to 20)
#    0.000    1.667    0.000    2.000    9.333    4.000 
#    6.000    1.667    0.000   10.000    0.000    0.000 
#    0.000    0.000    0.000    0.000    0.000    0.000 
#
# Total GULP energy -297517.233148 kJ/mol
# GULP energy per Si atom -12396.551381 kJ/mol
# Density = 2.534183 g / cm^3
# Si number density = 25.399646 Si / 1000 Ang^3
#
#
#
# Elastic Constant Matrix: (Units=GPa)
#
#
# Indices 1 2 3 4 5 6 
#
# 1 161.0848 89.8714 69.9376 0.0000 0.0000 0.0000
# 2 89.8714 175.8881 55.6371 0.0000 0.0000 0.0000
# 3 69.9376 55.6371 135.0282 0.0000 0.0000 0.0000
# 4 0.0000 0.0000 0.0000 30.7376 0.0000 0.0000
# 5 0.0000 0.0000 0.0000 0.0000 34.4822 0.0000
# 6 0.0000 0.0000 0.0000 0.0000 0.0000 43.3271
#
#
#
# Elastic Compliance Matrix: (Units=1/GPa)
#
#
# Indices 1 2 3 4 5 6 
#
# 1 0.009951 -0.003972 -0.003518 0.000000 0.000000 0.000000
# 2 -0.003972 0.008123 -0.001290 0.000000 0.000000 0.000000
# 3 -0.003518 -0.001290 0.009759 0.000000 0.000000 0.000000
# 4 0.000000 0.000000 0.000000 0.032533 0.000000 0.000000
# 5 0.000000 0.000000 0.000000 0.000000 0.029000 0.000000
# 6 0.000000 0.000000 0.000000 0.000000 0.000000 0.023080
#
#
# Mechanical properties :
#
#
# Convention : Reuss Voigt Hill
#
# Bulk Modulus (GPa) = 97.32558 100.32147 98.82352
# Shear Modulus (GPa) = 37.47267 38.81306 38.14287
#
# Velocity S-wave (km/s) = 3.84516 3.91333 3.87939
# Velocity P-wave (km/s) = 7.62329 7.74608 7.68493
#
# Compressibility (1/GPa) = 0.01027479
#
# Stress axis : x y z
#
# Youngs Moduli (GPa) = 100.49141 123.10914 102.46760
#
# Poissons Ratio (x) = 0.48898 0.36044
# Poissons Ratio (y) = 0.39914 0.13215
# Poissons Ratio (z) = 0.35348 0.15877
#
# Static dielectric constant tensor:
#      x y z
#    x 4.919920 0.000000 0.000000 
#    y 0.000000 4.786730 0.000000 
#    z 0.000000 0.000000 4.014440 
# 
# 
# High freq. dielectric constant tensor:
#      x y z
#    x 2.021300 0.000000 0.000000 
#    y 0.000000 2.025840 0.000000 
#    z 0.000000 0.000000 2.011420 
# 
# From -- ./inp_files/17800.got.cif
#   From: 2010.03.12/outbox.cif.g09.slc.cpg/sg64_9_cif.got.tgz:17800.got - 2010.04.10 20:19:32.
