data_PCOD8264190
_publ_section_title
;
Structure prediction by ZEFSAII (Michael W. Deem and Ramdas Pophale) SiO2 
 PCOD8264190
Probable space group: C M C A
;
_chemical_formula_sum "Si O2"
_cell_formula_units_Z 88
_cell_length_a 14.068210
_cell_length_b 22.240643
_cell_length_c 13.798844
_cell_angle_alpha 90.000000
_cell_angle_beta 90.000000
_cell_angle_gamma 90.000000
_cell_volume 4317.465604
_symmetry_space_group_name_H-M "C M C A"
_symmetry_group_IT_number 64
_symmetry_cell_setting 'orthorhombic'
loop_
_space_group_symop_operation_xyz
x,y,z
-x,1/2-y,1/2+z
x,-y,-z
-x,1/2+y,1/2-z
-x,-y,-z
x,1/2+y,1/2-z
-x,y,z
x,1/2-y,1/2+z
1/2+x,1/2+y,z
1/2-x,-y,1/2+z
1/2+x,1/2-y,-z
1/2-x,y,1/2-z
1/2-x,1/2-y,-z
1/2+x,y,1/2-z
1/2-x,1/2+y,z
1/2+x,-y,1/2+z
loop_
_atom_site_type_symbol
_atom_site_label
_atom_site_fract_x
_atom_site_fract_y
_atom_site_fract_z
Si Si1 0.112785 0.019612 0.390588
Si Si2 0.390983 0.649815 0.819532
Si Si3 0.393989 0.260218 0.793853
Si Si4 0.605222 0.151842 0.142369
Si Si5 0.750000 0.444991 0.250000
Si Si6 0.640496 0.258936 0.011620
O O1 0.152455 0.088143 0.382857
O O2 0.000000 0.011153 0.366151
O O3 0.132497 0.000000 0.500000
O O4 0.179047 0.982701 0.317447
O O5 0.500000 0.627887 0.803031
O O6 0.353470 0.694249 0.732764
O O7 0.318978 0.594039 0.819524
O O8 0.385442 0.685120 0.921038
O O9 0.500000 0.258811 0.749288
O O10 0.341107 0.312663 0.730952
O O11 0.399596 0.274471 0.906333
O O12 0.500000 0.133818 0.175570
O O13 0.599396 0.195846 0.049420
O O14 0.750000 0.250000 0.000000
#
# Coordination Sequence:
#
# PCOD8264190 Si02
#       6
#    16  16  16  16   8  16
#     4  10  24  44  68  92 120 169 221 265 311 363
#     4  10  22  38  58  91 127 159 200 253 316 380
#     4   9  18  35  59  83 115 155 189 237 309 371
#     4   9  20  39  59  85 115 151 204 253 300 366
#     4  12  24  42  64  88 124 162 216 264 312 370
#     4  11  21  32  57  92 124 155 195 247 314 377
#
# _framework density 20.382327
#
# number of rings (size 3 to 8) (size 9 to 14) (size 15 to 20)
#    0.000    2.000    0.000    4.364    5.091    3.636 
#    0.000    0.000    0.000    1.091    0.000    0.000 
#    0.000    0.000    0.000    0.000    0.000    0.000 
#
# Total GULP energy -545137.645148 kJ/mol
# GULP energy per Si atom -12389.491935 kJ/mol
# Density = 2.033594 g / cm^3
# Si number density = 20.382327 Si / 1000 Ang^3
#
#
#
# Elastic Constant Matrix: (Units=GPa)
#
#
# Indices 1 2 3 4 5 6 
#
# 1 94.8162 39.1777 25.1644 0.0000 0.0000 0.0000
# 2 39.1777 150.1046 67.2219 0.0000 0.0000 0.0000
# 3 25.1644 67.2219 150.6335 0.0000 0.0000 0.0000
# 4 0.0000 0.0000 0.0000 20.7210 0.0000 0.0000
# 5 0.0000 0.0000 0.0000 0.0000 47.8143 0.0000
# 6 0.0000 0.0000 0.0000 0.0000 0.0000 21.4801
#
#
#
# Elastic Compliance Matrix: (Units=1/GPa)
#
#
# Indices 1 2 3 4 5 6 
#
# 1 0.011889 -0.002767 -0.000752 0.000000 0.000000 0.000000
# 2 -0.002767 0.008970 -0.003541 0.000000 0.000000 0.000000
# 3 -0.000752 -0.003541 0.008344 0.000000 0.000000 0.000000
# 4 0.000000 0.000000 0.000000 0.048260 0.000000 0.000000
# 5 0.000000 0.000000 0.000000 0.000000 0.020914 0.000000
# 6 0.000000 0.000000 0.000000 0.000000 0.000000 0.046555
#
#
# Mechanical properties :
#
#
# Convention : Reuss Voigt Hill
#
# Bulk Modulus (GPa) = 66.28803 73.18689 69.73746
# Shear Modulus (GPa) = 30.47319 35.60243 33.03781
#
# Velocity S-wave (km/s) = 3.87082 4.18392 4.03041
# Velocity P-wave (km/s) = 7.25056 7.70229 7.47983
#
# Compressibility (1/GPa) = 0.01508568
#
# Stress axis : x y z
#
# Youngs Moduli (GPa) = 84.10909 111.48606 119.84296
#
# Poissons Ratio (x) = 0.30843 0.09007
# Poissons Ratio (y) = 0.23269 0.42432
# Poissons Ratio (z) = 0.06322 0.39474
#
# Static dielectric constant tensor:
#      x y z
#    x 3.742420 0.000000 0.000000 
#    y 0.000000 3.836710 0.000000 
#    z 0.000000 0.000000 3.113460 
# 
# 
# High freq. dielectric constant tensor:
#      x y z
#    x 1.803500 0.000000 0.000000 
#    y 0.000000 1.788570 0.000000 
#    z 0.000000 0.000000 1.792190 
# 
# From -- ./inp_files/23780.got.cif
#   From: 2010.03.12/outbox.cif.g09.slc.cpg/sg64_12_cif.got.tgz:23780.got - 2010.04.10 20:19:32.
