data_PCOD8264300
_publ_section_title
;
Structure prediction by ZEFSAII (Michael W. Deem and Ramdas Pophale) SiO2 
 PCOD8264300
Probable space group: C M C A
;
_chemical_formula_sum "Si O2"
_cell_formula_units_Z 72
_cell_length_a 15.285465
_cell_length_b 14.285250
_cell_length_c 15.742026
_cell_angle_alpha 90.000000
_cell_angle_beta 90.000000
_cell_angle_gamma 90.000000
_cell_volume 3437.376674
_symmetry_space_group_name_H-M "C M C A"
_symmetry_group_IT_number 64
_symmetry_cell_setting 'orthorhombic'
loop_
_space_group_symop_operation_xyz
x,y,z
-x,1/2-y,1/2+z
x,-y,-z
-x,1/2+y,1/2-z
-x,-y,-z
x,1/2+y,1/2-z
-x,y,z
x,1/2-y,1/2+z
1/2+x,1/2+y,z
1/2-x,-y,1/2+z
1/2+x,1/2-y,-z
1/2-x,y,1/2-z
1/2-x,1/2-y,-z
1/2+x,y,1/2-z
1/2-x,1/2+y,z
1/2+x,-y,1/2+z
loop_
_atom_site_type_symbol
_atom_site_label
_atom_site_fract_x
_atom_site_fract_y
_atom_site_fract_z
Si Si1 0.331275 0.862106 0.197087
Si Si2 0.811994 0.200689 0.067638
Si Si3 0.000000 0.785476 0.934545
Si Si4 0.319556 0.043797 0.091269
Si Si5 0.000000 0.849482 0.586301
Si Si6 0.000000 0.788589 0.245686
O O1 0.250000 0.826718 0.250000
O O2 0.344215 0.786049 0.124700
O O3 0.416744 0.858014 0.256605
O O4 0.313824 0.965391 0.162822
O O5 0.908385 0.161339 0.037442
O O6 0.756319 0.119277 0.112742
O O7 0.750000 0.250000 0.000000
O O8 0.000000 0.772903 0.832060
O O9 0.000000 0.690319 0.990709
O O10 0.415139 0.086930 0.095775
O O11 0.298971 0.000000 0.000000
O O12 0.000000 0.773084 0.660793
#
# Coordination Sequence:
#
# PCOD8264300 Si02
#       6
#    16  16   8  16   8   8
#     4  11  24  41  63  95 134 169 217 274 328 400
#     4  11  21  42  67  92 128 170 221 272 339 396
#     4  10  22  40  65  95 126 166 216 276 324 392
#     4  12  23  39  67  97 128 170 229 275 331 401
#     4  12  22  38  72  96 128 178 217 272 345 396
#     4  10  23  42  63  95 132 166 217 275 333 396
#
# _framework density 20.946204999999999
#
# number of rings (size 3 to 8) (size 9 to 14) (size 15 to 20)
#    0.000    0.889    4.444    3.667    0.000    4.444 
#    0.000    1.667    0.000    0.000    0.000    0.000 
#    0.000    0.000    0.000    0.000    0.000    0.000 
#
# Total GULP energy -446089.093452 kJ/mol
# GULP energy per Si atom -12391.363707 kJ/mol
# Density = 2.089853 g / cm^3
# Si number density = 20.946205 Si / 1000 Ang^3
#
#
#
# Elastic Constant Matrix: (Units=GPa)
#
#
# Indices 1 2 3 4 5 6 
#
# 1 205.7180 36.6664 3.7438 0.0000 0.0000 0.0000
# 2 36.6664 96.4033 7.3353 0.0000 0.0000 0.0000
# 3 3.7438 7.3353 55.8344 0.0000 0.0000 0.0000
# 4 0.0000 0.0000 0.0000 19.4807 0.0000 0.0000
# 5 0.0000 0.0000 0.0000 0.0000 23.6870 0.0000
# 6 0.0000 0.0000 0.0000 0.0000 0.0000 22.6688
#
#
#
# Elastic Compliance Matrix: (Units=1/GPa)
#
#
# Indices 1 2 3 4 5 6 
#
# 1 0.005215 -0.001977 -0.000090 0.000000 0.000000 0.000000
# 2 -0.001977 0.011227 -0.001342 0.000000 0.000000 0.000000
# 3 -0.000090 -0.001342 0.018093 0.000000 0.000000 0.000000
# 4 0.000000 0.000000 0.000000 0.051333 0.000000 0.000000
# 5 0.000000 0.000000 0.000000 0.000000 0.042217 0.000000
# 6 0.000000 0.000000 0.000000 0.000000 0.000000 0.044114
#
#
# Mechanical properties :
#
#
# Convention : Reuss Voigt Hill
#
# Bulk Modulus (GPa) = 36.07969 50.38295 43.23132
# Shear Modulus (GPa) = 26.55970 33.84796 30.20383
#
# Velocity S-wave (km/s) = 3.56476 4.02425 3.80145
# Velocity P-wave (km/s) = 5.84856 6.76006 6.32076
#
# Compressibility (1/GPa) = 0.02771642
#
# Stress axis : x y z
#
# Youngs Moduli (GPa) = 191.75569 89.07067 55.27147
#
# Poissons Ratio (x) = 0.17606 0.00497
# Poissons Ratio (y) = 0.37903 0.07420
# Poissons Ratio (z) = 0.01726 0.11957
#
# Static dielectric constant tensor:
#      x y z
#    x 5.477620 0.000000 0.000000 
#    y 0.000000 3.739160 0.000000 
#    z 0.000000 0.000000 4.139890 
# 
# 
# High freq. dielectric constant tensor:
#      x y z
#    x 1.861440 0.000000 0.000000 
#    y 0.000000 1.796510 0.000000 
#    z 0.000000 0.000000 1.806950 
# 
# From -- ./inp_files/31940.got.cif
#   From: 2010.03.12/outbox.cif.g09.slc.cpg/sg64_16_cif.got.tgz:31940.got - 2010.04.10 20:19:32.
