data_PCOD8264058
_publ_section_title
;
Structure prediction by ZEFSAII (Michael W. Deem and Ramdas Pophale) SiO2 
 PCOD8264058
Probable space group: C M C A
;
_chemical_formula_sum "Si O2"
_cell_formula_units_Z 112
_cell_length_a 14.670126
_cell_length_b 12.424070
_cell_length_c 28.723507
_cell_angle_alpha 90.000000
_cell_angle_beta 90.000000
_cell_angle_gamma 90.000000
_cell_volume 5235.223145
_symmetry_space_group_name_H-M "C M C A"
_symmetry_group_IT_number 64
_symmetry_cell_setting 'orthorhombic'
loop_
_space_group_symop_operation_xyz
x,y,z
-x,1/2-y,1/2+z
x,-y,-z
-x,1/2+y,1/2-z
-x,-y,-z
x,1/2+y,1/2-z
-x,y,z
x,1/2-y,1/2+z
1/2+x,1/2+y,z
1/2-x,-y,1/2+z
1/2+x,1/2-y,-z
1/2-x,y,1/2-z
1/2-x,1/2-y,-z
1/2+x,y,1/2-z
1/2-x,1/2+y,z
1/2+x,-y,1/2+z
loop_
_atom_site_type_symbol
_atom_site_label
_atom_site_fract_x
_atom_site_fract_y
_atom_site_fract_z
Si Si1 0.835304 0.933397 0.865214
Si Si2 0.804793 0.018570 0.703592
Si Si3 0.397403 0.168721 0.629255
Si Si4 0.273355 0.602201 0.031317
Si Si5 0.610115 0.751496 0.969983
Si Si6 0.895149 0.731724 0.812254
Si Si7 0.604785 0.806811 0.786534
O O1 0.753026 0.944111 0.830078
O O2 0.797834 0.925623 0.916525
O O3 0.888314 0.824436 0.851382
O O4 0.895479 0.041577 0.859876
O O5 0.750000 0.051044 0.750000
O O6 0.887507 0.936387 0.713577
O O7 0.839338 0.123309 0.675358
O O8 0.500000 0.209631 0.627226
O O9 0.357718 0.193584 0.578040
O O10 0.348103 0.239491 0.670336
O O11 0.167102 0.637613 0.028871
O O12 0.285320 0.500000 0.000000
O O13 0.349978 0.685850 0.013581
O O14 0.500000 0.767795 0.974767
O O15 0.853685 0.768920 0.762680
O O16 0.000000 0.698855 0.807923
O O17 0.500000 0.774626 0.787253
#
# Coordination Sequence:
#
# PCOD8264058 Si02
#       7
#    16  16  16  16  16  16  16
#     4  12  25  40  68  96 135 173 221 277 335 394
#     4  12  25  39  65  93 132 172 224 270 332 393
#     4  10  21  40  67  97 130 176 226 272 332 401
#     4  11  24  44  68 100 137 174 223 280 338 399
#     4  10  23  43  70 100 135 175 223 276 335 403
#     4  11  26  44  63  92 133 176 222 272 332 398
#     4  10  22  41  63  91 131 176 222 271 326 399
#
# _framework density 21.393547999999999
#
# number of rings (size 3 to 8) (size 9 to 14) (size 15 to 20)
#    0.000    1.143    2.857    2.571    6.000    1.714 
#    0.000    0.714    0.000    0.000    0.000    0.000 
#    0.000    0.000    0.000    0.000    0.000    0.000 
#
# Total GULP energy -694029.680956 kJ/mol
# GULP energy per Si atom -12393.387160 kJ/mol
# Density = 2.134486 g / cm^3
# Si number density = 21.393548 Si / 1000 Ang^3
#
#
#
# Elastic Constant Matrix: (Units=GPa)
#
#
# Indices 1 2 3 4 5 6 
#
# 1 74.0961 23.6836 27.0422 0.0000 0.0000 0.0000
# 2 23.6836 82.8133 8.9780 0.0000 0.0000 0.0000
# 3 27.0422 8.9780 102.2988 0.0000 0.0000 0.0000
# 4 0.0000 0.0000 0.0000 28.1313 0.0000 0.0000
# 5 0.0000 0.0000 0.0000 0.0000 21.7658 0.0000
# 6 0.0000 0.0000 0.0000 0.0000 0.0000 16.6936
#
#
#
# Elastic Compliance Matrix: (Units=1/GPa)
#
#
# Indices 1 2 3 4 5 6 
#
# 1 0.016284 -0.004231 -0.003933 0.000000 0.000000 0.000000
# 2 -0.004231 0.013290 -0.000048 0.000000 0.000000 0.000000
# 3 -0.003933 -0.000048 0.010819 0.000000 0.000000 0.000000
# 4 0.000000 0.000000 0.000000 0.035548 0.000000 0.000000
# 5 0.000000 0.000000 0.000000 0.000000 0.045944 0.000000
# 6 0.000000 0.000000 0.000000 0.000000 0.000000 0.059903
#
#
# Mechanical properties :
#
#
# Convention : Reuss Voigt Hill
#
# Bulk Modulus (GPa) = 41.71935 42.06841 41.89388
# Shear Modulus (GPa) = 24.24816 26.61845 25.43330
#
# Velocity S-wave (km/s) = 3.37030 3.53119 3.45168
# Velocity P-wave (km/s) = 5.88969 6.02764 5.95907
#
# Compressibility (1/GPa) = 0.02396969
#
# Stress axis : x y z
#
# Youngs Moduli (GPa) = 61.41115 75.24205 92.42793
#
# Poissons Ratio (x) = 0.31831 0.36354
# Poissons Ratio (y) = 0.25980 0.00444
# Poissons Ratio (z) = 0.24154 0.00362
#
# Static dielectric constant tensor:
#      x y z
#    x 3.703170 0.000000 0.000000 
#    y 0.000000 3.803640 0.000000 
#    z 0.000000 0.000000 3.765930 
# 
# 
# High freq. dielectric constant tensor:
#      x y z
#    x 1.832650 0.000000 0.000000 
#    y 0.000000 1.845420 0.000000 
#    z 0.000000 0.000000 1.843650 
# 
# From -- ./inp_files/53270.got.cif
#   From: 2010.03.12/outbox.cif.g09.slc.cpg/sg64_27_cif.got.tgz:53270.got - 2010.04.10 20:19:32.
