data_PCOD8264025
_publ_section_title
;
Structure prediction by ZEFSAII (Michael W. Deem and Ramdas Pophale) SiO2 
 PCOD8264025
Probable space group: C M C A
;
_chemical_formula_sum "Si O2"
_cell_formula_units_Z 96
_cell_length_a 8.792748
_cell_length_b 19.540652
_cell_length_c 27.607569
_cell_angle_alpha 90.000000
_cell_angle_beta 90.000000
_cell_angle_gamma 90.000000
_cell_volume 4743.422870
_symmetry_space_group_name_H-M "C M C A"
_symmetry_group_IT_number 64
_symmetry_cell_setting 'orthorhombic'
loop_
_space_group_symop_operation_xyz
x,y,z
-x,1/2-y,1/2+z
x,-y,-z
-x,1/2+y,1/2-z
-x,-y,-z
x,1/2+y,1/2-z
-x,y,z
x,1/2-y,1/2+z
1/2+x,1/2+y,z
1/2-x,-y,1/2+z
1/2+x,1/2-y,-z
1/2-x,y,1/2-z
1/2-x,1/2-y,-z
1/2+x,y,1/2-z
1/2-x,1/2+y,z
1/2+x,-y,1/2+z
loop_
_atom_site_type_symbol
_atom_site_label
_atom_site_fract_x
_atom_site_fract_y
_atom_site_fract_z
Si Si1 0.177666 0.145531 0.799418
Si Si2 0.679964 0.734897 0.145413
Si Si3 0.321954 0.613436 0.302411
Si Si4 0.680918 0.705243 0.542534
Si Si5 0.823608 0.550203 0.960190
Si Si6 0.673951 0.028113 0.852319
O O1 0.250000 0.117783 0.750000
O O2 0.256565 0.216529 0.812679
O O3 0.000000 0.157312 0.793721
O O4 0.211826 0.088915 0.839688
O O5 0.500000 0.732380 0.148635
O O6 0.747651 0.660404 0.156212
O O7 0.735544 0.761652 0.093167
O O8 0.500000 0.628716 0.299351
O O9 0.250000 0.626511 0.250000
O O10 0.287644 0.536701 0.319446
O O11 0.500000 0.706546 0.539288
O O12 0.750000 0.750000 0.500000
O O13 0.744922 0.627331 0.539104
O O14 0.798797 0.512755 0.908839
O O15 0.000000 0.558172 0.972743
O O16 0.745899 0.500000 0.000000
O O17 0.500000 0.052681 0.844118
#
# Coordination Sequence:
#
# PCOD8264025 Si02
#       6
#    16  16  16  16  16  16
#     4  12  24  39  63  91 121 158 203 254 307 368
#     4  11  23  42  63  87 125 165 204 254 306 363
#     4  11  24  40  62  91 124 164 208 256 305 369
#     4  10  22  39  63  91 124 159 199 249 304 364
#     4   9  18  36  63  91 120 158 200 246 300 362
#     4  10  21  40  63  90 125 161 204 250 304 366
#
# _framework density 20.238548999999999
#
# number of rings (size 3 to 8) (size 9 to 14) (size 15 to 20)
#    0.000    1.500    1.667    3.500    2.333    4.000 
#    0.000    0.000    0.000    1.000    0.000    0.000 
#    0.000    0.000    0.000    0.000    0.000    0.000 
#
# Total GULP energy -595338.348235 kJ/mol
# GULP energy per Si atom -12402.882255 kJ/mol
# Density = 2.019248 g / cm^3
# Si number density = 20.238549 Si / 1000 Ang^3
#
#
#
# Elastic Constant Matrix: (Units=GPa)
#
#
# Indices 1 2 3 4 5 6 
#
# 1 72.1061 35.9336 26.8667 0.0000 0.0000 0.0000
# 2 35.9336 93.0686 40.5174 0.0000 0.0000 0.0000
# 3 26.8667 40.5174 108.6767 0.0000 0.0000 0.0000
# 4 0.0000 0.0000 0.0000 45.5319 0.0000 0.0000
# 5 0.0000 0.0000 0.0000 0.0000 28.2978 0.0000
# 6 0.0000 0.0000 0.0000 0.0000 0.0000 30.4565
#
#
#
# Elastic Compliance Matrix: (Units=1/GPa)
#
#
# Indices 1 2 3 4 5 6 
#
# 1 0.017591 -0.005848 -0.002169 0.000000 0.000000 0.000000
# 2 -0.005848 0.014771 -0.004061 0.000000 0.000000 0.000000
# 3 -0.002169 -0.004061 0.011252 0.000000 0.000000 0.000000
# 4 0.000000 0.000000 0.000000 0.021963 0.000000 0.000000
# 5 0.000000 0.000000 0.000000 0.000000 0.035338 0.000000
# 6 0.000000 0.000000 0.000000 0.000000 0.000000 0.032834
#
#
# Mechanical properties :
#
#
# Convention : Reuss Voigt Hill
#
# Bulk Modulus (GPa) = 51.39214 53.38742 52.38978
# Shear Modulus (GPa) = 30.41575 32.22615 31.32095
#
# Velocity S-wave (km/s) = 3.88088 3.99471 3.93821
# Velocity P-wave (km/s) = 6.74759 6.90748 6.82800
#
# Compressibility (1/GPa) = 0.01945823
#
# Stress axis : x y z
#
# Youngs Moduli (GPa) = 56.84870 67.70225 88.87448
#
# Poissons Ratio (x) = 0.39590 0.19273
# Poissons Ratio (y) = 0.33243 0.36094
# Poissons Ratio (z) = 0.12328 0.27495
#
# Static dielectric constant tensor:
#      x y z
#    x 3.466670 0.000000 0.000000 
#    y 0.000000 3.868700 0.000000 
#    z 0.000000 0.000000 3.810340 
# 
# 
# High freq. dielectric constant tensor:
#      x y z
#    x 1.769860 0.000000 0.000000 
#    y 0.000000 1.800340 0.000000 
#    z 0.000000 0.000000 1.802850 
# 
# From -- ./inp_files/48150.got.cif
#   From: 2010.03.12/outbox.cif.g09.slc.cpg/sg64_25_cif.got.tgz:48150.got - 2010.04.10 20:19:32.
