data_PCOD8264295
_publ_section_title
;
Structure prediction by ZEFSAII (Michael W. Deem and Ramdas Pophale) SiO2 
 PCOD8264295
Probable space group: C M C A
;
_chemical_formula_sum "Si O2"
_cell_formula_units_Z 80
_cell_length_a 18.145350
_cell_length_b 13.316513
_cell_length_c 15.623209
_cell_angle_alpha 90.000000
_cell_angle_beta 90.000000
_cell_angle_gamma 90.000000
_cell_volume 3775.079566
_symmetry_space_group_name_H-M "C M C A"
_symmetry_group_IT_number 64
_symmetry_cell_setting 'orthorhombic'
loop_
_space_group_symop_operation_xyz
x,y,z
-x,1/2-y,1/2+z
x,-y,-z
-x,1/2+y,1/2-z
-x,-y,-z
x,1/2+y,1/2-z
-x,y,z
x,1/2-y,1/2+z
1/2+x,1/2+y,z
1/2-x,-y,1/2+z
1/2+x,1/2-y,-z
1/2-x,y,1/2-z
1/2-x,1/2-y,-z
1/2+x,y,1/2-z
1/2-x,1/2+y,z
1/2+x,-y,1/2+z
loop_
_atom_site_type_symbol
_atom_site_label
_atom_site_fract_x
_atom_site_fract_y
_atom_site_fract_z
Si Si1 0.232989 0.950246 0.584147
Si Si2 0.780696 0.650472 0.844585
Si Si3 0.851692 0.769947 0.613074
Si Si4 0.645030 0.660305 0.192342
Si Si5 0.500000 0.154871 0.567182
Si Si6 0.000000 0.930733 0.877558
O O1 0.173899 0.864911 0.554296
O O2 0.292296 0.910537 0.652177
O O3 0.271081 0.000000 0.500000
O O4 0.189161 0.041595 0.629789
O O5 0.750000 0.648842 0.750000
O O6 0.709383 0.683525 0.901179
O O7 0.847327 0.730903 0.853790
O O8 0.846918 0.821147 0.706848
O O9 0.930250 0.724462 0.588962
O O10 0.568684 0.607109 0.175763
O O11 0.500000 0.121683 0.469418
O O12 0.500000 0.052201 0.621919
#
# Coordination Sequence:
#
# PCOD8264295 Si02
#       6
#    16  16  16  16   8   8
#     4  11  23  35  64  96 126 161 208 263 317 368
#     4   9  19  37  62  87 119 158 204 254 313 377
#     4  10  22  42  62  89 127 167 209 258 313 388
#     4  10  22  40  64  90 125 165 213 259 313 386
#     4  11  25  40  64  89 127 165 210 265 319 370
#     4  11  25  40  65  94 124 162 215 266 313 374
#
# _framework density 21.191607000000001
#
# number of rings (size 3 to 8) (size 9 to 14) (size 15 to 20)
#    0.000    1.800    0.000    4.800    8.400    3.200 
#    0.000    1.500    0.000    0.000    0.000    0.000 
#    0.000    0.000    0.000    0.000    0.000    0.000 
#
# Total GULP energy -495570.053949 kJ/mol
# GULP energy per Si atom -12389.251349 kJ/mol
# Density = 2.114337 g / cm^3
# Si number density = 21.191607 Si / 1000 Ang^3
#
#
#
# Elastic Constant Matrix: (Units=GPa)
#
#
# Indices 1 2 3 4 5 6 
#
# 1 104.7936 52.9351 7.8894 0.0000 0.0000 0.0000
# 2 52.9351 160.6518 25.8833 0.0000 0.0000 0.0000
# 3 7.8894 25.8833 47.7312 0.0000 0.0000 0.0000
# 4 0.0000 0.0000 0.0000 32.6375 0.0000 0.0000
# 5 0.0000 0.0000 0.0000 0.0000 30.3501 0.0000
# 6 0.0000 0.0000 0.0000 0.0000 0.0000 56.4314
#
#
#
# Elastic Compliance Matrix: (Units=1/GPa)
#
#
# Indices 1 2 3 4 5 6 
#
# 1 0.011449 -0.003800 0.000168 0.000000 0.000000 0.000000
# 2 -0.003800 0.008082 -0.003754 0.000000 0.000000 0.000000
# 3 0.000168 -0.003754 0.022959 0.000000 0.000000 0.000000
# 4 0.000000 0.000000 0.000000 0.030640 0.000000 0.000000
# 5 0.000000 0.000000 0.000000 0.000000 0.032949 0.000000
# 6 0.000000 0.000000 0.000000 0.000000 0.000000 0.017721
#
#
# Mechanical properties :
#
#
# Convention : Reuss Voigt Hill
#
# Bulk Modulus (GPa) = 36.07818 54.06581 45.07199
# Shear Modulus (GPa) = 33.82730 38.98173 36.40451
#
# Velocity S-wave (km/s) = 3.99966 4.29358 4.14922
# Velocity P-wave (km/s) = 6.19608 7.08152 6.65355
#
# Compressibility (1/GPa) = 0.02771758
#
# Stress axis : x y z
#
# Youngs Moduli (GPa) = 87.34200 123.73940 43.55638
#
# Poissons Ratio (x) = 0.47016 -0.00732
# Poissons Ratio (y) = 0.33187 0.16353
# Poissons Ratio (z) = -0.01467 0.46456
#
# Static dielectric constant tensor:
#      x y z
#    x 3.731400 0.000000 0.000000 
#    y 0.000000 4.791210 0.000000 
#    z 0.000000 0.000000 3.898420 
# 
# 
# High freq. dielectric constant tensor:
#      x y z
#    x 1.797700 0.000000 0.000000 
#    y 0.000000 1.858650 0.000000 
#    z 0.000000 0.000000 1.835040 
# 
# From -- ./inp_files/39982.got.cif
#   From: 2010.03.12/outbox.cif.g09.slc.cpg/sg64_20_cif.got.tgz:39982.got - 2010.04.10 20:19:32.
