data_PCOD8264660
_publ_section_title
;
Structure prediction by ZEFSAII (Michael W. Deem and Ramdas Pophale) SiO2 
 PCOD8264660
Probable space group: C M C A
;
_chemical_formula_sum "Si O2"
_cell_formula_units_Z 112
_cell_length_a 18.295101
_cell_length_b 19.053575
_cell_length_c 18.936838
_cell_angle_alpha 90.000000
_cell_angle_beta 90.000000
_cell_angle_gamma 90.000000
_cell_volume 6601.137045
_symmetry_space_group_name_H-M "C M C A"
_symmetry_group_IT_number 64
_symmetry_cell_setting 'orthorhombic'
loop_
_space_group_symop_operation_xyz
x,y,z
-x,1/2-y,1/2+z
x,-y,-z
-x,1/2+y,1/2-z
-x,-y,-z
x,1/2+y,1/2-z
-x,y,z
x,1/2-y,1/2+z
1/2+x,1/2+y,z
1/2-x,-y,1/2+z
1/2+x,1/2-y,-z
1/2-x,y,1/2-z
1/2-x,1/2-y,-z
1/2+x,y,1/2-z
1/2-x,1/2+y,z
1/2+x,-y,1/2+z
loop_
_atom_site_type_symbol
_atom_site_label
_atom_site_fract_x
_atom_site_fract_y
_atom_site_fract_z
Si Si1 0.586077 0.290270 0.011491
Si Si2 0.834974 0.882691 0.753450
Si Si3 0.586558 0.976611 0.287612
Si Si4 0.086864 0.943923 0.055757
Si Si5 0.839784 0.730313 0.139782
Si Si6 0.666372 0.344848 0.256054
Si Si7 0.171081 0.269252 0.630556
O O1 0.500000 0.289579 0.999067
O O2 0.615218 0.367052 0.034199
O O3 0.607024 0.234960 0.072548
O O4 0.624426 0.267567 0.939869
O O5 0.750000 0.902775 0.750000
O O6 0.857865 0.840022 0.683358
O O7 0.851289 0.836303 0.822596
O O8 0.883298 0.951800 0.755638
O O9 0.500000 0.978949 0.284958
O O10 0.616287 0.965373 0.367207
O O11 0.614634 0.912401 0.240122
O O12 0.000000 0.944765 0.055683
O O13 0.118486 0.000000 0.000000
O O14 0.854385 0.797230 0.189185
O O15 0.756679 0.728314 0.112634
O O16 0.750000 0.369475 0.250000
O O17 0.652937 0.301697 0.327421
#
# Coordination Sequence:
#
# PCOD8264660 Si02
#       7
#    16  16  16  16  16  16  16
#     4  11  20  31  50  77 108 138 165 208 262 306
#     4   9  19  35  54  75 101 134 175 216 253 300
#     4  11  20  31  50  76 106 137 165 209 263 307
#     4   9  18  30  44  68 104 136 161 195 252 313
#     4   9  18  35  54  74 101 135 175 214 252 300
#     4   9  18  34  54  75  99 133 175 213 253 300
#     4   9  19  34  54  76 100 134 174 214 253 300
#
# _framework density 16.966773
#
# number of rings (size 3 to 8) (size 9 to 14) (size 15 to 20)
#    0.000    2.429    1.429    3.429    0.000    2.857 
#    0.000    2.857    0.000    0.857    0.000    2.000 
#    0.000    0.000    0.000    0.000    0.000    0.000 
#
# Total GULP energy -694469.236890 kJ/mol
# GULP energy per Si atom -12401.236373 kJ/mol
# Density = 1.692816 g / cm^3
# Si number density = 16.966773 Si / 1000 Ang^3
#
#
#
# Elastic Constant Matrix: (Units=GPa)
#
#
# Indices 1 2 3 4 5 6 
#
# 1 53.7231 50.6232 43.7927 0.0000 0.0000 0.0000
# 2 50.6232 123.2243 52.6039 0.0000 0.0000 0.0000
# 3 43.7927 52.6039 113.9293 0.0000 0.0000 0.0000
# 4 0.0000 0.0000 0.0000 25.7961 0.0000 0.0000
# 5 0.0000 0.0000 0.0000 0.0000 24.1603 0.0000
# 6 0.0000 0.0000 0.0000 0.0000 0.0000 24.2509
#
#
#
# Elastic Compliance Matrix: (Units=1/GPa)
#
#
# Indices 1 2 3 4 5 6 
#
# 1 0.036302 -0.011156 -0.008803 0.000000 0.000000 0.000000
# 2 -0.011156 0.013536 -0.001962 0.000000 0.000000 0.000000
# 3 -0.008803 -0.001962 0.013067 0.000000 0.000000 0.000000
# 4 0.000000 0.000000 0.000000 0.038766 0.000000 0.000000
# 5 0.000000 0.000000 0.000000 0.000000 0.041390 0.000000
# 6 0.000000 0.000000 0.000000 0.000000 0.000000 0.041236
#
#
# Mechanical properties :
#
#
# Convention : Reuss Voigt Hill
#
# Bulk Modulus (GPa) = 52.45585 64.99070 58.72327
# Shear Modulus (GPa) = 21.32279 24.43191 22.87735
#
# Velocity S-wave (km/s) = 3.54890 3.79883 3.67599
# Velocity P-wave (km/s) = 6.91208 7.59140 7.25969
#
# Compressibility (1/GPa) = 0.01906365
#
# Stress axis : x y z
#
# Youngs Moduli (GPa) = 27.54692 73.87887 76.52923
#
# Poissons Ratio (x) = 0.82416 0.67369
# Poissons Ratio (y) = 0.30730 0.15013
# Poissons Ratio (z) = 0.24250 0.14493
#
# Static dielectric constant tensor:
#      x y z
#    x 2.958490 0.000000 0.000000 
#    y 0.000000 3.145970 0.000000 
#    z 0.000000 0.000000 3.147250 
# 
# 
# High freq. dielectric constant tensor:
#      x y z
#    x 1.638950 0.000000 0.000000 
#    y 0.000000 1.652520 0.000000 
#    z 0.000000 0.000000 1.651970 
# 
# From -- ./inp_files/33597.got.cif
#   From: 2010.03.12/outbox.cif.g09.slc.cpg/sg64_17_cif.got.tgz:33597.got - 2010.04.10 20:19:32.
