data_PCOD8264891
_publ_section_title
;
Structure prediction by ZEFSAII (Michael W. Deem and Ramdas Pophale) SiO2 
 PCOD8264891
Probable space group: C M C A
;
_chemical_formula_sum "Si O2"
_cell_formula_units_Z 64
_cell_length_a 13.035148
_cell_length_b 25.074327
_cell_length_c 9.003722
_cell_angle_alpha 90.000000
_cell_angle_beta 90.000000
_cell_angle_gamma 90.000000
_cell_volume 2942.844598
_symmetry_space_group_name_H-M "C M C A"
_symmetry_group_IT_number 64
_symmetry_cell_setting 'orthorhombic'
loop_
_space_group_symop_operation_xyz
x,y,z
-x,1/2-y,1/2+z
x,-y,-z
-x,1/2+y,1/2-z
-x,-y,-z
x,1/2+y,1/2-z
-x,y,z
x,1/2-y,1/2+z
1/2+x,1/2+y,z
1/2-x,-y,1/2+z
1/2+x,1/2-y,-z
1/2-x,y,1/2-z
1/2-x,1/2-y,-z
1/2+x,y,1/2-z
1/2-x,1/2+y,z
1/2+x,-y,1/2+z
loop_
_atom_site_type_symbol
_atom_site_label
_atom_site_fract_x
_atom_site_fract_y
_atom_site_fract_z
Si Si1 0.823139 0.223688 0.876151
Si Si2 0.000000 0.351247 0.488550
Si Si3 0.000000 0.053282 0.778357
Si Si4 0.500000 0.395777 0.524418
Si Si5 0.159164 0.473541 0.848562
Si Si6 0.000000 0.199280 0.296617
O O1 0.750000 0.198741 0.750000
O O2 0.895175 0.176714 0.936137
O O3 0.896409 0.266502 0.794413
O O4 0.750000 0.250000 0.000000
O O5 0.000000 0.413690 0.434637
O O6 0.000000 0.345188 0.666379
O O7 0.000000 0.098347 0.651901
O O8 0.098618 0.015815 0.755077
O O9 0.403161 0.422252 0.602811
O O10 0.500000 0.332682 0.548363
O O11 0.250000 0.450769 0.750000
O O12 0.199406 0.500000 0.000000
#
# Coordination Sequence:
#
# PCOD8264891 Si02
#       6
#    16   8   8   8  16   8
#     4  11  24  43  62  87 126 164 202 253 311 365
#     4  11  24  40  62  92 123 158 206 257 301 369
#     4   9  21  39  59  85 123 156 199 246 302 365
#     4   9  21  39  59  83 121 160 194 249 305 358
#     4   9  19  39  60  85 118 159 199 246 305 363
#     4  11  24  40  62  92 123 158 207 256 306 364
#
# _framework density 21.747665999999999
#
# number of rings (size 3 to 8) (size 9 to 14) (size 15 to 20)
#    0.000    2.000    2.500    1.500    3.500    4.000 
#    4.500    2.500    0.000    0.000    0.000    0.000 
#    0.000    0.000    0.000    0.000    0.000    0.000 
#
# Total GULP energy -396589.327919 kJ/mol
# GULP energy per Si atom -12393.416497 kJ/mol
# Density = 2.169817 g / cm^3
# Si number density = 21.747666 Si / 1000 Ang^3
#
#
#
# Elastic Constant Matrix: (Units=GPa)
#
#
# Indices 1 2 3 4 5 6 
#
# 1 106.2135 -10.7767 28.7214 0.0000 0.0000 0.0000
# 2 -10.7767 35.7712 -7.9543 0.0000 0.0000 0.0000
# 3 28.7214 -7.9543 62.1141 0.0000 0.0000 0.0000
# 4 0.0000 0.0000 0.0000 43.5530 0.0000 0.0000
# 5 0.0000 0.0000 0.0000 0.0000 32.4675 0.0000
# 6 0.0000 0.0000 0.0000 0.0000 0.0000 -1.6459
#
#
#
# Elastic Compliance Matrix: (Units=1/GPa)
#
#
# Indices 1 2 3 4 5 6 
#
# 1 0.010931 0.002233 -0.004769 0.000000 0.000000 0.000000
# 2 0.002233 0.029231 0.002711 0.000000 0.000000 0.000000
# 3 -0.004769 0.002711 0.018652 0.000000 0.000000 0.000000
# 4 0.000000 0.000000 0.000000 0.022961 0.000000 0.000000
# 5 0.000000 0.000000 0.000000 0.000000 0.030800 0.000000
# 6 0.000000 0.000000 0.000000 0.000000 0.000000 -0.607574
#
#
# Mechanical properties :
#
#
# Convention : Reuss Voigt Hill
#
# Bulk Modulus (GPa) = 16.90224 24.89772 20.89998
# Shear Modulus (GPa) = -10.51238 27.81550 8.65156
#
# Velocity S-wave (km/s) = -2.20098 3.58021 1.99669
# Velocity P-wave (km/s) = 1.15317 5.34451 3.86611
#
# Compressibility (1/GPa) = 0.05916375
#
# Stress axis : x y z
#
# Youngs Moduli (GPa) = 91.48277 34.21030 53.61498
#
# Poissons Ratio (x) = -0.07639 0.25567
# Poissons Ratio (y) = -0.20426 -0.14534
# Poissons Ratio (z) = 0.43624 -0.09274
#
# Static dielectric constant tensor:
#      x y z
#    x 3.936470 0.000000 0.000000 
#    y 0.000000 3.581840 0.000000 
#    z 0.000000 0.000000 3.981290 
# 
# 
# High freq. dielectric constant tensor:
#      x y z
#    x 1.862200 0.000000 0.000000 
#    y 0.000000 1.835680 0.000000 
#    z 0.000000 0.000000 1.862040 
# 
# From -- ./inp_files/5774.got.cif
#   From: 2010.03.12/outbox.cif.g09.slc.cpg/sg64_3_cif.got.tgz:5774.got - 2010.04.10 20:19:32.
