data_PCOD8264459
_publ_section_title
;
Structure prediction by ZEFSAII (Michael W. Deem and Ramdas Pophale) SiO2 
 PCOD8264459
Probable space group: C M C A
;
_chemical_formula_sum "Si O2"
_cell_formula_units_Z 96
_cell_length_a 16.884633
_cell_length_b 14.841865
_cell_length_c 17.705627
_cell_angle_alpha 90.000000
_cell_angle_beta 90.000000
_cell_angle_gamma 90.000000
_cell_volume 4437.020274
_symmetry_space_group_name_H-M "C M C A"
_symmetry_group_IT_number 64
_symmetry_cell_setting 'orthorhombic'
loop_
_space_group_symop_operation_xyz
x,y,z
-x,1/2-y,1/2+z
x,-y,-z
-x,1/2+y,1/2-z
-x,-y,-z
x,1/2+y,1/2-z
-x,y,z
x,1/2-y,1/2+z
1/2+x,1/2+y,z
1/2-x,-y,1/2+z
1/2+x,1/2-y,-z
1/2-x,y,1/2-z
1/2-x,1/2-y,-z
1/2+x,y,1/2-z
1/2-x,1/2+y,z
1/2+x,-y,1/2+z
loop_
_atom_site_type_symbol
_atom_site_label
_atom_site_fract_x
_atom_site_fract_y
_atom_site_fract_z
Si Si1 0.841185 0.015568 0.228367
Si Si2 0.905261 0.766175 0.091646
Si Si3 0.642994 0.375042 0.351998
Si Si4 0.586716 0.596579 0.497356
Si Si5 0.343178 0.287287 0.750407
Si Si6 0.308264 0.936286 0.426617
O O1 0.750000 0.016768 0.250000
O O2 0.881446 0.113387 0.241150
O O3 0.881071 0.943854 0.285161
O O4 0.852703 0.989687 0.140818
O O5 0.871451 0.674140 0.052590
O O6 0.878594 0.763510 0.178268
O O7 0.863696 0.851260 0.051300
O O8 0.000000 0.774259 0.082909
O O9 0.576550 0.373197 0.416140
O O10 0.640191 0.273841 0.322323
O O11 0.725264 0.399361 0.394402
O O12 0.633545 0.500000 0.500000
O O13 0.500000 0.580651 0.461553
O O14 0.250000 0.298780 0.750000
O O15 0.298017 0.000000 0.500000
#
# Coordination Sequence:
#
# PCOD8264459 Si02
#       6
#    16  16  16  16  16  16
#     4   9  20  37  60  92 125 156 200 260 315 371
#     4  11  24  43  63  89 128 170 208 256 320 384
#     4  11  20  39  64  94 122 157 213 264 310 367
#     4  10  23  41  61  89 125 161 205 263 319 376
#     4  11  20  38  65  90 121 158 203 260 316 366
#     4  11  23  40  63  93 128 169 211 257 314 377
#
# _framework density 21.636140999999999
#
# number of rings (size 3 to 8) (size 9 to 14) (size 15 to 20)
#    0.000    1.500    3.333    2.000    2.333    4.333 
#    0.000    0.833    0.000    0.000    0.000    0.000 
#    0.000    0.000    0.000    0.000    0.000    0.000 
#
# Total GULP energy -594808.882951 kJ/mol
# GULP energy per Si atom -12391.851728 kJ/mol
# Density = 2.158690 g / cm^3
# Si number density = 21.636141 Si / 1000 Ang^3
#
#
#
# Elastic Constant Matrix: (Units=GPa)
#
#
# Indices 1 2 3 4 5 6 
#
# 1 43.4366 28.3216 14.6767 0.0000 0.0000 0.0000
# 2 28.3216 162.1668 48.1340 0.0000 0.0000 0.0000
# 3 14.6767 48.1340 123.0257 0.0000 0.0000 0.0000
# 4 0.0000 0.0000 0.0000 55.4076 0.0000 0.0000
# 5 0.0000 0.0000 0.0000 0.0000 24.1272 0.0000
# 6 0.0000 0.0000 0.0000 0.0000 0.0000 7.4633
#
#
#
# Elastic Compliance Matrix: (Units=1/GPa)
#
#
# Indices 1 2 3 4 5 6 
#
# 1 0.026227 -0.004131 -0.001512 0.000000 0.000000 0.000000
# 2 -0.004131 0.007628 -0.002491 0.000000 0.000000 0.000000
# 3 -0.001512 -0.002491 0.009284 0.000000 0.000000 0.000000
# 4 0.000000 0.000000 0.000000 0.018048 0.000000 0.000000
# 5 0.000000 0.000000 0.000000 0.000000 0.041447 0.000000
# 6 0.000000 0.000000 0.000000 0.000000 0.000000 0.133989
#
#
# Mechanical properties :
#
#
# Convention : Reuss Voigt Hill
#
# Bulk Modulus (GPa) = 37.21975 56.76597 46.99286
# Shear Modulus (GPa) = 19.09500 33.23274 26.16387
#
# Velocity S-wave (km/s) = 2.97400 3.92341 3.48122
# Velocity P-wave (km/s) = 5.38821 6.84236 6.15835
#
# Compressibility (1/GPa) = 0.02686746
#
# Stress axis : x y z
#
# Youngs Moduli (GPa) = 38.12884 131.10413 107.71719
#
# Poissons Ratio (x) = 0.54166 0.16291
# Poissons Ratio (y) = 0.15753 0.26837
# Poissons Ratio (z) = 0.05766 0.32663
#
# Static dielectric constant tensor:
#      x y z
#    x 3.500970 0.000000 0.000000 
#    y 0.000000 4.549790 0.000000 
#    z 0.000000 0.000000 3.993210 
# 
# 
# High freq. dielectric constant tensor:
#      x y z
#    x 1.811060 0.000000 0.000000 
#    y 0.000000 1.870510 0.000000 
#    z 0.000000 0.000000 1.853520 
# 
# From -- ./inp_files/26335.got.cif
#   From: 2010.03.12/outbox.cif.g09.slc.cpg/sg64_14_cif.got.tgz:26335.got - 2010.04.10 20:19:32.
