data_PCOD8264707
_publ_section_title
;
Structure prediction by ZEFSAII (Michael W. Deem and Ramdas Pophale) SiO2 
 PCOD8264707
Probable space group: C M C A
;
_chemical_formula_sum "Si O2"
_cell_formula_units_Z 80
_cell_length_a 9.076708
_cell_length_b 24.982104
_cell_length_c 19.936697
_cell_angle_alpha 90.000000
_cell_angle_beta 90.000000
_cell_angle_gamma 90.000000
_cell_volume 4520.750976
_symmetry_space_group_name_H-M "C M C A"
_symmetry_group_IT_number 64
_symmetry_cell_setting 'orthorhombic'
loop_
_space_group_symop_operation_xyz
x,y,z
-x,1/2-y,1/2+z
x,-y,-z
-x,1/2+y,1/2-z
-x,-y,-z
x,1/2+y,1/2-z
-x,y,z
x,1/2-y,1/2+z
1/2+x,1/2+y,z
1/2-x,-y,1/2+z
1/2+x,1/2-y,-z
1/2-x,y,1/2-z
1/2-x,1/2-y,-z
1/2+x,y,1/2-z
1/2-x,1/2+y,z
1/2+x,-y,1/2+z
loop_
_atom_site_type_symbol
_atom_site_label
_atom_site_fract_x
_atom_site_fract_y
_atom_site_fract_z
Si Si1 0.331408 0.612474 0.549753
Si Si2 0.825374 0.195438 0.320796
Si Si3 0.670907 0.090687 0.100444
Si Si4 0.672666 0.266187 0.431486
Si Si5 0.333496 0.988119 0.421586
O O1 0.500000 0.594499 0.553692
O O2 0.279797 0.613453 0.472062
O O3 0.306572 0.670663 0.581080
O O4 0.240415 0.569273 0.593141
O O5 0.750000 0.204776 0.250000
O O6 0.789579 0.135355 0.344828
O O7 0.753544 0.237503 0.370897
O O8 0.000000 0.205563 0.317133
O O9 0.500000 0.076615 0.100738
O O10 0.756266 0.036177 0.119091
O O11 0.500000 0.250863 0.434827
O O12 0.750000 0.250000 0.500000
O O13 0.500000 0.985122 0.396802
O O14 0.317917 0.000000 0.500000
#
# Coordination Sequence:
#
# PCOD8264707 Si02
#       5
#    16  16  16  16  16
#     4   9  17  31  50  75 106 141 176 214 269 324
#     4  11  23  39  56  80 110 147 188 228 279 334
#     4   9  17  32  51  72 104 141 176 215 265 326
#     4  11  21  35  56  82 111 146 186 232 279 330
#     4   9  17  27  44  75 106 133 169 213 262 311
#
# _framework density 17.696173999999999
#
# number of rings (size 3 to 8) (size 9 to 14) (size 15 to 20)
#    0.000    2.200    2.000    1.800    0.000    5.600 
#    0.000    0.000    0.000    1.200    0.000    5.600 
#    0.000    0.000    0.000    0.000    0.000    0.000 
#
# Total GULP energy -496016.165058 kJ/mol
# GULP energy per Si atom -12400.404126 kJ/mol
# Density = 1.765590 g / cm^3
# Si number density = 17.696174 Si / 1000 Ang^3
#
#
#
# Elastic Constant Matrix: (Units=GPa)
#
#
# Indices 1 2 3 4 5 6 
#
# 1 116.4192 78.8929 53.4599 0.0000 0.0000 0.0000
# 2 78.8929 128.2573 55.0618 0.0000 0.0000 0.0000
# 3 53.4599 55.0618 92.7866 0.0000 0.0000 0.0000
# 4 0.0000 0.0000 0.0000 19.7865 0.0000 0.0000
# 5 0.0000 0.0000 0.0000 0.0000 23.9434 0.0000
# 6 0.0000 0.0000 0.0000 0.0000 0.0000 34.3530
#
#
#
# Elastic Compliance Matrix: (Units=1/GPa)
#
#
# Indices 1 2 3 4 5 6 
#
# 1 0.016041 -0.007916 -0.004545 0.000000 0.000000 0.000000
# 2 -0.007916 0.014369 -0.003966 0.000000 0.000000 0.000000
# 3 -0.004545 -0.003966 0.015749 0.000000 0.000000 0.000000
# 4 0.000000 0.000000 0.000000 0.050539 0.000000 0.000000
# 5 0.000000 0.000000 0.000000 0.000000 0.041765 0.000000
# 6 0.000000 0.000000 0.000000 0.000000 0.000000 0.029110
#
#
# Mechanical properties :
#
#
# Convention : Reuss Voigt Hill
#
# Bulk Modulus (GPa) = 75.15410 79.14358 77.14884
# Shear Modulus (GPa) = 24.40681 25.61982 25.01332
#
# Velocity S-wave (km/s) = 3.71781 3.80907 3.76372
# Velocity P-wave (km/s) = 7.80966 8.01037 7.91065
#
# Compressibility (1/GPa) = 0.01330599
#
# Stress axis : x y z
#
# Youngs Moduli (GPa) = 62.34067 69.59615 63.49513
#
# Poissons Ratio (x) = 0.55092 0.28856
# Poissons Ratio (y) = 0.49349 0.25181
# Poissons Ratio (z) = 0.28331 0.27601
#
# Static dielectric constant tensor:
#      x y z
#    x 3.396190 0.000000 0.000000 
#    y 0.000000 3.693570 0.000000 
#    z 0.000000 0.000000 2.845270 
# 
# 
# High freq. dielectric constant tensor:
#      x y z
#    x 1.695430 0.000000 0.000000 
#    y 0.000000 1.698200 0.000000 
#    z 0.000000 0.000000 1.635720 
# 
# From -- ./inp_files/29769.got.cif
#   From: 2010.03.12/outbox.cif.g09.slc.cpg/sg64_15_cif.got.tgz:29769.got - 2010.04.10 20:19:32.
