data_PCOD8264011
_publ_section_title
;
Structure prediction by ZEFSAII (Michael W. Deem and Ramdas Pophale) SiO2 
 PCOD8264011
Probable space group: C M C A
;
_chemical_formula_sum "Si O2"
_cell_formula_units_Z 96
_cell_length_a 8.645101
_cell_length_b 20.298154
_cell_length_c 28.267980
_cell_angle_alpha 90.000000
_cell_angle_beta 90.000000
_cell_angle_gamma 90.000000
_cell_volume 4960.453581
_symmetry_space_group_name_H-M "C M C A"
_symmetry_group_IT_number 64
_symmetry_cell_setting 'orthorhombic'
loop_
_space_group_symop_operation_xyz
x,y,z
-x,1/2-y,1/2+z
x,-y,-z
-x,1/2+y,1/2-z
-x,-y,-z
x,1/2+y,1/2-z
-x,y,z
x,1/2-y,1/2+z
1/2+x,1/2+y,z
1/2-x,-y,1/2+z
1/2+x,1/2-y,-z
1/2-x,y,1/2-z
1/2-x,1/2-y,-z
1/2+x,y,1/2-z
1/2-x,1/2+y,z
1/2+x,-y,1/2+z
loop_
_atom_site_type_symbol
_atom_site_label
_atom_site_fract_x
_atom_site_fract_y
_atom_site_fract_z
Si Si1 0.319358 0.483318 0.899596
Si Si2 0.318590 0.251940 0.397930
Si Si3 0.681939 0.201228 0.297919
Si Si4 0.680336 0.365086 0.544300
Si Si5 0.180278 0.623172 0.557444
Si Si6 0.680257 0.947480 0.702690
O O1 0.500000 0.465538 0.906331
O O2 0.217818 0.425254 0.921264
O O3 0.274308 0.550747 0.924873
O O4 0.277411 0.489444 0.843939
O O5 0.500000 0.236531 0.403897
O O6 0.264679 0.242509 0.343673
O O7 0.222480 0.203673 0.431474
O O8 0.281832 0.326280 0.412373
O O9 0.500000 0.201922 0.293585
O O10 0.750000 0.233513 0.250000
O O11 0.745766 0.126713 0.303776
O O12 0.500000 0.365096 0.531127
O O13 0.781597 0.372225 0.497486
O O14 0.000000 0.637744 0.565656
O O15 0.500000 0.944595 0.710475
O O16 0.750000 0.980876 0.750000
#
# Coordination Sequence:
#
# PCOD8264011 Si02
#       6
#    16  16  16  16  16  16
#     4  10  21  40  61  83 116 154 190 232 285 340
#     4  11  22  40  61  84 117 153 191 237 286 337
#     4   9  18  33  57  84 112 144 184 233 281 334
#     4  12  24  38  60  87 114 148 195 242 283 337
#     4  11  24  40  59  83 116 156 193 234 287 344
#     4   9  17  33  56  84 112 143 185 230 280 333
#
# _framework density 19.353069999999999
#
# number of rings (size 3 to 8) (size 9 to 14) (size 15 to 20)
#    0.000    1.667    1.667    3.500    0.000    5.333 
#    0.000    0.833    0.000    4.000    0.000    0.000 
#    0.000    0.000    0.000    0.000    0.000    0.000 
#
# Total GULP energy -595334.811577 kJ/mol
# GULP energy per Si atom -12402.808575 kJ/mol
# Density = 1.930902 g / cm^3
# Si number density = 19.353070 Si / 1000 Ang^3
#
#
#
# Elastic Constant Matrix: (Units=GPa)
#
#
# Indices 1 2 3 4 5 6 
#
# 1 38.5146 16.7075 15.4205 0.0000 0.0000 0.0000
# 2 16.7075 55.0884 12.2537 0.0000 0.0000 0.0000
# 3 15.4205 12.2537 118.4628 0.0000 0.0000 0.0000
# 4 0.0000 0.0000 0.0000 -15.6010 0.0000 0.0000
# 5 0.0000 0.0000 0.0000 0.0000 34.0467 0.0000
# 6 0.0000 0.0000 0.0000 0.0000 0.0000 25.7144
#
#
#
# Elastic Compliance Matrix: (Units=1/GPa)
#
#
# Indices 1 2 3 4 5 6 
#
# 1 0.030994 -0.008703 -0.003134 0.000000 0.000000 0.000000
# 2 -0.008703 0.021024 -0.001042 0.000000 0.000000 0.000000
# 3 -0.003134 -0.001042 0.008957 0.000000 0.000000 0.000000
# 4 0.000000 0.000000 0.000000 -0.064098 0.000000 0.000000
# 5 0.000000 0.000000 0.000000 0.000000 0.029371 0.000000
# 6 0.000000 0.000000 0.000000 0.000000 0.000000 0.038889
#
#
# Mechanical properties :
#
#
# Convention : Reuss Voigt Hill
#
# Bulk Modulus (GPa) = 28.39519 33.42548 30.91034
# Shear Modulus (GPa) = 48.71645 20.01096 34.36371
#
# Velocity S-wave (km/s) = 5.02266 3.21907 4.21838
# Velocity P-wave (km/s) = 6.95271 5.57902 6.30340
#
# Compressibility (1/GPa) = 0.03521723
#
# Stress axis : x y z
#
# Youngs Moduli (GPa) = 32.26384 47.56495 111.64157
#
# Poissons Ratio (x) = 0.41396 0.34993
# Poissons Ratio (y) = 0.28079 0.11631
# Poissons Ratio (z) = 0.10113 0.04955
#
# Static dielectric constant tensor:
#      x y z
#    x 3.442660 0.000000 0.000000 
#    y 0.000000 3.393610 0.000000 
#    z 0.000000 0.000000 3.804240 
# 
# 
# High freq. dielectric constant tensor:
#      x y z
#    x 1.749960 0.000000 0.000000 
#    y 0.000000 1.731990 0.000000 
#    z 0.000000 0.000000 1.771690 
# 
# From -- ./inp_files/48077.got.cif
#   From: 2010.03.12/outbox.cif.g09.slc.cpg/sg64_25_cif.got.tgz:48077.got - 2010.04.10 20:19:32.
