data_PCOD8264282
_publ_section_title
;
Structure prediction by ZEFSAII (Michael W. Deem and Ramdas Pophale) SiO2 
 PCOD8264282
Probable space group: C M C A
;
_chemical_formula_sum "Si O2"
_cell_formula_units_Z 96
_cell_length_a 17.649777
_cell_length_b 22.224322
_cell_length_c 11.763025
_cell_angle_alpha 90.000000
_cell_angle_beta 90.000000
_cell_angle_gamma 90.000000
_cell_volume 4614.097458
_symmetry_space_group_name_H-M "C M C A"
_symmetry_group_IT_number 64
_symmetry_cell_setting 'orthorhombic'
loop_
_space_group_symop_operation_xyz
x,y,z
-x,1/2-y,1/2+z
x,-y,-z
-x,1/2+y,1/2-z
-x,-y,-z
x,1/2+y,1/2-z
-x,y,z
x,1/2-y,1/2+z
1/2+x,1/2+y,z
1/2-x,-y,1/2+z
1/2+x,1/2-y,-z
1/2-x,y,1/2-z
1/2-x,1/2-y,-z
1/2+x,y,1/2-z
1/2-x,1/2+y,z
1/2+x,-y,1/2+z
loop_
_atom_site_type_symbol
_atom_site_label
_atom_site_fract_x
_atom_site_fract_y
_atom_site_fract_z
Si Si1 0.838800 0.568438 0.253699
Si Si2 0.416030 0.544758 0.648912
Si Si3 0.170701 0.352761 0.536992
Si Si4 0.917456 0.655619 0.686361
Si Si5 0.153010 0.371971 0.973179
Si Si6 0.411778 0.234623 0.888953
O O1 0.750000 0.556031 0.250000
O O2 0.879859 0.506239 0.227764
O O3 0.858880 0.594792 0.378215
O O4 0.864758 0.617109 0.159441
O O5 0.500000 0.524779 0.607462
O O6 0.424076 0.601641 0.727766
O O7 0.365265 0.564920 0.539845
O O8 0.138589 0.362835 0.412321
O O9 0.259836 0.353597 0.516884
O O10 0.144079 0.289099 0.585487
O O11 0.889926 0.712582 0.761639
O O12 0.000000 0.670081 0.633131
O O13 0.101232 0.317942 0.018307
O O14 0.500000 0.253429 0.895939
#
# Coordination Sequence:
#
# PCOD8264282 Si02
#       6
#    16  16  16  16  16  16
#     4  10  24  40  60  91 129 158 210 262 314 377
#     4  10  22  41  65  91 123 166 213 263 315 375
#     4  11  23  39  61  94 126 168 207 260 321 376
#     4   9  21  40  60  90 124 163 211 254 317 384
#     4  10  22  41  62  92 120 164 214 261 313 377
#     4  10  22  40  62  88 124 164 208 262 314 380
#
# _framework density 20.805802
#
# number of rings (size 3 to 8) (size 9 to 14) (size 15 to 20)
#    0.000    2.000    0.000    3.000    4.667    6.000 
#    3.000    1.667    0.000    0.000    0.000    0.000 
#    0.000    0.000    0.000    0.000    0.000    0.000 
#
# Total GULP energy -595035.776080 kJ/mol
# GULP energy per Si atom -12396.578668 kJ/mol
# Density = 2.075845 g / cm^3
# Si number density = 20.805802 Si / 1000 Ang^3
#
#
#
# Elastic Constant Matrix: (Units=GPa)
#
#
# Indices 1 2 3 4 5 6 
#
# 1 91.0122 39.4586 47.2361 0.0000 0.0000 0.0000
# 2 39.4586 68.7525 8.7970 0.0000 0.0000 0.0000
# 3 47.2361 8.7970 103.0767 0.0000 0.0000 0.0000
# 4 0.0000 0.0000 0.0000 32.2554 0.0000 0.0000
# 5 0.0000 0.0000 0.0000 0.0000 -73.9287 0.0000
# 6 0.0000 0.0000 0.0000 0.0000 0.0000 98.3827
#
#
#
# Elastic Compliance Matrix: (Units=1/GPa)
#
#
# Indices 1 2 3 4 5 6 
#
# 1 0.019643 -0.010233 -0.008128 0.000000 0.000000 0.000000
# 2 -0.010233 0.020037 0.002980 0.000000 0.000000 0.000000
# 3 -0.008128 0.002980 0.013172 0.000000 0.000000 0.000000
# 4 0.000000 0.000000 0.000000 0.031003 0.000000 0.000000
# 5 0.000000 0.000000 0.000000 0.000000 -0.013527 0.000000
# 6 0.000000 0.000000 0.000000 0.000000 0.000000 0.010164
#
#
# Mechanical properties :
#
#
# Convention : Reuss Voigt Hill
#
# Bulk Modulus (GPa) = 45.27419 50.42496 47.84957
# Shear Modulus (GPa) = 42.15174 22.49853 32.32514
#
# Velocity S-wave (km/s) = 4.50595 3.29197 3.94593
# Velocity P-wave (km/s) = 6.99136 6.22399 6.61880
#
# Compressibility (1/GPa) = 0.02208764
#
# Stress axis : x y z
#
# Youngs Moduli (GPa) = 50.90893 49.90795 75.91811
#
# Poissons Ratio (x) = 0.51073 0.61708
# Poissons Ratio (y) = 0.52098 -0.22620
# Poissons Ratio (z) = 0.41380 -0.14870
#
# Static dielectric constant tensor:
#      x y z
#    x 3.976580 0.000000 0.000000 
#    y 0.000000 3.822490 0.000000 
#    z 0.000000 0.000000 3.983000 
# 
# 
# High freq. dielectric constant tensor:
#      x y z
#    x 1.815010 0.000000 0.000000 
#    y 0.000000 1.814390 0.000000 
#    z 0.000000 0.000000 1.824270 
# 
# From -- ./inp_files/16222.got.cif
#   From: 2010.03.12/outbox.cif.g09.slc.cpg/sg64_9_cif.got.tgz:16222.got - 2010.04.10 20:19:32.
