data_PCOD8264100
_publ_section_title
;
Structure prediction by ZEFSAII (Michael W. Deem and Ramdas Pophale) SiO2 
 PCOD8264100
Probable space group: C M C A
;
_chemical_formula_sum "Si O2"
_cell_formula_units_Z 104
_cell_length_a 14.948230
_cell_length_b 19.459879
_cell_length_c 16.842962
_cell_angle_alpha 90.000000
_cell_angle_beta 90.000000
_cell_angle_gamma 90.000000
_cell_volume 4899.461799
_symmetry_space_group_name_H-M "C M C A"
_symmetry_group_IT_number 64
_symmetry_cell_setting 'orthorhombic'
loop_
_space_group_symop_operation_xyz
x,y,z
-x,1/2-y,1/2+z
x,-y,-z
-x,1/2+y,1/2-z
-x,-y,-z
x,1/2+y,1/2-z
-x,y,z
x,1/2-y,1/2+z
1/2+x,1/2+y,z
1/2-x,-y,1/2+z
1/2+x,1/2-y,-z
1/2-x,y,1/2-z
1/2-x,1/2-y,-z
1/2+x,y,1/2-z
1/2-x,1/2+y,z
1/2+x,-y,1/2+z
loop_
_atom_site_type_symbol
_atom_site_label
_atom_site_fract_x
_atom_site_fract_y
_atom_site_fract_z
Si Si1 0.774831 0.753960 0.411466
Si Si2 0.194621 0.000000 0.500000
Si Si3 0.702134 0.015590 0.333093
Si Si4 0.901386 0.599356 0.736849
Si Si5 0.897109 0.885553 0.409617
Si Si6 0.399829 0.749325 0.308481
Si Si7 0.899116 0.150056 0.166536
O O1 0.750000 0.750000 0.500000
O O2 0.832686 0.821330 0.396618
O O3 0.678342 0.751618 0.371176
O O4 0.830937 0.686399 0.392414
O O5 0.248491 0.017447 0.418709
O O6 0.133088 0.066358 0.517481
O O7 0.750000 0.035831 0.250000
O O8 0.620457 0.069140 0.335380
O O9 0.666652 0.937440 0.323267
O O10 0.888874 0.571197 0.827076
O O11 0.888049 0.681320 0.742691
O O12 0.000000 0.581844 0.705249
O O13 0.000000 0.861855 0.423500
O O14 0.500000 0.746946 0.347274
O O15 0.385832 0.682927 0.253574
O O16 0.000000 0.162024 0.136951
#
# Coordination Sequence:
#
# PCOD8264100 Si02
#       7
#    16   8  16  16  16  16  16
#     4  12  24  40  64  96 134 177 220 275 340 398
#     4  12  25  42  65 102 136 178 229 282 351 398
#     4  12  24  42  66  98 136 178 224 281 340 406
#     4  10  21  41  68  96 123 170 227 280 336 396
#     4  11  23  42  68  99 134 179 232 285 335 405
#     4  10  22  41  68  96 125 168 225 275 331 405
#     4  11  24  43  65  94 131 176 224 276 333 403
#
# _framework density 21.22682
#
# number of rings (size 3 to 8) (size 9 to 14) (size 15 to 20)
#    0.000    0.923    3.077    4.385    0.000    1.231 
#    0.000    4.615    0.000    0.000    0.000    0.000 
#    0.000    0.000    0.000    0.000    0.000    0.000 
#
# Total GULP energy -644402.330446 kJ/mol
# GULP energy per Si atom -12392.352509 kJ/mol
# Density = 2.117851 g / cm^3
# Si number density = 21.226820 Si / 1000 Ang^3
#
#
#
# Elastic Constant Matrix: (Units=GPa)
#
#
# Indices 1 2 3 4 5 6 
#
# 1 152.1122 37.8399 74.5489 0.0000 0.0000 0.0000
# 2 37.8399 83.5002 17.9049 0.0000 0.0000 0.0000
# 3 74.5489 17.9049 129.9878 0.0000 0.0000 0.0000
# 4 0.0000 0.0000 0.0000 26.6022 0.0000 0.0000
# 5 0.0000 0.0000 0.0000 0.0000 23.3860 0.0000
# 6 0.0000 0.0000 0.0000 0.0000 0.0000 36.7469
#
#
#
# Elastic Compliance Matrix: (Units=1/GPa)
#
#
# Indices 1 2 3 4 5 6 
#
# 1 0.010002 -0.003403 -0.005268 0.000000 0.000000 0.000000
# 2 -0.003403 0.013498 0.000092 0.000000 0.000000 0.000000
# 3 -0.005268 0.000092 0.010701 0.000000 0.000000 0.000000
# 4 0.000000 0.000000 0.000000 0.037591 0.000000 0.000000
# 5 0.000000 0.000000 0.000000 0.000000 0.042761 0.000000
# 6 0.000000 0.000000 0.000000 0.000000 0.000000 0.027213
#
#
# Mechanical properties :
#
#
# Convention : Reuss Voigt Hill
#
# Bulk Modulus (GPa) = 58.66728 69.57641 64.12184
# Shear Modulus (GPa) = 30.37570 33.03412 31.70491
#
# Velocity S-wave (km/s) = 3.78697 3.94921 3.86894
# Velocity P-wave (km/s) = 6.84250 7.32419 7.08744
#
# Compressibility (1/GPa) = 0.01704528
#
# Stress axis : x y z
#
# Youngs Moduli (GPa) = 99.97691 74.08268 93.44642
#
# Poissons Ratio (x) = 0.25212 0.49224
# Poissons Ratio (y) = 0.34024 -0.00864
# Poissons Ratio (z) = 0.52664 -0.00685
#
# Static dielectric constant tensor:
#      x y z
#    x 3.722350 0.000000 0.000000 
#    y 0.000000 3.860610 0.000000 
#    z 0.000000 0.000000 3.748630 
# 
# 
# High freq. dielectric constant tensor:
#      x y z
#    x 1.851090 0.000000 0.000000 
#    y 0.000000 1.833930 0.000000 
#    z 0.000000 0.000000 1.821420 
# 
# From -- ./inp_files/32406.got.cif
#   From: 2010.03.12/outbox.cif.g09.slc.cpg/sg64_17_cif.got.tgz:32406.got - 2010.04.10 20:19:32.
