data_PCOD8264296
_publ_section_title
;
Structure prediction by ZEFSAII (Michael W. Deem and Ramdas Pophale) SiO2 
 PCOD8264296
Probable space group: C M C A
;
_chemical_formula_sum "Si O2"
_cell_formula_units_Z 64
_cell_length_a 22.502165
_cell_length_b 13.438234
_cell_length_c 9.943194
_cell_angle_alpha 90.000000
_cell_angle_beta 90.000000
_cell_angle_gamma 90.000000
_cell_volume 3006.716058
_symmetry_space_group_name_H-M "C M C A"
_symmetry_group_IT_number 64
_symmetry_cell_setting 'orthorhombic'
loop_
_space_group_symop_operation_xyz
x,y,z
-x,1/2-y,1/2+z
x,-y,-z
-x,1/2+y,1/2-z
-x,-y,-z
x,1/2+y,1/2-z
-x,y,z
x,1/2-y,1/2+z
1/2+x,1/2+y,z
1/2-x,-y,1/2+z
1/2+x,1/2-y,-z
1/2-x,y,1/2-z
1/2-x,1/2-y,-z
1/2+x,y,1/2-z
1/2-x,1/2+y,z
1/2+x,-y,1/2+z
loop_
_atom_site_type_symbol
_atom_site_label
_atom_site_fract_x
_atom_site_fract_y
_atom_site_fract_z
Si Si1 0.114382 0.535275 0.857858
Si Si2 0.500000 0.490206 0.188877
Si Si3 0.127146 0.239145 0.528329
Si Si4 0.500000 0.173770 0.466025
Si Si5 0.319548 0.652344 0.264406
O O1 0.059253 0.543896 0.760985
O O2 0.143017 0.643419 0.880155
O O3 0.164910 0.461029 0.802834
O O4 0.088472 0.500000 0.000000
O O5 0.500000 0.611937 0.175348
O O6 0.500000 0.422643 0.058202
O O7 0.056475 0.255107 0.513515
O O8 0.153524 0.329817 0.615329
O O9 0.155411 0.227984 0.379364
O O10 0.250000 0.666317 0.250000
#
# Coordination Sequence:
#
# PCOD8264296 Si02
#       5
#    16   8  16   8  16
#     4  10  22  40  64  91 129 172 215 267 337 401
#     4  11  20  39  61  97 129 168 211 271 328 391
#     4  11  23  43  66  98 134 174 217 275 338 396
#     4  11  23  37  66  99 131 167 212 271 340 396
#     4  11  24  43  65  93 129 175 228 274 325 395
#
# _framework density 21.285682000000001
#
# number of rings (size 3 to 8) (size 9 to 14) (size 15 to 20)
#    0.000    1.250    2.500    3.375    0.000    5.000 
#    0.000   10.000    0.000    0.000    0.000    0.000 
#    0.000    0.000    0.000    0.000    0.000    0.000 
#
# Total GULP energy -396676.675781 kJ/mol
# GULP energy per Si atom -12396.146118 kJ/mol
# Density = 2.123723 g / cm^3
# Si number density = 21.285682 Si / 1000 Ang^3
#
#
#
# Elastic Constant Matrix: (Units=GPa)
#
#
# Indices 1 2 3 4 5 6 
#
# 1 149.2047 21.6959 40.6711 0.0000 0.0000 0.0000
# 2 21.6959 85.6163 22.6888 0.0000 0.0000 0.0000
# 3 40.6711 22.6888 77.2285 0.0000 0.0000 0.0000
# 4 0.0000 0.0000 0.0000 35.7835 0.0000 0.0000
# 5 0.0000 0.0000 0.0000 0.0000 32.8418 0.0000
# 6 0.0000 0.0000 0.0000 0.0000 0.0000 20.3416
#
#
#
# Elastic Compliance Matrix: (Units=1/GPa)
#
#
# Indices 1 2 3 4 5 6 
#
# 1 0.007900 -0.000975 -0.003874 0.000000 0.000000 0.000000
# 2 -0.000975 0.012787 -0.003243 0.000000 0.000000 0.000000
# 3 -0.003874 -0.003243 0.015941 0.000000 0.000000 0.000000
# 4 0.000000 0.000000 0.000000 0.027946 0.000000 0.000000
# 5 0.000000 0.000000 0.000000 0.000000 0.030449 0.000000
# 6 0.000000 0.000000 0.000000 0.000000 0.000000 0.049160
#
#
# Mechanical properties :
#
#
# Convention : Reuss Voigt Hill
#
# Bulk Modulus (GPa) = 48.91457 53.57344 51.24400
# Shear Modulus (GPa) = 29.90756 32.92630 31.41693
#
# Velocity S-wave (km/s) = 3.75247 3.93730 3.84600
# Velocity P-wave (km/s) = 6.46565 6.77445 6.62185
#
# Compressibility (1/GPa) = 0.02044381
#
# Stress axis : x y z
#
# Youngs Moduli (GPa) = 126.58254 78.20710 62.72968
#
# Poissons Ratio (x) = 0.07628 0.24301
# Poissons Ratio (y) = 0.12346 0.20343
# Poissons Ratio (z) = 0.49036 0.25362
#
# Static dielectric constant tensor:
#      x y z
#    x 3.613210 0.000000 0.000000 
#    y 0.000000 3.993890 0.000000 
#    z 0.000000 0.000000 4.084400 
# 
# 
# High freq. dielectric constant tensor:
#      x y z
#    x 1.822800 0.000000 0.000000 
#    y 0.000000 1.840240 0.000000 
#    z 0.000000 0.000000 1.847420 
# 
# From -- ./inp_files/8996.got.cif
#   From: 2010.03.12/outbox.cif.g09.slc.cpg/sg64_5_cif.got.tgz:8996.got - 2010.04.10 20:19:32.
