data_PCOD8264939
_publ_section_title
;
Structure prediction by ZEFSAII (Michael W. Deem and Ramdas Pophale) SiO2 
 PCOD8264939
Probable space group: C M C A
;
_chemical_formula_sum "Si O2"
_cell_formula_units_Z 48
_cell_length_a 25.719095
_cell_length_b 8.886863
_cell_length_c 8.621934
_cell_angle_alpha 90.000000
_cell_angle_beta 90.000000
_cell_angle_gamma 90.000000
_cell_volume 1970.647115
_symmetry_space_group_name_H-M "C M C A"
_symmetry_group_IT_number 64
_symmetry_cell_setting 'orthorhombic'
loop_
_space_group_symop_operation_xyz
x,y,z
-x,1/2-y,1/2+z
x,-y,-z
-x,1/2+y,1/2-z
-x,-y,-z
x,1/2+y,1/2-z
-x,y,z
x,1/2-y,1/2+z
1/2+x,1/2+y,z
1/2-x,-y,1/2+z
1/2+x,1/2-y,-z
1/2-x,y,1/2-z
1/2-x,1/2-y,-z
1/2+x,y,1/2-z
1/2-x,1/2+y,z
1/2+x,-y,1/2+z
loop_
_atom_site_type_symbol
_atom_site_label
_atom_site_fract_x
_atom_site_fract_y
_atom_site_fract_z
Si Si1 0.783768 0.642172 0.102039
Si Si2 0.941349 0.862624 0.383600
Si Si3 0.122699 0.145530 0.914344
O O1 0.750000 0.588280 0.250000
O O2 0.834591 0.736703 0.149656
O O3 0.801775 0.500000 0.000000
O O4 0.750000 0.750000 0.000000
O O5 0.916425 0.717761 0.463110
O O6 0.909067 0.912129 0.233471
O O7 0.000000 0.820420 0.333929
O O8 0.940787 0.000000 0.500000
O O9 0.148592 0.000000 0.000000
#
# Coordination Sequence:
#
# PCOD8264939 Si02
#       3
#    16  16  16
#     4  12  27  48  73 102 137 180 230 285 346 412
#     4  11  25  45  71 104 142 185 233 284 340 405
#     4  12  26  46  72 103 141 184 230 284 346 410
#
# _framework density 24.357482000000001
#
# number of rings (size 3 to 8) (size 9 to 14) (size 15 to 20)
#    0.000    0.333    0.000    8.000    0.000   13.333 
#    0.000    6.667    0.000    0.000    0.000    0.000 
#    0.000    0.000    0.000    0.000    0.000    0.000 
#
# Total GULP energy -297762.949821 kJ/mol
# GULP energy per Si atom -12406.789576 kJ/mol
# Density = 2.430204 g / cm^3
# Si number density = 24.357482 Si / 1000 Ang^3
#
#
#
# Elastic Constant Matrix: (Units=GPa)
#
#
# Indices 1 2 3 4 5 6 
#
# 1 146.1979 44.7735 51.3752 0.0000 0.0000 0.0000
# 2 44.7735 124.7685 37.5876 0.0000 0.0000 0.0000
# 3 51.3752 37.5876 134.0733 0.0000 0.0000 0.0000
# 4 0.0000 0.0000 0.0000 43.8034 0.0000 0.0000
# 5 0.0000 0.0000 0.0000 0.0000 43.5442 0.0000
# 6 0.0000 0.0000 0.0000 0.0000 0.0000 22.5947
#
#
#
# Elastic Compliance Matrix: (Units=1/GPa)
#
#
# Indices 1 2 3 4 5 6 
#
# 1 0.008443 -0.002245 -0.002606 0.000000 0.000000 0.000000
# 2 -0.002245 0.009351 -0.001761 0.000000 0.000000 0.000000
# 3 -0.002606 -0.001761 0.008951 0.000000 0.000000 0.000000
# 4 0.000000 0.000000 0.000000 0.022829 0.000000 0.000000
# 5 0.000000 0.000000 0.000000 0.000000 0.022965 0.000000
# 6 0.000000 0.000000 0.000000 0.000000 0.000000 0.044258
#
#
# Mechanical properties :
#
#
# Convention : Reuss Voigt Hill
#
# Bulk Modulus (GPa) = 73.95968 74.72361 74.34165
# Shear Modulus (GPa) = 37.16659 40.07536 38.62097
#
# Velocity S-wave (km/s) = 3.91049 4.06063 3.98627
# Velocity P-wave (km/s) = 7.12877 7.26150 7.19544
#
# Compressibility (1/GPa) = 0.01352088
#
# Stress axis : x y z
#
# Youngs Moduli (GPa) = 118.43705 106.94005 111.71921
#
# Poissons Ratio (x) = 0.24006 0.29114
# Poissons Ratio (y) = 0.26587 0.19678
# Poissons Ratio (z) = 0.30865 0.18836
#
# Static dielectric constant tensor:
#      x y z
#    x 5.273680 0.000000 0.000000 
#    y 0.000000 7.144210 0.000000 
#    z 0.000000 0.000000 4.683340 
# 
# 
# High freq. dielectric constant tensor:
#      x y z
#    x 1.979380 0.000000 0.000000 
#    y 0.000000 1.977490 0.000000 
#    z 0.000000 0.000000 1.979830 
# 
# From -- ./inp_files/10775.got.cif
#   From: 2010.03.12/outbox.cif.g09.slc.cpg/sg64_6_cif.got.tgz:10775.got - 2010.04.10 20:19:32.
