data_PCOD8264706
_publ_section_title
;
Structure prediction by ZEFSAII (Michael W. Deem and Ramdas Pophale) SiO2 
 PCOD8264706
Probable space group: C M C A
;
_chemical_formula_sum "Si O2"
_cell_formula_units_Z 96
_cell_length_a 8.884982
_cell_length_b 29.417992
_cell_length_c 18.830509
_cell_angle_alpha 90.000000
_cell_angle_beta 90.000000
_cell_angle_gamma 90.000000
_cell_volume 4921.886984
_symmetry_space_group_name_H-M "C M C A"
_symmetry_group_IT_number 64
_symmetry_cell_setting 'orthorhombic'
loop_
_space_group_symop_operation_xyz
x,y,z
-x,1/2-y,1/2+z
x,-y,-z
-x,1/2+y,1/2-z
-x,-y,-z
x,1/2+y,1/2-z
-x,y,z
x,1/2-y,1/2+z
1/2+x,1/2+y,z
1/2-x,-y,1/2+z
1/2+x,1/2-y,-z
1/2-x,y,1/2-z
1/2-x,1/2-y,-z
1/2+x,y,1/2-z
1/2-x,1/2+y,z
1/2+x,-y,1/2+z
loop_
_atom_site_type_symbol
_atom_site_label
_atom_site_fract_x
_atom_site_fract_y
_atom_site_fract_z
Si Si1 0.178000 0.660262 0.422194
Si Si2 0.178101 0.685524 0.576890
Si Si3 0.326746 0.530785 0.601036
Si Si4 0.320755 0.268273 0.673476
Si Si5 0.326101 0.066661 0.053782
Si Si6 0.823429 0.893355 0.177774
O O1 0.236361 0.683499 0.495692
O O2 0.261851 0.683828 0.356418
O O3 0.219518 0.607208 0.420844
O O4 0.000000 0.665433 0.412848
O O5 0.237766 0.729806 0.618393
O O6 0.236213 0.640321 0.616412
O O7 0.000000 0.685862 0.576786
O O8 0.500000 0.541009 0.617655
O O9 0.282185 0.551481 0.525122
O O10 0.296047 0.476825 0.604293
O O11 0.225975 0.555219 0.660307
O O12 0.500000 0.268844 0.680591
O O13 0.250000 0.258328 0.750000
O O14 0.500000 0.081849 0.057974
O O15 0.750000 0.876137 0.250000
O O16 0.000000 0.890965 0.186908
#
# Coordination Sequence:
#
# PCOD8264706 Si02
#       6
#    16  16  16  16  16  16
#     4  11  21  37  60  89 118 148 190 239 286 340
#     4   9  20  37  58  85 116 148 190 237 283 341
#     4   9  18  34  55  81 113 148 187 231 280 336
#     4  11  23  41  60  82 114 153 193 236 288 343
#     4   9  18  34  57  84 113 146 187 233 280 332
#     4  11  21  35  54  82 118 155 192 237 288 344
#
# _framework density 19.504715000000001
#
# number of rings (size 3 to 8) (size 9 to 14) (size 15 to 20)
#    0.000    2.000    1.667    3.500    0.000    0.667 
#    0.000    7.500    0.000    4.000    0.000    0.000 
#    0.000    0.000    0.000    0.000    0.000    0.000 
#
# Total GULP energy -595254.247392 kJ/mol
# GULP energy per Si atom -12401.130154 kJ/mol
# Density = 1.946032 g / cm^3
# Si number density = 19.504715 Si / 1000 Ang^3
#
#
#
# Elastic Constant Matrix: (Units=GPa)
#
#
# Indices 1 2 3 4 5 6 
#
# 1 70.2976 32.9044 25.4195 0.0000 0.0000 0.0000
# 2 32.9044 104.4434 27.0064 0.0000 0.0000 0.0000
# 3 25.4195 27.0064 65.0806 0.0000 0.0000 0.0000
# 4 0.0000 0.0000 0.0000 21.7468 0.0000 0.0000
# 5 0.0000 0.0000 0.0000 0.0000 29.4762 0.0000
# 6 0.0000 0.0000 0.0000 0.0000 0.0000 30.3198
#
#
#
# Elastic Compliance Matrix: (Units=1/GPa)
#
#
# Indices 1 2 3 4 5 6 
#
# 1 0.018179 -0.004359 -0.005292 0.000000 0.000000 0.000000
# 2 -0.004359 0.011771 -0.003182 0.000000 0.000000 0.000000
# 3 -0.005292 -0.003182 0.018753 0.000000 0.000000 0.000000
# 4 0.000000 0.000000 0.000000 0.045984 0.000000 0.000000
# 5 0.000000 0.000000 0.000000 0.000000 0.033926 0.000000
# 6 0.000000 0.000000 0.000000 0.000000 0.000000 0.032982
#
#
# Mechanical properties :
#
#
# Convention : Reuss Voigt Hill
#
# Bulk Modulus (GPa) = 43.40757 45.60914 44.50836
# Shear Modulus (GPa) = 25.64925 26.60798 26.12862
#
# Velocity S-wave (km/s) = 3.63027 3.69749 3.66403
# Velocity P-wave (km/s) = 6.31467 6.45469 6.38506
#
# Compressibility (1/GPa) = 0.02303746
#
# Stress axis : x y z
#
# Youngs Moduli (GPa) = 55.00865 84.95766 53.32547
#
# Poissons Ratio (x) = 0.37032 0.28218
# Poissons Ratio (y) = 0.23978 0.16968
# Poissons Ratio (z) = 0.29108 0.27033
#
# Static dielectric constant tensor:
#      x y z
#    x 3.316330 0.000000 0.000000 
#    y 0.000000 3.639260 0.000000 
#    z 0.000000 0.000000 3.510680 
# 
# 
# High freq. dielectric constant tensor:
#      x y z
#    x 1.747160 0.000000 0.000000 
#    y 0.000000 1.766800 0.000000 
#    z 0.000000 0.000000 1.748120 
# 
# From -- ./inp_files/36942.got.cif
#   From: 2010.03.12/outbox.cif.g09.slc.cpg/sg64_19_cif.got.tgz:36942.got - 2010.04.10 20:19:32.
