data_PCOD8264585
_publ_section_title
;
Structure prediction by ZEFSAII (Michael W. Deem and Ramdas Pophale) SiO2 
 PCOD8264585
Probable space group: C M C A
;
_chemical_formula_sum "Si O2"
_cell_formula_units_Z 112
_cell_length_a 18.553963
_cell_length_b 24.155646
_cell_length_c 12.236949
_cell_angle_alpha 90.000000
_cell_angle_beta 90.000000
_cell_angle_gamma 90.000000
_cell_volume 5484.392050
_symmetry_space_group_name_H-M "C M C A"
_symmetry_group_IT_number 64
_symmetry_cell_setting 'orthorhombic'
loop_
_space_group_symop_operation_xyz
x,y,z
-x,1/2-y,1/2+z
x,-y,-z
-x,1/2+y,1/2-z
-x,-y,-z
x,1/2+y,1/2-z
-x,y,z
x,1/2-y,1/2+z
1/2+x,1/2+y,z
1/2-x,-y,1/2+z
1/2+x,1/2-y,-z
1/2-x,y,1/2-z
1/2-x,1/2-y,-z
1/2+x,y,1/2-z
1/2-x,1/2+y,z
1/2+x,-y,1/2+z
loop_
_atom_site_type_symbol
_atom_site_label
_atom_site_fract_x
_atom_site_fract_y
_atom_site_fract_z
Si Si1 0.176978 0.019824 0.806157
Si Si2 0.178942 0.393388 0.682615
Si Si3 0.832294 0.283522 0.266758
Si Si4 0.642137 0.145025 0.937368
Si Si5 0.418631 0.968228 0.102370
Si Si6 0.693105 0.123491 0.558770
Si Si7 0.585969 0.824155 0.832166
O O1 0.250000 0.040990 0.750000
O O2 0.115753 0.015353 0.716132
O O3 0.158663 0.065237 0.899198
O O4 0.183842 0.957867 0.852077
O O5 0.250000 0.375544 0.750000
O O6 0.171600 0.362559 0.566068
O O7 0.110661 0.376135 0.756878
O O8 0.750000 0.263203 0.250000
O O9 0.863635 0.310737 0.158122
O O10 0.836281 0.326417 0.367354
O O11 0.885307 0.232496 0.281872
O O12 0.584388 0.097123 0.916764
O O13 0.720924 0.117721 0.936708
O O14 0.623116 0.173857 0.050314
O O15 0.500000 0.988845 0.110160
O O16 0.380744 0.000000 0.000000
O O17 0.500000 0.824433 0.840299
#
# Coordination Sequence:
#
# PCOD8264585 Si02
#       7
#    16  16  16  16  16  16  16
#     4  11  21  38  64 100 134 172 219 268 320 392
#     4  11  24  40  67  97 133 174 218 270 326 389
#     4  10  24  43  70  97 129 170 220 277 331 395
#     4  11  22  42  68  97 128 167 215 272 333 391
#     4  11  23  38  62  96 137 174 213 265 330 398
#     4  11  21  42  68 100 132 165 219 277 330 390
#     4  12  27  45  65  94 133 174 224 273 328 394
#
# _framework density 20.421589000000001
#
# number of rings (size 3 to 8) (size 9 to 14) (size 15 to 20)
#    0.000    1.000    4.286    2.571    4.000    4.000 
#    0.000    0.714    0.000    1.714    0.000    0.000 
#    0.000    0.000    0.000    0.000    0.000    0.000 
#
# Total GULP energy -694481.793235 kJ/mol
# GULP energy per Si atom -12401.460593 kJ/mol
# Density = 2.037511 g / cm^3
# Si number density = 20.421589 Si / 1000 Ang^3
#
#
#
# Elastic Constant Matrix: (Units=GPa)
#
#
# Indices 1 2 3 4 5 6 
#
# 1 73.0508 26.7515 34.3579 0.0000 0.0000 0.0000
# 2 26.7515 75.0792 24.0021 0.0000 0.0000 0.0000
# 3 34.3579 24.0021 141.2926 0.0000 0.0000 0.0000
# 4 0.0000 0.0000 0.0000 26.0638 0.0000 0.0000
# 5 0.0000 0.0000 0.0000 0.0000 26.5560 0.0000
# 6 0.0000 0.0000 0.0000 0.0000 0.0000 27.2683
#
#
#
# Elastic Compliance Matrix: (Units=1/GPa)
#
#
# Indices 1 2 3 4 5 6 
#
# 1 0.017084 -0.005032 -0.003299 0.000000 0.000000 0.000000
# 2 -0.005032 0.015567 -0.001421 0.000000 0.000000 0.000000
# 3 -0.003299 -0.001421 0.008121 0.000000 0.000000 0.000000
# 4 0.000000 0.000000 0.000000 0.038367 0.000000 0.000000
# 5 0.000000 0.000000 0.000000 0.000000 0.037656 0.000000
# 6 0.000000 0.000000 0.000000 0.000000 0.000000 0.036673
#
#
# Mechanical properties :
#
#
# Convention : Reuss Voigt Hill
#
# Bulk Modulus (GPa) = 47.02187 51.07172 49.04679
# Shear Modulus (GPa) = 27.76833 29.59837 28.68335
#
# Velocity S-wave (km/s) = 3.69148 3.81118 3.75181
# Velocity P-wave (km/s) = 6.42222 6.66557 6.54503
#
# Compressibility (1/GPa) = 0.02126670
#
# Stress axis : x y z
#
# Youngs Moduli (GPa) = 58.53519 64.24042 123.13540
#
# Poissons Ratio (x) = 0.32328 0.40627
# Poissons Ratio (y) = 0.29457 0.17493
# Poissons Ratio (z) = 0.19313 0.09126
#
# Static dielectric constant tensor:
#      x y z
#    x 3.459760 0.000000 0.000000 
#    y 0.000000 3.663700 0.000000 
#    z 0.000000 0.000000 3.960840 
# 
# 
# High freq. dielectric constant tensor:
#      x y z
#    x 1.771930 0.000000 0.000000 
#    y 0.000000 1.805300 0.000000 
#    z 0.000000 0.000000 1.814210 
# 
# From -- ./inp_files/17566.got.cif
#   From: 2010.03.12/outbox.cif.g09.slc.cpg/sg64_9_cif.got.tgz:17566.got - 2010.04.10 20:19:32.
