data_PCOD8264254
_publ_section_title
;
Structure prediction by ZEFSAII (Michael W. Deem and Ramdas Pophale) SiO2 
 PCOD8264254
Probable space group: C M C A
;
_chemical_formula_sum "Si O2"
_cell_formula_units_Z 64
_cell_length_a 9.952952
_cell_length_b 20.529175
_cell_length_c 15.903837
_cell_angle_alpha 90.000000
_cell_angle_beta 90.000000
_cell_angle_gamma 90.000000
_cell_volume 3249.565703
_symmetry_space_group_name_H-M "C M C A"
_symmetry_group_IT_number 64
_symmetry_cell_setting 'orthorhombic'
loop_
_space_group_symop_operation_xyz
x,y,z
-x,1/2-y,1/2+z
x,-y,-z
-x,1/2+y,1/2-z
-x,-y,-z
x,1/2+y,1/2-z
-x,y,z
x,1/2-y,1/2+z
1/2+x,1/2+y,z
1/2-x,-y,1/2+z
1/2+x,1/2-y,-z
1/2-x,y,1/2-z
1/2-x,1/2-y,-z
1/2+x,y,1/2-z
1/2-x,1/2+y,z
1/2+x,-y,1/2+z
loop_
_atom_site_type_symbol
_atom_site_label
_atom_site_fract_x
_atom_site_fract_y
_atom_site_fract_z
Si Si1 0.729429 0.664264 0.576710
Si Si2 0.652844 0.199411 0.103520
Si Si3 0.500000 0.894837 0.376420
Si Si4 0.000000 0.893494 0.310549
Si Si5 0.250000 0.893218 0.750000
Si Si6 0.500000 0.519081 0.217249
O O1 0.664079 0.661888 0.484899
O O2 0.748538 0.738746 0.606270
O O3 0.633759 0.628473 0.642413
O O4 0.870268 0.626889 0.571571
O O5 0.500000 0.223190 0.116053
O O6 0.693148 0.150556 0.176032
O O7 0.500000 0.861694 0.282995
O O8 0.500000 0.973334 0.365848
O O9 0.000000 0.972486 0.300674
O O10 0.368128 0.937355 0.713816
#
# Coordination Sequence:
#
# PCOD8264254 Si02
#       6
#    16  16   8   8   8   8
#     4  11  22  42  67 100 125 167 214 267 328 364
#     4  11  25  42  64  96 139 161 208 269 323 401
#     4  10  22  39  69  91 129 163 221 270 299 376
#     4  10  22  39  71  91 131 165 211 276 309 366
#     4  12  24  44  66  90 134 180 202 256 340 376
#     4  10  24  42  64  96 130 168 222 266 296 386
#
# _framework density 19.694939999999999
#
# number of rings (size 3 to 8) (size 9 to 14) (size 15 to 20)
#    0.750    0.500    3.750    2.250    3.500    2.000 
#    0.000    7.500    0.000    0.000    0.000    0.000 
#    0.000    0.000    0.000    0.000    0.000    0.000 
#
# Total GULP energy -396872.099708 kJ/mol
# GULP energy per Si atom -12402.253116 kJ/mol
# Density = 1.965011 g / cm^3
# Si number density = 19.694940 Si / 1000 Ang^3
#
#
#
# Elastic Constant Matrix: (Units=GPa)
#
#
# Indices 1 2 3 4 5 6 
#
# 1 111.9504 13.0036 8.1563 0.0000 0.0000 0.0000
# 2 13.0036 63.6044 21.6469 0.0000 0.0000 0.0000
# 3 8.1563 21.6469 63.2466 0.0000 0.0000 0.0000
# 4 0.0000 0.0000 0.0000 -722.7486 0.0000 0.0000
# 5 0.0000 0.0000 0.0000 0.0000 36.4461 0.0000
# 6 0.0000 0.0000 0.0000 0.0000 0.0000 43.3879
#
#
#
# Elastic Compliance Matrix: (Units=1/GPa)
#
#
# Indices 1 2 3 4 5 6 
#
# 1 0.009171 -0.001667 -0.000612 0.000000 0.000000 0.000000
# 2 -0.001667 0.018098 -0.005979 0.000000 0.000000 0.000000
# 3 -0.000612 -0.005979 0.017937 0.000000 0.000000 0.000000
# 4 0.000000 0.000000 0.000000 -0.001384 0.000000 0.000000
# 5 0.000000 0.000000 0.000000 0.000000 0.027438 0.000000
# 6 0.000000 0.000000 0.000000 0.000000 0.000000 0.023048
#
#
# Mechanical properties :
#
#
# Convention : Reuss Voigt Hill
#
# Bulk Modulus (GPa) = 34.85660 36.04610 35.45135
# Shear Modulus (GPa) = 41.53291 -115.51662 -36.99186
#
# Velocity S-wave (km/s) = 4.59716 -7.66683 -4.33857
# Velocity P-wave (km/s) = 6.77608 7.74802 2.65674
#
# Compressibility (1/GPa) = 0.02868897
#
# Stress axis : x y z
#
# Youngs Moduli (GPa) = 109.04282 55.25509 55.75203
#
# Poissons Ratio (x) = 0.09208 0.03413
# Poissons Ratio (y) = 0.18172 0.33336
# Poissons Ratio (z) = 0.06676 0.33039
#
# Static dielectric constant tensor:
#      x y z
#    x 3.683420 0.000000 0.000000 
#    y 0.000000 3.551110 0.000000 
#    z 0.000000 0.000000 3.488910 
# 
# 
# High freq. dielectric constant tensor:
#      x y z
#    x 1.784690 0.000000 0.000000 
#    y 0.000000 1.767160 0.000000 
#    z 0.000000 0.000000 1.758750 
# 
# From -- ./inp_files/29314.got.cif
#   From: 2010.03.12/outbox.cif.g09.slc.cpg/sg64_15_cif.got.tgz:29314.got - 2010.04.10 20:19:32.
