data_PCOD8264016
_publ_section_title
;
Structure prediction by ZEFSAII (Michael W. Deem and Ramdas Pophale) SiO2 
 PCOD8264016
Probable space group: C M C A
;
_chemical_formula_sum "Si O2"
_cell_formula_units_Z 80
_cell_length_a 15.018540
_cell_length_b 28.297504
_cell_length_c 8.765475
_cell_angle_alpha 90.000000
_cell_angle_beta 90.000000
_cell_angle_gamma 90.000000
_cell_volume 3725.214639
_symmetry_space_group_name_H-M "C M C A"
_symmetry_group_IT_number 64
_symmetry_cell_setting 'orthorhombic'
loop_
_space_group_symop_operation_xyz
x,y,z
-x,1/2-y,1/2+z
x,-y,-z
-x,1/2+y,1/2-z
-x,-y,-z
x,1/2+y,1/2-z
-x,y,z
x,1/2-y,1/2+z
1/2+x,1/2+y,z
1/2-x,-y,1/2+z
1/2+x,1/2-y,-z
1/2-x,y,1/2-z
1/2-x,1/2-y,-z
1/2+x,y,1/2-z
1/2-x,1/2+y,z
1/2+x,-y,1/2+z
loop_
_atom_site_type_symbol
_atom_site_label
_atom_site_fract_x
_atom_site_fract_y
_atom_site_fract_z
Si Si1 0.235271 0.048113 0.425678
Si Si2 0.600371 0.605596 0.010841
Si Si3 0.897283 0.872359 0.642416
Si Si4 0.600228 0.224340 0.997491
Si Si5 0.344993 0.307417 0.181776
O O1 0.250000 0.037220 0.250000
O O2 0.326925 0.064151 0.510051
O O3 0.159799 0.087921 0.444494
O O4 0.200169 0.000000 0.500000
O O5 0.500000 0.584600 0.001565
O O6 0.618428 0.628354 0.176546
O O7 0.609906 0.645083 0.880811
O O8 0.862584 0.822373 0.580556
O O9 0.000000 0.881048 0.599254
O O10 0.500000 0.235618 0.051299
O O11 0.597972 0.216327 0.816288
O O12 0.661479 0.268846 0.045699
O O13 0.250000 0.320856 0.250000
#
# Coordination Sequence:
#
# PCOD8264016 Si02
#       5
#    16  16  16  16  16
#     4  10  22  39  60  86 116 150 194 248 302 354
#     4  10  21  40  62  84 117 159 198 239 293 353
#     4   9  20  39  62  87 118 157 198 242 293 349
#     4  11  22  37  57  84 118 155 194 235 285 345
#     4  12  24  37  57  87 120 155 197 241 288 342
#
# _framework density 21.475272
#
# number of rings (size 3 to 8) (size 9 to 14) (size 15 to 20)
#    0.000    1.600    0.000    4.800    0.000    7.200 
#    0.000    0.000    0.000    0.000    0.000    0.000 
#    0.000    0.000    0.000    0.000    0.000    0.000 
#
# Total GULP energy -496106.739806 kJ/mol
# GULP energy per Si atom -12402.668495 kJ/mol
# Density = 2.142639 g / cm^3
# Si number density = 21.475272 Si / 1000 Ang^3
#
#
#
# Elastic Constant Matrix: (Units=GPa)
#
#
# Indices 1 2 3 4 5 6 
#
# 1 93.2984 28.8401 13.3091 0.0000 0.0000 0.0000
# 2 28.8401 84.2884 22.8144 0.0000 0.0000 0.0000
# 3 13.3091 22.8144 66.1922 0.0000 0.0000 0.0000
# 4 0.0000 0.0000 0.0000 40.3516 0.0000 0.0000
# 5 0.0000 0.0000 0.0000 0.0000 26.0891 0.0000
# 6 0.0000 0.0000 0.0000 0.0000 0.0000 20.4507
#
#
#
# Elastic Compliance Matrix: (Units=1/GPa)
#
#
# Indices 1 2 3 4 5 6 
#
# 1 0.012059 -0.003827 -0.001106 0.000000 0.000000 0.000000
# 2 -0.003827 0.014299 -0.004159 0.000000 0.000000 0.000000
# 3 -0.001106 -0.004159 0.016763 0.000000 0.000000 0.000000
# 4 0.000000 0.000000 0.000000 0.024782 0.000000 0.000000
# 5 0.000000 0.000000 0.000000 0.000000 0.038330 0.000000
# 6 0.000000 0.000000 0.000000 0.000000 0.000000 0.048898
#
#
# Mechanical properties :
#
#
# Convention : Reuss Voigt Hill
#
# Bulk Modulus (GPa) = 40.09881 41.52290 40.81085
# Shear Modulus (GPa) = 27.52885 29.29931 28.41408
#
# Velocity S-wave (km/s) = 3.58423 3.69769 3.64140
# Velocity P-wave (km/s) = 5.98678 6.13251 6.06008
#
# Compressibility (1/GPa) = 0.02493839
#
# Stress axis : x y z
#
# Youngs Moduli (GPa) = 82.92596 69.93425 59.65400
#
# Poissons Ratio (x) = 0.26763 0.06596
# Poissons Ratio (y) = 0.31734 0.24810
# Poissons Ratio (z) = 0.09169 0.29086
#
# Static dielectric constant tensor:
#      x y z
#    x 3.924140 0.000000 0.000000 
#    y 0.000000 3.691290 0.000000 
#    z 0.000000 0.000000 3.866510 
# 
# 
# High freq. dielectric constant tensor:
#      x y z
#    x 1.850450 0.000000 0.000000 
#    y 0.000000 1.827550 0.000000 
#    z 0.000000 0.000000 1.842810 
# 
# From -- ./inp_files/7032.got.cif
#   From: 2010.03.12/outbox.cif.g09.slc.cpg/sg64_4_cif.got.tgz:7032.got - 2010.04.10 20:19:32.
