data_PCOD8264338
_publ_section_title
;
Structure prediction by ZEFSAII (Michael W. Deem and Ramdas Pophale) SiO2 
 PCOD8264338
Probable space group: C M C A
;
_chemical_formula_sum "Si O2"
_cell_formula_units_Z 88
_cell_length_a 16.255355
_cell_length_b 11.553354
_cell_length_c 21.993213
_cell_angle_alpha 90.000000
_cell_angle_beta 90.000000
_cell_angle_gamma 90.000000
_cell_volume 4130.410531
_symmetry_space_group_name_H-M "C M C A"
_symmetry_group_IT_number 64
_symmetry_cell_setting 'orthorhombic'
loop_
_space_group_symop_operation_xyz
x,y,z
-x,1/2-y,1/2+z
x,-y,-z
-x,1/2+y,1/2-z
-x,-y,-z
x,1/2+y,1/2-z
-x,y,z
x,1/2-y,1/2+z
1/2+x,1/2+y,z
1/2-x,-y,1/2+z
1/2+x,1/2-y,-z
1/2-x,y,1/2-z
1/2-x,1/2-y,-z
1/2+x,y,1/2-z
1/2-x,1/2+y,z
1/2+x,-y,1/2+z
loop_
_atom_site_type_symbol
_atom_site_label
_atom_site_fract_x
_atom_site_fract_y
_atom_site_fract_z
Si Si1 0.407894 0.085997 0.677698
Si Si2 0.406388 0.155842 0.932493
Si Si3 0.281074 0.500000 0.500000
Si Si4 0.334490 0.385422 0.901444
Si Si5 0.291597 0.709616 0.313942
Si Si6 0.908309 0.508983 0.813291
O O1 0.500000 0.119192 0.658064
O O2 0.348186 0.189260 0.659503
O O3 0.401509 0.074940 0.749944
O O4 0.384029 0.969213 0.643182
O O5 0.500000 0.128281 0.953273
O O6 0.340825 0.103954 0.979759
O O7 0.396917 0.295733 0.933716
O O8 0.389303 0.100860 0.866134
O O9 0.221142 0.541720 0.447068
O O10 0.279228 0.299489 0.862692
O O11 0.250000 0.740376 0.250000
O O12 0.341777 0.591228 0.312149
O O13 0.000000 0.455936 0.821001
#
# Coordination Sequence:
#
# PCOD8264338 Si02
#       6
#    16  16   8  16  16  16
#     4  11  25  43  65  98 135 173 209 259 329 400
#     4  11  24  45  69  97 130 173 218 269 328 387
#     4  12  25  46  67  96 128 170 228 278 323 380
#     4  12  25  43  68  95 131 169 220 273 326 380
#     4  12  23  38  67  97 134 167 216 262 324 386
#     4  10  22  41  65  98 134 168 209 260 325 397
#
# _framework density 21.305389000000002
#
# number of rings (size 3 to 8) (size 9 to 14) (size 15 to 20)
#    0.000    0.727    3.636    4.091    2.545    0.000 
#    0.000    3.636    0.000    0.000    0.000    0.000 
#    0.000    0.000    0.000    0.000    0.000    0.000 
#
# Total GULP energy -545707.372147 kJ/mol
# GULP energy per Si atom -12402.440276 kJ/mol
# Density = 2.125690 g / cm^3
# Si number density = 21.305389 Si / 1000 Ang^3
#
#
#
# Elastic Constant Matrix: (Units=GPa)
#
#
# Indices 1 2 3 4 5 6 
#
# 1 98.8583 35.9894 14.8852 0.0000 0.0000 0.0000
# 2 35.9894 87.8732 -8.0904 0.0000 0.0000 0.0000
# 3 14.8852 -8.0904 49.9467 0.0000 0.0000 0.0000
# 4 0.0000 0.0000 0.0000 -92.7219 0.0000 0.0000
# 5 0.0000 0.0000 0.0000 0.0000 6.2095 0.0000
# 6 0.0000 0.0000 0.0000 0.0000 0.0000 49.6320
#
#
#
# Elastic Compliance Matrix: (Units=1/GPa)
#
#
# Indices 1 2 3 4 5 6 
#
# 1 0.012922 -0.005732 -0.004780 0.000000 0.000000 0.000000
# 2 -0.005732 0.014095 0.003992 0.000000 0.000000 0.000000
# 3 -0.004780 0.003992 0.022092 0.000000 0.000000 0.000000
# 4 0.000000 0.000000 0.000000 -0.010785 0.000000 0.000000
# 5 0.000000 0.000000 0.000000 0.000000 0.161044 0.000000
# 6 0.000000 0.000000 0.000000 0.000000 0.000000 0.020148
#
#
# Mechanical properties :
#
#
# Convention : Reuss Voigt Hill
#
# Bulk Modulus (GPa) = 27.72483 35.80519 31.76501
# Shear Modulus (GPa) = 20.44310 5.55018 12.99664
#
# Velocity S-wave (km/s) = 3.10098 1.61577 2.47253
# Velocity P-wave (km/s) = 5.08555 4.50812 4.80551
#
# Compressibility (1/GPa) = 0.03606876
#
# Stress axis : x y z
#
# Youngs Moduli (GPa) = 77.38720 70.94568 45.26456
#
# Poissons Ratio (x) = 0.40669 0.21635
# Poissons Ratio (y) = 0.44361 -0.18068
# Poissons Ratio (z) = 0.36988 -0.28318
#
# Static dielectric constant tensor:
#      x y z
#    x 3.033920 0.000000 0.000000 
#    y 0.000000 3.726110 0.000000 
#    z 0.000000 0.000000 3.726520 
# 
# 
# High freq. dielectric constant tensor:
#      x y z
#    x 1.857920 0.000000 0.000000 
#    y 0.000000 1.838860 0.000000 
#    z 0.000000 0.000000 1.826840 
# 
# From -- ./inp_files/45078.got.cif
#   From: 2010.03.12/outbox.cif.g09.slc.cpg/sg64_23_cif.got.tgz:45078.got - 2010.04.10 20:19:32.
