data_PCOD8264431
_publ_section_title
;
Structure prediction by ZEFSAII (Michael W. Deem and Ramdas Pophale) SiO2 
 PCOD8264431
Probable space group: C M C A
;
_chemical_formula_sum "Si O2"
_cell_formula_units_Z 56
_cell_length_a 7.537017
_cell_length_b 17.693597
_cell_length_c 23.958628
_cell_angle_alpha 90.000000
_cell_angle_beta 90.000000
_cell_angle_gamma 90.000000
_cell_volume 3195.049350
_symmetry_space_group_name_H-M "C M C A"
_symmetry_group_IT_number 64
_symmetry_cell_setting 'orthorhombic'
loop_
_space_group_symop_operation_xyz
x,y,z
-x,1/2-y,1/2+z
x,-y,-z
-x,1/2+y,1/2-z
-x,-y,-z
x,1/2+y,1/2-z
-x,y,z
x,1/2-y,1/2+z
1/2+x,1/2+y,z
1/2-x,-y,1/2+z
1/2+x,1/2-y,-z
1/2-x,y,1/2-z
1/2-x,1/2-y,-z
1/2+x,y,1/2-z
1/2-x,1/2+y,z
1/2+x,-y,1/2+z
loop_
_atom_site_type_symbol
_atom_site_label
_atom_site_fract_x
_atom_site_fract_y
_atom_site_fract_z
Si Si1 0.297531 0.900025 0.313826
Si Si2 0.695175 0.253806 0.374268
Si Si3 0.500000 0.473878 0.385632
Si Si4 0.500000 0.149308 0.091012
Si Si5 0.000000 0.838578 0.460843
O O1 0.500000 0.922868 0.325675
O O2 0.250000 0.913219 0.250000
O O3 0.267651 0.812074 0.328353
O O4 0.174854 0.954409 0.350535
O O5 0.500000 0.224220 0.354947
O O6 0.825893 0.183388 0.379960
O O7 0.674334 0.298292 0.433624
O O8 0.500000 0.560793 0.401039
O O9 0.500000 0.426717 0.443299
O O10 0.500000 0.171061 0.026422
#
# Coordination Sequence:
#
# PCOD8264431 Si02
#       5
#    16  16   8   8   8
#     4  11  19  38  64  76 104 147 189 224 268 335
#     4   9  20  34  57  88 103 139 195 223 263 329
#     4  10  23  35  53  89 110 145 186 221 273 333
#     4  12  19  35  57  80 122 146 166 244 278 298
#     4   8  19  38  54  79 114 149 191 213 261 339
#
# _framework density 17.527115999999999
#
# number of rings (size 3 to 8) (size 9 to 14) (size 15 to 20)
#    0.857    1.143    4.286    1.286    0.000    1.143 
#    0.000    1.429    0.000    5.143    0.000    0.000 
#    0.000    0.000    0.000    0.000    0.000    0.000 
#
# Total GULP energy -347044.818975 kJ/mol
# GULP energy per Si atom -12394.457821 kJ/mol
# Density = 1.748722 g / cm^3
# Si number density = 17.527116 Si / 1000 Ang^3
#
#
#
# Elastic Constant Matrix: (Units=GPa)
#
#
# Indices 1 2 3 4 5 6 
#
# 1 140.1825 23.6423 5.9305 0.0000 0.0000 0.0000
# 2 23.6423 76.0166 -21.0028 0.0000 0.0000 0.0000
# 3 5.9305 -21.0028 24.6353 0.0000 0.0000 0.0000
# 4 0.0000 0.0000 0.0000 11.8533 0.0000 0.0000
# 5 0.0000 0.0000 0.0000 0.0000 18.5592 0.0000
# 6 0.0000 0.0000 0.0000 0.0000 0.0000 49.2988
#
#
#
# Elastic Compliance Matrix: (Units=1/GPa)
#
#
# Indices 1 2 3 4 5 6 
#
# 1 0.008027 -0.003964 -0.005312 0.000000 0.000000 0.000000
# 2 -0.003964 0.019166 0.017294 0.000000 0.000000 0.000000
# 3 -0.005312 0.017294 0.056615 0.000000 0.000000 0.000000
# 4 0.000000 0.000000 0.000000 0.084365 0.000000 0.000000
# 5 0.000000 0.000000 0.000000 0.000000 0.053882 0.000000
# 6 0.000000 0.000000 0.000000 0.000000 0.000000 0.020284
#
#
# Mechanical properties :
#
#
# Convention : Reuss Voigt Hill
#
# Bulk Modulus (GPa) = 10.01549 28.66380 19.33965
# Shear Modulus (GPa) = 19.26160 31.42656 25.34408
#
# Velocity S-wave (km/s) = 3.31865 4.23901 3.80675
# Velocity P-wave (km/s) = 4.51789 6.35204 5.51179
#
# Compressibility (1/GPa) = 0.09984532
#
# Stress axis : x y z
#
# Youngs Moduli (GPa) = 124.58204 52.17508 17.66306
#
# Poissons Ratio (x) = 0.20683 0.09382
# Poissons Ratio (y) = 0.49386 -0.30547
# Poissons Ratio (z) = 0.66177 -0.90234
#
# Static dielectric constant tensor:
#      x y z
#    x 3.373730 0.000000 0.000000 
#    y 0.000000 2.975470 0.000000 
#    z 0.000000 0.000000 3.115190 
# 
# 
# High freq. dielectric constant tensor:
#      x y z
#    x 1.686470 0.000000 0.000000 
#    y 0.000000 1.657710 0.000000 
#    z 0.000000 0.000000 1.669600 
# 
# From -- ./inp_files/36189.got.cif
#   From: 2010.03.12/outbox.cif.g09.slc.cpg/sg64_19_cif.got.tgz:36189.got - 2010.04.10 20:19:32.
