data_PCOD8264359
_publ_section_title
;
Structure prediction by ZEFSAII (Michael W. Deem and Ramdas Pophale) SiO2 
 PCOD8264359
Probable space group: C M C A
;
_chemical_formula_sum "Si O2"
_cell_formula_units_Z 112
_cell_length_a 13.747283
_cell_length_b 23.092564
_cell_length_c 15.388228
_cell_angle_alpha 90.000000
_cell_angle_beta 90.000000
_cell_angle_gamma 90.000000
_cell_volume 4885.147053
_symmetry_space_group_name_H-M "C M C A"
_symmetry_group_IT_number 64
_symmetry_cell_setting 'orthorhombic'
loop_
_space_group_symop_operation_xyz
x,y,z
-x,1/2-y,1/2+z
x,-y,-z
-x,1/2+y,1/2-z
-x,-y,-z
x,1/2+y,1/2-z
-x,y,z
x,1/2-y,1/2+z
1/2+x,1/2+y,z
1/2-x,-y,1/2+z
1/2+x,1/2-y,-z
1/2-x,y,1/2-z
1/2-x,1/2-y,-z
1/2+x,y,1/2-z
1/2-x,1/2+y,z
1/2+x,-y,1/2+z
loop_
_atom_site_type_symbol
_atom_site_label
_atom_site_fract_x
_atom_site_fract_y
_atom_site_fract_z
Si Si1 0.608570 0.115384 0.491777
Si Si2 0.608507 0.808698 0.155174
Si Si3 0.885614 0.101287 0.204769
Si Si4 0.384419 0.523171 0.734447
Si Si5 0.861511 0.245944 0.983041
Si Si6 0.248846 0.584676 0.633768
Si Si7 0.110367 0.214310 0.289986
O O1 0.500000 0.087543 0.501929
O O2 0.644883 0.114385 0.393412
O O3 0.602122 0.180539 0.526883
O O4 0.690087 0.079518 0.543891
O O5 0.500000 0.833934 0.181527
O O6 0.586884 0.776177 0.064222
O O7 0.694953 0.854455 0.142224
O O8 0.652562 0.765824 0.229501
O O9 0.840624 0.152368 0.264981
O O10 0.000000 0.098013 0.215666
O O11 0.845987 0.038795 0.233395
O O12 0.500000 0.529910 0.731331
O O13 0.333576 0.535145 0.640381
O O14 0.335805 0.574560 0.793091
O O15 0.750000 0.250000 0.000000
O O16 0.883791 0.277332 0.892578
O O17 0.000000 0.210046 0.258765
#
# Coordination Sequence:
#
# PCOD8264359 Si02
#       7
#    16  16  16  16  16  16  16
#     4  11  22  42  71 101 139 178 225 291 348 412
#     4  11  23  43  68 101 144 182 221 281 351 424
#     4   9  20  44  73  99 130 179 235 286 347 410
#     4  10  23  45  68  95 133 176 234 294 338 403
#     4  12  24  41  62 106 146 179 224 280 347 437
#     4  11  24  40  63  99 135 173 231 275 346 410
#     4  10  22  41  71 100 132 180 225 277 352 417
#
# _framework density 22.926638000000001
#
# number of rings (size 3 to 8) (size 9 to 14) (size 15 to 20)
#    0.000    1.429    2.857    2.143    4.000    1.143 
#    5.143    3.571    0.000    0.000    0.000   16.000 
#    0.000    0.000    0.000    0.000    0.000    0.000 
#
# Total GULP energy -693855.932219 kJ/mol
# GULP energy per Si atom -12390.284504 kJ/mol
# Density = 2.287446 g / cm^3
# Si number density = 22.926638 Si / 1000 Ang^3
#
#
#
# Elastic Constant Matrix: (Units=GPa)
#
#
# Indices 1 2 3 4 5 6 
#
# 1 128.3987 31.7820 31.0786 0.0000 0.0000 0.0000
# 2 31.7820 98.6804 54.2707 0.0000 0.0000 0.0000
# 3 31.0786 54.2707 128.7927 0.0000 0.0000 0.0000
# 4 0.0000 0.0000 0.0000 30.4566 0.0000 0.0000
# 5 0.0000 0.0000 0.0000 0.0000 40.0666 0.0000
# 6 0.0000 0.0000 0.0000 0.0000 0.0000 -0.8521
#
#
#
# Elastic Compliance Matrix: (Units=1/GPa)
#
#
# Indices 1 2 3 4 5 6 
#
# 1 0.008599 -0.002119 -0.001182 0.000000 0.000000 0.000000
# 2 -0.002119 0.013713 -0.005267 0.000000 0.000000 0.000000
# 3 -0.001182 -0.005267 0.010269 0.000000 0.000000 0.000000
# 4 0.000000 0.000000 0.000000 0.032834 0.000000 0.000000
# 5 0.000000 0.000000 0.000000 0.000000 0.024958 0.000000
# 6 0.000000 0.000000 0.000000 0.000000 0.000000 -1.173610
#
#
# Mechanical properties :
#
#
# Convention : Reuss Voigt Hill
#
# Bulk Modulus (GPa) = 64.74866 65.57049 65.15957
# Shear Modulus (GPa) = -4.71275 29.85027 12.56876
#
# Velocity S-wave (km/s) = -1.43528 3.61223 2.34394
# Velocity P-wave (km/s) = 5.05532 6.78674 5.98398
#
# Compressibility (1/GPa) = 0.01544433
#
# Stress axis : x y z
#
# Youngs Moduli (GPa) = 116.29342 72.92368 97.38054
#
# Poissons Ratio (x) = 0.15456 0.11509
# Poissons Ratio (y) = 0.24648 0.51290
# Poissons Ratio (z) = 0.13745 0.38408
#
# Static dielectric constant tensor:
#      x y z
#    x 4.341760 0.000000 0.000000 
#    y 0.000000 4.317100 0.000000 
#    z 0.000000 0.000000 4.092490 
# 
# 
# High freq. dielectric constant tensor:
#      x y z
#    x 1.929500 0.000000 0.000000 
#    y 0.000000 1.894790 0.000000 
#    z 0.000000 0.000000 1.893910 
# 
# From -- ./inp_files/24193.got.cif
#   From: 2010.03.12/outbox.cif.g09.slc.cpg/sg64_13_cif.got.tgz:24193.got - 2010.04.10 20:19:32.
