data_PCOD8264474
_publ_section_title
;
Structure prediction by ZEFSAII (Michael W. Deem and Ramdas Pophale) SiO2 
 PCOD8264474
Probable space group: C M C A
;
_chemical_formula_sum "Si O2"
_cell_formula_units_Z 72
_cell_length_a 16.090369
_cell_length_b 9.286863
_cell_length_c 21.786397
_cell_angle_alpha 90.000000
_cell_angle_beta 90.000000
_cell_angle_gamma 90.000000
_cell_volume 3255.520662
_symmetry_space_group_name_H-M "C M C A"
_symmetry_group_IT_number 64
_symmetry_cell_setting 'orthorhombic'
loop_
_space_group_symop_operation_xyz
x,y,z
-x,1/2-y,1/2+z
x,-y,-z
-x,1/2+y,1/2-z
-x,-y,-z
x,1/2+y,1/2-z
-x,y,z
x,1/2-y,1/2+z
1/2+x,1/2+y,z
1/2-x,-y,1/2+z
1/2+x,1/2-y,-z
1/2-x,y,1/2-z
1/2-x,1/2-y,-z
1/2+x,y,1/2-z
1/2-x,1/2+y,z
1/2+x,-y,1/2+z
loop_
_atom_site_type_symbol
_atom_site_label
_atom_site_fract_x
_atom_site_fract_y
_atom_site_fract_z
Si Si1 0.094997 0.121621 0.799381
Si Si2 0.594718 0.350148 0.415047
Si Si3 0.287127 0.000000 0.000000
Si Si4 0.810723 0.923065 0.880453
Si Si5 0.645183 0.060831 0.186811
O O1 0.098370 0.293358 0.795191
O O2 0.000000 0.071278 0.796981
O O3 0.137028 0.065771 0.862651
O O4 0.143487 0.050089 0.742838
O O5 0.500000 0.324970 0.436213
O O6 0.652946 0.373665 0.474533
O O7 0.627906 0.212728 0.377785
O O8 0.599769 0.489803 0.371654
O O9 0.227727 0.061503 0.052381
O O10 0.739809 0.899229 0.829571
#
# Coordination Sequence:
#
# PCOD8264474 Si02
#       5
#    16  16   8  16  16
#     4  12  24  41  63  93 126 162 206 258 310 368
#     4  11  22  41  67  96 125 163 210 262 312 367
#     4  10  23  42  63  90 126 166 210 256 311 376
#     4  11  24  43  65  91 125 167 210 256 311 374
#     4  11  24  42  64  92 128 166 204 252 313 379
#
# _framework density 22.116278999999999
#
# number of rings (size 3 to 8) (size 9 to 14) (size 15 to 20)
#    0.000    0.889    0.000    8.333    0.000    3.556 
#    0.000    6.667    0.000    0.000    0.000    0.000 
#    0.000    0.000    0.000    0.000    0.000    0.000 
#
# Total GULP energy -446608.790577 kJ/mol
# GULP energy per Si atom -12405.799738 kJ/mol
# Density = 2.206594 g / cm^3
# Si number density = 22.116279 Si / 1000 Ang^3
#
#
#
# Elastic Constant Matrix: (Units=GPa)
#
#
# Indices 1 2 3 4 5 6 
#
# 1 93.6503 36.8369 42.9514 0.0000 0.0000 0.0000
# 2 36.8369 123.8599 49.7554 0.0000 0.0000 0.0000
# 3 42.9514 49.7554 124.2624 0.0000 0.0000 0.0000
# 4 0.0000 0.0000 0.0000 32.4540 0.0000 0.0000
# 5 0.0000 0.0000 0.0000 0.0000 28.0576 0.0000
# 6 0.0000 0.0000 0.0000 0.0000 0.0000 29.1187
#
#
#
# Elastic Compliance Matrix: (Units=1/GPa)
#
#
# Indices 1 2 3 4 5 6 
#
# 1 0.013317 -0.002516 -0.003595 0.000000 0.000000 0.000000
# 2 -0.002516 0.010097 -0.003173 0.000000 0.000000 0.000000
# 3 -0.003595 -0.003173 0.010561 0.000000 0.000000 0.000000
# 4 0.000000 0.000000 0.000000 0.030813 0.000000 0.000000
# 5 0.000000 0.000000 0.000000 0.000000 0.035641 0.000000
# 6 0.000000 0.000000 0.000000 0.000000 0.000000 0.034342
#
#
# Mechanical properties :
#
#
# Convention : Reuss Voigt Hill
#
# Bulk Modulus (GPa) = 64.91485 66.76223 65.83854
# Shear Modulus (GPa) = 31.55085 32.07465 31.81275
#
# Velocity S-wave (km/s) = 3.78112 3.81238 3.79678
# Velocity P-wave (km/s) = 6.96260 7.04496 7.00390
#
# Compressibility (1/GPa) = 0.01540480
#
# Stress axis : x y z
#
# Youngs Moduli (GPa) = 75.09336 99.04332 94.69022
#
# Poissons Ratio (x) = 0.24921 0.34045
# Poissons Ratio (y) = 0.18895 0.30045
# Poissons Ratio (z) = 0.26999 0.31427
#
# Static dielectric constant tensor:
#      x y z
#    x 4.048150 0.000000 0.000000 
#    y 0.000000 3.875080 0.000000 
#    z 0.000000 0.000000 3.954550 
# 
# 
# High freq. dielectric constant tensor:
#      x y z
#    x 1.882240 0.000000 0.000000 
#    y 0.000000 1.870980 0.000000 
#    z 0.000000 0.000000 1.868960 
# 
# From -- ./inp_files/45626.got.cif
#   From: 2010.03.12/outbox.cif.g09.slc.cpg/sg64_23_cif.got.tgz:45626.got - 2010.04.10 20:19:32.
