data_PCOD8264624
_publ_section_title
;
Structure prediction by ZEFSAII (Michael W. Deem and Ramdas Pophale) SiO2 
 PCOD8264624
Probable space group: C M C A
;
_chemical_formula_sum "Si O2"
_cell_formula_units_Z 112
_cell_length_a 14.301193
_cell_length_b 27.055633
_cell_length_c 14.061456
_cell_angle_alpha 90.000000
_cell_angle_beta 90.000000
_cell_angle_gamma 90.000000
_cell_volume 5440.768646
_symmetry_space_group_name_H-M "C M C A"
_symmetry_group_IT_number 64
_symmetry_cell_setting 'orthorhombic'
loop_
_space_group_symop_operation_xyz
x,y,z
-x,1/2-y,1/2+z
x,-y,-z
-x,1/2+y,1/2-z
-x,-y,-z
x,1/2+y,1/2-z
-x,y,z
x,1/2-y,1/2+z
1/2+x,1/2+y,z
1/2-x,-y,1/2+z
1/2+x,1/2-y,-z
1/2-x,y,1/2-z
1/2-x,1/2-y,-z
1/2+x,y,1/2-z
1/2-x,1/2+y,z
1/2+x,-y,1/2+z
loop_
_atom_site_type_symbol
_atom_site_label
_atom_site_fract_x
_atom_site_fract_y
_atom_site_fract_z
Si Si1 0.107343 0.464877 0.413388
Si Si2 0.891579 0.762874 0.751075
Si Si3 0.734019 0.121479 0.523515
Si Si4 0.142005 0.042544 0.241799
Si Si5 0.245093 0.725040 0.898374
Si Si6 0.397828 0.358802 0.854757
Si Si7 0.395244 0.050829 0.043171
O O1 0.138330 0.500000 0.500000
O O2 0.170162 0.416287 0.417829
O O3 0.124197 0.490973 0.312072
O O4 0.000000 0.448816 0.424405
O O5 0.852110 0.737693 0.846679
O O6 0.834499 0.744669 0.659963
O O7 0.876754 0.821963 0.766340
O O8 0.000000 0.748773 0.736892
O O9 0.756399 0.165726 0.595201
O O10 0.680605 0.146002 0.434717
O O11 0.828594 0.095904 0.485836
O O12 0.250000 0.054664 0.250000
O O13 0.094661 0.085303 0.180776
O O14 0.096841 0.041774 0.344746
O O15 0.250000 0.750000 0.000000
O O16 0.500000 0.345058 0.897864
O O17 0.500000 0.062033 0.004746
O O18 0.354849 0.000000 0.000000
#
# Coordination Sequence:
#
# PCOD8264624 Si02
#       7
#    16  16  16  16  16  16  16
#     4  11  22  39  63  98 135 165 210 264 325 397
#     4  10  25  47  69  97 135 177 222 276 341 409
#     4  12  23  42  69  97 131 178 218 277 339 393
#     4  12  22  38  66  95 133 171 211 264 331 391
#     4  11  25  44  70  99 136 173 228 287 342 400
#     4  11  22  38  68 101 128 163 216 274 333 400
#     4  11  25  44  62  91 131 174 222 268 324 400
#
# _framework density 20.585326999999999
#
# number of rings (size 3 to 8) (size 9 to 14) (size 15 to 20)
#    0.000    0.857    4.286    3.000    4.000    2.286 
#    7.714    0.000    0.000    0.000    0.000    0.000 
#    0.000    0.000    0.000    0.000    0.000    0.000 
#
# Total GULP energy -694562.678359 kJ/mol
# GULP energy per Si atom -12402.904971 kJ/mol
# Density = 2.053847 g / cm^3
# Si number density = 20.585327 Si / 1000 Ang^3
#
#
#
# Elastic Constant Matrix: (Units=GPa)
#
#
# Indices 1 2 3 4 5 6 
#
# 1 136.7794 45.5198 37.2151 0.0000 0.0000 0.0000
# 2 45.5198 117.1935 41.6616 0.0000 0.0000 0.0000
# 3 37.2151 41.6616 95.1000 0.0000 0.0000 0.0000
# 4 0.0000 0.0000 0.0000 39.3807 0.0000 0.0000
# 5 0.0000 0.0000 0.0000 0.0000 22.9353 0.0000
# 6 0.0000 0.0000 0.0000 0.0000 0.0000 31.0079
#
#
#
# Elastic Compliance Matrix: (Units=1/GPa)
#
#
# Indices 1 2 3 4 5 6 
#
# 1 0.008804 -0.002600 -0.002306 0.000000 0.000000 0.000000
# 2 -0.002600 0.010875 -0.003747 0.000000 0.000000 0.000000
# 3 -0.002306 -0.003747 0.013059 0.000000 0.000000 0.000000
# 4 0.000000 0.000000 0.000000 0.025393 0.000000 0.000000
# 5 0.000000 0.000000 0.000000 0.000000 0.043601 0.000000
# 6 0.000000 0.000000 0.000000 0.000000 0.000000 0.032250
#
#
# Mechanical properties :
#
#
# Convention : Reuss Voigt Hill
#
# Bulk Modulus (GPa) = 64.79937 66.42956 65.61446
# Shear Modulus (GPa) = 31.96310 33.64320 32.80315
#
# Velocity S-wave (km/s) = 3.94472 4.04707 3.99622
# Velocity P-wave (km/s) = 7.23150 7.36062 7.29635
#
# Compressibility (1/GPa) = 0.01543225
#
# Stress axis : x y z
#
# Youngs Moduli (GPa) = 113.58887 91.95789 76.57501
#
# Poissons Ratio (x) = 0.23906 0.17660
# Poissons Ratio (y) = 0.29529 0.28690
# Poissons Ratio (z) = 0.26197 0.34453
#
# Static dielectric constant tensor:
#      x y z
#    x 3.862900 0.000000 0.000000 
#    y 0.000000 3.817250 0.000000 
#    z 0.000000 0.000000 4.118840 
# 
# 
# High freq. dielectric constant tensor:
#      x y z
#    x 1.822590 0.000000 0.000000 
#    y 0.000000 1.804220 0.000000 
#    z 0.000000 0.000000 1.796690 
# 
# From -- ./inp_files/24255.got.cif
#   From: 2010.03.12/outbox.cif.g09.slc.cpg/sg64_13_cif.got.tgz:24255.got - 2010.04.10 20:19:32.
