data_PCOD8264027
_publ_section_title
;
Structure prediction by ZEFSAII (Michael W. Deem and Ramdas Pophale) SiO2 
 PCOD8264027
Probable space group: C M C A
;
_chemical_formula_sum "Si O2"
_cell_formula_units_Z 96
_cell_length_a 18.454276
_cell_length_b 16.193731
_cell_length_c 16.074702
_cell_angle_alpha 90.000000
_cell_angle_beta 90.000000
_cell_angle_gamma 90.000000
_cell_volume 4803.821515
_symmetry_space_group_name_H-M "C M C A"
_symmetry_group_IT_number 64
_symmetry_cell_setting 'orthorhombic'
loop_
_space_group_symop_operation_xyz
x,y,z
-x,1/2-y,1/2+z
x,-y,-z
-x,1/2+y,1/2-z
-x,-y,-z
x,1/2+y,1/2-z
-x,y,z
x,1/2-y,1/2+z
1/2+x,1/2+y,z
1/2-x,-y,1/2+z
1/2+x,1/2-y,-z
1/2-x,y,1/2-z
1/2-x,1/2-y,-z
1/2+x,y,1/2-z
1/2-x,1/2+y,z
1/2+x,-y,1/2+z
loop_
_atom_site_type_symbol
_atom_site_label
_atom_site_fract_x
_atom_site_fract_y
_atom_site_fract_z
Si Si1 0.820768 0.586084 0.027300
Si Si2 0.182987 0.686193 0.859363
Si Si3 0.918307 0.198393 0.357602
Si Si4 0.916610 0.833185 0.834942
Si Si5 0.163796 0.349847 0.320014
Si Si6 0.667686 0.022236 0.411068
O O1 0.870723 0.638763 0.086652
O O2 0.744805 0.567459 0.074264
O O3 0.858361 0.500000 0.000000
O O4 0.809507 0.633093 0.941601
O O5 0.134412 0.766026 0.880048
O O6 0.147854 0.639072 0.779152
O O7 0.265291 0.708008 0.833853
O O8 0.906769 0.170244 0.263403
O O9 0.899075 0.296167 0.364477
O O10 0.000000 0.187754 0.388212
O O11 0.890212 0.922426 0.863521
O O12 0.000000 0.818550 0.861181
O O13 0.176952 0.439483 0.357663
O O14 0.633232 0.000000 0.500000
#
# Coordination Sequence:
#
# PCOD8264027 Si02
#       6
#    16  16  16  16  16  16
#     4  11  23  40  63  97 125 157 206 265 308 369
#     4  10  21  40  63  91 121 164 209 250 310 368
#     4  10  24  43  63  89 126 168 209 255 311 375
#     4  10  24  43  62  89 124 167 210 252 309 375
#     4  10  21  40  66  90 122 165 208 255 311 370
#     4  11  23  39  64  97 124 157 204 266 311 369
#
# _framework density 19.984089999999998
#
# number of rings (size 3 to 8) (size 9 to 14) (size 15 to 20)
#    0.000    1.667    3.333    1.000    4.667    5.333 
#    0.000    0.000    0.000    0.000    0.000    0.000 
#    0.000    0.000    0.000    0.000    0.000    0.000 
#
# Total GULP energy -594927.911723 kJ/mol
# GULP energy per Si atom -12394.331494 kJ/mol
# Density = 1.993861 g / cm^3
# Si number density = 19.984090 Si / 1000 Ang^3
#
#
#
# Elastic Constant Matrix: (Units=GPa)
#
#
# Indices 1 2 3 4 5 6 
#
# 1 95.5255 67.0434 51.1268 0.0000 0.0000 0.0000
# 2 67.0434 115.2018 54.1860 0.0000 0.0000 0.0000
# 3 51.1268 54.1860 75.2238 0.0000 0.0000 0.0000
# 4 0.0000 0.0000 0.0000 40.2224 0.0000 0.0000
# 5 0.0000 0.0000 0.0000 0.0000 26.5799 0.0000
# 6 0.0000 0.0000 0.0000 0.0000 0.0000 18.1690
#
#
#
# Elastic Compliance Matrix: (Units=1/GPa)
#
#
# Indices 1 2 3 4 5 6 
#
# 1 0.020496 -0.008130 -0.008074 0.000000 0.000000 0.000000
# 2 -0.008130 0.016354 -0.006254 0.000000 0.000000 0.000000
# 3 -0.008074 -0.006254 0.023286 0.000000 0.000000 0.000000
# 4 0.000000 0.000000 0.000000 0.024862 0.000000 0.000000
# 5 0.000000 0.000000 0.000000 0.000000 0.037622 0.000000
# 6 0.000000 0.000000 0.000000 0.000000 0.000000 0.055039
#
#
# Mechanical properties :
#
#
# Convention : Reuss Voigt Hill
#
# Bulk Modulus (GPa) = 65.70650 70.07373 67.89012
# Shear Modulus (GPa) = 21.96372 24.56723 23.26547
#
# Velocity S-wave (km/s) = 3.31880 3.51000 3.41574
# Velocity P-wave (km/s) = 6.90194 7.18106 7.04288
#
# Compressibility (1/GPa) = 0.01521919
#
# Stress axis : x y z
#
# Youngs Moduli (GPa) = 48.79065 61.14834 42.94400
#
# Poissons Ratio (x) = 0.49715 0.34672
# Poissons Ratio (y) = 0.39668 0.26858
# Poissons Ratio (z) = 0.39392 0.38243
#
# Static dielectric constant tensor:
#      x y z
#    x 3.658460 0.000000 0.000000 
#    y 0.000000 4.004560 0.000000 
#    z 0.000000 0.000000 3.887040 
# 
# 
# High freq. dielectric constant tensor:
#      x y z
#    x 1.769410 0.000000 0.000000 
#    y 0.000000 1.779070 0.000000 
#    z 0.000000 0.000000 1.792710 
# 
# From -- ./inp_files/26305.got.cif
#   From: 2010.03.12/outbox.cif.g09.slc.cpg/sg64_14_cif.got.tgz:26305.got - 2010.04.10 20:19:32.
