data_PCOD8264370
_publ_section_title
;
Structure prediction by ZEFSAII (Michael W. Deem and Ramdas Pophale) SiO2 
 PCOD8264370
Probable space group: C M C A
;
_chemical_formula_sum "Si O2"
_cell_formula_units_Z 112
_cell_length_a 16.109329
_cell_length_b 11.862532
_cell_length_c 28.471011
_cell_angle_alpha 90.000000
_cell_angle_beta 90.000000
_cell_angle_gamma 90.000000
_cell_volume 5440.737053
_symmetry_space_group_name_H-M "C M C A"
_symmetry_group_IT_number 64
_symmetry_cell_setting 'orthorhombic'
loop_
_space_group_symop_operation_xyz
x,y,z
-x,1/2-y,1/2+z
x,-y,-z
-x,1/2+y,1/2-z
-x,-y,-z
x,1/2+y,1/2-z
-x,y,z
x,1/2-y,1/2+z
1/2+x,1/2+y,z
1/2-x,-y,1/2+z
1/2+x,1/2-y,-z
1/2-x,y,1/2-z
1/2-x,1/2-y,-z
1/2+x,y,1/2-z
1/2-x,1/2+y,z
1/2+x,-y,1/2+z
loop_
_atom_site_type_symbol
_atom_site_label
_atom_site_fract_x
_atom_site_fract_y
_atom_site_fract_z
Si Si1 0.165620 0.107847 0.330880
Si Si2 0.904243 0.783929 0.916288
Si Si3 0.905015 0.315164 0.736661
Si Si4 0.598866 0.190042 0.613660
Si Si5 0.400930 0.375605 0.010724
Si Si6 0.096473 0.865485 0.335783
Si Si7 0.646083 0.962415 0.655381
O O1 0.154866 0.169304 0.281052
O O2 0.135030 0.189009 0.372219
O O3 0.258546 0.070828 0.339757
O O4 0.109148 0.996940 0.330676
O O5 0.862613 0.685028 0.884137
O O6 0.894256 0.903747 0.890061
O O7 0.000000 0.756086 0.922852
O O8 0.866255 0.793821 0.968873
O O9 0.869525 0.205369 0.708868
O O10 0.901212 0.423936 0.702531
O O11 0.000000 0.299553 0.754034
O O12 0.500000 0.190351 0.617212
O O13 0.631074 0.168463 0.560792
O O14 0.635615 0.096158 0.649030
O O15 0.500000 0.378123 0.010089
O O16 0.365918 0.500000 0.000000
O O17 0.000000 0.836075 0.337891
#
# Coordination Sequence:
#
# PCOD8264370 Si02
#       7
#    16  16  16  16  16  16  16
#     4  12  26  40  59  90 132 161 199 257 318 367
#     4   9  17  36  65  89 115 158 209 257 304 365
#     4  10  22  42  65  85 114 163 212 249 300 373
#     4  11  23  40  66  95 126 164 213 262 305 364
#     4   9  16  32  62  95 119 153 213 267 299 349
#     4   9  20  39  63  86 119 161 206 249 308 378
#     4  11  23  38  61  91 125 158 202 255 316 366
#
# _framework density 20.585446999999998
#
# number of rings (size 3 to 8) (size 9 to 14) (size 15 to 20)
#    0.000    1.857    1.429    3.857    6.000    0.000 
#    0.000    1.429    3.143    3.429    0.000    0.000 
#    0.000    0.000    0.000    0.000    0.000    0.000 
#
# Total GULP energy -694277.931266 kJ/mol
# GULP energy per Si atom -12397.820201 kJ/mol
# Density = 2.053859 g / cm^3
# Si number density = 20.585447 Si / 1000 Ang^3
#
#
#
# Elastic Constant Matrix: (Units=GPa)
#
#
# Indices 1 2 3 4 5 6 
#
# 1 53.3526 14.4211 16.9006 0.0000 0.0000 0.0000
# 2 14.4211 128.4096 51.7328 0.0000 0.0000 0.0000
# 3 16.9006 51.7328 123.9947 0.0000 0.0000 0.0000
# 4 0.0000 0.0000 0.0000 26.3057 0.0000 0.0000
# 5 0.0000 0.0000 0.0000 0.0000 18.2860 0.0000
# 6 0.0000 0.0000 0.0000 0.0000 0.0000 24.3891
#
#
#
# Elastic Compliance Matrix: (Units=1/GPa)
#
#
# Indices 1 2 3 4 5 6 
#
# 1 0.019786 -0.001365 -0.002127 0.000000 0.000000 0.000000
# 2 -0.001365 0.009455 -0.003759 0.000000 0.000000 0.000000
# 3 -0.002127 -0.003759 0.009923 0.000000 0.000000 0.000000
# 4 0.000000 0.000000 0.000000 0.038015 0.000000 0.000000
# 5 0.000000 0.000000 0.000000 0.000000 0.054687 0.000000
# 6 0.000000 0.000000 0.000000 0.000000 0.000000 0.041002
#
#
# Mechanical properties :
#
#
# Convention : Reuss Voigt Hill
#
# Bulk Modulus (GPa) = 40.54830 52.42955 46.48892
# Shear Modulus (GPa) = 25.56360 28.64299 27.10329
#
# Velocity S-wave (km/s) = 3.52778 3.73422 3.63247
# Velocity P-wave (km/s) = 6.02777 6.64207 6.34236
#
# Compressibility (1/GPa) = 0.02466194
#
# Stress axis : x y z
#
# Youngs Moduli (GPa) = 50.54060 105.76181 100.77530
#
# Poissons Ratio (x) = 0.14437 0.21438
# Poissons Ratio (y) = 0.06899 0.37880
# Poissons Ratio (z) = 0.10752 0.39754
#
# Static dielectric constant tensor:
#      x y z
#    x 3.397140 0.000000 0.000000 
#    y 0.000000 3.761900 0.000000 
#    z 0.000000 0.000000 4.061110 
# 
# 
# High freq. dielectric constant tensor:
#      x y z
#    x 1.779140 0.000000 0.000000 
#    y 0.000000 1.796920 0.000000 
#    z 0.000000 0.000000 1.814610 
# 
# From -- ./inp_files/53287.got.cif
#   From: 2010.03.12/outbox.cif.g09.slc.cpg/sg64_27_cif.got.tgz:53287.got - 2010.04.10 20:19:32.
