data_PCOD8264769
_publ_section_title
;
Structure prediction by ZEFSAII (Michael W. Deem and Ramdas Pophale) SiO2 
 PCOD8264769
Probable space group: C M C A
;
_chemical_formula_sum "Si O2"
_cell_formula_units_Z 96
_cell_length_a 28.750805
_cell_length_b 9.793767
_cell_length_c 16.542488
_cell_angle_alpha 90.000000
_cell_angle_beta 90.000000
_cell_angle_gamma 90.000000
_cell_volume 4658.012022
_symmetry_space_group_name_H-M "C M C A"
_symmetry_group_IT_number 64
_symmetry_cell_setting 'orthorhombic'
loop_
_space_group_symop_operation_xyz
x,y,z
-x,1/2-y,1/2+z
x,-y,-z
-x,1/2+y,1/2-z
-x,-y,-z
x,1/2+y,1/2-z
-x,y,z
x,1/2-y,1/2+z
1/2+x,1/2+y,z
1/2-x,-y,1/2+z
1/2+x,1/2-y,-z
1/2-x,y,1/2-z
1/2-x,1/2-y,-z
1/2+x,y,1/2-z
1/2-x,1/2+y,z
1/2+x,-y,1/2+z
loop_
_atom_site_type_symbol
_atom_site_label
_atom_site_fract_x
_atom_site_fract_y
_atom_site_fract_z
Si Si1 0.352908 0.013504 0.364426
Si Si2 0.949746 0.942432 0.158247
Si Si3 0.949795 0.365999 0.808168
Si Si4 0.309569 0.288438 0.416038
Si Si5 0.704744 0.237348 0.598379
Si Si6 0.147191 0.539963 0.174450
O O1 0.404264 0.968041 0.397582
O O2 0.313892 0.917376 0.403653
O O3 0.351958 0.996572 0.267694
O O4 0.343665 0.165936 0.393118
O O5 0.943709 0.796826 0.203192
O O6 0.000000 0.943645 0.111370
O O7 0.950272 0.067654 0.220228
O O8 0.905555 0.427407 0.856318
O O9 0.000000 0.397320 0.851284
O O10 0.303867 0.306940 0.511792
O O11 0.258839 0.264206 0.377428
O O12 0.332016 0.424384 0.381788
O O13 0.678026 0.323706 0.666259
#
# Coordination Sequence:
#
# PCOD8264769 Si02
#       6
#    16  16  16  16  16  16
#     4  11  22  37  61  91 115 148 194 249 291 331
#     4   9  18  33  56  86 119 152 188 236 292 347
#     4   9  18  33  56  86 119 152 188 236 292 347
#     4  11  25  39  60  81 118 160 199 229 292 363
#     4  11  23  43  58  81 116 162 195 235 290 359
#     4  11  22  37  61  91 115 148 194 249 291 331
#
# _framework density 20.609649999999998
#
# number of rings (size 3 to 8) (size 9 to 14) (size 15 to 20)
#    0.000    1.667    1.667    3.000    7.000    6.667 
#    0.000    0.000    0.000    6.000    0.000    0.000 
#    0.000    0.000    0.000    0.000    0.000    0.000 
#
# Total GULP energy -594971.802011 kJ/mol
# GULP energy per Si atom -12395.245875 kJ/mol
# Density = 2.056274 g / cm^3
# Si number density = 20.609650 Si / 1000 Ang^3
#
#
#
# Elastic Constant Matrix: (Units=GPa)
#
#
# Indices 1 2 3 4 5 6 
#
# 1 183.8267 40.5168 24.4327 0.0000 0.0000 0.0000
# 2 40.5168 87.9428 2.3305 0.0000 0.0000 0.0000
# 3 24.4327 2.3305 26.3920 0.0000 0.0000 0.0000
# 4 0.0000 0.0000 0.0000 28.7194 0.0000 0.0000
# 5 0.0000 0.0000 0.0000 0.0000 -0.5678 0.0000
# 6 0.0000 0.0000 0.0000 0.0000 0.0000 36.4740
#
#
#
# Elastic Compliance Matrix: (Units=1/GPa)
#
#
# Indices 1 2 3 4 5 6 
#
# 1 0.006923 -0.003027 -0.006142 0.000000 0.000000 0.000000
# 2 -0.003027 0.012721 0.001679 0.000000 0.000000 0.000000
# 3 -0.006142 0.001679 0.043428 0.000000 0.000000 0.000000
# 4 0.000000 0.000000 0.000000 0.034820 0.000000 0.000000
# 5 0.000000 0.000000 0.000000 0.000000 -1.761137 0.000000
# 6 0.000000 0.000000 0.000000 0.000000 0.000000 0.027417
#
#
# Mechanical properties :
#
#
# Convention : Reuss Voigt Hill
#
# Bulk Modulus (GPa) = 20.79334 48.08017 34.43675
# Shear Modulus (GPa) = -3.11562 28.31723 12.60080
#
# Velocity S-wave (km/s) = -1.23086 3.71074 2.47534
# Velocity P-wave (km/s) = 2.84447 6.46058 4.99150
#
# Compressibility (1/GPa) = 0.04809232
#
# Stress axis : x y z
#
# Youngs Moduli (GPa) = 144.43694 78.60946 23.02654
#
# Poissons Ratio (x) = 0.23795 0.14143
# Poissons Ratio (y) = 0.43721 -0.03866
# Poissons Ratio (z) = 0.88715 -0.13198
#
# Static dielectric constant tensor:
#      x y z
#    x 4.580690 0.000000 0.000000 
#    y 0.000000 3.742920 0.000000 
#    z 0.000000 0.000000 3.245270 
# 
# 
# High freq. dielectric constant tensor:
#      x y z
#    x 1.837410 0.000000 0.000000 
#    y 0.000000 1.822230 0.000000 
#    z 0.000000 0.000000 1.750900 
# 
# From -- ./inp_files/41781.got.cif
#   From: 2010.03.12/outbox.cif.g09.slc.cpg/sg64_21_cif.got.tgz:41781.got - 2010.04.10 20:19:32.
