data_PCOD8264640
_publ_section_title
;
Structure prediction by ZEFSAII (Michael W. Deem and Ramdas Pophale) SiO2 
 PCOD8264640
Probable space group: C M C A
;
_chemical_formula_sum "Si O2"
_cell_formula_units_Z 80
_cell_length_a 10.190627
_cell_length_b 21.964212
_cell_length_c 19.659585
_cell_angle_alpha 90.000000
_cell_angle_beta 90.000000
_cell_angle_gamma 90.000000
_cell_volume 4400.387057
_symmetry_space_group_name_H-M "C M C A"
_symmetry_group_IT_number 64
_symmetry_cell_setting 'orthorhombic'
loop_
_space_group_symop_operation_xyz
x,y,z
-x,1/2-y,1/2+z
x,-y,-z
-x,1/2+y,1/2-z
-x,-y,-z
x,1/2+y,1/2-z
-x,y,z
x,1/2-y,1/2+z
1/2+x,1/2+y,z
1/2-x,-y,1/2+z
1/2+x,1/2-y,-z
1/2-x,y,1/2-z
1/2-x,1/2-y,-z
1/2+x,y,1/2-z
1/2-x,1/2+y,z
1/2+x,-y,1/2+z
loop_
_atom_site_type_symbol
_atom_site_label
_atom_site_fract_x
_atom_site_fract_y
_atom_site_fract_z
Si Si1 0.500000 0.781011 0.896432
Si Si2 0.000000 0.823765 0.449754
Si Si3 0.263383 0.347791 0.670233
Si Si4 0.000000 0.353681 0.442708
Si Si5 0.000000 0.688739 0.403789
Si Si6 0.230209 0.414236 0.056664
Si Si7 0.846443 0.543179 0.088001
O O1 0.629647 0.800215 0.856365
O O2 0.500000 0.708629 0.900941
O O3 0.500000 0.813244 0.969549
O O4 0.000000 0.761457 0.408220
O O5 0.870877 0.860215 0.427766
O O6 0.250000 0.340978 0.750000
O O7 0.308407 0.416715 0.653229
O O8 0.125929 0.333682 0.636097
O O9 0.000000 0.340645 0.522353
O O10 0.873777 0.392575 0.421489
O O11 0.193599 0.473334 0.101681
O O12 0.229945 0.430847 0.977127
O O13 0.000000 0.547555 0.071493
#
# Coordination Sequence:
#
# PCOD8264640 Si02
#       7
#     8   8  16   8   8  16  16
#     4  11  21  39  57  85 121 152 190 234 305 343
#     4  11  18  36  62  84 119 148 189 243 290 362
#     4  12  23  39  59  82 119 155 200 236 276 354
#     4  11  22  34  58  90 125 142 179 261 300 340
#     4  11  23  35  55  93 115 150 196 236 299 337
#     4  11  19  34  58  89 117 147 183 239 297 350
#     4  11  20  36  59  84 117 154 192 228 293 350
#
# _framework density 18.180218
#
# number of rings (size 3 to 8) (size 9 to 14) (size 15 to 20)
#    0.000    0.800    7.000    2.400    0.000    5.600 
#    0.000    0.000    0.000    7.200    0.000    0.000 
#    0.000    0.000    0.000    0.000    0.000    0.000 
#
# Total GULP energy -496188.590560 kJ/mol
# GULP energy per Si atom -12404.714764 kJ/mol
# Density = 1.813884 g / cm^3
# Si number density = 18.180218 Si / 1000 Ang^3
#
#
#
# Elastic Constant Matrix: (Units=GPa)
#
#
# Indices 1 2 3 4 5 6 
#
# 1 150.9660 60.3582 30.0441 0.0000 0.0000 0.0000
# 2 60.3582 132.7632 38.7005 0.0000 0.0000 0.0000
# 3 30.0441 38.7005 72.1272 0.0000 0.0000 0.0000
# 4 0.0000 0.0000 0.0000 13.9645 0.0000 0.0000
# 5 0.0000 0.0000 0.0000 0.0000 -35.6302 0.0000
# 6 0.0000 0.0000 0.0000 0.0000 0.0000 34.4153
#
#
#
# Elastic Compliance Matrix: (Units=1/GPa)
#
#
# Indices 1 2 3 4 5 6 
#
# 1 0.008266 -0.003265 -0.001691 0.000000 0.000000 0.000000
# 2 -0.003265 0.010218 -0.004123 0.000000 0.000000 0.000000
# 3 -0.001691 -0.004123 0.016781 0.000000 0.000000 0.000000
# 4 0.000000 0.000000 0.000000 0.071610 0.000000 0.000000
# 5 0.000000 0.000000 0.000000 0.000000 -0.028066 0.000000
# 6 0.000000 0.000000 0.000000 0.000000 0.000000 0.029057
#
#
# Mechanical properties :
#
#
# Convention : Reuss Voigt Hill
#
# Bulk Modulus (GPa) = 58.45453 68.22910 63.34181
# Shear Modulus (GPa) = 37.95735 17.66682 27.81208
#
# Velocity S-wave (km/s) = 4.57424 3.12069 3.91551
# Velocity P-wave (km/s) = 7.75377 7.11307 7.44032
#
# Compressibility (1/GPa) = 0.01710731
#
# Stress axis : x y z
#
# Youngs Moduli (GPa) = 120.97799 97.86333 59.59121
#
# Poissons Ratio (x) = 0.31952 0.10079
# Poissons Ratio (y) = 0.39499 0.24568
# Poissons Ratio (z) = 0.20461 0.40347
#
# Static dielectric constant tensor:
#      x y z
#    x 3.587780 0.000000 0.000000 
#    y 0.000000 3.643340 0.000000 
#    z 0.000000 0.000000 3.040060 
# 
# 
# High freq. dielectric constant tensor:
#      x y z
#    x 1.723750 0.000000 0.000000 
#    y 0.000000 1.721260 0.000000 
#    z 0.000000 0.000000 1.659430 
# 
# From -- ./inp_files/36744.got.cif
#   From: 2010.03.12/outbox.cif.g09.slc.cpg/sg64_19_cif.got.tgz:36744.got - 2010.04.10 20:19:32.
