data_PCOD8264264
_publ_section_title
;
Structure prediction by ZEFSAII (Michael W. Deem and Ramdas Pophale) SiO2 
 PCOD8264264
Probable space group: C M C A
;
_chemical_formula_sum "Si O2"
_cell_formula_units_Z 48
_cell_length_a 14.021919
_cell_length_b 7.256354
_cell_length_c 17.112415
_cell_angle_alpha 90.000000
_cell_angle_beta 90.000000
_cell_angle_gamma 90.000000
_cell_volume 1741.154139
_symmetry_space_group_name_H-M "C M C A"
_symmetry_group_IT_number 64
_symmetry_cell_setting 'orthorhombic'
loop_
_space_group_symop_operation_xyz
x,y,z
-x,1/2-y,1/2+z
x,-y,-z
-x,1/2+y,1/2-z
-x,-y,-z
x,1/2+y,1/2-z
-x,y,z
x,1/2-y,1/2+z
1/2+x,1/2+y,z
1/2-x,-y,1/2+z
1/2+x,1/2-y,-z
1/2-x,y,1/2-z
1/2-x,1/2-y,-z
1/2+x,y,1/2-z
1/2-x,1/2+y,z
1/2+x,-y,1/2+z
loop_
_atom_site_type_symbol
_atom_site_label
_atom_site_fract_x
_atom_site_fract_y
_atom_site_fract_z
Si Si1 0.730879 0.079314 0.659210
Si Si2 0.609296 0.393953 0.585110
Si Si3 0.393717 0.662536 0.062534
O O1 0.750000 0.066027 0.750000
O O2 0.834282 0.082737 0.613762
O O3 0.686058 0.879892 0.629851
O O4 0.653761 0.232557 0.638152
O O5 0.500000 0.416243 0.609936
O O6 0.619733 0.348163 0.492246
O O7 0.500000 0.661851 0.098922
O O8 0.382437 0.500000 0.000000
#
# Coordination Sequence:
#
# PCOD8264264 Si02
#       3
#    16  16  16
#     4  11  21  36  59  87 117 149 187 236 289 335
#     4  10  22  40  60  83 114 153 193 232 279 338
#     4   8  16  34  59  82 109 150 192 229 276 335
#
# _framework density 27.567920999999998
#
# number of rings (size 3 to 8) (size 9 to 14) (size 15 to 20)
#    0.000    2.333    0.000    5.000    0.000    2.667 
#    0.000    3.333    0.000   13.000    0.000    0.000 
#    0.000    0.000    0.000    0.000    0.000    0.000 
#
# Total GULP energy -297648.347434 kJ/mol
# GULP energy per Si atom -12402.014476 kJ/mol
# Density = 2.750518 g / cm^3
# Si number density = 27.567921 Si / 1000 Ang^3
#
#
#
# Elastic Constant Matrix: (Units=GPa)
#
#
# Indices 1 2 3 4 5 6 
#
# 1 242.5965 58.3320 120.5968 0.0000 0.0000 0.0000
# 2 58.3320 149.6194 40.7499 0.0000 0.0000 0.0000
# 3 120.5968 40.7499 212.7370 0.0000 0.0000 0.0000
# 4 0.0000 0.0000 0.0000 33.5069 0.0000 0.0000
# 5 0.0000 0.0000 0.0000 0.0000 29.7253 0.0000
# 6 0.0000 0.0000 0.0000 0.0000 0.0000 24.9614
#
#
#
# Elastic Compliance Matrix: (Units=1/GPa)
#
#
# Indices 1 2 3 4 5 6 
#
# 1 0.006043 -0.001501 -0.003138 0.000000 0.000000 0.000000
# 2 -0.001501 0.007424 -0.000571 0.000000 0.000000 0.000000
# 3 -0.003138 -0.000571 0.006589 0.000000 0.000000 0.000000
# 4 0.000000 0.000000 0.000000 0.029845 0.000000 0.000000
# 5 0.000000 0.000000 0.000000 0.000000 0.033641 0.000000
# 6 0.000000 0.000000 0.000000 0.000000 0.000000 0.040062
#
#
# Mechanical properties :
#
#
# Convention : Reuss Voigt Hill
#
# Bulk Modulus (GPa) = 103.78336 116.03445 109.90891
# Shear Modulus (GPa) = 36.43329 43.32368 39.87848
#
# Velocity S-wave (km/s) = 3.63930 3.96855 3.80749
# Velocity P-wave (km/s) = 7.44228 7.94864 7.69962
#
# Compressibility (1/GPa) = 0.00963546
#
# Stress axis : x y z
#
# Youngs Moduli (GPa) = 165.47954 134.68951 151.76861
#
# Poissons Ratio (x) = 0.20221 0.47627
# Poissons Ratio (y) = 0.24844 0.08668
# Poissons Ratio (z) = 0.51929 0.07692
#
# Static dielectric constant tensor:
#      x y z
#    x 5.292200 0.000000 0.000000 
#    y 0.000000 6.959490 0.000000 
#    z 0.000000 0.000000 4.678230 
# 
# 
# High freq. dielectric constant tensor:
#      x y z
#    x 2.127890 0.000000 0.000000 
#    y 0.000000 2.217890 0.000000 
#    z 0.000000 0.000000 2.092780 
# 
# From -- ./inp_files/30239.got.cif
#   From: 2010.03.12/outbox.cif.g09.slc.cpg/sg64_16_cif.got.tgz:30239.got - 2010.04.10 20:19:32.
