data_PCOD8264980
_publ_section_title
;
Structure prediction by ZEFSAII (Michael W. Deem and Ramdas Pophale) SiO2 
 PCOD8264980
Probable space group: C M C A
;
_chemical_formula_sum "Si O2"
_cell_formula_units_Z 56
_cell_length_a 18.185761
_cell_length_b 13.427646
_cell_length_c 8.994623
_cell_angle_alpha 90.000000
_cell_angle_beta 90.000000
_cell_angle_gamma 90.000000
_cell_volume 2196.414628
_symmetry_space_group_name_H-M "C M C A"
_symmetry_group_IT_number 64
_symmetry_cell_setting 'orthorhombic'
loop_
_space_group_symop_operation_xyz
x,y,z
-x,1/2-y,1/2+z
x,-y,-z
-x,1/2+y,1/2-z
-x,-y,-z
x,1/2+y,1/2-z
-x,y,z
x,1/2-y,1/2+z
1/2+x,1/2+y,z
1/2-x,-y,1/2+z
1/2+x,1/2-y,-z
1/2-x,y,1/2-z
1/2-x,1/2-y,-z
1/2+x,y,1/2-z
1/2-x,1/2+y,z
1/2+x,-y,1/2+z
loop_
_atom_site_type_symbol
_atom_site_label
_atom_site_fract_x
_atom_site_fract_y
_atom_site_fract_z
Si Si1 0.750000 0.446844 0.750000
Si Si2 0.500000 0.604951 0.081848
Si Si3 0.345687 0.377749 0.306935
Si Si4 0.841726 0.315064 0.521897
Si Si5 0.500000 0.033228 0.834103
O O1 0.693591 0.517524 0.659344
O O2 0.795781 0.384319 0.631684
O O3 0.571637 0.667859 0.042192
O O4 0.500000 0.574296 0.254031
O O5 0.500000 0.500000 0.000000
O O6 0.326201 0.300525 0.439133
O O7 0.432010 0.396712 0.292345
O O8 0.317344 0.333729 0.148227
O O9 0.500000 0.000000 0.000000
#
# Coordination Sequence:
#
# PCOD8264980 Si02
#       5
#     8   8  16  16   8
#     4  12  26  48  74 104 148 202 250 304 376 444
#     4  12  21  50  78 103 147 197 242 302 376 436
#     4  12  28  49  75 113 149 196 250 308 375 446
#     4  12  27  47  78 108 151 196 248 311 372 447
#     4  12  27  46  78 113 147 193 245 307 370 442
#
# _framework density 25.496096000000001
#
# number of rings (size 3 to 8) (size 9 to 14) (size 15 to 20)
#    0.000    0.000    5.714    2.571    4.000    9.143 
#    0.000    0.000    0.000    0.000    0.000    0.000 
#    0.000    0.000    0.000    0.000    0.000    0.000 
#
# Total GULP energy -347358.117764 kJ/mol
# GULP energy per Si atom -12405.647063 kJ/mol
# Density = 2.543807 g / cm^3
# Si number density = 25.496096 Si / 1000 Ang^3
#
#
#
# Elastic Constant Matrix: (Units=GPa)
#
#
# Indices 1 2 3 4 5 6 
#
# 1 112.3133 24.6495 -10.0734 0.0000 0.0000 0.0000
# 2 24.6495 104.6636 0.1265 0.0000 0.0000 0.0000
# 3 -10.0734 0.1265 107.5003 0.0000 0.0000 0.0000
# 4 0.0000 0.0000 0.0000 41.7164 0.0000 0.0000
# 5 0.0000 0.0000 0.0000 0.0000 18.8685 0.0000
# 6 0.0000 0.0000 0.0000 0.0000 0.0000 39.3970
#
#
#
# Elastic Compliance Matrix: (Units=1/GPa)
#
#
# Indices 1 2 3 4 5 6 
#
# 1 0.009473 -0.002232 0.000890 0.000000 0.000000 0.000000
# 2 -0.002232 0.010080 -0.000221 0.000000 0.000000 0.000000
# 3 0.000890 -0.000221 0.009386 0.000000 0.000000 0.000000
# 4 0.000000 0.000000 0.000000 0.023971 0.000000 0.000000
# 5 0.000000 0.000000 0.000000 0.000000 0.052998 0.000000
# 6 0.000000 0.000000 0.000000 0.000000 0.000000 0.025383
#
#
# Mechanical properties :
#
#
# Convention : Reuss Voigt Hill
#
# Bulk Modulus (GPa) = 38.73857 39.32026 39.02942
# Shear Modulus (GPa) = 34.95950 40.64802 37.80376
#
# Velocity S-wave (km/s) = 3.70695 3.99718 3.85480
# Velocity P-wave (km/s) = 5.79214 6.06291 5.92907
#
# Compressibility (1/GPa) = 0.02581407
#
# Stress axis : x y z
#
# Youngs Moduli (GPa) = 105.55847 99.20245 106.54180
#
# Poissons Ratio (x) = 0.22144 -0.09486
# Poissons Ratio (y) = 0.23563 0.02355
# Poissons Ratio (z) = -0.09398 0.02193
#
# Static dielectric constant tensor:
#      x y z
#    x 4.931850 0.000000 0.000000 
#    y 0.000000 3.590250 0.000000 
#    z 0.000000 0.000000 4.608780 
# 
# 
# High freq. dielectric constant tensor:
#      x y z
#    x 2.054080 0.000000 0.000000 
#    y 0.000000 2.017390 0.000000 
#    z 0.000000 0.000000 2.024620 
# 
# From -- ./inp_files/7666.got.cif
#   From: 2010.03.12/outbox.cif.g09.slc.cpg/sg64_4_cif.got.tgz:7666.got - 2010.04.10 20:19:32.
