data_PCOD8264208
_publ_section_title
;
Structure prediction by ZEFSAII (Michael W. Deem and Ramdas Pophale) SiO2 
 PCOD8264208
Probable space group: C M C A
;
_chemical_formula_sum "Si O2"
_cell_formula_units_Z 80
_cell_length_a 23.288145
_cell_length_b 8.813442
_cell_length_c 18.171800
_cell_angle_alpha 90.000000
_cell_angle_beta 90.000000
_cell_angle_gamma 90.000000
_cell_volume 3729.738604
_symmetry_space_group_name_H-M "C M C A"
_symmetry_group_IT_number 64
_symmetry_cell_setting 'orthorhombic'
loop_
_space_group_symop_operation_xyz
x,y,z
-x,1/2-y,1/2+z
x,-y,-z
-x,1/2+y,1/2-z
-x,-y,-z
x,1/2+y,1/2-z
-x,y,z
x,1/2-y,1/2+z
1/2+x,1/2+y,z
1/2-x,-y,1/2+z
1/2+x,1/2-y,-z
1/2-x,y,1/2-z
1/2-x,1/2-y,-z
1/2+x,y,1/2-z
1/2-x,1/2+y,z
1/2+x,-y,1/2+z
loop_
_atom_site_type_symbol
_atom_site_label
_atom_site_fract_x
_atom_site_fract_y
_atom_site_fract_z
Si Si1 0.065400 0.723661 0.834716
Si Si2 0.675741 0.212650 0.109765
Si Si3 0.285717 0.537742 0.140379
Si Si4 0.874094 0.939282 0.735886
Si Si5 0.874263 0.665074 0.468476
O O1 0.107842 0.597414 0.801143
O O2 0.078128 0.883929 0.794108
O O3 0.075463 0.753680 0.921773
O O4 0.000000 0.673255 0.822932
O O5 0.711065 0.365611 0.115484
O O6 0.719060 0.074970 0.127582
O O7 0.627861 0.191192 0.172911
O O8 0.643734 0.214238 0.031350
O O9 0.311578 0.549605 0.223218
O O10 0.320711 0.645677 0.085779
O O11 0.894101 0.500000 0.500000
#
# Coordination Sequence:
#
# PCOD8264208 Si02
#       5
#    16  16  16  16  16
#     4  11  24  45  69  92 125 172 222 276 331 375
#     4  11  22  39  64  95 132 169 209 257 320 392
#     4  10  22  38  63  93 132 174 206 249 323 387
#     4  11  23  41  64  96 131 164 218 271 317 391
#     4   9  22  43  63  96 134 167 215 266 318 392
#
# _framework density 21.449225999999999
#
# number of rings (size 3 to 8) (size 9 to 14) (size 15 to 20)
#    0.000    1.600    2.000    1.800    5.600    2.800 
#    0.000    3.000    0.000    0.000    0.000    0.000 
#    0.000    0.000    0.000    0.000    0.000    0.000 
#
# Total GULP energy -495863.137667 kJ/mol
# GULP energy per Si atom -12396.578442 kJ/mol
# Density = 2.140041 g / cm^3
# Si number density = 21.449226 Si / 1000 Ang^3
#
#
#
# Elastic Constant Matrix: (Units=GPa)
#
#
# Indices 1 2 3 4 5 6 
#
# 1 83.0507 30.5282 44.0823 0.0000 0.0000 0.0000
# 2 30.5282 63.5146 45.1438 0.0000 0.0000 0.0000
# 3 44.0823 45.1438 155.9103 0.0000 0.0000 0.0000
# 4 0.0000 0.0000 0.0000 44.0294 0.0000 0.0000
# 5 0.0000 0.0000 0.0000 0.0000 22.7978 0.0000
# 6 0.0000 0.0000 0.0000 0.0000 0.0000 25.2016
#
#
#
# Elastic Compliance Matrix: (Units=1/GPa)
#
#
# Indices 1 2 3 4 5 6 
#
# 1 0.015545 -0.005474 -0.002810 0.000000 0.000000 0.000000
# 2 -0.005474 0.021752 -0.004751 0.000000 0.000000 0.000000
# 3 -0.002810 -0.004751 0.008584 0.000000 0.000000 0.000000
# 4 0.000000 0.000000 0.000000 0.022712 0.000000 0.000000
# 5 0.000000 0.000000 0.000000 0.000000 0.043864 0.000000
# 6 0.000000 0.000000 0.000000 0.000000 0.000000 0.039680
#
#
# Mechanical properties :
#
#
# Convention : Reuss Voigt Hill
#
# Bulk Modulus (GPa) = 50.47679 60.22049 55.34864
# Shear Modulus (GPa) = 27.05481 30.58717 28.82099
#
# Velocity S-wave (km/s) = 3.55539 3.78037 3.66961
# Velocity P-wave (km/s) = 6.35914 6.86963 6.61931
#
# Compressibility (1/GPa) = 0.01981109
#
# Stress axis : x y z
#
# Youngs Moduli (GPa) = 64.33090 45.97254 116.49607
#
# Poissons Ratio (x) = 0.25166 0.32736
# Poissons Ratio (y) = 0.35216 0.55342
# Poissons Ratio (z) = 0.18077 0.21839
#
# Static dielectric constant tensor:
#      x y z
#    x 3.495610 0.000000 0.000000 
#    y 0.000000 3.719760 0.000000 
#    z 0.000000 0.000000 4.174390 
# 
# 
# High freq. dielectric constant tensor:
#      x y z
#    x 1.808160 0.000000 0.000000 
#    y 0.000000 1.837950 0.000000 
#    z 0.000000 0.000000 1.861150 
# 
# From -- ./inp_files/35344.got.cif
#   From: 2010.03.12/outbox.cif.g09.slc.cpg/sg64_18_cif.got.tgz:35344.got - 2010.04.10 20:19:32.
