data_PCOD8264797
_publ_section_title
;
Structure prediction by ZEFSAII (Michael W. Deem and Ramdas Pophale) SiO2 
 PCOD8264797
Probable space group: C M C A
;
_chemical_formula_sum "Si O2"
_cell_formula_units_Z 88
_cell_length_a 22.771849
_cell_length_b 7.879455
_cell_length_c 21.430977
_cell_angle_alpha 90.000000
_cell_angle_beta 90.000000
_cell_angle_gamma 90.000000
_cell_volume 3845.355048
_symmetry_space_group_name_H-M "C M C A"
_symmetry_group_IT_number 64
_symmetry_cell_setting 'orthorhombic'
loop_
_space_group_symop_operation_xyz
x,y,z
-x,1/2-y,1/2+z
x,-y,-z
-x,1/2+y,1/2-z
-x,-y,-z
x,1/2+y,1/2-z
-x,y,z
x,1/2-y,1/2+z
1/2+x,1/2+y,z
1/2-x,-y,1/2+z
1/2+x,1/2-y,-z
1/2-x,y,1/2-z
1/2-x,1/2-y,-z
1/2+x,y,1/2-z
1/2-x,1/2+y,z
1/2+x,-y,1/2+z
loop_
_atom_site_type_symbol
_atom_site_label
_atom_site_fract_x
_atom_site_fract_y
_atom_site_fract_z
Si Si1 0.432173 0.658396 0.461024
Si Si2 0.675415 0.354735 0.875134
Si Si3 0.133763 0.500000 0.500000
Si Si4 0.726861 0.325728 0.181242
Si Si5 0.066487 0.077433 0.194447
Si Si6 0.102221 0.802879 0.673469
O O1 0.404939 0.500000 0.500000
O O2 0.500000 0.677330 0.477554
O O3 0.421950 0.609858 0.389004
O O4 0.403830 0.839785 0.477430
O O5 0.702845 0.485474 0.825417
O O6 0.720555 0.197992 0.869884
O O7 0.609949 0.309005 0.849312
O O8 0.674807 0.434959 0.943866
O O9 0.750000 0.298065 0.250000
O O10 0.672898 0.196465 0.169993
O O11 0.074293 0.883413 0.175493
O O12 0.000000 0.137072 0.180708
O O13 0.080705 0.090243 0.267504
#
# Coordination Sequence:
#
# PCOD8264797 Si02
#       6
#    16  16   8  16  16  16
#     4  11  25  47  73 104 147 196 243 292 357 431
#     4  11  26  41  67 100 133 185 234 288 360 414
#     4  12  25  48  68 108 138 194 241 296 354 418
#     4  11  22  43  68  96 136 175 232 291 358 429
#     4  11  22  40  67  99 136 173 226 296 362 425
#     4  11  24  43  68 103 139 180 231 300 360 425
#
# _framework density 22.884753
#
# number of rings (size 3 to 8) (size 9 to 14) (size 15 to 20)
#    0.000    0.909    5.455    2.455    2.545    4.364 
#    1.636    1.818    0.000    0.000    0.000    0.000 
#    0.000    0.000    0.000    0.000    0.000    0.000 
#
# Total GULP energy -545625.808163 kJ/mol
# GULP energy per Si atom -12400.586549 kJ/mol
# Density = 2.283267 g / cm^3
# Si number density = 22.884753 Si / 1000 Ang^3
#
#
#
# Elastic Constant Matrix: (Units=GPa)
#
#
# Indices 1 2 3 4 5 6 
#
# 1 138.9216 13.3182 33.0349 0.0000 0.0000 0.0000
# 2 13.3182 37.7959 11.9356 0.0000 0.0000 0.0000
# 3 33.0349 11.9356 98.7771 0.0000 0.0000 0.0000
# 4 0.0000 0.0000 0.0000 36.5055 0.0000 0.0000
# 5 0.0000 0.0000 0.0000 0.0000 36.2924 0.0000
# 6 0.0000 0.0000 0.0000 0.0000 0.0000 13.3557
#
#
#
# Elastic Compliance Matrix: (Units=1/GPa)
#
#
# Indices 1 2 3 4 5 6 
#
# 1 0.007969 -0.002045 -0.002418 0.000000 0.000000 0.000000
# 2 -0.002045 0.028032 -0.002703 0.000000 0.000000 0.000000
# 3 -0.002418 -0.002703 0.011259 0.000000 0.000000 0.000000
# 4 0.000000 0.000000 0.000000 0.027393 0.000000 0.000000
# 5 0.000000 0.000000 0.000000 0.000000 0.027554 0.000000
# 6 0.000000 0.000000 0.000000 0.000000 0.000000 0.074874
#
#
# Mechanical properties :
#
#
# Convention : Reuss Voigt Hill
#
# Bulk Modulus (GPa) = 30.36906 43.56356 36.96631
# Shear Modulus (GPa) = 24.70471 31.71111 28.20791
#
# Velocity S-wave (km/s) = 3.28918 3.72652 3.51466
# Velocity P-wave (km/s) = 5.26538 6.13134 5.71478
#
# Compressibility (1/GPa) = 0.03292825
#
# Stress axis : x y z
#
# Youngs Moduli (GPa) = 125.48074 35.67347 88.81616
#
# Poissons Ratio (x) = 0.07294 0.21478
# Poissons Ratio (y) = 0.25655 0.24011
# Poissons Ratio (z) = 0.30344 0.09644
#
# Static dielectric constant tensor:
#      x y z
#    x 4.553450 0.000000 0.000000 
#    y 0.000000 3.998930 0.000000 
#    z 0.000000 0.000000 4.331680 
# 
# 
# High freq. dielectric constant tensor:
#      x y z
#    x 1.912970 0.000000 0.000000 
#    y 0.000000 1.890650 0.000000 
#    z 0.000000 0.000000 1.906180 
# 
# From -- ./inp_files/41361.got.cif
#   From: 2010.03.12/outbox.cif.g09.slc.cpg/sg64_21_cif.got.tgz:41361.got - 2010.04.10 20:19:32.
