data_PCOD8264390
_publ_section_title
;
Structure prediction by ZEFSAII (Michael W. Deem and Ramdas Pophale) SiO2 
 PCOD8264390
Probable space group: C M C A
;
_chemical_formula_sum "Si O2"
_cell_formula_units_Z 72
_cell_length_a 27.399975
_cell_length_b 12.600503
_cell_length_c 8.811525
_cell_angle_alpha 90.000000
_cell_angle_beta 90.000000
_cell_angle_gamma 90.000000
_cell_volume 3042.209557
_symmetry_space_group_name_H-M "C M C A"
_symmetry_group_IT_number 64
_symmetry_cell_setting 'orthorhombic'
loop_
_space_group_symop_operation_xyz
x,y,z
-x,1/2-y,1/2+z
x,-y,-z
-x,1/2+y,1/2-z
-x,-y,-z
x,1/2+y,1/2-z
-x,y,z
x,1/2-y,1/2+z
1/2+x,1/2+y,z
1/2-x,-y,1/2+z
1/2+x,1/2-y,-z
1/2-x,y,1/2-z
1/2-x,1/2-y,-z
1/2+x,y,1/2-z
1/2-x,1/2+y,z
1/2+x,-y,1/2+z
loop_
_atom_site_type_symbol
_atom_site_label
_atom_site_fract_x
_atom_site_fract_y
_atom_site_fract_z
Si Si1 0.000000 0.030781 0.243901
Si Si2 0.923742 0.500000 0.000000
Si Si3 0.000000 0.673738 0.536030
Si Si4 0.334708 0.316970 0.848823
Si Si5 0.602322 0.211698 0.074663
Si Si6 0.715928 0.500000 0.000000
Si Si7 0.750000 0.841364 0.250000
O O1 0.046837 0.032423 0.350261
O O2 0.000000 0.134877 0.138267
O O3 0.000000 0.925019 0.146762
O O4 0.892885 0.393941 0.032249
O O5 0.952460 0.743758 0.568726
O O6 0.382895 0.319700 0.744896
O O7 0.314128 0.435867 0.871311
O O8 0.295561 0.235536 0.780722
O O9 0.355466 0.288625 0.014580
O O10 0.746126 0.413121 0.097392
#
# Coordination Sequence:
#
# PCOD8264390 Si02
#       7
#     8   8   8  16  16   8   8
#     4  10  22  42  70  96 141 197 260 306 382 434
#     4  11  24  39  66 105 140 198 249 312 377 441
#     4  11  24  47  70 103 149 202 248 319 369 447
#     4  12  28  50  74 116 151 200 255 320 387 472
#     4  12  27  45  74 106 155 197 258 315 381 459
#     4  12  28  49  88 112 152 201 251 318 409 470
#     4  12  28  54  80 116 154 194 254 330 398 472
#
# _framework density 23.667010000000001
#
# number of rings (size 3 to 8) (size 9 to 14) (size 15 to 20)
#    0.000    0.444    2.222    5.333    6.222    6.222 
#    0.000    0.000    0.000    0.667    0.000    0.000 
#    0.000    0.000    0.000    0.000    0.000    0.000 
#
# Total GULP energy -446297.875089 kJ/mol
# GULP energy per Si atom -12397.163197 kJ/mol
# Density = 2.361314 g / cm^3
# Si number density = 23.667010 Si / 1000 Ang^3
#
#
#
# Elastic Constant Matrix: (Units=GPa)
#
#
# Indices 1 2 3 4 5 6 
#
# 1 119.7845 54.2306 42.7765 0.0000 0.0000 0.0000
# 2 54.2306 148.6434 41.8536 0.0000 0.0000 0.0000
# 3 42.7765 41.8536 123.7104 0.0000 0.0000 0.0000
# 4 0.0000 0.0000 0.0000 43.9534 0.0000 0.0000
# 5 0.0000 0.0000 0.0000 0.0000 35.5474 0.0000
# 6 0.0000 0.0000 0.0000 0.0000 0.0000 26.2687
#
#
#
# Elastic Compliance Matrix: (Units=1/GPa)
#
#
# Indices 1 2 3 4 5 6 
#
# 1 0.010725 -0.003171 -0.002636 0.000000 0.000000 0.000000
# 2 -0.003171 0.008373 -0.001736 0.000000 0.000000 0.000000
# 3 -0.002636 -0.001736 0.009582 0.000000 0.000000 0.000000
# 4 0.000000 0.000000 0.000000 0.022751 0.000000 0.000000
# 5 0.000000 0.000000 0.000000 0.000000 0.028131 0.000000
# 6 0.000000 0.000000 0.000000 0.000000 0.000000 0.038068
#
#
# Mechanical properties :
#
#
# Convention : Reuss Voigt Hill
#
# Bulk Modulus (GPa) = 73.55844 74.42887 73.99365
# Shear Modulus (GPa) = 36.43009 38.03906 37.23457
#
# Velocity S-wave (km/s) = 3.92762 4.01341 3.97075
# Velocity P-wave (km/s) = 7.19140 7.27965 7.23566
#
# Compressibility (1/GPa) = 0.01359463
#
# Stress axis : x y z
#
# Youngs Moduli (GPa) = 93.23908 119.42788 104.35940
#
# Poissons Ratio (x) = 0.37868 0.27507
# Poissons Ratio (y) = 0.29564 0.18121
# Poissons Ratio (z) = 0.24576 0.20738
#
# Static dielectric constant tensor:
#      x y z
#    x 4.114120 0.000000 0.000000 
#    y 0.000000 4.644230 0.000000 
#    z 0.000000 0.000000 4.327590 
# 
# 
# High freq. dielectric constant tensor:
#      x y z
#    x 1.934110 0.000000 0.000000 
#    y 0.000000 1.959630 0.000000 
#    z 0.000000 0.000000 1.949230 
# 
# From -- ./inp_files/10074.got.cif
#   From: 2010.03.12/outbox.cif.g09.slc.cpg/sg64_6_cif.got.tgz:10074.got - 2010.04.10 20:19:32.
