data_PCOD8264644
_publ_section_title
;
Structure prediction by ZEFSAII (Michael W. Deem and Ramdas Pophale) SiO2 
 PCOD8264644
Probable space group: C M C A
;
_chemical_formula_sum "Si O2"
_cell_formula_units_Z 112
_cell_length_a 22.065428
_cell_length_b 18.737730
_cell_length_c 15.386798
_cell_angle_alpha 90.000000
_cell_angle_beta 90.000000
_cell_angle_gamma 90.000000
_cell_volume 6361.764449
_symmetry_space_group_name_H-M "C M C A"
_symmetry_group_IT_number 64
_symmetry_cell_setting 'orthorhombic'
loop_
_space_group_symop_operation_xyz
x,y,z
-x,1/2-y,1/2+z
x,-y,-z
-x,1/2+y,1/2-z
-x,-y,-z
x,1/2+y,1/2-z
-x,y,z
x,1/2-y,1/2+z
1/2+x,1/2+y,z
1/2-x,-y,1/2+z
1/2+x,1/2-y,-z
1/2-x,y,1/2-z
1/2-x,1/2-y,-z
1/2+x,y,1/2-z
1/2-x,1/2+y,z
1/2+x,-y,1/2+z
loop_
_atom_site_type_symbol
_atom_site_label
_atom_site_fract_x
_atom_site_fract_y
_atom_site_fract_z
Si Si1 0.250273 0.160986 0.153704
Si Si2 0.305229 0.977166 0.597198
Si Si3 0.069138 0.714991 0.481420
Si Si4 0.650930 0.282614 0.342760
Si Si5 0.751397 0.379750 0.348689
Si Si6 0.349206 0.771122 0.357909
Si Si7 0.433785 0.054430 0.421809
O O1 0.250000 0.127889 0.250000
O O2 0.234195 0.094964 0.091513
O O3 0.200527 0.221596 0.145617
O O4 0.315551 0.194752 0.132491
O O5 0.374007 0.965949 0.637021
O O6 0.316841 0.000000 0.500000
O O7 0.265367 0.036373 0.646427
O O8 0.095718 0.765828 0.406220
O O9 0.094669 0.730954 0.577232
O O10 0.079321 0.632707 0.458569
O O11 0.000000 0.736452 0.486835
O O12 0.683523 0.355948 0.378570
O O13 0.628959 0.285625 0.241737
O O14 0.750000 0.352635 0.250000
O O15 0.805113 0.334342 0.393287
O O16 0.500000 0.053375 0.371737
O O17 0.440173 0.000000 0.500000
#
# Coordination Sequence:
#
# PCOD8264644 Si02
#       7
#    16  16  16  16  16  16  16
#     4   9  18  32  49  72 103 134 161 208 265 302
#     4  11  19  27  48  79 102 132 169 205 251 311
#     4  11  21  33  54  77 100 141 177 206 252 303
#     4   9  19  35  51  74 105 133 166 215 258 299
#     4   9  19  33  50  74 103 135 166 210 262 305
#     4   9  19  34  52  73 103 134 167 212 261 300
#     4   9  18  31  45  70 107 136 166 204 248 304
#
# _framework density 17.605177999999999
#
# number of rings (size 3 to 8) (size 9 to 14) (size 15 to 20)
#    0.000    2.429    1.429    3.857    2.000    1.714 
#    0.000    0.000    0.000    0.857    0.000    2.000 
#    0.000    0.000    0.000    0.000    0.000    0.000 
#
# Total GULP energy -693745.233435 kJ/mol
# GULP energy per Si atom -12388.307740 kJ/mol
# Density = 1.756511 g / cm^3
# Si number density = 17.605178 Si / 1000 Ang^3
#
#
#
# Elastic Constant Matrix: (Units=GPa)
#
#
# Indices 1 2 3 4 5 6 
#
# 1 126.2838 52.8732 49.5709 0.0000 0.0000 0.0000
# 2 52.8732 92.9273 19.9318 0.0000 0.0000 0.0000
# 3 49.5709 19.9318 62.2067 0.0000 0.0000 0.0000
# 4 0.0000 0.0000 0.0000 13.1571 0.0000 0.0000
# 5 0.0000 0.0000 0.0000 0.0000 27.9493 0.0000
# 6 0.0000 0.0000 0.0000 0.0000 0.0000 26.3749
#
#
#
# Elastic Compliance Matrix: (Units=1/GPa)
#
#
# Indices 1 2 3 4 5 6 
#
# 1 0.014090 -0.006023 -0.009298 0.000000 0.000000 0.000000
# 2 -0.006023 0.014129 0.000272 0.000000 0.000000 0.000000
# 3 -0.009298 0.000272 0.023398 0.000000 0.000000 0.000000
# 4 0.000000 0.000000 0.000000 0.076005 0.000000 0.000000
# 5 0.000000 0.000000 0.000000 0.000000 0.035779 0.000000
# 6 0.000000 0.000000 0.000000 0.000000 0.000000 0.037915
#
#
# Mechanical properties :
#
#
# Convention : Reuss Voigt Hill
#
# Bulk Modulus (GPa) = 46.46928 58.46330 52.46629
# Shear Modulus (GPa) = 20.95669 24.09904 22.52786
#
# Velocity S-wave (km/s) = 3.45392 3.70383 3.58105
# Velocity P-wave (km/s) = 6.50835 7.18131 6.85309
#
# Compressibility (1/GPa) = 0.02151959
#
# Stress axis : x y z
#
# Youngs Moduli (GPa) = 70.97149 70.77423 42.73884
#
# Poissons Ratio (x) = 0.42624 0.39740
# Poissons Ratio (y) = 0.42743 -0.01162
# Poissons Ratio (z) = 0.65992 -0.01925
#
# Static dielectric constant tensor:
#      x y z
#    x 3.523600 0.000000 0.000000 
#    y 0.000000 3.426270 0.000000 
#    z 0.000000 0.000000 3.178410 
# 
# 
# High freq. dielectric constant tensor:
#      x y z
#    x 1.671560 0.000000 0.000000 
#    y 0.000000 1.677640 0.000000 
#    z 0.000000 0.000000 1.654250 
# 
# From -- ./inp_files/34512.got.cif
#   From: 2010.03.12/outbox.cif.g09.slc.cpg/sg64_18_cif.got.tgz:34512.got - 2010.04.10 20:19:32.
