data_PCOD8264075
_publ_section_title
;
Structure prediction by ZEFSAII (Michael W. Deem and Ramdas Pophale) SiO2 
 PCOD8264075
Probable space group: C M C A
;
_chemical_formula_sum "Si O2"
_cell_formula_units_Z 72
_cell_length_a 9.645871
_cell_length_b 14.507338
_cell_length_c 25.157931
_cell_angle_alpha 90.000000
_cell_angle_beta 90.000000
_cell_angle_gamma 90.000000
_cell_volume 3520.497991
_symmetry_space_group_name_H-M "C M C A"
_symmetry_group_IT_number 64
_symmetry_cell_setting 'orthorhombic'
loop_
_space_group_symop_operation_xyz
x,y,z
-x,1/2-y,1/2+z
x,-y,-z
-x,1/2+y,1/2-z
-x,-y,-z
x,1/2+y,1/2-z
-x,y,z
x,1/2-y,1/2+z
1/2+x,1/2+y,z
1/2-x,-y,1/2+z
1/2+x,1/2-y,-z
1/2-x,y,1/2-z
1/2-x,1/2-y,-z
1/2+x,y,1/2-z
1/2-x,1/2+y,z
1/2+x,-y,1/2+z
loop_
_atom_site_type_symbol
_atom_site_label
_atom_site_fract_x
_atom_site_fract_y
_atom_site_fract_z
Si Si1 0.850949 0.809430 0.966072
Si Si2 0.337070 0.241484 0.853258
Si Si3 0.658376 0.541641 0.614927
Si Si4 0.763469 0.000000 0.000000
Si Si5 0.667821 0.890026 0.800851
O O1 0.812768 0.805334 0.904624
O O2 0.000000 0.762900 0.974844
O O3 0.750000 0.750000 0.000000
O O4 0.859221 0.914208 0.985501
O O5 0.500000 0.242585 0.835438
O O6 0.276467 0.139344 0.866179
O O7 0.235793 0.288579 0.810061
O O8 0.500000 0.554798 0.627736
O O9 0.673237 0.523841 0.552007
O O10 0.712152 0.457070 0.650600
O O11 0.500000 0.883291 0.792934
O O12 0.750000 0.930949 0.750000
#
# Coordination Sequence:
#
# PCOD8264075 Si02
#       5
#    16  16  16   8  16
#     4  11  23  37  58  90 129 167 206 250 303 364
#     4  10  21  41  62  89 124 164 206 256 307 366
#     4  10  22  38  63  95 129 166 209 254 311 375
#     4  12  20  38  60  96 133 170 209 252 313 372
#     4  11  24  44  66  92 119 159 208 262 319 377
#
# _framework density 20.451651999999999
#
# number of rings (size 3 to 8) (size 9 to 14) (size 15 to 20)
#    0.000    1.333    4.444    1.333    0.000    2.667 
#    0.000    4.444    0.000    0.000    0.000    0.000 
#    0.000    0.000    0.000    0.000    0.000    0.000 
#
# Total GULP energy -446060.886929 kJ/mol
# GULP energy per Si atom -12390.580192 kJ/mol
# Density = 2.040510 g / cm^3
# Si number density = 20.451652 Si / 1000 Ang^3
#
#
#
# Elastic Constant Matrix: (Units=GPa)
#
#
# Indices 1 2 3 4 5 6 
#
# 1 82.9724 32.1788 39.2261 0.0000 0.0000 0.0000
# 2 32.1788 120.3510 45.6178 0.0000 0.0000 0.0000
# 3 39.2261 45.6178 101.5815 0.0000 0.0000 0.0000
# 4 0.0000 0.0000 0.0000 31.5337 0.0000 0.0000
# 5 0.0000 0.0000 0.0000 0.0000 33.7902 0.0000
# 6 0.0000 0.0000 0.0000 0.0000 0.0000 28.3821
#
#
#
# Elastic Compliance Matrix: (Units=1/GPa)
#
#
# Indices 1 2 3 4 5 6 
#
# 1 0.015220 -0.002220 -0.004881 0.000000 0.000000 0.000000
# 2 -0.002220 0.010337 -0.003785 0.000000 0.000000 0.000000
# 3 -0.004881 -0.003785 0.013429 0.000000 0.000000 0.000000
# 4 0.000000 0.000000 0.000000 0.031712 0.000000 0.000000
# 5 0.000000 0.000000 0.000000 0.000000 0.029594 0.000000
# 6 0.000000 0.000000 0.000000 0.000000 0.000000 0.035233
#
#
# Mechanical properties :
#
#
# Convention : Reuss Voigt Hill
#
# Bulk Modulus (GPa) = 58.08642 59.88337 58.98490
# Shear Modulus (GPa) = 30.66815 31.26668 30.96741
#
# Velocity S-wave (km/s) = 3.87660 3.91424 3.89546
# Velocity P-wave (km/s) = 6.96425 7.05496 7.00975
#
# Compressibility (1/GPa) = 0.01721573
#
# Stress axis : x y z
#
# Youngs Moduli (GPa) = 65.70126 96.73820 74.46688
#
# Poissons Ratio (x) = 0.21472 0.36345
# Poissons Ratio (y) = 0.14583 0.28186
# Poissons Ratio (z) = 0.32067 0.36616
#
# Static dielectric constant tensor:
#      x y z
#    x 3.518780 0.000000 0.000000 
#    y 0.000000 4.424170 0.000000 
#    z 0.000000 0.000000 3.766030 
# 
# 
# High freq. dielectric constant tensor:
#      x y z
#    x 1.783740 0.000000 0.000000 
#    y 0.000000 1.810990 0.000000 
#    z 0.000000 0.000000 1.800310 
# 
# From -- ./inp_files/47625.got.cif
#   From: 2010.03.12/outbox.cif.g09.slc.cpg/sg64_24_cif.got.tgz:47625.got - 2010.04.10 20:19:32.
