data_PCOD8264298
_publ_section_title
;
Structure prediction by ZEFSAII (Michael W. Deem and Ramdas Pophale) SiO2 
 PCOD8264298
Probable space group: C M C A
;
_chemical_formula_sum "Si O2"
_cell_formula_units_Z 96
_cell_length_a 16.734008
_cell_length_b 12.069129
_cell_length_c 22.000172
_cell_angle_alpha 90.000000
_cell_angle_beta 90.000000
_cell_angle_gamma 90.000000
_cell_volume 4443.262565
_symmetry_space_group_name_H-M "C M C A"
_symmetry_group_IT_number 64
_symmetry_cell_setting 'orthorhombic'
loop_
_space_group_symop_operation_xyz
x,y,z
-x,1/2-y,1/2+z
x,-y,-z
-x,1/2+y,1/2-z
-x,-y,-z
x,1/2+y,1/2-z
-x,y,z
x,1/2-y,1/2+z
1/2+x,1/2+y,z
1/2-x,-y,1/2+z
1/2+x,1/2-y,-z
1/2-x,y,1/2-z
1/2-x,1/2-y,-z
1/2+x,y,1/2-z
1/2-x,1/2+y,z
1/2+x,-y,1/2+z
loop_
_atom_site_type_symbol
_atom_site_label
_atom_site_fract_x
_atom_site_fract_y
_atom_site_fract_z
Si Si1 0.845040 0.234381 0.399216
Si Si2 0.656671 0.575693 0.811346
Si Si3 0.407495 0.129127 0.496366
Si Si4 0.334158 0.841603 0.628481
Si Si5 0.841828 0.882314 0.318824
Si Si6 0.090234 0.010495 0.431908
O O1 0.877314 0.316278 0.346293
O O2 0.845315 0.309104 0.459606
O O3 0.759370 0.175976 0.387625
O O4 0.908095 0.136192 0.408315
O O5 0.640838 0.460178 0.844630
O O6 0.750192 0.592514 0.809473
O O7 0.617170 0.572398 0.743381
O O8 0.500000 0.152878 0.513259
O O9 0.389217 0.176021 0.429972
O O10 0.387233 0.000000 0.500000
O O11 0.358213 0.749150 0.677847
O O12 0.866456 0.935217 0.382439
O O13 0.000000 0.968037 0.436035
O O14 0.129203 0.000000 0.500000
#
# Coordination Sequence:
#
# PCOD8264298 Si02
#       6
#    16  16  16  16  16  16
#     4  11  22  40  67  96 124 170 217 267 323 386
#     4  10  22  40  64  96 127 161 217 269 317 388
#     4  11  23  40  62  91 134 173 212 267 328 385
#     4  11  22  40  66  96 126 166 217 273 320 388
#     4  10  23  39  65  95 125 168 208 267 331 379
#     4  11  24  43  66  94 132 170 215 270 325 386
#
# _framework density 21.605746
#
# number of rings (size 3 to 8) (size 9 to 14) (size 15 to 20)
#    0.000    1.333    3.333    2.000    2.333    5.333 
#    0.000    2.500    0.000    0.000    0.000    0.000 
#    0.000    0.000    0.000    0.000    0.000    0.000 
#
# Total GULP energy -594869.280075 kJ/mol
# GULP energy per Si atom -12393.110002 kJ/mol
# Density = 2.155657 g / cm^3
# Si number density = 21.605746 Si / 1000 Ang^3
#
#
#
# Elastic Constant Matrix: (Units=GPa)
#
#
# Indices 1 2 3 4 5 6 
#
# 1 29.5426 18.6172 28.1278 0.0000 0.0000 0.0000
# 2 18.6172 105.0833 49.8843 0.0000 0.0000 0.0000
# 3 28.1278 49.8843 176.3026 0.0000 0.0000 0.0000
# 4 0.0000 0.0000 0.0000 7.5430 0.0000 0.0000
# 5 0.0000 0.0000 0.0000 0.0000 10.7552 0.0000
# 6 0.0000 0.0000 0.0000 0.0000 0.0000 16.2712
#
#
#
# Elastic Compliance Matrix: (Units=1/GPa)
#
#
# Indices 1 2 3 4 5 6 
#
# 1 0.042006 -0.004922 -0.005309 0.000000 0.000000 0.000000
# 2 -0.004922 0.011569 -0.002488 0.000000 0.000000 0.000000
# 3 -0.005309 -0.002488 0.007223 0.000000 0.000000 0.000000
# 4 0.000000 0.000000 0.000000 0.132573 0.000000 0.000000
# 5 0.000000 0.000000 0.000000 0.000000 0.092979 0.000000
# 6 0.000000 0.000000 0.000000 0.000000 0.000000 0.061458
#
#
# Mechanical properties :
#
#
# Convention : Reuss Voigt Hill
#
# Bulk Modulus (GPa) = 28.28041 56.02079 42.15060
# Shear Modulus (GPa) = 12.98587 21.20047 17.09317
#
# Velocity S-wave (km/s) = 2.45427 3.13588 2.81577
# Velocity P-wave (km/s) = 4.59880 6.25273 5.48842
#
# Compressibility (1/GPa) = 0.03536017
#
# Stress axis : x y z
#
# Youngs Moduli (GPa) = 23.80614 86.43443 138.44338
#
# Poissons Ratio (x) = 0.42541 0.73502
# Poissons Ratio (y) = 0.11717 0.34449
# Poissons Ratio (z) = 0.12639 0.21508
#
# Static dielectric constant tensor:
#      x y z
#    x 3.506190 0.000000 0.000000 
#    y 0.000000 4.156860 0.000000 
#    z 0.000000 0.000000 4.552780 
# 
# 
# High freq. dielectric constant tensor:
#      x y z
#    x 1.811480 0.000000 0.000000 
#    y 0.000000 1.866160 0.000000 
#    z 0.000000 0.000000 1.862420 
# 
# From -- ./inp_files/40834.got.cif
#   From: 2010.03.12/outbox.cif.g09.slc.cpg/sg64_21_cif.got.tgz:40834.got - 2010.04.10 20:19:32.
