data_PCOD8264224
_publ_section_title
;
Structure prediction by ZEFSAII (Michael W. Deem and Ramdas Pophale) SiO2 
 PCOD8264224
Probable space group: C M C A
;
_chemical_formula_sum "Si O2"
_cell_formula_units_Z 64
_cell_length_a 17.951659
_cell_length_b 14.298936
_cell_length_c 12.374930
_cell_angle_alpha 90.000000
_cell_angle_beta 90.000000
_cell_angle_gamma 90.000000
_cell_volume 3176.516118
_symmetry_space_group_name_H-M "C M C A"
_symmetry_group_IT_number 64
_symmetry_cell_setting 'orthorhombic'
loop_
_space_group_symop_operation_xyz
x,y,z
-x,1/2-y,1/2+z
x,-y,-z
-x,1/2+y,1/2-z
-x,-y,-z
x,1/2+y,1/2-z
-x,y,z
x,1/2-y,1/2+z
1/2+x,1/2+y,z
1/2-x,-y,1/2+z
1/2+x,1/2-y,-z
1/2-x,y,1/2-z
1/2-x,1/2-y,-z
1/2+x,y,1/2-z
1/2-x,1/2+y,z
1/2+x,-y,1/2+z
loop_
_atom_site_type_symbol
_atom_site_label
_atom_site_fract_x
_atom_site_fract_y
_atom_site_fract_z
Si Si1 0.086758 0.596134 0.547842
Si Si2 0.918059 0.440937 0.891264
Si Si3 0.413186 0.289446 0.451623
Si Si4 0.336915 0.907048 0.229835
O O1 0.120370 0.500000 0.500000
O O2 0.102531 0.679170 0.462475
O O3 0.124704 0.621459 0.659643
O O4 0.000000 0.584884 0.570964
O O5 0.860826 0.488122 0.807526
O O6 0.000000 0.438293 0.835830
O O7 0.921764 0.500000 0.000000
O O8 0.894013 0.337308 0.931440
O O9 0.500000 0.309623 0.422799
O O10 0.360582 0.329989 0.358345
O O11 0.250000 0.905670 0.250000
#
# Coordination Sequence:
#
# PCOD8264224 Si02
#       4
#    16  16  16  16
#     4  10  22  39  58  82 112 146 190 243 286 323
#     4   8  15  32  58  81 102 136 186 231 263 318
#     4   9  19  38  62  83 107 148 197 234 271 333
#     4  11  22  35  55  84 117 150 180 227 290 345
#
# _framework density 20.147859
#
# number of rings (size 3 to 8) (size 9 to 14) (size 15 to 20)
#    0.000    2.500    0.000    3.750    0.000    6.000 
#    0.000   10.000    0.000    0.000    0.000    0.000 
#    0.000    0.000    0.000    0.000    0.000    0.000 
#
# Total GULP energy -396680.684018 kJ/mol
# GULP energy per Si atom -12396.271376 kJ/mol
# Density = 2.010200 g / cm^3
# Si number density = 20.147859 Si / 1000 Ang^3
#
#
#
# Elastic Constant Matrix: (Units=GPa)
#
#
# Indices 1 2 3 4 5 6 
#
# 1 114.1998 57.6498 66.2507 0.0000 0.0000 0.0000
# 2 57.6498 137.0769 41.3060 0.0000 0.0000 0.0000
# 3 66.2507 41.3060 90.3836 0.0000 0.0000 0.0000
# 4 0.0000 0.0000 0.0000 24.0703 0.0000 0.0000
# 5 0.0000 0.0000 0.0000 0.0000 -64.1559 0.0000
# 6 0.0000 0.0000 0.0000 0.0000 0.0000 15.3719
#
#
#
# Elastic Compliance Matrix: (Units=1/GPa)
#
#
# Indices 1 2 3 4 5 6 
#
# 1 0.016864 -0.003905 -0.010576 0.000000 0.000000 0.000000
# 2 -0.003905 0.009365 -0.001417 0.000000 0.000000 0.000000
# 3 -0.010576 -0.001417 0.019464 0.000000 0.000000 0.000000
# 4 0.000000 0.000000 0.000000 0.041545 0.000000 0.000000
# 5 0.000000 0.000000 0.000000 0.000000 -0.015587 0.000000
# 6 0.000000 0.000000 0.000000 0.000000 0.000000 0.065054
#
#
# Mechanical properties :
#
#
# Convention : Reuss Voigt Hill
#
# Bulk Modulus (GPa) = 71.96896 74.67480 73.32188
# Shear Modulus (GPa) = 28.87958 6.82085 17.85021
#
# Velocity S-wave (km/s) = 3.79011 1.84194 2.97974
# Velocity P-wave (km/s) = 7.41291 6.45504 6.95049
#
# Compressibility (1/GPa) = 0.01389488
#
# Stress axis : x y z
#
# Youngs Moduli (GPa) = 59.29949 106.78465 51.37727
#
# Poissons Ratio (x) = 0.41702 0.54337
# Poissons Ratio (y) = 0.23158 0.07281
# Poissons Ratio (z) = 0.62716 0.15133
#
# Static dielectric constant tensor:
#      x y z
#    x 3.483340 0.000000 0.000000 
#    y 0.000000 4.165810 0.000000 
#    z 0.000000 0.000000 3.516610 
# 
# 
# High freq. dielectric constant tensor:
#      x y z
#    x 1.761410 0.000000 0.000000 
#    y 0.000000 1.793830 0.000000 
#    z 0.000000 0.000000 1.774060 
# 
# From -- ./inp_files/15456.got.cif
#   From: 2010.03.12/outbox.cif.g09.slc.cpg/sg64_8_cif.got.tgz:15456.got - 2010.04.10 20:19:32.
