data_PCOD8264232
_publ_section_title
;
Structure prediction by ZEFSAII (Michael W. Deem and Ramdas Pophale) SiO2 
 PCOD8264232
Probable space group: C M C A
;
_chemical_formula_sum "Si O2"
_cell_formula_units_Z 72
_cell_length_a 17.323405
_cell_length_b 13.964010
_cell_length_c 13.938568
_cell_angle_alpha 90.000000
_cell_angle_beta 90.000000
_cell_angle_gamma 90.000000
_cell_volume 3371.798150
_symmetry_space_group_name_H-M "C M C A"
_symmetry_group_IT_number 64
_symmetry_cell_setting 'orthorhombic'
loop_
_space_group_symop_operation_xyz
x,y,z
-x,1/2-y,1/2+z
x,-y,-z
-x,1/2+y,1/2-z
-x,-y,-z
x,1/2+y,1/2-z
-x,y,z
x,1/2-y,1/2+z
1/2+x,1/2+y,z
1/2-x,-y,1/2+z
1/2+x,1/2-y,-z
1/2-x,y,1/2-z
1/2-x,1/2-y,-z
1/2+x,y,1/2-z
1/2-x,1/2+y,z
1/2+x,-y,1/2+z
loop_
_atom_site_type_symbol
_atom_site_label
_atom_site_fract_x
_atom_site_fract_y
_atom_site_fract_z
Si Si1 0.872913 0.352590 0.936457
Si Si2 0.628278 0.368947 0.069266
Si Si3 0.000000 0.390024 0.273649
Si Si4 0.253829 0.500000 0.500000
Si Si5 0.000000 0.596191 0.209516
Si Si6 0.500000 0.840515 0.073468
Si Si7 0.000000 0.369905 0.566501
O O1 0.845260 0.241931 0.942993
O O2 0.923971 0.361218 0.840080
O O3 0.801548 0.425873 0.933446
O O4 0.922315 0.387928 0.030249
O O5 0.577385 0.382516 0.165114
O O6 0.704013 0.435159 0.073919
O O7 0.578590 0.411641 0.979373
O O8 0.000000 0.481724 0.202208
O O9 0.000000 0.313511 0.187020
O O10 0.000000 0.618260 0.321338
O O11 0.500000 0.736831 0.022948
#
# Coordination Sequence:
#
# PCOD8264232 Si02
#       7
#    16  16   8   8   8   8   8
#     4  10  22  39  60  87 118 153 194 242 293 345
#     4  10  22  39  60  87 118 153 194 242 293 345
#     4  11  20  36  63  88 111 146 197 248 289 338
#     4  12  22  38  58  82 124 164 190 228 290 360
#     4  11  20  36  63  88 111 146 197 248 289 338
#     4   9  18  37  62  83 106 142 191 243 288 331
#     4   9  18  37  62  83 106 142 191 243 288 331
#
# _framework density 21.353591000000002
#
# number of rings (size 3 to 8) (size 9 to 14) (size 15 to 20)
#    0.000    1.778    0.000    6.667    0.000    3.556 
#    0.000   10.000    0.000   16.000    0.000    0.000 
#    0.000    0.000    0.000    0.000    0.000    0.000 
#
# Total GULP energy -446119.264509 kJ/mol
# GULP energy per Si atom -12392.201792 kJ/mol
# Density = 2.130499 g / cm^3
# Si number density = 21.353591 Si / 1000 Ang^3
#
#
#
# Elastic Constant Matrix: (Units=GPa)
#
#
# Indices 1 2 3 4 5 6 
#
# 1 125.3038 65.5324 48.1080 0.0000 0.0000 0.0000
# 2 65.5324 116.4327 17.0880 0.0000 0.0000 0.0000
# 3 48.1080 17.0880 150.4357 0.0000 0.0000 0.0000
# 4 0.0000 0.0000 0.0000 29.0601 0.0000 0.0000
# 5 0.0000 0.0000 0.0000 0.0000 9.0513 0.0000
# 6 0.0000 0.0000 0.0000 0.0000 0.0000 34.6427
#
#
#
# Elastic Compliance Matrix: (Units=1/GPa)
#
#
# Indices 1 2 3 4 5 6 
#
# 1 0.012754 -0.006692 -0.003319 0.000000 0.000000 0.000000
# 2 -0.006692 0.012245 0.000749 0.000000 0.000000 0.000000
# 3 -0.003319 0.000749 0.007624 0.000000 0.000000 0.000000
# 4 0.000000 0.000000 0.000000 0.034411 0.000000 0.000000
# 5 0.000000 0.000000 0.000000 0.000000 0.110481 0.000000
# 6 0.000000 0.000000 0.000000 0.000000 0.000000 0.028866
#
#
# Mechanical properties :
#
#
# Convention : Reuss Voigt Hill
#
# Bulk Modulus (GPa) = 70.91953 72.62544 71.77248
# Shear Modulus (GPa) = 21.77665 31.98042 26.87853
#
# Velocity S-wave (km/s) = 3.19691 3.87416 3.55172
# Velocity P-wave (km/s) = 6.84917 7.35506 7.10662
#
# Compressibility (1/GPa) = 0.01410049
#
# Stress axis : x y z
#
# Youngs Moduli (GPa) = 78.40477 81.66622 131.17257
#
# Poissons Ratio (x) = 0.54647 0.43531
# Poissons Ratio (y) = 0.52465 -0.09825
# Poissons Ratio (z) = 0.26020 -0.06117
#
# Static dielectric constant tensor:
#      x y z
#    x 3.764690 0.000000 0.000000 
#    y 0.000000 4.447980 0.000000 
#    z 0.000000 0.000000 3.503960 
# 
# 
# High freq. dielectric constant tensor:
#      x y z
#    x 1.819770 0.000000 0.000000 
#    y 0.000000 1.871560 0.000000 
#    z 0.000000 0.000000 1.820570 
# 
# From -- ./inp_files/25185.got.cif
#   From: 2010.03.12/outbox.cif.g09.slc.cpg/sg64_13_cif.got.tgz:25185.got - 2010.04.10 20:19:32.
