data_PCOD8264017
_publ_section_title
;
Structure prediction by ZEFSAII (Michael W. Deem and Ramdas Pophale) SiO2 
 PCOD8264017
Probable space group: C M C A
;
_chemical_formula_sum "Si O2"
_cell_formula_units_Z 120
_cell_length_a 25.474567
_cell_length_b 22.457355
_cell_length_c 10.729314
_cell_angle_alpha 90.000000
_cell_angle_beta 90.000000
_cell_angle_gamma 90.000000
_cell_volume 6138.148209
_symmetry_space_group_name_H-M "C M C A"
_symmetry_group_IT_number 64
_symmetry_cell_setting 'orthorhombic'
loop_
_space_group_symop_operation_xyz
x,y,z
-x,1/2-y,1/2+z
x,-y,-z
-x,1/2+y,1/2-z
-x,-y,-z
x,1/2+y,1/2-z
-x,y,z
x,1/2-y,1/2+z
1/2+x,1/2+y,z
1/2-x,-y,1/2+z
1/2+x,1/2-y,-z
1/2-x,y,1/2-z
1/2-x,1/2-y,-z
1/2+x,y,1/2-z
1/2-x,1/2+y,z
1/2+x,-y,1/2+z
loop_
_atom_site_type_symbol
_atom_site_label
_atom_site_fract_x
_atom_site_fract_y
_atom_site_fract_z
Si Si1 0.772471 0.596321 0.908400
Si Si2 0.060059 0.580284 0.876420
Si Si3 0.559050 0.781762 0.131206
Si Si4 0.198094 0.500000 0.500000
Si Si5 0.886287 0.227752 0.367604
Si Si6 0.773405 0.222543 0.874803
Si Si7 0.153672 0.515048 0.758739
Si Si8 0.865017 0.401223 0.913720
O O1 0.735285 0.557527 0.997083
O O2 0.739160 0.652650 0.863824
O O3 0.797046 0.558035 0.793261
O O4 0.822581 0.619483 0.984411
O O5 0.063226 0.648816 0.837336
O O6 0.096432 0.543588 0.780765
O O7 0.000000 0.556686 0.872592
O O8 0.082813 0.573688 0.017001
O O9 0.500000 0.761826 0.105693
O O10 0.577803 0.748112 0.254240
O O11 0.589401 0.764810 0.005023
O O12 0.158743 0.497873 0.615725
O O13 0.835242 0.268770 0.369875
O O14 0.876479 0.158130 0.335345
O O15 0.750000 0.253912 0.750000
O O16 0.750000 0.250000 0.000000
O O17 0.159459 0.453909 0.833934
#
# Coordination Sequence:
#
# PCOD8264017 Si02
#       8
#    16  16  16   8  16  16  16  16
#     4  11  22  41  60  85 119 170 211 245 295 372
#     4   9  20  40  67  89 113 154 206 259 306 362
#     4  10  22  42  66  90 122 162 208 261 315 370
#     4  12  24  36  59  86 123 168 194 248 306 368
#     4  11  23  40  62  94 126 161 208 258 307 379
#     4  12  25  39  60  90 130 171 204 250 311 371
#     4  11  23  40  61  90 120 157 209 255 305 370
#     4  10  21  40  62  89 120 153 210 256 300 362
#
# _framework density 19.549869999999999
#
# number of rings (size 3 to 8) (size 9 to 14) (size 15 to 20)
#    0.000    1.333    2.667    3.600    5.600    3.733 
#    0.000    0.333    0.000    0.000    0.000    0.000 
#    0.000    0.000    0.000    0.000    0.000    0.000 
#
# Total GULP energy -743965.055297 kJ/mol
# GULP energy per Si atom -12399.417588 kJ/mol
# Density = 1.950537 g / cm^3
# Si number density = 19.549870 Si / 1000 Ang^3
#
#
#
# Elastic Constant Matrix: (Units=GPa)
#
#
# Indices 1 2 3 4 5 6 
#
# 1 140.4017 45.3819 47.2396 0.0000 0.0000 0.0000
# 2 45.3819 91.8515 49.2130 0.0000 0.0000 0.0000
# 3 47.2396 49.2130 126.7453 0.0000 0.0000 0.0000
# 4 0.0000 0.0000 0.0000 25.9675 0.0000 0.0000
# 5 0.0000 0.0000 0.0000 0.0000 31.2718 0.0000
# 6 0.0000 0.0000 0.0000 0.0000 0.0000 30.4361
#
#
#
# Elastic Compliance Matrix: (Units=1/GPa)
#
#
# Indices 1 2 3 4 5 6 
#
# 1 0.008870 -0.003297 -0.002026 0.000000 0.000000 0.000000
# 2 -0.003297 0.014973 -0.004585 0.000000 0.000000 0.000000
# 3 -0.002026 -0.004585 0.010425 0.000000 0.000000 0.000000
# 4 0.000000 0.000000 0.000000 0.038510 0.000000 0.000000
# 5 0.000000 0.000000 0.000000 0.000000 0.031978 0.000000
# 6 0.000000 0.000000 0.000000 0.000000 0.000000 0.032856
#
#
# Mechanical properties :
#
#
# Convention : Reuss Voigt Hill
#
# Bulk Modulus (GPa) = 69.19259 71.40750 70.30005
# Shear Modulus (GPa) = 30.81803 32.01267 31.41535
#
# Velocity S-wave (km/s) = 3.97467 4.05098 4.01301
# Velocity P-wave (km/s) = 7.51889 7.64759 7.58352
#
# Compressibility (1/GPa) = 0.01445241
#
# Stress axis : x y z
#
# Youngs Moduli (GPa) = 112.74388 66.78880 95.92306
#
# Poissons Ratio (x) = 0.22020 0.19431
# Poissons Ratio (y) = 0.37171 0.43978
# Poissons Ratio (z) = 0.22838 0.30621
#
# Static dielectric constant tensor:
#      x y z
#    x 3.710940 0.000000 0.000000 
#    y 0.000000 3.599850 0.000000 
#    z 0.000000 0.000000 3.636560 
# 
# 
# High freq. dielectric constant tensor:
#      x y z
#    x 1.768820 0.000000 0.000000 
#    y 0.000000 1.764340 0.000000 
#    z 0.000000 0.000000 1.757310 
# 
# From -- ./inp_files/18589.got.cif
#   From: 2010.03.12/outbox.cif.g09.slc.cpg/sg64_10_cif.got.tgz:18589.got - 2010.04.10 20:19:32.
