data_PCOD8264413
_publ_section_title
;
Structure prediction by ZEFSAII (Michael W. Deem and Ramdas Pophale) SiO2 
 PCOD8264413
Probable space group: C M C A
;
_chemical_formula_sum "Si O2"
_cell_formula_units_Z 96
_cell_length_a 15.638952
_cell_length_b 15.132164
_cell_length_c 17.535698
_cell_angle_alpha 90.000000
_cell_angle_beta 90.000000
_cell_angle_gamma 90.000000
_cell_volume 4149.843737
_symmetry_space_group_name_H-M "C M C A"
_symmetry_group_IT_number 64
_symmetry_cell_setting 'orthorhombic'
loop_
_space_group_symop_operation_xyz
x,y,z
-x,1/2-y,1/2+z
x,-y,-z
-x,1/2+y,1/2-z
-x,-y,-z
x,1/2+y,1/2-z
-x,y,z
x,1/2-y,1/2+z
1/2+x,1/2+y,z
1/2-x,-y,1/2+z
1/2+x,1/2-y,-z
1/2-x,y,1/2-z
1/2-x,1/2-y,-z
1/2+x,y,1/2-z
1/2-x,1/2+y,z
1/2+x,-y,1/2+z
loop_
_atom_site_type_symbol
_atom_site_label
_atom_site_fract_x
_atom_site_fract_y
_atom_site_fract_z
Si Si1 0.641710 0.168874 0.701222
Si Si2 0.680776 0.330287 0.934901
Si Si3 0.403272 0.960395 0.160300
Si Si4 0.500000 0.597788 0.082053
Si Si5 0.817701 0.635883 0.190721
Si Si6 0.771914 0.138618 0.579559
Si Si7 0.000000 0.400601 0.401740
O O1 0.614684 0.108213 0.771306
O O2 0.639383 0.273292 0.722037
O O3 0.735411 0.148390 0.666459
O O4 0.580903 0.151183 0.629724
O O5 0.590811 0.357334 0.894680
O O6 0.765761 0.350741 0.886996
O O7 0.676222 0.225273 0.947224
O O8 0.698252 0.380882 0.016043
O O9 0.500000 0.947750 0.133297
O O10 0.341188 0.939657 0.088350
O O11 0.390926 0.062207 0.183772
O O12 0.500000 0.503223 0.123661
O O13 0.500000 0.599808 0.991719
O O14 0.750000 0.597398 0.250000
#
# Coordination Sequence:
#
# PCOD8264413 Si02
#       7
#    16  16  16   8  16  16   8
#     4  11  22  47  68  94 138 177 220 284 341 404
#     4  10  23  43  71  99 134 179 224 280 339 407
#     4  12  27  42  67 102 134 179 229 284 340 408
#     4  11  24  40  69 110 130 167 236 285 338 399
#     4  11  26  46  69  96 132 184 226 275 354 417
#     4  10  22  44  68  98 135 180 222 275 347 401
#     4  11  24  38  67 104 136 170 221 293 345 379
#
# _framework density 23.133403000000001
#
# number of rings (size 3 to 8) (size 9 to 14) (size 15 to 20)
#    0.000    1.167    2.500    3.500    7.000    0.667 
#    0.000    1.667    0.000    0.000    0.000    0.000 
#    0.000    0.000    0.000    0.000    0.000    0.000 
#
# Total GULP energy -594967.136955 kJ/mol
# GULP energy per Si atom -12395.148687 kJ/mol
# Density = 2.308075 g / cm^3
# Si number density = 23.133403 Si / 1000 Ang^3
#
#
#
# Elastic Constant Matrix: (Units=GPa)
#
#
# Indices 1 2 3 4 5 6 
#
# 1 116.3669 49.8441 1.9057 0.0000 0.0000 0.0000
# 2 49.8441 116.0949 7.2019 0.0000 0.0000 0.0000
# 3 1.9057 7.2019 36.7274 0.0000 0.0000 0.0000
# 4 0.0000 0.0000 0.0000 26.4617 0.0000 0.0000
# 5 0.0000 0.0000 0.0000 0.0000 16.0939 0.0000
# 6 0.0000 0.0000 0.0000 0.0000 0.0000 35.1233
#
#
#
# Elastic Compliance Matrix: (Units=1/GPa)
#
#
# Indices 1 2 3 4 5 6 
#
# 1 0.010534 -0.004544 0.000344 0.000000 0.000000 0.000000
# 2 -0.004544 0.010680 -0.001858 0.000000 0.000000 0.000000
# 3 0.000344 -0.001858 0.027574 0.000000 0.000000 0.000000
# 4 0.000000 0.000000 0.000000 0.037790 0.000000 0.000000
# 5 0.000000 0.000000 0.000000 0.000000 0.062135 0.000000
# 6 0.000000 0.000000 0.000000 0.000000 0.000000 0.028471
#
#
# Mechanical properties :
#
#
# Convention : Reuss Voigt Hill
#
# Bulk Modulus (GPa) = 27.26867 43.01028 35.13947
# Shear Modulus (GPa) = 24.81073 29.55161 27.18117
#
# Velocity S-wave (km/s) = 3.27847 3.57801 3.43151
# Velocity P-wave (km/s) = 5.11315 5.97513 5.56087
#
# Compressibility (1/GPa) = 0.03667212
#
# Stress axis : x y z
#
# Youngs Moduli (GPa) = 94.92808 93.63370 36.26580
#
# Poissons Ratio (x) = 0.42549 -0.01249
# Poissons Ratio (y) = 0.43137 0.06740
# Poissons Ratio (z) = -0.03270 0.17401
#
# Static dielectric constant tensor:
#      x y z
#    x 4.324710 0.000000 0.000000 
#    y 0.000000 4.201650 0.000000 
#    z 0.000000 0.000000 4.049970 
# 
# 
# High freq. dielectric constant tensor:
#      x y z
#    x 1.917090 0.000000 0.000000 
#    y 0.000000 1.907840 0.000000 
#    z 0.000000 0.000000 1.908920 
# 
# From -- ./inp_files/39269.got.cif
#   From: 2010.03.12/outbox.cif.g09.slc.cpg/sg64_20_cif.got.tgz:39269.got - 2010.04.10 20:19:32.
