data_PCOD8264546
_publ_section_title
;
Structure prediction by ZEFSAII (Michael W. Deem and Ramdas Pophale) SiO2 
 PCOD8264546
Probable space group: C M C A
;
_chemical_formula_sum "Si O2"
_cell_formula_units_Z 56
_cell_length_a 24.279043
_cell_length_b 8.958379
_cell_length_c 12.547851
_cell_angle_alpha 90.000000
_cell_angle_beta 90.000000
_cell_angle_gamma 90.000000
_cell_volume 2729.168496
_symmetry_space_group_name_H-M "C M C A"
_symmetry_group_IT_number 64
_symmetry_cell_setting 'orthorhombic'
loop_
_space_group_symop_operation_xyz
x,y,z
-x,1/2-y,1/2+z
x,-y,-z
-x,1/2+y,1/2-z
-x,-y,-z
x,1/2+y,1/2-z
-x,y,z
x,1/2-y,1/2+z
1/2+x,1/2+y,z
1/2-x,-y,1/2+z
1/2+x,1/2-y,-z
1/2-x,y,1/2-z
1/2-x,1/2-y,-z
1/2+x,y,1/2-z
1/2-x,1/2+y,z
1/2+x,-y,1/2+z
loop_
_atom_site_type_symbol
_atom_site_label
_atom_site_fract_x
_atom_site_fract_y
_atom_site_fract_z
Si Si1 0.500000 0.254742 0.393414
Si Si2 0.000000 0.937438 0.200631
Si Si3 0.791982 0.252791 0.899789
Si Si4 0.250000 0.996849 0.250000
Si Si5 0.908834 0.340210 0.454284
O O1 0.500000 0.406509 0.326227
O O2 0.445212 0.252326 0.462937
O O3 0.500000 0.113872 0.314079
O O4 0.944869 0.864651 0.151472
O O5 0.785794 0.400265 0.828288
O O6 0.787146 0.106549 0.825664
O O7 0.854529 0.257995 0.938890
O O8 0.750000 0.250000 0.000000
O O9 0.891053 0.500000 0.500000
#
# Coordination Sequence:
#
# PCOD8264546 Si02
#       5
#     8   8  16   8  16
#     4   9  19  37  58  82 108 147 187 229 287 335
#     4   9  19  35  56  80 110 143 185 231 276 341
#     4  11  22  40  60  85 119 153 193 243 287 344
#     4  10  24  38  58  88 114 154 198 232 296 348
#     4   9  19  36  57  80 111 149 185 229 286 338
#
# _framework density 20.519071
#
# number of rings (size 3 to 8) (size 9 to 14) (size 15 to 20)
#    0.000    2.286    0.000    4.286    0.000    9.143 
#    0.000    5.714    0.000    0.000    0.000    0.000 
#    0.000    0.000    0.000    0.000    0.000    0.000 
#
# Total GULP energy -347156.606332 kJ/mol
# GULP energy per Si atom -12398.450226 kJ/mol
# Density = 2.047237 g / cm^3
# Si number density = 20.519071 Si / 1000 Ang^3
#
#
#
# Elastic Constant Matrix: (Units=GPa)
#
#
# Indices 1 2 3 4 5 6 
#
# 1 155.7489 47.1988 53.0013 0.0000 0.0000 0.0000
# 2 47.1988 86.3517 51.4175 0.0000 0.0000 0.0000
# 3 53.0013 51.4175 114.3801 0.0000 0.0000 0.0000
# 4 0.0000 0.0000 0.0000 40.0930 0.0000 0.0000
# 5 0.0000 0.0000 0.0000 0.0000 16.4712 0.0000
# 6 0.0000 0.0000 0.0000 0.0000 0.0000 18.5433
#
#
#
# Elastic Compliance Matrix: (Units=1/GPa)
#
#
# Indices 1 2 3 4 5 6 
#
# 1 0.008160 -0.003016 -0.002425 0.000000 0.000000 0.000000
# 2 -0.003016 0.016928 -0.006212 0.000000 0.000000 0.000000
# 3 -0.002425 -0.006212 0.012659 0.000000 0.000000 0.000000
# 4 0.000000 0.000000 0.000000 0.024942 0.000000 0.000000
# 5 0.000000 0.000000 0.000000 0.000000 0.060712 0.000000
# 6 0.000000 0.000000 0.000000 0.000000 0.000000 0.053928
#
#
# Mechanical properties :
#
#
# Convention : Reuss Voigt Hill
#
# Bulk Modulus (GPa) = 69.25114 73.30175 71.27645
# Shear Modulus (GPa) = 24.33693 28.67907 26.50800
#
# Velocity S-wave (km/s) = 3.44766 3.74261 3.59816
# Velocity P-wave (km/s) = 7.04780 7.38088 7.21626
#
# Compressibility (1/GPa) = 0.01444020
#
# Stress axis : x y z
#
# Youngs Moduli (GPa) = 122.55045 59.07377 78.99402
#
# Poissons Ratio (x) = 0.17816 0.19159
# Poissons Ratio (y) = 0.36960 0.49072
# Poissons Ratio (z) = 0.29723 0.36697
#
# Static dielectric constant tensor:
#      x y z
#    x 3.546790 0.000000 0.000000 
#    y 0.000000 3.618750 0.000000 
#    z 0.000000 0.000000 3.848370 
# 
# 
# High freq. dielectric constant tensor:
#      x y z
#    x 1.798850 0.000000 0.000000 
#    y 0.000000 1.795860 0.000000 
#    z 0.000000 0.000000 1.811510 
# 
# From -- ./inp_files/18867.got.cif
#   From: 2010.03.12/outbox.cif.g09.slc.cpg/sg64_10_cif.got.tgz:18867.got - 2010.04.10 20:19:32.
