data_PCOD8264252
_publ_section_title
;
Structure prediction by ZEFSAII (Michael W. Deem and Ramdas Pophale) SiO2 
 PCOD8264252
Probable space group: C M C A
;
_chemical_formula_sum "Si O2"
_cell_formula_units_Z 96
_cell_length_a 22.517328
_cell_length_b 13.856926
_cell_length_c 14.445421
_cell_angle_alpha 90.000000
_cell_angle_beta 90.000000
_cell_angle_gamma 90.000000
_cell_volume 4507.273952
_symmetry_space_group_name_H-M "C M C A"
_symmetry_group_IT_number 64
_symmetry_cell_setting 'orthorhombic'
loop_
_space_group_symop_operation_xyz
x,y,z
-x,1/2-y,1/2+z
x,-y,-z
-x,1/2+y,1/2-z
-x,-y,-z
x,1/2+y,1/2-z
-x,y,z
x,1/2-y,1/2+z
1/2+x,1/2+y,z
1/2-x,-y,1/2+z
1/2+x,1/2-y,-z
1/2-x,y,1/2-z
1/2-x,1/2-y,-z
1/2+x,y,1/2-z
1/2-x,1/2+y,z
1/2+x,-y,1/2+z
loop_
_atom_site_type_symbol
_atom_site_label
_atom_site_fract_x
_atom_site_fract_y
_atom_site_fract_z
Si Si1 0.066188 0.315360 0.272853
Si Si2 0.286751 0.543162 0.903967
Si Si3 0.390166 0.976505 0.717450
Si Si4 0.432135 0.200822 0.401063
Si Si5 0.652529 0.763649 0.426986
Si Si6 0.338825 0.548466 0.410322
O O1 0.069809 0.428921 0.291419
O O2 0.080857 0.292283 0.165386
O O3 0.111011 0.257147 0.337214
O O4 0.000000 0.279350 0.296153
O O5 0.324556 0.496985 0.821533
O O6 0.294887 0.659371 0.908922
O O7 0.218624 0.516120 0.886068
O O8 0.310548 0.500000 0.000000
O O9 0.423101 0.894478 0.660288
O O10 0.384169 0.948990 0.825277
O O11 0.500000 0.201877 0.438265
O O12 0.386955 0.204154 0.485833
O O13 0.681061 0.657526 0.438129
O O14 0.370402 0.500000 0.500000
#
# Coordination Sequence:
#
# PCOD8264252 Si02
#       6
#    16  16  16  16  16  16
#     4  10  22  39  63  93 125 165 210 261 320 381
#     4  10  22  40  62  91 124 167 213 256 306 376
#     4  11  21  42  61  91 129 164 210 261 315 374
#     4  11  22  39  67  95 123 164 211 261 322 382
#     4  11  22  42  64  92 130 163 209 269 314 373
#     4  11  24  41  63  93 129 171 210 257 318 377
#
# _framework density 21.298905000000001
#
# number of rings (size 3 to 8) (size 9 to 14) (size 15 to 20)
#    0.000    1.333    3.333    2.500    0.000    2.667 
#    3.000    4.167    0.000    4.000    0.000    0.000 
#    0.000    0.000    0.000    0.000    0.000    0.000 
#
# Total GULP energy -595227.302965 kJ/mol
# GULP energy per Si atom -12400.568812 kJ/mol
# Density = 2.125043 g / cm^3
# Si number density = 21.298905 Si / 1000 Ang^3
#
#
#
# Elastic Constant Matrix: (Units=GPa)
#
#
# Indices 1 2 3 4 5 6 
#
# 1 70.8588 22.3450 22.0238 0.0000 0.0000 0.0000
# 2 22.3450 102.0763 7.1800 0.0000 0.0000 0.0000
# 3 22.0238 7.1800 82.9928 0.0000 0.0000 0.0000
# 4 0.0000 0.0000 0.0000 32.8934 0.0000 0.0000
# 5 0.0000 0.0000 0.0000 0.0000 18.5086 0.0000
# 6 0.0000 0.0000 0.0000 0.0000 0.0000 17.0355
#
#
#
# Elastic Compliance Matrix: (Units=1/GPa)
#
#
# Indices 1 2 3 4 5 6 
#
# 1 0.016421 -0.003308 -0.004072 0.000000 0.000000 0.000000
# 2 -0.003308 0.010523 -0.000032 0.000000 0.000000 0.000000
# 3 -0.004072 -0.000032 0.013133 0.000000 0.000000 0.000000
# 4 0.000000 0.000000 0.000000 0.030401 0.000000 0.000000
# 5 0.000000 0.000000 0.000000 0.000000 0.054029 0.000000
# 6 0.000000 0.000000 0.000000 0.000000 0.000000 0.058701
#
#
# Mechanical properties :
#
#
# Convention : Reuss Voigt Hill
#
# Bulk Modulus (GPa) = 39.60033 39.89174 39.74604
# Shear Modulus (GPa) = 24.21891 27.31276 25.76584
#
# Velocity S-wave (km/s) = 3.37574 3.58488 3.48188
# Velocity P-wave (km/s) = 5.81612 5.99211 5.90477
#
# Compressibility (1/GPa) = 0.02525231
#
# Stress axis : x y z
#
# Youngs Moduli (GPa) = 60.89648 95.02921 76.14688
#
# Poissons Ratio (x) = 0.31439 0.31003
# Poissons Ratio (y) = 0.20147 0.00247
# Poissons Ratio (z) = 0.24794 0.00308
#
# Static dielectric constant tensor:
#      x y z
#    x 3.462190 0.000000 0.000000 
#    y 0.000000 3.964130 0.000000 
#    z 0.000000 0.000000 4.034220 
# 
# 
# High freq. dielectric constant tensor:
#      x y z
#    x 1.815080 0.000000 0.000000 
#    y 0.000000 1.846600 0.000000 
#    z 0.000000 0.000000 1.846370 
# 
# From -- ./inp_files/34962.got.cif
#   From: 2010.03.12/outbox.cif.g09.slc.cpg/sg64_18_cif.got.tgz:34962.got - 2010.04.10 20:19:32.
