data_PCOD8264109
_publ_section_title
;
Structure prediction by ZEFSAII (Michael W. Deem and Ramdas Pophale) SiO2 
 PCOD8264109
Probable space group: C M C A
;
_chemical_formula_sum "Si O2"
_cell_formula_units_Z 72
_cell_length_a 24.034018
_cell_length_b 11.308091
_cell_length_c 13.123212
_cell_angle_alpha 90.000000
_cell_angle_beta 90.000000
_cell_angle_gamma 90.000000
_cell_volume 3566.611632
_symmetry_space_group_name_H-M "C M C A"
_symmetry_group_IT_number 64
_symmetry_cell_setting 'orthorhombic'
loop_
_space_group_symop_operation_xyz
x,y,z
-x,1/2-y,1/2+z
x,-y,-z
-x,1/2+y,1/2-z
-x,-y,-z
x,1/2+y,1/2-z
-x,y,z
x,1/2-y,1/2+z
1/2+x,1/2+y,z
1/2-x,-y,1/2+z
1/2+x,1/2-y,-z
1/2-x,y,1/2-z
1/2-x,1/2-y,-z
1/2+x,y,1/2-z
1/2-x,1/2+y,z
1/2+x,-y,1/2+z
loop_
_atom_site_type_symbol
_atom_site_label
_atom_site_fract_x
_atom_site_fract_y
_atom_site_fract_z
Si Si1 0.781331 0.887062 0.145503
Si Si2 0.564003 0.162307 0.549008
Si Si3 0.701845 0.500000 0.500000
Si Si4 0.361219 0.163611 0.147589
Si Si5 0.116922 0.950629 0.859305
O O1 0.750000 0.910581 0.250000
O O2 0.813416 0.763196 0.153901
O O3 0.737922 0.894137 0.051412
O O4 0.821643 0.997831 0.126690
O O5 0.500000 0.168602 0.516291
O O6 0.583926 0.287598 0.591723
O O7 0.603034 0.137478 0.451631
O O8 0.572821 0.059707 0.634667
O O9 0.663021 0.447558 0.588004
O O10 0.385091 0.122508 0.255757
#
# Coordination Sequence:
#
# PCOD8264109 Si02
#       5
#    16  16   8  16  16
#     4  11  23  38  62  91 127 174 207 243 319 377
#     4  10  23  43  68  91 122 168 213 268 322 369
#     4  12  24  42  59  92 133 174 204 266 302 374
#     4  11  25  38  64  95 127 160 217 262 309 374
#     4  10  21  42  62  92 124 165 211 258 309 390
#
# _framework density 20.187227
#
# number of rings (size 3 to 8) (size 9 to 14) (size 15 to 20)
#    0.000    1.333    2.222    4.667    6.222    1.778 
#    0.000    0.556    0.000    0.000    0.000    0.000 
#    0.000    0.000    0.000    0.000    0.000    0.000 
#
# Total GULP energy -446346.585370 kJ/mol
# GULP energy per Si atom -12398.516260 kJ/mol
# Density = 2.014128 g / cm^3
# Si number density = 20.187227 Si / 1000 Ang^3
#
#
#
# Elastic Constant Matrix: (Units=GPa)
#
#
# Indices 1 2 3 4 5 6 
#
# 1 103.0278 43.1098 58.5819 0.0000 0.0000 0.0000
# 2 43.1098 82.5132 57.0694 0.0000 0.0000 0.0000
# 3 58.5819 57.0694 133.9395 0.0000 0.0000 0.0000
# 4 0.0000 0.0000 0.0000 42.4420 0.0000 0.0000
# 5 0.0000 0.0000 0.0000 0.0000 21.2387 0.0000
# 6 0.0000 0.0000 0.0000 0.0000 0.0000 11.4308
#
#
#
# Elastic Compliance Matrix: (Units=1/GPa)
#
#
# Indices 1 2 3 4 5 6 
#
# 1 0.013938 -0.004347 -0.004244 0.000000 0.000000 0.000000
# 2 -0.004347 0.018539 -0.005998 0.000000 0.000000 0.000000
# 3 -0.004244 -0.005998 0.011878 0.000000 0.000000 0.000000
# 4 0.000000 0.000000 0.000000 0.023562 0.000000 0.000000
# 5 0.000000 0.000000 0.000000 0.000000 0.047084 0.000000
# 6 0.000000 0.000000 0.000000 0.000000 0.000000 0.087483
#
#
# Mechanical properties :
#
#
# Convention : Reuss Voigt Hill
#
# Bulk Modulus (GPa) = 65.88796 70.77808 68.33302
# Shear Modulus (GPa) = 21.12205 25.73693 23.42949
#
# Velocity S-wave (km/s) = 3.23818 3.57446 3.41047
# Velocity P-wave (km/s) = 6.83303 7.22306 7.03075
#
# Compressibility (1/GPa) = 0.01517728
#
# Stress axis : x y z
#
# Youngs Moduli (GPa) = 71.74568 53.94155 84.18974
#
# Poissons Ratio (x) = 0.23447 0.35731
# Poissons Ratio (y) = 0.31186 0.50496
# Poissons Ratio (z) = 0.30450 0.32353
#
# Static dielectric constant tensor:
#      x y z
#    x 3.693320 0.000000 0.000000 
#    y 0.000000 3.585260 0.000000 
#    z 0.000000 0.000000 3.766930 
# 
# 
# High freq. dielectric constant tensor:
#      x y z
#    x 1.783250 0.000000 0.000000 
#    y 0.000000 1.780500 0.000000 
#    z 0.000000 0.000000 1.794440 
# 
# From -- ./inp_files/27006.got.cif
#   From: 2010.03.12/outbox.cif.g09.slc.cpg/sg64_14_cif.got.tgz:27006.got - 2010.04.10 20:19:32.
