data_PCOD8264553
_publ_section_title
;
Structure prediction by ZEFSAII (Michael W. Deem and Ramdas Pophale) SiO2 
 PCOD8264553
Probable space group: C M C A
;
_chemical_formula_sum "Si O2"
_cell_formula_units_Z 72
_cell_length_a 9.644606
_cell_length_b 21.332443
_cell_length_c 16.695059
_cell_angle_alpha 90.000000
_cell_angle_beta 90.000000
_cell_angle_gamma 90.000000
_cell_volume 3434.891653
_symmetry_space_group_name_H-M "C M C A"
_symmetry_group_IT_number 64
_symmetry_cell_setting 'orthorhombic'
loop_
_space_group_symop_operation_xyz
x,y,z
-x,1/2-y,1/2+z
x,-y,-z
-x,1/2+y,1/2-z
-x,-y,-z
x,1/2+y,1/2-z
-x,y,z
x,1/2-y,1/2+z
1/2+x,1/2+y,z
1/2-x,-y,1/2+z
1/2+x,1/2-y,-z
1/2-x,y,1/2-z
1/2-x,1/2-y,-z
1/2+x,y,1/2-z
1/2-x,1/2+y,z
1/2+x,-y,1/2+z
loop_
_atom_site_type_symbol
_atom_site_label
_atom_site_fract_x
_atom_site_fract_y
_atom_site_fract_z
Si Si1 0.230789 0.822095 0.479245
Si Si2 0.000000 0.513775 0.359035
Si Si3 0.500000 0.597249 0.987012
Si Si4 0.850249 0.160904 0.354694
Si Si5 0.750000 0.448020 0.750000
Si Si6 0.156540 0.723267 0.818287
O O1 0.250000 0.750000 0.500000
O O2 0.372938 0.857934 0.470730
O O3 0.143729 0.853897 0.550236
O O4 0.152881 0.823307 0.394085
O O5 0.862718 0.512085 0.301849
O O6 0.000000 0.455351 0.418839
O O7 0.000000 0.573413 0.420180
O O8 0.833481 0.094837 0.311744
O O9 0.725717 0.208499 0.334460
O O10 0.000000 0.189609 0.329873
O O11 0.250000 0.690181 0.750000
O O12 0.000000 0.734709 0.789029
#
# Coordination Sequence:
#
# PCOD8264553 Si02
#       6
#    16   8   8  16   8  16
#     4  10  24  38  69  97 140 176 230 276 364 425
#     4  11  26  46  75  98 137 187 240 305 350 407
#     4  11  24  48  69 101 143 190 232 286 364 435
#     4  11  22  36  64  98 137 171 227 304 343 408
#     4  12  22  40  68 104 128 174 246 300 336 406
#     4  11  24  37  57  94 143 185 226 281 363 434
#
# _framework density 20.961359000000002
#
# number of rings (size 3 to 8) (size 9 to 14) (size 15 to 20)
#    0.000    1.111    4.444    1.333   15.556    0.000 
#    2.000    0.000    2.444    2.667    0.000    0.000 
#    0.000    0.000    0.000    0.000    0.000    0.000 
#
# Total GULP energy -446030.678079 kJ/mol
# GULP energy per Si atom -12389.741058 kJ/mol
# Density = 2.091365 g / cm^3
# Si number density = 20.961359 Si / 1000 Ang^3
#
#
#
# Elastic Constant Matrix: (Units=GPa)
#
#
# Indices 1 2 3 4 5 6 
#
# 1 178.4444 33.1855 52.9236 0.0000 0.0000 0.0000
# 2 33.1855 63.0846 30.7748 0.0000 0.0000 0.0000
# 3 52.9236 30.7748 160.5835 0.0000 0.0000 0.0000
# 4 0.0000 0.0000 0.0000 31.4895 0.0000 0.0000
# 5 0.0000 0.0000 0.0000 0.0000 26.6381 0.0000
# 6 0.0000 0.0000 0.0000 0.0000 0.0000 26.1383
#
#
#
# Elastic Compliance Matrix: (Units=1/GPa)
#
#
# Indices 1 2 3 4 5 6 
#
# 1 0.006591 -0.002656 -0.001663 0.000000 0.000000 0.000000
# 2 -0.002656 0.018557 -0.002681 0.000000 0.000000 0.000000
# 3 -0.001663 -0.002681 0.007289 0.000000 0.000000 0.000000
# 4 0.000000 0.000000 0.000000 0.031757 0.000000 0.000000
# 5 0.000000 0.000000 0.000000 0.000000 0.037540 0.000000
# 6 0.000000 0.000000 0.000000 0.000000 0.000000 0.038258
#
#
# Mechanical properties :
#
#
# Convention : Reuss Voigt Hill
#
# Bulk Modulus (GPa) = 54.23907 70.65336 62.44621
# Shear Modulus (GPa) = 31.22305 35.86840 33.54573
#
# Velocity S-wave (km/s) = 3.86366 4.14111 4.00479
# Velocity P-wave (km/s) = 6.77021 7.52627 7.15823
#
# Compressibility (1/GPa) = 0.01843690
#
# Stress axis : x y z
#
# Youngs Moduli (GPa) = 151.71731 53.88881 137.18829
#
# Poissons Ratio (x) = 0.14312 0.22818
# Poissons Ratio (y) = 0.40294 0.36780
# Poissons Ratio (z) = 0.25235 0.14447
#
# Static dielectric constant tensor:
#      x y z
#    x 3.735590 0.000000 0.000000 
#    y 0.000000 3.489170 0.000000 
#    z 0.000000 0.000000 5.259590 
# 
# 
# High freq. dielectric constant tensor:
#      x y z
#    x 1.830270 0.000000 0.000000 
#    y 0.000000 1.767150 0.000000 
#    z 0.000000 0.000000 1.854710 
# 
# From -- ./inp_files/29570.got.cif
#   From: 2010.03.12/outbox.cif.g09.slc.cpg/sg64_15_cif.got.tgz:29570.got - 2010.04.10 20:19:32.
