data_PCOD8264528
_publ_section_title
;
Structure prediction by ZEFSAII (Michael W. Deem and Ramdas Pophale) SiO2 
 PCOD8264528
Probable space group: C M C A
;
_chemical_formula_sum "Si O2"
_cell_formula_units_Z 96
_cell_length_a 19.051095
_cell_length_b 13.049060
_cell_length_c 15.460360
_cell_angle_alpha 90.000000
_cell_angle_beta 90.000000
_cell_angle_gamma 90.000000
_cell_volume 3843.428207
_symmetry_space_group_name_H-M "C M C A"
_symmetry_group_IT_number 64
_symmetry_cell_setting 'orthorhombic'
loop_
_space_group_symop_operation_xyz
x,y,z
-x,1/2-y,1/2+z
x,-y,-z
-x,1/2+y,1/2-z
-x,-y,-z
x,1/2+y,1/2-z
-x,y,z
x,1/2-y,1/2+z
1/2+x,1/2+y,z
1/2-x,-y,1/2+z
1/2+x,1/2-y,-z
1/2-x,y,1/2-z
1/2-x,1/2-y,-z
1/2+x,y,1/2-z
1/2-x,1/2+y,z
1/2+x,-y,1/2+z
loop_
_atom_site_type_symbol
_atom_site_label
_atom_site_fract_x
_atom_site_fract_y
_atom_site_fract_z
Si Si1 0.420667 0.154325 0.872565
Si Si2 0.920506 0.433297 0.703860
Si Si3 0.077552 0.676039 0.686200
Si Si4 0.805767 0.916629 0.926506
Si Si5 0.847523 0.764089 0.523768
Si Si6 0.166200 0.548316 0.135246
O O1 0.500000 0.109876 0.869397
O O2 0.405463 0.220666 0.783634
O O3 0.365061 0.062331 0.884083
O O4 0.411947 0.227022 0.955595
O O5 0.919837 0.555792 0.706330
O O6 0.881099 0.398834 0.617786
O O7 0.878626 0.394678 0.790133
O O8 0.000000 0.389584 0.704424
O O9 0.132065 0.705259 0.612153
O O10 0.000000 0.710245 0.655653
O O11 0.751101 0.954889 0.851044
O O12 0.788746 0.806137 0.973548
O O13 0.814521 0.000000 0.000000
O O14 0.829554 0.881088 0.548493
#
# Coordination Sequence:
#
# PCOD8264528 Si02
#       6
#    16  16  16  16  16  16
#     4  10  23  44  70 104 144 189 246 300 354 424
#     4  10  23  46  71  99 138 186 240 292 349 420
#     4   9  20  40  64  98 137 179 232 287 345 413
#     4  12  25  45  70 104 146 187 235 292 360 435
#     4  12  24  40  68 106 143 186 234 294 358 429
#     4  11  25  45  71 100 141 191 238 294 357 426
#
# _framework density 24.977701
#
# number of rings (size 3 to 8) (size 9 to 14) (size 15 to 20)
#    0.000    1.333    1.667    4.500    2.333    5.000 
#    0.000    0.000    0.000    0.000    0.000    0.000 
#    0.000    0.000    0.000    0.000    0.000    0.000 
#
# Total GULP energy -594702.308051 kJ/mol
# GULP energy per Si atom -12389.631418 kJ/mol
# Density = 2.492085 g / cm^3
# Si number density = 24.977701 Si / 1000 Ang^3
#
#
#
# Elastic Constant Matrix: (Units=GPa)
#
#
# Indices 1 2 3 4 5 6 
#
# 1 115.0226 22.7289 58.0715 0.0000 0.0000 0.0000
# 2 22.7289 37.6509 40.5178 0.0000 0.0000 0.0000
# 3 58.0715 40.5178 130.3084 0.0000 0.0000 0.0000
# 4 0.0000 0.0000 0.0000 45.2994 0.0000 0.0000
# 5 0.0000 0.0000 0.0000 0.0000 39.6881 0.0000
# 6 0.0000 0.0000 0.0000 0.0000 0.0000 29.9731
#
#
#
# Elastic Compliance Matrix: (Units=1/GPa)
#
#
# Indices 1 2 3 4 5 6 
#
# 1 0.011329 -0.002113 -0.004392 0.000000 0.000000 0.000000
# 2 -0.002113 0.040310 -0.011592 0.000000 0.000000 0.000000
# 3 -0.004392 -0.011592 0.013236 0.000000 0.000000 0.000000
# 4 0.000000 0.000000 0.000000 0.022075 0.000000 0.000000
# 5 0.000000 0.000000 0.000000 0.000000 0.025196 0.000000
# 6 0.000000 0.000000 0.000000 0.000000 0.000000 0.033363
#
#
# Mechanical properties :
#
#
# Convention : Reuss Voigt Hill
#
# Bulk Modulus (GPa) = 34.86629 58.40204 46.63417
# Shear Modulus (GPa) = 26.14188 33.76969 29.95578
#
# Velocity S-wave (km/s) = 3.23864 3.68094 3.46685
# Velocity P-wave (km/s) = 5.28908 6.44191 5.89375
#
# Compressibility (1/GPa) = 0.02868100
#
# Stress axis : x y z
#
# Youngs Moduli (GPa) = 88.27188 24.80751 75.55295
#
# Poissons Ratio (x) = 0.05241 0.33180
# Poissons Ratio (y) = 0.18650 0.87584
# Poissons Ratio (z) = 0.38766 0.28758
#
# Static dielectric constant tensor:
#      x y z
#    x 4.572030 0.000000 0.000000 
#    y 0.000000 4.480350 0.000000 
#    z 0.000000 0.000000 4.631270 
# 
# 
# High freq. dielectric constant tensor:
#      x y z
#    x 1.987130 0.000000 0.000000 
#    y 0.000000 2.012330 0.000000 
#    z 0.000000 0.000000 2.004860 
# 
# From -- ./inp_files/26295.got.cif
#   From: 2010.03.12/outbox.cif.g09.slc.cpg/sg64_14_cif.got.tgz:26295.got - 2010.04.10 20:19:32.
