data_PCOD8264811
_publ_section_title
;
Structure prediction by ZEFSAII (Michael W. Deem and Ramdas Pophale) SiO2 
 PCOD8264811
Probable space group: C M C A
;
_chemical_formula_sum "Si O2"
_cell_formula_units_Z 104
_cell_length_a 25.983853
_cell_length_b 8.919970
_cell_length_c 21.144156
_cell_angle_alpha 90.000000
_cell_angle_beta 90.000000
_cell_angle_gamma 90.000000
_cell_volume 4900.690758
_symmetry_space_group_name_H-M "C M C A"
_symmetry_group_IT_number 64
_symmetry_cell_setting 'orthorhombic'
loop_
_space_group_symop_operation_xyz
x,y,z
-x,1/2-y,1/2+z
x,-y,-z
-x,1/2+y,1/2-z
-x,-y,-z
x,1/2+y,1/2-z
-x,y,z
x,1/2-y,1/2+z
1/2+x,1/2+y,z
1/2-x,-y,1/2+z
1/2+x,1/2-y,-z
1/2-x,y,1/2-z
1/2-x,1/2-y,-z
1/2+x,y,1/2-z
1/2-x,1/2+y,z
1/2+x,-y,1/2+z
loop_
_atom_site_type_symbol
_atom_site_label
_atom_site_fract_x
_atom_site_fract_y
_atom_site_fract_z
Si Si1 0.500000 0.945290 0.816405
Si Si2 0.079558 0.276750 0.360743
Si Si3 0.298209 0.337870 0.471011
Si Si4 0.500000 0.495012 0.824575
Si Si5 0.589728 0.178460 0.000148
Si Si6 0.000000 0.715825 0.905777
Si Si7 0.314766 0.231528 0.204424
Si Si8 0.209976 0.883932 0.323539
O O1 0.448731 0.845803 0.817694
O O2 0.500000 0.028291 0.749893
O O3 0.500000 0.050745 0.877266
O O4 0.070801 0.237304 0.433199
O O5 0.138501 0.278840 0.340078
O O6 0.052521 0.436111 0.351980
O O7 0.293539 0.500000 0.500000
O O8 0.250000 0.250000 0.500000
O O9 0.352157 0.260546 0.490071
O O10 0.302063 0.349110 0.395728
O O11 0.500000 0.323008 0.844986
O O12 0.551092 0.241971 0.947334
O O13 0.588936 0.000000 0.000000
O O14 0.269583 0.345425 0.185494
O O15 0.324741 0.273345 0.278667
O O16 0.300245 0.057969 0.193993
#
# Coordination Sequence:
#
# PCOD8264811 Si02
#       8
#     8  16  16   8  16   8  16  16
#     4  11  24  45  69  97 126 178 226 275 334 410
#     4  11  24  45  68  96 137 172 220 281 342 396
#     4  11  24  43  67  99 137 176 230 281 334 407
#     4  11  28  44  63 102 141 162 222 293 341 400
#     4  11  22  42  72  96 128 182 225 276 331 414
#     4  12  23  44  72  99 129 178 235 275 344 417
#     4  11  24  43  71  98 139 180 223 279 340 406
#     4  11  23  43  66 101 137 179 228 276 334 405
#
# _framework density 21.221498
#
# number of rings (size 3 to 8) (size 9 to 14) (size 15 to 20)
#    0.000    0.923    1.538    7.615    2.154    2.462 
#    8.308    0.000    0.000    0.000    0.000    0.000 
#    0.000    0.000    0.000    0.000    0.000    0.000 
#
# Total GULP energy -644694.267188 kJ/mol
# GULP energy per Si atom -12397.966677 kJ/mol
# Density = 2.117320 g / cm^3
# Si number density = 21.221498 Si / 1000 Ang^3
#
#
#
# Elastic Constant Matrix: (Units=GPa)
#
#
# Indices 1 2 3 4 5 6 
#
# 1 123.4296 38.2828 21.3780 0.0000 0.0000 0.0000
# 2 38.2828 79.6781 26.3000 0.0000 0.0000 0.0000
# 3 21.3780 26.3000 138.4545 0.0000 0.0000 0.0000
# 4 0.0000 0.0000 0.0000 34.9161 0.0000 0.0000
# 5 0.0000 0.0000 0.0000 0.0000 38.5220 0.0000
# 6 0.0000 0.0000 0.0000 0.0000 0.0000 20.3078
#
#
#
# Elastic Compliance Matrix: (Units=1/GPa)
#
#
# Indices 1 2 3 4 5 6 
#
# 1 0.009574 -0.004387 -0.000645 0.000000 0.000000 0.000000
# 2 -0.004387 0.015400 -0.002248 0.000000 0.000000 0.000000
# 3 -0.000645 -0.002248 0.007749 0.000000 0.000000 0.000000
# 4 0.000000 0.000000 0.000000 0.028640 0.000000 0.000000
# 5 0.000000 0.000000 0.000000 0.000000 0.025959 0.000000
# 6 0.000000 0.000000 0.000000 0.000000 0.000000 0.049242
#
#
# Mechanical properties :
#
#
# Convention : Reuss Voigt Hill
#
# Bulk Modulus (GPa) = 55.05523 57.05375 56.05449
# Shear Modulus (GPa) = 31.81067 35.78929 33.79998
#
# Velocity S-wave (km/s) = 3.87587 4.11111 3.99522
# Velocity P-wave (km/s) = 6.78449 7.03408 6.91041
#
# Compressibility (1/GPa) = 0.01816358
#
# Stress axis : x y z
#
# Youngs Moduli (GPa) = 104.44706 64.93323 129.04590
#
# Poissons Ratio (x) = 0.28488 0.08323
# Poissons Ratio (y) = 0.45823 0.29009
# Poissons Ratio (z) = 0.06736 0.14597
#
# Static dielectric constant tensor:
#      x y z
#    x 4.233490 0.000000 0.000000 
#    y 0.000000 3.624830 0.000000 
#    z 0.000000 0.000000 4.099410 
# 
# 
# High freq. dielectric constant tensor:
#      x y z
#    x 1.840060 0.000000 0.000000 
#    y 0.000000 1.824150 0.000000 
#    z 0.000000 0.000000 1.853070 
# 
# From -- ./inp_files/41914.got.cif
#   From: 2010.03.12/outbox.cif.g09.slc.cpg/sg64_21_cif.got.tgz:41914.got - 2010.04.10 20:19:32.
