data_PCOD8264524
_publ_section_title
;
Structure prediction by ZEFSAII (Michael W. Deem and Ramdas Pophale) SiO2 
 PCOD8264524
Probable space group: C M C A
;
_chemical_formula_sum "Si O2"
_cell_formula_units_Z 48
_cell_length_a 8.323509
_cell_length_b 28.271470
_cell_length_c 8.305527
_cell_angle_alpha 90.000000
_cell_angle_beta 90.000000
_cell_angle_gamma 90.000000
_cell_volume 1954.438632
_symmetry_space_group_name_H-M "C M C A"
_symmetry_group_IT_number 64
_symmetry_cell_setting 'orthorhombic'
loop_
_space_group_symop_operation_xyz
x,y,z
-x,1/2-y,1/2+z
x,-y,-z
-x,1/2+y,1/2-z
-x,-y,-z
x,1/2+y,1/2-z
-x,y,z
x,1/2-y,1/2+z
1/2+x,1/2+y,z
1/2-x,-y,1/2+z
1/2+x,1/2-y,-z
1/2-x,y,1/2-z
1/2-x,1/2-y,-z
1/2+x,y,1/2-z
1/2-x,1/2+y,z
1/2+x,-y,1/2+z
loop_
_atom_site_type_symbol
_atom_site_label
_atom_site_fract_x
_atom_site_fract_y
_atom_site_fract_z
Si Si1 0.000000 0.204391 0.286308
Si Si2 0.500000 0.690670 0.905352
Si Si3 0.318564 0.454250 0.420996
Si Si4 0.676312 0.648927 0.532479
O O1 0.158326 0.181323 0.372110
O O2 0.000000 0.260297 0.312180
O O3 0.000000 0.195288 0.098244
O O4 0.667777 0.663884 0.862635
O O5 0.228868 0.500000 0.500000
O O6 0.500000 0.469899 0.394337
O O7 0.250000 0.440842 0.250000
O O8 0.302154 0.405875 0.524270
O O9 0.500000 0.653896 0.628490
#
# Coordination Sequence:
#
# PCOD8264524 Si02
#       4
#     8   8  16  16
#     4  10  24  40  63  94 129 166 221 268 322 388
#     4  12  22  42  65  92 127 174 211 268 332 380
#     4  10  23  44  67  99 132 167 216 270 325 392
#     4   9  23  41  61  93 128 167 213 261 313 389
#
# _framework density 24.559481999999999
#
# number of rings (size 3 to 8) (size 9 to 14) (size 15 to 20)
#    1.000    1.000    0.000    2.000    2.333    6.000 
#    0.000    0.000    0.000    0.000    0.000    0.000 
#    0.000    0.000    0.000    0.000    0.000    0.000 
#
# Total GULP energy -297329.441039 kJ/mol
# GULP energy per Si atom -12388.726710 kJ/mol
# Density = 2.450358 g / cm^3
# Si number density = 24.559482 Si / 1000 Ang^3
#
#
#
# Elastic Constant Matrix: (Units=GPa)
#
#
# Indices 1 2 3 4 5 6 
#
# 1 140.8090 71.4477 50.8038 0.0000 0.0000 0.0000
# 2 71.4477 206.8644 9.5160 0.0000 0.0000 0.0000
# 3 50.8038 9.5160 39.3607 0.0000 0.0000 0.0000
# 4 0.0000 0.0000 0.0000 -2.2669 0.0000 0.0000
# 5 0.0000 0.0000 0.0000 0.0000 35.8046 0.0000
# 6 0.0000 0.0000 0.0000 0.0000 0.0000 30.6018
#
#
#
# Elastic Compliance Matrix: (Units=1/GPa)
#
#
# Indices 1 2 3 4 5 6 
#
# 1 0.017205 -0.004976 -0.021004 0.000000 0.000000 0.000000
# 2 -0.004976 0.006328 0.004893 0.000000 0.000000 0.000000
# 3 -0.021004 0.004893 0.051333 0.000000 0.000000 0.000000
# 4 0.000000 0.000000 0.000000 -0.441125 0.000000 0.000000
# 5 0.000000 0.000000 0.000000 0.000000 0.027929 0.000000
# 6 0.000000 0.000000 0.000000 0.000000 0.000000 0.032678
#
#
# Mechanical properties :
#
#
# Convention : Reuss Voigt Hill
#
# Bulk Modulus (GPa) = 30.58859 72.28546 51.43702
# Shear Modulus (GPa) = -19.79556 29.84568 5.02506
#
# Velocity S-wave (km/s) = -2.84214 3.48981 1.43196
# Velocity P-wave (km/s) = 1.30828 6.76277 4.87066
#
# Compressibility (1/GPa) = 0.03269193
#
# Stress axis : x y z
#
# Youngs Moduli (GPa) = 58.12328 158.03620 19.48066
#
# Poissons Ratio (x) = 0.78640 0.40916
# Poissons Ratio (y) = 0.28923 -0.09532
# Poissons Ratio (z) = 1.22080 -0.77326
#
# Static dielectric constant tensor:
#      x y z
#    x 4.687080 0.000000 0.000000 
#    y 0.000000 4.491580 0.000000 
#    z 0.000000 0.000000 4.500060 
# 
# 
# High freq. dielectric constant tensor:
#      x y z
#    x 1.986360 0.000000 0.000000 
#    y 0.000000 1.985180 0.000000 
#    z 0.000000 0.000000 1.967410 
# 
# From -- ./inp_files/3954.got.cif
#   From: 2010.03.12/outbox.cif.g09.slc.cpg/sg64_2_cif.got.tgz:3954.got - 2010.04.10 20:19:32.
