data_PCOD8264097
_publ_section_title
;
Structure prediction by ZEFSAII (Michael W. Deem and Ramdas Pophale) SiO2 
 PCOD8264097
Probable space group: C M C A
;
_chemical_formula_sum "Si O2"
_cell_formula_units_Z 88
_cell_length_a 19.702982
_cell_length_b 16.506761
_cell_length_c 12.294954
_cell_angle_alpha 90.000000
_cell_angle_beta 90.000000
_cell_angle_gamma 90.000000
_cell_volume 3998.717580
_symmetry_space_group_name_H-M "C M C A"
_symmetry_group_IT_number 64
_symmetry_cell_setting 'orthorhombic'
loop_
_space_group_symop_operation_xyz
x,y,z
-x,1/2-y,1/2+z
x,-y,-z
-x,1/2+y,1/2-z
-x,-y,-z
x,1/2+y,1/2-z
-x,y,z
x,1/2-y,1/2+z
1/2+x,1/2+y,z
1/2-x,-y,1/2+z
1/2+x,1/2-y,-z
1/2-x,y,1/2-z
1/2-x,1/2-y,-z
1/2+x,y,1/2-z
1/2-x,1/2+y,z
1/2+x,-y,1/2+z
loop_
_atom_site_type_symbol
_atom_site_label
_atom_site_fract_x
_atom_site_fract_y
_atom_site_fract_z
Si Si1 0.827687 0.225578 0.237243
Si Si2 0.323894 0.583107 0.711357
Si Si3 0.077736 0.442904 0.400831
Si Si4 0.425044 0.697934 0.054451
Si Si5 0.073932 0.158988 0.412146
Si Si6 0.127130 0.000000 0.500000
O O1 0.750000 0.197374 0.250000
O O2 0.833408 0.320584 0.214700
O O3 0.865471 0.178024 0.139587
O O4 0.864930 0.197064 0.345079
O O5 0.250000 0.557312 0.750000
O O6 0.378202 0.541880 0.792758
O O7 0.328920 0.549028 0.588832
O O8 0.101533 0.500000 0.500000
O O9 0.088053 0.351071 0.442640
O O10 0.000000 0.461133 0.368866
O O11 0.500000 0.673389 0.101259
O O12 0.424831 0.793241 0.026808
O O13 0.081427 0.064038 0.435208
O O14 0.000000 0.172142 0.355771
#
# Coordination Sequence:
#
# PCOD8264097 Si02
#       6
#    16  16  16  16  16   8
#     4  11  24  43  68  98 133 180 229 284 347 417
#     4  11  26  45  68  99 139 185 228 286 352 419
#     4  10  23  43  68  97 133 181 238 293 343 408
#     4  10  21  41  67  95 128 177 234 284 338 412
#     4  11  24  43  67  96 134 181 228 287 349 409
#     4  12  27  46  66 106 143 182 230 294 353 404
#
# _framework density 22.007055000000001
#
# number of rings (size 3 to 8) (size 9 to 14) (size 15 to 20)
#    0.000    1.273    3.636    0.818    3.818    5.091 
#    0.000    0.000    0.000    0.000    0.000    0.000 
#    0.000    0.000    0.000    0.000    0.000    0.000 
#
# Total GULP energy -545485.750469 kJ/mol
# GULP energy per Si atom -12397.403420 kJ/mol
# Density = 2.195697 g / cm^3
# Si number density = 22.007055 Si / 1000 Ang^3
#
#
#
# Elastic Constant Matrix: (Units=GPa)
#
#
# Indices 1 2 3 4 5 6 
#
# 1 182.5748 34.4915 81.8432 0.0000 0.0000 0.0000
# 2 34.4915 91.6154 24.3935 0.0000 0.0000 0.0000
# 3 81.8432 24.3935 119.4951 0.0000 0.0000 0.0000
# 4 0.0000 0.0000 0.0000 36.3994 0.0000 0.0000
# 5 0.0000 0.0000 0.0000 0.0000 40.9891 0.0000
# 6 0.0000 0.0000 0.0000 0.0000 0.0000 19.6010
#
#
#
# Elastic Compliance Matrix: (Units=1/GPa)
#
#
# Indices 1 2 3 4 5 6 
#
# 1 0.008139 -0.001671 -0.005233 0.000000 0.000000 0.000000
# 2 -0.001671 0.011886 -0.001282 0.000000 0.000000 0.000000
# 3 -0.005233 -0.001282 0.012215 0.000000 0.000000 0.000000
# 4 0.000000 0.000000 0.000000 0.027473 0.000000 0.000000
# 5 0.000000 0.000000 0.000000 0.000000 0.024397 0.000000
# 6 0.000000 0.000000 0.000000 0.000000 0.000000 0.051018
#
#
# Mechanical properties :
#
#
# Convention : Reuss Voigt Hill
#
# Bulk Modulus (GPa) = 63.02423 75.01575 69.01999
# Shear Modulus (GPa) = 31.89033 36.26170 34.07602
#
# Velocity S-wave (km/s) = 3.81083 4.06363 3.93926
# Velocity P-wave (km/s) = 6.93279 7.49524 7.21949
#
# Compressibility (1/GPa) = 0.01586691
#
# Stress axis : x y z
#
# Youngs Moduli (GPa) = 122.86901 84.13592 81.86960
#
# Poissons Ratio (x) = 0.14056 0.42844
# Poissons Ratio (y) = 0.20528 0.10496
# Poissons Ratio (z) = 0.64300 0.10786
#
# Static dielectric constant tensor:
#      x y z
#    x 3.952680 0.000000 0.000000 
#    y 0.000000 3.967300 0.000000 
#    z 0.000000 0.000000 3.746760 
# 
# 
# High freq. dielectric constant tensor:
#      x y z
#    x 1.865590 0.000000 0.000000 
#    y 0.000000 1.869730 0.000000 
#    z 0.000000 0.000000 1.857060 
# 
# From -- ./inp_files/17136.got.cif
#   From: 2010.03.12/outbox.cif.g09.slc.cpg/sg64_9_cif.got.tgz:17136.got - 2010.04.10 20:19:32.
