data_PCOD8264141
_publ_section_title
;
Structure prediction by ZEFSAII (Michael W. Deem and Ramdas Pophale) SiO2 
 PCOD8264141
Probable space group: C M C A
;
_chemical_formula_sum "Si O2"
_cell_formula_units_Z 88
_cell_length_a 25.225817
_cell_length_b 9.368478
_cell_length_c 17.401755
_cell_angle_alpha 90.000000
_cell_angle_beta 90.000000
_cell_angle_gamma 90.000000
_cell_volume 4112.513457
_symmetry_space_group_name_H-M "C M C A"
_symmetry_group_IT_number 64
_symmetry_cell_setting 'orthorhombic'
loop_
_space_group_symop_operation_xyz
x,y,z
-x,1/2-y,1/2+z
x,-y,-z
-x,1/2+y,1/2-z
-x,-y,-z
x,1/2+y,1/2-z
-x,y,z
x,1/2-y,1/2+z
1/2+x,1/2+y,z
1/2-x,-y,1/2+z
1/2+x,1/2-y,-z
1/2-x,y,1/2-z
1/2-x,1/2-y,-z
1/2+x,y,1/2-z
1/2-x,1/2+y,z
1/2+x,-y,1/2+z
loop_
_atom_site_type_symbol
_atom_site_label
_atom_site_fract_x
_atom_site_fract_y
_atom_site_fract_z
Si Si1 0.679634 0.896939 0.206442
Si Si2 0.886002 0.159389 0.856279
Si Si3 0.500000 0.917325 0.307746
Si Si4 0.113525 0.463595 0.913895
Si Si5 0.750000 0.353043 0.750000
Si Si6 0.911034 0.500000 0.500000
Si Si7 0.000000 0.338203 0.569205
Si Si8 0.500000 0.526114 0.630976
O O1 0.651294 0.896750 0.288815
O O2 0.714082 0.752106 0.196595
O O3 0.636005 0.907761 0.139232
O O4 0.714818 0.040610 0.198020
O O5 0.864294 0.311147 0.885745
O O6 0.946781 0.173142 0.825531
O O7 0.877531 0.044471 0.925223
O O8 0.500000 0.980965 0.222607
O O9 0.500000 0.053263 0.361166
O O10 0.050459 0.450530 0.906099
O O11 0.131158 0.500000 0.000000
O O12 0.947949 0.361693 0.516964
O O13 0.000000 0.187318 0.605929
#
# Coordination Sequence:
#
# PCOD8264141 Si02
#       8
#    16  16   8  16   8   8   8   8
#     4  11  23  45  75  94 132 172 228 278 351 409
#     4  11  22  41  65  99 133 183 224 273 335 410
#     4  10  22  34  61  94 134 173 239 263 308 415
#     4  12  26  41  64 105 143 182 224 279 336 413
#     4  10  24  46  74  98 122 172 226 296 348 400
#     4   9  20  38  60  84 132 172 228 270 314 399
#     4   9  20  35  51  84 126 191 213 262 321 366
#     4  12  23  35  61  93 144 186 211 275 320 401
#
# _framework density 21.398105000000001
#
# number of rings (size 3 to 8) (size 9 to 14) (size 15 to 20)
#    0.000    1.273    3.636    2.455    2.545    4.364 
#    0.000    0.909    8.000    0.000    0.000    0.000 
#    0.000    0.000    0.000    0.000    0.000    0.000 
#
# Total GULP energy -545573.785496 kJ/mol
# GULP energy per Si atom -12399.404216 kJ/mol
# Density = 2.134940 g / cm^3
# Si number density = 21.398105 Si / 1000 Ang^3
#
#
#
# Elastic Constant Matrix: (Units=GPa)
#
#
# Indices 1 2 3 4 5 6 
#
# 1 80.1562 28.2143 35.3340 0.0000 0.0000 0.0000
# 2 28.2143 89.4409 19.4623 0.0000 0.0000 0.0000
# 3 35.3340 19.4623 134.8460 0.0000 0.0000 0.0000
# 4 0.0000 0.0000 0.0000 21.0550 0.0000 0.0000
# 5 0.0000 0.0000 0.0000 0.0000 8.1308 0.0000
# 6 0.0000 0.0000 0.0000 0.0000 0.0000 40.9954
#
#
#
# Elastic Compliance Matrix: (Units=1/GPa)
#
#
# Indices 1 2 3 4 5 6 
#
# 1 0.015449 -0.004122 -0.003453 0.000000 0.000000 0.000000
# 2 -0.004122 0.012643 -0.000745 0.000000 0.000000 0.000000
# 3 -0.003453 -0.000745 0.008428 0.000000 0.000000 0.000000
# 4 0.000000 0.000000 0.000000 0.047495 0.000000 0.000000
# 5 0.000000 0.000000 0.000000 0.000000 0.122989 0.000000
# 6 0.000000 0.000000 0.000000 0.000000 0.000000 0.024393
#
#
# Mechanical properties :
#
#
# Convention : Reuss Voigt Hill
#
# Bulk Modulus (GPa) = 50.30105 52.27382 51.28743
# Shear Modulus (GPa) = 19.63380 28.79841 24.21610
#
# Velocity S-wave (km/s) = 3.03239 3.67255 3.36772
# Velocity P-wave (km/s) = 5.98488 6.51657 6.25638
#
# Compressibility (1/GPa) = 0.01988030
#
# Stress axis : x y z
#
# Youngs Moduli (GPa) = 64.73024 79.09588 118.64959
#
# Poissons Ratio (x) = 0.32603 0.40972
# Poissons Ratio (y) = 0.26681 0.08835
# Poissons Ratio (z) = 0.22352 0.05890
#
# Static dielectric constant tensor:
#      x y z
#    x 4.029240 0.000000 0.000000 
#    y 0.000000 3.477720 0.000000 
#    z 0.000000 0.000000 3.798690 
# 
# 
# High freq. dielectric constant tensor:
#      x y z
#    x 1.823010 0.000000 0.000000 
#    y 0.000000 1.845630 0.000000 
#    z 0.000000 0.000000 1.836970 
# 
# From -- ./inp_files/35752.got.cif
#   From: 2010.03.12/outbox.cif.g09.slc.cpg/sg64_18_cif.got.tgz:35752.got - 2010.04.10 20:19:32.
