data_PCOD8264542
_publ_section_title
;
Structure prediction by ZEFSAII (Michael W. Deem and Ramdas Pophale) SiO2 
 PCOD8264542
Probable space group: C M C A
;
_chemical_formula_sum "Si O2"
_cell_formula_units_Z 112
_cell_length_a 22.972767
_cell_length_b 14.042298
_cell_length_c 15.574466
_cell_angle_alpha 90.000000
_cell_angle_beta 90.000000
_cell_angle_gamma 90.000000
_cell_volume 5024.173841
_symmetry_space_group_name_H-M "C M C A"
_symmetry_group_IT_number 64
_symmetry_cell_setting 'orthorhombic'
loop_
_space_group_symop_operation_xyz
x,y,z
-x,1/2-y,1/2+z
x,-y,-z
-x,1/2+y,1/2-z
-x,-y,-z
x,1/2+y,1/2-z
-x,y,z
x,1/2-y,1/2+z
1/2+x,1/2+y,z
1/2-x,-y,1/2+z
1/2+x,1/2-y,-z
1/2-x,y,1/2-z
1/2-x,1/2-y,-z
1/2+x,y,1/2-z
1/2-x,1/2+y,z
1/2+x,-y,1/2+z
loop_
_atom_site_type_symbol
_atom_site_label
_atom_site_fract_x
_atom_site_fract_y
_atom_site_fract_z
Si Si1 0.065480 0.956908 0.906184
Si Si2 0.757315 0.488175 0.094610
Si Si3 0.111343 0.029540 0.404467
Si Si4 0.257464 0.724041 0.902469
Si Si5 0.067378 0.099625 0.751075
Si Si6 0.827988 0.374155 0.667171
Si Si7 0.875168 0.785603 0.673437
O O1 0.079623 0.036839 0.835222
O O2 0.000000 0.915438 0.892848
O O3 0.114764 0.875755 0.895051
O O4 0.071170 0.000000 0.000000
O O5 0.818725 0.542253 0.094634
O O6 0.765516 0.379781 0.119853
O O7 0.710632 0.531032 0.160529
O O8 0.729101 0.500000 0.000000
O O9 0.094438 0.949184 0.334043
O O10 0.089080 0.000000 0.500000
O O11 0.087415 0.138523 0.385204
O O12 0.213636 0.786096 0.848394
O O13 0.325170 0.732757 0.879592
O O14 0.250000 0.750000 0.000000
O O15 0.089434 0.206737 0.772653
O O16 0.000000 0.109326 0.731532
O O17 0.848559 0.365165 0.763734
#
# Coordination Sequence:
#
# PCOD8264542 Si02
#       7
#    16  16  16  16  16  16  16
#     4  10  23  45  74 105 139 182 238 300 364 431
#     4  11  22  42  67  99 140 186 226 290 360 435
#     4  11  24  48  73 104 149 193 243 304 372 448
#     4  12  24  40  66 103 142 185 236 287 362 443
#     4  11  26  49  75 104 141 190 243 306 370 436
#     4  12  23  41  69 103 138 190 233 282 366 432
#     4  12  26  43  68 106 145 186 243 306 362 437
#
# _framework density 22.292221999999999
#
# number of rings (size 3 to 8) (size 9 to 14) (size 15 to 20)
#    0.000    0.714    4.286    3.429    2.000    1.429 
#    0.000    0.000    0.000    0.000    0.000    0.000 
#    0.000    0.000    0.000    0.000    0.000    0.000 
#
# Total GULP energy -694099.379566 kJ/mol
# GULP energy per Si atom -12394.631778 kJ/mol
# Density = 2.224148 g / cm^3
# Si number density = 22.292222 Si / 1000 Ang^3
#
#
#
# Elastic Constant Matrix: (Units=GPa)
#
#
# Indices 1 2 3 4 5 6 
#
# 1 84.7387 22.4087 24.7461 0.0000 0.0000 0.0000
# 2 22.4087 120.0666 25.8235 0.0000 0.0000 0.0000
# 3 24.7461 25.8235 127.1613 0.0000 0.0000 0.0000
# 4 0.0000 0.0000 0.0000 31.3667 0.0000 0.0000
# 5 0.0000 0.0000 0.0000 0.0000 25.9924 0.0000
# 6 0.0000 0.0000 0.0000 0.0000 0.0000 20.0669
#
#
#
# Elastic Compliance Matrix: (Units=1/GPa)
#
#
# Indices 1 2 3 4 5 6 
#
# 1 0.012938 -0.001959 -0.002120 0.000000 0.000000 0.000000
# 2 -0.001959 0.009006 -0.001448 0.000000 0.000000 0.000000
# 3 -0.002120 -0.001448 0.008571 0.000000 0.000000 0.000000
# 4 0.000000 0.000000 0.000000 0.031881 0.000000 0.000000
# 5 0.000000 0.000000 0.000000 0.000000 0.038473 0.000000
# 6 0.000000 0.000000 0.000000 0.000000 0.000000 0.049833
#
#
# Mechanical properties :
#
#
# Convention : Reuss Voigt Hill
#
# Bulk Modulus (GPa) = 51.38366 53.10259 52.24312
# Shear Modulus (GPa) = 29.71923 32.75109 31.23516
#
# Velocity S-wave (km/s) = 3.65522 3.83714 3.74728
# Velocity P-wave (km/s) = 6.39642 6.59578 6.49687
#
# Compressibility (1/GPa) = 0.01946144
#
# Stress axis : x y z
#
# Youngs Moduli (GPa) = 77.29132 111.04151 116.67829
#
# Poissons Ratio (x) = 0.21750 0.24736
# Poissons Ratio (y) = 0.15139 0.16891
# Poissons Ratio (z) = 0.16386 0.16075
#
# Static dielectric constant tensor:
#      x y z
#    x 4.047730 0.000000 0.000000 
#    y 0.000000 3.943250 0.000000 
#    z 0.000000 0.000000 4.072500 
# 
# 
# High freq. dielectric constant tensor:
#      x y z
#    x 1.869690 0.000000 0.000000 
#    y 0.000000 1.879990 0.000000 
#    z 0.000000 0.000000 1.891480 
# 
# From -- ./inp_files/27438.got.cif
#   From: 2010.03.12/outbox.cif.g09.slc.cpg/sg64_14_cif.got.tgz:27438.got - 2010.04.10 20:19:32.
