data_PCOD8264900
_publ_section_title
;
Structure prediction by ZEFSAII (Michael W. Deem and Ramdas Pophale) SiO2 
 PCOD8264900
Probable space group: C M C A
;
_chemical_formula_sum "Si O2"
_cell_formula_units_Z 64
_cell_length_a 14.812400
_cell_length_b 21.864557
_cell_length_c 8.702559
_cell_angle_alpha 90.000000
_cell_angle_beta 90.000000
_cell_angle_gamma 90.000000
_cell_volume 2818.467882
_symmetry_space_group_name_H-M "C M C A"
_symmetry_group_IT_number 64
_symmetry_cell_setting 'orthorhombic'
loop_
_space_group_symop_operation_xyz
x,y,z
-x,1/2-y,1/2+z
x,-y,-z
-x,1/2+y,1/2-z
-x,-y,-z
x,1/2+y,1/2-z
-x,y,z
x,1/2-y,1/2+z
1/2+x,1/2+y,z
1/2-x,-y,1/2+z
1/2+x,1/2-y,-z
1/2-x,y,1/2-z
1/2-x,1/2-y,-z
1/2+x,y,1/2-z
1/2-x,1/2+y,z
1/2+x,-y,1/2+z
loop_
_atom_site_type_symbol
_atom_site_label
_atom_site_fract_x
_atom_site_fract_y
_atom_site_fract_z
Si Si1 0.316738 0.722658 0.118381
Si Si2 0.727942 0.060781 0.069994
Si Si3 0.601075 0.650166 0.608729
Si Si4 0.399556 0.890486 0.449403
O O1 0.250000 0.696429 0.250000
O O2 0.379569 0.780143 0.161938
O O3 0.250000 0.750000 0.000000
O O4 0.378729 0.670527 0.046598
O O5 0.750000 0.059835 0.250000
O O6 0.669598 0.120672 0.017676
O O7 0.825853 0.059473 0.990854
O O8 0.679025 0.000000 0.000000
O O9 0.500000 0.646525 0.538310
O O10 0.607601 0.614132 0.766798
O O11 0.500000 0.911866 0.496529
#
# Coordination Sequence:
#
# PCOD8264900 Si02
#       4
#    16  16  16  16
#     4  12  21  39  66  96 135 178 217 260 321 382
#     4  12  26  46  70  94 126 171 220 275 333 393
#     4  11  24  43  67  97 135 175 218 269 328 392
#     4  11  24  42  66  99 135 174 219 271 326 387
#
# _framework density 22.707371999999999
#
# number of rings (size 3 to 8) (size 9 to 14) (size 15 to 20)
#    0.000    0.500    5.000    3.750    0.000    2.000 
#    0.000    0.000    0.000    0.000    0.000    0.000 
#    0.000    0.000    0.000    0.000    0.000    0.000 
#
# Total GULP energy -396473.400350 kJ/mol
# GULP energy per Si atom -12389.793761 kJ/mol
# Density = 2.265569 g / cm^3
# Si number density = 22.707372 Si / 1000 Ang^3
#
#
#
# Elastic Constant Matrix: (Units=GPa)
#
#
# Indices 1 2 3 4 5 6 
#
# 1 135.9916 5.3400 40.7111 0.0000 0.0000 0.0000
# 2 5.3400 82.4756 7.1956 0.0000 0.0000 0.0000
# 3 40.7111 7.1956 110.6544 0.0000 0.0000 0.0000
# 4 0.0000 0.0000 0.0000 33.2173 0.0000 0.0000
# 5 0.0000 0.0000 0.0000 0.0000 22.7239 0.0000
# 6 0.0000 0.0000 0.0000 0.0000 0.0000 20.9055
#
#
#
# Elastic Compliance Matrix: (Units=1/GPa)
#
#
# Indices 1 2 3 4 5 6 
#
# 1 0.008270 -0.000272 -0.003025 0.000000 0.000000 0.000000
# 2 -0.000272 0.012203 -0.000694 0.000000 0.000000 0.000000
# 3 -0.003025 -0.000694 0.010195 0.000000 0.000000 0.000000
# 4 0.000000 0.000000 0.000000 0.030105 0.000000 0.000000
# 5 0.000000 0.000000 0.000000 0.000000 0.044007 0.000000
# 6 0.000000 0.000000 0.000000 0.000000 0.000000 0.047834
#
#
# Mechanical properties :
#
#
# Convention : Reuss Voigt Hill
#
# Bulk Modulus (GPa) = 44.07685 48.40167 46.23926
# Shear Modulus (GPa) = 29.73432 33.76098 31.74765
#
# Velocity S-wave (km/s) = 3.62257 3.86007 3.74320
# Velocity P-wave (km/s) = 6.07867 6.42094 6.25215
#
# Compressibility (1/GPa) = 0.02268765
#
# Stress axis : x y z
#
# Youngs Moduli (GPa) = 120.92503 81.94774 98.08610
#
# Poissons Ratio (x) = 0.02225 0.29669
# Poissons Ratio (y) = 0.03283 0.06804
# Poissons Ratio (z) = 0.36578 0.05684
#
# Static dielectric constant tensor:
#      x y z
#    x 4.286920 0.000000 0.000000 
#    y 0.000000 5.481140 0.000000 
#    z 0.000000 0.000000 3.977720 
# 
# 
# High freq. dielectric constant tensor:
#      x y z
#    x 1.897340 0.000000 0.000000 
#    y 0.000000 1.896800 0.000000 
#    z 0.000000 0.000000 1.902340 
# 
# From -- ./inp_files/5550.got.cif
#   From: 2010.03.12/outbox.cif.g09.slc.cpg/sg64_3_cif.got.tgz:5550.got - 2010.04.10 20:19:32.
