data_PCOD8264595
_publ_section_title
;
Structure prediction by ZEFSAII (Michael W. Deem and Ramdas Pophale) SiO2 
 PCOD8264595
Probable space group: C M C A
;
_chemical_formula_sum "Si O2"
_cell_formula_units_Z 48
_cell_length_a 12.456652
_cell_length_b 8.480798
_cell_length_c 20.690076
_cell_angle_alpha 90.000000
_cell_angle_beta 90.000000
_cell_angle_gamma 90.000000
_cell_volume 2185.748237
_symmetry_space_group_name_H-M "C M C A"
_symmetry_group_IT_number 64
_symmetry_cell_setting 'orthorhombic'
loop_
_space_group_symop_operation_xyz
x,y,z
-x,1/2-y,1/2+z
x,-y,-z
-x,1/2+y,1/2-z
-x,-y,-z
x,1/2+y,1/2-z
-x,y,z
x,1/2-y,1/2+z
1/2+x,1/2+y,z
1/2-x,-y,1/2+z
1/2+x,1/2-y,-z
1/2-x,y,1/2-z
1/2-x,1/2-y,-z
1/2+x,y,1/2-z
1/2-x,1/2+y,z
1/2+x,-y,1/2+z
loop_
_atom_site_type_symbol
_atom_site_label
_atom_site_fract_x
_atom_site_fract_y
_atom_site_fract_z
Si Si1 0.118388 0.165992 0.606643
Si Si2 0.500000 0.011684 0.789448
Si Si3 0.000000 0.661570 0.657284
Si Si4 0.671116 0.989356 0.427110
O O1 0.204587 0.061018 0.568606
O O2 0.157620 0.345423 0.609254
O O3 0.000000 0.153868 0.572459
O O4 0.105675 0.097671 0.679821
O O5 0.500000 0.829051 0.808402
O O6 0.500000 0.026546 0.712438
O O7 0.895199 0.641811 0.612451
O O8 0.626514 0.000000 0.500000
#
# Coordination Sequence:
#
# PCOD8264595 Si02
#       4
#    16   8   8  16
#     4  10  24  45  66 102 136 178 233 277 339 400
#     4  10  24  45  68 106 130 183 233 286 343 402
#     4  12  23  43  73  98 141 177 232 282 345 410
#     4  12  24  44  70 103 142 185 224 282 343 407
#
# _framework density 21.960443999999999
#
# number of rings (size 3 to 8) (size 9 to 14) (size 15 to 20)
#    1.000    0.000    1.667    5.500    0.000    2.000 
#    0.000    6.667    0.000    0.000    0.000    0.000 
#    0.000    0.000    0.000    0.000    0.000    0.000 
#
# Total GULP energy -297495.440205 kJ/mol
# GULP energy per Si atom -12395.643342 kJ/mol
# Density = 2.191046 g / cm^3
# Si number density = 21.960444 Si / 1000 Ang^3
#
#
#
# Elastic Constant Matrix: (Units=GPa)
#
#
# Indices 1 2 3 4 5 6 
#
# 1 141.2657 62.3628 21.4318 0.0000 0.0000 0.0000
# 2 62.3628 128.6248 28.6944 0.0000 0.0000 0.0000
# 3 21.4318 28.6944 85.9541 0.0000 0.0000 0.0000
# 4 0.0000 0.0000 0.0000 24.6743 0.0000 0.0000
# 5 0.0000 0.0000 0.0000 0.0000 24.9662 0.0000
# 6 0.0000 0.0000 0.0000 0.0000 0.0000 30.0428
#
#
#
# Elastic Compliance Matrix: (Units=1/GPa)
#
#
# Indices 1 2 3 4 5 6 
#
# 1 0.009065 -0.004204 -0.000857 0.000000 0.000000 0.000000
# 2 -0.004204 0.010350 -0.002407 0.000000 0.000000 0.000000
# 3 -0.000857 -0.002407 0.012651 0.000000 0.000000 0.000000
# 4 0.000000 0.000000 0.000000 0.040528 0.000000 0.000000
# 5 0.000000 0.000000 0.000000 0.000000 0.040054 0.000000
# 6 0.000000 0.000000 0.000000 0.000000 0.000000 0.033286
#
#
# Mechanical properties :
#
#
# Convention : Reuss Voigt Hill
#
# Bulk Modulus (GPa) = 58.37514 64.53584 61.45549
# Shear Modulus (GPa) = 30.01584 32.16038 31.08811
#
# Velocity S-wave (km/s) = 3.70106 3.83099 3.76658
# Velocity P-wave (km/s) = 6.70100 7.00141 6.85285
#
# Compressibility (1/GPa) = 0.01713058
#
# Stress axis : x y z
#
# Youngs Moduli (GPa) = 110.31883 96.62152 79.04357
#
# Poissons Ratio (x) = 0.40618 0.06773
# Poissons Ratio (y) = 0.46376 0.19025
# Poissons Ratio (z) = 0.09452 0.23256
#
# Static dielectric constant tensor:
#      x y z
#    x 3.990550 0.000000 0.000000 
#    y 0.000000 3.867040 0.000000 
#    z 0.000000 0.000000 3.713680 
# 
# 
# High freq. dielectric constant tensor:
#      x y z
#    x 1.861540 0.000000 0.000000 
#    y 0.000000 1.875350 0.000000 
#    z 0.000000 0.000000 1.845990 
# 
# From -- ./inp_files/31460.got.cif
#   From: 2010.03.12/outbox.cif.g09.slc.cpg/sg64_16_cif.got.tgz:31460.got - 2010.04.10 20:19:32.
