data_PCOD8264257
_publ_section_title
;
Structure prediction by ZEFSAII (Michael W. Deem and Ramdas Pophale) SiO2 
 PCOD8264257
Probable space group: C M C A
;
_chemical_formula_sum "Si O2"
_cell_formula_units_Z 64
_cell_length_a 14.279008
_cell_length_b 9.444619
_cell_length_c 19.552032
_cell_angle_alpha 90.000000
_cell_angle_beta 90.000000
_cell_angle_gamma 90.000000
_cell_volume 2636.782935
_symmetry_space_group_name_H-M "C M C A"
_symmetry_group_IT_number 64
_symmetry_cell_setting 'orthorhombic'
loop_
_space_group_symop_operation_xyz
x,y,z
-x,1/2-y,1/2+z
x,-y,-z
-x,1/2+y,1/2-z
-x,-y,-z
x,1/2+y,1/2-z
-x,y,z
x,1/2-y,1/2+z
1/2+x,1/2+y,z
1/2-x,-y,1/2+z
1/2+x,1/2-y,-z
1/2-x,y,1/2-z
1/2-x,1/2-y,-z
1/2+x,y,1/2-z
1/2-x,1/2+y,z
1/2+x,-y,1/2+z
loop_
_atom_site_type_symbol
_atom_site_label
_atom_site_fract_x
_atom_site_fract_y
_atom_site_fract_z
Si Si1 0.847709 0.500000 0.500000
Si Si2 0.500000 0.647989 0.834026
Si Si3 0.000000 0.372467 0.597169
Si Si4 0.701815 0.975773 0.819180
Si Si5 0.000000 0.402016 0.184973
Si Si6 0.696524 0.293759 0.108567
O O1 0.785461 0.623074 0.537133
O O2 0.908462 0.407736 0.552827
O O3 0.500000 0.475926 0.837218
O O4 0.500000 0.690625 0.754529
O O5 0.587045 0.709659 0.874944
O O6 0.000000 0.208645 0.621395
O O7 0.750000 0.914876 0.750000
O O8 0.728024 0.870346 0.883444
O O9 0.589950 0.995117 0.815388
O O10 0.748147 0.126582 0.831788
#
# Coordination Sequence:
#
# PCOD8264257 Si02
#       6
#     8   8   8  16   8  16
#     4   9  22  48  72  97 144 186 240 283 346 417
#     4  10  22  39  71  99 138 183 223 287 361 406
#     4   9  22  43  74 105 134 193 235 283 348 421
#     4  12  27  44  68 109 143 179 236 293 359 420
#     4  12  26  42  69 103 144 181 227 295 351 419
#     4  11  25  45  71 102 141 189 233 289 347 418
#
# _framework density 24.272000999999999
#
# number of rings (size 3 to 8) (size 9 to 14) (size 15 to 20)
#    0.000    1.250    2.500    2.250   10.500    1.000 
#    0.000    1.250    0.000    0.000    0.000    0.000 
#    0.000    0.000    0.000    0.000    0.000    0.000 
#
# Total GULP energy -396579.545301 kJ/mol
# GULP energy per Si atom -12393.110791 kJ/mol
# Density = 2.421676 g / cm^3
# Si number density = 24.272001 Si / 1000 Ang^3
#
#
#
# Elastic Constant Matrix: (Units=GPa)
#
#
# Indices 1 2 3 4 5 6 
#
# 1 103.2811 20.3642 2.1037 0.0000 0.0000 0.0000
# 2 20.3642 120.8150 26.7624 0.0000 0.0000 0.0000
# 3 2.1037 26.7624 84.9401 0.0000 0.0000 0.0000
# 4 0.0000 0.0000 0.0000 33.9674 0.0000 0.0000
# 5 0.0000 0.0000 0.0000 0.0000 15.7917 0.0000
# 6 0.0000 0.0000 0.0000 0.0000 0.0000 12.5833
#
#
#
# Elastic Compliance Matrix: (Units=1/GPa)
#
#
# Indices 1 2 3 4 5 6 
#
# 1 0.010023 -0.001757 0.000305 0.000000 0.000000 0.000000
# 2 -0.001757 0.009206 -0.002857 0.000000 0.000000 0.000000
# 3 0.000305 -0.002857 0.012666 0.000000 0.000000 0.000000
# 4 0.000000 0.000000 0.000000 0.029440 0.000000 0.000000
# 5 0.000000 0.000000 0.000000 0.000000 0.063324 0.000000
# 6 0.000000 0.000000 0.000000 0.000000 0.000000 0.079471
#
#
# Mechanical properties :
#
#
# Convention : Reuss Voigt Hill
#
# Bulk Modulus (GPa) = 42.96119 45.27743 44.11931
# Shear Modulus (GPa) = 22.67515 29.78886 26.23200
#
# Velocity S-wave (km/s) = 3.05980 3.50708 3.29105
# Velocity P-wave (km/s) = 5.49741 5.92403 5.71470
#
# Compressibility (1/GPa) = 0.02327682
#
# Stress axis : x y z
#
# Youngs Moduli (GPa) = 99.77523 108.62279 78.95378
#
# Poissons Ratio (x) = 0.19085 -0.02411
# Poissons Ratio (y) = 0.17531 0.22558
# Poissons Ratio (z) = -0.03047 0.31035
#
# Static dielectric constant tensor:
#      x y z
#    x 4.355750 0.000000 0.000000 
#    y 0.000000 4.283660 0.000000 
#    z 0.000000 0.000000 4.370170 
# 
# 
# High freq. dielectric constant tensor:
#      x y z
#    x 1.965580 0.000000 0.000000 
#    y 0.000000 1.965110 0.000000 
#    z 0.000000 0.000000 1.955730 
# 
# From -- ./inp_files/39843.got.cif
#   From: 2010.03.12/outbox.cif.g09.slc.cpg/sg64_20_cif.got.tgz:39843.got - 2010.04.10 20:19:32.
