data_PCOD8264579
_publ_section_title
;
Structure prediction by ZEFSAII (Michael W. Deem and Ramdas Pophale) SiO2 
 PCOD8264579
Probable space group: C M C A
;
_chemical_formula_sum "Si O2"
_cell_formula_units_Z 72
_cell_length_a 26.643353
_cell_length_b 14.578567
_cell_length_c 8.339205
_cell_angle_alpha 90.000000
_cell_angle_beta 90.000000
_cell_angle_gamma 90.000000
_cell_volume 3239.129907
_symmetry_space_group_name_H-M "C M C A"
_symmetry_group_IT_number 64
_symmetry_cell_setting 'orthorhombic'
loop_
_space_group_symop_operation_xyz
x,y,z
-x,1/2-y,1/2+z
x,-y,-z
-x,1/2+y,1/2-z
-x,-y,-z
x,1/2+y,1/2-z
-x,y,z
x,1/2-y,1/2+z
1/2+x,1/2+y,z
1/2-x,-y,1/2+z
1/2+x,1/2-y,-z
1/2-x,y,1/2-z
1/2-x,1/2-y,-z
1/2+x,y,1/2-z
1/2-x,1/2+y,z
1/2+x,-y,1/2+z
loop_
_atom_site_type_symbol
_atom_site_label
_atom_site_fract_x
_atom_site_fract_y
_atom_site_fract_z
Si Si1 0.618907 0.480271 0.320689
Si Si2 0.111079 0.223660 0.610164
Si Si3 0.179832 0.000000 0.000000
Si Si4 0.782457 0.181264 0.097848
Si Si5 0.443040 0.850213 0.817777
O O1 0.643233 0.500000 0.500000
O O2 0.607590 0.372806 0.292976
O O3 0.650990 0.514227 0.168815
O O4 0.567872 0.540745 0.310033
O O5 0.164690 0.270848 0.638322
O O6 0.099157 0.198987 0.427283
O O7 0.066796 0.295713 0.653394
O O8 0.212128 0.092000 0.985168
O O9 0.750000 0.151304 0.250000
O O10 0.750000 0.250000 0.000000
O O11 0.500000 0.837641 0.876314
#
# Coordination Sequence:
#
# PCOD8264579 Si02
#       5
#    16  16   8  16  16
#     4  10  24  42  73  98 144 189 236 295 362 430
#     4  11  23  45  68  99 145 183 233 302 359 424
#     4  12  24  48  73 104 144 186 233 306 370 420
#     4  12  27  46  72 106 141 190 246 297 366 442
#     4  11  23  42  70 104 139 188 242 295 369 438
#
# _framework density 22.228192
#
# number of rings (size 3 to 8) (size 9 to 14) (size 15 to 20)
#    0.000    0.889    2.222    4.667    3.111    7.556 
#    0.000    0.556    0.000    0.000    0.000    0.000 
#    0.000    0.000    0.000    0.000    0.000    0.000 
#
# Total GULP energy -446089.651513 kJ/mol
# GULP energy per Si atom -12391.379209 kJ/mol
# Density = 2.217760 g / cm^3
# Si number density = 22.228192 Si / 1000 Ang^3
#
#
#
# Elastic Constant Matrix: (Units=GPa)
#
#
# Indices 1 2 3 4 5 6 
#
# 1 131.3661 61.4914 38.2562 0.0000 0.0000 0.0000
# 2 61.4914 183.1641 27.9946 0.0000 0.0000 0.0000
# 3 38.2562 27.9946 102.7352 0.0000 0.0000 0.0000
# 4 0.0000 0.0000 0.0000 36.3190 0.0000 0.0000
# 5 0.0000 0.0000 0.0000 0.0000 30.5022 0.0000
# 6 0.0000 0.0000 0.0000 0.0000 0.0000 37.2250
#
#
#
# Elastic Compliance Matrix: (Units=1/GPa)
#
#
# Indices 1 2 3 4 5 6 
#
# 1 0.009779 -0.002845 -0.002866 0.000000 0.000000 0.000000
# 2 -0.002845 0.006524 -0.000719 0.000000 0.000000 0.000000
# 3 -0.002866 -0.000719 0.010997 0.000000 0.000000 0.000000
# 4 0.000000 0.000000 0.000000 0.027534 0.000000 0.000000
# 5 0.000000 0.000000 0.000000 0.000000 0.032785 0.000000
# 6 0.000000 0.000000 0.000000 0.000000 0.000000 0.026864
#
#
# Mechanical properties :
#
#
# Convention : Reuss Voigt Hill
#
# Bulk Modulus (GPa) = 69.24741 74.74997 71.99869
# Shear Modulus (GPa) = 37.83450 40.11078 38.97264
#
# Velocity S-wave (km/s) = 4.13012 4.25255 4.19178
# Velocity P-wave (km/s) = 7.34605 7.60353 7.47590
#
# Compressibility (1/GPa) = 0.01444097
#
# Stress axis : x y z
#
# Youngs Moduli (GPa) = 102.26399 153.26961 90.93520
#
# Poissons Ratio (x) = 0.43602 0.26063
# Poissons Ratio (y) = 0.29092 0.06534
# Poissons Ratio (z) = 0.29310 0.11013
#
# Static dielectric constant tensor:
#      x y z
#    x 3.584850 0.000000 0.000000 
#    y 0.000000 4.007360 0.000000 
#    z 0.000000 0.000000 4.315840 
# 
# 
# High freq. dielectric constant tensor:
#      x y z
#    x 1.851880 0.000000 0.000000 
#    y 0.000000 1.904820 0.000000 
#    z 0.000000 0.000000 1.877060 
# 
# From -- ./inp_files/10023.got.cif
#   From: 2010.03.12/outbox.cif.g09.slc.cpg/sg64_6_cif.got.tgz:10023.got - 2010.04.10 20:19:32.
