data_PCOD8264558
_publ_section_title
;
Structure prediction by ZEFSAII (Michael W. Deem and Ramdas Pophale) SiO2 
 PCOD8264558
Probable space group: C M C A
;
_chemical_formula_sum "Si O2"
_cell_formula_units_Z 96
_cell_length_a 14.149829
_cell_length_b 23.180214
_cell_length_c 14.894732
_cell_angle_alpha 90.000000
_cell_angle_beta 90.000000
_cell_angle_gamma 90.000000
_cell_volume 4885.413475
_symmetry_space_group_name_H-M "C M C A"
_symmetry_group_IT_number 64
_symmetry_cell_setting 'orthorhombic'
loop_
_space_group_symop_operation_xyz
x,y,z
-x,1/2-y,1/2+z
x,-y,-z
-x,1/2+y,1/2-z
-x,-y,-z
x,1/2+y,1/2-z
-x,y,z
x,1/2-y,1/2+z
1/2+x,1/2+y,z
1/2-x,-y,1/2+z
1/2+x,1/2-y,-z
1/2-x,y,1/2-z
1/2-x,1/2-y,-z
1/2+x,y,1/2-z
1/2-x,1/2+y,z
1/2+x,-y,1/2+z
loop_
_atom_site_type_symbol
_atom_site_label
_atom_site_fract_x
_atom_site_fract_y
_atom_site_fract_z
Si Si1 0.298411 0.609878 0.162218
Si Si2 0.500000 0.138020 0.287307
Si Si3 0.203084 0.312569 0.499501
Si Si4 0.315002 0.507941 0.396745
Si Si5 0.301400 0.121327 0.842035
Si Si6 0.500000 0.584112 0.398304
Si Si7 0.000000 0.717159 0.444468
Si Si8 0.000000 0.152128 0.585394
O O1 0.250000 0.636514 0.250000
O O2 0.410194 0.605008 0.173485
O O3 0.269189 0.544251 0.146072
O O4 0.260440 0.652400 0.085507
O O5 0.500000 0.135538 0.177581
O O6 0.500000 0.201274 0.336498
O O7 0.250000 0.250000 0.500000
O O8 0.233188 0.350631 0.415409
O O9 0.090022 0.308359 0.503467
O O10 0.292876 0.500000 0.500000
O O11 0.314012 0.446993 0.347838
O O12 0.411522 0.542770 0.382248
O O13 0.250000 0.138627 0.750000
O O14 0.407526 0.146065 0.852329
O O15 0.500000 0.608371 0.500100
O O16 0.000000 0.785066 0.456948
#
# Coordination Sequence:
#
# PCOD8264558 Si02
#       8
#    16   8  16  16  16   8   8   8
#     4  11  22  41  66  95 134 169 219 273 330 397
#     4  10  24  40  62 105 131 168 229 273 329 397
#     4  11  23  44  67  96 133 180 223 272 329 398
#     4  12  22  42  68  99 132 175 222 279 341 399
#     4  12  27  44  67 100 138 177 225 278 346 403
#     4  12  22  40  72 104 128 168 232 287 337 391
#     4  10  24  44  68  98 140 174 224 276 328 398
#     4  12  23  47  66  97 136 176 226 283 331 401
#
# _framework density 19.650333
#
# number of rings (size 3 to 8) (size 9 to 14) (size 15 to 20)
#    0.000    0.667    6.667    1.250    0.000    1.333 
#    3.000    1.250    0.000    0.000    0.000    0.000 
#    0.000    0.000    0.000    0.000    0.000    0.000 
#
# Total GULP energy -595070.530435 kJ/mol
# GULP energy per Si atom -12397.302717 kJ/mol
# Density = 1.960561 g / cm^3
# Si number density = 19.650333 Si / 1000 Ang^3
#
#
#
# Elastic Constant Matrix: (Units=GPa)
#
#
# Indices 1 2 3 4 5 6 
#
# 1 143.7342 47.4407 60.0247 0.0000 0.0000 0.0000
# 2 47.4407 104.1643 39.3659 0.0000 0.0000 0.0000
# 3 60.0247 39.3659 142.4485 0.0000 0.0000 0.0000
# 4 0.0000 0.0000 0.0000 18.9932 0.0000 0.0000
# 5 0.0000 0.0000 0.0000 0.0000 22.2283 0.0000
# 6 0.0000 0.0000 0.0000 0.0000 0.0000 22.9423
#
#
#
# Elastic Compliance Matrix: (Units=1/GPa)
#
#
# Indices 1 2 3 4 5 6 
#
# 1 0.009239 -0.003056 -0.003049 0.000000 0.000000 0.000000
# 2 -0.003056 0.011730 -0.001954 0.000000 0.000000 0.000000
# 3 -0.003049 -0.001954 0.008845 0.000000 0.000000 0.000000
# 4 0.000000 0.000000 0.000000 0.052650 0.000000 0.000000
# 5 0.000000 0.000000 0.000000 0.000000 0.044988 0.000000
# 6 0.000000 0.000000 0.000000 0.000000 0.000000 0.043588
#
#
# Mechanical properties :
#
#
# Convention : Reuss Voigt Hill
#
# Bulk Modulus (GPa) = 73.00751 76.00107 74.50429
# Shear Modulus (GPa) = 26.07937 29.06716 27.57327
#
# Velocity S-wave (km/s) = 3.64699 3.85023 3.74999
# Velocity P-wave (km/s) = 7.41404 7.65026 7.53308
#
# Compressibility (1/GPa) = 0.01369722
#
# Stress axis : x y z
#
# Youngs Moduli (GPa) = 108.23700 85.24864 113.06144
#
# Poissons Ratio (x) = 0.26049 0.34469
# Poissons Ratio (y) = 0.33074 0.22094
# Poissons Ratio (z) = 0.32998 0.16659
#
# Static dielectric constant tensor:
#      x y z
#    x 3.811940 0.000000 0.000000 
#    y 0.000000 3.780620 0.000000 
#    z 0.000000 0.000000 3.737560 
# 
# 
# High freq. dielectric constant tensor:
#      x y z
#    x 1.782270 0.000000 0.000000 
#    y 0.000000 1.767800 0.000000 
#    z 0.000000 0.000000 1.767450 
# 
# From -- ./inp_files/24030.got.cif
#   From: 2010.03.12/outbox.cif.g09.slc.cpg/sg64_13_cif.got.tgz:24030.got - 2010.04.10 20:19:32.
