data_PCOD8264189
_publ_section_title
;
Structure prediction by ZEFSAII (Michael W. Deem and Ramdas Pophale) SiO2 
 PCOD8264189
Probable space group: C M C A
;
_chemical_formula_sum "Si O2"
_cell_formula_units_Z 80
_cell_length_a 27.863623
_cell_length_b 13.931231
_cell_length_c 9.410065
_cell_angle_alpha 90.000000
_cell_angle_beta 90.000000
_cell_angle_gamma 90.000000
_cell_volume 3652.747921
_symmetry_space_group_name_H-M "C M C A"
_symmetry_group_IT_number 64
_symmetry_cell_setting 'orthorhombic'
loop_
_space_group_symop_operation_xyz
x,y,z
-x,1/2-y,1/2+z
x,-y,-z
-x,1/2+y,1/2-z
-x,-y,-z
x,1/2+y,1/2-z
-x,y,z
x,1/2-y,1/2+z
1/2+x,1/2+y,z
1/2-x,-y,1/2+z
1/2+x,1/2-y,-z
1/2-x,y,1/2-z
1/2-x,1/2-y,-z
1/2+x,y,1/2-z
1/2-x,1/2+y,z
1/2+x,-y,1/2+z
loop_
_atom_site_type_symbol
_atom_site_label
_atom_site_fract_x
_atom_site_fract_y
_atom_site_fract_z
Si Si1 0.351629 0.728764 0.977131
Si Si2 0.648780 0.534031 0.852207
Si Si3 0.306306 0.860676 0.760550
Si Si4 0.053756 0.339487 0.998270
Si Si5 0.446890 0.997724 0.771850
O O1 0.346570 0.649040 0.850615
O O2 0.323372 0.819488 0.912844
O O3 0.407618 0.754020 0.001966
O O4 0.330661 0.693642 0.127079
O O5 0.678956 0.474350 0.734368
O O6 0.593064 0.501688 0.849296
O O7 0.671095 0.500000 0.000000
O O8 0.250000 0.848452 0.750000
O O9 0.057181 0.395549 0.849635
O O10 0.000000 0.295710 0.015398
O O11 0.064542 0.414921 0.122184
O O12 0.500000 0.009490 0.705857
#
# Coordination Sequence:
#
# PCOD8264189 Si02
#       5
#    16  16  16  16  16
#     4  11  22  41  65  92 126 166 208 256 320 377
#     4  10  22  38  58  87 125 160 200 257 316 376
#     4  11  24  43  63  89 121 159 212 268 319 375
#     4   9  18  34  61  92 122 159 207 251 300 372
#     4   9  17  34  58  87 121 163 207 247 298 367
#
# _framework density 21.901319000000001
#
# number of rings (size 3 to 8) (size 9 to 14) (size 15 to 20)
#    0.000    2.000    2.000    3.000    0.000    2.000 
#    0.000   12.000    0.000    0.000    0.000    0.000 
#    0.000    0.000    0.000    0.000    0.000    0.000 
#
# Total GULP energy -495717.689716 kJ/mol
# GULP energy per Si atom -12392.942243 kJ/mol
# Density = 2.185147 g / cm^3
# Si number density = 21.901319 Si / 1000 Ang^3
#
#
#
# Elastic Constant Matrix: (Units=GPa)
#
#
# Indices 1 2 3 4 5 6 
#
# 1 142.0085 43.7914 13.0666 0.0000 0.0000 0.0000
# 2 43.7914 100.5186 14.6327 0.0000 0.0000 0.0000
# 3 13.0666 14.6327 33.0849 0.0000 0.0000 0.0000
# 4 0.0000 0.0000 0.0000 20.9866 0.0000 0.0000
# 5 0.0000 0.0000 0.0000 0.0000 23.0720 0.0000
# 6 0.0000 0.0000 0.0000 0.0000 0.0000 23.6015
#
#
#
# Elastic Compliance Matrix: (Units=1/GPa)
#
#
# Indices 1 2 3 4 5 6 
#
# 1 0.008232 -0.003327 -0.001779 0.000000 0.000000 0.000000
# 2 -0.003327 0.011978 -0.003983 0.000000 0.000000 0.000000
# 3 -0.001779 -0.003983 0.032690 0.000000 0.000000 0.000000
# 4 0.000000 0.000000 0.000000 0.047650 0.000000 0.000000
# 5 0.000000 0.000000 0.000000 0.000000 0.043342 0.000000
# 6 0.000000 0.000000 0.000000 0.000000 0.000000 0.042370
#
#
# Mechanical properties :
#
#
# Convention : Reuss Voigt Hill
#
# Bulk Modulus (GPa) = 28.80261 46.51037 37.65649
# Shear Modulus (GPa) = 23.14659 27.14011 25.14335
#
# Velocity S-wave (km/s) = 3.25446 3.52405 3.39193
# Velocity P-wave (km/s) = 5.22510 6.15150 5.70713
#
# Compressibility (1/GPa) = 0.03471908
#
# Stress axis : x y z
#
# Youngs Moduli (GPa) = 121.48401 83.48821 30.59050
#
# Poissons Ratio (x) = 0.27777 0.05444
# Poissons Ratio (y) = 0.40418 0.12186
# Poissons Ratio (z) = 0.21618 0.33257
#
# Static dielectric constant tensor:
#      x y z
#    x 3.928040 0.000000 0.000000 
#    y 0.000000 4.158300 0.000000 
#    z 0.000000 0.000000 3.671080 
# 
# 
# High freq. dielectric constant tensor:
#      x y z
#    x 1.861510 0.000000 0.000000 
#    y 0.000000 1.859680 0.000000 
#    z 0.000000 0.000000 1.841110 
# 
# From -- ./inp_files/18038.got.cif
#   From: 2010.03.12/outbox.cif.g09.slc.cpg/sg64_10_cif.got.tgz:18038.got - 2010.04.10 20:19:32.
