data_PCOD8264364
_publ_section_title
;
Structure prediction by ZEFSAII (Michael W. Deem and Ramdas Pophale) SiO2 
 PCOD8264364
Probable space group: C M C A
;
_chemical_formula_sum "Si O2"
_cell_formula_units_Z 64
_cell_length_a 9.285495
_cell_length_b 17.324033
_cell_length_c 19.692098
_cell_angle_alpha 90.000000
_cell_angle_beta 90.000000
_cell_angle_gamma 90.000000
_cell_volume 3167.714636
_symmetry_space_group_name_H-M "C M C A"
_symmetry_group_IT_number 64
_symmetry_cell_setting 'orthorhombic'
loop_
_space_group_symop_operation_xyz
x,y,z
-x,1/2-y,1/2+z
x,-y,-z
-x,1/2+y,1/2-z
-x,-y,-z
x,1/2+y,1/2-z
-x,y,z
x,1/2-y,1/2+z
1/2+x,1/2+y,z
1/2-x,-y,1/2+z
1/2+x,1/2-y,-z
1/2-x,y,1/2-z
1/2-x,1/2-y,-z
1/2+x,y,1/2-z
1/2-x,1/2+y,z
1/2+x,-y,1/2+z
loop_
_atom_site_type_symbol
_atom_site_label
_atom_site_fract_x
_atom_site_fract_y
_atom_site_fract_z
Si Si1 0.772446 0.074766 0.044086
Si Si2 0.500000 0.235887 0.672774
Si Si3 0.500000 0.042837 0.789249
Si Si4 0.000000 0.494087 0.637354
Si Si5 0.250000 0.351550 0.250000
Si Si6 0.000000 0.856658 0.049178
Si Si7 0.500000 0.605701 0.379427
O O1 0.860695 0.050722 0.110895
O O2 0.633860 0.118340 0.070897
O O3 0.860046 0.134941 0.997830
O O4 0.732618 0.000000 0.000000
O O5 0.646604 0.201763 0.704466
O O6 0.500000 0.222748 0.590968
O O7 0.500000 0.329026 0.679738
O O8 0.645199 0.094706 0.796172
O O9 0.500000 0.997568 0.718139
O O10 0.500000 0.980263 0.848667
O O11 0.000000 0.580416 0.609178
#
# Coordination Sequence:
#
# PCOD8264364 Si02
#       7
#    16   8   8   8   8   8   8
#     4   9  20  36  60  90 120 154 202 250 292 345
#     4  11  25  42  60  88 127 157 194 250 309 360
#     4  11  21  36  66  89 116 157 207 246 291 360
#     4   9  16  36  64  89 108 158 206 244 289 351
#     4  10  22  42  62  86 118 164 200 238 306 364
#     4   9  18  40  63  77 121 168 195 230 301 368
#     4  12  25  36  57  99 128 145 198 261 296 340
#
# _framework density 20.20384
#
# number of rings (size 3 to 8) (size 9 to 14) (size 15 to 20)
#    0.000    2.000    2.500    3.375    3.500    4.000 
#    0.000    3.750    0.000    0.000    0.000    0.000 
#    0.000    0.000    0.000    0.000    0.000    0.000 
#
# Total GULP energy -396722.142700 kJ/mol
# GULP energy per Si atom -12397.566959 kJ/mol
# Density = 2.015786 g / cm^3
# Si number density = 20.203840 Si / 1000 Ang^3
#
#
#
# Elastic Constant Matrix: (Units=GPa)
#
#
# Indices 1 2 3 4 5 6 
#
# 1 156.0908 57.3285 49.1989 0.0000 0.0000 0.0000
# 2 57.3285 90.0170 24.4742 0.0000 0.0000 0.0000
# 3 49.1989 24.4742 88.3184 0.0000 0.0000 0.0000
# 4 0.0000 0.0000 0.0000 26.7782 0.0000 0.0000
# 5 0.0000 0.0000 0.0000 0.0000 29.0153 0.0000
# 6 0.0000 0.0000 0.0000 0.0000 0.0000 -9.8879
#
#
#
# Elastic Compliance Matrix: (Units=1/GPa)
#
#
# Indices 1 2 3 4 5 6 
#
# 1 0.009457 -0.004964 -0.003892 0.000000 0.000000 0.000000
# 2 -0.004964 0.014620 -0.001286 0.000000 0.000000 0.000000
# 3 -0.003892 -0.001286 0.013847 0.000000 0.000000 0.000000
# 4 0.000000 0.000000 0.000000 0.037344 0.000000 0.000000
# 5 0.000000 0.000000 0.000000 0.000000 0.034465 0.000000
# 6 0.000000 0.000000 0.000000 0.000000 0.000000 -0.101134
#
#
# Mechanical properties :
#
#
# Convention : Reuss Voigt Hill
#
# Bulk Modulus (GPa) = 56.69273 66.26995 61.48134
# Shear Modulus (GPa) = 143.82950 22.74276 83.28613
#
# Velocity S-wave (km/s) = 8.44652 3.35873 6.42747
# Velocity P-wave (km/s) = 11.10163 6.92195 9.25093
#
# Compressibility (1/GPa) = 0.01763895
#
# Stress axis : x y z
#
# Youngs Moduli (GPa) = 105.74590 68.39819 72.21640
#
# Poissons Ratio (x) = 0.33955 0.28108
# Poissons Ratio (y) = 0.52496 0.09287
# Poissons Ratio (z) = 0.41159 0.08796
#
# Static dielectric constant tensor:
#      x y z
#    x 3.801820 0.000000 0.000000 
#    y 0.000000 3.464010 0.000000 
#    z 0.000000 0.000000 3.540620 
# 
# 
# High freq. dielectric constant tensor:
#      x y z
#    x 1.802930 0.000000 0.000000 
#    y 0.000000 1.767610 0.000000 
#    z 0.000000 0.000000 1.780930 
# 
# From -- ./inp_files/29326.got.cif
#   From: 2010.03.12/outbox.cif.g09.slc.cpg/sg64_15_cif.got.tgz:29326.got - 2010.04.10 20:19:32.
