data_PCOD8264967
_publ_section_title
;
Structure prediction by ZEFSAII (Michael W. Deem and Ramdas Pophale) SiO2 
 PCOD8264967
Probable space group: C M C A
;
_chemical_formula_sum "Si O2"
_cell_formula_units_Z 48
_cell_length_a 17.276195
_cell_length_b 20.976970
_cell_length_c 5.239803
_cell_angle_alpha 90.000000
_cell_angle_beta 90.000000
_cell_angle_gamma 90.000000
_cell_volume 1898.916262
_symmetry_space_group_name_H-M "C M C A"
_symmetry_group_IT_number 64
_symmetry_cell_setting 'orthorhombic'
loop_
_space_group_symop_operation_xyz
x,y,z
-x,1/2-y,1/2+z
x,-y,-z
-x,1/2+y,1/2-z
-x,-y,-z
x,1/2+y,1/2-z
-x,y,z
x,1/2-y,1/2+z
1/2+x,1/2+y,z
1/2-x,-y,1/2+z
1/2+x,1/2-y,-z
1/2-x,y,1/2-z
1/2-x,1/2-y,-z
1/2+x,y,1/2-z
1/2-x,1/2+y,z
1/2+x,-y,1/2+z
loop_
_atom_site_type_symbol
_atom_site_label
_atom_site_fract_x
_atom_site_fract_y
_atom_site_fract_z
Si Si1 0.500000 0.162224 0.688579
Si Si2 0.500000 0.421383 0.703652
Si Si3 0.835392 0.787476 0.101128
Si Si4 0.750000 0.596526 0.750000
Si Si5 0.867418 0.500000 0.000000
O O1 0.500000 0.131059 0.973026
O O2 0.572461 0.207507 0.630229
O O3 0.500000 0.106386 0.483876
O O4 0.576845 0.464894 0.700561
O O5 0.807930 0.758631 0.373586
O O6 0.797831 0.857443 0.057917
O O7 0.686769 0.553601 0.616044
#
# Coordination Sequence:
#
# PCOD8264967 Si02
#       5
#     8   8  16   8   8
#     4  12  24  50  78 109 147 203 257 312 369 459
#     4  11  26  51  76 111 155 199 255 306 381 451
#     4  12  27  50  76 110 152 200 255 312 376 452
#     4  12  28  46  78 116 154 202 250 318 392 446
#     4  11  28  48  78 117 152 206 248 321 374 472
#
# _framework density 25.277576
#
# number of rings (size 3 to 8) (size 9 to 14) (size 15 to 20)
#    0.000    0.333    3.333    4.000    4.667    2.667 
#    0.000    0.000    0.000    0.000    0.000    0.000 
#    0.000    0.000    0.000    0.000    0.000    0.000 
#
# Total GULP energy -297590.111199 kJ/mol
# GULP energy per Si atom -12399.587967 kJ/mol
# Density = 2.522004 g / cm^3
# Si number density = 25.277576 Si / 1000 Ang^3
#
#
#
# Elastic Constant Matrix: (Units=GPa)
#
#
# Indices 1 2 3 4 5 6 
#
# 1 172.2765 66.1138 44.2235 0.0000 0.0000 0.0000
# 2 66.1138 153.8840 53.6328 0.0000 0.0000 0.0000
# 3 44.2235 53.6328 101.5869 0.0000 0.0000 0.0000
# 4 0.0000 0.0000 0.0000 56.7844 0.0000 0.0000
# 5 0.0000 0.0000 0.0000 0.0000 13.6743 0.0000
# 6 0.0000 0.0000 0.0000 0.0000 0.0000 127.0102
#
#
#
# Elastic Compliance Matrix: (Units=1/GPa)
#
#
# Indices 1 2 3 4 5 6 
#
# 1 0.007222 -0.002460 -0.001845 0.000000 0.000000 0.000000
# 2 -0.002460 0.008802 -0.003576 0.000000 0.000000 0.000000
# 3 -0.001845 -0.003576 0.012535 0.000000 0.000000 0.000000
# 4 0.000000 0.000000 0.000000 0.017610 0.000000 0.000000
# 5 0.000000 0.000000 0.000000 0.000000 0.073130 0.000000
# 6 0.000000 0.000000 0.000000 0.000000 0.000000 0.007873
#
#
# Mechanical properties :
#
#
# Convention : Reuss Voigt Hill
#
# Bulk Modulus (GPa) = 78.14576 83.96528 81.05552
# Shear Modulus (GPa) = 33.96726 57.07894 45.52310
#
# Velocity S-wave (km/s) = 3.66972 4.75709 4.24834
# Velocity P-wave (km/s) = 6.99557 7.96634 7.49669
#
# Compressibility (1/GPa) = 0.01279660
#
# Stress axis : x y z
#
# Youngs Moduli (GPa) = 138.45970 113.61676 79.77612
#
# Poissons Ratio (x) = 0.27947 0.14722
# Poissons Ratio (y) = 0.34058 0.28528
# Poissons Ratio (z) = 0.25552 0.40629
#
# Static dielectric constant tensor:
#      x y z
#    x 5.561820 0.000000 0.000000 
#    y 0.000000 4.832180 0.000000 
#    z 0.000000 0.000000 4.227910 
# 
# 
# High freq. dielectric constant tensor:
#      x y z
#    x 2.065170 0.000000 0.000000 
#    y 0.000000 2.023760 0.000000 
#    z 0.000000 0.000000 1.988220 
# 
# From -- ./inp_files/1135.got.cif
#   From: 2010.03.12/outbox.cif.g09.slc.cpg/sg64_1_cif.got.tgz:1135.got - 2010.04.10 20:19:32.
