data_PCOD8264583
_publ_section_title
;
Structure prediction by ZEFSAII (Michael W. Deem and Ramdas Pophale) SiO2 
 PCOD8264583
Probable space group: C M C A
;
_chemical_formula_sum "Si O2"
_cell_formula_units_Z 104
_cell_length_a 15.237767
_cell_length_b 20.531068
_cell_length_c 15.638375
_cell_angle_alpha 90.000000
_cell_angle_beta 90.000000
_cell_angle_gamma 90.000000
_cell_volume 4892.428563
_symmetry_space_group_name_H-M "C M C A"
_symmetry_group_IT_number 64
_symmetry_cell_setting 'orthorhombic'
loop_
_space_group_symop_operation_xyz
x,y,z
-x,1/2-y,1/2+z
x,-y,-z
-x,1/2+y,1/2-z
-x,-y,-z
x,1/2+y,1/2-z
-x,y,z
x,1/2-y,1/2+z
1/2+x,1/2+y,z
1/2-x,-y,1/2+z
1/2+x,1/2-y,-z
1/2-x,y,1/2-z
1/2-x,1/2-y,-z
1/2+x,y,1/2-z
1/2-x,1/2+y,z
1/2+x,-y,1/2+z
loop_
_atom_site_type_symbol
_atom_site_label
_atom_site_fract_x
_atom_site_fract_y
_atom_site_fract_z
Si Si1 0.734608 0.435148 0.045620
Si Si2 0.158631 0.362389 0.704400
Si Si3 0.000000 0.745361 0.010839
Si Si4 0.397794 0.997659 0.333334
Si Si5 0.500000 0.189458 0.821519
Si Si6 0.500000 0.188784 0.198120
Si Si7 0.820383 0.197146 0.032437
Si Si8 0.162692 0.400975 0.202202
O O1 0.645623 0.451263 0.096142
O O2 0.815344 0.414047 0.104346
O O3 0.768544 0.500000 0.000000
O O4 0.715334 0.374852 0.984288
O O5 0.250000 0.370426 0.750000
O O6 0.135368 0.428896 0.655045
O O7 0.163084 0.302551 0.635472
O O8 0.086737 0.351771 0.778295
O O9 0.912993 0.789905 0.014112
O O10 0.000000 0.703030 0.923539
O O11 0.000000 0.701824 0.096605
O O12 0.500000 0.994050 0.348964
O O13 0.369815 0.969610 0.241238
O O14 0.500000 0.250551 0.760537
O O15 0.586533 0.151435 0.793338
O O16 0.750000 0.250000 0.000000
O O17 0.250000 0.373967 0.250000
#
# Coordination Sequence:
#
# PCOD8264583 Si02
#       8
#    16  16   8  16   8   8  16  16
#     4  11  24  41  68 103 141 185 235 296 359 420
#     4  12  24  46  72 100 144 184 234 296 362 428
#     4  12  28  48  67 101 143 186 243 288 355 439
#     4  11  23  44  70 103 135 181 237 296 362 423
#     4  12  24  49  71 100 145 190 238 296 358 425
#     4  12  28  45  70 104 138 192 236 291 358 428
#     4  12  26  46  69 105 144 189 239 297 354 431
#     4  10  24  43  70 100 136 184 232 293 354 434
#
# _framework density 21.257335999999999
#
# number of rings (size 3 to 8) (size 9 to 14) (size 15 to 20)
#    0.000    0.615    4.615    3.231    5.385    0.923 
#    0.000    0.385    0.000    0.000    0.000    0.000 
#    0.000    0.000    0.000    0.000    0.000    0.000 
#
# Total GULP energy -644832.433033 kJ/mol
# GULP energy per Si atom -12400.623712 kJ/mol
# Density = 2.120895 g / cm^3
# Si number density = 21.257336 Si / 1000 Ang^3
#
#
#
# Elastic Constant Matrix: (Units=GPa)
#
#
# Indices 1 2 3 4 5 6 
#
# 1 118.6997 24.2981 4.1736 0.0000 0.0000 0.0000
# 2 24.2981 89.1750 13.6116 0.0000 0.0000 0.0000
# 3 4.1736 13.6116 79.3810 0.0000 0.0000 0.0000
# 4 0.0000 0.0000 0.0000 33.8278 0.0000 0.0000
# 5 0.0000 0.0000 0.0000 0.0000 -287.8659 0.0000
# 6 0.0000 0.0000 0.0000 0.0000 0.0000 25.8082
#
#
#
# Elastic Compliance Matrix: (Units=1/GPa)
#
#
# Indices 1 2 3 4 5 6 
#
# 1 0.008922 -0.002423 -0.000054 0.000000 0.000000 0.000000
# 2 -0.002423 0.012173 -0.001960 0.000000 0.000000 0.000000
# 3 -0.000054 -0.001960 0.012936 0.000000 0.000000 0.000000
# 4 0.000000 0.000000 0.000000 0.029562 0.000000 0.000000
# 5 0.000000 0.000000 0.000000 0.000000 -0.003474 0.000000
# 6 0.000000 0.000000 0.000000 0.000000 0.000000 0.038747
#
#
# Mechanical properties :
#
#
# Convention : Reuss Voigt Hill
#
# Bulk Modulus (GPa) = 39.74731 41.26915 40.50823
# Shear Modulus (GPa) = 43.05639 -29.30117 6.87761
#
# Velocity S-wave (km/s) = 4.50542 -3.71671 1.80067
# Velocity P-wave (km/s) = 6.76785 1.01863 4.83950
#
# Compressibility (1/GPa) = 0.02515893
#
# Stress axis : x y z
#
# Youngs Moduli (GPa) = 112.07628 82.14706 77.30141
#
# Poissons Ratio (x) = 0.19904 0.00415
# Poissons Ratio (y) = 0.27156 0.15151
# Poissons Ratio (z) = 0.00601 0.16101
#
# Static dielectric constant tensor:
#      x y z
#    x 3.913160 0.000000 0.000000 
#    y 0.000000 3.965230 0.000000 
#    z 0.000000 0.000000 4.019190 
# 
# 
# High freq. dielectric constant tensor:
#      x y z
#    x 1.848170 0.000000 0.000000 
#    y 0.000000 1.834740 0.000000 
#    z 0.000000 0.000000 1.837670 
# 
# From -- ./inp_files/32421.got.cif
#   From: 2010.03.12/outbox.cif.g09.slc.cpg/sg64_17_cif.got.tgz:32421.got - 2010.04.10 20:19:32.
