data_PCOD8264469
_publ_section_title
;
Structure prediction by ZEFSAII (Michael W. Deem and Ramdas Pophale) SiO2 
 PCOD8264469
Probable space group: C M C A
;
_chemical_formula_sum "Si O2"
_cell_formula_units_Z 112
_cell_length_a 23.187032
_cell_length_b 14.526945
_cell_length_c 15.644901
_cell_angle_alpha 90.000000
_cell_angle_beta 90.000000
_cell_angle_gamma 90.000000
_cell_volume 5269.777428
_symmetry_space_group_name_H-M "C M C A"
_symmetry_group_IT_number 64
_symmetry_cell_setting 'orthorhombic'
loop_
_space_group_symop_operation_xyz
x,y,z
-x,1/2-y,1/2+z
x,-y,-z
-x,1/2+y,1/2-z
-x,-y,-z
x,1/2+y,1/2-z
-x,y,z
x,1/2-y,1/2+z
1/2+x,1/2+y,z
1/2-x,-y,1/2+z
1/2+x,1/2-y,-z
1/2-x,y,1/2-z
1/2-x,1/2-y,-z
1/2+x,y,1/2-z
1/2-x,1/2+y,z
1/2+x,-y,1/2+z
loop_
_atom_site_type_symbol
_atom_site_label
_atom_site_fract_x
_atom_site_fract_y
_atom_site_fract_z
Si Si1 0.137900 0.350986 0.194710
Si Si2 0.564991 0.350283 0.055088
Si Si3 0.565442 0.509128 0.798166
Si Si4 0.767424 0.552980 0.911974
Si Si5 0.243698 0.136200 0.154156
Si Si6 0.386112 0.837408 0.627421
Si Si7 0.820826 0.204710 0.873570
O O1 0.094711 0.429785 0.225179
O O2 0.178101 0.387539 0.118293
O O3 0.099764 0.266014 0.158648
O O4 0.178127 0.315619 0.272078
O O5 0.500000 0.310287 0.067682
O O6 0.570913 0.445310 0.107754
O O7 0.613938 0.282010 0.091683
O O8 0.576729 0.365192 0.955226
O O9 0.500000 0.495148 0.770286
O O10 0.596500 0.410094 0.799171
O O11 0.756859 0.471978 0.844175
O O12 0.711425 0.618780 0.919505
O O13 0.779620 0.500000 0.000000
O O14 0.250000 0.172082 0.250000
O O15 0.182087 0.155654 0.111132
O O16 0.289234 0.199675 0.102540
#
# Coordination Sequence:
#
# PCOD8264469 Si02
#       7
#    16  16  16  16  16  16  16
#     4  11  24  42  65  96 138 174 226 279 334 405
#     4  10  23  41  66  97 132 167 218 285 336 394
#     4  10  23  44  68  96 131 180 235 282 332 403
#     4  12  25  39  64  98 136 173 211 275 344 411
#     4  12  22  38  66  94 130 175 214 272 334 401
#     4  12  22  38  68  99 131 172 221 285 346 392
#     4  11  22  43  66  96 130 172 223 267 329 412
#
# _framework density 21.253269
#
# number of rings (size 3 to 8) (size 9 to 14) (size 15 to 20)
#    0.000    0.857    2.857    5.571    2.000    3.429 
#    0.000    0.000    0.000    0.429    0.000    0.000 
#    0.000    0.000    0.000    0.000    0.000    0.000 
#
# Total GULP energy -694400.975107 kJ/mol
# GULP energy per Si atom -12400.017413 kJ/mol
# Density = 2.120490 g / cm^3
# Si number density = 21.253269 Si / 1000 Ang^3
#
#
#
# Elastic Constant Matrix: (Units=GPa)
#
#
# Indices 1 2 3 4 5 6 
#
# 1 160.8418 61.3863 31.0146 0.0000 0.0000 0.0000
# 2 61.3863 119.3798 20.6893 0.0000 0.0000 0.0000
# 3 31.0146 20.6893 77.9967 0.0000 0.0000 0.0000
# 4 0.0000 0.0000 0.0000 16.7903 0.0000 0.0000
# 5 0.0000 0.0000 0.0000 0.0000 30.0140 0.0000
# 6 0.0000 0.0000 0.0000 0.0000 0.0000 28.6716
#
#
#
# Elastic Compliance Matrix: (Units=1/GPa)
#
#
# Indices 1 2 3 4 5 6 
#
# 1 0.008084 -0.003773 -0.002214 0.000000 0.000000 0.000000
# 2 -0.003773 0.010541 -0.001296 0.000000 0.000000 0.000000
# 3 -0.002214 -0.001296 0.014045 0.000000 0.000000 0.000000
# 4 0.000000 0.000000 0.000000 0.059558 0.000000 0.000000
# 5 0.000000 0.000000 0.000000 0.000000 0.033318 0.000000
# 6 0.000000 0.000000 0.000000 0.000000 0.000000 0.034878
#
#
# Mechanical properties :
#
#
# Convention : Reuss Voigt Hill
#
# Bulk Modulus (GPa) = 55.23312 64.93320 60.08316
# Shear Modulus (GPa) = 27.62048 31.43707 29.52878
#
# Velocity S-wave (km/s) = 3.60889 3.85016 3.73148
# Velocity P-wave (km/s) = 6.58862 7.09813 6.84811
#
# Compressibility (1/GPa) = 0.01810508
#
# Stress axis : x y z
#
# Youngs Moduli (GPa) = 123.69682 94.86320 71.19958
#
# Poissons Ratio (x) = 0.35795 0.15762
# Poissons Ratio (y) = 0.46675 0.09226
# Poissons Ratio (z) = 0.27383 0.12292
#
# Static dielectric constant tensor:
#      x y z
#    x 3.881400 0.000000 0.000000 
#    y 0.000000 3.955710 0.000000 
#    z 0.000000 0.000000 3.660860 
# 
# 
# High freq. dielectric constant tensor:
#      x y z
#    x 1.829690 0.000000 0.000000 
#    y 0.000000 1.835600 0.000000 
#    z 0.000000 0.000000 1.822090 
# 
# From -- ./inp_files/27422.got.cif
#   From: 2010.03.12/outbox.cif.g09.slc.cpg/sg64_14_cif.got.tgz:27422.got - 2010.04.10 20:19:32.
