data_PCOD8264855
_publ_section_title
;
Structure prediction by ZEFSAII (Michael W. Deem and Ramdas Pophale) SiO2 
 PCOD8264855
Probable space group: C M C A
;
_chemical_formula_sum "Si O2"
_cell_formula_units_Z 72
_cell_length_a 12.441543
_cell_length_b 23.578628
_cell_length_c 12.424698
_cell_angle_alpha 90.000000
_cell_angle_beta 90.000000
_cell_angle_gamma 90.000000
_cell_volume 3644.841245
_symmetry_space_group_name_H-M "C M C A"
_symmetry_group_IT_number 64
_symmetry_cell_setting 'orthorhombic'
loop_
_space_group_symop_operation_xyz
x,y,z
-x,1/2-y,1/2+z
x,-y,-z
-x,1/2+y,1/2-z
-x,-y,-z
x,1/2+y,1/2-z
-x,y,z
x,1/2-y,1/2+z
1/2+x,1/2+y,z
1/2-x,-y,1/2+z
1/2+x,1/2-y,-z
1/2-x,y,1/2-z
1/2-x,1/2-y,-z
1/2+x,y,1/2-z
1/2-x,1/2+y,z
1/2+x,-y,1/2+z
loop_
_atom_site_type_symbol
_atom_site_label
_atom_site_fract_x
_atom_site_fract_y
_atom_site_fract_z
Si Si1 0.873050 0.928079 0.606598
Si Si2 0.770852 0.812028 0.632478
Si Si3 0.374686 0.204683 0.561380
Si Si4 0.750000 0.641052 0.750000
Si Si5 0.374645 0.949014 0.130920
O O1 0.815771 0.874271 0.658865
O O2 0.827782 0.932143 0.485076
O O3 0.000000 0.918282 0.613231
O O4 0.838308 0.987108 0.665542
O O5 0.750000 0.784678 0.750000
O O6 0.663926 0.814669 0.557616
O O7 0.858889 0.772695 0.571624
O O8 0.500000 0.188661 0.575649
O O9 0.298423 0.177258 0.652510
O O10 0.654740 0.599132 0.715355
O O11 0.500000 0.951215 0.116623
#
# Coordination Sequence:
#
# PCOD8264855 Si02
#       5
#    16  16  16   8  16
#     4   9  18  36  59  86 115 151 203 251 294 351
#     4  11  23  42  62  90 119 159 199 248 308 363
#     4  11  25  42  61  90 124 160 204 250 301 363
#     4  12  20  40  60  88 124 164 200 248 300 358
#     4   9  19  34  59  86 114 158 204 243 291 356
#
# _framework density 19.753945999999999
#
# number of rings (size 3 to 8) (size 9 to 14) (size 15 to 20)
#    0.000    1.778    3.333    2.667    1.556    1.778 
#    0.000    0.000    0.000    1.333    0.000    0.000 
#    0.000    0.000    0.000    0.000    0.000    0.000 
#
# Total GULP energy -446113.704896 kJ/mol
# GULP energy per Si atom -12392.047358 kJ/mol
# Density = 1.970899 g / cm^3
# Si number density = 19.753946 Si / 1000 Ang^3
#
#
#
# Elastic Constant Matrix: (Units=GPa)
#
#
# Indices 1 2 3 4 5 6 
#
# 1 73.7101 30.4546 35.3604 0.0000 0.0000 0.0000
# 2 30.4546 102.6731 23.0994 0.0000 0.0000 0.0000
# 3 35.3604 23.0994 101.1393 0.0000 0.0000 0.0000
# 4 0.0000 0.0000 0.0000 20.6628 0.0000 0.0000
# 5 0.0000 0.0000 0.0000 0.0000 23.4160 0.0000
# 6 0.0000 0.0000 0.0000 0.0000 0.0000 28.6848
#
#
#
# Elastic Compliance Matrix: (Units=1/GPa)
#
#
# Indices 1 2 3 4 5 6 
#
# 1 0.017792 -0.004088 -0.005287 0.000000 0.000000 0.000000
# 2 -0.004088 0.011206 -0.001130 0.000000 0.000000 0.000000
# 3 -0.005287 -0.001130 0.011994 0.000000 0.000000 0.000000
# 4 0.000000 0.000000 0.000000 0.048396 0.000000 0.000000
# 5 0.000000 0.000000 0.000000 0.000000 0.042706 0.000000
# 6 0.000000 0.000000 0.000000 0.000000 0.000000 0.034862
#
#
# Mechanical properties :
#
#
# Convention : Reuss Voigt Hill
#
# Bulk Modulus (GPa) = 50.04426 50.59459 50.31943
# Shear Modulus (GPa) = 25.69024 27.12660 26.40842
#
# Velocity S-wave (km/s) = 3.61017 3.70972 3.66029
# Velocity P-wave (km/s) = 6.53962 6.63456 6.58726
#
# Compressibility (1/GPa) = 0.01998231
#
# Stress axis : x y z
#
# Youngs Moduli (GPa) = 56.20553 89.23401 83.37614
#
# Poissons Ratio (x) = 0.36478 0.44079
# Poissons Ratio (y) = 0.22977 0.09424
# Poissons Ratio (z) = 0.29714 0.10086
#
# Static dielectric constant tensor:
#      x y z
#    x 3.252780 0.000000 0.000000 
#    y 0.000000 3.771770 0.000000 
#    z 0.000000 0.000000 4.168290 
# 
# 
# High freq. dielectric constant tensor:
#      x y z
#    x 1.743650 0.000000 0.000000 
#    y 0.000000 1.790810 0.000000 
#    z 0.000000 0.000000 1.761970 
# 
# From -- ./inp_files/14352.got.cif
#   From: 2010.03.12/outbox.cif.g09.slc.cpg/sg64_8_cif.got.tgz:14352.got - 2010.04.10 20:19:32.
