data_PCOD8264616
_publ_section_title
;
Structure prediction by ZEFSAII (Michael W. Deem and Ramdas Pophale) SiO2 
 PCOD8264616
Probable space group: C M C A
;
_chemical_formula_sum "Si O2"
_cell_formula_units_Z 64
_cell_length_a 30.719472
_cell_length_b 8.748631
_cell_length_c 9.881748
_cell_angle_alpha 90.000000
_cell_angle_beta 90.000000
_cell_angle_gamma 90.000000
_cell_volume 2655.752632
_symmetry_space_group_name_H-M "C M C A"
_symmetry_group_IT_number 64
_symmetry_cell_setting 'orthorhombic'
loop_
_space_group_symop_operation_xyz
x,y,z
-x,1/2-y,1/2+z
x,-y,-z
-x,1/2+y,1/2-z
-x,-y,-z
x,1/2+y,1/2-z
-x,y,z
x,1/2-y,1/2+z
1/2+x,1/2+y,z
1/2-x,-y,1/2+z
1/2+x,1/2-y,-z
1/2-x,y,1/2-z
1/2-x,1/2-y,-z
1/2+x,y,1/2-z
1/2-x,1/2+y,z
1/2+x,-y,1/2+z
loop_
_atom_site_type_symbol
_atom_site_label
_atom_site_fract_x
_atom_site_fract_y
_atom_site_fract_z
Si Si1 0.602713 0.716874 0.162519
Si Si2 0.280037 0.723445 0.369895
Si Si3 0.450449 0.334586 0.568222
Si Si4 0.336663 0.519640 0.742436
O O1 0.573517 0.712818 0.028456
O O2 0.572668 0.670605 0.288035
O O3 0.641658 0.595040 0.148584
O O4 0.625241 0.882054 0.174509
O O5 0.250000 0.665482 0.250000
O O6 0.250000 0.750000 0.500000
O O7 0.314760 0.583200 0.379020
O O8 0.302771 0.881604 0.328772
O O9 0.448608 0.500000 0.500000
O O10 0.500000 0.281154 0.588750
#
# Coordination Sequence:
#
# PCOD8264616 Si02
#       4
#    16  16  16  16
#     4  11  23  46  72 105 144 189 240 288 358 420
#     4  11  26  45  69 101 142 180 237 292 357 415
#     4  11  24  44  71 107 149 188 233 295 357 421
#     4  10  25  44  73 104 138 189 235 293 351 424
#
# _framework density 24.098631000000001
#
# number of rings (size 3 to 8) (size 9 to 14) (size 15 to 20)
#    0.000    1.250    2.500    1.500    0.000   17.000 
#    0.000    5.000    0.000    0.000    0.000    0.000 
#    0.000    0.000    0.000    0.000    0.000    0.000 
#
# Total GULP energy -396760.449268 kJ/mol
# GULP energy per Si atom -12398.764040 kJ/mol
# Density = 2.404378 g / cm^3
# Si number density = 24.098631 Si / 1000 Ang^3
#
#
#
# Elastic Constant Matrix: (Units=GPa)
#
#
# Indices 1 2 3 4 5 6 
#
# 1 129.7734 43.0946 25.5589 0.0000 0.0000 0.0000
# 2 43.0946 108.8420 -2.4418 0.0000 0.0000 0.0000
# 3 25.5589 -2.4418 82.1327 0.0000 0.0000 0.0000
# 4 0.0000 0.0000 0.0000 24.2499 0.0000 0.0000
# 5 0.0000 0.0000 0.0000 0.0000 41.0204 0.0000
# 6 0.0000 0.0000 0.0000 0.0000 0.0000 38.3122
#
#
#
# Elastic Compliance Matrix: (Units=1/GPa)
#
#
# Indices 1 2 3 4 5 6 
#
# 1 0.009603 -0.003872 -0.003103 0.000000 0.000000 0.000000
# 2 -0.003872 0.010755 0.001525 0.000000 0.000000 0.000000
# 3 -0.003103 0.001525 0.013186 0.000000 0.000000 0.000000
# 4 0.000000 0.000000 0.000000 0.041237 0.000000 0.000000
# 5 0.000000 0.000000 0.000000 0.000000 0.024378 0.000000
# 6 0.000000 0.000000 0.000000 0.000000 0.000000 0.026101
#
#
# Mechanical properties :
#
#
# Convention : Reuss Voigt Hill
#
# Bulk Modulus (GPa) = 44.16379 50.35238 47.25808
# Shear Modulus (GPa) = 34.79247 37.68558 36.23903
#
# Velocity S-wave (km/s) = 3.80380 3.95879 3.88207
# Velocity P-wave (km/s) = 6.13660 6.46805 6.30450
#
# Compressibility (1/GPa) = 0.02264298
#
# Stress axis : x y z
#
# Youngs Moduli (GPa) = 104.13813 92.98206 75.83523
#
# Poissons Ratio (x) = 0.35999 0.23534
# Poissons Ratio (y) = 0.40319 -0.11562
# Poissons Ratio (z) = 0.32318 -0.14176
#
# Static dielectric constant tensor:
#      x y z
#    x 4.752430 0.000000 0.000000 
#    y 0.000000 4.481110 0.000000 
#    z 0.000000 0.000000 3.997710 
# 
# 
# High freq. dielectric constant tensor:
#      x y z
#    x 1.980710 0.000000 0.000000 
#    y 0.000000 1.966080 0.000000 
#    z 0.000000 0.000000 1.939300 
# 
# From -- ./inp_files/19471.got.cif
#   From: 2010.03.12/outbox.cif.g09.slc.cpg/sg64_10_cif.got.tgz:19471.got - 2010.04.10 20:19:32.
