data_PCOD8264798
_publ_section_title
;
Structure prediction by ZEFSAII (Michael W. Deem and Ramdas Pophale) SiO2 
 PCOD8264798
Probable space group: C M C A
;
_chemical_formula_sum "Si O2"
_cell_formula_units_Z 96
_cell_length_a 16.775759
_cell_length_b 19.823729
_cell_length_c 14.213629
_cell_angle_alpha 90.000000
_cell_angle_beta 90.000000
_cell_angle_gamma 90.000000
_cell_volume 4726.857457
_symmetry_space_group_name_H-M "C M C A"
_symmetry_group_IT_number 64
_symmetry_cell_setting 'orthorhombic'
loop_
_space_group_symop_operation_xyz
x,y,z
-x,1/2-y,1/2+z
x,-y,-z
-x,1/2+y,1/2-z
-x,-y,-z
x,1/2+y,1/2-z
-x,y,z
x,1/2-y,1/2+z
1/2+x,1/2+y,z
1/2-x,-y,1/2+z
1/2+x,1/2-y,-z
1/2-x,y,1/2-z
1/2-x,1/2-y,-z
1/2+x,y,1/2-z
1/2-x,1/2+y,z
1/2+x,-y,1/2+z
loop_
_atom_site_type_symbol
_atom_site_label
_atom_site_fract_x
_atom_site_fract_y
_atom_site_fract_z
Si Si1 0.092034 0.680920 0.668748
Si Si2 0.838932 0.067831 0.716672
Si Si3 0.841390 0.767565 0.983992
Si Si4 0.092270 0.378190 0.028777
Si Si5 0.408713 0.429641 0.673859
Si Si6 0.839863 0.694233 0.275174
O O1 0.102338 0.606442 0.711717
O O2 0.127934 0.681863 0.564178
O O3 0.140185 0.732473 0.734594
O O4 0.000000 0.701363 0.667294
O O5 0.750000 0.082782 0.750000
O O6 0.851079 0.095172 0.611136
O O7 0.855697 0.988231 0.719786
O O8 0.894616 0.700696 0.988576
O O9 0.852885 0.806229 0.886485
O O10 0.750000 0.750000 0.000000
O O11 0.000000 0.390289 0.055777
O O12 0.115700 0.418574 0.934677
O O13 0.500000 0.452254 0.679445
O O14 0.398090 0.361049 0.731465
O O15 0.750000 0.674497 0.250000
#
# Coordination Sequence:
#
# PCOD8264798 Si02
#       6
#    16  16  16  16  16  16
#     4  12  24  40  64  96 132 169 213 267 326 386
#     4  12  25  42  65  93 132 175 218 267 329 389
#     4  12  23  39  65  98 134 169 217 268 324 385
#     4  11  22  40  68  97 128 166 217 278 328 377
#     4  11  24  43  67  98 131 168 217 272 330 391
#     4  12  23  41  67  95 131 173 216 264 321 387
#
# _framework density 20.309476
#
# number of rings (size 3 to 8) (size 9 to 14) (size 15 to 20)
#    0.000    0.333    5.000    5.000    0.000    3.333 
#    0.000    2.500    0.000    2.000    0.000    0.000 
#    0.000    0.000    0.000    0.000    0.000    0.000 
#
# Total GULP energy -595593.542007 kJ/mol
# GULP energy per Si atom -12408.198792 kJ/mol
# Density = 2.026325 g / cm^3
# Si number density = 20.309476 Si / 1000 Ang^3
#
#
#
# Elastic Constant Matrix: (Units=GPa)
#
#
# Indices 1 2 3 4 5 6 
#
# 1 85.0124 23.9136 51.2584 0.0000 0.0000 0.0000
# 2 23.9136 95.8147 49.0168 0.0000 0.0000 0.0000
# 3 51.2584 49.0168 169.4330 0.0000 0.0000 0.0000
# 4 0.0000 0.0000 0.0000 26.4844 0.0000 0.0000
# 5 0.0000 0.0000 0.0000 0.0000 35.8109 0.0000
# 6 0.0000 0.0000 0.0000 0.0000 0.0000 30.8178
#
#
#
# Elastic Compliance Matrix: (Units=1/GPa)
#
#
# Indices 1 2 3 4 5 6 
#
# 1 0.014600 -0.001625 -0.003947 0.000000 0.000000 0.000000
# 2 -0.001625 0.012431 -0.003105 0.000000 0.000000 0.000000
# 3 -0.003947 -0.003105 0.007994 0.000000 0.000000 0.000000
# 4 0.000000 0.000000 0.000000 0.037758 0.000000 0.000000
# 5 0.000000 0.000000 0.000000 0.000000 0.027924 0.000000
# 6 0.000000 0.000000 0.000000 0.000000 0.000000 0.032449
#
#
# Mechanical properties :
#
#
# Convention : Reuss Voigt Hill
#
# Bulk Modulus (GPa) = 56.58595 66.51530 61.55063
# Shear Modulus (GPa) = 31.96953 33.69405 32.83179
#
# Velocity S-wave (km/s) = 3.97182 4.07754 4.02503
# Velocity P-wave (km/s) = 6.99687 7.41555 7.20925
#
# Compressibility (1/GPa) = 0.01767223
#
# Stress axis : x y z
#
# Youngs Moduli (GPa) = 68.49427 80.44678 125.09023
#
# Poissons Ratio (x) = 0.13070 0.49371
# Poissons Ratio (y) = 0.11128 0.38836
# Poissons Ratio (z) = 0.27033 0.24976
#
# Static dielectric constant tensor:
#      x y z
#    x 3.666020 0.000000 0.000000 
#    y 0.000000 3.603480 0.000000 
#    z 0.000000 0.000000 3.932680 
# 
# 
# High freq. dielectric constant tensor:
#      x y z
#    x 1.800730 0.000000 0.000000 
#    y 0.000000 1.788370 0.000000 
#    z 0.000000 0.000000 1.805620 
# 
# From -- ./inp_files/23867.got.cif
#   From: 2010.03.12/outbox.cif.g09.slc.cpg/sg64_12_cif.got.tgz:23867.got - 2010.04.10 20:19:32.
