data_PCOD8264516
_publ_section_title
;
Structure prediction by ZEFSAII (Michael W. Deem and Ramdas Pophale) SiO2 
 PCOD8264516
Probable space group: C M C A
;
_chemical_formula_sum "Si O2"
_cell_formula_units_Z 88
_cell_length_a 17.800283
_cell_length_b 12.344172
_cell_length_c 18.268487
_cell_angle_alpha 90.000000
_cell_angle_beta 90.000000
_cell_angle_gamma 90.000000
_cell_volume 4014.130173
_symmetry_space_group_name_H-M "C M C A"
_symmetry_group_IT_number 64
_symmetry_cell_setting 'orthorhombic'
loop_
_space_group_symop_operation_xyz
x,y,z
-x,1/2-y,1/2+z
x,-y,-z
-x,1/2+y,1/2-z
-x,-y,-z
x,1/2+y,1/2-z
-x,y,z
x,1/2-y,1/2+z
1/2+x,1/2+y,z
1/2-x,-y,1/2+z
1/2+x,1/2-y,-z
1/2-x,y,1/2-z
1/2-x,1/2-y,-z
1/2+x,y,1/2-z
1/2-x,1/2+y,z
1/2+x,-y,1/2+z
loop_
_atom_site_type_symbol
_atom_site_label
_atom_site_fract_x
_atom_site_fract_y
_atom_site_fract_z
Si Si1 0.115265 0.500000 0.000000
Si Si2 0.412313 0.580839 0.064668
Si Si3 0.298644 0.237384 0.684233
Si Si4 0.414015 0.049831 0.711027
Si Si5 0.080725 0.593846 0.148401
Si Si6 0.191414 0.211554 0.557150
O O1 0.067298 0.538313 0.069683
O O2 0.164074 0.403121 0.030564
O O3 0.500000 0.603753 0.053378
O O4 0.394613 0.528334 0.143188
O O5 0.373477 0.697966 0.063112
O O6 0.383550 0.500000 0.000000
O O7 0.250000 0.289420 0.750000
O O8 0.355943 0.147589 0.713113
O O9 0.349186 0.325702 0.642711
O O10 0.235405 0.188914 0.631915
O O11 0.500000 0.091885 0.703516
O O12 0.401694 0.990939 0.787833
O O13 0.000000 0.651010 0.166474
O O14 0.250000 0.250000 0.500000
#
# Coordination Sequence:
#
# PCOD8264516 Si02
#       6
#     8  16  16  16  16  16
#     4  12  27  46  66 100 139 188 232 280 347 406
#     4  10  23  43  71 101 134 179 231 281 337 404
#     4  12  25  42  69 101 135 181 224 284 346 414
#     4  10  23  44  70 100 136 177 230 287 337 408
#     4  11  25  45  68  97 135 180 231 283 341 408
#     4  12  26  42  67  99 139 178 223 284 334 407
#
# _framework density 21.922559
#
# number of rings (size 3 to 8) (size 9 to 14) (size 15 to 20)
#    0.000    0.909    1.818    4.091    3.818    5.091 
#    0.000    4.545    0.000    0.000    0.000    0.000 
#    0.000    0.000    0.000    0.000    0.000    0.000 
#
# Total GULP energy -545408.359510 kJ/mol
# GULP energy per Si atom -12395.644534 kJ/mol
# Density = 2.187266 g / cm^3
# Si number density = 21.922559 Si / 1000 Ang^3
#
#
#
# Elastic Constant Matrix: (Units=GPa)
#
#
# Indices 1 2 3 4 5 6 
#
# 1 117.5739 65.7971 41.4451 0.0000 0.0000 0.0000
# 2 65.7971 115.2195 39.5000 0.0000 0.0000 0.0000
# 3 41.4451 39.5000 157.3540 0.0000 0.0000 0.0000
# 4 0.0000 0.0000 0.0000 35.2708 0.0000 0.0000
# 5 0.0000 0.0000 0.0000 0.0000 34.7507 0.0000
# 6 0.0000 0.0000 0.0000 0.0000 0.0000 147.0440
#
#
#
# Elastic Compliance Matrix: (Units=1/GPa)
#
#
# Indices 1 2 3 4 5 6 
#
# 1 0.012900 -0.006786 -0.001694 0.000000 0.000000 0.000000
# 2 -0.006786 0.013066 -0.001493 0.000000 0.000000 0.000000
# 3 -0.001694 -0.001493 0.007176 0.000000 0.000000 0.000000
# 4 0.000000 0.000000 0.000000 0.028352 0.000000 0.000000
# 5 0.000000 0.000000 0.000000 0.000000 0.028776 0.000000
# 6 0.000000 0.000000 0.000000 0.000000 0.000000 0.006801
#
#
# Mechanical properties :
#
#
# Convention : Reuss Voigt Hill
#
# Bulk Modulus (GPa) = 75.77735 75.95908 75.86822
# Shear Modulus (GPa) = 41.18094 59.64011 50.41053
#
# Velocity S-wave (km/s) = 4.33884 5.22149 4.80049
# Velocity P-wave (km/s) = 7.72927 8.43066 8.08757
#
# Compressibility (1/GPa) = 0.01319655
#
# Stress axis : x y z
#
# Youngs Moduli (GPa) = 77.51907 76.53514 139.35289
#
# Poissons Ratio (x) = 0.51936 0.23610
# Poissons Ratio (y) = 0.52603 0.20799
# Poissons Ratio (z) = 0.13134 0.11423
#
# Static dielectric constant tensor:
#      x y z
#    x 4.009210 0.000000 0.000000 
#    y 0.000000 3.663630 0.000000 
#    z 0.000000 0.000000 4.217610 
# 
# 
# High freq. dielectric constant tensor:
#      x y z
#    x 1.879090 0.000000 0.000000 
#    y 0.000000 1.849550 0.000000 
#    z 0.000000 0.000000 1.887000 
# 
# From -- ./inp_files/40050.got.cif
#   From: 2010.03.12/outbox.cif.g09.slc.cpg/sg64_21_cif.got.tgz:40050.got - 2010.04.10 20:19:32.
