data_PCOD8264543
_publ_section_title
;
Structure prediction by ZEFSAII (Michael W. Deem and Ramdas Pophale) SiO2 
 PCOD8264543
Probable space group: C M C A
;
_chemical_formula_sum "Si O2"
_cell_formula_units_Z 64
_cell_length_a 17.981708
_cell_length_b 7.326217
_cell_length_c 20.315516
_cell_angle_alpha 90.000000
_cell_angle_beta 90.000000
_cell_angle_gamma 90.000000
_cell_volume 2676.323310
_symmetry_space_group_name_H-M "C M C A"
_symmetry_group_IT_number 64
_symmetry_cell_setting 'orthorhombic'
loop_
_space_group_symop_operation_xyz
x,y,z
-x,1/2-y,1/2+z
x,-y,-z
-x,1/2+y,1/2-z
-x,-y,-z
x,1/2+y,1/2-z
-x,y,z
x,1/2-y,1/2+z
1/2+x,1/2+y,z
1/2-x,-y,1/2+z
1/2+x,1/2-y,-z
1/2-x,y,1/2-z
1/2-x,1/2-y,-z
1/2+x,y,1/2-z
1/2-x,1/2+y,z
1/2+x,-y,1/2+z
loop_
_atom_site_type_symbol
_atom_site_label
_atom_site_fract_x
_atom_site_fract_y
_atom_site_fract_z
Si Si1 0.199648 0.416271 0.185998
Si Si2 0.337527 0.778816 0.377465
Si Si3 0.414322 0.851931 0.649366
Si Si4 0.419061 0.714461 0.004511
O O1 0.250000 0.444048 0.250000
O O2 0.395067 0.433313 0.147615
O O3 0.156960 0.603123 0.169583
O O4 0.139142 0.256480 0.200017
O O5 0.253901 0.859572 0.374637
O O6 0.357845 0.715705 0.452160
O O7 0.500000 0.832637 0.670424
O O8 0.397627 0.746564 0.580179
O O9 0.500000 0.802339 0.987797
O O10 0.426831 0.500000 0.000000
#
# Coordination Sequence:
#
# PCOD8264543 Si02
#       4
#    16  16  16  16
#     4  12  26  43  68  96 138 186 238 289 334 400
#     4  11  22  41  69  99 138 183 225 282 350 405
#     4  10  23  46  73 104 137 177 228 287 351 414
#     4   8  17  38  67 100 140 174 217 285 352 411
#
# _framework density 23.913405000000001
#
# number of rings (size 3 to 8) (size 9 to 14) (size 15 to 20)
#    0.000    1.750    2.500    3.000    0.000    5.000 
#    4.500    5.000    0.000    0.000    0.000    0.000 
#    0.000    0.000    0.000    0.000    0.000    0.000 
#
# Total GULP energy -396616.328758 kJ/mol
# GULP energy per Si atom -12394.260274 kJ/mol
# Density = 2.385898 g / cm^3
# Si number density = 23.913405 Si / 1000 Ang^3
#
#
#
# Elastic Constant Matrix: (Units=GPa)
#
#
# Indices 1 2 3 4 5 6 
#
# 1 132.6552 20.1774 27.4817 0.0000 0.0000 0.0000
# 2 20.1774 87.1990 11.6243 0.0000 0.0000 0.0000
# 3 27.4817 11.6243 58.1401 0.0000 0.0000 0.0000
# 4 0.0000 0.0000 0.0000 21.9491 0.0000 0.0000
# 5 0.0000 0.0000 0.0000 0.0000 16.0824 0.0000
# 6 0.0000 0.0000 0.0000 0.0000 0.0000 29.3576
#
#
#
# Elastic Compliance Matrix: (Units=1/GPa)
#
#
# Indices 1 2 3 4 5 6 
#
# 1 0.008538 -0.001477 -0.003740 0.000000 0.000000 0.000000
# 2 -0.001477 0.012038 -0.001709 0.000000 0.000000 0.000000
# 3 -0.003740 -0.001709 0.019309 0.000000 0.000000 0.000000
# 4 0.000000 0.000000 0.000000 0.045560 0.000000 0.000000
# 5 0.000000 0.000000 0.000000 0.000000 0.062180 0.000000
# 6 0.000000 0.000000 0.000000 0.000000 0.000000 0.034063
#
#
# Mechanical properties :
#
#
# Convention : Reuss Voigt Hill
#
# Bulk Modulus (GPa) = 38.41290 44.06235 41.23762
# Shear Modulus (GPa) = 24.48376 28.05855 26.27116
#
# Velocity S-wave (km/s) = 3.20324 3.42912 3.31810
# Velocity P-wave (km/s) = 5.45703 5.84331 5.65347
#
# Compressibility (1/GPa) = 0.02603292
#
# Stress axis : x y z
#
# Youngs Moduli (GPa) = 117.12515 83.07329 51.78815
#
# Poissons Ratio (x) = 0.12270 0.19371
# Poissons Ratio (y) = 0.17299 0.08849
# Poissons Ratio (z) = 0.43809 0.14194
#
# Static dielectric constant tensor:
#      x y z
#    x 4.452340 0.000000 0.000000 
#    y 0.000000 4.152310 0.000000 
#    z 0.000000 0.000000 4.902210 
# 
# 
# High freq. dielectric constant tensor:
#      x y z
#    x 1.944150 0.000000 0.000000 
#    y 0.000000 1.943680 0.000000 
#    z 0.000000 0.000000 1.934570 
# 
# From -- ./inp_files/50235.got.cif
#   From: 2010.03.12/outbox.cif.g09.slc.cpg/sg64_26_cif.got.tgz:50235.got - 2010.04.10 20:19:32.
