data_PCOD8264280
_publ_section_title
;
Structure prediction by ZEFSAII (Michael W. Deem and Ramdas Pophale) SiO2 
 PCOD8264280
Probable space group: C M C A
;
_chemical_formula_sum "Si O2"
_cell_formula_units_Z 56
_cell_length_a 33.175089
_cell_length_b 4.964379
_cell_length_c 14.815613
_cell_angle_alpha 90.000000
_cell_angle_beta 90.000000
_cell_angle_gamma 90.000000
_cell_volume 2440.038347
_symmetry_space_group_name_H-M "C M C A"
_symmetry_group_IT_number 64
_symmetry_cell_setting 'orthorhombic'
loop_
_space_group_symop_operation_xyz
x,y,z
-x,1/2-y,1/2+z
x,-y,-z
-x,1/2+y,1/2-z
-x,-y,-z
x,1/2+y,1/2-z
-x,y,z
x,1/2-y,1/2+z
1/2+x,1/2+y,z
1/2-x,-y,1/2+z
1/2+x,1/2-y,-z
1/2-x,y,1/2-z
1/2-x,1/2-y,-z
1/2+x,y,1/2-z
1/2-x,1/2+y,z
1/2+x,-y,1/2+z
loop_
_atom_site_type_symbol
_atom_site_label
_atom_site_fract_x
_atom_site_fract_y
_atom_site_fract_z
Si Si1 0.000000 0.226013 0.310338
Si Si2 0.360240 0.442234 0.191470
Si Si3 0.224101 0.006847 0.104555
Si Si4 0.072615 0.242834 0.940452
O O1 0.039592 0.164797 0.368282
O O2 0.000000 0.532386 0.276334
O O3 0.370030 0.741715 0.225877
O O4 0.313811 0.421994 0.163883
O O5 0.387350 0.372459 0.105830
O O6 0.239313 0.305395 0.128145
O O7 0.211557 0.000000 0.000000
O O8 0.084733 0.500000 0.000000
O O9 0.054189 0.000000 0.000000
#
# Coordination Sequence:
#
# PCOD8264280 Si02
#       4
#     8  16  16  16
#     4  12  24  44  70 100 134 164 206 262 318 370
#     4  12  25  41  63  94 129 166 212 267 323 372
#     4  10  22  40  62  88 122 165 211 259 315 379
#     4  12  25  44  68  95 129 171 215 255 310 381
#
# _framework density 22.950458000000001
#
# number of rings (size 3 to 8) (size 9 to 14) (size 15 to 20)
#    0.000    0.571    0.000    8.571    0.000    6.857 
#    0.000    0.000    0.000    0.000    0.000    0.000 
#    0.000    0.000    0.000    0.000    0.000    0.000 
#
# Total GULP energy -347473.400617 kJ/mol
# GULP energy per Si atom -12409.764308 kJ/mol
# Density = 2.289822 g / cm^3
# Si number density = 22.950458 Si / 1000 Ang^3
#
#
#
# Elastic Constant Matrix: (Units=GPa)
#
#
# Indices 1 2 3 4 5 6 
#
# 1 95.6673 15.5033 40.6826 0.0000 0.0000 0.0000
# 2 15.5033 111.7913 32.5911 0.0000 0.0000 0.0000
# 3 40.6826 32.5911 89.2337 0.0000 0.0000 0.0000
# 4 0.0000 0.0000 0.0000 56.4179 0.0000 0.0000
# 5 0.0000 0.0000 0.0000 0.0000 25.9675 0.0000
# 6 0.0000 0.0000 0.0000 0.0000 0.0000 16.6435
#
#
#
# Elastic Compliance Matrix: (Units=1/GPa)
#
#
# Indices 1 2 3 4 5 6 
#
# 1 0.012968 -0.000084 -0.005881 0.000000 0.000000 0.000000
# 2 -0.000084 0.010012 -0.003618 0.000000 0.000000 0.000000
# 3 -0.005881 -0.003618 0.015210 0.000000 0.000000 0.000000
# 4 0.000000 0.000000 0.000000 0.017725 0.000000 0.000000
# 5 0.000000 0.000000 0.000000 0.000000 0.038510 0.000000
# 6 0.000000 0.000000 0.000000 0.000000 0.000000 0.060084
#
#
# Mechanical properties :
#
#
# Convention : Reuss Voigt Hill
#
# Bulk Modulus (GPa) = 52.57186 52.69401 52.63294
# Shear Modulus (GPa) = 27.77549 33.66679 30.72114
#
# Velocity S-wave (km/s) = 3.48262 3.83421 3.66264
# Velocity P-wave (km/s) = 6.25523 6.52773 6.39293
#
# Compressibility (1/GPa) = 0.01902158
#
# Stress axis : x y z
#
# Youngs Moduli (GPa) = 77.11552 99.88254 65.74822
#
# Poissons Ratio (x) = 0.00836 0.38670
# Poissons Ratio (y) = 0.00645 0.23791
# Poissons Ratio (z) = 0.45355 0.36142
#
# Static dielectric constant tensor:
#      x y z
#    x 3.942180 0.000000 0.000000 
#    y 0.000000 4.209550 0.000000 
#    z 0.000000 0.000000 4.248690 
# 
# 
# High freq. dielectric constant tensor:
#      x y z
#    x 1.906120 0.000000 0.000000 
#    y 0.000000 1.921130 0.000000 
#    z 0.000000 0.000000 1.916430 
# 
# From -- ./inp_files/28218.got.cif
#   From: 2010.03.12/outbox.cif.g09.slc.cpg/sg64_15_cif.got.tgz:28218.got - 2010.04.10 20:19:32.
