data_PCOD8264185
_publ_section_title
;
Structure prediction by ZEFSAII (Michael W. Deem and Ramdas Pophale) SiO2 
 PCOD8264185
Probable space group: C M C A
;
_chemical_formula_sum "Si O2"
_cell_formula_units_Z 112
_cell_length_a 30.149454
_cell_length_b 15.244348
_cell_length_c 10.886179
_cell_angle_alpha 90.000000
_cell_angle_beta 90.000000
_cell_angle_gamma 90.000000
_cell_volume 5003.383327
_symmetry_space_group_name_H-M "C M C A"
_symmetry_group_IT_number 64
_symmetry_cell_setting 'orthorhombic'
loop_
_space_group_symop_operation_xyz
x,y,z
-x,1/2-y,1/2+z
x,-y,-z
-x,1/2+y,1/2-z
-x,-y,-z
x,1/2+y,1/2-z
-x,y,z
x,1/2-y,1/2+z
1/2+x,1/2+y,z
1/2-x,-y,1/2+z
1/2+x,1/2-y,-z
1/2-x,y,1/2-z
1/2-x,1/2-y,-z
1/2+x,y,1/2-z
1/2-x,1/2+y,z
1/2+x,-y,1/2+z
loop_
_atom_site_type_symbol
_atom_site_label
_atom_site_fract_x
_atom_site_fract_y
_atom_site_fract_z
Si Si1 0.949696 0.114777 0.195574
Si Si2 0.201134 0.818207 0.785051
Si Si3 0.621316 0.087834 0.937744
Si Si4 0.049849 0.318333 0.205311
Si Si5 0.331932 0.745627 0.464397
Si Si6 0.094451 0.111006 0.940526
Si Si7 0.134319 0.978712 0.776746
O O1 0.943790 0.215944 0.229191
O O2 0.912456 0.063408 0.274638
O O3 0.000000 0.083020 0.223749
O O4 0.938261 0.094672 0.053807
O O5 0.250000 0.851245 0.750000
O O6 0.187995 0.750424 0.674168
O O7 0.170592 0.903970 0.795159
O O8 0.200000 0.770390 0.919228
O O9 0.580572 0.151280 0.906357
O O10 0.648756 0.055179 0.817352
O O11 0.654847 0.143126 0.021708
O O12 0.603575 0.000000 0.000000
O O13 0.062219 0.370283 0.327248
O O14 0.000000 0.340347 0.166338
O O15 0.374238 0.807706 0.472710
O O16 0.124502 0.025455 0.907531
#
# Coordination Sequence:
#
# PCOD8264185 Si02
#       7
#    16  16  16  16  16  16  16
#     4  11  22  38  64  97 137 182 237 292 348 423
#     4  12  26  47  75 110 144 181 234 293 356 430
#     4  11  22  40  69  90 130 183 231 290 352 415
#     4  10  22  38  57  94 139 186 238 292 347 415
#     4  12  24  48  75 103 137 189 235 288 354 437
#     4  11  22  39  69  94 134 188 239 285 354 419
#     4  11  23  42  64 101 138 182 227 294 356 413
#
# _framework density 22.384851999999999
#
# number of rings (size 3 to 8) (size 9 to 14) (size 15 to 20)
#    0.000    0.857    4.286    3.857    0.000    3.714 
#    0.000    5.714    0.000    0.000    0.000    0.000 
#    0.000    0.000    0.000    0.000    0.000    0.000 
#
# Total GULP energy -694009.636040 kJ/mol
# GULP energy per Si atom -12393.029215 kJ/mol
# Density = 2.233390 g / cm^3
# Si number density = 22.384852 Si / 1000 Ang^3
#
#
#
# Elastic Constant Matrix: (Units=GPa)
#
#
# Indices 1 2 3 4 5 6 
#
# 1 73.2192 47.2731 7.5020 0.0000 0.0000 0.0000
# 2 47.2731 92.4696 16.2208 0.0000 0.0000 0.0000
# 3 7.5020 16.2208 84.0259 0.0000 0.0000 0.0000
# 4 0.0000 0.0000 0.0000 37.8826 0.0000 0.0000
# 5 0.0000 0.0000 0.0000 0.0000 16.1591 0.0000
# 6 0.0000 0.0000 0.0000 0.0000 0.0000 17.4043
#
#
#
# Elastic Compliance Matrix: (Units=1/GPa)
#
#
# Indices 1 2 3 4 5 6 
#
# 1 0.020390 -0.010459 0.000199 0.000000 0.000000 0.000000
# 2 -0.010459 0.016558 -0.002263 0.000000 0.000000 0.000000
# 3 0.000199 -0.002263 0.012320 0.000000 0.000000 0.000000
# 4 0.000000 0.000000 0.000000 0.026397 0.000000 0.000000
# 5 0.000000 0.000000 0.000000 0.000000 0.061885 0.000000
# 6 0.000000 0.000000 0.000000 0.000000 0.000000 0.057457
#
#
# Mechanical properties :
#
#
# Convention : Reuss Voigt Hill
#
# Bulk Modulus (GPa) = 41.28409 43.52294 42.40351
# Shear Modulus (GPa) = 21.91762 26.20377 24.06070
#
# Velocity S-wave (km/s) = 3.13250 3.42512 3.28207
# Velocity P-wave (km/s) = 5.61839 5.92682 5.77466
#
# Compressibility (1/GPa) = 0.02422241
#
# Stress axis : x y z
#
# Youngs Moduli (GPa) = 49.04416 60.39358 81.16772
#
# Poissons Ratio (x) = 0.63164 -0.01612
# Poissons Ratio (y) = 0.51294 0.18366
# Poissons Ratio (z) = -0.00974 0.13665
#
# Static dielectric constant tensor:
#      x y z
#    x 3.809330 0.000000 0.000000 
#    y 0.000000 4.222920 0.000000 
#    z 0.000000 0.000000 4.374150 
# 
# 
# High freq. dielectric constant tensor:
#      x y z
#    x 1.849760 0.000000 0.000000 
#    y 0.000000 1.897160 0.000000 
#    z 0.000000 0.000000 1.899080 
# 
# From -- ./inp_files/19853.got.cif
#   From: 2010.03.12/outbox.cif.g09.slc.cpg/sg64_10_cif.got.tgz:19853.got - 2010.04.10 20:19:32.
