data_PCOD8264682
_publ_section_title
;
Structure prediction by ZEFSAII (Michael W. Deem and Ramdas Pophale) SiO2 
 PCOD8264682
Probable space group: C M C A
;
_chemical_formula_sum "Si O2"
_cell_formula_units_Z 80
_cell_length_a 14.933938
_cell_length_b 15.466579
_cell_length_c 17.498017
_cell_angle_alpha 90.000000
_cell_angle_beta 90.000000
_cell_angle_gamma 90.000000
_cell_volume 4041.638280
_symmetry_space_group_name_H-M "C M C A"
_symmetry_group_IT_number 64
_symmetry_cell_setting 'orthorhombic'
loop_
_space_group_symop_operation_xyz
x,y,z
-x,1/2-y,1/2+z
x,-y,-z
-x,1/2+y,1/2-z
-x,-y,-z
x,1/2+y,1/2-z
-x,y,z
x,1/2-y,1/2+z
1/2+x,1/2+y,z
1/2-x,-y,1/2+z
1/2+x,1/2-y,-z
1/2-x,y,1/2-z
1/2-x,1/2-y,-z
1/2+x,y,1/2-z
1/2-x,1/2+y,z
1/2+x,-y,1/2+z
loop_
_atom_site_type_symbol
_atom_site_label
_atom_site_fract_x
_atom_site_fract_y
_atom_site_fract_z
Si Si1 0.103152 0.947695 0.424435
Si Si2 0.402959 0.680364 0.819013
Si Si3 0.155934 0.674994 0.289729
Si Si4 0.771492 0.283120 0.082570
Si Si5 0.854685 0.493629 0.241044
O O1 0.165208 0.864898 0.419598
O O2 0.000000 0.918840 0.430618
O O3 0.131631 0.000000 0.500000
O O4 0.119245 0.004833 0.348379
O O5 0.500000 0.689102 0.860888
O O6 0.401328 0.752946 0.753413
O O7 0.321595 0.691224 0.877180
O O8 0.403300 0.588168 0.777448
O O9 0.250000 0.661841 0.250000
O O10 0.174711 0.706065 0.375789
O O11 0.110660 0.579963 0.285548
O O12 0.750000 0.250000 0.000000
O O13 0.750000 0.476608 0.250000
#
# Coordination Sequence:
#
# PCOD8264682 Si02
#       5
#    16  16  16  16  16
#     4  11  25  42  65  96 127 165 215 270 324 379
#     4  11  22  40  64  93 128 164 211 263 312 376
#     4   9  21  38  62  92 121 167 212 252 311 372
#     4  11  24  42  63  93 133 170 208 264 322 379
#     4  11  20  40  67  93 128 167 212 264 320 376
#
# _framework density 19.793953999999999
#
# number of rings (size 3 to 8) (size 9 to 14) (size 15 to 20)
#    0.000    1.400    4.000    1.200    8.400    2.400 
#    0.000    0.000    0.000    4.200    0.000    0.000 
#    0.000    0.000    0.000    0.000    0.000    0.000 
#
# Total GULP energy -495886.932363 kJ/mol
# GULP energy per Si atom -12397.173309 kJ/mol
# Density = 1.974890 g / cm^3
# Si number density = 19.793954 Si / 1000 Ang^3
#
#
#
# Elastic Constant Matrix: (Units=GPa)
#
#
# Indices 1 2 3 4 5 6 
#
# 1 105.5343 37.2365 34.5539 0.0000 0.0000 0.0000
# 2 37.2365 155.1748 53.2374 0.0000 0.0000 0.0000
# 3 34.5539 53.2374 142.4927 0.0000 0.0000 0.0000
# 4 0.0000 0.0000 0.0000 28.4621 0.0000 0.0000
# 5 0.0000 0.0000 0.0000 0.0000 23.5675 0.0000
# 6 0.0000 0.0000 0.0000 0.0000 0.0000 -7.0893
#
#
#
# Elastic Compliance Matrix: (Units=1/GPa)
#
#
# Indices 1 2 3 4 5 6 
#
# 1 0.010778 -0.001938 -0.001890 0.000000 0.000000 0.000000
# 2 -0.001938 0.007740 -0.002422 0.000000 0.000000 0.000000
# 3 -0.001890 -0.002422 0.008381 0.000000 0.000000 0.000000
# 4 0.000000 0.000000 0.000000 0.035134 0.000000 0.000000
# 5 0.000000 0.000000 0.000000 0.000000 0.042431 0.000000
# 6 0.000000 0.000000 0.000000 0.000000 0.000000 -0.141059
#
#
# Mechanical properties :
#
#
# Convention : Reuss Voigt Hill
#
# Bulk Modulus (GPa) = 69.44311 72.58416 71.01363
# Shear Modulus (GPa) = -259.14394 27.53303 -115.80546
#
# Velocity S-wave (km/s) = -11.45447 3.73363 -7.65718
# Velocity P-wave (km/s) = 11.82289 7.43883 6.49787
#
# Compressibility (1/GPa) = 0.01440028
#
# Stress axis : x y z
#
# Youngs Moduli (GPa) = 92.78078 129.19342 119.31786
#
# Poissons Ratio (x) = 0.25039 0.22546
# Poissons Ratio (y) = 0.17982 0.28898
# Poissons Ratio (z) = 0.17531 0.31290
#
# Static dielectric constant tensor:
#      x y z
#    x 3.701780 0.000000 0.000000 
#    y 0.000000 4.030960 0.000000 
#    z 0.000000 0.000000 3.566310 
# 
# 
# High freq. dielectric constant tensor:
#      x y z
#    x 1.777750 0.000000 0.000000 
#    y 0.000000 1.783830 0.000000 
#    z 0.000000 0.000000 1.758180 
# 
# From -- ./inp_files/32996.got.cif
#   From: 2010.03.12/outbox.cif.g09.slc.cpg/sg64_17_cif.got.tgz:32996.got - 2010.04.10 20:19:32.
