data_PCOD8264451
_publ_section_title
;
Structure prediction by ZEFSAII (Michael W. Deem and Ramdas Pophale) SiO2 
 PCOD8264451
Probable space group: C M C A
;
_chemical_formula_sum "Si O2"
_cell_formula_units_Z 80
_cell_length_a 13.204947
_cell_length_b 13.732076
_cell_length_c 23.258770
_cell_angle_alpha 90.000000
_cell_angle_beta 90.000000
_cell_angle_gamma 90.000000
_cell_volume 4217.543833
_symmetry_space_group_name_H-M "C M C A"
_symmetry_group_IT_number 64
_symmetry_cell_setting 'orthorhombic'
loop_
_space_group_symop_operation_xyz
x,y,z
-x,1/2-y,1/2+z
x,-y,-z
-x,1/2+y,1/2-z
-x,-y,-z
x,1/2+y,1/2-z
-x,y,z
x,1/2-y,1/2+z
1/2+x,1/2+y,z
1/2-x,-y,1/2+z
1/2+x,1/2-y,-z
1/2-x,y,1/2-z
1/2-x,1/2-y,-z
1/2+x,y,1/2-z
1/2-x,1/2+y,z
1/2+x,-y,1/2+z
loop_
_atom_site_type_symbol
_atom_site_label
_atom_site_fract_x
_atom_site_fract_y
_atom_site_fract_z
Si Si1 0.336233 0.530899 0.294803
Si Si2 0.000000 0.094619 0.111446
Si Si3 0.000000 0.661152 0.257435
Si Si4 0.719526 0.015475 0.411052
Si Si5 0.000000 0.628765 0.804462
Si Si6 0.210879 0.644930 0.984816
Si Si7 0.000000 0.694049 0.934790
O O1 0.250000 0.513071 0.250000
O O2 0.401402 0.626428 0.278072
O O3 0.284393 0.545778 0.356024
O O4 0.401408 0.433451 0.291077
O O5 0.000000 0.116116 0.178965
O O6 0.100184 0.033451 0.096690
O O7 0.000000 0.189029 0.070493
O O8 0.000000 0.777710 0.262598
O O9 0.771105 0.078446 0.460396
O O10 0.732114 0.901910 0.429154
O O11 0.000000 0.653918 0.870869
O O12 0.093305 0.653091 0.970466
O O13 0.250000 0.750000 0.000000
#
# Coordination Sequence:
#
# PCOD8264451 Si02
#       7
#    16   8   8  16   8  16   8
#     4  11  22  42  66  95 128 164 216 264 315 387
#     4  11  21  41  67  92 128 174 205 257 321 390
#     4  10  23  40  65  93 127 169 207 253 326 375
#     4  11  24  41  68  93 129 169 215 267 325 382
#     4  10  23  42  63  94 129 170 205 265 323 377
#     4  11  24  42  64  96 128 169 215 268 323 380
#     4  11  21  41  69  90 128 169 218 258 324 382
#
# _framework density 18.968385999999999
#
# number of rings (size 3 to 8) (size 9 to 14) (size 15 to 20)
#    0.000    1.200    6.000    0.000    0.000    6.400 
#    3.600    0.000    0.000    0.000    0.000    0.000 
#    0.000    0.000    0.000    0.000    0.000    0.000 
#
# Total GULP energy -495951.727307 kJ/mol
# GULP energy per Si atom -12398.793183 kJ/mol
# Density = 1.892521 g / cm^3
# Si number density = 18.968386 Si / 1000 Ang^3
#
#
#
# Elastic Constant Matrix: (Units=GPa)
#
#
# Indices 1 2 3 4 5 6 
#
# 1 180.5961 67.8208 65.0138 0.0000 0.0000 0.0000
# 2 67.8208 106.4974 37.4390 0.0000 0.0000 0.0000
# 3 65.0138 37.4390 114.0279 0.0000 0.0000 0.0000
# 4 0.0000 0.0000 0.0000 31.6342 0.0000 0.0000
# 5 0.0000 0.0000 0.0000 0.0000 28.4189 0.0000
# 6 0.0000 0.0000 0.0000 0.0000 0.0000 28.6804
#
#
#
# Elastic Compliance Matrix: (Units=1/GPa)
#
#
# Indices 1 2 3 4 5 6 
#
# 1 0.008292 -0.004091 -0.003385 0.000000 0.000000 0.000000
# 2 -0.004091 0.012633 -0.001816 0.000000 0.000000 0.000000
# 3 -0.003385 -0.001816 0.011296 0.000000 0.000000 0.000000
# 4 0.000000 0.000000 0.000000 0.031611 0.000000 0.000000
# 5 0.000000 0.000000 0.000000 0.000000 0.035188 0.000000
# 6 0.000000 0.000000 0.000000 0.000000 0.000000 0.034867
#
#
# Mechanical properties :
#
#
# Convention : Reuss Voigt Hill
#
# Bulk Modulus (GPa) = 73.31860 82.40763 77.86311
# Shear Modulus (GPa) = 31.84412 33.13655 32.49034
#
# Velocity S-wave (km/s) = 4.10176 4.18417 4.14317
# Velocity P-wave (km/s) = 7.82110 8.17815 8.00161
#
# Compressibility (1/GPa) = 0.01363910
#
# Stress axis : x y z
#
# Youngs Moduli (GPa) = 120.60036 79.15642 88.52983
#
# Poissons Ratio (x) = 0.32380 0.29963
# Poissons Ratio (y) = 0.49334 0.16073
# Poissons Ratio (z) = 0.40818 0.14371
#
# Static dielectric constant tensor:
#      x y z
#    x 3.662400 0.000000 0.000000 
#    y 0.000000 3.458410 0.000000 
#    z 0.000000 0.000000 2.407160 
# 
# 
# High freq. dielectric constant tensor:
#      x y z
#    x 1.752270 0.000000 0.000000 
#    y 0.000000 1.737990 0.000000 
#    z 0.000000 0.000000 1.747640 
# 
# From -- ./inp_files/44008.got.cif
#   From: 2010.03.12/outbox.cif.g09.slc.cpg/sg64_23_cif.got.tgz:44008.got - 2010.04.10 20:19:32.
