data_PCOD8264288
_publ_section_title
;
Structure prediction by ZEFSAII (Michael W. Deem and Ramdas Pophale) SiO2 
 PCOD8264288
Probable space group: C M C A
;
_chemical_formula_sum "Si O2"
_cell_formula_units_Z 104
_cell_length_a 27.144593
_cell_length_b 10.039309
_cell_length_c 19.487444
_cell_angle_alpha 90.000000
_cell_angle_beta 90.000000
_cell_angle_gamma 90.000000
_cell_volume 5310.580985
_symmetry_space_group_name_H-M "C M C A"
_symmetry_group_IT_number 64
_symmetry_cell_setting 'orthorhombic'
loop_
_space_group_symop_operation_xyz
x,y,z
-x,1/2-y,1/2+z
x,-y,-z
-x,1/2+y,1/2-z
-x,-y,-z
x,1/2+y,1/2-z
-x,y,z
x,1/2-y,1/2+z
1/2+x,1/2+y,z
1/2-x,-y,1/2+z
1/2+x,1/2-y,-z
1/2-x,y,1/2-z
1/2-x,1/2-y,-z
1/2+x,y,1/2-z
1/2-x,1/2+y,z
1/2+x,-y,1/2+z
loop_
_atom_site_type_symbol
_atom_site_label
_atom_site_fract_x
_atom_site_fract_y
_atom_site_fract_z
Si Si1 0.202557 0.000000 0.500000
Si Si2 0.942441 0.597383 0.791008
Si Si3 0.851686 0.322903 0.894990
Si Si4 0.221042 0.105728 0.180887
Si Si5 0.619251 0.360110 0.757283
Si Si6 0.054246 0.438699 0.926251
Si Si7 0.763857 0.845142 0.098527
O O1 0.169795 0.049589 0.436154
O O2 0.237907 0.117530 0.527092
O O3 0.919411 0.481484 0.743641
O O4 0.911685 0.730239 0.777254
O O5 0.936060 0.554850 0.870435
O O6 0.000000 0.618398 0.772109
O O7 0.850151 0.346296 0.813500
O O8 0.909163 0.313290 0.916172
O O9 0.821466 0.190832 0.914987
O O10 0.250000 0.137001 0.250000
O O11 0.161830 0.111338 0.187360
O O12 0.236455 0.215115 0.125781
O O13 0.238635 0.962997 0.153674
O O14 0.000000 0.378213 0.916878
O O15 0.062139 0.500000 0.000000
#
# Coordination Sequence:
#
# PCOD8264288 Si02
#       7
#     8  16  16  16  16  16  16
#     4  12  24  42  59  90 125 166 214 258 308 378
#     4  10  22  40  63  92 127 161 203 262 320 376
#     4  11  22  38  62  86 124 159 206 255 313 364
#     4  12  25  39  63  89 128 162 212 256 314 376
#     4  11  23  38  62  95 122 162 207 255 319 375
#     4   9  19  37  63  93 121 159 211 258 306 372
#     4  12  25  41  60  90 127 170 205 261 310 377
#
# _framework density 19.583544
#
# number of rings (size 3 to 8) (size 9 to 14) (size 15 to 20)
#    0.000    1.077    3.846    2.308    6.462    0.615 
#    0.000    0.000    0.000    0.000    0.000    0.538 
#    0.000    0.769    0.000    0.000    0.000    0.000 
#
# Total GULP energy -644704.170774 kJ/mol
# GULP energy per Si atom -12398.157130 kJ/mol
# Density = 1.953897 g / cm^3
# Si number density = 19.583544 Si / 1000 Ang^3
#
#
#
# Elastic Constant Matrix: (Units=GPa)
#
#
# Indices 1 2 3 4 5 6 
#
# 1 129.9333 39.6643 42.7745 0.0000 0.0000 0.0000
# 2 39.6643 87.4146 21.1353 0.0000 0.0000 0.0000
# 3 42.7745 21.1353 68.5277 0.0000 0.0000 0.0000
# 4 0.0000 0.0000 0.0000 25.3300 0.0000 0.0000
# 5 0.0000 0.0000 0.0000 0.0000 26.5155 0.0000
# 6 0.0000 0.0000 0.0000 0.0000 0.0000 34.8969
#
#
#
# Elastic Compliance Matrix: (Units=1/GPa)
#
#
# Indices 1 2 3 4 5 6 
#
# 1 0.010574 -0.003460 -0.005533 0.000000 0.000000 0.000000
# 2 -0.003460 0.013494 -0.002002 0.000000 0.000000 0.000000
# 3 -0.005533 -0.002002 0.018664 0.000000 0.000000 0.000000
# 4 0.000000 0.000000 0.000000 0.039479 0.000000 0.000000
# 5 0.000000 0.000000 0.000000 0.000000 0.037714 0.000000
# 6 0.000000 0.000000 0.000000 0.000000 0.000000 0.028656
#
#
# Mechanical properties :
#
#
# Convention : Reuss Voigt Hill
#
# Bulk Modulus (GPa) = 48.21304 54.78044 51.49674
# Shear Modulus (GPa) = 28.17151 29.50190 28.83671
#
# Velocity S-wave (km/s) = 3.79691 3.88553 3.84148
# Velocity P-wave (km/s) = 6.62530 6.93997 6.78446
#
# Compressibility (1/GPa) = 0.02074128
#
# Stress axis : x y z
#
# Youngs Moduli (GPa) = 94.57141 74.10802 53.57981
#
# Poissons Ratio (x) = 0.25643 0.29646
# Poissons Ratio (y) = 0.32723 0.10726
# Poissons Ratio (z) = 0.52327 0.14836
#
# Static dielectric constant tensor:
#      x y z
#    x 4.030680 0.000000 0.000000 
#    y 0.000000 3.489570 0.000000 
#    z 0.000000 0.000000 3.625320 
# 
# 
# High freq. dielectric constant tensor:
#      x y z
#    x 1.785170 0.000000 0.000000 
#    y 0.000000 1.744250 0.000000 
#    z 0.000000 0.000000 1.763490 
# 
# From -- ./inp_files/41880.got.cif
#   From: 2010.03.12/outbox.cif.g09.slc.cpg/sg64_21_cif.got.tgz:41880.got - 2010.04.10 20:19:32.
