data_PCOD8264744
_publ_section_title
;
Structure prediction by ZEFSAII (Michael W. Deem and Ramdas Pophale) SiO2 
 PCOD8264744
Probable space group: C M C A
;
_chemical_formula_sum "Si O2"
_cell_formula_units_Z 64
_cell_length_a 14.027706
_cell_length_b 8.884761
_cell_length_c 26.637902
_cell_angle_alpha 90.000000
_cell_angle_beta 90.000000
_cell_angle_gamma 90.000000
_cell_volume 3319.956717
_symmetry_space_group_name_H-M "C M C A"
_symmetry_group_IT_number 64
_symmetry_cell_setting 'orthorhombic'
loop_
_space_group_symop_operation_xyz
x,y,z
-x,1/2-y,1/2+z
x,-y,-z
-x,1/2+y,1/2-z
-x,-y,-z
x,1/2+y,1/2-z
-x,y,z
x,1/2-y,1/2+z
1/2+x,1/2+y,z
1/2-x,-y,1/2+z
1/2+x,1/2-y,-z
1/2-x,y,1/2-z
1/2-x,1/2-y,-z
1/2+x,y,1/2-z
1/2-x,1/2+y,z
1/2+x,-y,1/2+z
loop_
_atom_site_type_symbol
_atom_site_label
_atom_site_fract_x
_atom_site_fract_y
_atom_site_fract_z
Si Si1 0.500000 0.106180 0.545717
Si Si2 0.500000 0.678893 0.800297
Si Si3 0.500000 0.647529 0.531070
Si Si4 0.646436 0.186082 0.880813
Si Si5 0.850470 0.961037 0.127220
Si Si6 0.500000 0.961177 0.191439
O O1 0.500000 0.265979 0.521148
O O2 0.593868 0.077427 0.577241
O O3 0.500000 0.000000 0.500000
O O4 0.404152 0.614719 0.825807
O O5 0.500000 0.623706 0.743827
O O6 0.500000 0.859311 0.802543
O O7 0.500000 0.500000 0.500000
O O8 0.406291 0.673267 0.565333
O O9 0.748745 0.110990 0.882619
O O10 0.654285 0.359780 0.864211
O O11 0.592340 0.091115 0.838744
#
# Coordination Sequence:
#
# PCOD8264744 Si02
#       6
#     8   8   8  16  16   8
#     4  11  21  43  60  88 125 168 204 257 301 360
#     4  11  23  43  68  93 122 164 195 256 305 373
#     4  11  25  39  62  88 127 164 212 251 307 358
#     4  11  24  42  61  95 124 163 205 259 299 369
#     4  11  24  40  65  91 128 159 209 251 310 358
#     4  11  23  43  68  91 126 157 205 246 315 362
#
# _framework density 19.277360000000002
#
# number of rings (size 3 to 8) (size 9 to 14) (size 15 to 20)
#    0.000    1.000    2.500    5.250   10.500    3.000 
#    0.000    5.000    0.000    0.000    0.000    0.000 
#    0.000    0.000    0.000    0.000    0.000    0.000 
#
# Total GULP energy -396599.153408 kJ/mol
# GULP energy per Si atom -12393.723544 kJ/mol
# Density = 1.923348 g / cm^3
# Si number density = 19.277360 Si / 1000 Ang^3
#
#
#
# Elastic Constant Matrix: (Units=GPa)
#
#
# Indices 1 2 3 4 5 6 
#
# 1 172.7488 60.4264 54.3453 0.0000 0.0000 0.0000
# 2 60.4264 202.3221 54.0472 0.0000 0.0000 0.0000
# 3 54.3453 54.0472 122.3607 0.0000 0.0000 0.0000
# 4 0.0000 0.0000 0.0000 43.4963 0.0000 0.0000
# 5 0.0000 0.0000 0.0000 0.0000 -23.3515 0.0000
# 6 0.0000 0.0000 0.0000 0.0000 0.0000 32.8393
#
#
#
# Elastic Compliance Matrix: (Units=1/GPa)
#
#
# Indices 1 2 3 4 5 6 
#
# 1 0.007083 -0.001446 -0.002507 0.000000 0.000000 0.000000
# 2 -0.001446 0.005899 -0.001963 0.000000 0.000000 0.000000
# 3 -0.002507 -0.001963 0.010153 0.000000 0.000000 0.000000
# 4 0.000000 0.000000 0.000000 0.022990 0.000000 0.000000
# 5 0.000000 0.000000 0.000000 0.000000 -0.042824 0.000000
# 6 0.000000 0.000000 0.000000 0.000000 0.000000 0.030451
#
#
# Mechanical properties :
#
#
# Convention : Reuss Voigt Hill
#
# Bulk Modulus (GPa) = 88.47603 92.78548 90.63076
# Shear Modulus (GPa) = 101.30849 32.50434 66.90641
#
# Velocity S-wave (km/s) = 7.25722 4.11072 5.89768
# Velocity P-wave (km/s) = 10.78049 8.41231 9.66918
#
# Compressibility (1/GPa) = 0.01130250
#
# Stress axis : x y z
#
# Youngs Moduli (GPa) = 141.17812 169.52293 98.48853
#
# Poissons Ratio (x) = 0.24508 0.24695
# Poissons Ratio (y) = 0.20410 0.19338
# Poissons Ratio (z) = 0.35399 0.33285
#
# Static dielectric constant tensor:
#      x y z
#    x 3.571560 0.000000 0.000000 
#    y 0.000000 3.808310 0.000000 
#    z 0.000000 0.000000 3.566260 
# 
# 
# High freq. dielectric constant tensor:
#      x y z
#    x 1.755160 0.000000 0.000000 
#    y 0.000000 1.780560 0.000000 
#    z 0.000000 0.000000 1.761100 
# 
# From -- ./inp_files/44822.got.cif
#   From: 2010.03.12/outbox.cif.g09.slc.cpg/sg64_23_cif.got.tgz:44822.got - 2010.04.10 20:19:32.
