data_PCOD8264868
_publ_section_title
;
Structure prediction by ZEFSAII (Michael W. Deem and Ramdas Pophale) SiO2 
 PCOD8264868
Probable space group: C M C A
;
_chemical_formula_sum "Si O2"
_cell_formula_units_Z 80
_cell_length_a 17.929938
_cell_length_b 24.896868
_cell_length_c 8.819046
_cell_angle_alpha 90.000000
_cell_angle_beta 90.000000
_cell_angle_gamma 90.000000
_cell_volume 3936.815958
_symmetry_space_group_name_H-M "C M C A"
_symmetry_group_IT_number 64
_symmetry_cell_setting 'orthorhombic'
loop_
_space_group_symop_operation_xyz
x,y,z
-x,1/2-y,1/2+z
x,-y,-z
-x,1/2+y,1/2-z
-x,-y,-z
x,1/2+y,1/2-z
-x,y,z
x,1/2-y,1/2+z
1/2+x,1/2+y,z
1/2-x,-y,1/2+z
1/2+x,1/2-y,-z
1/2-x,y,1/2-z
1/2-x,1/2-y,-z
1/2+x,y,1/2-z
1/2-x,1/2+y,z
1/2+x,-y,1/2+z
loop_
_atom_site_type_symbol
_atom_site_label
_atom_site_fract_x
_atom_site_fract_y
_atom_site_fract_z
Si Si1 0.805196 0.354630 0.385214
Si Si2 0.777630 0.056989 0.421159
Si Si3 0.416817 0.685853 0.686339
Si Si4 0.584390 0.372389 0.625156
Si Si5 0.828941 0.294385 0.672307
O O1 0.750000 0.339057 0.250000
O O2 0.778605 0.406080 0.480427
O O3 0.884817 0.361264 0.297849
O O4 0.813946 0.303038 0.494098
O O5 0.750000 0.052270 0.250000
O O6 0.862260 0.078263 0.419788
O O7 0.777830 0.000000 0.500000
O O8 0.500000 0.699845 0.739994
O O9 0.415528 0.669076 0.512734
O O10 0.365076 0.737534 0.705590
O O11 0.500000 0.393273 0.656781
O O12 0.615780 0.341648 0.771608
O O13 0.750000 0.302010 0.750000
#
# Coordination Sequence:
#
# PCOD8264868 Si02
#       5
#    16  16  16  16  16
#     4  12  22  42  66  98 131 174 224 280 324 389
#     4  12  25  47  73  99 124 167 226 281 341 399
#     4  11  25  39  61  98 139 183 220 264 329 392
#     4  11  23  43  65  96 138 175 215 268 336 396
#     4  12  22  39  63  96 136 179 227 264 315 388
#
# _framework density 20.320990999999999
#
# number of rings (size 3 to 8) (size 9 to 14) (size 15 to 20)
#    0.000    0.400    6.000    3.000    0.000    6.000 
#    0.000    0.000    0.000    1.200    0.000    0.000 
#    0.000    0.000    0.000    0.000    0.000    0.000 
#
# Total GULP energy -495904.788401 kJ/mol
# GULP energy per Si atom -12397.619710 kJ/mol
# Density = 2.027474 g / cm^3
# Si number density = 20.320991 Si / 1000 Ang^3
#
#
#
# Elastic Constant Matrix: (Units=GPa)
#
#
# Indices 1 2 3 4 5 6 
#
# 1 129.7345 61.0514 58.8325 0.0000 0.0000 0.0000
# 2 61.0514 97.9629 39.6398 0.0000 0.0000 0.0000
# 3 58.8325 39.6398 135.5746 0.0000 0.0000 0.0000
# 4 0.0000 0.0000 0.0000 34.0129 0.0000 0.0000
# 5 0.0000 0.0000 0.0000 0.0000 22.1470 0.0000
# 6 0.0000 0.0000 0.0000 0.0000 0.0000 18.2192
#
#
#
# Elastic Compliance Matrix: (Units=1/GPa)
#
#
# Indices 1 2 3 4 5 6 
#
# 1 0.012204 -0.006196 -0.003484 0.000000 0.000000 0.000000
# 2 -0.006196 0.014723 -0.001616 0.000000 0.000000 0.000000
# 3 -0.003484 -0.001616 0.009361 0.000000 0.000000 0.000000
# 4 0.000000 0.000000 0.000000 0.029401 0.000000 0.000000
# 5 0.000000 0.000000 0.000000 0.000000 0.045153 0.000000
# 6 0.000000 0.000000 0.000000 0.000000 0.000000 0.054887
#
#
# Mechanical properties :
#
#
# Convention : Reuss Voigt Hill
#
# Bulk Modulus (GPa) = 73.01852 75.81329 74.41590
# Shear Modulus (GPa) = 25.92216 28.45904 27.19060
#
# Velocity S-wave (km/s) = 3.57548 3.74635 3.66191
# Velocity P-wave (km/s) = 7.28395 7.49015 7.38777
#
# Compressibility (1/GPa) = 0.01369516
#
# Stress axis : x y z
#
# Youngs Moduli (GPa) = 81.94256 67.92065 106.83097
#
# Poissons Ratio (x) = 0.42081 0.37223
# Poissons Ratio (y) = 0.50768 0.17266
# Poissons Ratio (z) = 0.28551 0.10978
#
# Static dielectric constant tensor:
#      x y z
#    x 4.206140 0.000000 0.000000 
#    y 0.000000 3.470040 0.000000 
#    z 0.000000 0.000000 4.096820 
# 
# 
# High freq. dielectric constant tensor:
#      x y z
#    x 1.805340 0.000000 0.000000 
#    y 0.000000 1.765240 0.000000 
#    z 0.000000 0.000000 1.817980 
# 
# From -- ./inp_files/7041.got.cif
#   From: 2010.03.12/outbox.cif.g09.slc.cpg/sg64_4_cif.got.tgz:7041.got - 2010.04.10 20:19:32.
