data_PCOD8264961
_publ_section_title
;
Structure prediction by ZEFSAII (Michael W. Deem and Ramdas Pophale) SiO2 
 PCOD8264961
Probable space group: C M C A
;
_chemical_formula_sum "Si O2"
_cell_formula_units_Z 88
_cell_length_a 14.576466
_cell_length_b 11.008168
_cell_length_c 23.661943
_cell_angle_alpha 90.000000
_cell_angle_beta 90.000000
_cell_angle_gamma 90.000000
_cell_volume 3796.799788
_symmetry_space_group_name_H-M "C M C A"
_symmetry_group_IT_number 64
_symmetry_cell_setting 'orthorhombic'
loop_
_space_group_symop_operation_xyz
x,y,z
-x,1/2-y,1/2+z
x,-y,-z
-x,1/2+y,1/2-z
-x,-y,-z
x,1/2+y,1/2-z
-x,y,z
x,1/2-y,1/2+z
1/2+x,1/2+y,z
1/2-x,-y,1/2+z
1/2+x,1/2-y,-z
1/2-x,y,1/2-z
1/2-x,1/2-y,-z
1/2+x,y,1/2-z
1/2-x,1/2+y,z
1/2+x,-y,1/2+z
loop_
_atom_site_type_symbol
_atom_site_label
_atom_site_fract_x
_atom_site_fract_y
_atom_site_fract_z
Si Si1 0.356939 0.228165 0.307414
Si Si2 0.500000 0.213608 0.003426
Si Si3 0.000000 0.373523 0.609116
Si Si4 0.643355 0.698295 0.318813
Si Si5 0.896417 0.944451 0.370548
Si Si6 0.193391 0.628556 0.980470
Si Si7 0.000000 0.847615 0.119551
O O1 0.408709 0.157349 0.356498
O O2 0.387332 0.178703 0.246226
O O3 0.250455 0.217173 0.319781
O O4 0.384156 0.370770 0.311886
O O5 0.500000 0.305623 0.950611
O O6 0.591714 0.132298 0.006922
O O7 0.500000 0.286353 0.060067
O O8 0.000000 0.514996 0.600875
O O9 0.617114 0.584953 0.357850
O O10 0.590782 0.813955 0.344480
O O11 0.821028 0.884957 0.412939
O O12 0.000000 0.923631 0.394891
O O13 0.240266 0.500000 0.000000
O O14 0.250000 0.750000 0.000000
#
# Coordination Sequence:
#
# PCOD8264961 Si02
#       7
#    16   8   8  16  16  16   8
#     4  11  26  47  71 106 146 191 245 302 382 441
#     4  12  26  50  70 112 142 201 245 315 372 455
#     4  12  26  47  71 104 154 191 240 319 381 442
#     4  11  28  45  74 110 141 197 248 309 374 457
#     4  12  25  48  75 104 149 192 253 301 368 458
#     4  12  28  48  78 109 151 201 249 310 381 454
#     4  12  28  43  73 106 147 183 253 302 378 444
#
# _framework density 23.177413000000001
#
# number of rings (size 3 to 8) (size 9 to 14) (size 15 to 20)
#    0.000    0.364    4.545    2.182   10.182    2.909 
#    0.000    0.000    0.000    0.000    0.000    0.000 
#    0.000    0.000    0.000    0.000    0.000    0.000 
#
# Total GULP energy -545395.305630 kJ/mol
# GULP energy per Si atom -12395.347855 kJ/mol
# Density = 2.312466 g / cm^3
# Si number density = 23.177413 Si / 1000 Ang^3
#
#
#
# Elastic Constant Matrix: (Units=GPa)
#
#
# Indices 1 2 3 4 5 6 
#
# 1 102.3381 29.8146 34.4240 0.0000 0.0000 0.0000
# 2 29.8146 124.7120 24.9860 0.0000 0.0000 0.0000
# 3 34.4240 24.9860 113.0011 0.0000 0.0000 0.0000
# 4 0.0000 0.0000 0.0000 18.9297 0.0000 0.0000
# 5 0.0000 0.0000 0.0000 0.0000 16.5447 0.0000
# 6 0.0000 0.0000 0.0000 0.0000 0.0000 12.7054
#
#
#
# Elastic Compliance Matrix: (Units=1/GPa)
#
#
# Indices 1 2 3 4 5 6 
#
# 1 0.011401 -0.002124 -0.003003 0.000000 0.000000 0.000000
# 2 -0.002124 0.008786 -0.001296 0.000000 0.000000 0.000000
# 3 -0.003003 -0.001296 0.010051 0.000000 0.000000 0.000000
# 4 0.000000 0.000000 0.000000 0.052827 0.000000 0.000000
# 5 0.000000 0.000000 0.000000 0.000000 0.060442 0.000000
# 6 0.000000 0.000000 0.000000 0.000000 0.000000 0.078707
#
#
# Mechanical properties :
#
#
# Convention : Reuss Voigt Hill
#
# Bulk Modulus (GPa) = 57.49927 57.61116 57.55521
# Shear Modulus (GPa) = 20.75926 26.35772 23.55849
#
# Velocity S-wave (km/s) = 2.99602 3.37592 3.19163
# Velocity P-wave (km/s) = 6.06880 6.33296 6.20229
#
# Compressibility (1/GPa) = 0.01739153
#
# Stress axis : x y z
#
# Youngs Moduli (GPa) = 87.71529 113.82016 99.49355
#
# Poissons Ratio (x) = 0.24173 0.29882
# Poissons Ratio (y) = 0.18629 0.12891
# Poissons Ratio (z) = 0.26344 0.14747
#
# Static dielectric constant tensor:
#      x y z
#    x 8.107320 0.000000 0.000000 
#    y 0.000000 4.920040 0.000000 
#    z 0.000000 0.000000 3.286450 
# 
# 
# High freq. dielectric constant tensor:
#      x y z
#    x 1.919540 0.000000 0.000000 
#    y 0.000000 1.920810 0.000000 
#    z 0.000000 0.000000 1.931220 
# 
# From -- ./inp_files/45107.got.cif
#   From: 2010.03.12/outbox.cif.g09.slc.cpg/sg64_23_cif.got.tgz:45107.got - 2010.04.10 20:19:32.
