data_PCOD8264935
_publ_section_title
;
Structure prediction by ZEFSAII (Michael W. Deem and Ramdas Pophale) SiO2 
 PCOD8264935
Probable space group: C M C A
;
_chemical_formula_sum "Si O2"
_cell_formula_units_Z 64
_cell_length_a 16.490710
_cell_length_b 19.013638
_cell_length_c 9.210593
_cell_angle_alpha 90.000000
_cell_angle_beta 90.000000
_cell_angle_gamma 90.000000
_cell_volume 2887.966609
_symmetry_space_group_name_H-M "C M C A"
_symmetry_group_IT_number 64
_symmetry_cell_setting 'orthorhombic'
loop_
_space_group_symop_operation_xyz
x,y,z
-x,1/2-y,1/2+z
x,-y,-z
-x,1/2+y,1/2-z
-x,-y,-z
x,1/2+y,1/2-z
-x,y,z
x,1/2-y,1/2+z
1/2+x,1/2+y,z
1/2-x,-y,1/2+z
1/2+x,1/2-y,-z
1/2-x,y,1/2-z
1/2-x,1/2-y,-z
1/2+x,y,1/2-z
1/2-x,1/2+y,z
1/2+x,-y,1/2+z
loop_
_atom_site_type_symbol
_atom_site_label
_atom_site_fract_x
_atom_site_fract_y
_atom_site_fract_z
Si Si1 0.822909 0.044362 0.861516
Si Si2 0.842909 0.689029 0.216935
Si Si3 0.593395 0.183724 0.532936
Si Si4 0.592820 0.044607 0.139679
O O1 0.750000 0.052950 0.750000
O O2 0.852578 0.120796 0.906746
O O3 0.895656 0.001948 0.784181
O O4 0.793054 0.000000 0.000000
O O5 0.750000 0.706280 0.250000
O O6 0.877367 0.744536 0.104120
O O7 0.896774 0.691109 0.361038
O O8 0.849291 0.612581 0.142581
O O9 0.500000 0.169195 0.570164
O O10 0.500000 0.069668 0.131559
O O11 0.618049 0.000000 0.000000
#
# Coordination Sequence:
#
# PCOD8264935 Si02
#       4
#    16  16  16  16
#     4  12  26  45  73 105 145 190 245 300 366 433
#     4  12  27  48  73 107 147 193 245 301 364 434
#     4  12  27  47  74 105 147 192 243 300 365 438
#     4  11  25  44  72 105 146 190 242 300 363 432
#
# _framework density 22.160920000000001
#
# number of rings (size 3 to 8) (size 9 to 14) (size 15 to 20)
#    0.000    0.250    2.500    6.000    7.000    1.000 
#    0.000    0.000    0.000    0.000    0.000    0.000 
#    0.000    0.000    0.000    0.000    0.000    0.000 
#
# Total GULP energy -397104.087424 kJ/mol
# GULP energy per Si atom -12409.502732 kJ/mol
# Density = 2.211048 g / cm^3
# Si number density = 22.160920 Si / 1000 Ang^3
#
#
#
# Elastic Constant Matrix: (Units=GPa)
#
#
# Indices 1 2 3 4 5 6 
#
# 1 106.3968 18.4179 39.5218 0.0000 0.0000 0.0000
# 2 18.4179 143.6509 69.8639 0.0000 0.0000 0.0000
# 3 39.5218 69.8639 129.5660 0.0000 0.0000 0.0000
# 4 0.0000 0.0000 0.0000 47.4329 0.0000 0.0000
# 5 0.0000 0.0000 0.0000 0.0000 35.8538 0.0000
# 6 0.0000 0.0000 0.0000 0.0000 0.0000 6.9263
#
#
#
# Elastic Compliance Matrix: (Units=1/GPa)
#
#
# Indices 1 2 3 4 5 6 
#
# 1 0.010609 0.000290 -0.003392 0.000000 0.000000 0.000000
# 2 0.000290 0.009444 -0.005181 0.000000 0.000000 0.000000
# 3 -0.003392 -0.005181 0.011546 0.000000 0.000000 0.000000
# 4 0.000000 0.000000 0.000000 0.021082 0.000000 0.000000
# 5 0.000000 0.000000 0.000000 0.000000 0.027891 0.000000
# 6 0.000000 0.000000 0.000000 0.000000 0.000000 0.144377
#
#
# Mechanical properties :
#
#
# Convention : Reuss Voigt Hill
#
# Bulk Modulus (GPa) = 66.52279 70.58009 68.55144
# Shear Modulus (GPa) = 20.28185 34.82995 27.55590
#
# Velocity S-wave (km/s) = 3.02852 3.96875 3.53008
# Velocity P-wave (km/s) = 6.50481 7.27457 6.90043
#
# Compressibility (1/GPa) = 0.01503244
#
# Stress axis : x y z
#
# Youngs Moduli (GPa) = 94.26240 105.89059 86.60866
#
# Poissons Ratio (x) = -0.03066 0.29379
# Poissons Ratio (y) = -0.02730 0.44868
# Poissons Ratio (z) = 0.31975 0.54857
#
# Static dielectric constant tensor:
#      x y z
#    x 3.990850 0.000000 0.000000 
#    y 0.000000 4.069300 0.000000 
#    z 0.000000 0.000000 4.250140 
# 
# 
# High freq. dielectric constant tensor:
#      x y z
#    x 1.885250 0.000000 0.000000 
#    y 0.000000 1.885000 0.000000 
#    z 0.000000 0.000000 1.886890 
# 
# From -- ./inp_files/6581.got.cif
#   From: 2010.03.12/outbox.cif.g09.slc.cpg/sg64_4_cif.got.tgz:6581.got - 2010.04.10 20:19:32.
