data_PCOD8264846
_publ_section_title
;
Structure prediction by ZEFSAII (Michael W. Deem and Ramdas Pophale) SiO2 
 PCOD8264846
Probable space group: C M C A
;
_chemical_formula_sum "Si O2"
_cell_formula_units_Z 96
_cell_length_a 25.779316
_cell_length_b 8.653834
_cell_length_c 21.382729
_cell_angle_alpha 90.000000
_cell_angle_beta 90.000000
_cell_angle_gamma 90.000000
_cell_volume 4770.271330
_symmetry_space_group_name_H-M "C M C A"
_symmetry_group_IT_number 64
_symmetry_cell_setting 'orthorhombic'
loop_
_space_group_symop_operation_xyz
x,y,z
-x,1/2-y,1/2+z
x,-y,-z
-x,1/2+y,1/2-z
-x,-y,-z
x,1/2+y,1/2-z
-x,y,z
x,1/2-y,1/2+z
1/2+x,1/2+y,z
1/2-x,-y,1/2+z
1/2+x,1/2-y,-z
1/2-x,y,1/2-z
1/2-x,1/2-y,-z
1/2+x,y,1/2-z
1/2-x,1/2+y,z
1/2+x,-y,1/2+z
loop_
_atom_site_type_symbol
_atom_site_label
_atom_site_fract_x
_atom_site_fract_y
_atom_site_fract_z
Si Si1 0.795421 0.843944 0.035052
Si Si2 0.214352 0.971829 0.841459
Si Si3 0.628271 0.074952 0.062786
Si Si4 0.310387 0.369317 0.345261
Si Si5 0.617890 0.568739 0.761691
Si Si6 0.938847 0.837630 0.677015
O O1 0.845059 0.735341 0.043941
O O2 0.778663 0.903401 0.102990
O O3 0.750000 0.750000 0.000000
O O4 0.812939 0.000000 0.000000
O O5 0.214233 0.795473 0.865218
O O6 0.269359 0.016406 0.808357
O O7 0.163885 0.992202 0.800345
O O8 0.581331 0.101781 0.110550
O O9 0.669960 0.956601 0.092519
O O10 0.604785 0.000000 0.000000
O O11 0.357177 0.338396 0.296565
O O12 0.585753 0.671672 0.809682
O O13 0.577924 0.444597 0.734624
O O14 0.000000 0.825941 0.673898
#
# Coordination Sequence:
#
# PCOD8264846 Si02
#       6
#    16  16  16  16  16  16
#     4  12  23  37  60  89 132 178 213 252 308 382
#     4  12  22  37  58  91 129 169 208 255 314 387
#     4  11  23  42  63  96 131 169 216 259 320 388
#     4  11  24  36  62  93 133 170 207 253 316 393
#     4  11  23  41  63  93 123 162 212 264 330 388
#     4  11  24  45  69  91 121 164 217 280 330 379
#
# _framework density 20.124642000000001
#
# number of rings (size 3 to 8) (size 9 to 14) (size 15 to 20)
#    0.000    0.667    3.333    6.500    2.333    1.667 
#    0.000    0.000    0.000    0.500    0.000    0.000 
#    0.000    0.000    0.000    0.000    0.000    0.000 
#
# Total GULP energy -595033.635969 kJ/mol
# GULP energy per Si atom -12396.534083 kJ/mol
# Density = 2.007884 g / cm^3
# Si number density = 20.124642 Si / 1000 Ang^3
#
#
#
# Elastic Constant Matrix: (Units=GPa)
#
#
# Indices 1 2 3 4 5 6 
#
# 1 110.7011 38.9164 43.8023 0.0000 0.0000 0.0000
# 2 38.9164 113.9349 49.0078 0.0000 0.0000 0.0000
# 3 43.8023 49.0078 95.4367 0.0000 0.0000 0.0000
# 4 0.0000 0.0000 0.0000 33.2363 0.0000 0.0000
# 5 0.0000 0.0000 0.0000 0.0000 26.5682 0.0000
# 6 0.0000 0.0000 0.0000 0.0000 0.0000 19.0252
#
#
#
# Elastic Compliance Matrix: (Units=1/GPa)
#
#
# Indices 1 2 3 4 5 6 
#
# 1 0.011421 -0.002113 -0.004157 0.000000 0.000000 0.000000
# 2 -0.002113 0.011656 -0.005016 0.000000 0.000000 0.000000
# 3 -0.004157 -0.005016 0.014962 0.000000 0.000000 0.000000
# 4 0.000000 0.000000 0.000000 0.030088 0.000000 0.000000
# 5 0.000000 0.000000 0.000000 0.000000 0.037639 0.000000
# 6 0.000000 0.000000 0.000000 0.000000 0.000000 0.052562
#
#
# Mechanical properties :
#
#
# Convention : Reuss Voigt Hill
#
# Bulk Modulus (GPa) = 64.65130 64.83619 64.74374
# Shear Modulus (GPa) = 26.87391 28.32235 27.59813
#
# Velocity S-wave (km/s) = 3.65824 3.75553 3.70721
# Velocity P-wave (km/s) = 7.07381 7.14791 7.11096
#
# Compressibility (1/GPa) = 0.01546759
#
# Stress axis : x y z
#
# Youngs Moduli (GPa) = 87.55870 85.79163 66.83772
#
# Poissons Ratio (x) = 0.18128 0.27783
# Poissons Ratio (y) = 0.18501 0.33524
# Poissons Ratio (z) = 0.36396 0.43031
#
# Static dielectric constant tensor:
#      x y z
#    x 3.403030 0.000000 0.000000 
#    y 0.000000 3.756230 0.000000 
#    z 0.000000 0.000000 3.944420 
# 
# 
# High freq. dielectric constant tensor:
#      x y z
#    x 1.760070 0.000000 0.000000 
#    y 0.000000 1.800300 0.000000 
#    z 0.000000 0.000000 1.797240 
# 
# From -- ./inp_files/41822.got.cif
#   From: 2010.03.12/outbox.cif.g09.slc.cpg/sg64_21_cif.got.tgz:41822.got - 2010.04.10 20:19:32.
