data_PCOD8264036
_publ_section_title
;
Structure prediction by ZEFSAII (Michael W. Deem and Ramdas Pophale) SiO2 
 PCOD8264036
Probable space group: C M C A
;
_chemical_formula_sum "Si O2"
_cell_formula_units_Z 112
_cell_length_a 18.003506
_cell_length_b 27.951115
_cell_length_c 11.586223
_cell_angle_alpha 90.000000
_cell_angle_beta 90.000000
_cell_angle_gamma 90.000000
_cell_volume 5830.396737
_symmetry_space_group_name_H-M "C M C A"
_symmetry_group_IT_number 64
_symmetry_cell_setting 'orthorhombic'
loop_
_space_group_symop_operation_xyz
x,y,z
-x,1/2-y,1/2+z
x,-y,-z
-x,1/2+y,1/2-z
-x,-y,-z
x,1/2+y,1/2-z
-x,y,z
x,1/2-y,1/2+z
1/2+x,1/2+y,z
1/2-x,-y,1/2+z
1/2+x,1/2-y,-z
1/2-x,y,1/2-z
1/2-x,1/2-y,-z
1/2+x,y,1/2-z
1/2-x,1/2+y,z
1/2+x,-y,1/2+z
loop_
_atom_site_type_symbol
_atom_site_label
_atom_site_fract_x
_atom_site_fract_y
_atom_site_fract_z
Si Si1 0.167190 0.925760 0.774831
Si Si2 0.647563 0.160664 0.115532
Si Si3 0.412537 0.487295 0.128888
Si Si4 0.812968 0.651751 0.459746
Si Si5 0.827170 0.393714 0.299044
Si Si6 0.584643 0.327931 0.370202
Si Si7 0.087681 0.781011 0.824861
O O1 0.250000 0.944409 0.750000
O O2 0.138623 0.891928 0.671387
O O3 0.165027 0.896914 0.894626
O O4 0.113902 0.971409 0.783583
O O5 0.733095 0.170541 0.083084
O O6 0.622271 0.201023 0.205163
O O7 0.594601 0.163760 0.006019
O O8 0.500000 0.482434 0.138160
O O9 0.378176 0.437188 0.163917
O O10 0.386438 0.500000 0.000000
O O11 0.812518 0.642408 0.595584
O O12 0.874329 0.691987 0.432579
O O13 0.750000 0.414199 0.250000
O O14 0.865012 0.364961 0.196808
O O15 0.500000 0.337953 0.336789
O O16 0.607236 0.274461 0.335757
O O17 0.000000 0.791126 0.829658
#
# Coordination Sequence:
#
# PCOD8264036 Si02
#       7
#    16  16  16  16  16  16  16
#     4   9  19  39  65  89 116 155 201 254 302 356
#     4  10  21  42  63  90 124 162 207 254 300 369
#     4  11  23  39  62  93 124 156 200 252 304 364
#     4  10  21  40  64  91 120 157 212 255 302 359
#     4  12  24  42  63  90 124 164 204 253 311 360
#     4  11  25  41  59  89 128 167 203 252 311 366
#     4  10  23  39  62  91 124 165 205 252 310 363
#
# _framework density 19.209669999999999
#
# number of rings (size 3 to 8) (size 9 to 14) (size 15 to 20)
#    0.000    1.571    2.857    2.571    2.000    5.714 
#    0.000    0.714    0.000    1.714    0.000    0.000 
#    0.000    0.000    0.000    0.000    0.000    0.000 
#
# Total GULP energy -694670.326486 kJ/mol
# GULP energy per Si atom -12404.827259 kJ/mol
# Density = 1.916595 g / cm^3
# Si number density = 19.209670 Si / 1000 Ang^3
#
#
#
# Elastic Constant Matrix: (Units=GPa)
#
#
# Indices 1 2 3 4 5 6 
#
# 1 87.5933 60.1221 28.9054 0.0000 0.0000 0.0000
# 2 60.1221 108.8000 44.2782 0.0000 0.0000 0.0000
# 3 28.9054 44.2782 104.7284 0.0000 0.0000 0.0000
# 4 0.0000 0.0000 0.0000 24.1862 0.0000 0.0000
# 5 0.0000 0.0000 0.0000 0.0000 29.3012 0.0000
# 6 0.0000 0.0000 0.0000 0.0000 0.0000 35.9781
#
#
#
# Elastic Compliance Matrix: (Units=1/GPa)
#
#
# Indices 1 2 3 4 5 6 
#
# 1 0.018470 -0.009821 -0.000945 0.000000 0.000000 0.000000
# 2 -0.009821 0.016324 -0.004191 0.000000 0.000000 0.000000
# 3 -0.000945 -0.004191 0.011581 0.000000 0.000000 0.000000
# 4 0.000000 0.000000 0.000000 0.041346 0.000000 0.000000
# 5 0.000000 0.000000 0.000000 0.000000 0.034128 0.000000
# 6 0.000000 0.000000 0.000000 0.000000 0.000000 0.027795
#
#
# Mechanical properties :
#
#
# Convention : Reuss Voigt Hill
#
# Bulk Modulus (GPa) = 60.75459 63.08146 61.91802
# Shear Modulus (GPa) = 27.02040 29.08084 28.05062
#
# Velocity S-wave (km/s) = 3.75454 3.89506 3.82545
# Velocity P-wave (km/s) = 7.10571 7.28961 7.19825
#
# Compressibility (1/GPa) = 0.01645966
#
# Stress axis : x y z
#
# Youngs Moduli (GPa) = 54.14315 61.25952 86.34633
#
# Poissons Ratio (x) = 0.60166 0.08162
# Poissons Ratio (y) = 0.53176 0.36187
# Poissons Ratio (z) = 0.05118 0.25673
#
# Static dielectric constant tensor:
#      x y z
#    x 3.567810 0.000000 0.000000 
#    y 0.000000 3.417630 0.000000 
#    z 0.000000 0.000000 3.593520 
# 
# 
# High freq. dielectric constant tensor:
#      x y z
#    x 1.757700 0.000000 0.000000 
#    y 0.000000 1.745100 0.000000 
#    z 0.000000 0.000000 1.751600 
# 
# From -- ./inp_files/15001.got.cif
#   From: 2010.03.12/outbox.cif.g09.slc.cpg/sg64_8_cif.got.tgz:15001.got - 2010.04.10 20:19:32.
