data_PCOD8264047
_publ_section_title
;
Structure prediction by ZEFSAII (Michael W. Deem and Ramdas Pophale) SiO2 
 PCOD8264047
Probable space group: C M C A
;
_chemical_formula_sum "Si O2"
_cell_formula_units_Z 80
_cell_length_a 14.824992
_cell_length_b 9.785783
_cell_length_c 26.250494
_cell_angle_alpha 90.000000
_cell_angle_beta 90.000000
_cell_angle_gamma 90.000000
_cell_volume 3808.268227
_symmetry_space_group_name_H-M "C M C A"
_symmetry_group_IT_number 64
_symmetry_cell_setting 'orthorhombic'
loop_
_space_group_symop_operation_xyz
x,y,z
-x,1/2-y,1/2+z
x,-y,-z
-x,1/2+y,1/2-z
-x,-y,-z
x,1/2+y,1/2-z
-x,y,z
x,1/2-y,1/2+z
1/2+x,1/2+y,z
1/2-x,-y,1/2+z
1/2+x,1/2-y,-z
1/2-x,y,1/2-z
1/2-x,1/2-y,-z
1/2+x,y,1/2-z
1/2-x,1/2+y,z
1/2+x,-y,1/2+z
loop_
_atom_site_type_symbol
_atom_site_label
_atom_site_fract_x
_atom_site_fract_y
_atom_site_fract_z
Si Si1 0.639490 0.487287 0.943287
Si Si2 0.346684 0.515849 0.445392
Si Si3 0.645926 0.766085 0.379871
Si Si4 0.646040 0.222390 0.877332
Si Si5 0.500000 0.173061 0.797936
Si Si6 0.000000 0.344409 0.804408
O O1 0.743050 0.530303 0.950011
O O2 0.601323 0.593811 0.900933
O O3 0.624863 0.339441 0.918780
O O4 0.594150 0.500000 0.000000
O O5 0.394795 0.500000 0.500000
O O6 0.356591 0.671285 0.429505
O O7 0.390027 0.416350 0.403626
O O8 0.749126 0.781399 0.360505
O O9 0.589526 0.697050 0.335057
O O10 0.588333 0.232165 0.826155
O O11 0.500000 0.247852 0.744328
O O12 0.500000 0.007084 0.791782
#
# Coordination Sequence:
#
# PCOD8264047 Si02
#       6
#    16  16  16  16   8   8
#     4   9  18  33  61  96 133 171 204 240 300 370
#     4   9  16  33  61  94 131 171 204 244 300 372
#     4  10  21  40  65  95 130 166 207 254 309 374
#     4  10  21  40  65  95 130 166 207 254 309 374
#     4  12  28  48  67  90 120 162 215 274 325 370
#     4  12  28  48  67  90 120 162 215 274 325 370
#
# _framework density 21.006921999999999
#
# number of rings (size 3 to 8) (size 9 to 14) (size 15 to 20)
#    0.000    2.000    2.000    1.200    2.800    5.600 
#    0.000    8.000    0.000    0.000    0.000    0.000 
#    0.000    0.000    0.000    0.000    0.000    0.000 
#
# Total GULP energy -495753.361412 kJ/mol
# GULP energy per Si atom -12393.834035 kJ/mol
# Density = 2.095911 g / cm^3
# Si number density = 21.006922 Si / 1000 Ang^3
#
#
#
# Elastic Constant Matrix: (Units=GPa)
#
#
# Indices 1 2 3 4 5 6 
#
# 1 88.5900 24.7047 47.3343 0.0000 0.0000 0.0000
# 2 24.7047 105.8970 33.0998 0.0000 0.0000 0.0000
# 3 47.3343 33.0998 124.5896 0.0000 0.0000 0.0000
# 4 0.0000 0.0000 0.0000 39.6490 0.0000 0.0000
# 5 0.0000 0.0000 0.0000 0.0000 25.2390 0.0000
# 6 0.0000 0.0000 0.0000 0.0000 0.0000 16.6552
#
#
#
# Elastic Compliance Matrix: (Units=1/GPa)
#
#
# Indices 1 2 3 4 5 6 
#
# 1 0.014474 -0.001808 -0.005019 0.000000 0.000000 0.000000
# 2 -0.001808 0.010524 -0.002109 0.000000 0.000000 0.000000
# 3 -0.005019 -0.002109 0.010493 0.000000 0.000000 0.000000
# 4 0.000000 0.000000 0.000000 0.025221 0.000000 0.000000
# 5 0.000000 0.000000 0.000000 0.000000 0.039621 0.000000
# 6 0.000000 0.000000 0.000000 0.000000 0.000000 0.060041
#
#
# Mechanical properties :
#
#
# Convention : Reuss Voigt Hill
#
# Bulk Modulus (GPa) = 56.75375 58.81712 57.78543
# Shear Modulus (GPa) = 27.15633 30.57117 28.86375
#
# Velocity S-wave (km/s) = 3.59936 3.81897 3.71079
# Velocity P-wave (km/s) = 6.65952 6.89244 6.77698
#
# Compressibility (1/GPa) = 0.01761998
#
# Stress axis : x y z
#
# Youngs Moduli (GPa) = 69.09160 95.01973 95.29876
#
# Poissons Ratio (x) = 0.17179 0.47826
# Poissons Ratio (y) = 0.12491 0.20099
# Poissons Ratio (z) = 0.34674 0.20041
#
# Static dielectric constant tensor:
#      x y z
#    x 3.660400 0.000000 0.000000 
#    y 0.000000 3.895680 0.000000 
#    z 0.000000 0.000000 3.673140 
# 
# 
# High freq. dielectric constant tensor:
#      x y z
#    x 1.808070 0.000000 0.000000 
#    y 0.000000 1.838530 0.000000 
#    z 0.000000 0.000000 1.811700 
# 
# From -- ./inp_files/50336.got.cif
#   From: 2010.03.12/outbox.cif.g09.slc.cpg/sg64_26_cif.got.tgz:50336.got - 2010.04.10 20:19:32.
