data_PCOD8264858
_publ_section_title
;
Structure prediction by ZEFSAII (Michael W. Deem and Ramdas Pophale) SiO2 
 PCOD8264858
Probable space group: C M C A
;
_chemical_formula_sum "Si O2"
_cell_formula_units_Z 80
_cell_length_a 17.896054
_cell_length_b 8.779072
_cell_length_c 24.364236
_cell_angle_alpha 90.000000
_cell_angle_beta 90.000000
_cell_angle_gamma 90.000000
_cell_volume 3827.883308
_symmetry_space_group_name_H-M "C M C A"
_symmetry_group_IT_number 64
_symmetry_cell_setting 'orthorhombic'
loop_
_space_group_symop_operation_xyz
x,y,z
-x,1/2-y,1/2+z
x,-y,-z
-x,1/2+y,1/2-z
-x,-y,-z
x,1/2+y,1/2-z
-x,y,z
x,1/2-y,1/2+z
1/2+x,1/2+y,z
1/2-x,-y,1/2+z
1/2+x,1/2-y,-z
1/2-x,y,1/2-z
1/2-x,1/2-y,-z
1/2+x,y,1/2-z
1/2-x,1/2+y,z
1/2+x,-y,1/2+z
loop_
_atom_site_type_symbol
_atom_site_label
_atom_site_fract_x
_atom_site_fract_y
_atom_site_fract_z
Si Si1 0.657181 0.675401 0.080281
Si Si2 0.087492 0.667716 0.019052
Si Si3 0.310909 0.322256 0.101178
Si Si4 0.587938 0.189901 0.307515
Si Si5 0.173386 0.609290 0.721515
O O1 0.610084 0.705468 0.025560
O O2 0.674524 0.497050 0.085558
O O3 0.732627 0.772095 0.075533
O O4 0.607849 0.739699 0.130722
O O5 0.000000 0.672297 0.029574
O O6 0.113640 0.500000 0.000000
O O7 0.125416 0.712435 0.076690
O O8 0.307993 0.292694 0.166937
O O9 0.500000 0.186328 0.298746
O O10 0.623846 0.301282 0.264126
O O11 0.622712 0.026689 0.298205
O O12 0.250000 0.553234 0.750000
#
# Coordination Sequence:
#
# PCOD8264858 Si02
#       5
#    16  16  16  16  16
#     4  11  23  42  65  95 131 171 222 269 332 398
#     4  11  25  44  66  95 134 174 219 276 339 398
#     4  11  24  40  69  94 128 173 223 272 327 402
#     4  11  24  40  65  97 133 173 219 276 333 388
#     4  11  23  42  66  94 132 175 221 271 328 398
#
# _framework density 20.899279
#
# number of rings (size 3 to 8) (size 9 to 14) (size 15 to 20)
#    0.000    1.000    2.000    4.200    2.800    7.200 
#    0.000    2.000    0.000    0.000    0.000    0.000 
#    0.000    0.000    0.000    0.000    0.000    0.000 
#
# Total GULP energy -496168.361310 kJ/mol
# GULP energy per Si atom -12404.209033 kJ/mol
# Density = 2.085171 g / cm^3
# Si number density = 20.899279 Si / 1000 Ang^3
#
#
#
# Elastic Constant Matrix: (Units=GPa)
#
#
# Indices 1 2 3 4 5 6 
#
# 1 161.5607 31.7020 60.5818 0.0000 0.0000 0.0000
# 2 31.7020 66.6621 8.8630 0.0000 0.0000 0.0000
# 3 60.5818 8.8630 98.8711 0.0000 0.0000 0.0000
# 4 0.0000 0.0000 0.0000 32.5816 0.0000 0.0000
# 5 0.0000 0.0000 0.0000 0.0000 36.6933 0.0000
# 6 0.0000 0.0000 0.0000 0.0000 0.0000 33.0077
#
#
#
# Elastic Compliance Matrix: (Units=1/GPa)
#
#
# Indices 1 2 3 4 5 6 
#
# 1 0.008775 -0.003500 -0.005063 0.000000 0.000000 0.000000
# 2 -0.003500 0.016578 0.000658 0.000000 0.000000 0.000000
# 3 -0.005063 0.000658 0.013157 0.000000 0.000000 0.000000
# 4 0.000000 0.000000 0.000000 0.030692 0.000000 0.000000
# 5 0.000000 0.000000 0.000000 0.000000 0.027253 0.000000
# 6 0.000000 0.000000 0.000000 0.000000 0.000000 0.030296
#
#
# Mechanical properties :
#
#
# Convention : Reuss Voigt Hill
#
# Bulk Modulus (GPa) = 44.05019 58.82084 51.43551
# Shear Modulus (GPa) = 33.30512 35.51967 34.41239
#
# Velocity S-wave (km/s) = 3.99632 4.12705 4.06221
# Velocity P-wave (km/s) = 6.51285 7.13555 6.83130
#
# Compressibility (1/GPa) = 0.02270138
#
# Stress axis : x y z
#
# Youngs Moduli (GPa) = 113.96186 60.32134 76.00295
#
# Poissons Ratio (x) = 0.21112 0.38480
# Poissons Ratio (y) = 0.39885 -0.05004
# Poissons Ratio (z) = 0.57698 -0.03972
#
# Static dielectric constant tensor:
#      x y z
#    x 3.824600 0.000000 0.000000 
#    y 0.000000 3.634090 0.000000 
#    z 0.000000 0.000000 4.341470 
# 
# 
# High freq. dielectric constant tensor:
#      x y z
#    x 1.828790 0.000000 0.000000 
#    y 0.000000 1.817910 0.000000 
#    z 0.000000 0.000000 1.836250 
# 
# From -- ./inp_files/50300.got.cif
#   From: 2010.03.12/outbox.cif.g09.slc.cpg/sg64_26_cif.got.tgz:50300.got - 2010.04.10 20:19:32.
