data_PCOD8264004
_publ_section_title
;
Structure prediction by ZEFSAII (Michael W. Deem and Ramdas Pophale) SiO2 
 PCOD8264004
Probable space group: C M C A
;
_chemical_formula_sum "Si O2"
_cell_formula_units_Z 96
_cell_length_a 14.538223
_cell_length_b 23.401340
_cell_length_c 14.115121
_cell_angle_alpha 90.000000
_cell_angle_beta 90.000000
_cell_angle_gamma 90.000000
_cell_volume 4802.160356
_symmetry_space_group_name_H-M "C M C A"
_symmetry_group_IT_number 64
_symmetry_cell_setting 'orthorhombic'
loop_
_space_group_symop_operation_xyz
x,y,z
-x,1/2-y,1/2+z
x,-y,-z
-x,1/2+y,1/2-z
-x,-y,-z
x,1/2+y,1/2-z
-x,y,z
x,1/2-y,1/2+z
1/2+x,1/2+y,z
1/2-x,-y,1/2+z
1/2+x,1/2-y,-z
1/2-x,y,1/2-z
1/2-x,1/2-y,-z
1/2+x,y,1/2-z
1/2-x,1/2+y,z
1/2+x,-y,1/2+z
loop_
_atom_site_type_symbol
_atom_site_label
_atom_site_fract_x
_atom_site_fract_y
_atom_site_fract_z
Si Si1 0.500000 0.156197 0.982105
Si Si2 0.811050 0.485180 0.841981
Si Si3 0.500000 0.581946 0.332376
Si Si4 0.846590 0.381568 0.158050
Si Si5 0.150269 0.354672 0.364485
Si Si6 0.500000 0.122830 0.366836
Si Si7 0.000000 0.787730 0.029659
Si Si8 0.654017 0.941573 0.532644
O O1 0.411387 0.142450 0.921768
O O2 0.500000 0.117260 0.072984
O O3 0.500000 0.221257 0.013273
O O4 0.750000 0.475404 0.750000
O O5 0.821198 0.552578 0.862195
O O6 0.757279 0.453630 0.928008
O O7 0.911371 0.458629 0.828737
O O8 0.500000 0.628849 0.247054
O O9 0.891243 0.374991 0.263000
O O10 0.757433 0.339880 0.151538
O O11 0.151348 0.406145 0.437224
O O12 0.090383 0.303417 0.408677
O O13 0.500000 0.181801 0.426247
O O14 0.592175 0.087800 0.388138
O O15 0.606432 0.000000 0.500000
#
# Coordination Sequence:
#
# PCOD8264004 Si02
#       8
#     8  16   8  16  16   8   8  16
#     4  12  28  45  66  86 135 178 220 278 330 378
#     4  12  22  40  65  99 143 171 196 259 326 408
#     4  12  27  39  60 100 135 170 215 251 339 416
#     4  11  22  42  65 101 128 174 213 266 322 406
#     4  10  21  39  68  97 127 161 233 266 321 387
#     4  10  23  38  61  93 126 165 227 266 320 379
#     4  10  25  46  65  91 121 174 225 297 316 364
#     4  11  19  36  62  95 133 173 203 262 322 387
#
# _framework density 19.991002999999999
#
# number of rings (size 3 to 8) (size 9 to 14) (size 15 to 20)
#    0.000    1.000    5.000    2.250    0.000    2.667 
#    0.000    0.000    3.667    0.000    0.000    0.000 
#    0.000    0.000    0.000    0.000    0.000    0.000 
#
# Total GULP energy -594898.094227 kJ/mol
# GULP energy per Si atom -12393.710296 kJ/mol
# Density = 1.994550 g / cm^3
# Si number density = 19.991003 Si / 1000 Ang^3
#
#
#
# Elastic Constant Matrix: (Units=GPa)
#
#
# Indices 1 2 3 4 5 6 
#
# 1 135.7582 63.1783 58.9088 0.0000 0.0000 0.0000
# 2 63.1783 100.4078 60.3602 0.0000 0.0000 0.0000
# 3 58.9088 60.3602 137.7334 0.0000 0.0000 0.0000
# 4 0.0000 0.0000 0.0000 21.0926 0.0000 0.0000
# 5 0.0000 0.0000 0.0000 0.0000 110.3075 0.0000
# 6 0.0000 0.0000 0.0000 0.0000 0.0000 35.3139
#
#
#
# Elastic Compliance Matrix: (Units=1/GPa)
#
#
# Indices 1 2 3 4 5 6 
#
# 1 0.010907 -0.005510 -0.002250 0.000000 0.000000 0.000000
# 2 -0.005510 0.016305 -0.004789 0.000000 0.000000 0.000000
# 3 -0.002250 -0.004789 0.010321 0.000000 0.000000 0.000000
# 4 0.000000 0.000000 0.000000 0.047410 0.000000 0.000000
# 5 0.000000 0.000000 0.000000 0.000000 0.009066 0.000000
# 6 0.000000 0.000000 0.000000 0.000000 0.000000 0.028317
#
#
# Mechanical properties :
#
#
# Convention : Reuss Voigt Hill
#
# Bulk Modulus (GPa) = 80.41647 82.08822 81.25234
# Shear Modulus (GPa) = 32.98816 46.10628 39.54722
#
# Velocity S-wave (km/s) = 4.06661 4.80766 4.45258
# Velocity P-wave (km/s) = 7.89705 8.48350 8.19553
#
# Compressibility (1/GPa) = 0.01243526
#
# Stress axis : x y z
#
# Youngs Moduli (GPa) = 91.68763 61.32993 96.88537
#
# Poissons Ratio (x) = 0.33793 0.21800
# Poissons Ratio (y) = 0.50520 0.46398
# Poissons Ratio (z) = 0.20630 0.29371
#
# Static dielectric constant tensor:
#      x y z
#    x 4.163680 0.000000 0.000000 
#    y 0.000000 3.290030 0.000000 
#    z 0.000000 0.000000 4.005160 
# 
# 
# High freq. dielectric constant tensor:
#      x y z
#    x 1.792350 0.000000 0.000000 
#    y 0.000000 1.744660 0.000000 
#    z 0.000000 0.000000 1.807910 
# 
# From -- ./inp_files/24024.got.cif
#   From: 2010.03.12/outbox.cif.g09.slc.cpg/sg64_13_cif.got.tgz:24024.got - 2010.04.10 20:19:32.
