data_PCOD8264991
_publ_section_title
;
Structure prediction by ZEFSAII (Michael W. Deem and Ramdas Pophale) SiO2 
 PCOD8264991
Probable space group: C M C A
;
_chemical_formula_sum "Si O2"
_cell_formula_units_Z 72
_cell_length_a 19.190033
_cell_length_b 20.659939
_cell_length_c 8.632071
_cell_angle_alpha 90.000000
_cell_angle_beta 90.000000
_cell_angle_gamma 90.000000
_cell_volume 3422.313262
_symmetry_space_group_name_H-M "C M C A"
_symmetry_group_IT_number 64
_symmetry_cell_setting 'orthorhombic'
loop_
_space_group_symop_operation_xyz
x,y,z
-x,1/2-y,1/2+z
x,-y,-z
-x,1/2+y,1/2-z
-x,-y,-z
x,1/2+y,1/2-z
-x,y,z
x,1/2-y,1/2+z
1/2+x,1/2+y,z
1/2-x,-y,1/2+z
1/2+x,1/2-y,-z
1/2-x,y,1/2-z
1/2-x,1/2-y,-z
1/2+x,y,1/2-z
1/2-x,1/2+y,z
1/2+x,-y,1/2+z
loop_
_atom_site_type_symbol
_atom_site_label
_atom_site_fract_x
_atom_site_fract_y
_atom_site_fract_z
Si Si1 0.500000 0.225968 0.817530
Si Si2 0.750000 0.373737 0.250000
Si Si3 0.139618 0.202080 0.547214
Si Si4 0.137939 0.925284 0.019092
Si Si5 0.000000 0.157125 0.980024
Si Si6 0.326859 0.673993 0.209749
O O1 0.433423 0.184254 0.874492
O O2 0.500000 0.219816 0.632161
O O3 0.500000 0.303831 0.855751
O O4 0.793610 0.331447 0.126841
O O5 0.805041 0.417195 0.344671
O O6 0.147001 0.279758 0.569833
O O7 0.130067 0.184201 0.367249
O O8 0.066389 0.887816 0.050307
O O9 0.168552 0.898855 0.855340
O O10 0.120493 0.000000 0.000000
O O11 0.250000 0.695204 0.250000
#
# Coordination Sequence:
#
# PCOD8264991 Si02
#       6
#     8   8  16  16   8  16
#     4  12  24  40  69 108 134 170 217 283 357 416
#     4  12  24  44  68  98 134 182 230 288 346 398
#     4  12  23  39  69 101 138 164 220 293 356 403
#     4  12  28  46  69  95 139 192 236 276 330 413
#     4  12  25  46  71 106 138 177 224 288 353 410
#     4  12  23  40  67 101 130 172 224 288 351 403
#
# _framework density 21.038402000000001
#
# number of rings (size 3 to 8) (size 9 to 14) (size 15 to 20)
#    0.000    0.000    7.778    3.667    1.556    0.000 
#    0.000    0.000    0.000    1.333    0.000    0.000 
#    0.000    0.000    0.000    0.000    0.000    0.000 
#
# Total GULP energy -446288.601679 kJ/mol
# GULP energy per Si atom -12396.905602 kJ/mol
# Density = 2.099052 g / cm^3
# Si number density = 21.038402 Si / 1000 Ang^3
#
#
#
# Elastic Constant Matrix: (Units=GPa)
#
#
# Indices 1 2 3 4 5 6 
#
# 1 132.3801 38.8095 23.3628 0.0000 0.0000 0.0000
# 2 38.8095 133.0869 63.6898 0.0000 0.0000 0.0000
# 3 23.3628 63.6898 115.3273 0.0000 0.0000 0.0000
# 4 0.0000 0.0000 0.0000 26.1749 0.0000 0.0000
# 5 0.0000 0.0000 0.0000 0.0000 30.9133 0.0000
# 6 0.0000 0.0000 0.0000 0.0000 0.0000 22.6793
#
#
#
# Elastic Compliance Matrix: (Units=1/GPa)
#
#
# Indices 1 2 3 4 5 6 
#
# 1 0.008279 -0.002190 -0.000467 0.000000 0.000000 0.000000
# 2 -0.002190 0.010793 -0.005517 0.000000 0.000000 0.000000
# 3 -0.000467 -0.005517 0.011812 0.000000 0.000000 0.000000
# 4 0.000000 0.000000 0.000000 0.038204 0.000000 0.000000
# 5 0.000000 0.000000 0.000000 0.000000 0.032349 0.000000
# 6 0.000000 0.000000 0.000000 0.000000 0.000000 0.044093
#
#
# Mechanical properties :
#
#
# Convention : Reuss Voigt Hill
#
# Bulk Modulus (GPa) = 68.80079 70.27982 69.54030
# Shear Modulus (GPa) = 29.98985 32.94900 31.46942
#
# Velocity S-wave (km/s) = 3.77965 3.96174 3.87176
# Velocity P-wave (km/s) = 7.19869 7.37599 7.28788
#
# Compressibility (1/GPa) = 0.01453472
#
# Stress axis : x y z
#
# Youngs Moduli (GPa) = 120.79238 92.65591 84.65849
#
# Poissons Ratio (x) = 0.20296 0.03957
# Poissons Ratio (y) = 0.26459 0.46702
# Poissons Ratio (z) = 0.05646 0.51114
#
# Static dielectric constant tensor:
#      x y z
#    x 4.280460 0.000000 0.000000 
#    y 0.000000 3.429950 0.000000 
#    z 0.000000 0.000000 4.063760 
# 
# 
# High freq. dielectric constant tensor:
#      x y z
#    x 1.859420 0.000000 0.000000 
#    y 0.000000 1.783540 0.000000 
#    z 0.000000 0.000000 1.832110 
# 
# From -- ./inp_files/8054.got.cif
#   From: 2010.03.12/outbox.cif.g09.slc.cpg/sg64_5_cif.got.tgz:8054.got - 2010.04.10 20:19:32.
