data_PCOD8264623
_publ_section_title
;
Structure prediction by ZEFSAII (Michael W. Deem and Ramdas Pophale) SiO2 
 PCOD8264623
Probable space group: C M C A
;
_chemical_formula_sum "Si O2"
_cell_formula_units_Z 112
_cell_length_a 14.569641
_cell_length_b 14.503096
_cell_length_c 25.813779
_cell_angle_alpha 90.000000
_cell_angle_beta 90.000000
_cell_angle_gamma 90.000000
_cell_volume 5454.578045
_symmetry_space_group_name_H-M "C M C A"
_symmetry_group_IT_number 64
_symmetry_cell_setting 'orthorhombic'
loop_
_space_group_symop_operation_xyz
x,y,z
-x,1/2-y,1/2+z
x,-y,-z
-x,1/2+y,1/2-z
-x,-y,-z
x,1/2+y,1/2-z
-x,y,z
x,1/2-y,1/2+z
1/2+x,1/2+y,z
1/2-x,-y,1/2+z
1/2+x,1/2-y,-z
1/2-x,y,1/2-z
1/2-x,1/2-y,-z
1/2+x,y,1/2-z
1/2-x,1/2+y,z
1/2+x,-y,1/2+z
loop_
_atom_site_type_symbol
_atom_site_label
_atom_site_fract_x
_atom_site_fract_y
_atom_site_fract_z
Si Si1 0.856440 0.672125 0.750505
Si Si2 0.397851 0.646562 0.631706
Si Si3 0.283557 0.030200 0.130339
Si Si4 0.892003 0.246272 0.530125
Si Si5 0.096290 0.001402 0.187677
Si Si6 0.350293 0.130470 0.227073
Si Si7 0.258868 0.396154 0.521225
O O1 0.750000 0.647083 0.750000
O O2 0.886673 0.682526 0.810040
O O3 0.905918 0.592874 0.719537
O O4 0.884270 0.765039 0.719946
O O5 0.500000 0.605872 0.624146
O O6 0.325066 0.568601 0.616065
O O7 0.383391 0.732294 0.592345
O O8 0.180170 0.012835 0.149179
O O9 0.349378 0.076450 0.172973
O O10 0.281028 0.098013 0.081947
O O11 0.835464 0.337694 0.513109
O O12 0.845952 0.155843 0.503897
O O13 0.000000 0.255067 0.513742
O O14 0.087879 0.079568 0.231314
O O15 0.000000 0.006006 0.155832
O O16 0.250000 0.135689 0.250000
O O17 0.245068 0.500000 0.500000
#
# Coordination Sequence:
#
# PCOD8264623 Si02
#       7
#    16  16  16  16  16  16  16
#     4  11  20  36  60  86 128 169 208 260 312 371
#     4  11  22  39  66  93 122 167 220 272 323 383
#     4  11  22  41  63  91 128 168 215 265 323 382
#     4  10  25  46  70 101 130 167 222 278 334 400
#     4  11  22  37  56  85 127 167 209 256 310 378
#     4   9  21  36  57  86 119 167 210 256 305 369
#     4  11  24  44  72  98 131 172 217 277 339 397
#
# _framework density 20.533211000000001
#
# number of rings (size 3 to 8) (size 9 to 14) (size 15 to 20)
#    0.000    1.429    4.286    0.857    6.000    2.857 
#    0.000    0.000    0.000    0.000    0.000    0.000 
#    0.000    0.000    0.000    0.000    0.000    0.000 
#
# Total GULP energy -694180.342720 kJ/mol
# GULP energy per Si atom -12396.077549 kJ/mol
# Density = 2.048648 g / cm^3
# Si number density = 20.533211 Si / 1000 Ang^3
#
#
#
# Elastic Constant Matrix: (Units=GPa)
#
#
# Indices 1 2 3 4 5 6 
#
# 1 129.9065 30.9124 29.1847 0.0000 0.0000 0.0000
# 2 30.9124 97.5194 10.5062 0.0000 0.0000 0.0000
# 3 29.1847 10.5062 79.0480 0.0000 0.0000 0.0000
# 4 0.0000 0.0000 0.0000 25.2716 0.0000 0.0000
# 5 0.0000 0.0000 0.0000 0.0000 20.8887 0.0000
# 6 0.0000 0.0000 0.0000 0.0000 0.0000 -34.7787
#
#
#
# Elastic Compliance Matrix: (Units=1/GPa)
#
#
# Indices 1 2 3 4 5 6 
#
# 1 0.008966 -0.002522 -0.002975 0.000000 0.000000 0.000000
# 2 -0.002522 0.011113 -0.000546 0.000000 0.000000 0.000000
# 3 -0.002975 -0.000546 0.013822 0.000000 0.000000 0.000000
# 4 0.000000 0.000000 0.000000 0.039570 0.000000 0.000000
# 5 0.000000 0.000000 0.000000 0.000000 0.047873 0.000000
# 6 0.000000 0.000000 0.000000 0.000000 0.000000 -0.028753
#
#
# Mechanical properties :
#
#
# Convention : Reuss Voigt Hill
#
# Bulk Modulus (GPa) = 45.84063 49.74228 47.79146
# Shear Modulus (GPa) = 44.66380 18.00100 31.33240
#
# Velocity S-wave (km/s) = 4.66896 2.96409 3.91056
# Velocity P-wave (km/s) = 7.17211 5.99936 6.61179
#
# Compressibility (1/GPa) = 0.02181471
#
# Stress axis : x y z
#
# Youngs Moduli (GPa) = 111.52854 89.98855 72.35066
#
# Poissons Ratio (x) = 0.22692 0.21526
# Poissons Ratio (y) = 0.28124 0.03950
# Poissons Ratio (z) = 0.33182 0.04913
#
# Static dielectric constant tensor:
#      x y z
#    x 3.572700 0.000000 0.000000 
#    y 0.000000 4.004190 0.000000 
#    z 0.000000 0.000000 3.697950 
# 
# 
# High freq. dielectric constant tensor:
#      x y z
#    x 1.809120 0.000000 0.000000 
#    y 0.000000 1.809690 0.000000 
#    z 0.000000 0.000000 1.788330 
# 
# From -- ./inp_files/50082.got.cif
#   From: 2010.03.12/outbox.cif.g09.slc.cpg/sg64_26_cif.got.tgz:50082.got - 2010.04.10 20:19:32.
