data_PCOD8264684
_publ_section_title
;
Structure prediction by ZEFSAII (Michael W. Deem and Ramdas Pophale) SiO2 
 PCOD8264684
Probable space group: C M C A
;
_chemical_formula_sum "Si O2"
_cell_formula_units_Z 48
_cell_length_a 12.665826
_cell_length_b 14.377000
_cell_length_c 12.615514
_cell_angle_alpha 90.000000
_cell_angle_beta 90.000000
_cell_angle_gamma 90.000000
_cell_volume 2297.241959
_symmetry_space_group_name_H-M "C M C A"
_symmetry_group_IT_number 64
_symmetry_cell_setting 'orthorhombic'
loop_
_space_group_symop_operation_xyz
x,y,z
-x,1/2-y,1/2+z
x,-y,-z
-x,1/2+y,1/2-z
-x,-y,-z
x,1/2+y,1/2-z
-x,y,z
x,1/2-y,1/2+z
1/2+x,1/2+y,z
1/2-x,-y,1/2+z
1/2+x,1/2-y,-z
1/2-x,y,1/2-z
1/2-x,1/2-y,-z
1/2+x,y,1/2-z
1/2-x,1/2+y,z
1/2+x,-y,1/2+z
loop_
_atom_site_type_symbol
_atom_site_label
_atom_site_fract_x
_atom_site_fract_y
_atom_site_fract_z
Si Si1 0.327829 0.500000 0.500000
Si Si2 0.820710 0.337623 0.528581
Si Si3 0.000000 0.620792 0.333571
Si Si4 0.000000 0.583590 0.609179
Si Si5 0.500000 0.976274 0.165630
O O1 0.257872 0.578703 0.445796
O O2 0.397883 0.542423 0.594297
O O3 0.750000 0.250000 0.500000
O O4 0.894381 0.321659 0.633728
O O5 0.895248 0.363753 0.429637
O O6 0.000000 0.529242 0.413885
O O7 0.000000 0.583868 0.212369
O O8 0.000000 0.595934 0.737319
#
# Coordination Sequence:
#
# PCOD8264684 Si02
#       5
#     8  16   8   8   8
#     4  11  20  41  56  94 116 161 212 253 298 348
#     4  11  21  36  66  89 119 158 207 248 303 367
#     4   9  19  42  60  85 118 167 197 238 310 358
#     4   9  19  42  60  85 118 167 197 238 310 358
#     4   9  22  35  66  80 126 163 198 257 300 356
#
# _framework density 20.894621000000001
#
# number of rings (size 3 to 8) (size 9 to 14) (size 15 to 20)
#    1.000    1.000    3.333    1.000    0.000   10.667 
#    0.000   10.000    0.000    0.000    0.000    0.000 
#    0.000    0.000    0.000    0.000    0.000    0.000 
#
# Total GULP energy -297431.670995 kJ/mol
# GULP energy per Si atom -12392.986291 kJ/mol
# Density = 2.084706 g / cm^3
# Si number density = 20.894621 Si / 1000 Ang^3
#
#
#
# Elastic Constant Matrix: (Units=GPa)
#
#
# Indices 1 2 3 4 5 6 
#
# 1 147.2030 35.8306 26.3341 0.0000 0.0000 0.0000
# 2 35.8306 67.8552 -14.6997 0.0000 0.0000 0.0000
# 3 26.3341 -14.6997 69.2539 0.0000 0.0000 0.0000
# 4 0.0000 0.0000 0.0000 21.0820 0.0000 0.0000
# 5 0.0000 0.0000 0.0000 0.0000 4.4889 0.0000
# 6 0.0000 0.0000 0.0000 0.0000 0.0000 46.7350
#
#
#
# Elastic Compliance Matrix: (Units=1/GPa)
#
#
# Indices 1 2 3 4 5 6 
#
# 1 0.009034 -0.005781 -0.004662 0.000000 0.000000 0.000000
# 2 -0.005781 0.019146 0.006262 0.000000 0.000000 0.000000
# 3 -0.004662 0.006262 0.017542 0.000000 0.000000 0.000000
# 4 0.000000 0.000000 0.000000 0.047434 0.000000 0.000000
# 5 0.000000 0.000000 0.000000 0.000000 0.222774 0.000000
# 6 0.000000 0.000000 0.000000 0.000000 0.000000 0.021397
#
#
# Mechanical properties :
#
#
# Convention : Reuss Voigt Hill
#
# Bulk Modulus (GPa) = 26.76622 42.13802 34.45212
# Shear Modulus (GPa) = 13.96090 30.25097 22.10593
#
# Velocity S-wave (km/s) = 2.58768 3.80911 3.25618
# Velocity P-wave (km/s) = 4.66541 6.28939 5.53726
#
# Compressibility (1/GPa) = 0.03736052
#
# Stress axis : x y z
#
# Youngs Moduli (GPa) = 110.68697 52.22942 57.00708
#
# Poissons Ratio (x) = 0.30192 0.26579
# Poissons Ratio (y) = 0.63984 -0.35698
# Poissons Ratio (z) = 0.51607 -0.32706
#
# Static dielectric constant tensor:
#      x y z
#    x 3.988130 0.000000 0.000000 
#    y 0.000000 3.038480 0.000000 
#    z 0.000000 0.000000 3.595140 
# 
# 
# High freq. dielectric constant tensor:
#      x y z
#    x 1.836870 0.000000 0.000000 
#    y 0.000000 1.783180 0.000000 
#    z 0.000000 0.000000 1.807300 
# 
# From -- ./inp_files/21691.got.cif
#   From: 2010.03.12/outbox.cif.g09.slc.cpg/sg64_11_cif.got.tgz:21691.got - 2010.04.10 20:19:32.
