data_PCOD8264419
_publ_section_title
;
Structure prediction by ZEFSAII (Michael W. Deem and Ramdas Pophale) SiO2 
 PCOD8264419
Probable space group: C M C A
;
_chemical_formula_sum "Si O2"
_cell_formula_units_Z 112
_cell_length_a 22.829126
_cell_length_b 16.347274
_cell_length_c 14.348783
_cell_angle_alpha 90.000000
_cell_angle_beta 90.000000
_cell_angle_gamma 90.000000
_cell_volume 5354.879406
_symmetry_space_group_name_H-M "C M C A"
_symmetry_group_IT_number 64
_symmetry_cell_setting 'orthorhombic'
loop_
_space_group_symop_operation_xyz
x,y,z
-x,1/2-y,1/2+z
x,-y,-z
-x,1/2+y,1/2-z
-x,-y,-z
x,1/2+y,1/2-z
-x,y,z
x,1/2-y,1/2+z
1/2+x,1/2+y,z
1/2-x,-y,1/2+z
1/2+x,1/2-y,-z
1/2-x,y,1/2-z
1/2-x,1/2-y,-z
1/2+x,y,1/2-z
1/2-x,1/2+y,z
1/2+x,-y,1/2+z
loop_
_atom_site_type_symbol
_atom_site_label
_atom_site_fract_x
_atom_site_fract_y
_atom_site_fract_z
Si Si1 0.814766 0.594689 0.241528
Si Si2 0.262815 0.330550 0.059245
Si Si3 0.566342 0.647088 0.677060
Si Si4 0.136384 0.758674 0.167920
Si Si5 0.854965 0.576866 0.442664
Si Si6 0.836707 0.542878 0.901637
Si Si7 0.434309 0.776929 0.514056
O O1 0.750000 0.632379 0.250000
O O2 0.856134 0.669763 0.212971
O O3 0.839369 0.554889 0.336461
O O4 0.808474 0.523725 0.165809
O O5 0.302008 0.304884 0.148443
O O6 0.203786 0.375555 0.093380
O O7 0.250000 0.250000 0.000000
O O8 0.295941 0.393088 0.992217
O O9 0.500000 0.621565 0.703268
O O10 0.597325 0.683620 0.767822
O O11 0.600598 0.567275 0.641258
O O12 0.566607 0.711337 0.594667
O O13 0.103704 0.742872 0.070856
O O14 0.878894 0.500000 0.500000
O O15 0.906966 0.641440 0.443911
O O16 0.846781 0.500000 0.000000
O O17 0.500000 0.794939 0.479853
#
# Coordination Sequence:
#
# PCOD8264419 Si02
#       7
#    16  16  16  16  16  16  16
#     4  12  25  40  65 102 138 177 216 276 349 411
#     4  11  23  42  68  98 135 180 221 276 341 420
#     4  11  25  45  69  98 130 178 239 280 328 404
#     4  11  24  42  69  98 135 176 226 282 340 404
#     4  11  23  41  60  94 136 175 218 273 338 407
#     4  12  26  44  66 101 140 177 222 280 348 409
#     4  10  22  44  70  92 127 176 228 282 330 394
#
# _framework density 20.915503000000001
#
# number of rings (size 3 to 8) (size 9 to 14) (size 15 to 20)
#    0.000    0.857    1.429    6.857    8.000    0.571 
#    0.000    2.143    0.000    0.000    0.000    0.000 
#    0.000    0.000    0.000    0.000    0.000    0.000 
#
# Total GULP energy -694665.884769 kJ/mol
# GULP energy per Si atom -12404.747942 kJ/mol
# Density = 2.086790 g / cm^3
# Si number density = 20.915503 Si / 1000 Ang^3
#
#
#
# Elastic Constant Matrix: (Units=GPa)
#
#
# Indices 1 2 3 4 5 6 
#
# 1 120.1365 32.0636 29.0059 0.0000 0.0000 0.0000
# 2 32.0636 75.5714 30.1460 0.0000 0.0000 0.0000
# 3 29.0059 30.1460 116.3463 0.0000 0.0000 0.0000
# 4 0.0000 0.0000 0.0000 35.6500 0.0000 0.0000
# 5 0.0000 0.0000 0.0000 0.0000 32.1027 0.0000
# 6 0.0000 0.0000 0.0000 0.0000 0.0000 15.3198
#
#
#
# Elastic Compliance Matrix: (Units=1/GPa)
#
#
# Indices 1 2 3 4 5 6 
#
# 1 0.009614 -0.003483 -0.001494 0.000000 0.000000 0.000000
# 2 -0.003483 0.016020 -0.003282 0.000000 0.000000 0.000000
# 3 -0.001494 -0.003282 0.009818 0.000000 0.000000 0.000000
# 4 0.000000 0.000000 0.000000 0.028051 0.000000 0.000000
# 5 0.000000 0.000000 0.000000 0.000000 0.031150 0.000000
# 6 0.000000 0.000000 0.000000 0.000000 0.000000 0.065275
#
#
# Mechanical properties :
#
#
# Convention : Reuss Voigt Hill
#
# Bulk Modulus (GPa) = 52.81990 54.94280 53.88135
# Shear Modulus (GPa) = 27.35854 31.33707 29.34781
#
# Velocity S-wave (km/s) = 3.62062 3.87495 3.74994
# Velocity P-wave (km/s) = 6.54120 6.80781 6.67584
#
# Compressibility (1/GPa) = 0.01893226
#
# Stress axis : x y z
#
# Youngs Moduli (GPa) = 104.01198 62.42315 101.85267
#
# Poissons Ratio (x) = 0.21742 0.15221
# Poissons Ratio (y) = 0.36228 0.33433
# Poissons Ratio (z) = 0.15544 0.20490
#
# Static dielectric constant tensor:
#      x y z
#    x 4.071720 0.000000 0.000000 
#    y 0.000000 2.919210 0.000000 
#    z 0.000000 0.000000 3.919630 
# 
# 
# High freq. dielectric constant tensor:
#      x y z
#    x 1.819680 0.000000 0.000000 
#    y 0.000000 1.818620 0.000000 
#    z 0.000000 0.000000 1.835450 
# 
# From -- ./inp_files/27378.got.cif
#   From: 2010.03.12/outbox.cif.g09.slc.cpg/sg64_14_cif.got.tgz:27378.got - 2010.04.10 20:19:32.
