data_PCOD8264843
_publ_section_title
;
Structure prediction by ZEFSAII (Michael W. Deem and Ramdas Pophale) SiO2 
 PCOD8264843
Probable space group: C M C A
;
_chemical_formula_sum "Si O2"
_cell_formula_units_Z 80
_cell_length_a 8.735395
_cell_length_b 24.215291
_cell_length_c 18.552569
_cell_angle_alpha 90.000000
_cell_angle_beta 90.000000
_cell_angle_gamma 90.000000
_cell_volume 3924.427368
_symmetry_space_group_name_H-M "C M C A"
_symmetry_group_IT_number 64
_symmetry_cell_setting 'orthorhombic'
loop_
_space_group_symop_operation_xyz
x,y,z
-x,1/2-y,1/2+z
x,-y,-z
-x,1/2+y,1/2-z
-x,-y,-z
x,1/2+y,1/2-z
-x,y,z
x,1/2-y,1/2+z
1/2+x,1/2+y,z
1/2-x,-y,1/2+z
1/2+x,1/2-y,-z
1/2-x,y,1/2-z
1/2-x,1/2-y,-z
1/2+x,y,1/2-z
1/2-x,1/2+y,z
1/2+x,-y,1/2+z
loop_
_atom_site_type_symbol
_atom_site_label
_atom_site_fract_x
_atom_site_fract_y
_atom_site_fract_z
Si Si1 0.822625 0.396143 0.944651
Si Si2 0.677073 0.584469 0.907796
Si Si3 0.678582 0.486998 0.675206
Si Si4 0.323101 0.696782 0.825863
Si Si5 0.180050 0.221179 0.069360
O O1 0.788976 0.439784 0.882567
O O2 0.721466 0.342884 0.928293
O O3 0.000000 0.379325 0.948299
O O4 0.773484 0.424175 0.019582
O O5 0.500000 0.572050 0.923427
O O6 0.738761 0.543337 0.847329
O O7 0.701130 0.646657 0.880855
O O8 0.500000 0.499128 0.684472
O O9 0.750000 0.466376 0.750000
O O10 0.500000 0.710419 0.814263
O O11 0.250000 0.680729 0.750000
O O12 0.241855 0.750721 0.858032
O O13 0.000000 0.228012 0.065168
O O14 0.250000 0.250000 0.000000
#
# Coordination Sequence:
#
# PCOD8264843 Si02
#       5
#    16  16  16  16  16
#     4  11  24  42  66  94 128 168 215 266 319 382
#     4  11  23  40  66  96 128 167 213 264 319 381
#     4  11  25  43  64  92 128 170 213 264 321 378
#     4  11  24  41  63  95 130 168 213 262 321 381
#     4  12  24  41  66  94 127 168 212 264 317 377
#
# _framework density 20.38514
#
# number of rings (size 3 to 8) (size 9 to 14) (size 15 to 20)
#    0.000    0.800    2.000    5.400    0.000   10.400 
#    0.000    2.000    0.000    0.000    0.000    0.000 
#    0.000    0.000    0.000    0.000    0.000    0.000 
#
# Total GULP energy -496375.685580 kJ/mol
# GULP energy per Si atom -12409.392140 kJ/mol
# Density = 2.033874 g / cm^3
# Si number density = 20.385140 Si / 1000 Ang^3
#
#
#
# Elastic Constant Matrix: (Units=GPa)
#
#
# Indices 1 2 3 4 5 6 
#
# 1 136.3238 40.7591 55.6192 0.0000 0.0000 0.0000
# 2 40.7591 73.0802 23.4853 0.0000 0.0000 0.0000
# 3 55.6192 23.4853 126.4685 0.0000 0.0000 0.0000
# 4 0.0000 0.0000 0.0000 15.0655 0.0000 0.0000
# 5 0.0000 0.0000 0.0000 0.0000 40.5738 0.0000
# 6 0.0000 0.0000 0.0000 0.0000 0.0000 35.2425
#
#
#
# Elastic Compliance Matrix: (Units=1/GPa)
#
#
# Indices 1 2 3 4 5 6 
#
# 1 0.010164 -0.004501 -0.003634 0.000000 0.000000 0.000000
# 2 -0.004501 0.016545 -0.001093 0.000000 0.000000 0.000000
# 3 -0.003634 -0.001093 0.009708 0.000000 0.000000 0.000000
# 4 0.000000 0.000000 0.000000 0.066377 0.000000 0.000000
# 5 0.000000 0.000000 0.000000 0.000000 0.024646 0.000000
# 6 0.000000 0.000000 0.000000 0.000000 0.000000 0.028375
#
#
# Mechanical properties :
#
#
# Convention : Reuss Voigt Hill
#
# Bulk Modulus (GPa) = 55.67520 63.95553 59.81537
# Shear Modulus (GPa) = 27.73792 32.57694 30.15743
#
# Velocity S-wave (km/s) = 3.69276 4.00193 3.85045
# Velocity P-wave (km/s) = 6.74929 7.26606 7.01244
#
# Compressibility (1/GPa) = 0.01796132
#
# Stress axis : x y z
#
# Youngs Moduli (GPa) = 98.38779 60.44082 103.00439
#
# Poissons Ratio (x) = 0.27203 0.37433
# Poissons Ratio (y) = 0.44283 0.11259
# Poissons Ratio (z) = 0.35755 0.06606
#
# Static dielectric constant tensor:
#      x y z
#    x 3.885870 0.000000 0.000000 
#    y 0.000000 3.738100 0.000000 
#    z 0.000000 0.000000 1.548750 
# 
# 
# High freq. dielectric constant tensor:
#      x y z
#    x 1.814950 0.000000 0.000000 
#    y 0.000000 1.801950 0.000000 
#    z 0.000000 0.000000 1.806900 
# 
# From -- ./inp_files/29781.got.cif
#   From: 2010.03.12/outbox.cif.g09.slc.cpg/sg64_15_cif.got.tgz:29781.got - 2010.04.10 20:19:32.
