data_PCOD8264537
_publ_section_title
;
Structure prediction by ZEFSAII (Michael W. Deem and Ramdas Pophale) SiO2 
 PCOD8264537
Probable space group: C M C A
;
_chemical_formula_sum "Si O2"
_cell_formula_units_Z 96
_cell_length_a 14.162378
_cell_length_b 20.619533
_cell_length_c 14.488127
_cell_angle_alpha 90.000000
_cell_angle_beta 90.000000
_cell_angle_gamma 90.000000
_cell_volume 4230.846325
_symmetry_space_group_name_H-M "C M C A"
_symmetry_group_IT_number 64
_symmetry_cell_setting 'orthorhombic'
loop_
_space_group_symop_operation_xyz
x,y,z
-x,1/2-y,1/2+z
x,-y,-z
-x,1/2+y,1/2-z
-x,-y,-z
x,1/2+y,1/2-z
-x,y,z
x,1/2-y,1/2+z
1/2+x,1/2+y,z
1/2-x,-y,1/2+z
1/2+x,1/2-y,-z
1/2-x,y,1/2-z
1/2-x,1/2-y,-z
1/2+x,y,1/2-z
1/2-x,1/2+y,z
1/2+x,-y,1/2+z
loop_
_atom_site_type_symbol
_atom_site_label
_atom_site_fract_x
_atom_site_fract_y
_atom_site_fract_z
Si Si1 0.104997 0.407967 0.657121
Si Si2 0.357981 0.956207 0.265826
Si Si3 0.102096 0.939429 0.437415
Si Si4 0.108023 0.315437 0.825038
Si Si5 0.606498 0.322744 0.127386
Si Si6 0.247776 0.354568 0.519693
O O1 0.098499 0.483699 0.679541
O O2 0.140534 0.361188 0.740747
O O3 0.178051 0.402585 0.573725
O O4 0.000000 0.384870 0.627754
O O5 0.250000 0.971632 0.250000
O O6 0.411090 0.957140 0.168890
O O7 0.372199 0.888996 0.319249
O O8 0.187843 0.890040 0.444461
O O9 0.000000 0.912117 0.471451
O O10 0.130470 0.000000 0.500000
O O11 0.114228 0.238333 0.801349
O O12 0.179493 0.321816 0.910362
O O13 0.000000 0.334060 0.852960
O O14 0.500000 0.325658 0.087254
O O15 0.679175 0.309172 0.042130
#
# Coordination Sequence:
#
# PCOD8264537 Si02
#       6
#    16  16  16  16  16  16
#     4  11  24  43  70  97 133 178 224 272 333 404
#     4  12  23  43  68  99 134 179 222 273 335 400
#     4  11  23  40  64  96 133 173 223 278 327 387
#     4  10  23  45  68  95 132 180 227 277 333 400
#     4  11  25  44  66  97 140 175 220 281 341 402
#     4  12  23  41  66  99 131 173 227 271 337 395
#
# _framework density 22.690496
#
# number of rings (size 3 to 8) (size 9 to 14) (size 15 to 20)
#    0.000    0.833    1.667    6.500    0.000    4.000 
#    3.000    1.667    0.000    0.000    0.000    0.000 
#    0.000    0.000    0.000    0.000    0.000    0.000 
#
# Total GULP energy -594853.105747 kJ/mol
# GULP energy per Si atom -12392.773036 kJ/mol
# Density = 2.263885 g / cm^3
# Si number density = 22.690496 Si / 1000 Ang^3
#
#
#
# Elastic Constant Matrix: (Units=GPa)
#
#
# Indices 1 2 3 4 5 6 
#
# 1 133.6224 12.3618 13.4502 0.0000 0.0000 0.0000
# 2 12.3618 97.7101 12.1117 0.0000 0.0000 0.0000
# 3 13.4502 12.1117 56.5088 0.0000 0.0000 0.0000
# 4 0.0000 0.0000 0.0000 31.5421 0.0000 0.0000
# 5 0.0000 0.0000 0.0000 0.0000 88.2979 0.0000
# 6 0.0000 0.0000 0.0000 0.0000 0.0000 99.7855
#
#
#
# Elastic Compliance Matrix: (Units=1/GPa)
#
#
# Indices 1 2 3 4 5 6 
#
# 1 0.007723 -0.000770 -0.001673 0.000000 0.000000 0.000000
# 2 -0.000770 0.010590 -0.002087 0.000000 0.000000 0.000000
# 3 -0.001673 -0.002087 0.018542 0.000000 0.000000 0.000000
# 4 0.000000 0.000000 0.000000 0.031704 0.000000 0.000000
# 5 0.000000 0.000000 0.000000 0.000000 0.011325 0.000000
# 6 0.000000 0.000000 0.000000 0.000000 0.000000 0.010021
#
#
# Mechanical properties :
#
#
# Convention : Reuss Voigt Hill
#
# Bulk Modulus (GPa) = 35.97606 40.40986 38.19296
# Shear Modulus (GPa) = 46.19746 60.58627 53.39186
#
# Velocity S-wave (km/s) = 4.51708 5.17292 4.85609
# Velocity P-wave (km/s) = 6.56467 7.31619 6.95060
#
# Compressibility (1/GPa) = 0.02779626
#
# Stress axis : x y z
#
# Youngs Moduli (GPa) = 129.47634 94.42527 53.93189
#
# Poissons Ratio (x) = 0.07268 0.09025
# Poissons Ratio (y) = 0.09966 0.11254
# Poissons Ratio (z) = 0.21666 0.19703
#
# Static dielectric constant tensor:
#      x y z
#    x 4.525090 0.000000 0.000000 
#    y 0.000000 3.972630 0.000000 
#    z 0.000000 0.000000 4.204590 
# 
# 
# High freq. dielectric constant tensor:
#      x y z
#    x 1.931860 0.000000 0.000000 
#    y 0.000000 1.885370 0.000000 
#    z 0.000000 0.000000 1.878100 
# 
# From -- ./inp_files/23920.got.cif
#   From: 2010.03.12/outbox.cif.g09.slc.cpg/sg64_12_cif.got.tgz:23920.got - 2010.04.10 20:19:32.
