data_PCOD8264325
_publ_section_title
;
Structure prediction by ZEFSAII (Michael W. Deem and Ramdas Pophale) SiO2 
 PCOD8264325
Probable space group: C M C A
;
_chemical_formula_sum "Si O2"
_cell_formula_units_Z 80
_cell_length_a 14.231580
_cell_length_b 10.675933
_cell_length_c 26.006405
_cell_angle_alpha 90.000000
_cell_angle_beta 90.000000
_cell_angle_gamma 90.000000
_cell_volume 3951.293405
_symmetry_space_group_name_H-M "C M C A"
_symmetry_group_IT_number 64
_symmetry_cell_setting 'orthorhombic'
loop_
_space_group_symop_operation_xyz
x,y,z
-x,1/2-y,1/2+z
x,-y,-z
-x,1/2+y,1/2-z
-x,-y,-z
x,1/2+y,1/2-z
-x,y,z
x,1/2-y,1/2+z
1/2+x,1/2+y,z
1/2-x,-y,1/2+z
1/2+x,1/2-y,-z
1/2-x,y,1/2-z
1/2-x,1/2-y,-z
1/2+x,y,1/2-z
1/2-x,1/2+y,z
1/2+x,-y,1/2+z
loop_
_atom_site_type_symbol
_atom_site_label
_atom_site_fract_x
_atom_site_fract_y
_atom_site_fract_z
Si Si1 0.608818 0.978078 0.394173
Si Si2 0.850052 0.027603 0.778719
Si Si3 0.743101 0.123701 0.967485
Si Si4 0.351852 0.757830 0.725538
Si Si5 0.391695 0.735489 0.610551
O O1 0.500000 0.938263 0.390533
O O2 0.658618 0.894122 0.437399
O O3 0.659806 0.953948 0.339747
O O4 0.619021 0.123075 0.410666
O O5 0.750000 0.031015 0.750000
O O6 0.902521 0.894168 0.768626
O O7 0.907715 0.146179 0.755161
O O8 0.658062 0.138420 0.927393
O O9 0.750000 0.250000 0.000000
O O10 0.719353 0.000000 0.000000
O O11 0.250000 0.774353 0.750000
O O12 0.342850 0.723338 0.665890
O O13 0.500000 0.696968 0.615505
#
# Coordination Sequence:
#
# PCOD8264325 Si02
#       5
#    16  16  16  16  16
#     4  10  22  41  64  90 125 170 211 246 305 389
#     4   9  17  32  56  85 120 158 196 241 293 352
#     4  12  24  42  68  93 119 158 207 267 322 368
#     4   9  17  32  56  84 119 159 197 239 292 356
#     4  10  22  41  63  90 127 167 206 254 313 374
#
# _framework density 20.246535000000002
#
# number of rings (size 3 to 8) (size 9 to 14) (size 15 to 20)
#    0.000    2.000    2.000    2.400    0.000    2.400 
#    3.600    0.000    0.000    0.000    0.000    0.000 
#    0.000    0.000    0.000    0.000    0.000    0.000 
#
# Total GULP energy -495625.456414 kJ/mol
# GULP energy per Si atom -12390.636410 kJ/mol
# Density = 2.020045 g / cm^3
# Si number density = 20.246535 Si / 1000 Ang^3
#
#
#
# Elastic Constant Matrix: (Units=GPa)
#
#
# Indices 1 2 3 4 5 6 
#
# 1 106.3624 14.4554 55.4447 0.0000 0.0000 0.0000
# 2 14.4554 173.0813 76.8190 0.0000 0.0000 0.0000
# 3 55.4447 76.8190 130.8254 0.0000 0.0000 0.0000
# 4 0.0000 0.0000 0.0000 47.9557 0.0000 0.0000
# 5 0.0000 0.0000 0.0000 0.0000 6.7950 0.0000
# 6 0.0000 0.0000 0.0000 0.0000 0.0000 16.3904
#
#
#
# Elastic Compliance Matrix: (Units=1/GPa)
#
#
# Indices 1 2 3 4 5 6 
#
# 1 0.012453 0.001761 -0.006312 0.000000 0.000000 0.000000
# 2 0.001761 0.008063 -0.005481 0.000000 0.000000 0.000000
# 3 -0.006312 -0.005481 0.013537 0.000000 0.000000 0.000000
# 4 0.000000 0.000000 0.000000 0.020853 0.000000 0.000000
# 5 0.000000 0.000000 0.000000 0.000000 0.147166 0.000000
# 6 0.000000 0.000000 0.000000 0.000000 0.000000 0.061011
#
#
# Mechanical properties :
#
#
# Convention : Reuss Voigt Hill
#
# Bulk Modulus (GPa) = 71.47952 78.18971 74.83461
# Shear Modulus (GPa) = 17.37260 31.79823 24.58541
#
# Velocity S-wave (km/s) = 2.93243 3.96732 3.48846
# Velocity P-wave (km/s) = 6.84447 7.72585 7.29848
#
# Compressibility (1/GPa) = 0.01399002
#
# Stress axis : x y z
#
# Youngs Moduli (GPa) = 80.30428 124.02007 73.87074
#
# Poissons Ratio (x) = -0.21844 0.46625
# Poissons Ratio (y) = -0.14144 0.40489
# Poissons Ratio (z) = 0.50686 0.67976
#
# Static dielectric constant tensor:
#      x y z
#    x 3.376230 0.000000 0.000000 
#    y 0.000000 4.955770 0.000000 
#    z 0.000000 0.000000 3.715390 
# 
# 
# High freq. dielectric constant tensor:
#      x y z
#    x 1.769400 0.000000 0.000000 
#    y 0.000000 1.803680 0.000000 
#    z 0.000000 0.000000 1.796130 
# 
# From -- ./inp_files/44962.got.cif
#   From: 2010.03.12/outbox.cif.g09.slc.cpg/sg64_23_cif.got.tgz:44962.got - 2010.04.10 20:19:32.
