data_PCOD8264602
_publ_section_title
;
Structure prediction by ZEFSAII (Michael W. Deem and Ramdas Pophale) SiO2 
 PCOD8264602
Probable space group: C M C A
;
_chemical_formula_sum "Si O2"
_cell_formula_units_Z 64
_cell_length_a 9.404435
_cell_length_b 11.556985
_cell_length_c 26.531591
_cell_angle_alpha 90.000000
_cell_angle_beta 90.000000
_cell_angle_gamma 90.000000
_cell_volume 2883.636755
_symmetry_space_group_name_H-M "C M C A"
_symmetry_group_IT_number 64
_symmetry_cell_setting 'orthorhombic'
loop_
_space_group_symop_operation_xyz
x,y,z
-x,1/2-y,1/2+z
x,-y,-z
-x,1/2+y,1/2-z
-x,-y,-z
x,1/2+y,1/2-z
-x,y,z
x,1/2-y,1/2+z
1/2+x,1/2+y,z
1/2-x,-y,1/2+z
1/2+x,1/2-y,-z
1/2-x,y,1/2-z
1/2-x,1/2-y,-z
1/2+x,y,1/2-z
1/2-x,1/2+y,z
1/2+x,-y,1/2+z
loop_
_atom_site_type_symbol
_atom_site_label
_atom_site_fract_x
_atom_site_fract_y
_atom_site_fract_z
Si Si1 0.000000 0.770480 0.527586
Si Si2 0.500000 0.729681 0.187911
Si Si3 0.500000 0.957863 0.309829
Si Si4 0.500000 0.967603 0.420695
Si Si5 0.000000 0.362307 0.084920
Si Si6 0.707031 0.954689 0.944534
Si Si7 0.750000 0.157816 0.750000
O O1 0.000000 0.632924 0.536820
O O2 0.000000 0.791280 0.467638
O O3 0.137365 0.826711 0.555818
O O4 0.500000 0.593806 0.184912
O O5 0.500000 0.775876 0.131304
O O6 0.645980 0.765243 0.215666
O O7 0.500000 0.905763 0.366328
O O8 0.645512 0.921248 0.282956
O O9 0.630964 0.054858 0.428012
O O10 0.866131 0.449226 0.090896
O O11 0.681957 0.000000 0.000000
#
# Coordination Sequence:
#
# PCOD8264602 Si02
#       7
#     8   8   8   8   8  16   8
#     4   9  22  42  57  84 135 171 198 249 295 351
#     4  11  22  42  68  90 122 159 198 260 314 360
#     4  11  25  42  65  95 120 154 206 253 310 377
#     4  12  23  35  62  97 119 157 211 249 300 365
#     4   9  19  39  64  88 122 171 207 239 306 371
#     4   9  20  38  57  84 125 167 205 243 287 348
#     4  10  24  46  66  90 120 154 202 258 320 374
#
# _framework density 22.194196999999999
#
# number of rings (size 3 to 8) (size 9 to 14) (size 15 to 20)
#    0.000    2.000    0.000    4.125    0.000   10.000 
#    0.000   11.250    0.000    0.000    0.000    0.000 
#    0.000    0.000    0.000    0.000    0.000    0.000 
#
# Total GULP energy -396671.637212 kJ/mol
# GULP energy per Si atom -12395.988663 kJ/mol
# Density = 2.214368 g / cm^3
# Si number density = 22.194197 Si / 1000 Ang^3
#
#
#
# Elastic Constant Matrix: (Units=GPa)
#
#
# Indices 1 2 3 4 5 6 
#
# 1 182.9786 40.0686 41.8524 0.0000 0.0000 0.0000
# 2 40.0686 68.9795 32.7500 0.0000 0.0000 0.0000
# 3 41.8524 32.7500 103.2751 0.0000 0.0000 0.0000
# 4 0.0000 0.0000 0.0000 54.9853 0.0000 0.0000
# 5 0.0000 0.0000 0.0000 0.0000 24.2825 0.0000
# 6 0.0000 0.0000 0.0000 0.0000 0.0000 13.5010
#
#
#
# Elastic Compliance Matrix: (Units=1/GPa)
#
#
# Indices 1 2 3 4 5 6 
#
# 1 0.006504 -0.002974 -0.001692 0.000000 0.000000 0.000000
# 2 -0.002974 0.018427 -0.004638 0.000000 0.000000 0.000000
# 3 -0.001692 -0.004638 0.011840 0.000000 0.000000 0.000000
# 4 0.000000 0.000000 0.000000 0.018187 0.000000 0.000000
# 5 0.000000 0.000000 0.000000 0.000000 0.041182 0.000000
# 6 0.000000 0.000000 0.000000 0.000000 0.000000 0.074068
#
#
# Mechanical properties :
#
#
# Convention : Reuss Voigt Hill
#
# Bulk Modulus (GPa) = 55.06482 64.95279 60.00880
# Shear Modulus (GPa) = 25.65818 34.59125 30.12472
#
# Velocity S-wave (km/s) = 3.40380 3.95216 3.68818
# Velocity P-wave (km/s) = 6.34918 7.08204 6.72560
#
# Compressibility (1/GPa) = 0.01816042
#
# Stress axis : x y z
#
# Youngs Moduli (GPa) = 153.76302 54.26880 84.46285
#
# Poissons Ratio (x) = 0.16141 0.14294
# Poissons Ratio (y) = 0.45733 0.39175
# Poissons Ratio (z) = 0.26023 0.25170
#
# Static dielectric constant tensor:
#      x y z
#    x 1.015510 0.000000 0.000000 
#    y 0.000000 3.808530 0.000000 
#    z 0.000000 0.000000 4.013230 
# 
# 
# High freq. dielectric constant tensor:
#      x y z
#    x 1.894720 0.000000 0.000000 
#    y 0.000000 1.872010 0.000000 
#    z 0.000000 0.000000 1.862980 
# 
# From -- ./inp_files/51609.got.cif
#   From: 2010.03.12/outbox.cif.g09.slc.cpg/sg64_26_cif.got.tgz:51609.got - 2010.04.10 20:19:32.
