data_PCOD8264679
_publ_section_title
;
Structure prediction by ZEFSAII (Michael W. Deem and Ramdas Pophale) SiO2 
 PCOD8264679
Probable space group: C M C A
;
_chemical_formula_sum "Si O2"
_cell_formula_units_Z 96
_cell_length_a 14.063715
_cell_length_b 22.322498
_cell_length_c 14.612067
_cell_angle_alpha 90.000000
_cell_angle_beta 90.000000
_cell_angle_gamma 90.000000
_cell_volume 4587.272130
_symmetry_space_group_name_H-M "C M C A"
_symmetry_group_IT_number 64
_symmetry_cell_setting 'orthorhombic'
loop_
_space_group_symop_operation_xyz
x,y,z
-x,1/2-y,1/2+z
x,-y,-z
-x,1/2+y,1/2-z
-x,-y,-z
x,1/2+y,1/2-z
-x,y,z
x,1/2-y,1/2+z
1/2+x,1/2+y,z
1/2-x,-y,1/2+z
1/2+x,1/2-y,-z
1/2-x,y,1/2-z
1/2-x,1/2-y,-z
1/2+x,y,1/2-z
1/2-x,1/2+y,z
1/2+x,-y,1/2+z
loop_
_atom_site_type_symbol
_atom_site_label
_atom_site_fract_x
_atom_site_fract_y
_atom_site_fract_z
Si Si1 0.797442 0.878771 0.342123
Si Si2 0.000000 0.642242 0.915301
Si Si3 0.293448 0.489669 0.602019
Si Si4 0.000000 0.243103 0.426118
Si Si5 0.315080 0.373227 0.827071
Si Si6 0.000000 0.850360 0.720535
Si Si7 0.685041 0.193749 0.513944
Si Si8 0.000000 0.940846 0.572844
O O1 0.750000 0.852290 0.250000
O O2 0.738894 0.856639 0.429264
O O3 0.906190 0.855443 0.351380
O O4 0.785954 0.950316 0.338755
O O5 0.000000 0.577129 0.965446
O O6 0.000000 0.696519 0.988545
O O7 0.253059 0.500000 0.500000
O O8 0.230743 0.437767 0.649276
O O9 0.405193 0.475792 0.598173
O O10 0.000000 0.217924 0.319466
O O11 0.910279 0.286739 0.435128
O O12 0.250000 0.340883 0.750000
O O13 0.415438 0.377359 0.778868
O O14 0.332967 0.332490 0.914074
O O15 0.000000 0.877852 0.620788
O O16 0.750000 0.250000 0.500000
#
# Coordination Sequence:
#
# PCOD8264679 Si02
#       8
#    16   8  16   8  16   8  16   8
#     4  12  27  44  70 106 142 185 233 286 362 425
#     4  11  21  46  70  96 135 182 236 283 332 419
#     4  12  22  43  72 105 144 184 227 293 355 423
#     4  11  25  47  73  98 139 182 247 301 346 410
#     4  12  24  44  70 104 143 179 239 292 359 430
#     4  11  25  43  72 105 130 185 239 287 347 418
#     4  12  25  46  69  99 141 187 237 300 356 416
#     4  11  20  39  73 107 131 175 235 283 336 403
#
# _framework density 20.92747
#
# number of rings (size 3 to 8) (size 9 to 14) (size 15 to 20)
#    0.000    0.333    6.667    2.750    0.000    2.667 
#    3.000    1.250    0.000    0.000    0.000    0.000 
#    0.000    0.000    0.000    0.000    0.000    0.000 
#
# Total GULP energy -594847.546899 kJ/mol
# GULP energy per Si atom -12392.657227 kJ/mol
# Density = 2.087984 g / cm^3
# Si number density = 20.927470 Si / 1000 Ang^3
#
#
#
# Elastic Constant Matrix: (Units=GPa)
#
#
# Indices 1 2 3 4 5 6 
#
# 1 174.7069 44.8587 53.8824 0.0000 0.0000 0.0000
# 2 44.8587 83.6474 19.1712 0.0000 0.0000 0.0000
# 3 53.8824 19.1712 113.1603 0.0000 0.0000 0.0000
# 4 0.0000 0.0000 0.0000 34.8356 0.0000 0.0000
# 5 0.0000 0.0000 0.0000 0.0000 40.1397 0.0000
# 6 0.0000 0.0000 0.0000 0.0000 0.0000 21.4268
#
#
#
# Elastic Compliance Matrix: (Units=1/GPa)
#
#
# Indices 1 2 3 4 5 6 
#
# 1 0.007509 -0.003337 -0.003010 0.000000 0.000000 0.000000
# 2 -0.003337 0.013921 -0.000769 0.000000 0.000000 0.000000
# 3 -0.003010 -0.000769 0.010401 0.000000 0.000000 0.000000
# 4 0.000000 0.000000 0.000000 0.028706 0.000000 0.000000
# 5 0.000000 0.000000 0.000000 0.000000 0.024913 0.000000
# 6 0.000000 0.000000 0.000000 0.000000 0.000000 0.046670
#
#
# Mechanical properties :
#
#
# Convention : Reuss Voigt Hill
#
# Bulk Modulus (GPa) = 56.82693 67.48216 62.15454
# Shear Modulus (GPa) = 32.84725 36.18722 34.51724
#
# Velocity S-wave (km/s) = 3.96609 4.16284 4.06566
# Velocity P-wave (km/s) = 6.94163 7.44456 7.19749
#
# Compressibility (1/GPa) = 0.01759729
#
# Stress axis : x y z
#
# Youngs Moduli (GPa) = 133.17144 71.83432 96.14727
#
# Poissons Ratio (x) = 0.23972 0.28942
# Poissons Ratio (y) = 0.44441 0.07398
# Poissons Ratio (z) = 0.40087 0.05527
#
# Static dielectric constant tensor:
#      x y z
#    x 3.739410 0.000000 0.000000 
#    y 0.000000 3.876790 0.000000 
#    z 0.000000 0.000000 1.549340 
# 
# 
# High freq. dielectric constant tensor:
#      x y z
#    x 1.826270 0.000000 0.000000 
#    y 0.000000 1.822110 0.000000 
#    z 0.000000 0.000000 1.829380 
# 
# From -- ./inp_files/24026.got.cif
#   From: 2010.03.12/outbox.cif.g09.slc.cpg/sg64_13_cif.got.tgz:24026.got - 2010.04.10 20:19:32.
