data_PCOD8264008
_publ_section_title
;
Structure prediction by ZEFSAII (Michael W. Deem and Ramdas Pophale) SiO2 
 PCOD8264008
Probable space group: C M C A
;
_chemical_formula_sum "Si O2"
_cell_formula_units_Z 96
_cell_length_a 19.067530
_cell_length_b 12.241770
_cell_length_c 21.379167
_cell_angle_alpha 90.000000
_cell_angle_beta 90.000000
_cell_angle_gamma 90.000000
_cell_volume 4990.331933
_symmetry_space_group_name_H-M "C M C A"
_symmetry_group_IT_number 64
_symmetry_cell_setting 'orthorhombic'
loop_
_space_group_symop_operation_xyz
x,y,z
-x,1/2-y,1/2+z
x,-y,-z
-x,1/2+y,1/2-z
-x,-y,-z
x,1/2+y,1/2-z
-x,y,z
x,1/2-y,1/2+z
1/2+x,1/2+y,z
1/2-x,-y,1/2+z
1/2+x,1/2-y,-z
1/2-x,y,1/2-z
1/2-x,1/2-y,-z
1/2+x,y,1/2-z
1/2-x,1/2+y,z
1/2+x,-y,1/2+z
loop_
_atom_site_type_symbol
_atom_site_label
_atom_site_fract_x
_atom_site_fract_y
_atom_site_fract_z
Si Si1 0.294680 0.313011 0.148061
Si Si2 0.000000 0.754636 0.355775
Si Si3 0.250000 0.466237 0.250000
Si Si4 0.500000 0.007600 0.350811
Si Si5 0.364219 0.877680 0.784661
Si Si6 0.361889 0.987580 0.426873
Si Si7 0.649272 0.199348 0.358036
Si Si8 0.000000 0.017696 0.715043
O O1 0.300563 0.394335 0.206784
O O2 0.348604 0.215478 0.163713
O O3 0.317785 0.377348 0.085741
O O4 0.213338 0.282657 0.139173
O O5 0.922647 0.751207 0.389853
O O6 0.000000 0.864078 0.316318
O O7 0.000000 0.632983 0.324855
O O8 0.298924 0.541448 0.292619
O O9 0.435429 0.974405 0.392929
O O10 0.500000 0.940866 0.286650
O O11 0.367727 0.830000 0.714272
O O12 0.433364 0.944239 0.803625
O O13 0.372556 0.000000 0.500000
O O14 0.325080 0.094346 0.397338
#
# Coordination Sequence:
#
# PCOD8264008 Si02
#       8
#    16   8   8   8  16  16  16   8
#     4  12  22  35  62  85 123 161 185 248 304 346
#     4  10  22  35  57  84 122 156 182 250 305 345
#     4  12  18  36  56  82 118 152 188 230 298 360
#     4  10  21  40  57  83 118 153 209 242 291 366
#     4  12  21  34  53  90 120 146 193 235 296 364
#     4  11  24  40  60  86 117 162 206 243 288 354
#     4  11  20  39  55  87 117 155 202 237 298 358
#     4  12  22  33  58  89 124 147 185 248 306 361
#
# _framework density 19.237196000000001
#
# number of rings (size 3 to 8) (size 9 to 14) (size 15 to 20)
#    0.000    0.667    8.333    1.250    2.333    1.333 
#    0.000    0.000    0.000    0.000    0.000    5.250 
#    0.000    0.000    0.000    0.000    0.000    0.000 
#
# Total GULP energy -594673.340403 kJ/mol
# GULP energy per Si atom -12389.027925 kJ/mol
# Density = 1.919341 g / cm^3
# Si number density = 19.237196 Si / 1000 Ang^3
#
#
#
# Elastic Constant Matrix: (Units=GPa)
#
#
# Indices 1 2 3 4 5 6 
#
# 1 120.7981 63.0163 28.2180 0.0000 0.0000 0.0000
# 2 63.0163 115.5425 39.8195 0.0000 0.0000 0.0000
# 3 28.2180 39.8195 60.1258 0.0000 0.0000 0.0000
# 4 0.0000 0.0000 0.0000 16.9540 0.0000 0.0000
# 5 0.0000 0.0000 0.0000 0.0000 -74.4367 0.0000
# 6 0.0000 0.0000 0.0000 0.0000 0.0000 -16.0288
#
#
#
# Elastic Compliance Matrix: (Units=1/GPa)
#
#
# Indices 1 2 3 4 5 6 
#
# 1 0.011693 -0.005813 -0.001638 0.000000 0.000000 0.000000
# 2 -0.005813 0.014104 -0.006613 0.000000 0.000000 0.000000
# 3 -0.001638 -0.006613 0.021780 0.000000 0.000000 0.000000
# 4 0.000000 0.000000 0.000000 0.058983 0.000000 0.000000
# 5 0.000000 0.000000 0.000000 0.000000 -0.013434 0.000000
# 6 0.000000 0.000000 0.000000 0.000000 0.000000 -0.062388
#
#
# Mechanical properties :
#
#
# Convention : Reuss Voigt Hill
#
# Bulk Modulus (GPa) = 51.41392 62.06379 56.73886
# Shear Modulus (GPa) = 76.51235 -3.67478 36.41878
#
# Velocity S-wave (km/s) = 6.31344 -1.38362 4.35575
# Velocity P-wave (km/s) = 8.94037 5.45710 7.40642
#
# Compressibility (1/GPa) = 0.01944999
#
# Stress axis : x y z
#
# Youngs Moduli (GPa) = 85.51862 70.90150 45.91385
#
# Poissons Ratio (x) = 0.41215 0.07521
# Poissons Ratio (y) = 0.49711 0.30361
# Poissons Ratio (z) = 0.14009 0.46884
#
# Static dielectric constant tensor:
#      x y z
#    x 4.504100 0.000000 0.000000 
#    y 0.000000 3.703610 0.000000 
#    z 0.000000 0.000000 3.055330 
# 
# 
# High freq. dielectric constant tensor:
#      x y z
#    x 1.771410 0.000000 0.000000 
#    y 0.000000 1.760460 0.000000 
#    z 0.000000 0.000000 1.685180 
# 
# From -- ./inp_files/40928.got.cif
#   From: 2010.03.12/outbox.cif.g09.slc.cpg/sg64_21_cif.got.tgz:40928.got - 2010.04.10 20:19:32.
