data_PCOD8264778
_publ_section_title
;
Structure prediction by ZEFSAII (Michael W. Deem and Ramdas Pophale) SiO2 
 PCOD8264778
Probable space group: C M C A
;
_chemical_formula_sum "Si O2"
_cell_formula_units_Z 72
_cell_length_a 9.621865
_cell_length_b 23.198966
_cell_length_c 16.597280
_cell_angle_alpha 90.000000
_cell_angle_beta 90.000000
_cell_angle_gamma 90.000000
_cell_volume 3704.800344
_symmetry_space_group_name_H-M "C M C A"
_symmetry_group_IT_number 64
_symmetry_cell_setting 'orthorhombic'
loop_
_space_group_symop_operation_xyz
x,y,z
-x,1/2-y,1/2+z
x,-y,-z
-x,1/2+y,1/2-z
-x,-y,-z
x,1/2+y,1/2-z
-x,y,z
x,1/2-y,1/2+z
1/2+x,1/2+y,z
1/2-x,-y,1/2+z
1/2+x,1/2-y,-z
1/2-x,y,1/2-z
1/2-x,1/2-y,-z
1/2+x,y,1/2-z
1/2-x,1/2+y,z
1/2+x,-y,1/2+z
loop_
_atom_site_type_symbol
_atom_site_label
_atom_site_fract_x
_atom_site_fract_y
_atom_site_fract_z
Si Si1 0.714339 0.651595 0.575221
Si Si2 0.000000 0.478389 0.285887
Si Si3 0.767540 0.479892 0.418272
Si Si4 0.500000 0.204518 0.620189
Si Si5 0.000000 0.671554 0.059035
Si Si6 0.500000 0.547702 0.368458
Si Si7 0.500000 0.648043 0.709828
O O1 0.713505 0.583584 0.567236
O O2 0.635552 0.675634 0.497264
O O3 0.635815 0.665249 0.658779
O O4 0.867298 0.678017 0.575163
O O5 0.135975 0.482054 0.340387
O O6 0.000000 0.533208 0.226823
O O7 0.000000 0.419578 0.234073
O O8 0.846901 0.500000 0.500000
O O9 0.636576 0.521470 0.408442
O O10 0.500000 0.273309 0.616919
O O11 0.500000 0.187867 0.712858
O O12 0.000000 0.616235 0.117406
#
# Coordination Sequence:
#
# PCOD8264778 Si02
#       7
#    16   8  16   8   8   8   8
#     4  11  22  41  68  96 123 168 224 269 315 375
#     4  12  24  38  62  99 137 156 213 276 330 365
#     4  12  22  39  66  98 128 167 213 270 322 388
#     4  12  24  40  67  96 127 166 223 273 317 367
#     4  11  25  45  62  90 137 180 209 253 325 408
#     4  12  23  40  66  94 132 175 204 252 334 403
#     4  11  22  38  66  96 124 162 216 277 316 365
#
# _framework density 19.434245000000001
#
# number of rings (size 3 to 8) (size 9 to 14) (size 15 to 20)
#    0.000    0.444    6.667    3.333    0.000    0.000 
#    0.000    4.444    4.889    0.000    0.000    0.000 
#    0.000    0.000    0.000    0.000    0.000    0.000 
#
# Total GULP energy -446481.398129 kJ/mol
# GULP energy per Si atom -12402.261059 kJ/mol
# Density = 1.939001 g / cm^3
# Si number density = 19.434245 Si / 1000 Ang^3
#
#
#
# Elastic Constant Matrix: (Units=GPa)
#
#
# Indices 1 2 3 4 5 6 
#
# 1 121.5097 38.1063 28.9905 0.0000 0.0000 0.0000
# 2 38.1063 109.0523 43.7004 0.0000 0.0000 0.0000
# 3 28.9905 43.7004 107.3215 0.0000 0.0000 0.0000
# 4 0.0000 0.0000 0.0000 29.2517 0.0000 0.0000
# 5 0.0000 0.0000 0.0000 0.0000 4.3430 0.0000
# 6 0.0000 0.0000 0.0000 0.0000 0.0000 97.1234
#
#
#
# Elastic Compliance Matrix: (Units=1/GPa)
#
#
# Indices 1 2 3 4 5 6 
#
# 1 0.009425 -0.002716 -0.001440 0.000000 0.000000 0.000000
# 2 -0.002716 0.011741 -0.004047 0.000000 0.000000 0.000000
# 3 -0.001440 -0.004047 0.011355 0.000000 0.000000 0.000000
# 4 0.000000 0.000000 0.000000 0.034186 0.000000 0.000000
# 5 0.000000 0.000000 0.000000 0.000000 0.230253 0.000000
# 6 0.000000 0.000000 0.000000 0.000000 0.000000 0.010296
#
#
# Mechanical properties :
#
#
# Convention : Reuss Voigt Hill
#
# Bulk Modulus (GPa) = 62.05762 62.16422 62.11092
# Shear Modulus (GPa) = 15.19599 41.28272 28.23935
#
# Velocity S-wave (km/s) = 2.79931 4.61393 3.81605
# Velocity P-wave (km/s) = 6.51534 7.77437 7.17253
#
# Compressibility (1/GPa) = 0.01611406
#
# Stress axis : x y z
#
# Youngs Moduli (GPa) = 106.09813 85.17251 88.06964
#
# Poissons Ratio (x) = 0.23137 0.12681
# Poissons Ratio (y) = 0.28821 0.35642
# Poissons Ratio (z) = 0.15277 0.34469
#
# Static dielectric constant tensor:
#      x y z
#    x 3.700810 0.000000 0.000000 
#    y 0.000000 3.424770 0.000000 
#    z 0.000000 0.000000 3.782530 
# 
# 
# High freq. dielectric constant tensor:
#      x y z
#    x 1.769890 0.000000 0.000000 
#    y 0.000000 1.742000 0.000000 
#    z 0.000000 0.000000 1.768060 
# 
# From -- ./inp_files/29576.got.cif
#   From: 2010.03.12/outbox.cif.g09.slc.cpg/sg64_15_cif.got.tgz:29576.got - 2010.04.10 20:19:32.
