data_PCOD8264860
_publ_section_title
;
Structure prediction by ZEFSAII (Michael W. Deem and Ramdas Pophale) SiO2 
 PCOD8264860
Probable space group: C M C A
;
_chemical_formula_sum "Si O2"
_cell_formula_units_Z 64
_cell_length_a 16.160868
_cell_length_b 9.261008
_cell_length_c 20.034463
_cell_angle_alpha 90.000000
_cell_angle_beta 90.000000
_cell_angle_gamma 90.000000
_cell_volume 2998.476494
_symmetry_space_group_name_H-M "C M C A"
_symmetry_group_IT_number 64
_symmetry_cell_setting 'orthorhombic'
loop_
_space_group_symop_operation_xyz
x,y,z
-x,1/2-y,1/2+z
x,-y,-z
-x,1/2+y,1/2-z
-x,-y,-z
x,1/2+y,1/2-z
-x,y,z
x,1/2-y,1/2+z
1/2+x,1/2+y,z
1/2-x,-y,1/2+z
1/2+x,1/2-y,-z
1/2-x,y,1/2-z
1/2-x,1/2-y,-z
1/2+x,y,1/2-z
1/2-x,1/2+y,z
1/2+x,-y,1/2+z
loop_
_atom_site_type_symbol
_atom_site_label
_atom_site_fract_x
_atom_site_fract_y
_atom_site_fract_z
Si Si1 0.187249 0.350387 0.176935
Si Si2 0.326812 0.846381 0.023357
Si Si3 0.500000 0.271479 0.011085
Si Si4 0.000000 0.511857 0.388625
Si Si5 0.654249 0.470922 0.794648
O O1 0.154552 0.337545 0.101972
O O2 0.278725 0.418508 0.175015
O O3 0.131318 0.462078 0.221472
O O4 0.188793 0.192035 0.211017
O O5 0.414824 0.818034 0.987844
O O6 0.250000 0.750000 0.000000
O O7 0.295100 0.000000 0.000000
O O8 0.500000 0.374843 0.947866
O O9 0.500000 0.353017 0.081365
O O10 0.078139 0.535264 0.343124
#
# Coordination Sequence:
#
# PCOD8264860 Si02
#       5
#    16  16   8   8  16
#     4  11  23  42  66 100 132 178 231 278 352 413
#     4  12  26  44  73 104 141 187 233 295 356 426
#     4  11  25  45  67  99 144 175 236 289 350 422
#     4  11  24  43  69  99 133 183 224 290 356 407
#     4  11  23  42  67  95 136 176 227 292 338 426
#
# _framework density 21.344173999999999
#
# number of rings (size 3 to 8) (size 9 to 14) (size 15 to 20)
#    0.000    0.750    2.500    6.375    3.500    4.000 
#    0.000    0.000    0.000    0.000    0.000    0.000 
#    0.000    0.000    0.000    0.000    0.000    0.000 
#
# Total GULP energy -396578.232039 kJ/mol
# GULP energy per Si atom -12393.069751 kJ/mol
# Density = 2.129559 g / cm^3
# Si number density = 21.344174 Si / 1000 Ang^3
#
#
#
# Elastic Constant Matrix: (Units=GPa)
#
#
# Indices 1 2 3 4 5 6 
#
# 1 118.6701 53.0430 14.1103 0.0000 0.0000 0.0000
# 2 53.0430 175.6591 39.5025 0.0000 0.0000 0.0000
# 3 14.1103 39.5025 96.6928 0.0000 0.0000 0.0000
# 4 0.0000 0.0000 0.0000 35.9421 0.0000 0.0000
# 5 0.0000 0.0000 0.0000 0.0000 29.7622 0.0000
# 6 0.0000 0.0000 0.0000 0.0000 0.0000 51.9068
#
#
#
# Elastic Compliance Matrix: (Units=1/GPa)
#
#
# Indices 1 2 3 4 5 6 
#
# 1 0.009747 -0.002889 -0.000242 0.000000 0.000000 0.000000
# 2 -0.002889 0.007125 -0.002489 0.000000 0.000000 0.000000
# 3 -0.000242 -0.002489 0.011394 0.000000 0.000000 0.000000
# 4 0.000000 0.000000 0.000000 0.027823 0.000000 0.000000
# 5 0.000000 0.000000 0.000000 0.000000 0.033600 0.000000
# 6 0.000000 0.000000 0.000000 0.000000 0.000000 0.019265
#
#
# Mechanical properties :
#
#
# Convention : Reuss Voigt Hill
#
# Bulk Modulus (GPa) = 58.73480 67.14817 62.94148
# Shear Modulus (GPa) = 39.72387 42.47998 41.10193
#
# Velocity S-wave (km/s) = 4.31874 4.46605 4.39301
# Velocity P-wave (km/s) = 7.24199 7.62379 7.43534
#
# Compressibility (1/GPa) = 0.01702568
#
# Stress axis : x y z
#
# Youngs Moduli (GPa) = 102.59877 140.35247 87.76301
#
# Poissons Ratio (x) = 0.40544 0.02125
# Poissons Ratio (y) = 0.29638 0.21846
# Poissons Ratio (z) = 0.02485 0.34937
#
# Static dielectric constant tensor:
#      x y z
#    x 3.726080 0.000000 0.000000 
#    y 0.000000 4.095380 0.000000 
#    z 0.000000 0.000000 4.127360 
# 
# 
# High freq. dielectric constant tensor:
#      x y z
#    x 1.831840 0.000000 0.000000 
#    y 0.000000 1.853740 0.000000 
#    z 0.000000 0.000000 1.848160 
# 
# From -- ./inp_files/39831.got.cif
#   From: 2010.03.12/outbox.cif.g09.slc.cpg/sg64_20_cif.got.tgz:39831.got - 2010.04.10 20:19:32.
