data_PCOD8264162
_publ_section_title
;
Structure prediction by ZEFSAII (Michael W. Deem and Ramdas Pophale) SiO2 
 PCOD8264162
Probable space group: C M C A
;
_chemical_formula_sum "Si O2"
_cell_formula_units_Z 64
_cell_length_a 17.349605
_cell_length_b 17.877242
_cell_length_c 8.838255
_cell_angle_alpha 90.000000
_cell_angle_beta 90.000000
_cell_angle_gamma 90.000000
_cell_volume 2741.300456
_symmetry_space_group_name_H-M "C M C A"
_symmetry_group_IT_number 64
_symmetry_cell_setting 'orthorhombic'
loop_
_space_group_symop_operation_xyz
x,y,z
-x,1/2-y,1/2+z
x,-y,-z
-x,1/2+y,1/2-z
-x,-y,-z
x,1/2+y,1/2-z
-x,y,z
x,1/2-y,1/2+z
1/2+x,1/2+y,z
1/2-x,-y,1/2+z
1/2+x,1/2-y,-z
1/2-x,y,1/2-z
1/2-x,1/2-y,-z
1/2+x,y,1/2-z
1/2-x,1/2+y,z
1/2+x,-y,1/2+z
loop_
_atom_site_type_symbol
_atom_site_label
_atom_site_fract_x
_atom_site_fract_y
_atom_site_fract_z
Si Si1 0.642031 0.861370 0.264081
Si Si2 0.250000 0.983740 0.250000
Si Si3 0.346464 0.393649 0.902356
Si Si4 0.000000 0.652699 0.265838
Si Si5 0.750000 0.728550 0.250000
Si Si6 0.000000 0.807460 0.418187
O O1 0.692051 0.923214 0.170373
O O2 0.621093 0.896675 0.427157
O O3 0.682475 0.782842 0.308743
O O4 0.571924 0.848287 0.154362
O O5 0.295727 0.032827 0.371323
O O6 0.421249 0.393880 0.791832
O O7 0.288891 0.323040 0.878748
O O8 0.000000 0.719633 0.386895
O O9 0.000000 0.684705 0.097509
#
# Coordination Sequence:
#
# PCOD8264162 Si02
#       6
#    16   8  16   8   8   8
#     4  11  23  43  69  99 138 180 226 280 340 405
#     4  10  26  44  68 104 136 176 230 272 340 404
#     4  11  23  43  69  99 138 180 226 280 340 405
#     4  12  26  43  68 101 137 177 229 285 342 407
#     4  10  22  36  68 100 134 172 230 282 334 400
#     4  12  26  43  68 101 137 177 229 285 342 407
#
# _framework density 23.346584
#
# number of rings (size 3 to 8) (size 9 to 14) (size 15 to 20)
#    0.000    1.000    2.500    3.750    0.000   11.000 
#    0.000    3.750    0.000    0.000    0.000    0.000 
#    0.000    0.000    0.000    0.000    0.000    0.000 
#
# Total GULP energy -396540.796761 kJ/mol
# GULP energy per Si atom -12391.899899 kJ/mol
# Density = 2.329345 g / cm^3
# Si number density = 23.346584 Si / 1000 Ang^3
#
#
#
# Elastic Constant Matrix: (Units=GPa)
#
#
# Indices 1 2 3 4 5 6 
#
# 1 143.2477 54.2704 34.1429 0.0000 0.0000 0.0000
# 2 54.2704 137.1601 20.6259 0.0000 0.0000 0.0000
# 3 34.1429 20.6259 109.8844 0.0000 0.0000 0.0000
# 4 0.0000 0.0000 0.0000 26.6515 0.0000 0.0000
# 5 0.0000 0.0000 0.0000 0.0000 -71.6363 0.0000
# 6 0.0000 0.0000 0.0000 0.0000 0.0000 37.3156
#
#
#
# Elastic Compliance Matrix: (Units=1/GPa)
#
#
# Indices 1 2 3 4 5 6 
#
# 1 0.008662 -0.003110 -0.002107 0.000000 0.000000 0.000000
# 2 -0.003110 0.008619 -0.000652 0.000000 0.000000 0.000000
# 3 -0.002107 -0.000652 0.009878 0.000000 0.000000 0.000000
# 4 0.000000 0.000000 0.000000 0.037521 0.000000 0.000000
# 5 0.000000 0.000000 0.000000 0.000000 -0.013959 0.000000
# 6 0.000000 0.000000 0.000000 0.000000 0.000000 0.026798
#
#
# Mechanical properties :
#
#
# Convention : Reuss Voigt Hill
#
# Bulk Modulus (GPa) = 64.85046 67.59674 66.22360
# Shear Modulus (GPa) = 52.96756 17.21634 35.09195
#
# Velocity S-wave (km/s) = 4.76831 2.71850 3.88117
# Velocity P-wave (km/s) = 7.62583 6.23459 6.96503
#
# Compressibility (1/GPa) = 0.01542009
#
# Stress axis : x y z
#
# Youngs Moduli (GPa) = 115.45269 116.01800 101.23922
#
# Poissons Ratio (x) = 0.36084 0.21336
# Poissons Ratio (y) = 0.35908 0.06596
# Poissons Ratio (z) = 0.24331 0.07559
#
# Static dielectric constant tensor:
#      x y z
#    x 4.521880 0.000000 0.000000 
#    y 0.000000 4.538460 0.000000 
#    z 0.000000 0.000000 3.788250 
# 
# 
# High freq. dielectric constant tensor:
#      x y z
#    x 1.931000 0.000000 0.000000 
#    y 0.000000 1.935770 0.000000 
#    z 0.000000 0.000000 1.906120 
# 
# From -- ./inp_files/6676.got.cif
#   From: 2010.03.12/outbox.cif.g09.slc.cpg/sg64_4_cif.got.tgz:6676.got - 2010.04.10 20:19:32.
