data_PCOD8264802
_publ_section_title
;
Structure prediction by ZEFSAII (Michael W. Deem and Ramdas Pophale) SiO2 
 PCOD8264802
Probable space group: C M C A
;
_chemical_formula_sum "Si O2"
_cell_formula_units_Z 48
_cell_length_a 19.586572
_cell_length_b 22.781734
_cell_length_c 4.874693
_cell_angle_alpha 90.000000
_cell_angle_beta 90.000000
_cell_angle_gamma 90.000000
_cell_volume 2175.166369
_symmetry_space_group_name_H-M "C M C A"
_symmetry_group_IT_number 64
_symmetry_cell_setting 'orthorhombic'
loop_
_space_group_symop_operation_xyz
x,y,z
-x,1/2-y,1/2+z
x,-y,-z
-x,1/2+y,1/2-z
-x,-y,-z
x,1/2+y,1/2-z
-x,y,z
x,1/2-y,1/2+z
1/2+x,1/2+y,z
1/2-x,-y,1/2+z
1/2+x,1/2-y,-z
1/2-x,y,1/2-z
1/2-x,1/2-y,-z
1/2+x,y,1/2-z
1/2-x,1/2+y,z
1/2+x,-y,1/2+z
loop_
_atom_site_type_symbol
_atom_site_label
_atom_site_fract_x
_atom_site_fract_y
_atom_site_fract_z
Si Si1 0.381983 0.130560 0.876161
Si Si2 0.500000 0.212429 0.947772
Si Si3 0.250000 0.294228 0.250000
Si Si4 0.921492 0.939939 0.866791
O O1 0.432183 0.176567 0.022673
O O2 0.312547 0.161501 0.786707
O O3 0.417798 0.108818 0.600876
O O4 0.374654 0.078321 0.103554
O O5 0.500000 0.229061 0.628495
O O6 0.250000 0.250000 0.500000
O O7 0.000000 0.947861 0.768295
O O8 0.892709 0.000000 0.000000
#
# Coordination Sequence:
#
# PCOD8264802 Si02
#       4
#    16   8   8  16
#     4  12  23  42  65  97 131 176 221 272 337 398
#     4  12  22  36  59  92 125 164 222 274 316 380
#     4  12  26  46  66  92 136 184 224 274 338 406
#     4  11  22  41  68 100 132 169 217 278 342 396
#
# _framework density 22.06728
#
# number of rings (size 3 to 8) (size 9 to 14) (size 15 to 20)
#    0.000    0.333    3.333    7.000    0.000    2.667 
#    0.000    3.333    0.000    0.000    0.000    0.000 
#    0.000    0.000    0.000    0.000    0.000    0.000 
#
# Total GULP energy -297586.185690 kJ/mol
# GULP energy per Si atom -12399.424404 kJ/mol
# Density = 2.201705 g / cm^3
# Si number density = 22.067280 Si / 1000 Ang^3
#
#
#
# Elastic Constant Matrix: (Units=GPa)
#
#
# Indices 1 2 3 4 5 6 
#
# 1 124.3278 65.6151 34.6247 0.0000 0.0000 0.0000
# 2 65.6151 107.3794 43.1505 0.0000 0.0000 0.0000
# 3 34.6247 43.1505 138.4147 0.0000 0.0000 0.0000
# 4 0.0000 0.0000 0.0000 63.9006 0.0000 0.0000
# 5 0.0000 0.0000 0.0000 0.0000 23.8308 0.0000
# 6 0.0000 0.0000 0.0000 0.0000 0.0000 14.3005
#
#
#
# Elastic Compliance Matrix: (Units=1/GPa)
#
#
# Indices 1 2 3 4 5 6 
#
# 1 0.011952 -0.006976 -0.000815 0.000000 0.000000 0.000000
# 2 -0.006976 0.014718 -0.002843 0.000000 0.000000 0.000000
# 3 -0.000815 -0.002843 0.008315 0.000000 0.000000 0.000000
# 4 0.000000 0.000000 0.000000 0.015649 0.000000 0.000000
# 5 0.000000 0.000000 0.000000 0.000000 0.041962 0.000000
# 6 0.000000 0.000000 0.000000 0.000000 0.000000 0.069928
#
#
# Mechanical properties :
#
#
# Convention : Reuss Voigt Hill
#
# Bulk Modulus (GPa) = 72.90510 72.98917 72.94714
# Shear Modulus (GPa) = 26.54433 35.52183 31.03308
#
# Velocity S-wave (km/s) = 3.47202 4.01647 3.75413
# Velocity P-wave (km/s) = 7.01303 7.39303 7.20554
#
# Compressibility (1/GPa) = 0.01371646
#
# Stress axis : x y z
#
# Youngs Moduli (GPa) = 83.67000 67.94456 120.26521
#
# Poissons Ratio (x) = 0.47396 0.09803
# Poissons Ratio (y) = 0.58365 0.34195
# Poissons Ratio (z) = 0.06820 0.19319
#
# Static dielectric constant tensor:
#      x y z
#    x 3.731860 0.000000 0.000000 
#    y 0.000000 3.997270 0.000000 
#    z 0.000000 0.000000 4.074570 
# 
# 
# High freq. dielectric constant tensor:
#      x y z
#    x 1.834660 0.000000 0.000000 
#    y 0.000000 1.886010 0.000000 
#    z 0.000000 0.000000 1.889930 
# 
# From -- ./inp_files/1128.got.cif
#   From: 2010.03.12/outbox.cif.g09.slc.cpg/sg64_1_cif.got.tgz:1128.got - 2010.04.10 20:19:32.
