data_PCOD8264916
_publ_section_title
;
Structure prediction by ZEFSAII (Michael W. Deem and Ramdas Pophale) SiO2 
 PCOD8264916
Probable space group: C M C A
;
_chemical_formula_sum "Si O2"
_cell_formula_units_Z 96
_cell_length_a 22.118851
_cell_length_b 14.245532
_cell_length_c 14.204173
_cell_angle_alpha 90.000000
_cell_angle_beta 90.000000
_cell_angle_gamma 90.000000
_cell_volume 4475.661047
_symmetry_space_group_name_H-M "C M C A"
_symmetry_group_IT_number 64
_symmetry_cell_setting 'orthorhombic'
loop_
_space_group_symop_operation_xyz
x,y,z
-x,1/2-y,1/2+z
x,-y,-z
-x,1/2+y,1/2-z
-x,-y,-z
x,1/2+y,1/2-z
-x,y,z
x,1/2-y,1/2+z
1/2+x,1/2+y,z
1/2-x,-y,1/2+z
1/2+x,1/2-y,-z
1/2-x,y,1/2-z
1/2-x,1/2-y,-z
1/2+x,y,1/2-z
1/2-x,1/2+y,z
1/2+x,-y,1/2+z
loop_
_atom_site_type_symbol
_atom_site_label
_atom_site_fract_x
_atom_site_fract_y
_atom_site_fract_z
Si Si1 0.376932 0.500292 0.238782
Si Si2 0.500000 0.519096 0.344109
Si Si3 0.679895 0.412989 0.934431
Si Si4 0.190010 0.868933 0.632002
Si Si5 0.130587 0.723997 0.964326
Si Si6 0.319612 0.189986 0.757474
Si Si7 0.000000 0.652765 0.986312
O O1 0.444118 0.515988 0.274136
O O2 0.369643 0.557812 0.142491
O O3 0.331946 0.534536 0.321554
O O4 0.361575 0.392445 0.216353
O O5 0.500000 0.431519 0.413107
O O6 0.500000 0.614151 0.406444
O O7 0.738138 0.373909 0.878836
O O8 0.651190 0.328726 0.996648
O O9 0.698667 0.500000 0.000000
O O10 0.158605 0.855958 0.531021
O O11 0.169537 0.783180 0.697494
O O12 0.158933 0.708111 0.862781
O O13 0.058249 0.717146 0.967028
O O14 0.250000 0.158018 0.750000
#
# Coordination Sequence:
#
# PCOD8264916 Si02
#       7
#    16   8  16  16  16  16   8
#     4  12  25  44  71 106 142 189 243 304 362 438
#     4  11  24  45  72 101 141 188 249 303 360 448
#     4  12  27  46  70 107 151 191 237 297 379 448
#     4  12  25  46  70 109 148 187 239 300 368 436
#     4  12  25  44  75 105 143 192 244 302 364 432
#     4  12  24  43  69 108 147 183 236 300 364 438
#     4  11  24  47  70 105 141 186 252 298 363 443
#
# _framework density 21.449346999999999
#
# number of rings (size 3 to 8) (size 9 to 14) (size 15 to 20)
#    0.000    0.167    6.667    3.000    4.667    0.667 
#    0.000    5.833    0.000    0.000    0.000    0.000 
#    0.000    0.000    0.000    0.000    0.000    0.000 
#
# Total GULP energy -595485.001497 kJ/mol
# GULP energy per Si atom -12405.937531 kJ/mol
# Density = 2.140053 g / cm^3
# Si number density = 21.449347 Si / 1000 Ang^3
#
#
#
# Elastic Constant Matrix: (Units=GPa)
#
#
# Indices 1 2 3 4 5 6 
#
# 1 150.1151 33.5971 40.9658 0.0000 0.0000 0.0000
# 2 33.5971 101.3131 22.9982 0.0000 0.0000 0.0000
# 3 40.9658 22.9982 85.3721 0.0000 0.0000 0.0000
# 4 0.0000 0.0000 0.0000 28.9329 0.0000 0.0000
# 5 0.0000 0.0000 0.0000 0.0000 67.6795 0.0000
# 6 0.0000 0.0000 0.0000 0.0000 0.0000 24.1614
#
#
#
# Elastic Compliance Matrix: (Units=1/GPa)
#
#
# Indices 1 2 3 4 5 6 
#
# 1 0.007993 -0.001896 -0.003325 0.000000 0.000000 0.000000
# 2 -0.001896 0.010963 -0.002044 0.000000 0.000000 0.000000
# 3 -0.003325 -0.002044 0.013859 0.000000 0.000000 0.000000
# 4 0.000000 0.000000 0.000000 0.034563 0.000000 0.000000
# 5 0.000000 0.000000 0.000000 0.000000 0.014776 0.000000
# 6 0.000000 0.000000 0.000000 0.000000 0.000000 0.041388
#
#
# Mechanical properties :
#
#
# Convention : Reuss Voigt Hill
#
# Bulk Modulus (GPa) = 54.68365 59.10249 56.89307
# Shear Modulus (GPa) = 34.68214 40.10404 37.39309
#
# Velocity S-wave (km/s) = 4.02547 4.32870 4.17984
# Velocity P-wave (km/s) = 6.86699 7.25244 7.06234
#
# Compressibility (1/GPa) = 0.01828700
#
# Stress axis : x y z
#
# Youngs Moduli (GPa) = 125.10625 91.21589 72.15357
#
# Poissons Ratio (x) = 0.17294 0.23990
# Poissons Ratio (y) = 0.23719 0.14745
# Poissons Ratio (z) = 0.41595 0.18640
#
# Static dielectric constant tensor:
#      x y z
#    x 5.123170 0.000000 0.000000 
#    y 0.000000 4.181770 0.000000 
#    z 0.000000 0.000000 3.935000 
# 
# 
# High freq. dielectric constant tensor:
#      x y z
#    x 1.835380 0.000000 0.000000 
#    y 0.000000 1.851580 0.000000 
#    z 0.000000 0.000000 1.850820 
# 
# From -- ./inp_files/26385.got.cif
#   From: 2010.03.12/outbox.cif.g09.slc.cpg/sg64_14_cif.got.tgz:26385.got - 2010.04.10 20:19:32.
