data_PCOD8264570
_publ_section_title
;
Structure prediction by ZEFSAII (Michael W. Deem and Ramdas Pophale) SiO2 
 PCOD8264570
Probable space group: C M C A
;
_chemical_formula_sum "Si O2"
_cell_formula_units_Z 88
_cell_length_a 18.297604
_cell_length_b 12.731890
_cell_length_c 18.606037
_cell_angle_alpha 90.000000
_cell_angle_beta 90.000000
_cell_angle_gamma 90.000000
_cell_volume 4334.519712
_symmetry_space_group_name_H-M "C M C A"
_symmetry_group_IT_number 64
_symmetry_cell_setting 'orthorhombic'
loop_
_space_group_symop_operation_xyz
x,y,z
-x,1/2-y,1/2+z
x,-y,-z
-x,1/2+y,1/2-z
-x,-y,-z
x,1/2+y,1/2-z
-x,y,z
x,1/2-y,1/2+z
1/2+x,1/2+y,z
1/2-x,-y,1/2+z
1/2+x,1/2-y,-z
1/2-x,y,1/2-z
1/2-x,1/2-y,-z
1/2+x,y,1/2-z
1/2-x,1/2+y,z
1/2+x,-y,1/2+z
loop_
_atom_site_type_symbol
_atom_site_label
_atom_site_fract_x
_atom_site_fract_y
_atom_site_fract_z
Si Si1 0.859639 0.321100 0.668566
Si Si2 0.000000 0.851229 0.103962
Si Si3 0.121164 0.000000 0.500000
Si Si4 0.140989 0.982993 0.078938
Si Si5 0.000000 0.285981 0.766567
Si Si6 0.250000 0.533199 0.250000
Si Si7 0.289908 0.602470 0.626575
Si Si8 0.500000 0.623456 0.416198
O O1 0.882280 0.400538 0.605491
O O2 0.929008 0.288616 0.716225
O O3 0.803122 0.388956 0.711310
O O4 0.816024 0.220974 0.638269
O O5 0.930463 0.914558 0.080447
O O6 0.000000 0.824902 0.189910
O O7 0.000000 0.743802 0.057963
O O8 0.170929 0.065906 0.553926
O O9 0.072322 0.071602 0.448255
O O10 0.202317 0.915173 0.120746
O O11 0.172122 0.000000 0.000000
O O12 0.000000 0.379342 0.827709
O O13 0.304478 0.465008 0.301319
#
# Coordination Sequence:
#
# PCOD8264570 Si02
#       8
#    16   8   8  16   8   8  16   8
#     4  11  25  41  69  98 136 181 229 279 350 415
#     4  10  25  42  71  91 139 177 230 283 345 406
#     4  11  22  46  66 107 132 184 234 291 356 418
#     4  11  25  46  67 101 136 182 226 291 346 422
#     4  10  24  43  66 100 134 184 225 283 346 411
#     4  10  24  42  66 100 138 178 226 288 340 420
#     4  11  25  42  73  99 140 176 236 289 351 417
#     4   9  24  41  70  94 141 179 225 292 344 416
#
# _framework density 20.302135
#
# number of rings (size 3 to 8) (size 9 to 14) (size 15 to 20)
#    0.545    0.909    0.909    2.455   10.182    3.636 
#    3.273    0.000    0.000    0.000    0.000    0.000 
#    0.000    0.000    0.000    0.000    0.000    0.000 
#
# Total GULP energy -545119.507808 kJ/mol
# GULP energy per Si atom -12389.079723 kJ/mol
# Density = 2.025593 g / cm^3
# Si number density = 20.302135 Si / 1000 Ang^3
#
#
#
# Elastic Constant Matrix: (Units=GPa)
#
#
# Indices 1 2 3 4 5 6 
#
# 1 92.9552 55.2185 18.3824 0.0000 0.0000 0.0000
# 2 55.2185 126.7804 29.1786 0.0000 0.0000 0.0000
# 3 18.3824 29.1786 90.3074 0.0000 0.0000 0.0000
# 4 0.0000 0.0000 0.0000 43.4394 0.0000 0.0000
# 5 0.0000 0.0000 0.0000 0.0000 24.1451 0.0000
# 6 0.0000 0.0000 0.0000 0.0000 0.0000 -9.4858
#
#
#
# Elastic Compliance Matrix: (Units=1/GPa)
#
#
# Indices 1 2 3 4 5 6 
#
# 1 0.014594 -0.006128 -0.000991 0.000000 0.000000 0.000000
# 2 -0.006128 0.011095 -0.002337 0.000000 0.000000 0.000000
# 3 -0.000991 -0.002337 0.012030 0.000000 0.000000 0.000000
# 4 0.000000 0.000000 0.000000 0.023021 0.000000 0.000000
# 5 0.000000 0.000000 0.000000 0.000000 0.041416 0.000000
# 6 0.000000 0.000000 0.000000 0.000000 0.000000 -0.105420
#
#
# Mechanical properties :
#
#
# Convention : Reuss Voigt Hill
#
# Bulk Modulus (GPa) = 53.17315 57.28913 55.23114
# Shear Modulus (GPa) = 228.12883 25.43728 126.78306
#
# Velocity S-wave (km/s) = 10.61183 3.54352 7.91099
# Velocity P-wave (km/s) = 13.28140 6.70982 10.52182
#
# Compressibility (1/GPa) = 0.01880648
#
# Stress axis : x y z
#
# Youngs Moduli (GPa) = 68.51997 90.13229 83.12477
#
# Poissons Ratio (x) = 0.55237 0.08234
# Poissons Ratio (y) = 0.41992 0.19429
# Poissons Ratio (z) = 0.06788 0.21067
#
# Static dielectric constant tensor:
#      x y z
#    x 3.697000 0.000000 0.000000 
#    y 0.000000 3.910750 0.000000 
#    z 0.000000 0.000000 4.526250 
# 
# 
# High freq. dielectric constant tensor:
#      x y z
#    x 1.801320 0.000000 0.000000 
#    y 0.000000 1.795910 0.000000 
#    z 0.000000 0.000000 1.805810 
# 
# From -- ./inp_files/40106.got.cif
#   From: 2010.03.12/outbox.cif.g09.slc.cpg/sg64_21_cif.got.tgz:40106.got - 2010.04.10 20:19:32.
