data_PCOD8264733
_publ_section_title
;
Structure prediction by ZEFSAII (Michael W. Deem and Ramdas Pophale) SiO2 
 PCOD8264733
Probable space group: C M C A
;
_chemical_formula_sum "Si O2"
_cell_formula_units_Z 96
_cell_length_a 29.546957
_cell_length_b 4.847587
_cell_length_c 32.783937
_cell_angle_alpha 90.000000
_cell_angle_beta 90.000000
_cell_angle_gamma 90.000000
_cell_volume 4695.690658
_symmetry_space_group_name_H-M "C M C A"
_symmetry_group_IT_number 64
_symmetry_cell_setting 'orthorhombic'
loop_
_space_group_symop_operation_xyz
x,y,z
-x,1/2-y,1/2+z
x,-y,-z
-x,1/2+y,1/2-z
-x,-y,-z
x,1/2+y,1/2-z
-x,y,z
x,1/2-y,1/2+z
1/2+x,1/2+y,z
1/2-x,-y,1/2+z
1/2+x,1/2-y,-z
1/2-x,y,1/2-z
1/2-x,1/2-y,-z
1/2+x,y,1/2-z
1/2-x,1/2+y,z
1/2+x,-y,1/2+z
loop_
_atom_site_type_symbol
_atom_site_label
_atom_site_fract_x
_atom_site_fract_y
_atom_site_fract_z
Si Si1 0.090670 0.759959 0.972083
Si Si2 0.366703 0.771641 0.610469
Si Si3 0.155848 0.021311 0.777833
Si Si4 0.000000 0.595117 0.425970
Si Si5 0.219967 0.520805 0.649414
Si Si6 0.500000 0.596149 0.369690
Si Si7 0.095216 0.750418 0.653248
O O1 0.126845 0.685120 0.936510
O O2 0.043298 0.854404 0.953726
O O3 0.081990 0.500000 0.000000
O O4 0.111743 0.000000 0.000000
O O5 0.372539 0.504870 0.639593
O O6 0.318806 0.920646 0.618391
O O7 0.404645 0.006172 0.619565
O O8 0.154252 0.207519 0.737483
O O9 0.201736 0.027071 0.804210
O O10 0.113123 0.111580 0.805265
O O11 0.000000 0.280433 0.410509
O O12 0.000000 0.784477 0.385528
O O13 0.263975 0.332346 0.641689
O O14 0.543933 0.646371 0.341484
#
# Coordination Sequence:
#
# PCOD8264733 Si02
#       7
#    16  16  16   8  16   8  16
#     4  12  23  37  58  89 128 163 199 256 320 368
#     4  11  22  41  61  85 123 162 208 251 304 376
#     4  11  23  39  60  90 126 153 185 245 309 363
#     4  12  22  37  56  91 126 158 206 268 304 357
#     4  11  23  40  65  92 115 153 199 248 304 371
#     4  12  20  37  62  85 118 166 220 256 282 351
#     4  11  21  39  61  85 119 170 212 245 295 361
#
# _framework density 20.444278000000001
#
# number of rings (size 3 to 8) (size 9 to 14) (size 15 to 20)
#    0.000    0.667    3.333    7.500    0.000    2.000 
#    0.000    0.833    0.000    3.000    0.000    0.000 
#    0.000    0.000    0.000    0.000    0.000    0.000 
#
# Total GULP energy -595178.796161 kJ/mol
# GULP energy per Si atom -12399.558253 kJ/mol
# Density = 2.039775 g / cm^3
# Si number density = 20.444278 Si / 1000 Ang^3
#
#
#
# Elastic Constant Matrix: (Units=GPa)
#
#
# Indices 1 2 3 4 5 6 
#
# 1 86.5078 5.5534 34.5907 0.0000 0.0000 0.0000
# 2 5.5534 73.0863 9.2899 0.0000 0.0000 0.0000
# 3 34.5907 9.2899 82.5195 0.0000 0.0000 0.0000
# 4 0.0000 0.0000 0.0000 41.1245 0.0000 0.0000
# 5 0.0000 0.0000 0.0000 0.0000 68.6947 0.0000
# 6 0.0000 0.0000 0.0000 0.0000 0.0000 32.1734
#
#
#
# Elastic Compliance Matrix: (Units=1/GPa)
#
#
# Indices 1 2 3 4 5 6 
#
# 1 0.013895 -0.000320 -0.005788 0.000000 0.000000 0.000000
# 2 -0.000320 0.013888 -0.001429 0.000000 0.000000 0.000000
# 3 -0.005788 -0.001429 0.014706 0.000000 0.000000 0.000000
# 4 0.000000 0.000000 0.000000 0.024316 0.000000 0.000000
# 5 0.000000 0.000000 0.000000 0.000000 0.014557 0.000000
# 6 0.000000 0.000000 0.000000 0.000000 0.000000 0.031082
#
#
# Mechanical properties :
#
#
# Convention : Reuss Voigt Hill
#
# Bulk Modulus (GPa) = 36.47875 37.88685 37.18280
# Shear Modulus (GPa) = 36.58786 41.24383 38.91584
#
# Velocity S-wave (km/s) = 4.23500 4.49640 4.36765
# Velocity P-wave (km/s) = 6.46494 6.74750 6.60773
#
# Compressibility (1/GPa) = 0.02741322
#
# Stress axis : x y z
#
# Youngs Moduli (GPa) = 71.96973 72.00225 68.00101
#
# Poissons Ratio (x) = 0.02304 0.39362
# Poissons Ratio (y) = 0.02303 0.09720
# Poissons Ratio (z) = 0.41659 0.10292
#
# Static dielectric constant tensor:
#      x y z
#    x 3.568140 0.000000 0.000000 
#    y 0.000000 3.882600 0.000000 
#    z 0.000000 0.000000 3.467200 
# 
# 
# High freq. dielectric constant tensor:
#      x y z
#    x 1.787040 0.000000 0.000000 
#    y 0.000000 1.825910 0.000000 
#    z 0.000000 0.000000 1.780520 
# 
# From -- ./inp_files/54062.got.cif
#   From: 2010.03.12/outbox.cif.g09.slc.cpg/sg64_28_cif.got.tgz:54062.got - 2010.04.10 20:19:32.
