data_PCOD8264429
_publ_section_title
;
Structure prediction by ZEFSAII (Michael W. Deem and Ramdas Pophale) SiO2 
 PCOD8264429
Probable space group: C M C A
;
_chemical_formula_sum "Si O2"
_cell_formula_units_Z 88
_cell_length_a 26.018288
_cell_length_b 15.449335
_cell_length_c 10.008090
_cell_angle_alpha 90.000000
_cell_angle_beta 90.000000
_cell_angle_gamma 90.000000
_cell_volume 4022.904373
_symmetry_space_group_name_H-M "C M C A"
_symmetry_group_IT_number 64
_symmetry_cell_setting 'orthorhombic'
loop_
_space_group_symop_operation_xyz
x,y,z
-x,1/2-y,1/2+z
x,-y,-z
-x,1/2+y,1/2-z
-x,-y,-z
x,1/2+y,1/2-z
-x,y,z
x,1/2-y,1/2+z
1/2+x,1/2+y,z
1/2-x,-y,1/2+z
1/2+x,1/2-y,-z
1/2-x,y,1/2-z
1/2-x,1/2-y,-z
1/2+x,y,1/2-z
1/2-x,1/2+y,z
1/2+x,-y,1/2+z
loop_
_atom_site_type_symbol
_atom_site_label
_atom_site_fract_x
_atom_site_fract_y
_atom_site_fract_z
Si Si1 0.894251 0.387648 0.131106
Si Si2 0.186697 0.000000 0.500000
Si Si3 0.000000 0.620370 0.320344
Si Si4 0.087034 0.203835 0.042537
Si Si5 0.250000 0.035198 0.750000
Si Si6 0.000000 0.718190 0.651571
Si Si7 0.000000 0.444763 0.174109
Si Si8 0.654692 0.418699 0.098392
O O1 0.849786 0.416913 0.027724
O O2 0.897046 0.282925 0.140008
O O3 0.885419 0.427556 0.279070
O O4 0.949569 0.425389 0.084906
O O5 0.220300 0.979040 0.634597
O O6 0.053926 0.621097 0.401329
O O7 0.000000 0.545230 0.213714
O O8 0.000000 0.720669 0.277735
O O9 0.140639 0.165677 0.987672
O O10 0.051612 0.243736 0.926838
O O11 0.289501 0.094805 0.666851
O O12 0.000000 0.617521 0.695536
O O13 0.654273 0.500000 0.000000
#
# Coordination Sequence:
#
# PCOD8264429 Si02
#       8
#    16   8   8  16   8   8   8  16
#     4  11  24  43  64 105 144 176 237 283 344 427
#     4  10  24  45  72  96 134 181 224 300 358 422
#     4  11  23  36  63  90 142 191 223 264 339 399
#     4  11  22  39  62  95 138 182 226 283 327 411
#     4  10  22  48  70 102 130 170 238 298 360 424
#     4  11  22  40  56  94 146 186 223 281 331 402
#     4  12  21  40  61  98 143 185 231 278 332 427
#     4  11  22  43  73  96 129 182 231 286 353 420
#
# _framework density 21.874742000000001
#
# number of rings (size 3 to 8) (size 9 to 14) (size 15 to 20)
#    0.000    1.091    4.545    1.636    2.545    1.091 
#    6.545    4.545    0.000    0.000    0.000    0.000 
#    0.000    0.000    0.000    0.000    0.000    0.000 
#
# Total GULP energy -545082.955646 kJ/mol
# GULP energy per Si atom -12388.248992 kJ/mol
# Density = 2.182495 g / cm^3
# Si number density = 21.874742 Si / 1000 Ang^3
#
#
#
# Elastic Constant Matrix: (Units=GPa)
#
#
# Indices 1 2 3 4 5 6 
#
# 1 151.8253 54.9345 59.0123 0.0000 0.0000 0.0000
# 2 54.9345 103.6046 41.8183 0.0000 0.0000 0.0000
# 3 59.0123 41.8183 102.4765 0.0000 0.0000 0.0000
# 4 0.0000 0.0000 0.0000 38.2683 0.0000 0.0000
# 5 0.0000 0.0000 0.0000 0.0000 36.3432 0.0000
# 6 0.0000 0.0000 0.0000 0.0000 0.0000 13.1956
#
#
#
# Elastic Compliance Matrix: (Units=1/GPa)
#
#
# Indices 1 2 3 4 5 6 
#
# 1 0.009360 -0.003337 -0.004028 0.000000 0.000000 0.000000
# 2 -0.003337 0.012745 -0.003279 0.000000 0.000000 0.000000
# 3 -0.004028 -0.003279 0.013416 0.000000 0.000000 0.000000
# 4 0.000000 0.000000 0.000000 0.026131 0.000000 0.000000
# 5 0.000000 0.000000 0.000000 0.000000 0.027515 0.000000
# 6 0.000000 0.000000 0.000000 0.000000 0.000000 0.075783
#
#
# Mechanical properties :
#
#
# Convention : Reuss Voigt Hill
#
# Bulk Modulus (GPa) = 70.26372 74.38185 72.32278
# Shear Modulus (GPa) = 26.18035 31.03753 28.60894
#
# Velocity S-wave (km/s) = 3.46328 3.77088 3.62035
# Velocity P-wave (km/s) = 6.94140 7.28263 7.11406
#
# Compressibility (1/GPa) = 0.01423210
#
# Stress axis : x y z
#
# Youngs Moduli (GPa) = 106.84280 78.46173 74.53658
#
# Poissons Ratio (x) = 0.26181 0.30024
# Poissons Ratio (y) = 0.35652 0.24444
# Poissons Ratio (z) = 0.43038 0.25731
#
# Static dielectric constant tensor:
#      x y z
#    x 4.364850 0.000000 0.000000 
#    y 0.000000 3.547510 0.000000 
#    z 0.000000 0.000000 4.048400 
# 
# 
# High freq. dielectric constant tensor:
#      x y z
#    x 1.870020 0.000000 0.000000 
#    y 0.000000 1.826280 0.000000 
#    z 0.000000 0.000000 1.865290 
# 
# From -- ./inp_files/19108.got.cif
#   From: 2010.03.12/outbox.cif.g09.slc.cpg/sg64_10_cif.got.tgz:19108.got - 2010.04.10 20:19:32.
