data_PCOD8264411
_publ_section_title
;
Structure prediction by ZEFSAII (Michael W. Deem and Ramdas Pophale) SiO2 
 PCOD8264411
Probable space group: C M C A
;
_chemical_formula_sum "Si O2"
_cell_formula_units_Z 56
_cell_length_a 20.168506
_cell_length_b 16.530033
_cell_length_c 7.412006
_cell_angle_alpha 90.000000
_cell_angle_beta 90.000000
_cell_angle_gamma 90.000000
_cell_volume 2471.059549
_symmetry_space_group_name_H-M "C M C A"
_symmetry_group_IT_number 64
_symmetry_cell_setting 'orthorhombic'
loop_
_space_group_symop_operation_xyz
x,y,z
-x,1/2-y,1/2+z
x,-y,-z
-x,1/2+y,1/2-z
-x,-y,-z
x,1/2+y,1/2-z
-x,y,z
x,1/2-y,1/2+z
1/2+x,1/2+y,z
1/2-x,-y,1/2+z
1/2+x,1/2-y,-z
1/2-x,y,1/2-z
1/2-x,1/2-y,-z
1/2+x,y,1/2-z
1/2-x,1/2+y,z
1/2+x,-y,1/2+z
loop_
_atom_site_type_symbol
_atom_site_label
_atom_site_fract_x
_atom_site_fract_y
_atom_site_fract_z
Si Si1 0.158979 0.911959 0.934171
Si Si2 0.120217 0.195246 0.761722
Si Si3 0.573946 0.145517 0.121100
Si Si4 0.750000 0.297558 0.750000
O O1 0.116607 0.914677 0.748095
O O2 0.225364 0.857650 0.910319
O O3 0.111802 0.873499 0.087646
O O4 0.181315 0.000000 0.000000
O O5 0.066065 0.266139 0.785135
O O6 0.113262 0.153898 0.567457
O O7 0.189663 0.240326 0.804748
O O8 0.500000 0.110086 0.091430
#
# Coordination Sequence:
#
# PCOD8264411 Si02
#       4
#    16  16  16   8
#     4  11  26  43  63 102 139 178 220 287 356 405
#     4  11  22  40  71  96 131 174 233 281 344 403
#     4  11  23  41  69  99 130 178 233 279 334 413
#     4  10  22  44  68  96 130 176 226 288 332 414
#
# _framework density 22.662344000000001
#
# number of rings (size 3 to 8) (size 9 to 14) (size 15 to 20)
#    0.000    1.143    5.714    1.714    4.000    4.000 
#    0.000    1.429    0.000    0.000    0.000    0.000 
#    0.000    0.000    0.000    0.000    0.000    0.000 
#
# Total GULP energy -346995.370280 kJ/mol
# GULP energy per Si atom -12392.691796 kJ/mol
# Density = 2.261076 g / cm^3
# Si number density = 22.662344 Si / 1000 Ang^3
#
#
#
# Elastic Constant Matrix: (Units=GPa)
#
#
# Indices 1 2 3 4 5 6 
#
# 1 129.4860 18.5622 38.7691 0.0000 0.0000 0.0000
# 2 18.5622 71.5944 42.2149 0.0000 0.0000 0.0000
# 3 38.7691 42.2149 164.1701 0.0000 0.0000 0.0000
# 4 0.0000 0.0000 0.0000 43.5721 0.0000 0.0000
# 5 0.0000 0.0000 0.0000 0.0000 19.5270 0.0000
# 6 0.0000 0.0000 0.0000 0.0000 0.0000 16.0249
#
#
#
# Elastic Compliance Matrix: (Units=1/GPa)
#
#
# Indices 1 2 3 4 5 6 
#
# 1 0.008395 -0.001188 -0.001677 0.000000 0.000000 0.000000
# 2 -0.001188 0.016632 -0.003996 0.000000 0.000000 0.000000
# 3 -0.001677 -0.003996 0.007515 0.000000 0.000000 0.000000
# 4 0.000000 0.000000 0.000000 0.022950 0.000000 0.000000
# 5 0.000000 0.000000 0.000000 0.000000 0.051211 0.000000
# 6 0.000000 0.000000 0.000000 0.000000 0.000000 0.062403
#
#
# Mechanical properties :
#
#
# Convention : Reuss Voigt Hill
#
# Bulk Modulus (GPa) = 53.13558 62.70478 57.92018
# Shear Modulus (GPa) = 26.44075 33.53843 29.98959
#
# Velocity S-wave (km/s) = 3.41944 3.85114 3.64170
# Velocity P-wave (km/s) = 6.25201 6.89234 6.57997
#
# Compressibility (1/GPa) = 0.01881978
#
# Stress axis : x y z
#
# Youngs Moduli (GPa) = 119.11492 60.12557 133.06889
#
# Poissons Ratio (x) = 0.07141 0.22318
# Poissons Ratio (y) = 0.14148 0.53178
# Poissons Ratio (z) = 0.19977 0.24028
#
# Static dielectric constant tensor:
#      x y z
#    x 4.064780 0.000000 0.000000 
#    y 0.000000 3.755690 0.000000 
#    z 0.000000 0.000000 4.162000 
# 
# 
# High freq. dielectric constant tensor:
#      x y z
#    x 1.881000 0.000000 0.000000 
#    y 0.000000 1.863890 0.000000 
#    z 0.000000 0.000000 1.908490 
# 
# From -- ./inp_files/8899.got.cif
#   From: 2010.03.12/outbox.cif.g09.slc.cpg/sg64_5_cif.got.tgz:8899.got - 2010.04.10 20:19:32.
