data_PCOD8264230
_publ_section_title
;
Structure prediction by ZEFSAII (Michael W. Deem and Ramdas Pophale) SiO2 
 PCOD8264230
Probable space group: C M C A
;
_chemical_formula_sum "Si O2"
_cell_formula_units_Z 88
_cell_length_a 26.984602
_cell_length_b 10.825938
_cell_length_c 13.982166
_cell_angle_alpha 90.000000
_cell_angle_beta 90.000000
_cell_angle_gamma 90.000000
_cell_volume 4084.660884
_symmetry_space_group_name_H-M "C M C A"
_symmetry_group_IT_number 64
_symmetry_cell_setting 'orthorhombic'
loop_
_space_group_symop_operation_xyz
x,y,z
-x,1/2-y,1/2+z
x,-y,-z
-x,1/2+y,1/2-z
-x,-y,-z
x,1/2+y,1/2-z
-x,y,z
x,1/2-y,1/2+z
1/2+x,1/2+y,z
1/2-x,-y,1/2+z
1/2+x,1/2-y,-z
1/2-x,y,1/2-z
1/2-x,1/2-y,-z
1/2+x,y,1/2-z
1/2-x,1/2+y,z
1/2+x,-y,1/2+z
loop_
_atom_site_type_symbol
_atom_site_label
_atom_site_fract_x
_atom_site_fract_y
_atom_site_fract_z
Si Si1 0.444949 0.853066 0.995308
Si Si2 0.892772 0.807138 0.144691
Si Si3 0.634393 0.363079 0.353215
Si Si4 0.686157 0.388894 0.654970
Si Si5 0.796492 0.852710 0.866190
Si Si6 0.864791 0.000000 0.000000
O O1 0.500000 0.808573 0.025558
O O2 0.402966 0.804474 0.068515
O O3 0.433637 0.794310 0.889858
O O4 0.443465 0.000000 0.000000
O O5 0.897152 0.852918 0.254337
O O6 0.839434 0.741899 0.134797
O O7 0.898246 0.926928 0.076587
O O8 0.651014 0.501268 0.384149
O O9 0.686490 0.289144 0.350493
O O10 0.739292 0.371209 0.603976
O O11 0.693277 0.422472 0.766503
O O12 0.829885 0.903154 0.949207
#
# Coordination Sequence:
#
# PCOD8264230 Si02
#       6
#    16  16  16  16  16   8
#     4  11  24  45  71  96 125 168 229 284 335 401
#     4  11  24  41  66  94 133 171 215 274 335 391
#     4  11  22  42  68  92 132 174 218 272 331 394
#     4  10  22  39  59  93 130 177 213 260 314 397
#     4  10  23  35  60  92 131 170 214 257 318 389
#     4  12  22  38  59  92 126 168 211 266 316 380
#
# _framework density 21.544015999999999
#
# number of rings (size 3 to 8) (size 9 to 14) (size 15 to 20)
#    0.000    1.273    5.455    0.000    2.545    4.364 
#    0.000    0.455    0.000    0.000    0.000    0.000 
#    0.000    0.000    0.000    0.000    0.000    0.000 
#
# Total GULP energy -545307.681764 kJ/mol
# GULP energy per Si atom -12393.356404 kJ/mol
# Density = 2.149498 g / cm^3
# Si number density = 21.544016 Si / 1000 Ang^3
#
#
#
# Elastic Constant Matrix: (Units=GPa)
#
#
# Indices 1 2 3 4 5 6 
#
# 1 113.9357 16.2503 24.7390 0.0000 0.0000 0.0000
# 2 16.2503 69.2301 18.7430 0.0000 0.0000 0.0000
# 3 24.7390 18.7430 74.9652 0.0000 0.0000 0.0000
# 4 0.0000 0.0000 0.0000 32.8041 0.0000 0.0000
# 5 0.0000 0.0000 0.0000 0.0000 22.9710 0.0000
# 6 0.0000 0.0000 0.0000 0.0000 0.0000 13.5115
#
#
#
# Elastic Compliance Matrix: (Units=1/GPa)
#
#
# Indices 1 2 3 4 5 6 
#
# 1 0.009597 -0.001497 -0.002793 0.000000 0.000000 0.000000
# 2 -0.001497 0.015727 -0.003438 0.000000 0.000000 0.000000
# 3 -0.002793 -0.003438 0.015121 0.000000 0.000000 0.000000
# 4 0.000000 0.000000 0.000000 0.030484 0.000000 0.000000
# 5 0.000000 0.000000 0.000000 0.000000 0.043533 0.000000
# 6 0.000000 0.000000 0.000000 0.000000 0.000000 0.074011
#
#
# Mechanical properties :
#
#
# Convention : Reuss Voigt Hill
#
# Bulk Modulus (GPa) = 40.01726 41.95504 40.98615
# Shear Modulus (GPa) = 23.55635 27.08391 25.32013
#
# Velocity S-wave (km/s) = 3.31026 3.54947 3.43195
# Velocity P-wave (km/s) = 5.76414 6.02617 5.89661
#
# Compressibility (1/GPa) = 0.02498922
#
# Stress axis : x y z
#
# Youngs Moduli (GPa) = 104.20214 63.58616 66.13416
#
# Poissons Ratio (x) = 0.09516 0.18470
# Poissons Ratio (y) = 0.15594 0.22738
# Poissons Ratio (z) = 0.29102 0.21862
#
# Static dielectric constant tensor:
#      x y z
#    x 3.785610 0.000000 0.000000 
#    y 0.000000 3.848040 0.000000 
#    z 0.000000 0.000000 3.949070 
# 
# 
# High freq. dielectric constant tensor:
#      x y z
#    x 1.821030 0.000000 0.000000 
#    y 0.000000 1.845210 0.000000 
#    z 0.000000 0.000000 1.847420 
# 
# From -- ./inp_files/27176.got.cif
#   From: 2010.03.12/outbox.cif.g09.slc.cpg/sg64_14_cif.got.tgz:27176.got - 2010.04.10 20:19:32.
