data_PCOD8264551
_publ_section_title
;
Structure prediction by ZEFSAII (Michael W. Deem and Ramdas Pophale) SiO2 
 PCOD8264551
Probable space group: C M C A
;
_chemical_formula_sum "Si O2"
_cell_formula_units_Z 72
_cell_length_a 14.098209
_cell_length_b 26.643535
_cell_length_c 9.265045
_cell_angle_alpha 90.000000
_cell_angle_beta 90.000000
_cell_angle_gamma 90.000000
_cell_volume 3480.192951
_symmetry_space_group_name_H-M "C M C A"
_symmetry_group_IT_number 64
_symmetry_cell_setting 'orthorhombic'
loop_
_space_group_symop_operation_xyz
x,y,z
-x,1/2-y,1/2+z
x,-y,-z
-x,1/2+y,1/2-z
-x,-y,-z
x,1/2+y,1/2-z
-x,y,z
x,1/2-y,1/2+z
1/2+x,1/2+y,z
1/2-x,-y,1/2+z
1/2+x,1/2-y,-z
1/2-x,y,1/2-z
1/2-x,1/2-y,-z
1/2+x,y,1/2-z
1/2-x,1/2+y,z
1/2+x,-y,1/2+z
loop_
_atom_site_type_symbol
_atom_site_label
_atom_site_fract_x
_atom_site_fract_y
_atom_site_fract_z
Si Si1 0.814283 0.885481 0.980257
Si Si2 0.250000 0.552050 0.750000
Si Si3 0.000000 0.820988 0.014150
Si Si4 0.894284 0.022847 0.159550
Si Si5 0.705825 0.709325 0.395475
Si Si6 0.000000 0.227229 0.305376
O O1 0.840894 0.923714 0.851287
O O2 0.736522 0.847087 0.925485
O O3 0.763758 0.913518 0.111774
O O4 0.908792 0.856192 0.027246
O O5 0.159214 0.515099 0.768036
O O6 0.000000 0.786867 0.159167
O O7 0.000000 0.787344 0.865508
O O8 0.000000 0.030938 0.220482
O O9 0.897418 0.000000 0.000000
O O10 0.750000 0.729673 0.250000
O O11 0.750000 0.750000 0.500000
O O12 0.592314 0.706004 0.386746
#
# Coordination Sequence:
#
# PCOD8264551 Si02
#       6
#    16   8   8  16  16   8
#     4  11  23  42  68 101 133 184 230 290 359 426
#     4  10  24  38  66 100 130 168 228 298 348 416
#     4  12  24  42  73  97 138 192 245 285 354 429
#     4   9  19  39  65  90 123 168 222 276 341 415
#     4  12  25  42  67  97 141 184 235 295 349 423
#     4  12  24  44  64 101 135 192 238 291 353 421
#
# _framework density 20.688507999999999
#
# number of rings (size 3 to 8) (size 9 to 14) (size 15 to 20)
#    0.000    1.111    5.556    0.000    4.667    1.778 
#    2.000    0.000    0.000    2.000    0.000    0.000 
#    0.000    0.000    0.000    0.000    0.000    0.000 
#
# Total GULP energy -446193.760368 kJ/mol
# GULP energy per Si atom -12394.271121 kJ/mol
# Density = 2.064142 g / cm^3
# Si number density = 20.688508 Si / 1000 Ang^3
#
#
#
# Elastic Constant Matrix: (Units=GPa)
#
#
# Indices 1 2 3 4 5 6 
#
# 1 177.1318 68.8032 54.8308 0.0000 0.0000 0.0000
# 2 68.8032 149.6691 61.4777 0.0000 0.0000 0.0000
# 3 54.8308 61.4777 93.6738 0.0000 0.0000 0.0000
# 4 0.0000 0.0000 0.0000 46.0174 0.0000 0.0000
# 5 0.0000 0.0000 0.0000 0.0000 31.3632 0.0000
# 6 0.0000 0.0000 0.0000 0.0000 0.0000 45.4994
#
#
#
# Elastic Compliance Matrix: (Units=1/GPa)
#
#
# Indices 1 2 3 4 5 6 
#
# 1 0.007397 -0.002221 -0.002872 0.000000 0.000000 0.000000
# 2 -0.002221 0.009814 -0.005141 0.000000 0.000000 0.000000
# 3 -0.002872 -0.005141 0.015731 0.000000 0.000000 0.000000
# 4 0.000000 0.000000 0.000000 0.021731 0.000000 0.000000
# 5 0.000000 0.000000 0.000000 0.000000 0.031884 0.000000
# 6 0.000000 0.000000 0.000000 0.000000 0.000000 0.021978
#
#
# Mechanical properties :
#
#
# Convention : Reuss Voigt Hill
#
# Bulk Modulus (GPa) = 80.16906 87.85533 84.01219
# Shear Modulus (GPa) = 37.54829 40.26686 38.90757
#
# Velocity S-wave (km/s) = 4.26483 4.41652 4.34134
# Velocity P-wave (km/s) = 7.94269 8.28043 8.11332
#
# Compressibility (1/GPa) = 0.01247364
#
# Stress axis : x y z
#
# Youngs Moduli (GPa) = 135.18539 101.89574 63.56974
#
# Poissons Ratio (x) = 0.22627 0.18260
# Poissons Ratio (y) = 0.30020 0.32681
# Poissons Ratio (z) = 0.38832 0.52385
#
# Static dielectric constant tensor:
#      x y z
#    x 4.099890 0.000000 0.000000 
#    y 0.000000 4.099550 0.000000 
#    z 0.000000 0.000000 3.558070 
# 
# 
# High freq. dielectric constant tensor:
#      x y z
#    x 1.827970 0.000000 0.000000 
#    y 0.000000 1.828310 0.000000 
#    z 0.000000 0.000000 1.782370 
# 
# From -- ./inp_files/5992.got.cif
#   From: 2010.03.12/outbox.cif.g09.slc.cpg/sg64_3_cif.got.tgz:5992.got - 2010.04.10 20:19:32.
