data_PCOD8264386
_publ_section_title
;
Structure prediction by ZEFSAII (Michael W. Deem and Ramdas Pophale) SiO2 
 PCOD8264386
Probable space group: C M C A
;
_chemical_formula_sum "Si O2"
_cell_formula_units_Z 64
_cell_length_a 20.912391
_cell_length_b 23.047332
_cell_length_c 5.046656
_cell_angle_alpha 90.000000
_cell_angle_beta 90.000000
_cell_angle_gamma 90.000000
_cell_volume 2432.361109
_symmetry_space_group_name_H-M "C M C A"
_symmetry_group_IT_number 64
_symmetry_cell_setting 'orthorhombic'
loop_
_space_group_symop_operation_xyz
x,y,z
-x,1/2-y,1/2+z
x,-y,-z
-x,1/2+y,1/2-z
-x,-y,-z
x,1/2+y,1/2-z
-x,y,z
x,1/2-y,1/2+z
1/2+x,1/2+y,z
1/2-x,-y,1/2+z
1/2+x,1/2-y,-z
1/2-x,y,1/2-z
1/2-x,1/2-y,-z
1/2+x,y,1/2-z
1/2-x,1/2+y,z
1/2+x,-y,1/2+z
loop_
_atom_site_type_symbol
_atom_site_label
_atom_site_fract_x
_atom_site_fract_y
_atom_site_fract_z
Si Si1 0.070727 0.930990 0.478274
Si Si2 0.137544 0.712027 0.982793
Si Si3 0.750000 0.361564 0.250000
Si Si4 0.350859 0.432233 0.978299
Si Si5 0.500000 0.288901 0.386245
O O1 0.096135 0.913492 0.190850
O O2 0.000000 0.903050 0.517284
O O3 0.064279 0.000000 0.500000
O O4 0.122178 0.910055 0.696904
O O5 0.139430 0.767945 0.787927
O O6 0.199334 0.675062 0.916394
O O7 0.068697 0.677680 0.937169
O O8 0.715939 0.400722 0.029344
O O9 0.336697 0.500000 0.000000
O O10 0.500000 0.233627 0.584859
#
# Coordination Sequence:
#
# PCOD8264386 Si02
#       5
#    16  16   8  16   8
#     4   9  18  38  64  87 118 165 221 277 327 374
#     4  10  22  42  68  97 130 170 217 276 337 401
#     4  12  26  42  66 100 138 178 224 270 336 410
#     4  10  23  39  60  91 130 176 219 267 326 392
#     4   8  16  36  64  90 124 164 206 264 332 390
#
# _framework density 26.311886000000001
#
# number of rings (size 3 to 8) (size 9 to 14) (size 15 to 20)
#    0.000    2.250    0.000    1.500    0.000   11.000 
#    4.500    0.000    5.500    0.000    0.000    0.000 
#    0.000    0.000    0.000    0.000    0.000    0.000 
#
# Total GULP energy -396878.050524 kJ/mol
# GULP energy per Si atom -12402.439079 kJ/mol
# Density = 2.625200 g / cm^3
# Si number density = 26.311886 Si / 1000 Ang^3
#
#
#
# Elastic Constant Matrix: (Units=GPa)
#
#
# Indices 1 2 3 4 5 6 
#
# 1 226.1795 59.6020 29.0641 0.0000 0.0000 0.0000
# 2 59.6020 39.6560 2.9409 0.0000 0.0000 0.0000
# 3 29.0641 2.9409 109.8017 0.0000 0.0000 0.0000
# 4 0.0000 0.0000 0.0000 16.2344 0.0000 0.0000
# 5 0.0000 0.0000 0.0000 0.0000 39.3793 0.0000
# 6 0.0000 0.0000 0.0000 0.0000 0.0000 42.5093
#
#
#
# Elastic Compliance Matrix: (Units=1/GPa)
#
#
# Indices 1 2 3 4 5 6 
#
# 1 0.007630 -0.011341 -0.001716 0.000000 0.000000 0.000000
# 2 -0.011341 0.042123 0.001874 0.000000 0.000000 0.000000
# 3 -0.001716 0.001874 0.009511 0.000000 0.000000 0.000000
# 4 0.000000 0.000000 0.000000 0.061598 0.000000 0.000000
# 5 0.000000 0.000000 0.000000 0.000000 0.025394 0.000000
# 6 0.000000 0.000000 0.000000 0.000000 0.000000 0.023524
#
#
# Mechanical properties :
#
#
# Convention : Reuss Voigt Hill
#
# Bulk Modulus (GPa) = 27.10157 62.09457 44.59807
# Shear Modulus (GPa) = 24.45635 38.55996 31.50816
#
# Velocity S-wave (km/s) = 3.05204 3.83233 3.46423
# Velocity P-wave (km/s) = 4.76890 6.57518 5.74350
#
# Compressibility (1/GPa) = 0.03689823
#
# Stress axis : x y z
#
# Youngs Moduli (GPa) = 131.05724 23.74010 105.13759
#
# Poissons Ratio (x) = 0.26923 0.18041
# Poissons Ratio (y) = 1.48630 -0.19699
# Poissons Ratio (z) = 0.22489 -0.04448
#
# Static dielectric constant tensor:
#      x y z
#    x 5.206870 0.000000 0.000000 
#    y 0.000000 8.967840 0.000000 
#    z 0.000000 0.000000 4.485750 
# 
# 
# High freq. dielectric constant tensor:
#      x y z
#    x 2.079990 0.000000 0.000000 
#    y 0.000000 2.068080 0.000000 
#    z 0.000000 0.000000 2.055540 
# 
# From -- ./inp_files/1800.got.cif
#   From: 2010.03.12/outbox.cif.g09.slc.cpg/sg64_1_cif.got.tgz:1800.got - 2010.04.10 20:19:32.
