data_PCOD8264613
_publ_section_title
;
Structure prediction by ZEFSAII (Michael W. Deem and Ramdas Pophale) SiO2 
 PCOD8264613
Probable space group: C M C A
;
_chemical_formula_sum "Si O2"
_cell_formula_units_Z 80
_cell_length_a 22.167306
_cell_length_b 14.510176
_cell_length_c 11.534894
_cell_angle_alpha 90.000000
_cell_angle_beta 90.000000
_cell_angle_gamma 90.000000
_cell_volume 3710.216090
_symmetry_space_group_name_H-M "C M C A"
_symmetry_group_IT_number 64
_symmetry_cell_setting 'orthorhombic'
loop_
_space_group_symop_operation_xyz
x,y,z
-x,1/2-y,1/2+z
x,-y,-z
-x,1/2+y,1/2-z
-x,-y,-z
x,1/2+y,1/2-z
-x,y,z
x,1/2-y,1/2+z
1/2+x,1/2+y,z
1/2-x,-y,1/2+z
1/2+x,1/2-y,-z
1/2-x,y,1/2-z
1/2-x,1/2-y,-z
1/2+x,y,1/2-z
1/2-x,1/2+y,z
1/2+x,-y,1/2+z
loop_
_atom_site_type_symbol
_atom_site_label
_atom_site_fract_x
_atom_site_fract_y
_atom_site_fract_z
Si Si1 0.204371 0.393992 0.613085
Si Si2 0.568285 0.452480 0.314729
Si Si3 0.431516 0.359847 0.551195
Si Si4 0.820644 0.789807 0.665278
Si Si5 0.671119 0.410228 0.138665
O O1 0.168770 0.338632 0.711795
O O2 0.269604 0.346111 0.593750
O O3 0.162679 0.391609 0.499252
O O4 0.215044 0.500979 0.652212
O O5 0.500000 0.450564 0.269655
O O6 0.583202 0.549465 0.374289
O O7 0.578013 0.375779 0.414312
O O8 0.608574 0.433007 0.202509
O O9 0.500000 0.326150 0.574839
O O10 0.383094 0.284588 0.593490
O O11 0.800214 0.684070 0.689043
#
# Coordination Sequence:
#
# PCOD8264613 Si02
#       5
#    16  16  16  16  16
#     4  10  25  44  57  98 132 161 215 264 325 389
#     4   9  19  38  65  93 126 167 213 264 321 378
#     4   9  19  39  65  94 124 165 219 264 309 386
#     4  11  23  41  66  90 125 172 214 263 322 386
#     4  11  23  42  66  89 133 166 210 267 328 386
#
# _framework density 21.562086999999998
#
# number of rings (size 3 to 8) (size 9 to 14) (size 15 to 20)
#    0.000    2.000    2.000    1.800    2.800    7.200 
#    0.000    3.000    0.000    0.000    0.000    0.000 
#    0.000    0.000    0.000    0.000    0.000    0.000 
#
# Total GULP energy -495639.639924 kJ/mol
# GULP energy per Si atom -12390.990998 kJ/mol
# Density = 2.151301 g / cm^3
# Si number density = 21.562087 Si / 1000 Ang^3
#
#
#
# Elastic Constant Matrix: (Units=GPa)
#
#
# Indices 1 2 3 4 5 6 
#
# 1 124.0628 32.6674 50.9672 0.0000 0.0000 0.0000
# 2 32.6674 151.9049 29.6290 0.0000 0.0000 0.0000
# 3 50.9672 29.6290 131.7640 0.0000 0.0000 0.0000
# 4 0.0000 0.0000 0.0000 18.3789 0.0000 0.0000
# 5 0.0000 0.0000 0.0000 0.0000 38.8663 0.0000
# 6 0.0000 0.0000 0.0000 0.0000 0.0000 14.9563
#
#
#
# Elastic Compliance Matrix: (Units=1/GPa)
#
#
# Indices 1 2 3 4 5 6 
#
# 1 0.009876 -0.001442 -0.003496 0.000000 0.000000 0.000000
# 2 -0.001442 0.007096 -0.001038 0.000000 0.000000 0.000000
# 3 -0.003496 -0.001038 0.009175 0.000000 0.000000 0.000000
# 4 0.000000 0.000000 0.000000 0.054410 0.000000 0.000000
# 5 0.000000 0.000000 0.000000 0.000000 0.025729 0.000000
# 6 0.000000 0.000000 0.000000 0.000000 0.000000 0.066862
#
#
# Mechanical properties :
#
#
# Convention : Reuss Voigt Hill
#
# Bulk Modulus (GPa) = 70.44560 70.47323 70.45942
# Shear Modulus (GPa) = 26.33916 34.07148 30.20532
#
# Velocity S-wave (km/s) = 3.49886 3.97943 3.74686
# Velocity P-wave (km/s) = 7.00462 7.33957 7.17405
#
# Compressibility (1/GPa) = 0.01419535
#
# Stress axis : x y z
#
# Youngs Moduli (GPa) = 101.25191 140.93254 108.99247
#
# Poissons Ratio (x) = 0.20323 0.38104
# Poissons Ratio (y) = 0.14601 0.11311
# Poissons Ratio (z) = 0.35397 0.14625
#
# Static dielectric constant tensor:
#      x y z
#    x 3.605940 0.000000 0.000000 
#    y 0.000000 4.144610 0.000000 
#    z 0.000000 0.000000 3.840220 
# 
# 
# High freq. dielectric constant tensor:
#      x y z
#    x 1.825450 0.000000 0.000000 
#    y 0.000000 1.849660 0.000000 
#    z 0.000000 0.000000 1.847130 
# 
# From -- ./inp_files/18053.got.cif
#   From: 2010.03.12/outbox.cif.g09.slc.cpg/sg64_10_cif.got.tgz:18053.got - 2010.04.10 20:19:32.
