data_PCOD8264480
_publ_section_title
;
Structure prediction by ZEFSAII (Michael W. Deem and Ramdas Pophale) SiO2 
 PCOD8264480
Probable space group: C M C A
;
_chemical_formula_sum "Si O2"
_cell_formula_units_Z 64
_cell_length_a 22.654080
_cell_length_b 9.314849
_cell_length_c 13.260987
_cell_angle_alpha 90.000000
_cell_angle_beta 90.000000
_cell_angle_gamma 90.000000
_cell_volume 2798.324651
_symmetry_space_group_name_H-M "C M C A"
_symmetry_group_IT_number 64
_symmetry_cell_setting 'orthorhombic'
loop_
_space_group_symop_operation_xyz
x,y,z
-x,1/2-y,1/2+z
x,-y,-z
-x,1/2+y,1/2-z
-x,-y,-z
x,1/2+y,1/2-z
-x,y,z
x,1/2-y,1/2+z
1/2+x,1/2+y,z
1/2-x,-y,1/2+z
1/2+x,1/2-y,-z
1/2-x,y,1/2-z
1/2-x,1/2-y,-z
1/2+x,y,1/2-z
1/2-x,1/2+y,z
1/2+x,-y,1/2+z
loop_
_atom_site_type_symbol
_atom_site_label
_atom_site_fract_x
_atom_site_fract_y
_atom_site_fract_z
Si Si1 0.625238 0.778053 0.145594
Si Si2 0.111485 0.359474 0.441688
Si Si3 0.500000 0.125155 0.868274
Si Si4 0.318695 0.001523 0.269607
Si Si5 0.500000 0.308340 0.601278
O O1 0.556328 0.790545 0.175094
O O2 0.653823 0.658251 0.217173
O O3 0.654974 0.931121 0.168530
O O4 0.636341 0.748526 0.027007
O O5 0.086734 0.500000 0.500000
O O6 0.164631 0.402237 0.366323
O O7 0.058232 0.288110 0.377902
O O8 0.500000 0.956714 0.834521
O O9 0.500000 0.140283 0.987174
O O10 0.250000 0.016633 0.250000
#
# Coordination Sequence:
#
# PCOD8264480 Si02
#       5
#    16  16   8  16   8
#     4  10  23  42  64  95 132 169 220 273 338 393
#     4   9  20  39  65  96 137 177 213 269 342 394
#     4   9  20  37  63  98 130 160 214 273 326 400
#     4  11  24  42  63  90 130 175 225 274 318 398
#     4   9  17  35  65  98 131 166 212 266 328 400
#
# _framework density 22.870827999999999
#
# number of rings (size 3 to 8) (size 9 to 14) (size 15 to 20)
#    0.000    2.250    0.000    1.125    3.500    6.000 
#    0.000    2.500    0.000    0.000    0.000    0.000 
#    0.000    0.000    0.000    0.000    0.000    0.000 
#
# Total GULP energy -396727.920171 kJ/mol
# GULP energy per Si atom -12397.747505 kJ/mol
# Density = 2.281877 g / cm^3
# Si number density = 22.870828 Si / 1000 Ang^3
#
#
#
# Elastic Constant Matrix: (Units=GPa)
#
#
# Indices 1 2 3 4 5 6 
#
# 1 204.0886 82.0770 38.1953 0.0000 0.0000 0.0000
# 2 82.0770 85.7834 37.4698 0.0000 0.0000 0.0000
# 3 38.1953 37.4698 63.9725 0.0000 0.0000 0.0000
# 4 0.0000 0.0000 0.0000 33.2049 0.0000 0.0000
# 5 0.0000 0.0000 0.0000 0.0000 31.8029 0.0000
# 6 0.0000 0.0000 0.0000 0.0000 0.0000 -4.6693
#
#
#
# Elastic Compliance Matrix: (Units=1/GPa)
#
#
# Indices 1 2 3 4 5 6 
#
# 1 0.007972 -0.007456 -0.000393 0.000000 0.000000 0.000000
# 2 -0.007456 0.022638 -0.008808 0.000000 0.000000 0.000000
# 3 -0.000393 -0.008808 0.021025 0.000000 0.000000 0.000000
# 4 0.000000 0.000000 0.000000 0.030116 0.000000 0.000000
# 5 0.000000 0.000000 0.000000 0.000000 0.031444 0.000000
# 6 0.000000 0.000000 0.000000 0.000000 0.000000 -0.214167
#
#
# Mechanical properties :
#
#
# Convention : Reuss Voigt Hill
#
# Bulk Modulus (GPa) = 54.57856 74.36985 64.47421
# Shear Modulus (GPa) = -81.23308 25.14120 -28.04594
#
# Velocity S-wave (km/s) = -5.96618 3.31912 -3.50562
# Velocity P-wave (km/s) = 4.85230 6.87580 3.44470
#
# Compressibility (1/GPa) = 0.01832221
#
# Stress axis : x y z
#
# Youngs Moduli (GPa) = 125.44252 44.17296 47.56207
#
# Poissons Ratio (x) = 0.32935 0.01867
# Poissons Ratio (y) = 0.93528 0.41893
# Poissons Ratio (z) = 0.04925 0.38908
#
# Static dielectric constant tensor:
#      x y z
#    x 3.966080 0.000000 0.000000 
#    y 0.000000 4.385760 0.000000 
#    z 0.000000 0.000000 4.043290 
# 
# 
# High freq. dielectric constant tensor:
#      x y z
#    x 1.884480 0.000000 0.000000 
#    y 0.000000 1.914610 0.000000 
#    z 0.000000 0.000000 1.899690 
# 
# From -- ./inp_files/26945.got.cif
#   From: 2010.03.12/outbox.cif.g09.slc.cpg/sg64_14_cif.got.tgz:26945.got - 2010.04.10 20:19:32.
