data_PCOD8264562
_publ_section_title
;
Structure prediction by ZEFSAII (Michael W. Deem and Ramdas Pophale) SiO2 
 PCOD8264562
Probable space group: C M C A
;
_chemical_formula_sum "Si O2"
_cell_formula_units_Z 96
_cell_length_a 25.879155
_cell_length_b 20.147294
_cell_length_c 8.773222
_cell_angle_alpha 90.000000
_cell_angle_beta 90.000000
_cell_angle_gamma 90.000000
_cell_volume 4574.313596
_symmetry_space_group_name_H-M "C M C A"
_symmetry_group_IT_number 64
_symmetry_cell_setting 'orthorhombic'
loop_
_space_group_symop_operation_xyz
x,y,z
-x,1/2-y,1/2+z
x,-y,-z
-x,1/2+y,1/2-z
-x,-y,-z
x,1/2+y,1/2-z
-x,y,z
x,1/2-y,1/2+z
1/2+x,1/2+y,z
1/2-x,-y,1/2+z
1/2+x,1/2-y,-z
1/2-x,y,1/2-z
1/2-x,1/2-y,-z
1/2+x,y,1/2-z
1/2-x,1/2+y,z
1/2+x,-y,1/2+z
loop_
_atom_site_type_symbol
_atom_site_label
_atom_site_fract_x
_atom_site_fract_y
_atom_site_fract_z
Si Si1 0.291890 0.930286 0.940198
Si Si2 0.357820 0.041858 0.356424
Si Si3 0.621915 0.154216 0.902873
Si Si4 0.059835 0.468799 0.160854
Si Si5 0.344387 0.254673 0.648081
Si Si6 0.805847 0.662300 0.404209
O O1 0.315924 0.949516 0.777301
O O2 0.243922 0.882140 0.924677
O O3 0.331272 0.896683 0.061747
O O4 0.271210 0.000000 0.000000
O O5 0.359439 0.118091 0.419454
O O6 0.337473 0.000000 0.500000
O O7 0.410504 0.009427 0.293353
O O8 0.573281 0.109180 0.853888
O O9 0.629487 0.202067 0.758876
O O10 0.613475 0.201192 0.052262
O O11 0.000000 0.476446 0.200222
O O12 0.075324 0.500000 0.000000
O O13 0.306169 0.218990 0.530831
O O14 0.306501 0.305009 0.736153
#
# Coordination Sequence:
#
# PCOD8264562 Si02
#       6
#    16  16  16  16  16  16
#     4  12  24  41  62  90 131 175 221 267 324 389
#     4  12  23  42  63  96 134 162 214 279 327 385
#     4  11  21  43  63  93 131 167 223 264 330 389
#     4  11  22  43  75  98 123 167 211 274 345 394
#     4  10  24  41  63  87 133 185 211 274 313 381
#     4  11  24  40  61  93 132 177 229 257 324 387
#
# _framework density 20.986757000000001
#
# number of rings (size 3 to 8) (size 9 to 14) (size 15 to 20)
#    0.000    0.833    5.000    2.000    0.000    5.000 
#    0.000    0.833    0.000    4.000    0.000    0.000 
#    0.000    0.000    0.000    0.000    0.000    0.000 
#
# Total GULP energy -594713.697672 kJ/mol
# GULP energy per Si atom -12389.868702 kJ/mol
# Density = 2.093899 g / cm^3
# Si number density = 20.986757 Si / 1000 Ang^3
#
#
#
# Elastic Constant Matrix: (Units=GPa)
#
#
# Indices 1 2 3 4 5 6 
#
# 1 64.7291 48.6012 29.7028 0.0000 0.0000 0.0000
# 2 48.6012 149.5751 54.1836 0.0000 0.0000 0.0000
# 3 29.7028 54.1836 99.3362 0.0000 0.0000 0.0000
# 4 0.0000 0.0000 0.0000 43.3203 0.0000 0.0000
# 5 0.0000 0.0000 0.0000 0.0000 16.0398 0.0000
# 6 0.0000 0.0000 0.0000 0.0000 0.0000 26.6787
#
#
#
# Elastic Compliance Matrix: (Units=1/GPa)
#
#
# Indices 1 2 3 4 5 6 
#
# 1 0.021231 -0.005731 -0.003222 0.000000 0.000000 0.000000
# 2 -0.005731 0.009879 -0.003675 0.000000 0.000000 0.000000
# 3 -0.003222 -0.003675 0.013035 0.000000 0.000000 0.000000
# 4 0.000000 0.000000 0.000000 0.023084 0.000000 0.000000
# 5 0.000000 0.000000 0.000000 0.000000 0.062345 0.000000
# 6 0.000000 0.000000 0.000000 0.000000 0.000000 0.037483
#
#
# Mechanical properties :
#
#
# Convention : Reuss Voigt Hill
#
# Bulk Modulus (GPa) = 52.94339 64.29064 58.61702
# Shear Modulus (GPa) = 25.17506 29.28461 27.22984
#
# Velocity S-wave (km/s) = 3.46724 3.73954 3.60596
# Velocity P-wave (km/s) = 6.42735 7.02467 6.73263
#
# Compressibility (1/GPa) = 0.01888810
#
# Stress axis : x y z
#
# Youngs Moduli (GPa) = 47.10133 101.22393 76.71783
#
# Poissons Ratio (x) = 0.58014 0.24719
# Poissons Ratio (y) = 0.26995 0.28193
# Poissons Ratio (z) = 0.15177 0.37199
#
# Static dielectric constant tensor:
#      x y z
#    x 3.452970 0.000000 0.000000 
#    y 0.000000 4.796180 0.000000 
#    z 0.000000 0.000000 4.195310 
# 
# 
# High freq. dielectric constant tensor:
#      x y z
#    x 1.765600 0.000000 0.000000 
#    y 0.000000 1.858750 0.000000 
#    z 0.000000 0.000000 1.842980 
# 
# From -- ./inp_files/10354.got.cif
#   From: 2010.03.12/outbox.cif.g09.slc.cpg/sg64_6_cif.got.tgz:10354.got - 2010.04.10 20:19:32.
