data_PCOD8264527
_publ_section_title
;
Structure prediction by ZEFSAII (Michael W. Deem and Ramdas Pophale) SiO2 
 PCOD8264527
Probable space group: C M C A
;
_chemical_formula_sum "Si O2"
_cell_formula_units_Z 48
_cell_length_a 16.038772
_cell_length_b 12.070448
_cell_length_c 11.149963
_cell_angle_alpha 90.000000
_cell_angle_beta 90.000000
_cell_angle_gamma 90.000000
_cell_volume 2158.578909
_symmetry_space_group_name_H-M "C M C A"
_symmetry_group_IT_number 64
_symmetry_cell_setting 'orthorhombic'
loop_
_space_group_symop_operation_xyz
x,y,z
-x,1/2-y,1/2+z
x,-y,-z
-x,1/2+y,1/2-z
-x,-y,-z
x,1/2+y,1/2-z
-x,y,z
x,1/2-y,1/2+z
1/2+x,1/2+y,z
1/2-x,-y,1/2+z
1/2+x,1/2-y,-z
1/2-x,y,1/2-z
1/2-x,1/2-y,-z
1/2+x,y,1/2-z
1/2-x,1/2+y,z
1/2+x,-y,1/2+z
loop_
_atom_site_type_symbol
_atom_site_label
_atom_site_fract_x
_atom_site_fract_y
_atom_site_fract_z
Si Si1 0.143400 0.845800 0.483996
Si Si2 0.092446 0.976808 0.692531
Si Si3 0.171522 0.395631 0.572936
O O1 0.132723 0.908404 0.356426
O O2 0.123992 0.716827 0.463650
O O3 0.232450 0.874544 0.542923
O O4 0.079034 0.891993 0.581717
O O5 0.000000 0.998394 0.747110
O O6 0.155485 0.923048 0.788232
O O7 0.135338 0.500000 0.500000
#
# Coordination Sequence:
#
# PCOD8264527 Si02
#       3
#    16  16  16
#     4  10  23  44  69  97 132 177 225 270 330 399
#     4  11  24  44  68  97 136 174 218 277 341 394
#     4  11  24  42  69 100 130 174 228 275 324 400
#
# _framework density 22.236851999999999
#
# number of rings (size 3 to 8) (size 9 to 14) (size 15 to 20)
#    0.000    1.333    3.333    3.000    4.667    3.333 
#    0.000    0.000    0.000    0.000    0.000    0.000 
#    0.000    0.000    0.000    0.000    0.000    0.000 
#
# Total GULP energy -297477.780664 kJ/mol
# GULP energy per Si atom -12394.907528 kJ/mol
# Density = 2.218624 g / cm^3
# Si number density = 22.236852 Si / 1000 Ang^3
#
#
#
# Elastic Constant Matrix: (Units=GPa)
#
#
# Indices 1 2 3 4 5 6 
#
# 1 97.4195 26.9729 32.2261 0.0000 0.0000 0.0000
# 2 26.9729 224.9491 72.5276 0.0000 0.0000 0.0000
# 3 32.2261 72.5276 113.8416 0.0000 0.0000 0.0000
# 4 0.0000 0.0000 0.0000 33.5830 0.0000 0.0000
# 5 0.0000 0.0000 0.0000 0.0000 23.2035 0.0000
# 6 0.0000 0.0000 0.0000 0.0000 0.0000 15.2322
#
#
#
# Elastic Compliance Matrix: (Units=1/GPa)
#
#
# Indices 1 2 3 4 5 6 
#
# 1 0.011355 -0.000409 -0.002954 0.000000 0.000000 0.000000
# 2 -0.000409 0.005609 -0.003458 0.000000 0.000000 0.000000
# 3 -0.002954 -0.003458 0.011823 0.000000 0.000000 0.000000
# 4 0.000000 0.000000 0.000000 0.029777 0.000000 0.000000
# 5 0.000000 0.000000 0.000000 0.000000 0.043097 0.000000
# 6 0.000000 0.000000 0.000000 0.000000 0.000000 0.065650
#
#
# Mechanical properties :
#
#
# Convention : Reuss Voigt Hill
#
# Bulk Modulus (GPa) = 66.02274 77.74037 71.88155
# Shear Modulus (GPa) = 26.88134 34.70264 30.79199
#
# Velocity S-wave (km/s) = 3.48064 3.95472 3.72523
# Velocity P-wave (km/s) = 6.77557 7.47590 7.13433
#
# Compressibility (1/GPa) = 0.01514630
#
# Stress axis : x y z
#
# Youngs Moduli (GPa) = 88.06475 178.27235 84.57920
#
# Poissons Ratio (x) = 0.07296 0.24982
# Poissons Ratio (y) = 0.03604 0.29246
# Poissons Ratio (z) = 0.26012 0.61644
#
# Static dielectric constant tensor:
#      x y z
#    x 3.703810 0.000000 0.000000 
#    y 0.000000 4.395320 0.000000 
#    z 0.000000 0.000000 3.909540 
# 
# 
# High freq. dielectric constant tensor:
#      x y z
#    x 1.865580 0.000000 0.000000 
#    y 0.000000 1.882420 0.000000 
#    z 0.000000 0.000000 1.869970 
# 
# From -- ./inp_files/15204.got.cif
#   From: 2010.03.12/outbox.cif.g09.slc.cpg/sg64_8_cif.got.tgz:15204.got - 2010.04.10 20:19:32.
