data_PCOD8264879
_publ_section_title
;
Structure prediction by ZEFSAII (Michael W. Deem and Ramdas Pophale) SiO2 
 PCOD8264879
Probable space group: C M C A
;
_chemical_formula_sum "Si O2"
_cell_formula_units_Z 88
_cell_length_a 20.272842
_cell_length_b 22.232218
_cell_length_c 8.718299
_cell_angle_alpha 90.000000
_cell_angle_beta 90.000000
_cell_angle_gamma 90.000000
_cell_volume 3929.426659
_symmetry_space_group_name_H-M "C M C A"
_symmetry_group_IT_number 64
_symmetry_cell_setting 'orthorhombic'
loop_
_space_group_symop_operation_xyz
x,y,z
-x,1/2-y,1/2+z
x,-y,-z
-x,1/2+y,1/2-z
-x,-y,-z
x,1/2+y,1/2-z
-x,y,z
x,1/2-y,1/2+z
1/2+x,1/2+y,z
1/2-x,-y,1/2+z
1/2+x,1/2-y,-z
1/2-x,y,1/2-z
1/2-x,1/2-y,-z
1/2+x,y,1/2-z
1/2-x,1/2+y,z
1/2+x,-y,1/2+z
loop_
_atom_site_type_symbol
_atom_site_label
_atom_site_fract_x
_atom_site_fract_y
_atom_site_fract_z
Si Si1 0.500000 0.931782 0.441519
Si Si2 0.678125 0.806760 0.811792
Si Si3 0.500000 0.635037 0.643455
Si Si4 0.890836 0.584034 0.341889
Si Si5 0.709903 0.000000 0.500000
Si Si6 0.750000 0.912761 0.250000
Si Si7 0.355217 0.681541 0.665669
Si Si8 0.500000 0.948752 0.878489
O O1 0.500000 0.922900 0.258460
O O2 0.434304 0.899770 0.507972
O O3 0.500000 0.000000 0.500000
O O4 0.750000 0.823220 0.750000
O O5 0.629473 0.853518 0.732474
O O6 0.658969 0.739963 0.765170
O O7 0.674287 0.811792 0.995205
O O8 0.434019 0.673582 0.670022
O O9 0.500000 0.614495 0.468094
O O10 0.831856 0.539390 0.380985
O O11 0.934955 0.546180 0.223572
O O12 0.753919 0.045852 0.598303
O O13 0.683368 0.873063 0.249091
O O14 0.500000 0.000000 0.000000
#
# Coordination Sequence:
#
# PCOD8264879 Si02
#       8
#     8  16   8  16   8   8  16   8
#     4  11  23  44  72 104 151 197 244 306 383 458
#     4  12  27  50  79 104 148 199 253 317 373 456
#     4  12  26  46  73 111 148 190 254 320 369 457
#     4  11  25  45  71 107 145 196 250 302 386 448
#     4  12  28  45  76 109 152 196 254 316 380 456
#     4  12  30  50  74 114 152 204 254 316 382 466
#     4  12  29  50  77 110 153 196 259 310 387 446
#     4  11  25  43  70 102 154 196 241 308 382 455
#
# _framework density 22.395125
#
# number of rings (size 3 to 8) (size 9 to 14) (size 15 to 20)
#    0.000    0.364    3.636    3.818   11.455    2.182 
#    0.000    0.000    0.000    0.000    0.000    0.000 
#    0.000    0.000    0.000    0.000    0.000    0.000 
#
# Total GULP energy -545748.013140 kJ/mol
# GULP energy per Si atom -12403.363935 kJ/mol
# Density = 2.234415 g / cm^3
# Si number density = 22.395125 Si / 1000 Ang^3
#
#
#
# Elastic Constant Matrix: (Units=GPa)
#
#
# Indices 1 2 3 4 5 6 
#
# 1 118.8669 29.9074 21.8755 0.0000 0.0000 0.0000
# 2 29.9074 116.5507 36.8652 0.0000 0.0000 0.0000
# 3 21.8755 36.8652 112.0183 0.0000 0.0000 0.0000
# 4 0.0000 0.0000 0.0000 47.3448 0.0000 0.0000
# 5 0.0000 0.0000 0.0000 0.0000 36.4498 0.0000
# 6 0.0000 0.0000 0.0000 0.0000 0.0000 25.7913
#
#
#
# Elastic Compliance Matrix: (Units=1/GPa)
#
#
# Indices 1 2 3 4 5 6 
#
# 1 0.009119 -0.001983 -0.001128 0.000000 0.000000 0.000000
# 2 -0.001983 0.010008 -0.002906 0.000000 0.000000 0.000000
# 3 -0.001128 -0.002906 0.010104 0.000000 0.000000 0.000000
# 4 0.000000 0.000000 0.000000 0.021122 0.000000 0.000000
# 5 0.000000 0.000000 0.000000 0.000000 0.027435 0.000000
# 6 0.000000 0.000000 0.000000 0.000000 0.000000 0.038773
#
#
# Mechanical properties :
#
#
# Convention : Reuss Voigt Hill
#
# Bulk Modulus (GPa) = 58.15358 58.30356 58.22857
# Shear Modulus (GPa) = 37.22220 39.16970 38.19595
#
# Velocity S-wave (km/s) = 4.08127 4.18668 4.13431
# Velocity P-wave (km/s) = 6.94496 7.03289 6.98906
#
# Compressibility (1/GPa) = 0.01719584
#
# Stress axis : x y z
#
# Youngs Moduli (GPa) = 109.65656 99.91844 98.97139
#
# Poissons Ratio (x) = 0.19816 0.11166
# Poissons Ratio (y) = 0.21747 0.28765
# Poissons Ratio (z) = 0.12371 0.29040
#
# Static dielectric constant tensor:
#      x y z
#    x 4.419410 0.000000 0.000000 
#    y 0.000000 4.011630 0.000000 
#    z 0.000000 0.000000 4.523930 
# 
# 
# High freq. dielectric constant tensor:
#      x y z
#    x 1.889040 0.000000 0.000000 
#    y 0.000000 1.883870 0.000000 
#    z 0.000000 0.000000 1.902350 
# 
# From -- ./inp_files/8311.got.cif
#   From: 2010.03.12/outbox.cif.g09.slc.cpg/sg64_5_cif.got.tgz:8311.got - 2010.04.10 20:19:32.
