data_PCOD8264873
_publ_section_title
;
Structure prediction by ZEFSAII (Michael W. Deem and Ramdas Pophale) SiO2 
 PCOD8264873
Probable space group: C M C A
;
_chemical_formula_sum "Si O2"
_cell_formula_units_Z 88
_cell_length_a 28.720446
_cell_length_b 8.737138
_cell_length_c 17.507192
_cell_angle_alpha 90.000000
_cell_angle_beta 90.000000
_cell_angle_gamma 90.000000
_cell_volume 4393.158473
_symmetry_space_group_name_H-M "C M C A"
_symmetry_group_IT_number 64
_symmetry_cell_setting 'orthorhombic'
loop_
_space_group_symop_operation_xyz
x,y,z
-x,1/2-y,1/2+z
x,-y,-z
-x,1/2+y,1/2-z
-x,-y,-z
x,1/2+y,1/2-z
-x,y,z
x,1/2-y,1/2+z
1/2+x,1/2+y,z
1/2-x,-y,1/2+z
1/2+x,1/2-y,-z
1/2-x,y,1/2-z
1/2-x,1/2-y,-z
1/2+x,y,1/2-z
1/2-x,1/2+y,z
1/2+x,-y,1/2+z
loop_
_atom_site_type_symbol
_atom_site_label
_atom_site_fract_x
_atom_site_fract_y
_atom_site_fract_z
Si Si1 0.600209 0.744711 0.030744
Si Si2 0.193079 0.396756 0.296042
Si Si3 0.000000 0.742511 0.477279
Si Si4 0.277737 0.435093 0.653481
Si Si5 0.399919 0.050258 0.623274
Si Si6 0.000000 0.564670 0.619256
Si Si7 0.672088 0.500000 0.500000
O O1 0.549001 0.825126 0.044411
O O2 0.600547 0.662395 0.948998
O O3 0.640265 0.869107 0.036023
O O4 0.610151 0.622782 0.097228
O O5 0.222799 0.521123 0.345329
O O6 0.196421 0.438658 0.206416
O O7 0.214552 0.230655 0.310532
O O8 0.138956 0.398310 0.317317
O O9 0.000000 0.717884 0.568391
O O10 0.000000 0.578675 0.437106
O O11 0.295428 0.435555 0.566838
O O12 0.450919 0.061053 0.665775
#
# Coordination Sequence:
#
# PCOD8264873 Si02
#       7
#    16  16   8  16  16   8   8
#     4   9  18  31  54  88 120 155 196 246 293 350
#     4  11  23  44  62  84 117 164 195 240 307 353
#     4   7  12  27  48  78 120 155 191 235 294 349
#     4  11  26  41  63  87 120 157 203 240 293 362
#     4   9  17  34  61  83 116 157 199 238 299 349
#     4   7  12  26  54  88 106 146 203 242 275 358
#     4  12  24  37  56  96 124 147 204 254 290 346
#
# _framework density 20.031147000000001
#
# number of rings (size 3 to 8) (size 9 to 14) (size 15 to 20)
#    0.000    2.364    1.818    4.364    5.091    2.545 
#    0.000    0.000    0.000    3.273    0.000    0.000 
#    0.000    0.000    0.000    0.000    0.000    0.000 
#
# Total GULP energy -545083.709692 kJ/mol
# GULP energy per Si atom -12388.266129 kJ/mol
# Density = 1.998556 g / cm^3
# Si number density = 20.031147 Si / 1000 Ang^3
#
#
#
# Elastic Constant Matrix: (Units=GPa)
#
#
# Indices 1 2 3 4 5 6 
#
# 1 141.1963 24.2066 24.8032 0.0000 0.0000 0.0000
# 2 24.2066 83.2484 13.4860 0.0000 0.0000 0.0000
# 3 24.8032 13.4860 51.6237 0.0000 0.0000 0.0000
# 4 0.0000 0.0000 0.0000 15.9302 0.0000 0.0000
# 5 0.0000 0.0000 0.0000 0.0000 23.2409 0.0000
# 6 0.0000 0.0000 0.0000 0.0000 0.0000 -42.4157
#
#
#
# Elastic Compliance Matrix: (Units=1/GPa)
#
#
# Indices 1 2 3 4 5 6 
#
# 1 0.007978 -0.001774 -0.003370 0.000000 0.000000 0.000000
# 2 -0.001774 0.012938 -0.002527 0.000000 0.000000 0.000000
# 3 -0.003370 -0.002527 0.021650 0.000000 0.000000 0.000000
# 4 0.000000 0.000000 0.000000 0.062774 0.000000 0.000000
# 5 0.000000 0.000000 0.000000 0.000000 0.043028 0.000000
# 6 0.000000 0.000000 0.000000 0.000000 0.000000 -0.023576
#
#
# Mechanical properties :
#
#
# Convention : Reuss Voigt Hill
#
# Bulk Modulus (GPa) = 36.73280 44.56223 40.64752
# Shear Modulus (GPa) = 33.51008 13.58925 23.54967
#
# Velocity S-wave (km/s) = 4.09455 2.60745 3.43250
# Velocity P-wave (km/s) = 6.38212 5.59998 6.00380
#
# Compressibility (1/GPa) = 0.02722362
#
# Stress axis : x y z
#
# Youngs Moduli (GPa) = 125.33758 77.29462 46.18872
#
# Poissons Ratio (x) = 0.13712 0.15565
# Poissons Ratio (y) = 0.22235 0.11674
# Poissons Ratio (z) = 0.42238 0.19535
#
# Static dielectric constant tensor:
#      x y z
#    x 4.136240 0.000000 0.000000 
#    y 0.000000 3.512570 0.000000 
#    z 0.000000 0.000000 3.146960 
# 
# 
# High freq. dielectric constant tensor:
#      x y z
#    x 1.803960 0.000000 0.000000 
#    y 0.000000 1.768560 0.000000 
#    z 0.000000 0.000000 1.733860 
# 
# From -- ./inp_files/35733.got.cif
#   From: 2010.03.12/outbox.cif.g09.slc.cpg/sg64_18_cif.got.tgz:35733.got - 2010.04.10 20:19:32.
