data_PCOD8264302
_publ_section_title
;
Structure prediction by ZEFSAII (Michael W. Deem and Ramdas Pophale) SiO2 
 PCOD8264302
Probable space group: C M C A
;
_chemical_formula_sum "Si O2"
_cell_formula_units_Z 112
_cell_length_a 13.662127
_cell_length_b 22.864958
_cell_length_c 14.987505
_cell_angle_alpha 90.000000
_cell_angle_beta 90.000000
_cell_angle_gamma 90.000000
_cell_volume 4681.856163
_symmetry_space_group_name_H-M "C M C A"
_symmetry_group_IT_number 64
_symmetry_cell_setting 'orthorhombic'
loop_
_space_group_symop_operation_xyz
x,y,z
-x,1/2-y,1/2+z
x,-y,-z
-x,1/2+y,1/2-z
-x,-y,-z
x,1/2+y,1/2-z
-x,y,z
x,1/2-y,1/2+z
1/2+x,1/2+y,z
1/2-x,-y,1/2+z
1/2+x,1/2-y,-z
1/2-x,y,1/2-z
1/2-x,1/2-y,-z
1/2+x,y,1/2-z
1/2-x,1/2+y,z
1/2+x,-y,1/2+z
loop_
_atom_site_type_symbol
_atom_site_label
_atom_site_fract_x
_atom_site_fract_y
_atom_site_fract_z
Si Si1 0.755259 0.876327 0.930864
Si Si2 0.610841 0.732836 0.044235
Si Si3 0.386495 0.017449 0.397257
Si Si4 0.384013 0.798078 0.217679
Si Si5 0.111703 0.425767 0.252975
Si Si6 0.610789 0.704002 0.357368
Si Si7 0.890122 0.940603 0.447313
O O1 0.825393 0.825137 0.965399
O O2 0.820471 0.925496 0.882829
O O3 0.679657 0.853136 0.855242
O O4 0.692188 0.897052 0.016245
O O5 0.500000 0.712823 0.065014
O O6 0.651702 0.775907 0.121100
O O7 0.617241 0.769099 0.954844
O O8 0.500000 0.031151 0.374009
O O9 0.374943 0.000000 0.500000
O O10 0.342978 0.966433 0.331779
O O11 0.500000 0.804290 0.217778
O O12 0.339313 0.861243 0.245412
O O13 0.346593 0.751118 0.288811
O O14 0.125927 0.455877 0.156638
O O15 0.000000 0.418187 0.280571
O O16 0.500000 0.685900 0.332032
O O17 0.000000 0.913281 0.459992
O O18 0.879530 0.000000 0.500000
#
# Coordination Sequence:
#
# PCOD8264302 Si02
#       7
#    16  16  16  16  16  16  16
#     4  12  23  40  65  98 142 176 220 281 345 412
#     4  10  22  41  65  97 139 181 221 282 348 410
#     4  10  23  43  70 104 138 179 227 281 347 409
#     4   9  19  39  67  97 127 171 228 275 336 410
#     4   9  19  41  73  99 128 176 232 285 337 402
#     4  10  22  40  65  96 133 179 226 276 338 407
#     4  10  22  44  70  97 133 180 232 280 334 404
#
# _framework density 23.922136999999999
#
# number of rings (size 3 to 8) (size 9 to 14) (size 15 to 20)
#    0.000    2.000    0.000    2.571    2.000    2.857 
#    5.143    2.143    0.000    0.000    0.000    1.000 
#    0.000    0.000    0.000    0.000    0.000    0.000 
#
# Total GULP energy -694246.326108 kJ/mol
# GULP energy per Si atom -12397.255823 kJ/mol
# Density = 2.386769 g / cm^3
# Si number density = 23.922137 Si / 1000 Ang^3
#
#
#
# Elastic Constant Matrix: (Units=GPa)
#
#
# Indices 1 2 3 4 5 6 
#
# 1 113.3357 61.7275 26.9884 0.0000 0.0000 0.0000
# 2 61.7275 144.7468 63.6875 0.0000 0.0000 0.0000
# 3 26.9884 63.6875 142.3288 0.0000 0.0000 0.0000
# 4 0.0000 0.0000 0.0000 41.0658 0.0000 0.0000
# 5 0.0000 0.0000 0.0000 0.0000 -24.6047 0.0000
# 6 0.0000 0.0000 0.0000 0.0000 0.0000 23.7443
#
#
#
# Elastic Compliance Matrix: (Units=1/GPa)
#
#
# Indices 1 2 3 4 5 6 
#
# 1 0.011493 -0.004909 0.000017 0.000000 0.000000 0.000000
# 2 -0.004909 0.010699 -0.003857 0.000000 0.000000 0.000000
# 3 0.000017 -0.003857 0.008748 0.000000 0.000000 0.000000
# 4 0.000000 0.000000 0.000000 0.024351 0.000000 0.000000
# 5 0.000000 0.000000 0.000000 0.000000 -0.040643 0.000000
# 6 0.000000 0.000000 0.000000 0.000000 0.000000 0.042115
#
#
# Mechanical properties :
#
#
# Convention : Reuss Voigt Hill
#
# Bulk Modulus (GPa) = 74.38335 78.35756 76.37045
# Shear Modulus (GPa) = 63.49925 24.57495 44.03710
#
# Velocity S-wave (km/s) = 5.15769 3.20861 4.29517
# Velocity P-wave (km/s) = 8.16275 6.82300 7.52276
#
# Compressibility (1/GPa) = 0.01344387
#
# Stress axis : x y z
#
# Youngs Moduli (GPa) = 87.01164 93.46853 114.30641
#
# Poissons Ratio (x) = 0.45881 -0.00197
# Poissons Ratio (y) = 0.42711 0.44083
# Poissons Ratio (z) = -0.00150 0.36047
#
# Static dielectric constant tensor:
#      x y z
#    x 5.133110 0.000000 0.000000 
#    y 0.000000 4.474680 0.000000 
#    z 0.000000 0.000000 4.226300 
# 
# 
# High freq. dielectric constant tensor:
#      x y z
#    x 1.967040 0.000000 0.000000 
#    y 0.000000 1.943050 0.000000 
#    z 0.000000 0.000000 1.943070 
# 
# From -- ./inp_files/24276.got.cif
#   From: 2010.03.12/outbox.cif.g09.slc.cpg/sg64_13_cif.got.tgz:24276.got - 2010.04.10 20:19:32.
