data_PCOD8264357
_publ_section_title
;
Structure prediction by ZEFSAII (Michael W. Deem and Ramdas Pophale) SiO2 
 PCOD8264357
Probable space group: C M C A
;
_chemical_formula_sum "Si O2"
_cell_formula_units_Z 48
_cell_length_a 18.315015
_cell_length_b 5.523005
_cell_length_c 17.532997
_cell_angle_alpha 90.000000
_cell_angle_beta 90.000000
_cell_angle_gamma 90.000000
_cell_volume 1773.531366
_symmetry_space_group_name_H-M "C M C A"
_symmetry_group_IT_number 64
_symmetry_cell_setting 'orthorhombic'
loop_
_space_group_symop_operation_xyz
x,y,z
-x,1/2-y,1/2+z
x,-y,-z
-x,1/2+y,1/2-z
-x,-y,-z
x,1/2+y,1/2-z
-x,y,z
x,1/2-y,1/2+z
1/2+x,1/2+y,z
1/2-x,-y,1/2+z
1/2+x,1/2-y,-z
1/2-x,y,1/2-z
1/2-x,1/2-y,-z
1/2+x,y,1/2-z
1/2-x,1/2+y,z
1/2+x,-y,1/2+z
loop_
_atom_site_type_symbol
_atom_site_label
_atom_site_fract_x
_atom_site_fract_y
_atom_site_fract_z
Si Si1 0.220134 0.132171 0.086749
Si Si2 0.580867 0.097136 0.915691
Si Si3 0.667056 0.126762 0.210023
O O1 0.259422 0.372107 0.048116
O O2 0.133240 0.164952 0.088088
O O3 0.247731 0.123582 0.177275
O O4 0.500000 0.167547 0.885542
O O5 0.618467 0.883605 0.867060
O O6 0.575083 0.000000 0.000000
O O7 0.644827 0.380221 0.246949
#
# Coordination Sequence:
#
# PCOD8264357 Si02
#       3
#    16  16  16
#     4  10  22  41  70 101 138 182 237 295 357 423
#     4  10  24  47  74 109 154 200 248 306 374 449
#     4  11  24  44  71 104 141 185 241 304 365 432
#
# _framework density 27.064648999999999
#
# number of rings (size 3 to 8) (size 9 to 14) (size 15 to 20)
#    0.000    1.667    0.000    4.000    0.000   22.667 
#    0.000   21.667    0.000   38.000    0.000    0.000 
#    0.000    0.000    0.000    0.000    0.000    0.000 
#
# Total GULP energy -297516.584862 kJ/mol
# GULP energy per Si atom -12396.524369 kJ/mol
# Density = 2.700305 g / cm^3
# Si number density = 27.064649 Si / 1000 Ang^3
#
#
#
# Elastic Constant Matrix: (Units=GPa)
#
#
# Indices 1 2 3 4 5 6 
#
# 1 106.9831 24.6666 -2.7138 0.0000 0.0000 0.0000
# 2 24.6666 242.2302 69.7371 0.0000 0.0000 0.0000
# 3 -2.7138 69.7371 98.4516 0.0000 0.0000 0.0000
# 4 0.0000 0.0000 0.0000 70.7275 0.0000 0.0000
# 5 0.0000 0.0000 0.0000 0.0000 19.3274 0.0000
# 6 0.0000 0.0000 0.0000 0.0000 0.0000 20.2431
#
#
#
# Elastic Compliance Matrix: (Units=1/GPa)
#
#
# Indices 1 2 3 4 5 6 
#
# 1 0.009686 -0.001336 0.001213 0.000000 0.000000 0.000000
# 2 -0.001336 0.005370 -0.003841 0.000000 0.000000 0.000000
# 3 0.001213 -0.003841 0.012911 0.000000 0.000000 0.000000
# 4 0.000000 0.000000 0.000000 0.014139 0.000000 0.000000
# 5 0.000000 0.000000 0.000000 0.000000 0.051740 0.000000
# 6 0.000000 0.000000 0.000000 0.000000 0.000000 0.049399
#
#
# Mechanical properties :
#
#
# Convention : Reuss Voigt Hill
#
# Bulk Modulus (GPa) = 49.89802 70.11607 60.00704
# Shear Modulus (GPa) = 31.67526 45.79129 38.73328
#
# Velocity S-wave (km/s) = 3.42476 4.11776 3.78714
# Velocity P-wave (km/s) = 5.84083 6.96929 6.42986
#
# Compressibility (1/GPa) = 0.02004087
#
# Stress axis : x y z
#
# Youngs Moduli (GPa) = 103.24201 186.21982 77.45240
#
# Poissons Ratio (x) = 0.24871 -0.09395
# Poissons Ratio (y) = 0.13789 0.29746
# Poissons Ratio (z) = -0.12524 0.71519
#
# Static dielectric constant tensor:
#      x y z
#    x 5.210540 0.000000 0.000000 
#    y 0.000000 5.090860 0.000000 
#    z 0.000000 0.000000 5.812370 
# 
# 
# High freq. dielectric constant tensor:
#      x y z
#    x 2.050430 0.000000 0.000000 
#    y 0.000000 2.107350 0.000000 
#    z 0.000000 0.000000 2.151440 
# 
# From -- ./inp_files/46066.got.cif
#   From: 2010.03.12/outbox.cif.g09.slc.cpg/sg64_24_cif.got.tgz:46066.got - 2010.04.10 20:19:32.
