data_PCOD8264445
_publ_section_title
;
Structure prediction by ZEFSAII (Michael W. Deem and Ramdas Pophale) SiO2 
 PCOD8264445
Probable space group: C M C A
;
_chemical_formula_sum "Si O2"
_cell_formula_units_Z 112
_cell_length_a 14.559242
_cell_length_b 28.293510
_cell_length_c 11.370843
_cell_angle_alpha 90.000000
_cell_angle_beta 90.000000
_cell_angle_gamma 90.000000
_cell_volume 4684.014771
_symmetry_space_group_name_H-M "C M C A"
_symmetry_group_IT_number 64
_symmetry_cell_setting 'orthorhombic'
loop_
_space_group_symop_operation_xyz
x,y,z
-x,1/2-y,1/2+z
x,-y,-z
-x,1/2+y,1/2-z
-x,-y,-z
x,1/2+y,1/2-z
-x,y,z
x,1/2-y,1/2+z
1/2+x,1/2+y,z
1/2-x,-y,1/2+z
1/2+x,1/2-y,-z
1/2-x,y,1/2-z
1/2-x,1/2-y,-z
1/2+x,y,1/2-z
1/2-x,1/2+y,z
1/2+x,-y,1/2+z
loop_
_atom_site_type_symbol
_atom_site_label
_atom_site_fract_x
_atom_site_fract_y
_atom_site_fract_z
Si Si1 0.731174 0.814750 0.408213
Si Si2 0.216439 0.910570 0.462595
Si Si3 0.837057 0.324626 0.672214
Si Si4 0.901931 0.949003 0.051593
Si Si5 0.894534 0.089080 0.313062
Si Si6 0.105312 0.480931 0.191741
Si Si7 0.395960 0.726606 0.706111
O O1 0.770034 0.867015 0.372323
O O2 0.687158 0.819549 0.535745
O O3 0.651510 0.796654 0.321008
O O4 0.824068 0.782709 0.402218
O O5 0.317635 0.923753 0.511262
O O6 0.162233 0.891440 0.576106
O O7 0.167243 0.956412 0.407721
O O8 0.750000 0.313413 0.750000
O O9 0.876945 0.376774 0.701629
O O10 0.907921 0.283365 0.711273
O O11 0.879626 0.951731 0.189952
O O12 0.000000 0.921925 0.031954
O O13 0.915948 0.000000 0.000000
O O14 0.000000 0.090164 0.348536
O O15 0.863750 0.035128 0.286037
O O16 0.000000 0.478725 0.149116
O O17 0.500000 0.705634 0.689469
#
# Coordination Sequence:
#
# PCOD8264445 Si02
#       7
#    16  16  16  16  16  16  16
#     4  11  27  48  74 114 150 191 249 308 367 455
#     4  12  24  41  69  98 143 193 238 301 365 430
#     4  12  24  49  77 107 153 188 243 311 371 454
#     4  10  23  40  61  93 134 186 242 297 357 427
#     4  11  25  44  71 109 143 187 244 301 371 442
#     4  10  23  42  66  99 142 188 245 303 362 441
#     4  11  27  50  80 110 146 197 245 307 386 449
#
# _framework density 23.911111999999999
#
# number of rings (size 3 to 8) (size 9 to 14) (size 15 to 20)
#    0.000    1.000    2.857    3.000    6.000    5.143 
#    0.000    0.000    0.000    0.857    0.000    0.000 
#    0.000    0.000    0.000    0.000    0.000    0.000 
#
# Total GULP energy -693988.227101 kJ/mol
# GULP energy per Si atom -12392.646913 kJ/mol
# Density = 2.385669 g / cm^3
# Si number density = 23.911112 Si / 1000 Ang^3
#
#
#
# Elastic Constant Matrix: (Units=GPa)
#
#
# Indices 1 2 3 4 5 6 
#
# 1 166.5404 48.5564 48.3276 0.0000 0.0000 0.0000
# 2 48.5564 145.8362 36.0456 0.0000 0.0000 0.0000
# 3 48.3276 36.0456 113.0771 0.0000 0.0000 0.0000
# 4 0.0000 0.0000 0.0000 24.8716 0.0000 0.0000
# 5 0.0000 0.0000 0.0000 0.0000 29.5713 0.0000
# 6 0.0000 0.0000 0.0000 0.0000 0.0000 23.6146
#
#
#
# Elastic Compliance Matrix: (Units=1/GPa)
#
#
# Indices 1 2 3 4 5 6 
#
# 1 0.007262 -0.001792 -0.002532 0.000000 0.000000 0.000000
# 2 -0.001792 0.007886 -0.001748 0.000000 0.000000 0.000000
# 3 -0.002532 -0.001748 0.010483 0.000000 0.000000 0.000000
# 4 0.000000 0.000000 0.000000 0.040207 0.000000 0.000000
# 5 0.000000 0.000000 0.000000 0.000000 0.033817 0.000000
# 6 0.000000 0.000000 0.000000 0.000000 0.000000 0.042347
#
#
# Mechanical properties :
#
#
# Convention : Reuss Voigt Hill
#
# Bulk Modulus (GPa) = 74.15032 76.81255 75.48143
# Shear Modulus (GPa) = 31.51790 35.11311 33.31550
#
# Velocity S-wave (km/s) = 3.63454 3.83624 3.73675
# Velocity P-wave (km/s) = 6.97792 7.19835 7.08899
#
# Compressibility (1/GPa) = 0.01348612
#
# Stress axis : x y z
#
# Youngs Moduli (GPa) = 137.70558 126.81275 95.39245
#
# Poissons Ratio (x) = 0.22724 0.24157
# Poissons Ratio (y) = 0.24676 0.16673
# Poissons Ratio (z) = 0.34873 0.22165
#
# Static dielectric constant tensor:
#      x y z
#    x 4.468270 0.000000 0.000000 
#    y 0.000000 4.745800 0.000000 
#    z 0.000000 0.000000 4.535170 
# 
# 
# High freq. dielectric constant tensor:
#      x y z
#    x 1.958080 0.000000 0.000000 
#    y 0.000000 1.954020 0.000000 
#    z 0.000000 0.000000 1.941560 
# 
# From -- ./inp_files/14960.got.cif
#   From: 2010.03.12/outbox.cif.g09.slc.cpg/sg64_8_cif.got.tgz:14960.got - 2010.04.10 20:19:32.
