data_PCOD8264299
_publ_section_title
;
Structure prediction by ZEFSAII (Michael W. Deem and Ramdas Pophale) SiO2 
 PCOD8264299
Probable space group: C M C A
;
_chemical_formula_sum "Si O2"
_cell_formula_units_Z 56
_cell_length_a 15.771224
_cell_length_b 22.148723
_cell_length_c 7.596471
_cell_angle_alpha 90.000000
_cell_angle_beta 90.000000
_cell_angle_gamma 90.000000
_cell_volume 2653.542062
_symmetry_space_group_name_H-M "C M C A"
_symmetry_group_IT_number 64
_symmetry_cell_setting 'orthorhombic'
loop_
_space_group_symop_operation_xyz
x,y,z
-x,1/2-y,1/2+z
x,-y,-z
-x,1/2+y,1/2-z
-x,-y,-z
x,1/2+y,1/2-z
-x,y,z
x,1/2-y,1/2+z
1/2+x,1/2+y,z
1/2-x,-y,1/2+z
1/2+x,1/2-y,-z
1/2-x,y,1/2-z
1/2-x,1/2-y,-z
1/2+x,y,1/2-z
1/2-x,1/2+y,z
1/2+x,-y,1/2+z
loop_
_atom_site_type_symbol
_atom_site_label
_atom_site_fract_x
_atom_site_fract_y
_atom_site_fract_z
Si Si1 0.903101 0.330284 0.726870
Si Si2 0.750000 0.372102 0.250000
Si Si3 0.197203 0.439020 0.577615
Si Si4 0.599970 0.198104 0.886719
O O1 0.870218 0.388419 0.626021
O O2 0.886352 0.270118 0.614663
O O3 0.000000 0.342166 0.757423
O O4 0.865419 0.323066 0.922933
O O5 0.743132 0.413055 0.423826
O O6 0.662744 0.332689 0.244577
O O7 0.153420 0.500000 0.500000
O O8 0.250000 0.456485 0.750000
O O9 0.500000 0.182796 0.847214
#
# Coordination Sequence:
#
# PCOD8264299 Si02
#       4
#    16   8  16  16
#     4  10  22  41  65  97 135 171 214 270 329 391
#     4  12  24  40  72  96 130 180 216 268 332 388
#     4  12  25  43  65  93 128 173 228 270 320 385
#     4  10  22  40  65 103 139 167 213 271 327 396
#
# _framework density 21.103867999999999
#
# number of rings (size 3 to 8) (size 9 to 14) (size 15 to 20)
#    0.000    1.143    4.286    1.714    2.000    6.286 
#    0.000    0.000    0.000    5.143    0.000    0.000 
#    0.000    0.000    0.000    0.000    0.000    0.000 
#
# Total GULP energy -347029.184058 kJ/mol
# GULP energy per Si atom -12393.899431 kJ/mol
# Density = 2.105583 g / cm^3
# Si number density = 21.103868 Si / 1000 Ang^3
#
#
#
# Elastic Constant Matrix: (Units=GPa)
#
#
# Indices 1 2 3 4 5 6 
#
# 1 46.9510 49.8353 35.7171 0.0000 0.0000 0.0000
# 2 49.8353 145.0969 60.8404 0.0000 0.0000 0.0000
# 3 35.7171 60.8404 122.6905 0.0000 0.0000 0.0000
# 4 0.0000 0.0000 0.0000 47.8288 0.0000 0.0000
# 5 0.0000 0.0000 0.0000 0.0000 31.1566 0.0000
# 6 0.0000 0.0000 0.0000 0.0000 0.0000 9.8666
#
#
#
# Elastic Compliance Matrix: (Units=1/GPa)
#
#
# Indices 1 2 3 4 5 6 
#
# 1 0.036266 -0.010137 -0.005531 0.000000 0.000000 0.000000
# 2 -0.010137 0.011535 -0.002769 0.000000 0.000000 0.000000
# 3 -0.005531 -0.002769 0.011134 0.000000 0.000000 0.000000
# 4 0.000000 0.000000 0.000000 0.020908 0.000000 0.000000
# 5 0.000000 0.000000 0.000000 0.000000 0.032096 0.000000
# 6 0.000000 0.000000 0.000000 0.000000 0.000000 0.101352
#
#
# Mechanical properties :
#
#
# Convention : Reuss Voigt Hill
#
# Bulk Modulus (GPa) = 45.32863 67.50266 56.41564
# Shear Modulus (GPa) = 19.41623 28.99344 24.20484
#
# Velocity S-wave (km/s) = 3.03649 3.71056 3.39032
# Velocity P-wave (km/s) = 5.81543 7.10022 6.48969
#
# Compressibility (1/GPa) = 0.02206111
#
# Stress axis : x y z
#
# Youngs Moduli (GPa) = 27.57423 86.69612 89.81718
#
# Poissons Ratio (x) = 0.87882 0.49676
# Poissons Ratio (y) = 0.27951 0.24869
# Poissons Ratio (z) = 0.15251 0.24005
#
# Static dielectric constant tensor:
#      x y z
#    x 3.544700 0.000000 0.000000 
#    y 0.000000 3.879530 0.000000 
#    z 0.000000 0.000000 -4.161080 
# 
# 
# High freq. dielectric constant tensor:
#      x y z
#    x 1.803140 0.000000 0.000000 
#    y 0.000000 1.827530 0.000000 
#    z 0.000000 0.000000 1.849910 
# 
# From -- ./inp_files/5505.got.cif
#   From: 2010.03.12/outbox.cif.g09.slc.cpg/sg64_3_cif.got.tgz:5505.got - 2010.04.10 20:19:32.
