data_PCOD8264147
_publ_section_title
;
Structure prediction by ZEFSAII (Michael W. Deem and Ramdas Pophale) SiO2 
 PCOD8264147
Probable space group: C M C A
;
_chemical_formula_sum "Si O2"
_cell_formula_units_Z 96
_cell_length_a 21.248818
_cell_length_b 24.668662
_cell_length_c 9.075030
_cell_angle_alpha 90.000000
_cell_angle_beta 90.000000
_cell_angle_gamma 90.000000
_cell_volume 4756.948401
_symmetry_space_group_name_H-M "C M C A"
_symmetry_group_IT_number 64
_symmetry_cell_setting 'orthorhombic'
loop_
_space_group_symop_operation_xyz
x,y,z
-x,1/2-y,1/2+z
x,-y,-z
-x,1/2+y,1/2-z
-x,-y,-z
x,1/2+y,1/2-z
-x,y,z
x,1/2-y,1/2+z
1/2+x,1/2+y,z
1/2-x,-y,1/2+z
1/2+x,1/2-y,-z
1/2-x,y,1/2-z
1/2-x,1/2-y,-z
1/2+x,y,1/2-z
1/2-x,1/2+y,z
1/2+x,-y,1/2+z
loop_
_atom_site_type_symbol
_atom_site_label
_atom_site_fract_x
_atom_site_fract_y
_atom_site_fract_z
Si Si1 0.813753 0.216808 0.995582
Si Si2 0.740331 0.875052 0.903006
Si Si3 0.119157 0.361093 0.305578
Si Si4 0.500000 0.294221 0.699163
Si Si5 0.000000 0.819355 0.045358
Si Si6 0.614530 0.680386 0.492741
Si Si7 0.707810 0.955549 0.381621
O O1 0.800250 0.166698 0.105152
O O2 0.750000 0.250000 0.000000
O O3 0.829531 0.186817 0.839234
O O4 0.871985 0.256192 0.037590
O O5 0.750000 0.907476 0.750000
O O6 0.675299 0.843545 0.914035
O O7 0.743347 0.915266 0.039327
O O8 0.061535 0.355532 0.420487
O O9 0.147896 0.421473 0.323667
O O10 0.095648 0.353057 0.138292
O O11 0.500000 0.230996 0.658261
O O12 0.559976 0.323596 0.627404
O O13 0.500000 0.300693 0.875295
O O14 0.750000 0.981154 0.250000
O O15 0.684241 0.000000 0.500000
#
# Coordination Sequence:
#
# PCOD8264147 Si02
#       7
#    16  16  16   8   8  16  16
#     4   9  21  30  55  86 129 164 206 253 310 373
#     4  10  22  35  59  94 128 162 207 256 324 388
#     4  11  23  41  63  91 129 174 220 270 319 383
#     4  12  26  38  60  87 130 191 225 264 302 369
#     4  12  26  42  59  91 134 181 234 263 313 378
#     4  11  22  38  58  87 130 173 222 253 307 376
#     4  11  23  45  69  99 125 159 207 274 344 394
#
# _framework density 20.181004000000001
#
# number of rings (size 3 to 8) (size 9 to 14) (size 15 to 20)
#    0.000    1.333    3.333    2.000    9.333    0.000 
#    0.000    0.417    0.000    0.000    0.000    2.333 
#    0.000    0.000    0.000    0.000    0.000    0.000 
#
# Total GULP energy -594751.206623 kJ/mol
# GULP energy per Si atom -12390.650138 kJ/mol
# Density = 2.013507 g / cm^3
# Si number density = 20.181004 Si / 1000 Ang^3
#
#
#
# Elastic Constant Matrix: (Units=GPa)
#
#
# Indices 1 2 3 4 5 6 
#
# 1 88.1538 24.2779 41.8787 0.0000 0.0000 0.0000
# 2 24.2779 76.7749 30.8007 0.0000 0.0000 0.0000
# 3 41.8787 30.8007 130.8028 0.0000 0.0000 0.0000
# 4 0.0000 0.0000 0.0000 25.7522 0.0000 0.0000
# 5 0.0000 0.0000 0.0000 0.0000 32.3463 0.0000
# 6 0.0000 0.0000 0.0000 0.0000 0.0000 17.0868
#
#
#
# Elastic Compliance Matrix: (Units=1/GPa)
#
#
# Indices 1 2 3 4 5 6 
#
# 1 0.013936 -0.002890 -0.003781 0.000000 0.000000 0.000000
# 2 -0.002890 0.014983 -0.002603 0.000000 0.000000 0.000000
# 3 -0.003781 -0.002603 0.009469 0.000000 0.000000 0.000000
# 4 0.000000 0.000000 0.000000 0.038832 0.000000 0.000000
# 5 0.000000 0.000000 0.000000 0.000000 0.030915 0.000000
# 6 0.000000 0.000000 0.000000 0.000000 0.000000 0.058525
#
#
# Mechanical properties :
#
#
# Convention : Reuss Voigt Hill
#
# Bulk Modulus (GPa) = 50.40420 54.40513 52.40467
# Shear Modulus (GPa) = 26.06594 28.28868 27.17731
#
# Velocity S-wave (km/s) = 3.59779 3.74805 3.67369
# Velocity P-wave (km/s) = 6.50301 6.76370 6.63463
#
# Compressibility (1/GPa) = 0.01983961
#
# Stress axis : x y z
#
# Youngs Moduli (GPa) = 71.75608 66.74151 105.61125
#
# Poissons Ratio (x) = 0.19287 0.39936
# Poissons Ratio (y) = 0.20737 0.27490
# Poissons Ratio (z) = 0.27134 0.17372
#
# Static dielectric constant tensor:
#      x y z
#    x 3.768800 0.000000 0.000000 
#    y 0.000000 3.529540 0.000000 
#    z 0.000000 0.000000 3.660300 
# 
# 
# High freq. dielectric constant tensor:
#      x y z
#    x 1.781350 0.000000 0.000000 
#    y 0.000000 1.756070 0.000000 
#    z 0.000000 0.000000 1.797080 
# 
# From -- ./inp_files/9565.got.cif
#   From: 2010.03.12/outbox.cif.g09.slc.cpg/sg64_5_cif.got.tgz:9565.got - 2010.04.10 20:19:32.
