data_PCOD8264557
_publ_section_title
;
Structure prediction by ZEFSAII (Michael W. Deem and Ramdas Pophale) SiO2 
 PCOD8264557
Probable space group: C M C A
;
_chemical_formula_sum "Si O2"
_cell_formula_units_Z 112
_cell_length_a 28.093847
_cell_length_b 13.391206
_cell_length_c 14.186872
_cell_angle_alpha 90.000000
_cell_angle_beta 90.000000
_cell_angle_gamma 90.000000
_cell_volume 5337.250102
_symmetry_space_group_name_H-M "C M C A"
_symmetry_group_IT_number 64
_symmetry_cell_setting 'orthorhombic'
loop_
_space_group_symop_operation_xyz
x,y,z
-x,1/2-y,1/2+z
x,-y,-z
-x,1/2+y,1/2-z
-x,-y,-z
x,1/2+y,1/2-z
-x,y,z
x,1/2-y,1/2+z
1/2+x,1/2+y,z
1/2-x,-y,1/2+z
1/2+x,1/2-y,-z
1/2-x,y,1/2-z
1/2-x,1/2-y,-z
1/2+x,y,1/2-z
1/2-x,1/2+y,z
1/2+x,-y,1/2+z
loop_
_atom_site_type_symbol
_atom_site_label
_atom_site_fract_x
_atom_site_fract_y
_atom_site_fract_z
Si Si1 0.446410 0.581960 0.861205
Si Si2 0.446567 0.367749 0.920655
Si Si3 0.857595 0.676563 0.719541
Si Si4 0.140495 0.267367 0.072699
Si Si5 0.301963 0.507073 0.240517
Si Si6 0.320391 0.855032 0.905094
Si Si7 0.284847 0.605184 0.055658
O O1 0.500000 0.596619 0.822732
O O2 0.432063 0.463886 0.856041
O O3 0.413648 0.658520 0.801475
O O4 0.443639 0.607959 0.970125
O O5 0.500000 0.334176 0.893633
O O6 0.411197 0.276395 0.902420
O O7 0.842695 0.688122 0.828627
O O8 0.835053 0.572091 0.688712
O O9 0.833472 0.764087 0.662462
O O10 0.175207 0.184599 0.022844
O O11 0.141611 0.354921 0.992479
O O12 0.250000 0.456990 0.250000
O O13 0.323056 0.545307 0.340858
O O14 0.296422 0.597262 0.166953
O O15 0.267969 0.848345 0.952661
O O16 0.289060 0.500000 0.000000
#
# Coordination Sequence:
#
# PCOD8264557 Si02
#       7
#    16  16  16  16  16  16  16
#     4   9  19  38  64  92 124 159 204 264 325 374
#     4   9  19  38  63  91 122 160 207 261 319 379
#     4  12  24  39  66  93 126 166 212 267 316 382
#     4  12  24  36  66  94 123 170 213 262 315 385
#     4  10  24  40  61  83 129 169 207 259 311 371
#     4  11  25  43  56  92 131 166 215 257 315 383
#     4  11  24  41  63  90 123 173 218 259 313 371
#
# _framework density 20.984587999999999
#
# number of rings (size 3 to 8) (size 9 to 14) (size 15 to 20)
#    0.000    1.429    2.857    3.000    8.000    0.571 
#    0.000    0.000    0.000    0.857    0.000    2.000 
#    0.000    0.000    0.000    0.000    0.000    0.000 
#
# Total GULP energy -693905.953264 kJ/mol
# GULP energy per Si atom -12391.177737 kJ/mol
# Density = 2.093683 g / cm^3
# Si number density = 20.984588 Si / 1000 Ang^3
#
#
#
# Elastic Constant Matrix: (Units=GPa)
#
#
# Indices 1 2 3 4 5 6 
#
# 1 87.2253 47.6094 13.8724 0.0000 0.0000 0.0000
# 2 47.6094 59.1202 21.6194 0.0000 0.0000 0.0000
# 3 13.8724 21.6194 92.7939 0.0000 0.0000 0.0000
# 4 0.0000 0.0000 0.0000 22.6158 0.0000 0.0000
# 5 0.0000 0.0000 0.0000 0.0000 22.8826 0.0000
# 6 0.0000 0.0000 0.0000 0.0000 0.0000 37.6755
#
#
#
# Elastic Compliance Matrix: (Units=1/GPa)
#
#
# Indices 1 2 3 4 5 6 
#
# 1 0.020518 -0.016836 0.000855 0.000000 0.000000 0.000000
# 2 -0.016836 0.032304 -0.005009 0.000000 0.000000 0.000000
# 3 0.000855 -0.005009 0.011816 0.000000 0.000000 0.000000
# 4 0.000000 0.000000 0.000000 0.044217 0.000000 0.000000
# 5 0.000000 0.000000 0.000000 0.000000 0.043701 0.000000
# 6 0.000000 0.000000 0.000000 0.000000 0.000000 0.026542
#
#
# Mechanical properties :
#
#
# Convention : Reuss Voigt Hill
#
# Bulk Modulus (GPa) = 44.13476 45.03797 44.58636
# Shear Modulus (GPa) = 21.86926 27.03732 24.45329
#
# Velocity S-wave (km/s) = 3.23175 3.59337 3.41735
# Velocity P-wave (km/s) = 5.91636 6.22298 6.07160
#
# Compressibility (1/GPa) = 0.02265788
#
# Stress axis : x y z
#
# Youngs Moduli (GPa) = 48.73810 30.95564 84.63205
#
# Poissons Ratio (x) = 0.52116 -0.07237
# Poissons Ratio (y) = 0.82054 0.42396
# Poissons Ratio (z) = -0.04167 0.15507
#
# Static dielectric constant tensor:
#      x y z
#    x 4.013300 0.000000 0.000000 
#    y 0.000000 3.742870 0.000000 
#    z 0.000000 0.000000 3.853170 
# 
# 
# High freq. dielectric constant tensor:
#      x y z
#    x 1.813240 0.000000 0.000000 
#    y 0.000000 1.807890 0.000000 
#    z 0.000000 0.000000 1.822610 
# 
# From -- ./inp_files/28369.got.cif
#   From: 2010.03.12/outbox.cif.g09.slc.cpg/sg64_15_cif.got.tgz:28369.got - 2010.04.10 20:19:32.
