data_PCOD8264605
_publ_section_title
;
Structure prediction by ZEFSAII (Michael W. Deem and Ramdas Pophale) SiO2 
 PCOD8264605
Probable space group: C M C A
;
_chemical_formula_sum "Si O2"
_cell_formula_units_Z 64
_cell_length_a 30.337495
_cell_length_b 17.489267
_cell_length_c 4.993636
_cell_angle_alpha 90.000000
_cell_angle_beta 90.000000
_cell_angle_gamma 90.000000
_cell_volume 2649.526136
_symmetry_space_group_name_H-M "C M C A"
_symmetry_group_IT_number 64
_symmetry_cell_setting 'orthorhombic'
loop_
_space_group_symop_operation_xyz
x,y,z
-x,1/2-y,1/2+z
x,-y,-z
-x,1/2+y,1/2-z
-x,-y,-z
x,1/2+y,1/2-z
-x,y,z
x,1/2-y,1/2+z
1/2+x,1/2+y,z
1/2-x,-y,1/2+z
1/2+x,1/2-y,-z
1/2-x,y,1/2-z
1/2-x,1/2-y,-z
1/2+x,y,1/2-z
1/2-x,1/2+y,z
1/2+x,-y,1/2+z
loop_
_atom_site_type_symbol
_atom_site_label
_atom_site_fract_x
_atom_site_fract_y
_atom_site_fract_z
Si Si1 0.300817 0.699425 0.727020
Si Si2 0.365226 0.913374 0.472496
Si Si3 0.897213 0.196786 0.364488
Si Si4 0.049378 0.416909 0.123714
O O1 0.312447 0.732361 0.434344
O O2 0.250000 0.675400 0.750000
O O3 0.330378 0.624979 0.770091
O O4 0.364257 0.870909 0.762148
O O5 0.414964 0.906208 0.358571
O O6 0.349720 0.000000 0.500000
O O7 0.890896 0.232570 0.661527
O O8 0.943571 0.150594 0.400089
O O9 0.000000 0.409705 0.241415
O O10 0.057041 0.500000 0.000000
#
# Coordination Sequence:
#
# PCOD8264605 Si02
#       4
#    16  16  16  16
#     4  10  24  47  75 108 145 188 235 293 369 440
#     4  12  25  44  76 109 145 196 248 304 365 442
#     4  12  25  44  68 102 140 183 239 304 364 425
#     4  11  26  47  70 102 146 197 247 301 366 433
#
# _framework density 24.155263000000001
#
# number of rings (size 3 to 8) (size 9 to 14) (size 15 to 20)
#    0.000    0.750    5.000    1.500    3.500    2.500 
#    0.000    5.000    0.000    0.000    0.000    0.000 
#    0.000    0.000    0.000    0.000    0.000    0.000 
#
# Total GULP energy -396429.248531 kJ/mol
# GULP energy per Si atom -12388.414017 kJ/mol
# Density = 2.410029 g / cm^3
# Si number density = 24.155263 Si / 1000 Ang^3
#
#
#
# Elastic Constant Matrix: (Units=GPa)
#
#
# Indices 1 2 3 4 5 6 
#
# 1 140.3038 69.9900 51.5730 0.0000 0.0000 0.0000
# 2 69.9900 186.6241 56.4511 0.0000 0.0000 0.0000
# 3 51.5730 56.4511 124.5648 0.0000 0.0000 0.0000
# 4 0.0000 0.0000 0.0000 37.1098 0.0000 0.0000
# 5 0.0000 0.0000 0.0000 0.0000 33.2390 0.0000
# 6 0.0000 0.0000 0.0000 0.0000 0.0000 26.4238
#
#
#
# Elastic Compliance Matrix: (Units=1/GPa)
#
#
# Indices 1 2 3 4 5 6 
#
# 1 0.009483 -0.002745 -0.002682 0.000000 0.000000 0.000000
# 2 -0.002745 0.007004 -0.002038 0.000000 0.000000 0.000000
# 3 -0.002682 -0.002038 0.010062 0.000000 0.000000 0.000000
# 4 0.000000 0.000000 0.000000 0.026947 0.000000 0.000000
# 5 0.000000 0.000000 0.000000 0.000000 0.030085 0.000000
# 6 0.000000 0.000000 0.000000 0.000000 0.000000 0.037845
#
#
# Mechanical properties :
#
#
# Convention : Reuss Voigt Hill
#
# Bulk Modulus (GPa) = 86.06486 89.72455 87.89470
# Shear Modulus (GPa) = 35.65620 37.58642 36.62131
#
# Velocity S-wave (km/s) = 3.84621 3.94894 3.89791
# Velocity P-wave (km/s) = 7.44524 7.61694 7.53158
#
# Compressibility (1/GPa) = 0.01161914
#
# Stress axis : x y z
#
# Youngs Moduli (GPa) = 105.45647 142.77140 99.38537
#
# Poissons Ratio (x) = 0.39191 0.26656
# Poissons Ratio (y) = 0.28948 0.20252
# Poissons Ratio (z) = 0.28284 0.29093
#
# Static dielectric constant tensor:
#      x y z
#    x 4.679070 0.000000 0.000000 
#    y 0.000000 4.778240 0.000000 
#    z 0.000000 0.000000 4.515240 
# 
# 
# High freq. dielectric constant tensor:
#      x y z
#    x 1.954930 0.000000 0.000000 
#    y 0.000000 1.975210 0.000000 
#    z 0.000000 0.000000 1.968570 
# 
# From -- ./inp_files/3158.got.cif
#   From: 2010.03.12/outbox.cif.g09.slc.cpg/sg64_2_cif.got.tgz:3158.got - 2010.04.10 20:19:32.
