data_PCOD8264875
_publ_section_title
;
Structure prediction by ZEFSAII (Michael W. Deem and Ramdas Pophale) SiO2 
 PCOD8264875
Probable space group: C M C A
;
_chemical_formula_sum "Si O2"
_cell_formula_units_Z 64
_cell_length_a 13.755104
_cell_length_b 15.580350
_cell_length_c 12.995891
_cell_angle_alpha 90.000000
_cell_angle_beta 90.000000
_cell_angle_gamma 90.000000
_cell_volume 2785.140753
_symmetry_space_group_name_H-M "C M C A"
_symmetry_group_IT_number 64
_symmetry_cell_setting 'orthorhombic'
loop_
_space_group_symop_operation_xyz
x,y,z
-x,1/2-y,1/2+z
x,-y,-z
-x,1/2+y,1/2-z
-x,-y,-z
x,1/2+y,1/2-z
-x,y,z
x,1/2-y,1/2+z
1/2+x,1/2+y,z
1/2-x,-y,1/2+z
1/2+x,1/2-y,-z
1/2-x,y,1/2-z
1/2-x,1/2-y,-z
1/2+x,y,1/2-z
1/2-x,1/2+y,z
1/2+x,-y,1/2+z
loop_
_atom_site_type_symbol
_atom_site_label
_atom_site_fract_x
_atom_site_fract_y
_atom_site_fract_z
Si Si1 0.695182 0.375774 0.941159
Si Si2 0.000000 0.945203 0.340484
Si Si3 0.296391 0.785700 0.352125
Si Si4 0.151963 0.500000 0.000000
Si Si5 0.000000 0.588178 0.337577
Si Si6 0.500000 0.762339 0.269675
O O1 0.718651 0.288361 0.880548
O O2 0.784487 0.439759 0.925798
O O3 0.597540 0.424620 0.904802
O O4 0.691045 0.358390 0.062891
O O5 0.000000 0.856900 0.278856
O O6 0.908925 0.945823 0.417351
O O7 0.000000 0.025820 0.261438
O O8 0.250000 0.828871 0.250000
O O9 0.404189 0.747501 0.338052
O O10 0.000000 0.689112 0.314980
#
# Coordination Sequence:
#
# PCOD8264875 Si02
#       6
#    16   8  16   8   8   8
#     4  11  26  44  74 104 145 187 247 301 368 441
#     4  11  28  46  73 106 146 197 247 300 380 431
#     4  11  23  44  70 106 137 192 238 295 368 442
#     4  11  26  47  68 102 150 191 244 313 362 448
#     4  12  26  49  72 110 147 193 243 310 368 441
#     4  12  24  44  73 101 144 186 238 296 361 430
#
# _framework density 22.979089999999999
#
# number of rings (size 3 to 8) (size 9 to 14) (size 15 to 20)
#    0.000    0.750    2.500    3.750    7.000    1.500 
#    0.000    0.000    0.000    0.000    0.000    0.000 
#    0.000    0.000    0.000    0.000    0.000    0.000 
#
# Total GULP energy -396792.037156 kJ/mol
# GULP energy per Si atom -12399.751161 kJ/mol
# Density = 2.292679 g / cm^3
# Si number density = 22.979090 Si / 1000 Ang^3
#
#
#
# Elastic Constant Matrix: (Units=GPa)
#
#
# Indices 1 2 3 4 5 6 
#
# 1 160.6596 19.5561 49.7877 0.0000 0.0000 0.0000
# 2 19.5561 90.8975 25.2520 0.0000 0.0000 0.0000
# 3 49.7877 25.2520 112.1237 0.0000 0.0000 0.0000
# 4 0.0000 0.0000 0.0000 31.1188 0.0000 0.0000
# 5 0.0000 0.0000 0.0000 0.0000 39.5966 0.0000
# 6 0.0000 0.0000 0.0000 0.0000 0.0000 29.4326
#
#
#
# Elastic Compliance Matrix: (Units=1/GPa)
#
#
# Indices 1 2 3 4 5 6 
#
# 1 0.007260 -0.000711 -0.003064 0.000000 0.000000 0.000000
# 2 -0.000711 0.011805 -0.002343 0.000000 0.000000 0.000000
# 3 -0.003064 -0.002343 0.010807 0.000000 0.000000 0.000000
# 4 0.000000 0.000000 0.000000 0.032135 0.000000 0.000000
# 5 0.000000 0.000000 0.000000 0.000000 0.025255 0.000000
# 6 0.000000 0.000000 0.000000 0.000000 0.000000 0.033976
#
#
# Mechanical properties :
#
#
# Convention : Reuss Voigt Hill
#
# Bulk Modulus (GPa) = 56.69902 61.43026 59.06464
# Shear Modulus (GPa) = 35.88025 37.96861 36.92443
#
# Velocity S-wave (km/s) = 3.95578 4.06927 4.01293
# Velocity P-wave (km/s) = 6.75219 6.99069 6.87247
#
# Compressibility (1/GPa) = 0.01763699
#
# Stress axis : x y z
#
# Youngs Moduli (GPa) = 137.73478 84.70795 92.53367
#
# Poissons Ratio (x) = 0.06022 0.28350
# Poissons Ratio (y) = 0.09791 0.21681
# Poissons Ratio (z) = 0.42199 0.19848
#
# Static dielectric constant tensor:
#      x y z
#    x 4.620910 0.000000 0.000000 
#    y 0.000000 3.881610 0.000000 
#    z 0.000000 0.000000 4.111160 
# 
# 
# High freq. dielectric constant tensor:
#      x y z
#    x 1.933400 0.000000 0.000000 
#    y 0.000000 1.896650 0.000000 
#    z 0.000000 0.000000 1.910510 
# 
# From -- ./inp_files/14097.got.cif
#   From: 2010.03.12/outbox.cif.g09.slc.cpg/sg64_8_cif.got.tgz:14097.got - 2010.04.10 20:19:32.
