data_PCOD8264412
_publ_section_title
;
Structure prediction by ZEFSAII (Michael W. Deem and Ramdas Pophale) SiO2 
 PCOD8264412
Probable space group: C M C A
;
_chemical_formula_sum "Si O2"
_cell_formula_units_Z 56
_cell_length_a 20.166841
_cell_length_b 7.628282
_cell_length_c 15.718133
_cell_angle_alpha 90.000000
_cell_angle_beta 90.000000
_cell_angle_gamma 90.000000
_cell_volume 2418.051649
_symmetry_space_group_name_H-M "C M C A"
_symmetry_group_IT_number 64
_symmetry_cell_setting 'orthorhombic'
loop_
_space_group_symop_operation_xyz
x,y,z
-x,1/2-y,1/2+z
x,-y,-z
-x,1/2+y,1/2-z
-x,-y,-z
x,1/2+y,1/2-z
-x,y,z
x,1/2-y,1/2+z
1/2+x,1/2+y,z
1/2-x,-y,1/2+z
1/2+x,1/2-y,-z
1/2-x,y,1/2-z
1/2-x,1/2-y,-z
1/2+x,y,1/2-z
1/2-x,1/2+y,z
1/2+x,-y,1/2+z
loop_
_atom_site_type_symbol
_atom_site_label
_atom_site_fract_x
_atom_site_fract_y
_atom_site_fract_z
Si Si1 0.926529 0.191899 0.351580
Si Si2 0.668561 0.507562 0.905724
Si Si3 0.615775 0.804007 0.178551
Si Si4 0.750000 0.089963 0.750000
O O1 0.873858 0.314332 0.399208
O O2 0.934606 0.244947 0.252341
O O3 0.000000 0.207661 0.392532
O O4 0.901899 0.991406 0.360544
O O5 0.617656 0.343865 0.894591
O O6 0.727515 0.485493 0.835819
O O7 0.700363 0.500000 0.000000
O O8 0.687084 0.795145 0.225126
#
# Coordination Sequence:
#
# PCOD8264412 Si02
#       4
#    16  16  16   8
#     4  11  23  41  68  98 131 181 233 278 333 402
#     4  11  26  44  67 103 138 180 225 284 346 400
#     4  11  22  39  68  97 130 175 230 278 341 401
#     4  10  22  44  68  98 134 176 226 278 342 414
#
# _framework density 23.159140000000001
#
# number of rings (size 3 to 8) (size 9 to 14) (size 15 to 20)
#    0.000    1.143    5.714    1.714    4.000    4.000 
#    0.000    1.429    0.000    0.000    0.000    0.000 
#    0.000    0.000    0.000    0.000    0.000    0.000 
#
# Total GULP energy -346926.619563 kJ/mol
# GULP energy per Si atom -12390.236413 kJ/mol
# Density = 2.310643 g / cm^3
# Si number density = 23.159140 Si / 1000 Ang^3
#
#
#
# Elastic Constant Matrix: (Units=GPa)
#
#
# Indices 1 2 3 4 5 6 
#
# 1 89.9655 0.9701 9.3672 0.0000 0.0000 0.0000
# 2 0.9701 140.1003 22.0890 0.0000 0.0000 0.0000
# 3 9.3672 22.0890 140.6635 0.0000 0.0000 0.0000
# 4 0.0000 0.0000 0.0000 17.1484 0.0000 0.0000
# 5 0.0000 0.0000 0.0000 0.0000 20.9025 0.0000
# 6 0.0000 0.0000 0.0000 0.0000 0.0000 7.8184
#
#
#
# Elastic Compliance Matrix: (Units=1/GPa)
#
#
# Indices 1 2 3 4 5 6 
#
# 1 0.011193 0.000041 -0.000752 0.000000 0.000000 0.000000
# 2 0.000041 0.007319 -0.001152 0.000000 0.000000 0.000000
# 3 -0.000752 -0.001152 0.007340 0.000000 0.000000 0.000000
# 4 0.000000 0.000000 0.000000 0.058315 0.000000 0.000000
# 5 0.000000 0.000000 0.000000 0.000000 0.047841 0.000000
# 6 0.000000 0.000000 0.000000 0.000000 0.000000 0.127904
#
#
# Mechanical properties :
#
#
# Convention : Reuss Voigt Hill
#
# Bulk Modulus (GPa) = 45.19427 48.39799 46.79613
# Shear Modulus (GPa) = 18.44926 31.72739 25.08832
#
# Velocity S-wave (km/s) = 2.82553 3.70533 3.29492
# Velocity P-wave (km/s) = 5.49562 6.26493 5.89284
#
# Compressibility (1/GPa) = 0.02212670
#
# Stress axis : x y z
#
# Youngs Moduli (GPa) = 89.33984 136.62878 136.23702
#
# Poissons Ratio (x) = -0.00561 0.10243
# Poissons Ratio (y) = -0.00367 0.15696
# Poissons Ratio (z) = 0.06717 0.15741
#
# Static dielectric constant tensor:
#      x y z
#    x 4.056180 0.000000 0.000000 
#    y 0.000000 4.132090 0.000000 
#    z 0.000000 0.000000 3.846290 
# 
# 
# High freq. dielectric constant tensor:
#      x y z
#    x 1.903880 0.000000 0.000000 
#    y 0.000000 1.931610 0.000000 
#    z 0.000000 0.000000 1.881780 
# 
# From -- ./inp_files/32681.got.cif
#   From: 2010.03.12/outbox.cif.g09.slc.cpg/sg64_17_cif.got.tgz:32681.got - 2010.04.10 20:19:32.
