data_PCOD8264550
_publ_section_title
;
Structure prediction by ZEFSAII (Michael W. Deem and Ramdas Pophale) SiO2 
 PCOD8264550
Probable space group: C M C A
;
_chemical_formula_sum "Si O2"
_cell_formula_units_Z 56
_cell_length_a 28.461612
_cell_length_b 8.896419
_cell_length_c 10.779318
_cell_angle_alpha 90.000000
_cell_angle_beta 90.000000
_cell_angle_gamma 90.000000
_cell_volume 2729.392583
_symmetry_space_group_name_H-M "C M C A"
_symmetry_group_IT_number 64
_symmetry_cell_setting 'orthorhombic'
loop_
_space_group_symop_operation_xyz
x,y,z
-x,1/2-y,1/2+z
x,-y,-z
-x,1/2+y,1/2-z
-x,-y,-z
x,1/2+y,1/2-z
-x,y,z
x,1/2-y,1/2+z
1/2+x,1/2+y,z
1/2-x,-y,1/2+z
1/2+x,1/2-y,-z
1/2-x,y,1/2-z
1/2-x,1/2-y,-z
1/2+x,y,1/2-z
1/2-x,1/2+y,z
1/2+x,-y,1/2+z
loop_
_atom_site_type_symbol
_atom_site_label
_atom_site_fract_x
_atom_site_fract_y
_atom_site_fract_z
Si Si1 0.945981 0.827788 0.633920
Si Si2 0.250000 0.328738 0.750000
Si Si3 0.589424 0.844365 0.129395
Si Si4 0.197819 0.426002 0.125243
O O1 0.923748 0.767617 0.503566
O O2 0.919620 0.761670 0.753535
O O3 0.000000 0.778664 0.638531
O O4 0.941969 0.007095 0.642553
O O5 0.206093 0.438240 0.778081
O O6 0.230645 0.219675 0.642513
O O7 0.643747 0.884379 0.126796
O O8 0.215172 0.500000 0.000000
#
# Coordination Sequence:
#
# PCOD8264550 Si02
#       4
#    16   8  16  16
#     4  11  22  41  63  92 123 164 207 258 315 369
#     4  10  24  38  64  90 124 162 202 262 304 376
#     4  11  23  40  65  90 128 163 207 261 307 376
#     4  11  21  41  61  91 124 160 209 250 315 363
#
# _framework density 20.517385999999998
#
# number of rings (size 3 to 8) (size 9 to 14) (size 15 to 20)
#    0.000    1.143    2.857    6.000    0.000    1.143 
#    0.000    2.857    0.000    0.000    0.000    0.000 
#    0.000    0.000    0.000    0.000    0.000    0.000 
#
# Total GULP energy -347044.322368 kJ/mol
# GULP energy per Si atom -12394.440085 kJ/mol
# Density = 2.047069 g / cm^3
# Si number density = 20.517386 Si / 1000 Ang^3
#
#
#
# Elastic Constant Matrix: (Units=GPa)
#
#
# Indices 1 2 3 4 5 6 
#
# 1 87.8504 8.1880 5.1991 0.0000 0.0000 0.0000
# 2 8.1880 69.1617 33.9646 0.0000 0.0000 0.0000
# 3 5.1991 33.9646 137.7222 0.0000 0.0000 0.0000
# 4 0.0000 0.0000 0.0000 36.9485 0.0000 0.0000
# 5 0.0000 0.0000 0.0000 0.0000 33.9450 0.0000
# 6 0.0000 0.0000 0.0000 0.0000 0.0000 46.9644
#
#
#
# Elastic Compliance Matrix: (Units=1/GPa)
#
#
# Indices 1 2 3 4 5 6 
#
# 1 0.011512 -0.001308 -0.000112 0.000000 0.000000 0.000000
# 2 -0.001308 0.016600 -0.004044 0.000000 0.000000 0.000000
# 3 -0.000112 -0.004044 0.008263 0.000000 0.000000 0.000000
# 4 0.000000 0.000000 0.000000 0.027065 0.000000 0.000000
# 5 0.000000 0.000000 0.000000 0.000000 0.029459 0.000000
# 6 0.000000 0.000000 0.000000 0.000000 0.000000 0.021293
#
#
# Mechanical properties :
#
#
# Convention : Reuss Voigt Hill
#
# Bulk Modulus (GPa) = 39.29975 43.27085 41.28530
# Shear Modulus (GPa) = 37.42478 40.06374 38.74426
#
# Velocity S-wave (km/s) = 4.27553 4.42370 4.35024
# Velocity P-wave (km/s) = 6.60072 6.87225 6.73785
#
# Compressibility (1/GPa) = 0.02544545
#
# Stress axis : x y z
#
# Youngs Moduli (GPa) = 86.86959 60.24138 121.02657
#
# Poissons Ratio (x) = 0.07879 0.01356
# Poissons Ratio (y) = 0.11361 0.48948
# Poissons Ratio (z) = 0.00973 0.24364
#
# Static dielectric constant tensor:
#      x y z
#    x 3.654460 0.000000 0.000000 
#    y 0.000000 3.791500 0.000000 
#    z 0.000000 0.000000 4.259720 
# 
# 
# High freq. dielectric constant tensor:
#      x y z
#    x 1.811960 0.000000 0.000000 
#    y 0.000000 1.796500 0.000000 
#    z 0.000000 0.000000 1.811230 
# 
# From -- ./inp_files/19450.got.cif
#   From: 2010.03.12/outbox.cif.g09.slc.cpg/sg64_10_cif.got.tgz:19450.got - 2010.04.10 20:19:32.
