data_PCOD8264263
_publ_section_title
;
Structure prediction by ZEFSAII (Michael W. Deem and Ramdas Pophale) SiO2 
 PCOD8264263
Probable space group: C M C A
;
_chemical_formula_sum "Si O2"
_cell_formula_units_Z 48
_cell_length_a 15.574766
_cell_length_b 26.790170
_cell_length_c 5.073975
_cell_angle_alpha 90.000000
_cell_angle_beta 90.000000
_cell_angle_gamma 90.000000
_cell_volume 2117.119260
_symmetry_space_group_name_H-M "C M C A"
_symmetry_group_IT_number 64
_symmetry_cell_setting 'orthorhombic'
loop_
_space_group_symop_operation_xyz
x,y,z
-x,1/2-y,1/2+z
x,-y,-z
-x,1/2+y,1/2-z
-x,-y,-z
x,1/2+y,1/2-z
-x,y,z
x,1/2-y,1/2+z
1/2+x,1/2+y,z
1/2-x,-y,1/2+z
1/2+x,1/2-y,-z
1/2-x,y,1/2-z
1/2-x,1/2-y,-z
1/2+x,y,1/2-z
1/2-x,1/2+y,z
1/2+x,-y,1/2+z
loop_
_atom_site_type_symbol
_atom_site_label
_atom_site_fract_x
_atom_site_fract_y
_atom_site_fract_z
Si Si1 0.500000 0.783215 0.216725
Si Si2 0.750000 0.785105 0.750000
Si Si3 0.191429 0.444215 0.499939
Si Si4 0.905497 0.347109 0.571119
O O1 0.500000 0.735004 0.417014
O O2 0.415258 0.815920 0.294136
O O3 0.750000 0.750000 0.500000
O O4 0.833805 0.820780 0.748852
O O5 0.151321 0.500000 0.500000
O O6 0.250000 0.435868 0.750000
O O7 0.115542 0.404155 0.501118
O O8 0.250000 0.434452 0.250000
O O9 0.000000 0.346876 0.714051
#
# Coordination Sequence:
#
# PCOD8264263 Si02
#       4
#     8   8  16  16
#     4  10  22  40  59  90 131 168 208 266 316 376
#     4  12  26  42  66  96 134 180 222 266 330 392
#     4  10  22  43  68  96 132 172 220 278 336 397
#     4  10  24  43  68  99 132 175 223 274 329 396
#
# _framework density 22.672315999999999
#
# number of rings (size 3 to 8) (size 9 to 14) (size 15 to 20)
#    1.000    0.667    1.667    2.000    2.333    3.333 
#    0.000    0.000    0.000    6.000    0.000    0.000 
#    0.000    0.000    0.000    0.000    0.000    0.000 
#
# Total GULP energy -297370.867894 kJ/mol
# GULP energy per Si atom -12390.452829 kJ/mol
# Density = 2.262071 g / cm^3
# Si number density = 22.672316 Si / 1000 Ang^3
#
#
#
# Elastic Constant Matrix: (Units=GPa)
#
#
# Indices 1 2 3 4 5 6 
#
# 1 166.6998 89.1680 32.7556 0.0000 0.0000 0.0000
# 2 89.1680 205.4642 36.6129 0.0000 0.0000 0.0000
# 3 32.7556 36.6129 97.5530 0.0000 0.0000 0.0000
# 4 0.0000 0.0000 0.0000 26.8167 0.0000 0.0000
# 5 0.0000 0.0000 0.0000 0.0000 9.9274 0.0000
# 6 0.0000 0.0000 0.0000 0.0000 0.0000 55.4301
#
#
#
# Elastic Compliance Matrix: (Units=1/GPa)
#
#
# Indices 1 2 3 4 5 6 
#
# 1 0.008008 -0.003211 -0.001484 0.000000 0.000000 0.000000
# 2 -0.003211 0.006503 -0.001363 0.000000 0.000000 0.000000
# 3 -0.001484 -0.001363 0.011260 0.000000 0.000000 0.000000
# 4 0.000000 0.000000 0.000000 0.037290 0.000000 0.000000
# 5 0.000000 0.000000 0.000000 0.000000 0.100732 0.000000
# 6 0.000000 0.000000 0.000000 0.000000 0.000000 0.018041
#
#
# Mechanical properties :
#
#
# Convention : Reuss Voigt Hill
#
# Bulk Modulus (GPa) = 73.22201 87.42111 80.32156
# Shear Modulus (GPa) = 25.18878 39.18020 32.18449
#
# Velocity S-wave (km/s) = 3.33677 4.16156 3.77178
# Velocity P-wave (km/s) = 6.87105 7.85708 7.38055
#
# Compressibility (1/GPa) = 0.01365710
#
# Stress axis : x y z
#
# Youngs Moduli (GPa) = 124.87738 153.76771 88.80633
#
# Poissons Ratio (x) = 0.49373 0.13176
# Poissons Ratio (y) = 0.40097 0.12101
# Poissons Ratio (z) = 0.18528 0.20953
#
# Static dielectric constant tensor:
#      x y z
#    x 4.057400 0.000000 0.000000 
#    y 0.000000 4.136790 0.000000 
#    z 0.000000 0.000000 3.725460 
# 
# 
# High freq. dielectric constant tensor:
#      x y z
#    x 1.880970 0.000000 0.000000 
#    y 0.000000 1.915930 0.000000 
#    z 0.000000 0.000000 1.884370 
# 
# From -- ./inp_files/744.got.cif
#   From: 2010.03.12/outbox.cif.g09.slc.cpg/sg64_1_cif.got.tgz:744.got - 2010.04.10 20:19:32.
