data_PCOD8264098
_publ_section_title
;
Structure prediction by ZEFSAII (Michael W. Deem and Ramdas Pophale) SiO2 
 PCOD8264098
Probable space group: C M C A
;
_chemical_formula_sum "Si O2"
_cell_formula_units_Z 112
_cell_length_a 21.165271
_cell_length_b 15.163578
_cell_length_c 15.251132
_cell_angle_alpha 90.000000
_cell_angle_beta 90.000000
_cell_angle_gamma 90.000000
_cell_volume 4894.717180
_symmetry_space_group_name_H-M "C M C A"
_symmetry_group_IT_number 64
_symmetry_cell_setting 'orthorhombic'
loop_
_space_group_symop_operation_xyz
x,y,z
-x,1/2-y,1/2+z
x,-y,-z
-x,1/2+y,1/2-z
-x,-y,-z
x,1/2+y,1/2-z
-x,y,z
x,1/2-y,1/2+z
1/2+x,1/2+y,z
1/2-x,-y,1/2+z
1/2+x,1/2-y,-z
1/2-x,y,1/2-z
1/2-x,1/2-y,-z
1/2+x,y,1/2-z
1/2-x,1/2+y,z
1/2+x,-y,1/2+z
loop_
_atom_site_type_symbol
_atom_site_label
_atom_site_fract_x
_atom_site_fract_y
_atom_site_fract_z
Si Si1 0.155829 0.298906 0.107539
Si Si2 0.296799 0.475415 0.330701
Si Si3 0.571653 0.977882 0.746495
Si Si4 0.430490 0.220327 0.255640
Si Si5 0.123114 0.755712 0.574933
Si Si6 0.254620 0.661136 0.354621
Si Si7 0.928370 0.427031 0.434346
O O1 0.201002 0.384899 0.113699
O O2 0.113440 0.291831 0.195354
O O3 0.194223 0.206460 0.100490
O O4 0.115113 0.307856 0.017641
O O5 0.250000 0.456811 0.250000
O O6 0.370541 0.497661 0.310322
O O7 0.267530 0.559272 0.384294
O O8 0.500000 0.983305 0.788860
O O9 0.584348 0.878649 0.711945
O O10 0.574768 0.042874 0.665356
O O11 0.500000 0.249298 0.283714
O O12 0.428069 0.220395 0.149332
O O13 0.189657 0.774815 0.618332
O O14 0.118610 0.653340 0.552627
O O15 0.250000 0.661623 0.250000
O O16 0.902094 0.500000 0.500000
O O17 0.000000 0.400668 0.460413
#
# Coordination Sequence:
#
# PCOD8264098 Si02
#       7
#    16  16  16  16  16  16  16
#     4  12  26  43  71 103 141 187 238 296 362 438
#     4  11  24  42  72  98 139 189 235 295 361 436
#     4  10  21  41  67  97 135 185 235 291 355 426
#     4  11  23  44  73 102 144 188 235 296 361 437
#     4  12  24  43  69 100 141 181 236 299 361 418
#     4  11  23  47  67  96 143 185 235 297 354 429
#     4  10  22  39  63  98 138 179 235 294 350 420
#
# _framework density 22.881812
#
# number of rings (size 3 to 8) (size 9 to 14) (size 15 to 20)
#    0.000    1.000    2.857    3.857    2.000    4.571 
#    0.000    0.000    0.000    1.714    0.000    0.000 
#    0.000    0.000    0.000    0.000    0.000    0.000 
#
# Total GULP energy -694008.040672 kJ/mol
# GULP energy per Si atom -12393.000726 kJ/mol
# Density = 2.282973 g / cm^3
# Si number density = 22.881812 Si / 1000 Ang^3
#
#
#
# Elastic Constant Matrix: (Units=GPa)
#
#
# Indices 1 2 3 4 5 6 
#
# 1 72.8160 59.0664 26.7298 0.0000 0.0000 0.0000
# 2 59.0664 153.1590 45.7687 0.0000 0.0000 0.0000
# 3 26.7298 45.7687 85.2479 0.0000 0.0000 0.0000
# 4 0.0000 0.0000 0.0000 38.9780 0.0000 0.0000
# 5 0.0000 0.0000 0.0000 0.0000 21.4111 0.0000
# 6 0.0000 0.0000 0.0000 0.0000 0.0000 39.8694
#
#
#
# Elastic Compliance Matrix: (Units=1/GPa)
#
#
# Indices 1 2 3 4 5 6 
#
# 1 0.020456 -0.007114 -0.002595 0.000000 0.000000 0.000000
# 2 -0.007114 0.010251 -0.003273 0.000000 0.000000 0.000000
# 3 -0.002595 -0.003273 0.014301 0.000000 0.000000 0.000000
# 4 0.000000 0.000000 0.000000 0.025656 0.000000 0.000000
# 5 0.000000 0.000000 0.000000 0.000000 0.046705 0.000000
# 6 0.000000 0.000000 0.000000 0.000000 0.000000 0.025082
#
#
# Mechanical properties :
#
#
# Convention : Reuss Voigt Hill
#
# Bulk Modulus (GPa) = 52.50652 63.81696 58.16174
# Shear Modulus (GPa) = 28.61043 32.02889 30.31966
#
# Velocity S-wave (km/s) = 3.53987 3.74539 3.64408
# Velocity P-wave (km/s) = 6.30113 6.83039 6.57109
#
# Compressibility (1/GPa) = 0.01904525
#
# Stress axis : x y z
#
# Youngs Moduli (GPa) = 48.88506 97.55526 69.92344
#
# Poissons Ratio (x) = 0.69397 0.18144
# Poissons Ratio (y) = 0.34775 0.22886
# Poissons Ratio (z) = 0.12685 0.31929
#
# Static dielectric constant tensor:
#      x y z
#    x 4.212370 0.000000 0.000000 
#    y 0.000000 4.401120 0.000000 
#    z 0.000000 0.000000 4.495640 
# 
# 
# High freq. dielectric constant tensor:
#      x y z
#    x 1.904970 0.000000 0.000000 
#    y 0.000000 1.913890 0.000000 
#    z 0.000000 0.000000 1.879300 
# 
# From -- ./inp_files/27417.got.cif
#   From: 2010.03.12/outbox.cif.g09.slc.cpg/sg64_14_cif.got.tgz:27417.got - 2010.04.10 20:19:32.
