data_PCOD8264045
_publ_section_title
;
Structure prediction by ZEFSAII (Michael W. Deem and Ramdas Pophale) SiO2 
 PCOD8264045
Probable space group: C M C A
;
_chemical_formula_sum "Si O2"
_cell_formula_units_Z 88
_cell_length_a 16.659939
_cell_length_b 11.063121
_cell_length_c 22.671477
_cell_angle_alpha 90.000000
_cell_angle_beta 90.000000
_cell_angle_gamma 90.000000
_cell_volume 4178.600807
_symmetry_space_group_name_H-M "C M C A"
_symmetry_group_IT_number 64
_symmetry_cell_setting 'orthorhombic'
loop_
_space_group_symop_operation_xyz
x,y,z
-x,1/2-y,1/2+z
x,-y,-z
-x,1/2+y,1/2-z
-x,-y,-z
x,1/2+y,1/2-z
-x,y,z
x,1/2-y,1/2+z
1/2+x,1/2+y,z
1/2-x,-y,1/2+z
1/2+x,1/2-y,-z
1/2-x,y,1/2-z
1/2-x,1/2-y,-z
1/2+x,y,1/2-z
1/2-x,1/2+y,z
1/2+x,-y,1/2+z
loop_
_atom_site_type_symbol
_atom_site_label
_atom_site_fract_x
_atom_site_fract_y
_atom_site_fract_z
Si Si1 0.663957 0.408984 0.720052
Si Si2 0.343440 0.421078 0.582934
Si Si3 0.091181 0.326217 0.102581
Si Si4 0.840437 0.673278 0.773945
Si Si5 0.291848 0.000000 0.500000
Si Si6 0.090321 0.300997 0.482662
O O1 0.750000 0.402923 0.750000
O O2 0.676592 0.399386 0.650768
O O3 0.621230 0.538185 0.737155
O O4 0.615537 0.287911 0.741854
O O5 0.393178 0.543575 0.573273
O O6 0.260506 0.427576 0.547381
O O7 0.397538 0.312830 0.559409
O O8 0.153515 0.301428 0.155835
O O9 0.000000 0.321280 0.126760
O O10 0.105252 0.228918 0.051492
O O11 0.750000 0.666582 0.750000
O O12 0.347674 0.905593 0.464597
O O13 0.000000 0.348156 0.473225
#
# Coordination Sequence:
#
# PCOD8264045 Si02
#       6
#    16  16  16  16   8  16
#     4   9  20  35  59  88 121 158 205 272 320 375
#     4  11  22  39  66  97 124 167 226 269 321 393
#     4  10  21  40  65  91 126 169 213 267 334 396
#     4   9  19  36  58  87 118 160 214 263 319 381
#     4  12  25  36  63  98 134 164 220 278 327 394
#     4  11  24  42  61  93 136 174 209 268 343 401
#
# _framework density 21.059681999999999
#
# number of rings (size 3 to 8) (size 9 to 14) (size 15 to 20)
#    0.000    1.818    1.818    1.364    5.091    5.818 
#    0.000    4.545    0.000    0.000    0.000    0.000 
#    0.000    0.000    0.000    0.000    0.000    0.000 
#
# Total GULP energy -545258.640892 kJ/mol
# GULP energy per Si atom -12392.241838 kJ/mol
# Density = 2.101175 g / cm^3
# Si number density = 21.059682 Si / 1000 Ang^3
#
#
#
# Elastic Constant Matrix: (Units=GPa)
#
#
# Indices 1 2 3 4 5 6 
#
# 1 69.6620 9.5038 29.0860 0.0000 0.0000 0.0000
# 2 9.5038 133.4922 23.6178 0.0000 0.0000 0.0000
# 3 29.0860 23.6178 74.9597 0.0000 0.0000 0.0000
# 4 0.0000 0.0000 0.0000 -28.2086 0.0000 0.0000
# 5 0.0000 0.0000 0.0000 0.0000 19.8018 0.0000
# 6 0.0000 0.0000 0.0000 0.0000 0.0000 30.6394
#
#
#
# Elastic Compliance Matrix: (Units=1/GPa)
#
#
# Indices 1 2 3 4 5 6 
#
# 1 0.017131 -0.000046 -0.006632 0.000000 0.000000 0.000000
# 2 -0.000046 0.007933 -0.002482 0.000000 0.000000 0.000000
# 3 -0.006632 -0.002482 0.016696 0.000000 0.000000 0.000000
# 4 0.000000 0.000000 0.000000 -0.035450 0.000000 0.000000
# 5 0.000000 0.000000 0.000000 0.000000 0.050500 0.000000
# 6 0.000000 0.000000 0.000000 0.000000 0.000000 0.032638
#
#
# Mechanical properties :
#
#
# Convention : Reuss Voigt Hill
#
# Bulk Modulus (GPa) = 42.66340 44.72545 43.69443
# Shear Modulus (GPa) = 43.25944 18.84029 31.04987
#
# Velocity S-wave (km/s) = 4.53717 2.99425 3.84392
# Velocity P-wave (km/s) = 6.91016 5.76521 6.36349
#
# Compressibility (1/GPa) = 0.02343929
#
# Stress axis : x y z
#
# Youngs Moduli (GPa) = 58.37510 126.04892 59.89473
#
# Poissons Ratio (x) = 0.00582 0.39725
# Poissons Ratio (y) = 0.00269 0.14864
# Poissons Ratio (z) = 0.38717 0.31282
#
# Static dielectric constant tensor:
#      x y z
#    x 3.501850 0.000000 0.000000 
#    y 0.000000 4.795990 0.000000 
#    z 0.000000 0.000000 3.764310 
# 
# 
# High freq. dielectric constant tensor:
#      x y z
#    x 1.792750 0.000000 0.000000 
#    y 0.000000 1.845740 0.000000 
#    z 0.000000 0.000000 1.820660 
# 
# From -- ./inp_files/40028.got.cif
#   From: 2010.03.12/outbox.cif.g09.slc.cpg/sg64_21_cif.got.tgz:40028.got - 2010.04.10 20:19:32.
