data_PCOD8264148
_publ_section_title
;
Structure prediction by ZEFSAII (Michael W. Deem and Ramdas Pophale) SiO2 
 PCOD8264148
Probable space group: C M C A
;
_chemical_formula_sum "Si O2"
_cell_formula_units_Z 112
_cell_length_a 13.791143
_cell_length_b 14.297851
_cell_length_c 25.797244
_cell_angle_alpha 90.000000
_cell_angle_beta 90.000000
_cell_angle_gamma 90.000000
_cell_volume 5086.796221
_symmetry_space_group_name_H-M "C M C A"
_symmetry_group_IT_number 64
_symmetry_cell_setting 'orthorhombic'
loop_
_space_group_symop_operation_xyz
x,y,z
-x,1/2-y,1/2+z
x,-y,-z
-x,1/2+y,1/2-z
-x,-y,-z
x,1/2+y,1/2-z
-x,y,z
x,1/2-y,1/2+z
1/2+x,1/2+y,z
1/2-x,-y,1/2+z
1/2+x,1/2-y,-z
1/2-x,y,1/2-z
1/2-x,1/2-y,-z
1/2+x,y,1/2-z
1/2-x,1/2+y,z
1/2+x,-y,1/2+z
loop_
_atom_site_type_symbol
_atom_site_label
_atom_site_fract_x
_atom_site_fract_y
_atom_site_fract_z
Si Si1 0.109773 0.850879 0.676033
Si Si2 0.605680 0.100667 0.978524
Si Si3 0.384123 0.072364 0.390834
Si Si4 0.610644 0.957676 0.725885
Si Si5 0.285553 0.815951 0.926287
Si Si6 0.320718 0.157564 0.707269
Si Si7 0.767179 0.608884 0.599092
O O1 0.164367 0.870532 0.621891
O O2 0.108551 0.740206 0.689254
O O3 0.000000 0.883946 0.667250
O O4 0.161099 0.909081 0.723596
O O5 0.500000 0.149347 0.970010
O O6 0.661691 0.088219 0.924334
O O7 0.672413 0.157058 0.018299
O O8 0.585268 0.000000 0.000000
O O9 0.500000 0.078629 0.399676
O O10 0.329002 0.155962 0.421781
O O11 0.354521 0.081077 0.329980
O O12 0.345161 0.972965 0.413258
O O13 0.500000 0.928352 0.730765
O O14 0.620379 0.069635 0.729920
O O15 0.305962 0.706092 0.924120
O O16 0.250000 0.200451 0.750000
O O17 0.253843 0.120685 0.660411
#
# Coordination Sequence:
#
# PCOD8264148 Si02
#       7
#    16  16  16  16  16  16  16
#     4  10  22  38  60  91 126 166 215 258 308 382
#     4  11  23  42  66  92 127 164 208 268 324 382
#     4  10  22  41  64  93 128 166 212 265 319 378
#     4   9  20  36  57  83 121 165 204 253 311 368
#     4  11  23  40  68  92 127 168 217 263 322 383
#     4  10  22  35  60  89 123 164 207 258 311 372
#     4  10  23  43  63  92 125 172 211 261 320 390
#
# _framework density 22.017787999999999
#
# number of rings (size 3 to 8) (size 9 to 14) (size 15 to 20)
#    0.000    1.857    1.429    1.286    8.000    4.571 
#    0.000    2.857    0.000    0.000    0.000    0.000 
#    0.000    0.000    0.000    0.000    0.000    0.000 
#
# Total GULP energy -694128.104042 kJ/mol
# GULP energy per Si atom -12395.144715 kJ/mol
# Density = 2.196767 g / cm^3
# Si number density = 22.017788 Si / 1000 Ang^3
#
#
#
# Elastic Constant Matrix: (Units=GPa)
#
#
# Indices 1 2 3 4 5 6 
#
# 1 109.3009 1.4075 49.1685 0.0000 0.0000 0.0000
# 2 1.4075 63.8086 16.4591 0.0000 0.0000 0.0000
# 3 49.1685 16.4591 80.9385 0.0000 0.0000 0.0000
# 4 0.0000 0.0000 0.0000 30.1091 0.0000 0.0000
# 5 0.0000 0.0000 0.0000 0.0000 48.4628 0.0000
# 6 0.0000 0.0000 0.0000 0.0000 0.0000 28.5684
#
#
#
# Elastic Compliance Matrix: (Units=1/GPa)
#
#
# Indices 1 2 3 4 5 6 
#
# 1 0.012786 0.001817 -0.008137 0.000000 0.000000 0.000000
# 2 0.001817 0.016798 -0.004519 0.000000 0.000000 0.000000
# 3 -0.008137 -0.004519 0.018217 0.000000 0.000000 0.000000
# 4 0.000000 0.000000 0.000000 0.033212 0.000000 0.000000
# 5 0.000000 0.000000 0.000000 0.000000 0.020634 0.000000
# 6 0.000000 0.000000 0.000000 0.000000 0.000000 0.035004
#
#
# Mechanical properties :
#
#
# Convention : Reuss Voigt Hill
#
# Bulk Modulus (GPa) = 38.28231 43.12424 40.70327
# Shear Modulus (GPa) = 29.93354 33.89561 31.91457
#
# Velocity S-wave (km/s) = 3.69116 3.92786 3.81135
# Velocity P-wave (km/s) = 5.96582 6.34030 6.15591
#
# Compressibility (1/GPa) = 0.02612173
#
# Stress axis : x y z
#
# Youngs Moduli (GPa) = 78.21135 59.53246 54.89402
#
# Poissons Ratio (x) = -0.10816 0.44665
# Poissons Ratio (y) = -0.14209 0.24809
# Poissons Ratio (z) = 0.63637 0.26905
#
# Static dielectric constant tensor:
#      x y z
#    x 3.894030 0.000000 0.000000 
#    y 0.000000 3.943520 0.000000 
#    z 0.000000 0.000000 4.162310 
# 
# 
# High freq. dielectric constant tensor:
#      x y z
#    x 1.856890 0.000000 0.000000 
#    y 0.000000 1.864550 0.000000 
#    z 0.000000 0.000000 1.868030 
# 
# From -- ./inp_files/45224.got.cif
#   From: 2010.03.12/outbox.cif.g09.slc.cpg/sg64_23_cif.got.tgz:45224.got - 2010.04.10 20:19:32.
