data_PCOD8264683
_publ_section_title
;
Structure prediction by ZEFSAII (Michael W. Deem and Ramdas Pophale) SiO2 
 PCOD8264683
Probable space group: C M C A
;
_chemical_formula_sum "Si O2"
_cell_formula_units_Z 64
_cell_length_a 22.077627
_cell_length_b 10.986960
_cell_length_c 12.253679
_cell_angle_alpha 90.000000
_cell_angle_beta 90.000000
_cell_angle_gamma 90.000000
_cell_volume 2972.325958
_symmetry_space_group_name_H-M "C M C A"
_symmetry_group_IT_number 64
_symmetry_cell_setting 'orthorhombic'
loop_
_space_group_symop_operation_xyz
x,y,z
-x,1/2-y,1/2+z
x,-y,-z
-x,1/2+y,1/2-z
-x,-y,-z
x,1/2+y,1/2-z
-x,y,z
x,1/2-y,1/2+z
1/2+x,1/2+y,z
1/2-x,-y,1/2+z
1/2+x,1/2-y,-z
1/2-x,y,1/2-z
1/2-x,1/2-y,-z
1/2+x,y,1/2-z
1/2-x,1/2+y,z
1/2+x,-y,1/2+z
loop_
_atom_site_type_symbol
_atom_site_label
_atom_site_fract_x
_atom_site_fract_y
_atom_site_fract_z
Si Si1 0.568225 0.338091 0.959470
Si Si2 0.620190 0.911137 0.102703
Si Si3 0.877088 0.556119 0.656504
Si Si4 0.752981 0.624076 0.567171
O O1 0.500000 0.378342 0.929986
O O2 0.577602 0.201000 0.924514
O O3 0.617890 0.422630 0.898735
O O4 0.578927 0.352322 0.089649
O O5 0.599070 0.962945 0.219850
O O6 0.689247 0.875732 0.128843
O O7 0.613397 0.000000 0.000000
O O8 0.809769 0.616198 0.649757
O O9 0.757127 0.500000 0.500000
O O10 0.750000 0.750000 0.500000
#
# Coordination Sequence:
#
# PCOD8264683 Si02
#       4
#    16  16  16  16
#     4  11  25  46  69  95 134 184 229 275 338 406
#     4  11  26  41  67 106 134 173 226 285 342 402
#     4  11  22  44  69  96 134 180 224 274 341 406
#     4  11  20  40  68 100 139 171 219 277 341 408
#
# _framework density 21.531959000000001
#
# number of rings (size 3 to 8) (size 9 to 14) (size 15 to 20)
#    0.000    1.000    5.000    2.250    3.500    2.500 
#    0.000    5.000    0.000    0.000    0.000    0.000 
#    0.000    0.000    0.000    0.000    0.000    0.000 
#
# Total GULP energy -396432.978172 kJ/mol
# GULP energy per Si atom -12388.530568 kJ/mol
# Density = 2.148295 g / cm^3
# Si number density = 21.531959 Si / 1000 Ang^3
#
#
#
# Elastic Constant Matrix: (Units=GPa)
#
#
# Indices 1 2 3 4 5 6 
#
# 1 96.4672 28.3300 25.2984 0.0000 0.0000 0.0000
# 2 28.3300 119.7801 53.8498 0.0000 0.0000 0.0000
# 3 25.2984 53.8498 177.5583 0.0000 0.0000 0.0000
# 4 0.0000 0.0000 0.0000 21.1455 0.0000 0.0000
# 5 0.0000 0.0000 0.0000 0.0000 9.6349 0.0000
# 6 0.0000 0.0000 0.0000 0.0000 0.0000 25.3650
#
#
#
# Elastic Compliance Matrix: (Units=1/GPa)
#
#
# Indices 1 2 3 4 5 6 
#
# 1 0.011269 -0.002250 -0.000923 0.000000 0.000000 0.000000
# 2 -0.002250 0.010116 -0.002747 0.000000 0.000000 0.000000
# 3 -0.000923 -0.002747 0.006597 0.000000 0.000000 0.000000
# 4 0.000000 0.000000 0.000000 0.047291 0.000000 0.000000
# 5 0.000000 0.000000 0.000000 0.000000 0.103789 0.000000
# 6 0.000000 0.000000 0.000000 0.000000 0.000000 0.039424
#
#
# Mechanical properties :
#
#
# Convention : Reuss Voigt Hill
#
# Bulk Modulus (GPa) = 61.95700 67.64022 64.79861
# Shear Modulus (GPa) = 21.21265 30.31757 25.76511
#
# Velocity S-wave (km/s) = 3.14215 3.75644 3.46294
# Velocity P-wave (km/s) = 6.48082 7.09200 6.79329
#
# Compressibility (1/GPa) = 0.01614023
#
# Stress axis : x y z
#
# Youngs Moduli (GPa) = 88.73768 98.85320 151.59099
#
# Poissons Ratio (x) = 0.22245 0.13994
# Poissons Ratio (y) = 0.19969 0.41647
# Poissons Ratio (z) = 0.08192 0.27158
#
# Static dielectric constant tensor:
#      x y z
#    x 4.124320 0.000000 0.000000 
#    y 0.000000 3.767800 0.000000 
#    z 0.000000 0.000000 3.859870 
# 
# 
# High freq. dielectric constant tensor:
#      x y z
#    x 1.849860 0.000000 0.000000 
#    y 0.000000 1.842270 0.000000 
#    z 0.000000 0.000000 1.838040 
# 
# From -- ./inp_files/16761.got.cif
#   From: 2010.03.12/outbox.cif.g09.slc.cpg/sg64_9_cif.got.tgz:16761.got - 2010.04.10 20:19:32.
