data_PCOD8264659
_publ_section_title
;
Structure prediction by ZEFSAII (Michael W. Deem and Ramdas Pophale) SiO2 
 PCOD8264659
Probable space group: C M C A
;
_chemical_formula_sum "Si O2"
_cell_formula_units_Z 80
_cell_length_a 8.740619
_cell_length_b 25.176092
_cell_length_c 20.095864
_cell_angle_alpha 90.000000
_cell_angle_beta 90.000000
_cell_angle_gamma 90.000000
_cell_volume 4422.187878
_symmetry_space_group_name_H-M "C M C A"
_symmetry_group_IT_number 64
_symmetry_cell_setting 'orthorhombic'
loop_
_space_group_symop_operation_xyz
x,y,z
-x,1/2-y,1/2+z
x,-y,-z
-x,1/2+y,1/2-z
-x,-y,-z
x,1/2+y,1/2-z
-x,y,z
x,1/2-y,1/2+z
1/2+x,1/2+y,z
1/2-x,-y,1/2+z
1/2+x,1/2-y,-z
1/2-x,y,1/2-z
1/2-x,1/2-y,-z
1/2+x,y,1/2-z
1/2-x,1/2+y,z
1/2+x,-y,1/2+z
loop_
_atom_site_type_symbol
_atom_site_label
_atom_site_fract_x
_atom_site_fract_y
_atom_site_fract_z
Si Si1 0.822132 0.620076 0.952987
Si Si2 0.319458 0.771319 0.431830
Si Si3 0.677910 0.597696 0.092400
Si Si4 0.821371 0.803210 0.821797
Si Si5 0.669065 0.016446 0.576536
O O1 0.729208 0.667936 0.919572
O O2 0.783042 0.565793 0.912903
O O3 0.000000 0.631975 0.946119
O O4 0.779594 0.616228 0.030476
O O5 0.500000 0.766735 0.436656
O O6 0.250000 0.750000 0.500000
O O7 0.259892 0.737523 0.370505
O O8 0.500000 0.599405 0.069724
O O9 0.709025 0.636601 0.153883
O O10 0.721899 0.537363 0.115221
O O11 0.750000 0.796153 0.750000
O O12 0.000000 0.789994 0.819671
O O13 0.500000 0.034183 0.600024
O O14 0.666096 0.000000 0.500000
#
# Coordination Sequence:
#
# PCOD8264659 Si02
#       5
#    16  16  16  16  16
#     4  11  20  30  50  81 112 143 180 228 281 331
#     4  12  23  37  57  82 111 147 189 237 286 339
#     4   9  18  33  53  75 107 146 182 223 275 331
#     4  11  23  39  58  82 113 150 189 231 281 341
#     4   8  15  29  48  73 105 141 177 217 269 324
#
# _framework density 18.090592000000001
#
# number of rings (size 3 to 8) (size 9 to 14) (size 15 to 20)
#    0.000    1.800    2.000    5.400    0.000    4.400 
#    0.000    0.000    0.000    1.200    0.000    5.600 
#    0.000    0.000    0.000    0.000    0.000    0.000 
#
# Total GULP energy -495935.289857 kJ/mol
# GULP energy per Si atom -12398.382246 kJ/mol
# Density = 1.804942 g / cm^3
# Si number density = 18.090592 Si / 1000 Ang^3
#
#
#
# Elastic Constant Matrix: (Units=GPa)
#
#
# Indices 1 2 3 4 5 6 
#
# 1 133.0255 63.3255 49.1400 0.0000 0.0000 0.0000
# 2 63.3255 151.6502 60.9726 0.0000 0.0000 0.0000
# 3 49.1400 60.9726 89.8483 0.0000 0.0000 0.0000
# 4 0.0000 0.0000 0.0000 21.5374 0.0000 0.0000
# 5 0.0000 0.0000 0.0000 0.0000 23.7201 0.0000
# 6 0.0000 0.0000 0.0000 0.0000 0.0000 30.4217
#
#
#
# Elastic Compliance Matrix: (Units=1/GPa)
#
#
# Indices 1 2 3 4 5 6 
#
# 1 0.010204 -0.002774 -0.003698 0.000000 0.000000 0.000000
# 2 -0.002774 0.009823 -0.005149 0.000000 0.000000 0.000000
# 3 -0.003698 -0.005149 0.016646 0.000000 0.000000 0.000000
# 4 0.000000 0.000000 0.000000 0.046431 0.000000 0.000000
# 5 0.000000 0.000000 0.000000 0.000000 0.042158 0.000000
# 6 0.000000 0.000000 0.000000 0.000000 0.000000 0.032871
#
#
# Mechanical properties :
#
#
# Convention : Reuss Voigt Hill
#
# Bulk Modulus (GPa) = 74.45329 80.15557 77.30443
# Shear Modulus (GPa) = 26.90306 28.54157 27.72231
#
# Velocity S-wave (km/s) = 3.86052 3.97634 3.91886
# Velocity P-wave (km/s) = 7.81771 8.09233 7.95620
#
# Compressibility (1/GPa) = 0.01343124
#
# Stress axis : x y z
#
# Youngs Moduli (GPa) = 98.00008 101.80684 60.07288
#
# Poissons Ratio (x) = 0.28242 0.22217
# Poissons Ratio (y) = 0.27186 0.30929
# Poissons Ratio (z) = 0.36244 0.52416
#
# Static dielectric constant tensor:
#      x y z
#    x 3.390570 0.000000 0.000000 
#    y 0.000000 4.052990 0.000000 
#    z 0.000000 0.000000 3.157300 
# 
# 
# High freq. dielectric constant tensor:
#      x y z
#    x 1.707870 0.000000 0.000000 
#    y 0.000000 1.725040 0.000000 
#    z 0.000000 0.000000 1.644460 
# 
# From -- ./inp_files/29791.got.cif
#   From: 2010.03.12/outbox.cif.g09.slc.cpg/sg64_15_cif.got.tgz:29791.got - 2010.04.10 20:19:32.
