data_PCOD8264506
_publ_section_title
;
Structure prediction by ZEFSAII (Michael W. Deem and Ramdas Pophale) SiO2 
 PCOD8264506
Probable space group: C M C A
;
_chemical_formula_sum "Si O2"
_cell_formula_units_Z 96
_cell_length_a 16.529581
_cell_length_b 29.083610
_cell_length_c 9.719236
_cell_angle_alpha 90.000000
_cell_angle_beta 90.000000
_cell_angle_gamma 90.000000
_cell_volume 4672.424419
_symmetry_space_group_name_H-M "C M C A"
_symmetry_group_IT_number 64
_symmetry_cell_setting 'orthorhombic'
loop_
_space_group_symop_operation_xyz
x,y,z
-x,1/2-y,1/2+z
x,-y,-z
-x,1/2+y,1/2-z
-x,-y,-z
x,1/2+y,1/2-z
-x,y,z
x,1/2-y,1/2+z
1/2+x,1/2+y,z
1/2-x,-y,1/2+z
1/2+x,1/2-y,-z
1/2-x,y,1/2-z
1/2-x,1/2-y,-z
1/2+x,y,1/2-z
1/2-x,1/2+y,z
1/2+x,-y,1/2+z
loop_
_atom_site_type_symbol
_atom_site_label
_atom_site_fract_x
_atom_site_fract_y
_atom_site_fract_z
Si Si1 0.908028 0.535514 0.620839
Si Si2 0.671582 0.016892 0.155527
Si Si3 0.903328 0.209219 0.977965
Si Si4 0.201035 0.124954 0.886576
Si Si5 0.815725 0.120616 0.362479
Si Si6 0.094606 0.291711 0.789651
O O1 0.885641 0.500000 0.500000
O O2 0.899831 0.511575 0.770797
O O3 0.846431 0.577289 0.609680
O O4 0.000000 0.553101 0.605210
O O5 0.750000 0.008349 0.250000
O O6 0.645998 0.070279 0.158835
O O7 0.686278 0.000000 0.000000
O O8 0.864367 0.164185 0.912597
O O9 0.870375 0.252656 0.891008
O O10 0.000000 0.203882 0.971054
O O11 0.871936 0.215005 0.134720
O O12 0.250000 0.134361 0.750000
O O13 0.273507 0.123231 0.992596
O O14 0.750000 0.133172 0.250000
O O15 0.886058 0.158218 0.350756
O O16 0.000000 0.286051 0.785539
#
# Coordination Sequence:
#
# PCOD8264506 Si02
#       6
#    16  16  16  16  16  16
#     4  11  24  42  66  94 126 170 220 264 320 383
#     4  11  22  40  64  92 131 171 212 263 319 378
#     4  10  23  44  67  91 126 167 209 257 319 380
#     4  12  25  41  63  96 130 168 210 263 315 374
#     4  11  22  39  63  94 127 165 213 258 318 375
#     4  10  23  43  66  93 126 165 207 262 321 379
#
# _framework density 20.546078999999999
#
# number of rings (size 3 to 8) (size 9 to 14) (size 15 to 20)
#    0.000    1.167    1.667    5.500    2.333    2.333 
#    0.000    2.500    0.000    0.000    0.000    0.000 
#    0.000    0.000    0.000    0.000    0.000    0.000 
#
# Total GULP energy -595265.108161 kJ/mol
# GULP energy per Si atom -12401.356420 kJ/mol
# Density = 2.049932 g / cm^3
# Si number density = 20.546079 Si / 1000 Ang^3
#
#
#
# Elastic Constant Matrix: (Units=GPa)
#
#
# Indices 1 2 3 4 5 6 
#
# 1 33.6462 28.3946 42.8508 0.0000 0.0000 0.0000
# 2 28.3946 148.0150 66.9393 0.0000 0.0000 0.0000
# 3 42.8508 66.9393 171.0692 0.0000 0.0000 0.0000
# 4 0.0000 0.0000 0.0000 35.5528 0.0000 0.0000
# 5 0.0000 0.0000 0.0000 0.0000 24.3936 0.0000
# 6 0.0000 0.0000 0.0000 0.0000 0.0000 40.2996
#
#
#
# Elastic Compliance Matrix: (Units=1/GPa)
#
#
# Indices 1 2 3 4 5 6 
#
# 1 0.045866 -0.004378 -0.009776 0.000000 0.000000 0.000000
# 2 -0.004378 0.008627 -0.002279 0.000000 0.000000 0.000000
# 3 -0.009776 -0.002279 0.009186 0.000000 0.000000 0.000000
# 4 0.000000 0.000000 0.000000 0.028127 0.000000 0.000000
# 5 0.000000 0.000000 0.000000 0.000000 0.040994 0.000000
# 6 0.000000 0.000000 0.000000 0.000000 0.000000 0.024814
#
#
# Mechanical properties :
#
#
# Convention : Reuss Voigt Hill
#
# Bulk Modulus (GPa) = 32.45351 69.89996 51.17674
# Shear Modulus (GPa) = 24.90664 34.35225 29.62945
#
# Velocity S-wave (km/s) = 3.48549 4.09340 3.80162
# Velocity P-wave (km/s) = 5.65933 7.51240 6.65072
#
# Compressibility (1/GPa) = 0.03081330
#
# Stress axis : x y z
#
# Youngs Moduli (GPa) = 21.80287 115.92143 108.86020
#
# Poissons Ratio (x) = 0.50746 1.06420
# Poissons Ratio (y) = 0.09544 0.24810
# Poissons Ratio (z) = 0.21314 0.26419
#
# Static dielectric constant tensor:
#      x y z
#    x 3.523370 0.000000 0.000000 
#    y 0.000000 3.524210 0.000000 
#    z 0.000000 0.000000 4.125820 
# 
# 
# High freq. dielectric constant tensor:
#      x y z
#    x 1.791050 0.000000 0.000000 
#    y 0.000000 1.815340 0.000000 
#    z 0.000000 0.000000 1.820940 
# 
# From -- ./inp_files/8438.got.cif
#   From: 2010.03.12/outbox.cif.g09.slc.cpg/sg64_5_cif.got.tgz:8438.got - 2010.04.10 20:19:32.
