data_PCOD8264427
_publ_section_title
;
Structure prediction by ZEFSAII (Michael W. Deem and Ramdas Pophale) SiO2 
 PCOD8264427
Probable space group: C M C A
;
_chemical_formula_sum "Si O2"
_cell_formula_units_Z 112
_cell_length_a 23.664565
_cell_length_b 14.236551
_cell_length_c 16.730643
_cell_angle_alpha 90.000000
_cell_angle_beta 90.000000
_cell_angle_gamma 90.000000
_cell_volume 5636.583516
_symmetry_space_group_name_H-M "C M C A"
_symmetry_group_IT_number 64
_symmetry_cell_setting 'orthorhombic'
loop_
_space_group_symop_operation_xyz
x,y,z
-x,1/2-y,1/2+z
x,-y,-z
-x,1/2+y,1/2-z
-x,-y,-z
x,1/2+y,1/2-z
-x,y,z
x,1/2-y,1/2+z
1/2+x,1/2+y,z
1/2-x,-y,1/2+z
1/2+x,1/2-y,-z
1/2-x,y,1/2-z
1/2-x,1/2-y,-z
1/2+x,y,1/2-z
1/2-x,1/2+y,z
1/2+x,-y,1/2+z
loop_
_atom_site_type_symbol
_atom_site_label
_atom_site_fract_x
_atom_site_fract_y
_atom_site_fract_z
Si Si1 0.314255 0.529350 0.232541
Si Si2 0.064673 0.603018 0.972069
Si Si3 0.156125 0.885826 0.346994
Si Si4 0.264120 0.686700 0.926211
Si Si5 0.565038 0.744213 0.890427
Si Si6 0.365495 0.937062 0.426757
Si Si7 0.334311 0.769776 0.784564
O O1 0.250000 0.493693 0.250000
O O2 0.348227 0.490181 0.309489
O O3 0.344135 0.494136 0.151226
O O4 0.316068 0.641541 0.232176
O O5 0.099230 0.635332 0.894738
O O6 0.000000 0.594148 0.945642
O O7 0.086667 0.500000 0.000000
O O8 0.073244 0.685332 0.035839
O O9 0.209645 0.874375 0.404444
O O10 0.163120 0.818965 0.271750
O O11 0.311303 0.617080 0.959655
O O12 0.287843 0.749040 0.852831
O O13 0.250000 0.750000 0.000000
O O14 0.500000 0.741228 0.862913
O O15 0.584940 0.637487 0.907916
O O16 0.603317 0.786842 0.820115
O O17 0.388237 0.000000 0.500000
#
# Coordination Sequence:
#
# PCOD8264427 Si02
#       7
#    16  16  16  16  16  16  16
#     4  12  23  41  62  92 134 167 200 258 319 374
#     4  10  23  42  66  93 122 163 217 270 318 378
#     4  12  21  40  62  91 128 161 208 260 319 372
#     4  11  23  39  61  92 129 169 209 255 311 382
#     4  10  22  46  67  88 128 167 210 268 321 373
#     4  11  25  41  61  94 126 169 216 255 311 389
#     4  11  24  39  63  95 124 168 208 260 316 373
#
# _framework density 19.870193
#
# number of rings (size 3 to 8) (size 9 to 14) (size 15 to 20)
#    0.000    1.000    4.286    3.857    6.000    1.429 
#    0.000    0.714    0.000    0.000    0.000    0.000 
#    0.000    0.000    0.000    0.000    0.000    0.000 
#
# Total GULP energy -694266.870385 kJ/mol
# GULP energy per Si atom -12397.622685 kJ/mol
# Density = 1.982497 g / cm^3
# Si number density = 19.870193 Si / 1000 Ang^3
#
#
#
# Elastic Constant Matrix: (Units=GPa)
#
#
# Indices 1 2 3 4 5 6 
#
# 1 96.4426 13.4751 29.5716 0.0000 0.0000 0.0000
# 2 13.4751 89.3630 23.8414 0.0000 0.0000 0.0000
# 3 29.5716 23.8414 74.5932 0.0000 0.0000 0.0000
# 4 0.0000 0.0000 0.0000 29.5413 0.0000 0.0000
# 5 0.0000 0.0000 0.0000 0.0000 28.8470 0.0000
# 6 0.0000 0.0000 0.0000 0.0000 0.0000 23.5308
#
#
#
# Elastic Compliance Matrix: (Units=1/GPa)
#
#
# Indices 1 2 3 4 5 6 
#
# 1 0.011831 -0.000582 -0.004504 0.000000 0.000000 0.000000
# 2 -0.000582 0.012262 -0.003688 0.000000 0.000000 0.000000
# 3 -0.004504 -0.003688 0.016371 0.000000 0.000000 0.000000
# 4 0.000000 0.000000 0.000000 0.033851 0.000000 0.000000
# 5 0.000000 0.000000 0.000000 0.000000 0.034666 0.000000
# 6 0.000000 0.000000 0.000000 0.000000 0.000000 0.042498
#
#
# Mechanical properties :
#
#
# Convention : Reuss Voigt Hill
#
# Bulk Modulus (GPa) = 43.64120 43.79725 43.71922
# Shear Modulus (GPa) = 28.30196 29.28452 28.79324
#
# Velocity S-wave (km/s) = 3.77814 3.84316 3.81079
# Velocity P-wave (km/s) = 6.40650 6.46396 6.43529
#
# Compressibility (1/GPa) = 0.02291413
#
# Stress axis : x y z
#
# Youngs Moduli (GPa) = 84.52125 81.55181 61.08520
#
# Poissons Ratio (x) = 0.04749 0.27514
# Poissons Ratio (y) = 0.04922 0.22530
# Poissons Ratio (z) = 0.38071 0.30079
#
# Static dielectric constant tensor:
#      x y z
#    x 3.714590 0.000000 0.000000 
#    y 0.000000 3.251310 0.000000 
#    z 0.000000 0.000000 3.624020 
# 
# 
# High freq. dielectric constant tensor:
#      x y z
#    x 1.772730 0.000000 0.000000 
#    y 0.000000 1.785900 0.000000 
#    z 0.000000 0.000000 1.774970 
# 
# From -- ./inp_files/27383.got.cif
#   From: 2010.03.12/outbox.cif.g09.slc.cpg/sg64_14_cif.got.tgz:27383.got - 2010.04.10 20:19:32.
