data_PCOD8264972
_publ_section_title
;
Structure prediction by ZEFSAII (Michael W. Deem and Ramdas Pophale) SiO2 
 PCOD8264972
Probable space group: C M C A
;
_chemical_formula_sum "Si O2"
_cell_formula_units_Z 80
_cell_length_a 9.556229
_cell_length_b 15.243048
_cell_length_c 28.524856
_cell_angle_alpha 90.000000
_cell_angle_beta 90.000000
_cell_angle_gamma 90.000000
_cell_volume 4155.103310
_symmetry_space_group_name_H-M "C M C A"
_symmetry_group_IT_number 64
_symmetry_cell_setting 'orthorhombic'
loop_
_space_group_symop_operation_xyz
x,y,z
-x,1/2-y,1/2+z
x,-y,-z
-x,1/2+y,1/2-z
-x,-y,-z
x,1/2+y,1/2-z
-x,y,z
x,1/2-y,1/2+z
1/2+x,1/2+y,z
1/2-x,-y,1/2+z
1/2+x,1/2-y,-z
1/2-x,y,1/2-z
1/2-x,1/2-y,-z
1/2+x,y,1/2-z
1/2-x,1/2+y,z
1/2+x,-y,1/2+z
loop_
_atom_site_type_symbol
_atom_site_label
_atom_site_fract_x
_atom_site_fract_y
_atom_site_fract_z
Si Si1 0.770803 0.425207 0.352884
Si Si2 0.772683 0.238652 0.392136
Si Si3 0.000000 0.124329 0.780797
Si Si4 0.000000 0.522814 0.578034
Si Si5 0.500000 0.332073 0.934973
Si Si6 0.500000 0.288965 0.037248
Si Si7 0.000000 0.993500 0.309588
Si Si8 0.500000 0.311334 0.681731
O O1 0.722980 0.333906 0.375435
O O2 0.860426 0.408190 0.306192
O O3 0.635792 0.482618 0.341671
O O4 0.862589 0.478635 0.389717
O O5 0.635193 0.183345 0.402875
O O6 0.862992 0.194204 0.351003
O O7 0.863460 0.245702 0.439661
O O8 0.000000 0.231513 0.780362
O O9 0.000000 0.081967 0.729620
O O10 0.000000 0.606766 0.544907
O O11 0.000000 0.433430 0.548382
O O12 0.500000 0.271126 0.981437
O O13 0.000000 0.094793 0.291123
#
# Coordination Sequence:
#
# PCOD8264972 Si02
#       8
#    16  16   8   8   8   8   8   8
#     4   9  19  36  52  70 101 137 167 203 259 312
#     4   9  19  35  52  72 104 140 170 207 256 309
#     4   9  20  38  52  71 105 137 163 206 263 313
#     4   9  19  34  50  70 105 140 165 201 258 316
#     4  12  18  28  53  85  97 122 183 225 238 289
#     4   9  19  34  49  70 108 144 163 204 265 303
#     4  12  19  32  58  82  96 127 176 224 253 295
#     4   9  20  38  54  72 105 142 167 202 269 320
#
# _framework density 19.253432
#
# number of rings (size 3 to 8) (size 9 to 14) (size 15 to 20)
#    0.000    2.400    0.000    5.700    0.000    0.000 
#    0.000   12.000    0.000    0.000    0.000   16.800 
#    0.000    0.000    0.000    0.000    0.000    0.000 
#
# Total GULP energy -495896.596679 kJ/mol
# GULP energy per Si atom -12397.414917 kJ/mol
# Density = 1.920961 g / cm^3
# Si number density = 19.253432 Si / 1000 Ang^3
#
#
#
# Elastic Constant Matrix: (Units=GPa)
#
#
# Indices 1 2 3 4 5 6 
#
# 1 115.2746 40.5044 20.2004 0.0000 0.0000 0.0000
# 2 40.5044 99.3599 18.3778 0.0000 0.0000 0.0000
# 3 20.2004 18.3778 65.7964 0.0000 0.0000 0.0000
# 4 0.0000 0.0000 0.0000 22.6741 0.0000 0.0000
# 5 0.0000 0.0000 0.0000 0.0000 7.6789 0.0000
# 6 0.0000 0.0000 0.0000 0.0000 0.0000 6.9831
#
#
#
# Elastic Compliance Matrix: (Units=1/GPa)
#
#
# Indices 1 2 3 4 5 6 
#
# 1 0.010398 -0.003847 -0.002118 0.000000 0.000000 0.000000
# 2 -0.003847 0.012036 -0.002181 0.000000 0.000000 0.000000
# 3 -0.002118 -0.002181 0.016458 0.000000 0.000000 0.000000
# 4 0.000000 0.000000 0.000000 0.044103 0.000000 0.000000
# 5 0.000000 0.000000 0.000000 0.000000 0.130228 0.000000
# 6 0.000000 0.000000 0.000000 0.000000 0.000000 0.143203
#
#
# Mechanical properties :
#
#
# Convention : Reuss Voigt Hill
#
# Bulk Modulus (GPa) = 44.24675 48.73290 46.48982
# Shear Modulus (GPa) = 13.14926 20.89043 17.01985
#
# Velocity S-wave (km/s) = 2.61618 3.29754 2.97642
# Velocity P-wave (km/s) = 5.67071 6.31384 6.00090
#
# Compressibility (1/GPa) = 0.02260053
#
# Stress axis : x y z
#
# Youngs Moduli (GPa) = 96.17450 83.08403 60.76190
#
# Poissons Ratio (x) = 0.31962 0.12868
# Poissons Ratio (y) = 0.36998 0.13251
# Poissons Ratio (z) = 0.20367 0.18118
#
# Static dielectric constant tensor:
#      x y z
#    x 3.464290 0.000000 0.000000 
#    y 0.000000 3.386620 0.000000 
#    z 0.000000 0.000000 3.214280 
# 
# 
# High freq. dielectric constant tensor:
#      x y z
#    x 1.754790 0.000000 0.000000 
#    y 0.000000 1.746050 0.000000 
#    z 0.000000 0.000000 1.729750 
# 
# From -- ./inp_files/47965.got.cif
#   From: 2010.03.12/outbox.cif.g09.slc.cpg/sg64_24_cif.got.tgz:47965.got - 2010.04.10 20:19:32.
