data_PCOD8264779
_publ_section_title
;
Structure prediction by ZEFSAII (Michael W. Deem and Ramdas Pophale) SiO2 
 PCOD8264779
Probable space group: C M C A
;
_chemical_formula_sum "Si O2"
_cell_formula_units_Z 64
_cell_length_a 12.704987
_cell_length_b 8.221086
_cell_length_c 28.573971
_cell_angle_alpha 90.000000
_cell_angle_beta 90.000000
_cell_angle_gamma 90.000000
_cell_volume 2984.516718
_symmetry_space_group_name_H-M "C M C A"
_symmetry_group_IT_number 64
_symmetry_cell_setting 'orthorhombic'
loop_
_space_group_symop_operation_xyz
x,y,z
-x,1/2-y,1/2+z
x,-y,-z
-x,1/2+y,1/2-z
-x,-y,-z
x,1/2+y,1/2-z
-x,y,z
x,1/2-y,1/2+z
1/2+x,1/2+y,z
1/2-x,-y,1/2+z
1/2+x,1/2-y,-z
1/2-x,y,1/2-z
1/2-x,1/2-y,-z
1/2+x,y,1/2-z
1/2-x,1/2+y,z
1/2+x,-y,1/2+z
loop_
_atom_site_type_symbol
_atom_site_label
_atom_site_fract_x
_atom_site_fract_y
_atom_site_fract_z
Si Si1 0.382391 0.002379 0.714117
Si Si2 0.795936 0.622485 0.464836
Si Si3 0.117474 0.411486 0.085530
Si Si4 0.826936 0.135934 0.689474
O O1 0.500000 0.051723 0.698522
O O2 0.360390 0.818232 0.699982
O O3 0.300593 0.122400 0.688037
O O4 0.370601 0.017061 0.770172
O O5 0.859305 0.500000 0.500000
O O6 0.750000 0.750000 0.500000
O O7 0.867230 0.719794 0.427822
O O8 0.701679 0.529194 0.438393
O O9 0.125716 0.425992 0.141122
O O10 0.000000 0.464747 0.070119
#
# Coordination Sequence:
#
# PCOD8264779 Si02
#       4
#    16  16  16  16
#     4  11  22  39  59  83 125 167 202 249 299 344
#     4   9  21  40  61  89 118 147 194 244 296 370
#     4  11  22  40  64  88 121 158 197 249 302 353
#     4  11  23  38  60  91 120 160 212 248 288 357
#
# _framework density 21.444008
#
# number of rings (size 3 to 8) (size 9 to 14) (size 15 to 20)
#    0.000    1.500    0.000    6.750    0.000    5.000 
#    0.000   12.500    0.000    0.000    0.000    0.000 
#    0.000    0.000    0.000    0.000    0.000    0.000 
#
# Total GULP energy -396581.923423 kJ/mol
# GULP energy per Si atom -12393.185107 kJ/mol
# Density = 2.139520 g / cm^3
# Si number density = 21.444008 Si / 1000 Ang^3
#
#
#
# Elastic Constant Matrix: (Units=GPa)
#
#
# Indices 1 2 3 4 5 6 
#
# 1 147.0302 19.3502 13.7221 0.0000 0.0000 0.0000
# 2 19.3502 53.8303 27.2936 0.0000 0.0000 0.0000
# 3 13.7221 27.2936 97.6538 0.0000 0.0000 0.0000
# 4 0.0000 0.0000 0.0000 33.7846 0.0000 0.0000
# 5 0.0000 0.0000 0.0000 0.0000 9.7325 0.0000
# 6 0.0000 0.0000 0.0000 0.0000 0.0000 10.2884
#
#
#
# Elastic Compliance Matrix: (Units=1/GPa)
#
#
# Indices 1 2 3 4 5 6 
#
# 1 0.007148 -0.002400 -0.000334 0.000000 0.000000 0.000000
# 2 -0.002400 0.022450 -0.005937 0.000000 0.000000 0.000000
# 3 -0.000334 -0.005937 0.011947 0.000000 0.000000 0.000000
# 4 0.000000 0.000000 0.000000 0.029599 0.000000 0.000000
# 5 0.000000 0.000000 0.000000 0.000000 0.102748 0.000000
# 6 0.000000 0.000000 0.000000 0.000000 0.000000 0.097196
#
#
# Mechanical properties :
#
#
# Convention : Reuss Voigt Hill
#
# Bulk Modulus (GPa) = 41.31831 46.58291 43.95061
# Shear Modulus (GPa) = 16.86345 26.63768 21.75056
#
# Velocity S-wave (km/s) = 2.80731 3.52830 3.18826
# Velocity P-wave (km/s) = 5.46057 6.19425 5.83895
#
# Compressibility (1/GPa) = 0.02420234
#
# Stress axis : x y z
#
# Youngs Moduli (GPa) = 139.89199 44.54295 83.70588
#
# Poissons Ratio (x) = 0.10692 0.02792
# Poissons Ratio (y) = 0.33581 0.49699
# Poissons Ratio (z) = 0.04666 0.26447
#
# Static dielectric constant tensor:
#      x y z
#    x 3.985500 0.000000 0.000000 
#    y 0.000000 4.193080 0.000000 
#    z 0.000000 0.000000 2.847700 
# 
# 
# High freq. dielectric constant tensor:
#      x y z
#    x 1.832740 0.000000 0.000000 
#    y 0.000000 1.846330 0.000000 
#    z 0.000000 0.000000 1.847040 
# 
# From -- ./inp_files/52460.got.cif
#   From: 2010.03.12/outbox.cif.g09.slc.cpg/sg64_27_cif.got.tgz:52460.got - 2010.04.10 20:19:32.
