data_PCOD8264499
_publ_section_title
;
Structure prediction by ZEFSAII (Michael W. Deem and Ramdas Pophale) SiO2 
 PCOD8264499
Probable space group: C M C A
;
_chemical_formula_sum "Si O2"
_cell_formula_units_Z 88
_cell_length_a 19.434347
_cell_length_b 8.967721
_cell_length_c 24.273196
_cell_angle_alpha 90.000000
_cell_angle_beta 90.000000
_cell_angle_gamma 90.000000
_cell_volume 4230.376332
_symmetry_space_group_name_H-M "C M C A"
_symmetry_group_IT_number 64
_symmetry_cell_setting 'orthorhombic'
loop_
_space_group_symop_operation_xyz
x,y,z
-x,1/2-y,1/2+z
x,-y,-z
-x,1/2+y,1/2-z
-x,-y,-z
x,1/2+y,1/2-z
-x,y,z
x,1/2-y,1/2+z
1/2+x,1/2+y,z
1/2-x,-y,1/2+z
1/2+x,1/2-y,-z
1/2-x,y,1/2-z
1/2-x,1/2-y,-z
1/2+x,y,1/2-z
1/2-x,1/2+y,z
1/2+x,-y,1/2+z
loop_
_atom_site_type_symbol
_atom_site_label
_atom_site_fract_x
_atom_site_fract_y
_atom_site_fract_z
Si Si1 0.582328 0.627150 0.703912
Si Si2 0.790593 0.784452 0.555990
Si Si3 0.926468 0.266767 0.085408
Si Si4 0.109084 0.500000 0.000000
Si Si5 0.169333 0.903474 0.767102
Si Si6 0.179005 0.968956 0.891130
O O1 0.500000 0.639367 0.719482
O O2 0.594253 0.637923 0.638750
O O3 0.617274 0.475695 0.723344
O O4 0.633974 0.743694 0.731980
O O5 0.750000 0.750000 0.500000
O O6 0.818068 0.631102 0.581595
O O7 0.747240 0.870273 0.602338
O O8 0.849005 0.902794 0.543479
O O9 0.933848 0.380523 0.034628
O O10 0.877023 0.127079 0.074898
O O11 0.000000 0.191059 0.095168
O O12 0.250000 0.895969 0.750000
O O13 0.162539 0.984794 0.826507
#
# Coordination Sequence:
#
# PCOD8264499 Si02
#       6
#    16  16  16   8  16  16
#     4  10  23  44  64  89 130 175 212 255 326 397
#     4  12  22  39  64  92 122 167 203 257 324 382
#     4  10  23  43  63  90 126 169 212 261 312 382
#     4  12  23  38  68  92 127 160 216 258 322 378
#     4  11  25  38  66  98 127 164 214 276 317 368
#     4  11  24  40  64  91 131 161 210 260 326 381
#
# _framework density 20.801931
#
# number of rings (size 3 to 8) (size 9 to 14) (size 15 to 20)
#    0.000    1.091    3.636    1.364   10.182    0.727 
#    0.000    2.727    0.000    0.000    0.000    0.000 
#    0.000    0.000    0.000    0.000    0.000    0.000 
#
# Total GULP energy -545136.308229 kJ/mol
# GULP energy per Si atom -12389.461551 kJ/mol
# Density = 2.075459 g / cm^3
# Si number density = 20.801931 Si / 1000 Ang^3
#
#
#
# Elastic Constant Matrix: (Units=GPa)
#
#
# Indices 1 2 3 4 5 6 
#
# 1 125.0164 42.2727 25.9324 0.0000 0.0000 0.0000
# 2 42.2727 100.4535 30.2865 0.0000 0.0000 0.0000
# 3 25.9324 30.2865 52.8452 0.0000 0.0000 0.0000
# 4 0.0000 0.0000 0.0000 36.2804 0.0000 0.0000
# 5 0.0000 0.0000 0.0000 0.0000 88.1064 0.0000
# 6 0.0000 0.0000 0.0000 0.0000 0.0000 20.4774
#
#
#
# Elastic Compliance Matrix: (Units=1/GPa)
#
#
# Indices 1 2 3 4 5 6 
#
# 1 0.009685 -0.003195 -0.002922 0.000000 0.000000 0.000000
# 2 -0.003195 0.013088 -0.005933 0.000000 0.000000 0.000000
# 3 -0.002922 -0.005933 0.023757 0.000000 0.000000 0.000000
# 4 0.000000 0.000000 0.000000 0.027563 0.000000 0.000000
# 5 0.000000 0.000000 0.000000 0.000000 0.011350 0.000000
# 6 0.000000 0.000000 0.000000 0.000000 0.000000 0.048834
#
#
# Mechanical properties :
#
#
# Convention : Reuss Voigt Hill
#
# Bulk Modulus (GPa) = 44.58092 52.81091 48.69591
# Shear Modulus (GPa) = 30.14679 40.96107 35.55393
#
# Velocity S-wave (km/s) = 3.81101 4.44227 4.13869
# Velocity P-wave (km/s) = 6.39083 7.19404 6.80430
#
# Compressibility (1/GPa) = 0.02243112
#
# Stress axis : x y z
#
# Youngs Moduli (GPa) = 103.24903 76.40492 42.09207
#
# Poissons Ratio (x) = 0.24410 0.12298
# Poissons Ratio (y) = 0.32986 0.24974
# Poissons Ratio (z) = 0.30167 0.45333
#
# Static dielectric constant tensor:
#      x y z
#    x 3.953880 0.000000 0.000000 
#    y 0.000000 3.783230 0.000000 
#    z 0.000000 0.000000 3.960360 
# 
# 
# High freq. dielectric constant tensor:
#      x y z
#    x 1.819660 0.000000 0.000000 
#    y 0.000000 1.817140 0.000000 
#    z 0.000000 0.000000 1.819370 
# 
# From -- ./inp_files/46214.got.cif
#   From: 2010.03.12/outbox.cif.g09.slc.cpg/sg64_24_cif.got.tgz:46214.got - 2010.04.10 20:19:32.
