data_PCOD8264937
_publ_section_title
;
Structure prediction by ZEFSAII (Michael W. Deem and Ramdas Pophale) SiO2 
 PCOD8264937
Probable space group: C M C A
;
_chemical_formula_sum "Si O2"
_cell_formula_units_Z 64
_cell_length_a 21.494309
_cell_length_b 26.048084
_cell_length_c 4.969714
_cell_angle_alpha 90.000000
_cell_angle_beta 90.000000
_cell_angle_gamma 90.000000
_cell_volume 2782.471138
_symmetry_space_group_name_H-M "C M C A"
_symmetry_group_IT_number 64
_symmetry_cell_setting 'orthorhombic'
loop_
_space_group_symop_operation_xyz
x,y,z
-x,1/2-y,1/2+z
x,-y,-z
-x,1/2+y,1/2-z
-x,-y,-z
x,1/2+y,1/2-z
-x,y,z
x,1/2-y,1/2+z
1/2+x,1/2+y,z
1/2-x,-y,1/2+z
1/2+x,1/2-y,-z
1/2-x,y,1/2-z
1/2-x,1/2-y,-z
1/2+x,y,1/2-z
1/2-x,1/2+y,z
1/2+x,-y,1/2+z
loop_
_atom_site_type_symbol
_atom_site_label
_atom_site_fract_x
_atom_site_fract_y
_atom_site_fract_z
Si Si1 0.000000 0.084000 0.098655
Si Si2 0.250000 0.084993 0.250000
Si Si3 0.373702 0.715767 0.701752
Si Si4 0.093731 0.500000 0.500000
Si Si5 0.000000 0.652958 0.897236
Si Si6 0.664812 0.000000 0.000000
Si Si7 0.750000 0.347565 0.250000
O O1 0.941869 0.046719 0.141998
O O2 0.000000 0.131880 0.299204
O O3 0.000000 0.104265 0.795951
O O4 0.198623 0.048153 0.371317
O O5 0.274703 0.119432 0.496442
O O6 0.373664 0.765068 0.508005
O O7 0.437013 0.684760 0.647787
O O8 0.309931 0.684553 0.649917
O O9 0.129982 0.525598 0.748071
#
# Coordination Sequence:
#
# PCOD8264937 Si02
#       7
#     8   8  16   8   8   8   8
#     4  11  26  45  66 113 137 190 244 293 357 418
#     4  12  27  45  66 112 138 196 242 289 355 414
#     4  12  26  49  73 106 142 185 234 303 378 427
#     4  11  25  44  73  96 153 192 237 297 356 421
#     4  12  26  44  78 105 143 184 242 301 353 448
#     4  12  25  45  71  98 153 193 235 298 352 424
#     4  12  27  45  78 104 146 188 246 297 349 450
#
# _framework density 23.001138000000001
#
# number of rings (size 3 to 8) (size 9 to 14) (size 15 to 20)
#    0.000    0.250    0.000    9.000   10.500    2.000 
#    0.000    0.000    0.000    0.000    0.000    0.000 
#    0.000    0.000    0.000    0.000    0.000    0.000 
#
# Total GULP energy -396718.047347 kJ/mol
# GULP energy per Si atom -12397.438980 kJ/mol
# Density = 2.294879 g / cm^3
# Si number density = 23.001138 Si / 1000 Ang^3
#
#
#
# Elastic Constant Matrix: (Units=GPa)
#
#
# Indices 1 2 3 4 5 6 
#
# 1 170.7013 63.4647 48.9545 0.0000 0.0000 0.0000
# 2 63.4647 110.4417 41.8836 0.0000 0.0000 0.0000
# 3 48.9545 41.8836 152.0743 0.0000 0.0000 0.0000
# 4 0.0000 0.0000 0.0000 67.9270 0.0000 0.0000
# 5 0.0000 0.0000 0.0000 0.0000 24.5786 0.0000
# 6 0.0000 0.0000 0.0000 0.0000 0.0000 41.6763
#
#
#
# Elastic Compliance Matrix: (Units=1/GPa)
#
#
# Indices 1 2 3 4 5 6 
#
# 1 0.007711 -0.003897 -0.001409 0.000000 0.000000 0.000000
# 2 -0.003897 0.012080 -0.002073 0.000000 0.000000 0.000000
# 3 -0.001409 -0.002073 0.007600 0.000000 0.000000 0.000000
# 4 0.000000 0.000000 0.000000 0.014722 0.000000 0.000000
# 5 0.000000 0.000000 0.000000 0.000000 0.040686 0.000000
# 6 0.000000 0.000000 0.000000 0.000000 0.000000 0.023994
#
#
# Mechanical properties :
#
#
# Convention : Reuss Voigt Hill
#
# Bulk Modulus (GPa) = 79.14984 82.42480 80.78732
# Shear Modulus (GPa) = 39.75796 45.43068 42.59432
#
# Velocity S-wave (km/s) = 4.16206 4.44909 4.30796
# Velocity P-wave (km/s) = 7.58834 7.89338 7.74236
#
# Compressibility (1/GPa) = 0.01263426
#
# Stress axis : x y z
#
# Youngs Moduli (GPa) = 129.68415 82.78299 131.57663
#
# Poissons Ratio (x) = 0.32258 0.18540
# Poissons Ratio (y) = 0.50535 0.27270
# Poissons Ratio (z) = 0.18273 0.17157
#
# Static dielectric constant tensor:
#      x y z
#    x 4.278610 0.000000 0.000000 
#    y 0.000000 4.109150 0.000000 
#    z 0.000000 0.000000 4.155350 
# 
# 
# High freq. dielectric constant tensor:
#      x y z
#    x 1.916330 0.000000 0.000000 
#    y 0.000000 1.915380 0.000000 
#    z 0.000000 0.000000 1.935100 
# 
# From -- ./inp_files/2224.got.cif
#   From: 2010.03.12/outbox.cif.g09.slc.cpg/sg64_2_cif.got.tgz:2224.got - 2010.04.10 20:19:32.
