data_PCOD8264862
_publ_section_title
;
Structure prediction by ZEFSAII (Michael W. Deem and Ramdas Pophale) SiO2 
 PCOD8264862
Probable space group: C M C A
;
_chemical_formula_sum "Si O2"
_cell_formula_units_Z 80
_cell_length_a 16.413791
_cell_length_b 9.160220
_cell_length_c 25.909678
_cell_angle_alpha 90.000000
_cell_angle_beta 90.000000
_cell_angle_gamma 90.000000
_cell_volume 3895.622083
_symmetry_space_group_name_H-M "C M C A"
_symmetry_group_IT_number 64
_symmetry_cell_setting 'orthorhombic'
loop_
_space_group_symop_operation_xyz
x,y,z
-x,1/2-y,1/2+z
x,-y,-z
-x,1/2+y,1/2-z
-x,-y,-z
x,1/2+y,1/2-z
-x,y,z
x,1/2-y,1/2+z
1/2+x,1/2+y,z
1/2-x,-y,1/2+z
1/2+x,1/2-y,-z
1/2-x,y,1/2-z
1/2-x,1/2-y,-z
1/2+x,y,1/2-z
1/2-x,1/2+y,z
1/2+x,-y,1/2+z
loop_
_atom_site_type_symbol
_atom_site_label
_atom_site_fract_x
_atom_site_fract_y
_atom_site_fract_z
Si Si1 0.803527 0.044997 0.364605
Si Si2 0.293935 0.134001 0.464897
Si Si3 0.141985 0.554874 0.302724
Si Si4 0.093945 0.271285 0.794731
Si Si5 0.591339 0.233598 0.887520
O O1 0.767813 0.083090 0.420323
O O2 0.733688 0.027475 0.321784
O O3 0.865094 0.174107 0.348082
O O4 0.850893 0.892896 0.366101
O O5 0.250000 0.250000 0.500000
O O6 0.374997 0.206174 0.441637
O O7 0.322122 0.000000 0.500000
O O8 0.142548 0.653229 0.251791
O O9 0.099595 0.402040 0.289997
O O10 0.089689 0.635456 0.346540
O O11 0.000000 0.319682 0.793334
O O12 0.500000 0.174723 0.896207
#
# Coordination Sequence:
#
# PCOD8264862 Si02
#       5
#    16  16  16  16  16
#     4  11  24  42  67  91 125 168 216 257 316 389
#     4  11  23  44  68  92 127 170 215 264 320 387
#     4  11  24  42  63  91 129 173 210 253 316 387
#     4  12  24  40  62  93 129 164 206 262 315 370
#     4  11  23  42  67  98 129 165 214 272 323 375
#
# _framework density 20.535872999999999
#
# number of rings (size 3 to 8) (size 9 to 14) (size 15 to 20)
#    0.000    0.800    2.000    6.600    2.800    2.000 
#    0.000    3.000    0.000    0.000    0.000    0.000 
#    0.000    0.000    0.000    0.000    0.000    0.000 
#
# Total GULP energy -496250.577043 kJ/mol
# GULP energy per Si atom -12406.264426 kJ/mol
# Density = 2.048913 g / cm^3
# Si number density = 20.535873 Si / 1000 Ang^3
#
#
#
# Elastic Constant Matrix: (Units=GPa)
#
#
# Indices 1 2 3 4 5 6 
#
# 1 151.1491 44.4775 53.5859 0.0000 0.0000 0.0000
# 2 44.4775 113.5192 41.1238 0.0000 0.0000 0.0000
# 3 53.5859 41.1238 107.9999 0.0000 0.0000 0.0000
# 4 0.0000 0.0000 0.0000 47.7633 0.0000 0.0000
# 5 0.0000 0.0000 0.0000 0.0000 19.2479 0.0000
# 6 0.0000 0.0000 0.0000 0.0000 0.0000 31.3260
#
#
#
# Elastic Compliance Matrix: (Units=1/GPa)
#
#
# Indices 1 2 3 4 5 6 
#
# 1 0.008429 -0.002073 -0.003393 0.000000 0.000000 0.000000
# 2 -0.002073 0.010729 -0.003056 0.000000 0.000000 0.000000
# 3 -0.003393 -0.003056 0.012106 0.000000 0.000000 0.000000
# 4 0.000000 0.000000 0.000000 0.020937 0.000000 0.000000
# 5 0.000000 0.000000 0.000000 0.000000 0.051954 0.000000
# 6 0.000000 0.000000 0.000000 0.000000 0.000000 0.031922
#
#
# Mechanical properties :
#
#
# Convention : Reuss Voigt Hill
#
# Bulk Modulus (GPa) = 70.32873 72.33806 71.33340
# Shear Modulus (GPa) = 31.67335 35.23283 33.45309
#
# Velocity S-wave (km/s) = 3.93153 4.14656 4.04048
# Velocity P-wave (km/s) = 7.41150 7.63066 7.52188
#
# Compressibility (1/GPa) = 0.01421894
#
# Stress axis : x y z
#
# Youngs Moduli (GPa) = 118.63968 93.20779 82.60108
#
# Poissons Ratio (x) = 0.19326 0.28023
# Poissons Ratio (y) = 0.24600 0.25247
# Poissons Ratio (z) = 0.40250 0.28488
#
# Static dielectric constant tensor:
#      x y z
#    x 3.482620 0.000000 0.000000 
#    y 0.000000 3.849300 0.000000 
#    z 0.000000 0.000000 3.730610 
# 
# 
# High freq. dielectric constant tensor:
#      x y z
#    x 1.805490 0.000000 0.000000 
#    y 0.000000 1.817470 0.000000 
#    z 0.000000 0.000000 1.806360 
# 
# From -- ./inp_files/50285.got.cif
#   From: 2010.03.12/outbox.cif.g09.slc.cpg/sg64_26_cif.got.tgz:50285.got - 2010.04.10 20:19:32.
