data_PCOD8264031
_publ_section_title
;
Structure prediction by ZEFSAII (Michael W. Deem and Ramdas Pophale) SiO2 
 PCOD8264031
Probable space group: C M C A
;
_chemical_formula_sum "Si O2"
_cell_formula_units_Z 96
_cell_length_a 19.971340
_cell_length_b 8.854020
_cell_length_c 26.666176
_cell_angle_alpha 90.000000
_cell_angle_beta 90.000000
_cell_angle_gamma 90.000000
_cell_volume 4715.290405
_symmetry_space_group_name_H-M "C M C A"
_symmetry_group_IT_number 64
_symmetry_cell_setting 'orthorhombic'
loop_
_space_group_symop_operation_xyz
x,y,z
-x,1/2-y,1/2+z
x,-y,-z
-x,1/2+y,1/2-z
-x,-y,-z
x,1/2+y,1/2-z
-x,y,z
x,1/2-y,1/2+z
1/2+x,1/2+y,z
1/2-x,-y,1/2+z
1/2+x,1/2-y,-z
1/2-x,y,1/2-z
1/2-x,1/2-y,-z
1/2+x,y,1/2-z
1/2-x,1/2+y,z
1/2+x,-y,1/2+z
loop_
_atom_site_type_symbol
_atom_site_label
_atom_site_fract_x
_atom_site_fract_y
_atom_site_fract_z
Si Si1 0.332844 0.723768 0.707736
Si Si2 0.927572 0.944981 0.555585
Si Si3 0.691507 0.873482 0.804475
Si Si4 0.680710 0.553497 0.057232
Si Si5 0.810364 0.729815 0.087996
Si Si6 0.921134 0.753001 0.387500
O O1 0.313461 0.549049 0.708413
O O2 0.352245 0.777202 0.764109
O O3 0.268938 0.824839 0.693697
O O4 0.392034 0.759088 0.668815
O O5 0.904240 0.081606 0.591423
O O6 0.000000 0.882729 0.574386
O O7 0.937001 0.000000 0.500000
O O8 0.872189 0.813875 0.552224
O O9 0.664695 0.838660 0.859480
O O10 0.741612 0.668633 0.064874
O O11 0.696704 0.409337 0.091980
O O12 0.612321 0.630025 0.075794
O O13 0.674334 0.500000 0.000000
O O14 0.000000 0.720072 0.385997
#
# Coordination Sequence:
#
# PCOD8264031 Si02
#       6
#    16  16  16  16  16  16
#     4  11  22  40  63  97 120 162 207 259 323 378
#     4  10  21  40  64  88 122 168 209 252 315 385
#     4  11  22  37  68  92 124 157 209 262 319 385
#     4  12  25  39  64  96 131 170 217 267 323 382
#     4  12  22  39  64  94 127 160 211 270 319 379
#     4  11  24  43  63  89 132 171 210 267 323 381
#
# _framework density 20.359296000000001
#
# number of rings (size 3 to 8) (size 9 to 14) (size 15 to 20)
#    0.000    0.833    3.333    6.000    2.333    1.000 
#    0.000    1.667    0.000    0.000    0.000    0.000 
#    0.000    0.000    0.000    0.000    0.000    0.000 
#
# Total GULP energy -595170.809326 kJ/mol
# GULP energy per Si atom -12399.391861 kJ/mol
# Density = 2.031296 g / cm^3
# Si number density = 20.359296 Si / 1000 Ang^3
#
#
#
# Elastic Constant Matrix: (Units=GPa)
#
#
# Indices 1 2 3 4 5 6 
#
# 1 122.1095 49.2923 32.4121 0.0000 0.0000 0.0000
# 2 49.2923 108.2005 13.7728 0.0000 0.0000 0.0000
# 3 32.4121 13.7728 102.4595 0.0000 0.0000 0.0000
# 4 0.0000 0.0000 0.0000 34.4270 0.0000 0.0000
# 5 0.0000 0.0000 0.0000 0.0000 68.4287 0.0000
# 6 0.0000 0.0000 0.0000 0.0000 0.0000 28.6102
#
#
#
# Elastic Compliance Matrix: (Units=1/GPa)
#
#
# Indices 1 2 3 4 5 6 
#
# 1 0.010768 -0.004550 -0.002795 0.000000 0.000000 0.000000
# 2 -0.004550 0.011325 -0.000083 0.000000 0.000000 0.000000
# 3 -0.002795 -0.000083 0.010655 0.000000 0.000000 0.000000
# 4 0.000000 0.000000 0.000000 0.029047 0.000000 0.000000
# 5 0.000000 0.000000 0.000000 0.000000 0.014614 0.000000
# 6 0.000000 0.000000 0.000000 0.000000 0.000000 0.034953
#
#
# Mechanical properties :
#
#
# Convention : Reuss Voigt Hill
#
# Bulk Modulus (GPa) = 55.88683 58.19157 57.03920
# Shear Modulus (GPa) = 37.82691 42.11267 39.96979
#
# Velocity S-wave (km/s) = 4.31509 4.55298 4.43563
# Velocity P-wave (km/s) = 7.23440 7.50226 7.36955
#
# Compressibility (1/GPa) = 0.01789330
#
# Stress axis : x y z
#
# Youngs Moduli (GPa) = 92.86978 88.29743 93.85083
#
# Poissons Ratio (x) = 0.40172 0.26229
# Poissons Ratio (y) = 0.42253 0.00780
# Poissons Ratio (z) = 0.25954 0.00734
#
# Static dielectric constant tensor:
#      x y z
#    x 3.593280 0.000000 0.000000 
#    y 0.000000 3.816840 0.000000 
#    z 0.000000 0.000000 4.443320 
# 
# 
# High freq. dielectric constant tensor:
#      x y z
#    x 1.779840 0.000000 0.000000 
#    y 0.000000 1.802110 0.000000 
#    z 0.000000 0.000000 1.811180 
# 
# From -- ./inp_files/50660.got.cif
#   From: 2010.03.12/outbox.cif.g09.slc.cpg/sg64_26_cif.got.tgz:50660.got - 2010.04.10 20:19:32.
