data_PCOD8264711
_publ_section_title
;
Structure prediction by ZEFSAII (Michael W. Deem and Ramdas Pophale) SiO2 
 PCOD8264711
Probable space group: C M C A
;
_chemical_formula_sum "Si O2"
_cell_formula_units_Z 80
_cell_length_a 21.461795
_cell_length_b 13.807223
_cell_length_c 12.354983
_cell_angle_alpha 90.000000
_cell_angle_beta 90.000000
_cell_angle_gamma 90.000000
_cell_volume 3661.124802
_symmetry_space_group_name_H-M "C M C A"
_symmetry_group_IT_number 64
_symmetry_cell_setting 'orthorhombic'
loop_
_space_group_symop_operation_xyz
x,y,z
-x,1/2-y,1/2+z
x,-y,-z
-x,1/2+y,1/2-z
-x,-y,-z
x,1/2+y,1/2-z
-x,y,z
x,1/2-y,1/2+z
1/2+x,1/2+y,z
1/2-x,-y,1/2+z
1/2+x,1/2-y,-z
1/2-x,y,1/2-z
1/2-x,1/2-y,-z
1/2+x,y,1/2-z
1/2-x,1/2+y,z
1/2+x,-y,1/2+z
loop_
_atom_site_type_symbol
_atom_site_label
_atom_site_fract_x
_atom_site_fract_y
_atom_site_fract_z
Si Si1 0.072061 0.394225 0.904545
Si Si2 0.224928 0.385697 0.406249
Si Si3 0.369799 0.418928 0.364343
Si Si4 0.798382 0.906538 0.846987
Si Si5 0.861930 0.752949 0.220401
O O1 0.114197 0.469883 0.833171
O O2 0.087438 0.286994 0.863661
O O3 0.000000 0.419454 0.891039
O O4 0.091930 0.399348 0.027829
O O5 0.295852 0.404867 0.372499
O O6 0.183936 0.479126 0.364493
O O7 0.225781 0.370925 0.535403
O O8 0.199455 0.289418 0.346400
O O9 0.395242 0.344275 0.276043
O O10 0.750000 0.897957 0.750000
O O11 0.851018 0.829587 0.812109
#
# Coordination Sequence:
#
# PCOD8264711 Si02
#       5
#    16  16  16  16  16
#     4  11  25  43  61  84 118 165 215 250 285 351
#     4  11  23  37  60  95 129 158 194 248 317 382
#     4  11  22  39  63  88 119 158 200 250 307 361
#     4  11  21  36  56  85 129 165 191 235 302 373
#     4  12  23  37  61  93 123 157 198 251 312 366
#
# _framework density 21.851209000000001
#
# number of rings (size 3 to 8) (size 9 to 14) (size 15 to 20)
#    0.000    0.800    0.000   11.400    0.000    4.000 
#    0.000    0.000    0.000    0.000    0.000    8.400 
#    0.000    0.000    0.000    0.000    0.000    0.000 
#
# Total GULP energy -495713.335433 kJ/mol
# GULP energy per Si atom -12392.833386 kJ/mol
# Density = 2.180147 g / cm^3
# Si number density = 21.851209 Si / 1000 Ang^3
#
#
#
# Elastic Constant Matrix: (Units=GPa)
#
#
# Indices 1 2 3 4 5 6 
#
# 1 93.3108 50.1302 16.1791 0.0000 0.0000 0.0000
# 2 50.1302 122.6608 73.0448 0.0000 0.0000 0.0000
# 3 16.1791 73.0448 97.8050 0.0000 0.0000 0.0000
# 4 0.0000 0.0000 0.0000 44.2055 0.0000 0.0000
# 5 0.0000 0.0000 0.0000 0.0000 2.3385 0.0000
# 6 0.0000 0.0000 0.0000 0.0000 0.0000 25.1759
#
#
#
# Elastic Compliance Matrix: (Units=1/GPa)
#
#
# Indices 1 2 3 4 5 6 
#
# 1 0.014413 -0.008052 0.003629 0.000000 0.000000 0.000000
# 2 -0.008052 0.019180 -0.012993 0.000000 0.000000 0.000000
# 3 0.003629 -0.012993 0.019328 0.000000 0.000000 0.000000
# 4 0.000000 0.000000 0.000000 0.022622 0.000000 0.000000
# 5 0.000000 0.000000 0.000000 0.000000 0.427627 0.000000
# 6 0.000000 0.000000 0.000000 0.000000 0.000000 0.039721
#
#
# Mechanical properties :
#
#
# Convention : Reuss Voigt Hill
#
# Bulk Modulus (GPa) = 55.27758 65.83166 60.55462
# Shear Modulus (GPa) = 8.56529 25.97214 17.26872
#
# Velocity S-wave (km/s) = 1.98200 3.45133 2.81425
# Velocity P-wave (km/s) = 5.53082 6.78785 6.19132
#
# Compressibility (1/GPa) = 0.01809052
#
# Stress axis : x y z
#
# Youngs Moduli (GPa) = 69.38033 52.13637 51.73926
#
# Poissons Ratio (x) = 0.41979 -0.18776
# Poissons Ratio (y) = 0.55863 0.67224
# Poissons Ratio (z) = -0.25178 0.67740
#
# Static dielectric constant tensor:
#      x y z
#    x 3.394110 0.000000 0.000000 
#    y 0.000000 4.919110 0.000000 
#    z 0.000000 0.000000 4.366720 
# 
# 
# High freq. dielectric constant tensor:
#      x y z
#    x 1.799490 0.000000 0.000000 
#    y 0.000000 1.887280 0.000000 
#    z 0.000000 0.000000 1.879160 
# 
# From -- ./inp_files/18044.got.cif
#   From: 2010.03.12/outbox.cif.g09.slc.cpg/sg64_10_cif.got.tgz:18044.got - 2010.04.10 20:19:32.
