data_PCOD8264152
_publ_section_title
;
Structure prediction by ZEFSAII (Michael W. Deem and Ramdas Pophale) SiO2 
 PCOD8264152
Probable space group: C M C A
;
_chemical_formula_sum "Si O2"
_cell_formula_units_Z 56
_cell_length_a 17.823523
_cell_length_b 5.290973
_cell_length_c 25.129368
_cell_angle_alpha 90.000000
_cell_angle_beta 90.000000
_cell_angle_gamma 90.000000
_cell_volume 2369.794365
_symmetry_space_group_name_H-M "C M C A"
_symmetry_group_IT_number 64
_symmetry_cell_setting 'orthorhombic'
loop_
_space_group_symop_operation_xyz
x,y,z
-x,1/2-y,1/2+z
x,-y,-z
-x,1/2+y,1/2-z
-x,-y,-z
x,1/2+y,1/2-z
-x,y,z
x,1/2-y,1/2+z
1/2+x,1/2+y,z
1/2-x,-y,1/2+z
1/2+x,1/2-y,-z
1/2-x,y,1/2-z
1/2-x,1/2-y,-z
1/2+x,y,1/2-z
1/2-x,1/2+y,z
1/2+x,-y,1/2+z
loop_
_atom_site_type_symbol
_atom_site_label
_atom_site_fract_x
_atom_site_fract_y
_atom_site_fract_z
Si Si1 0.000000 0.280461 0.716481
Si Si2 0.282425 0.706521 0.809569
Si Si3 0.295091 0.488188 0.561881
Si Si4 0.583355 0.549022 0.353157
O O1 0.926111 0.213646 0.680527
O O2 0.000000 0.065809 0.763607
O O3 0.250000 0.685888 0.750000
O O4 0.255408 0.450936 0.839163
O O5 0.371682 0.751051 0.814874
O O6 0.315457 0.500000 0.500000
O O7 0.240036 0.717332 0.577228
O O8 0.374325 0.509677 0.592302
O O9 0.500000 0.664016 0.364696
#
# Coordination Sequence:
#
# PCOD8264152 Si02
#       4
#     8  16  16  16
#     4  10  26  40  59  86 135 170 210 258 318 374
#     4  10  22  36  56  80 115 158 205 248 301 368
#     4  10  22  44  70  96 128 166 212 266 327 391
#     4  10  24  41  64  94 126 171 211 272 315 378
#
# _framework density 23.630742000000001
#
# number of rings (size 3 to 8) (size 9 to 14) (size 15 to 20)
#    0.857    1.143    0.000    1.714    8.000    2.857 
#    0.000    0.000    0.000    5.143    0.000    0.000 
#    0.000    0.000    0.000    0.000    0.000    0.000 
#
# Total GULP energy -346917.765865 kJ/mol
# GULP energy per Si atom -12389.920209 kJ/mol
# Density = 2.357696 g / cm^3
# Si number density = 23.630742 Si / 1000 Ang^3
#
#
#
# Elastic Constant Matrix: (Units=GPa)
#
#
# Indices 1 2 3 4 5 6 
#
# 1 169.1461 13.0408 59.5752 0.0000 0.0000 0.0000
# 2 13.0408 75.6502 29.7809 0.0000 0.0000 0.0000
# 3 59.5752 29.7809 111.9832 0.0000 0.0000 0.0000
# 4 0.0000 0.0000 0.0000 31.0065 0.0000 0.0000
# 5 0.0000 0.0000 0.0000 0.0000 56.5653 0.0000
# 6 0.0000 0.0000 0.0000 0.0000 0.0000 16.4383
#
#
#
# Elastic Compliance Matrix: (Units=1/GPa)
#
#
# Indices 1 2 3 4 5 6 
#
# 1 0.007281 0.000301 -0.003954 0.000000 0.000000 0.000000
# 2 0.000301 0.014777 -0.004090 0.000000 0.000000 0.000000
# 3 -0.003954 -0.004090 0.012121 0.000000 0.000000 0.000000
# 4 0.000000 0.000000 0.000000 0.032251 0.000000 0.000000
# 5 0.000000 0.000000 0.000000 0.000000 0.017679 0.000000
# 6 0.000000 0.000000 0.000000 0.000000 0.000000 0.060833
#
#
# Mechanical properties :
#
#
# Convention : Reuss Voigt Hill
#
# Bulk Modulus (GPa) = 53.49263 62.39704 57.94483
# Shear Modulus (GPa) = 30.00130 37.76087 33.88108
#
# Velocity S-wave (km/s) = 3.56699 4.00178 3.79063
# Velocity P-wave (km/s) = 6.29687 6.91482 6.61307
#
# Compressibility (1/GPa) = 0.01869416
#
# Stress axis : x y z
#
# Youngs Moduli (GPa) = 137.33600 67.67313 82.50086
#
# Poissons Ratio (x) = -0.02039 0.32620
# Poissons Ratio (y) = -0.04138 0.33743
# Poissons Ratio (z) = 0.54301 0.27679
#
# Static dielectric constant tensor:
#      x y z
#    x 4.133840 0.000000 0.000000 
#    y 0.000000 5.322900 0.000000 
#    z 0.000000 0.000000 4.447090 
# 
# 
# High freq. dielectric constant tensor:
#      x y z
#    x 1.928970 0.000000 0.000000 
#    y 0.000000 1.943950 0.000000 
#    z 0.000000 0.000000 1.949240 
# 
# From -- ./inp_files/53480.got.cif
#   From: 2010.03.12/outbox.cif.g09.slc.cpg/sg64_27_cif.got.tgz:53480.got - 2010.04.10 20:19:32.
