data_PCOD8264065
_publ_section_title
;
Structure prediction by ZEFSAII (Michael W. Deem and Ramdas Pophale) SiO2 
 PCOD8264065
Probable space group: C M C A
;
_chemical_formula_sum "Si O2"
_cell_formula_units_Z 64
_cell_length_a 26.487383
_cell_length_b 13.361271
_cell_length_c 9.007983
_cell_angle_alpha 90.000000
_cell_angle_beta 90.000000
_cell_angle_gamma 90.000000
_cell_volume 3187.971146
_symmetry_space_group_name_H-M "C M C A"
_symmetry_group_IT_number 64
_symmetry_cell_setting 'orthorhombic'
loop_
_space_group_symop_operation_xyz
x,y,z
-x,1/2-y,1/2+z
x,-y,-z
-x,1/2+y,1/2-z
-x,-y,-z
x,1/2+y,1/2-z
-x,y,z
x,1/2-y,1/2+z
1/2+x,1/2+y,z
1/2-x,-y,1/2+z
1/2+x,1/2-y,-z
1/2-x,y,1/2-z
1/2-x,1/2-y,-z
1/2+x,y,1/2-z
1/2-x,1/2+y,z
1/2+x,-y,1/2+z
loop_
_atom_site_type_symbol
_atom_site_label
_atom_site_fract_x
_atom_site_fract_y
_atom_site_fract_z
Si Si1 0.799531 0.961855 0.835328
Si Si2 0.368368 0.921535 0.130762
Si Si3 0.440342 0.670696 0.833492
Si Si4 0.883119 0.796830 0.877359
O O1 0.750000 0.923160 0.750000
O O2 0.822209 0.053111 0.740119
O O3 0.838826 0.871476 0.835309
O O4 0.786009 0.000000 0.000000
O O5 0.420289 0.920056 0.228496
O O6 0.358521 0.809157 0.068216
O O7 0.374395 0.000000 0.000000
O O8 0.500000 0.671187 0.839214
O O9 0.418983 0.775558 0.765697
O O10 0.418167 0.654745 0.996872
#
# Coordination Sequence:
#
# PCOD8264065 Si02
#       4
#    16  16  16  16
#     4  12  24  44  67  98 132 177 226 275 334 388
#     4  10  23  42  65  97 135 169 219 277 319 399
#     4  10  21  40  69  96 131 176 217 272 332 390
#     4  10  22  43  66  94 138 169 223 273 329 395
#
# _framework density 20.075464
#
# number of rings (size 3 to 8) (size 9 to 14) (size 15 to 20)
#    1.500    0.000    2.500    3.000    0.000    1.500 
#    0.000    8.750    0.000    0.000    0.000    0.000 
#    0.000    0.000    0.000    0.000    0.000    0.000 
#
# Total GULP energy -396556.319818 kJ/mol
# GULP energy per Si atom -12392.384994 kJ/mol
# Density = 2.002977 g / cm^3
# Si number density = 20.075464 Si / 1000 Ang^3
#
#
#
# Elastic Constant Matrix: (Units=GPa)
#
#
# Indices 1 2 3 4 5 6 
#
# 1 163.8745 30.8047 68.9944 0.0000 0.0000 0.0000
# 2 30.8047 47.2057 14.3124 0.0000 0.0000 0.0000
# 3 68.9944 14.3124 105.6416 0.0000 0.0000 0.0000
# 4 0.0000 0.0000 0.0000 15.6743 0.0000 0.0000
# 5 0.0000 0.0000 0.0000 0.0000 39.4392 0.0000
# 6 0.0000 0.0000 0.0000 0.0000 0.0000 30.8430
#
#
#
# Elastic Compliance Matrix: (Units=1/GPa)
#
#
# Indices 1 2 3 4 5 6 
#
# 1 0.009204 -0.004363 -0.005420 0.000000 0.000000 0.000000
# 2 -0.004363 0.024160 -0.000424 0.000000 0.000000 0.000000
# 3 -0.005420 -0.000424 0.013063 0.000000 0.000000 0.000000
# 4 0.000000 0.000000 0.000000 0.063799 0.000000 0.000000
# 5 0.000000 0.000000 0.000000 0.000000 0.025355 0.000000
# 6 0.000000 0.000000 0.000000 0.000000 0.000000 0.032422
#
#
# Mechanical properties :
#
#
# Convention : Reuss Voigt Hill
#
# Bulk Modulus (GPa) = 38.44187 60.54942 49.49565
# Shear Modulus (GPa) = 25.36929 30.69867 28.03398
#
# Velocity S-wave (km/s) = 3.55871 3.91469 3.74094
# Velocity P-wave (km/s) = 6.00634 7.11755 6.58542
#
# Compressibility (1/GPa) = 0.02601330
#
# Stress axis : x y z
#
# Youngs Moduli (GPa) = 108.64304 41.39156 76.55002
#
# Poissons Ratio (x) = 0.18060 0.41492
# Poissons Ratio (y) = 0.47402 0.03243
# Poissons Ratio (z) = 0.58888 0.01753
#
# Static dielectric constant tensor:
#      x y z
#    x 3.443280 0.000000 0.000000 
#    y 0.000000 3.503830 0.000000 
#    z 0.000000 0.000000 3.792290 
# 
# 
# High freq. dielectric constant tensor:
#      x y z
#    x 1.772690 0.000000 0.000000 
#    y 0.000000 1.769490 0.000000 
#    z 0.000000 0.000000 1.800540 
# 
# From -- ./inp_files/7755.got.cif
#   From: 2010.03.12/outbox.cif.g09.slc.cpg/sg64_4_cif.got.tgz:7755.got - 2010.04.10 20:19:32.
