data_PCOD8264309
_publ_section_title
;
Structure prediction by ZEFSAII (Michael W. Deem and Ramdas Pophale) SiO2 
 PCOD8264309
Probable space group: C M C A
;
_chemical_formula_sum "Si O2"
_cell_formula_units_Z 56
_cell_length_a 27.222508
_cell_length_b 17.429968
_cell_length_c 5.382002
_cell_angle_alpha 90.000000
_cell_angle_beta 90.000000
_cell_angle_gamma 90.000000
_cell_volume 2553.692369
_symmetry_space_group_name_H-M "C M C A"
_symmetry_group_IT_number 64
_symmetry_cell_setting 'orthorhombic'
loop_
_space_group_symop_operation_xyz
x,y,z
-x,1/2-y,1/2+z
x,-y,-z
-x,1/2+y,1/2-z
-x,-y,-z
x,1/2+y,1/2-z
-x,y,z
x,1/2-y,1/2+z
1/2+x,1/2+y,z
1/2-x,-y,1/2+z
1/2+x,1/2-y,-z
1/2-x,y,1/2-z
1/2-x,1/2-y,-z
1/2+x,y,1/2-z
1/2-x,1/2+y,z
1/2+x,-y,1/2+z
loop_
_atom_site_type_symbol
_atom_site_label
_atom_site_fract_x
_atom_site_fract_y
_atom_site_fract_z
Si Si1 0.500000 0.049900 0.248302
Si Si2 0.750000 0.398385 0.250000
Si Si3 0.604091 0.920367 0.856415
Si Si4 0.676262 0.298899 0.490506
Si Si5 0.327992 0.500000 0.000000
O O1 0.549354 0.102335 0.240470
O O2 0.500000 0.000000 0.500000
O O3 0.500000 0.000000 0.000000
O O4 0.728051 0.345864 0.473553
O O5 0.705165 0.453204 0.188320
O O6 0.639463 0.933866 0.623233
O O7 0.628043 0.853534 0.022822
O O8 0.600552 0.000000 0.000000
O O9 0.674172 0.254247 0.748356
#
# Coordination Sequence:
#
# PCOD8264309 Si02
#       5
#     8   8  16  16   8
#     4  10  22  40  74 104 130 166 225 292 351 408
#     4  12  24  42  66 100 138 196 238 294 346 424
#     4  11  23  45  70 101 132 177 231 293 349 418
#     4  12  27  45  66  98 143 187 229 284 349 421
#     4  12  22  41  70 100 140 171 246 296 350 400
#
# _framework density 21.929030000000001
#
# number of rings (size 3 to 8) (size 9 to 14) (size 15 to 20)
#    0.000    0.571    4.286    4.286    0.000    2.286 
#    0.000    1.429    0.000    0.000    0.000    0.000 
#    0.000    0.000    0.000    0.000    0.000    0.000 
#
# Total GULP energy -347040.897698 kJ/mol
# GULP energy per Si atom -12394.317775 kJ/mol
# Density = 2.187912 g / cm^3
# Si number density = 21.929030 Si / 1000 Ang^3
#
#
#
# Elastic Constant Matrix: (Units=GPa)
#
#
# Indices 1 2 3 4 5 6 
#
# 1 185.6967 44.1936 30.0568 0.0000 0.0000 0.0000
# 2 44.1936 83.8847 25.2718 0.0000 0.0000 0.0000
# 3 30.0568 25.2718 95.2167 0.0000 0.0000 0.0000
# 4 0.0000 0.0000 0.0000 43.8564 0.0000 0.0000
# 5 0.0000 0.0000 0.0000 0.0000 35.4175 0.0000
# 6 0.0000 0.0000 0.0000 0.0000 0.0000 14.7598
#
#
#
# Elastic Compliance Matrix: (Units=1/GPa)
#
#
# Indices 1 2 3 4 5 6 
#
# 1 0.006281 -0.002947 -0.001200 0.000000 0.000000 0.000000
# 2 -0.002947 0.014340 -0.002876 0.000000 0.000000 0.000000
# 3 -0.001200 -0.002876 0.011645 0.000000 0.000000 0.000000
# 4 0.000000 0.000000 0.000000 0.022802 0.000000 0.000000
# 5 0.000000 0.000000 0.000000 0.000000 0.028235 0.000000
# 6 0.000000 0.000000 0.000000 0.000000 0.000000 0.067752
#
#
# Mechanical properties :
#
#
# Convention : Reuss Voigt Hill
#
# Bulk Modulus (GPa) = 54.88855 62.64916 58.76885
# Shear Modulus (GPa) = 29.21015 36.49180 32.85097
#
# Velocity S-wave (km/s) = 3.65366 4.08375 3.87468
# Velocity P-wave (km/s) = 6.54854 7.13211 6.84655
#
# Compressibility (1/GPa) = 0.01821874
#
# Stress axis : x y z
#
# Youngs Moduli (GPa) = 159.21400 69.73369 85.87716
#
# Poissons Ratio (x) = 0.20553 0.10309
# Poissons Ratio (y) = 0.46926 0.24696
# Poissons Ratio (z) = 0.19112 0.20053
#
# Static dielectric constant tensor:
#      x y z
#    x 4.953580 0.000000 0.000000 
#    y 0.000000 4.092500 0.000000 
#    z 0.000000 0.000000 3.990320 
# 
# 
# High freq. dielectric constant tensor:
#      x y z
#    x 1.879620 0.000000 0.000000 
#    y 0.000000 1.842690 0.000000 
#    z 0.000000 0.000000 1.867310 
# 
# From -- ./inp_files/2657.got.cif
#   From: 2010.03.12/outbox.cif.g09.slc.cpg/sg64_2_cif.got.tgz:2657.got - 2010.04.10 20:19:32.
