data_PCOD8264883
_publ_section_title
;
Structure prediction by ZEFSAII (Michael W. Deem and Ramdas Pophale) SiO2 
 PCOD8264883
Probable space group: C M C A
;
_chemical_formula_sum "Si O2"
_cell_formula_units_Z 72
_cell_length_a 23.021981
_cell_length_b 8.720862
_cell_length_c 17.561394
_cell_angle_alpha 90.000000
_cell_angle_beta 90.000000
_cell_angle_gamma 90.000000
_cell_volume 3525.827754
_symmetry_space_group_name_H-M "C M C A"
_symmetry_group_IT_number 64
_symmetry_cell_setting 'orthorhombic'
loop_
_space_group_symop_operation_xyz
x,y,z
-x,1/2-y,1/2+z
x,-y,-z
-x,1/2+y,1/2-z
-x,-y,-z
x,1/2+y,1/2-z
-x,y,z
x,1/2-y,1/2+z
1/2+x,1/2+y,z
1/2-x,-y,1/2+z
1/2+x,1/2-y,-z
1/2-x,y,1/2-z
1/2-x,1/2-y,-z
1/2+x,y,1/2-z
1/2-x,1/2+y,z
1/2+x,-y,1/2+z
loop_
_atom_site_type_symbol
_atom_site_label
_atom_site_fract_x
_atom_site_fract_y
_atom_site_fract_z
Si Si1 0.153694 0.500000 0.500000
Si Si2 0.435213 0.449886 0.622421
Si Si3 0.679156 0.905589 0.795144
Si Si4 0.783998 0.572619 0.652483
Si Si5 0.565068 0.255225 0.472822
O O1 0.194247 0.431398 0.434169
O O2 0.112960 0.625944 0.460821
O O3 0.500000 0.426793 0.656130
O O4 0.389069 0.413502 0.687584
O O5 0.427358 0.623168 0.594445
O O6 0.424384 0.333767 0.553764
O O7 0.704563 0.738521 0.812344
O O8 0.715189 0.031213 0.845268
O O9 0.685379 0.944062 0.705686
O O10 0.500000 0.185180 0.469670
#
# Coordination Sequence:
#
# PCOD8264883 Si02
#       5
#     8  16  16  16  16
#     4  12  23  38  62 104 119 168 212 266 302 382
#     4   9  19  39  66  88 122 170 211 253 310 375
#     4  11  23  46  61  93 126 170 205 264 311 389
#     4  11  26  40  68  89 132 165 207 256 329 357
#     4   9  19  36  60  92 130 167 202 260 316 365
#
# _framework density 20.420736000000002
#
# number of rings (size 3 to 8) (size 9 to 14) (size 15 to 20)
#    0.000    1.778    2.222    4.333    6.222    2.667 
#    0.000    3.333    0.000    0.000    0.000    0.000 
#    0.000    0.000    0.000    0.000    0.000    0.000 
#
# Total GULP energy -446322.618051 kJ/mol
# GULP energy per Si atom -12397.850501 kJ/mol
# Density = 2.037426 g / cm^3
# Si number density = 20.420736 Si / 1000 Ang^3
#
#
#
# Elastic Constant Matrix: (Units=GPa)
#
#
# Indices 1 2 3 4 5 6 
#
# 1 117.7948 31.7908 27.0216 0.0000 0.0000 0.0000
# 2 31.7908 98.7866 19.0828 0.0000 0.0000 0.0000
# 3 27.0216 19.0828 69.1163 0.0000 0.0000 0.0000
# 4 0.0000 0.0000 0.0000 19.6059 0.0000 0.0000
# 5 0.0000 0.0000 0.0000 0.0000 35.0294 0.0000
# 6 0.0000 0.0000 0.0000 0.0000 0.0000 28.2144
#
#
#
# Elastic Compliance Matrix: (Units=1/GPa)
#
#
# Indices 1 2 3 4 5 6 
#
# 1 0.009911 -0.002578 -0.003163 0.000000 0.000000 0.000000
# 2 -0.002578 0.011364 -0.002129 0.000000 0.000000 0.000000
# 3 -0.003163 -0.002129 0.016293 0.000000 0.000000 0.000000
# 4 0.000000 0.000000 0.000000 0.051005 0.000000 0.000000
# 5 0.000000 0.000000 0.000000 0.000000 0.028547 0.000000
# 6 0.000000 0.000000 0.000000 0.000000 0.000000 0.035443
#
#
# Mechanical properties :
#
#
# Convention : Reuss Voigt Hill
#
# Bulk Modulus (GPa) = 45.81673 49.05425 47.43549
# Shear Modulus (GPa) = 28.47706 30.42343 29.45024
#
# Velocity S-wave (km/s) = 3.73837 3.86402 3.80172
# Velocity P-wave (km/s) = 6.41241 6.63185 6.52305
#
# Compressibility (1/GPa) = 0.02182609
#
# Stress axis : x y z
#
# Youngs Moduli (GPa) = 100.90057 87.99750 61.37671
#
# Poissons Ratio (x) = 0.22690 0.19412
# Poissons Ratio (y) = 0.26017 0.13070
# Poissons Ratio (z) = 0.31913 0.18739
#
# Static dielectric constant tensor:
#      x y z
#    x 3.855310 0.000000 0.000000 
#    y 0.000000 3.745130 0.000000 
#    z 0.000000 0.000000 3.364210 
# 
# 
# High freq. dielectric constant tensor:
#      x y z
#    x 1.806730 0.000000 0.000000 
#    y 0.000000 1.803150 0.000000 
#    z 0.000000 0.000000 1.772930 
# 
# From -- ./inp_files/34839.got.cif
#   From: 2010.03.12/outbox.cif.g09.slc.cpg/sg64_18_cif.got.tgz:34839.got - 2010.04.10 20:19:32.
