data_PCOD8264839
_publ_section_title
;
Structure prediction by ZEFSAII (Michael W. Deem and Ramdas Pophale) SiO2 
 PCOD8264839
Probable space group: C M C A
;
_chemical_formula_sum "Si O2"
_cell_formula_units_Z 112
_cell_length_a 25.608804
_cell_length_b 13.981035
_cell_length_c 14.468394
_cell_angle_alpha 90.000000
_cell_angle_beta 90.000000
_cell_angle_gamma 90.000000
_cell_volume 5180.228847
_symmetry_space_group_name_H-M "C M C A"
_symmetry_group_IT_number 64
_symmetry_cell_setting 'orthorhombic'
loop_
_space_group_symop_operation_xyz
x,y,z
-x,1/2-y,1/2+z
x,-y,-z
-x,1/2+y,1/2-z
-x,-y,-z
x,1/2+y,1/2-z
-x,y,z
x,1/2-y,1/2+z
1/2+x,1/2+y,z
1/2-x,-y,1/2+z
1/2+x,1/2-y,-z
1/2-x,y,1/2-z
1/2-x,1/2-y,-z
1/2+x,y,1/2-z
1/2-x,1/2+y,z
1/2+x,-y,1/2+z
loop_
_atom_site_type_symbol
_atom_site_label
_atom_site_fract_x
_atom_site_fract_y
_atom_site_fract_z
Si Si1 0.264320 0.033061 0.395330
Si Si2 0.866846 0.806714 0.187438
Si Si3 0.059356 0.639255 0.255444
Si Si4 0.882318 0.493429 0.609767
Si Si5 0.687015 0.674167 0.445937
Si Si6 0.185184 0.620634 0.854348
Si Si7 0.900193 0.980378 0.596225
O O1 0.239574 0.140043 0.391670
O O2 0.261008 0.000000 0.500000
O O3 0.323478 0.034354 0.360127
O O4 0.230015 0.958235 0.336090
O O5 0.909668 0.734024 0.226715
O O6 0.895357 0.904693 0.156993
O O7 0.836203 0.771129 0.095828
O O8 0.820577 0.815992 0.262635
O O9 0.081481 0.589819 0.348312
O O10 0.061126 0.563855 0.171396
O O11 0.000000 0.668852 0.275019
O O12 0.891067 0.500000 0.500000
O O13 0.697856 0.686709 0.555772
O O14 0.646561 0.589078 0.432230
O O15 0.127038 0.574827 0.863187
O O16 0.931548 0.000000 0.500000
#
# Coordination Sequence:
#
# PCOD8264839 Si02
#       7
#    16  16  16  16  16  16  16
#     4   8  17  39  63  92 131 173 210 260 319 395
#     4  11  23  40  63  98 129 177 220 271 326 400
#     4  11  25  45  65  92 128 168 224 286 333 382
#     4  11  25  46  69  95 137 178 222 269 331 399
#     4   8  17  34  62  92 132 170 203 259 321 386
#     4   9  16  35  63  91 131 169 209 254 318 385
#     4   8  15  35  64  91 118 156 203 264 323 383
#
# _framework density 21.620664999999999
#
# number of rings (size 3 to 8) (size 9 to 14) (size 15 to 20)
#    0.000    2.571    1.429    1.714    2.000    1.714 
#    5.143    2.143    0.000    0.000    0.000    0.000 
#    0.000    0.000    0.000    0.000    0.000    0.000 
#
# Total GULP energy -694164.896971 kJ/mol
# GULP energy per Si atom -12395.801732 kJ/mol
# Density = 2.157146 g / cm^3
# Si number density = 21.620665 Si / 1000 Ang^3
#
#
#
# Elastic Constant Matrix: (Units=GPa)
#
#
# Indices 1 2 3 4 5 6 
#
# 1 98.0270 34.7447 32.2177 0.0000 0.0000 0.0000
# 2 34.7447 81.4955 34.9004 0.0000 0.0000 0.0000
# 3 32.2177 34.9004 116.5330 0.0000 0.0000 0.0000
# 4 0.0000 0.0000 0.0000 34.4116 0.0000 0.0000
# 5 0.0000 0.0000 0.0000 0.0000 23.8109 0.0000
# 6 0.0000 0.0000 0.0000 0.0000 0.0000 18.3579
#
#
#
# Elastic Compliance Matrix: (Units=1/GPa)
#
#
# Indices 1 2 3 4 5 6 
#
# 1 0.012460 -0.004402 -0.002127 0.000000 0.000000 0.000000
# 2 -0.004402 0.015631 -0.003464 0.000000 0.000000 0.000000
# 3 -0.002127 -0.003464 0.010207 0.000000 0.000000 0.000000
# 4 0.000000 0.000000 0.000000 0.029060 0.000000 0.000000
# 5 0.000000 0.000000 0.000000 0.000000 0.041998 0.000000
# 6 0.000000 0.000000 0.000000 0.000000 0.000000 0.054472
#
#
# Mechanical properties :
#
#
# Convention : Reuss Voigt Hill
#
# Bulk Modulus (GPa) = 54.60700 55.53123 55.06912
# Shear Modulus (GPa) = 26.32726 28.26227 27.29476
#
# Velocity S-wave (km/s) = 3.49333 3.61943 3.55694
# Velocity P-wave (km/s) = 6.44847 6.57321 6.51114
#
# Compressibility (1/GPa) = 0.01831267
#
# Stress axis : x y z
#
# Youngs Moduli (GPa) = 80.25475 63.97631 97.97439
#
# Poissons Ratio (x) = 0.28160 0.20836
# Poissons Ratio (y) = 0.35325 0.33942
# Poissons Ratio (z) = 0.17067 0.22164
#
# Static dielectric constant tensor:
#      x y z
#    x 3.585700 0.000000 0.000000 
#    y 0.000000 3.823470 0.000000 
#    z 0.000000 0.000000 4.092350 
# 
# 
# High freq. dielectric constant tensor:
#      x y z
#    x 1.812140 0.000000 0.000000 
#    y 0.000000 1.840130 0.000000 
#    z 0.000000 0.000000 1.862390 
# 
# From -- ./inp_files/27402.got.cif
#   From: 2010.03.12/outbox.cif.g09.slc.cpg/sg64_14_cif.got.tgz:27402.got - 2010.04.10 20:19:32.
