data_PCOD8264396
_publ_section_title
;
Structure prediction by ZEFSAII (Michael W. Deem and Ramdas Pophale) SiO2 
 PCOD8264396
Probable space group: C M C A
;
_chemical_formula_sum "Si O2"
_cell_formula_units_Z 80
_cell_length_a 29.557304
_cell_length_b 14.470379
_cell_length_c 9.574111
_cell_angle_alpha 90.000000
_cell_angle_beta 90.000000
_cell_angle_gamma 90.000000
_cell_volume 4094.898890
_symmetry_space_group_name_H-M "C M C A"
_symmetry_group_IT_number 64
_symmetry_cell_setting 'orthorhombic'
loop_
_space_group_symop_operation_xyz
x,y,z
-x,1/2-y,1/2+z
x,-y,-z
-x,1/2+y,1/2-z
-x,-y,-z
x,1/2+y,1/2-z
-x,y,z
x,1/2-y,1/2+z
1/2+x,1/2+y,z
1/2-x,-y,1/2+z
1/2+x,1/2-y,-z
1/2-x,y,1/2-z
1/2-x,1/2-y,-z
1/2+x,y,1/2-z
1/2-x,1/2+y,z
1/2+x,-y,1/2+z
loop_
_atom_site_type_symbol
_atom_site_label
_atom_site_fract_x
_atom_site_fract_y
_atom_site_fract_z
Si Si1 0.500000 0.595274 0.329561
Si Si2 0.299717 0.409302 0.089849
Si Si3 0.000000 0.379817 0.160092
Si Si4 0.134348 0.255620 0.520460
Si Si5 0.927667 0.237469 0.268028
Si Si6 0.197107 0.090754 0.589094
O O1 0.500000 0.619169 0.493282
O O2 0.500000 0.486973 0.290891
O O3 0.456532 0.643499 0.260030
O O4 0.332276 0.334185 0.027091
O O5 0.248417 0.372084 0.076957
O O6 0.313653 0.430158 0.249202
O O7 0.306431 0.500000 0.000000
O O8 0.955803 0.327965 0.219804
O O9 0.116754 0.277300 0.675115
O O10 0.089738 0.251375 0.425050
O O11 0.162062 0.161160 0.521588
O O12 0.190313 0.000000 0.500000
#
# Coordination Sequence:
#
# PCOD8264396 Si02
#       6
#     8  16   8  16  16  16
#     4  10  22  43  68  87 118 165 197 246 316 372
#     4  10  23  41  61  91 127 166 212 257 304 361
#     4  10  22  43  66  89 122 159 198 247 312 380
#     4  12  23  41  62  92 128 162 205 259 304 362
#     4  11  24  40  63  95 123 155 205 256 304 370
#     4  10  23  41  62  89 126 171 210 252 309 364
#
# _framework density 19.536501999999999
#
# number of rings (size 3 to 8) (size 9 to 14) (size 15 to 20)
#    0.000    1.400    4.000    0.600    2.800    3.200 
#    0.000    1.000    0.000    0.000    0.000    0.000 
#    0.000    0.000    0.000    0.000    0.000    0.000 
#
# Total GULP energy -496074.514776 kJ/mol
# GULP energy per Si atom -12401.862869 kJ/mol
# Density = 1.949204 g / cm^3
# Si number density = 19.536502 Si / 1000 Ang^3
#
#
#
# Elastic Constant Matrix: (Units=GPa)
#
#
# Indices 1 2 3 4 5 6 
#
# 1 99.7596 66.5119 30.3924 0.0000 0.0000 0.0000
# 2 66.5119 127.5333 39.9181 0.0000 0.0000 0.0000
# 3 30.3924 39.9181 54.5147 0.0000 0.0000 0.0000
# 4 0.0000 0.0000 0.0000 32.7373 0.0000 0.0000
# 5 0.0000 0.0000 0.0000 0.0000 41.9690 0.0000
# 6 0.0000 0.0000 0.0000 0.0000 0.0000 68.1748
#
#
#
# Elastic Compliance Matrix: (Units=1/GPa)
#
#
# Indices 1 2 3 4 5 6 
#
# 1 0.015901 -0.007159 -0.003623 0.000000 0.000000 0.000000
# 2 -0.007159 0.013395 -0.005818 0.000000 0.000000 0.000000
# 3 -0.003623 -0.005818 0.024623 0.000000 0.000000 0.000000
# 4 0.000000 0.000000 0.000000 0.030546 0.000000 0.000000
# 5 0.000000 0.000000 0.000000 0.000000 0.023827 0.000000
# 6 0.000000 0.000000 0.000000 0.000000 0.000000 0.014668
#
#
# Mechanical properties :
#
#
# Convention : Reuss Voigt Hill
#
# Bulk Modulus (GPa) = 48.26006 61.71693 54.98850
# Shear Modulus (GPa) = 30.66231 38.24190 34.45211
#
# Velocity S-wave (km/s) = 3.96597 4.42912 4.20393
# Velocity P-wave (km/s) = 6.76225 7.60364 7.19525
#
# Compressibility (1/GPa) = 0.02072107
#
# Stress axis : x y z
#
# Youngs Moduli (GPa) = 62.89053 74.65210 40.61165
#
# Poissons Ratio (x) = 0.53441 0.14713
# Poissons Ratio (y) = 0.45021 0.23627
# Poissons Ratio (z) = 0.22784 0.43431
#
# Static dielectric constant tensor:
#      x y z
#    x 3.716030 0.000000 0.000000 
#    y 0.000000 3.550830 0.000000 
#    z 0.000000 0.000000 3.664420 
# 
# 
# High freq. dielectric constant tensor:
#      x y z
#    x 1.773540 0.000000 0.000000 
#    y 0.000000 1.756940 0.000000 
#    z 0.000000 0.000000 1.773230 
# 
# From -- ./inp_files/19630.got.cif
#   From: 2010.03.12/outbox.cif.g09.slc.cpg/sg64_10_cif.got.tgz:19630.got - 2010.04.10 20:19:32.
