data_PCOD8264930
_publ_section_title
;
Structure prediction by ZEFSAII (Michael W. Deem and Ramdas Pophale) SiO2 
 PCOD8264930
Probable space group: C M C A
;
_chemical_formula_sum "Si O2"
_cell_formula_units_Z 72
_cell_length_a 17.010847
_cell_length_b 15.801408
_cell_length_c 13.151526
_cell_angle_alpha 90.000000
_cell_angle_beta 90.000000
_cell_angle_gamma 90.000000
_cell_volume 3535.068822
_symmetry_space_group_name_H-M "C M C A"
_symmetry_group_IT_number 64
_symmetry_cell_setting 'orthorhombic'
loop_
_space_group_symop_operation_xyz
x,y,z
-x,1/2-y,1/2+z
x,-y,-z
-x,1/2+y,1/2-z
-x,-y,-z
x,1/2+y,1/2-z
-x,y,z
x,1/2-y,1/2+z
1/2+x,1/2+y,z
1/2-x,-y,1/2+z
1/2+x,1/2-y,-z
1/2-x,y,1/2-z
1/2-x,1/2-y,-z
1/2+x,y,1/2-z
1/2-x,1/2+y,z
1/2+x,-y,1/2+z
loop_
_atom_site_type_symbol
_atom_site_label
_atom_site_fract_x
_atom_site_fract_y
_atom_site_fract_z
Si Si1 0.314202 0.000000 0.000000
Si Si2 0.301116 0.934237 0.350404
Si Si3 0.092569 0.400226 0.647687
Si Si4 0.089572 0.373114 0.876438
Si Si5 0.835461 0.214927 0.972227
O O1 0.363984 0.955220 0.913041
O O2 0.258709 0.067262 0.945138
O O3 0.250000 0.939793 0.250000
O O4 0.340373 0.842769 0.369367
O O5 0.364950 0.008755 0.357921
O O6 0.108688 0.358424 0.757708
O O7 0.128683 0.335778 0.567072
O O8 0.000000 0.414550 0.627451
O O9 0.000000 0.396905 0.892277
O O10 0.108939 0.293126 0.945756
O O11 0.750000 0.250000 0.000000
#
# Coordination Sequence:
#
# PCOD8264930 Si02
#       5
#     8  16  16  16  16
#     4  12  21  44  67  96 126 174 220 266 323 386
#     4  12  24  42  69  97 128 172 224 272 323 393
#     4  11  25  45  67  97 135 175 220 276 333 393
#     4  11  25  43  67  98 137 173 214 274 334 395
#     4  12  25  41  68  99 132 172 219 274 329 393
#
# _framework density 20.367353999999999
#
# number of rings (size 3 to 8) (size 9 to 14) (size 15 to 20)
#    0.000    0.444    6.667    1.000    3.111    2.667 
#    0.000    0.000    0.000    0.000    0.000    0.000 
#    0.000    0.000    0.000    0.000    0.000    0.000 
#
# Total GULP energy -446350.347101 kJ/mol
# GULP energy per Si atom -12398.620753 kJ/mol
# Density = 2.032100 g / cm^3
# Si number density = 20.367354 Si / 1000 Ang^3
#
#
#
# Elastic Constant Matrix: (Units=GPa)
#
#
# Indices 1 2 3 4 5 6 
#
# 1 112.1932 31.8558 58.2214 0.0000 0.0000 0.0000
# 2 31.8558 86.4949 32.8450 0.0000 0.0000 0.0000
# 3 58.2214 32.8450 102.1014 0.0000 0.0000 0.0000
# 4 0.0000 0.0000 0.0000 32.8957 0.0000 0.0000
# 5 0.0000 0.0000 0.0000 0.0000 34.3065 0.0000
# 6 0.0000 0.0000 0.0000 0.0000 0.0000 68.3357
#
#
#
# Elastic Compliance Matrix: (Units=1/GPa)
#
#
# Indices 1 2 3 4 5 6 
#
# 1 0.013034 -0.002253 -0.006707 0.000000 0.000000 0.000000
# 2 -0.002253 0.013560 -0.003077 0.000000 0.000000 0.000000
# 3 -0.006707 -0.003077 0.014609 0.000000 0.000000 0.000000
# 4 0.000000 0.000000 0.000000 0.030399 0.000000 0.000000
# 5 0.000000 0.000000 0.000000 0.000000 0.029149 0.000000
# 6 0.000000 0.000000 0.000000 0.000000 0.000000 0.014634
#
#
# Mechanical properties :
#
#
# Convention : Reuss Voigt Hill
#
# Bulk Modulus (GPa) = 58.38837 60.73710 59.56273
# Shear Modulus (GPa) = 34.44275 38.96541 36.70408
#
# Velocity S-wave (km/s) = 4.11673 4.37868 4.24972
# Velocity P-wave (km/s) = 7.16425 7.44643 7.30670
#
# Compressibility (1/GPa) = 0.01712670
#
# Stress axis : x y z
#
# Youngs Moduli (GPa) = 76.72427 73.74777 68.45187
#
# Poissons Ratio (x) = 0.16617 0.45913
# Poissons Ratio (y) = 0.17288 0.21064
# Poissons Ratio (z) = 0.51462 0.22693
#
# Static dielectric constant tensor:
#      x y z
#    x 3.839370 0.000000 0.000000 
#    y 0.000000 3.712280 0.000000 
#    z 0.000000 0.000000 4.053830 
# 
# 
# High freq. dielectric constant tensor:
#      x y z
#    x 1.806310 0.000000 0.000000 
#    y 0.000000 1.802190 0.000000 
#    z 0.000000 0.000000 1.807760 
# 
# From -- ./inp_files/15792.got.cif
#   From: 2010.03.12/outbox.cif.g09.slc.cpg/sg64_8_cif.got.tgz:15792.got - 2010.04.10 20:19:32.
