data_PCOD8264826
_publ_section_title
;
Structure prediction by ZEFSAII (Michael W. Deem and Ramdas Pophale) SiO2 
 PCOD8264826
Probable space group: C M C A
;
_chemical_formula_sum "Si O2"
_cell_formula_units_Z 80
_cell_length_a 16.185790
_cell_length_b 28.230090
_cell_length_c 8.729161
_cell_angle_alpha 90.000000
_cell_angle_beta 90.000000
_cell_angle_gamma 90.000000
_cell_volume 3988.583311
_symmetry_space_group_name_H-M "C M C A"
_symmetry_group_IT_number 64
_symmetry_cell_setting 'orthorhombic'
loop_
_space_group_symop_operation_xyz
x,y,z
-x,1/2-y,1/2+z
x,-y,-z
-x,1/2+y,1/2-z
-x,-y,-z
x,1/2+y,1/2-z
-x,y,z
x,1/2-y,1/2+z
1/2+x,1/2+y,z
1/2-x,-y,1/2+z
1/2+x,1/2-y,-z
1/2-x,y,1/2-z
1/2-x,1/2-y,-z
1/2+x,y,1/2-z
1/2-x,1/2+y,z
1/2+x,-y,1/2+z
loop_
_atom_site_type_symbol
_atom_site_label
_atom_site_fract_x
_atom_site_fract_y
_atom_site_fract_z
Si Si1 0.593890 0.895307 0.961814
Si Si2 0.661636 0.227418 0.537838
Si Si3 0.592540 0.804019 0.150739
Si Si4 0.751258 0.048374 0.072526
Si Si5 0.666747 0.363044 0.840063
O O1 0.500000 0.913000 0.989796
O O2 0.659111 0.937970 0.987072
O O3 0.598240 0.875384 0.787606
O O4 0.618875 0.854983 0.084638
O O5 0.750000 0.250000 0.500000
O O6 0.654485 0.213743 0.716428
O O7 0.595278 0.267112 0.490682
O O8 0.639336 0.180798 0.441347
O O9 0.500000 0.806342 0.216685
O O10 0.750000 0.037810 0.250000
O O11 0.815043 0.092079 0.046430
O O12 0.784076 0.000000 0.000000
O O13 0.750000 0.349787 0.750000
#
# Coordination Sequence:
#
# PCOD8264826 Si02
#       5
#    16  16  16  16  16
#     4   9  19  36  55  76 105 139 176 218 263 315
#     4  12  22  34  54  78 106 143 186 224 258 310
#     4  11  23  36  51  77 111 144 178 218 267 314
#     4   9  19  35  56  79 103 133 169 213 267 319
#     4   9  19  35  53  76 103 136 177 218 264 309
#
# _framework density 20.057245999999999
#
# number of rings (size 3 to 8) (size 9 to 14) (size 15 to 20)
#    0.000    2.400    0.000    6.000    0.000    5.200 
#    0.000    0.000    0.000    9.600    0.000    0.000 
#    0.000    0.000    0.000    0.000    0.000    0.000 
#
# Total GULP energy -495752.568514 kJ/mol
# GULP energy per Si atom -12393.814213 kJ/mol
# Density = 2.001159 g / cm^3
# Si number density = 20.057246 Si / 1000 Ang^3
#
#
#
# Elastic Constant Matrix: (Units=GPa)
#
#
# Indices 1 2 3 4 5 6 
#
# 1 65.2964 20.1769 24.2605 0.0000 0.0000 0.0000
# 2 20.1769 91.0493 27.7253 0.0000 0.0000 0.0000
# 3 24.2605 27.7253 62.4629 0.0000 0.0000 0.0000
# 4 0.0000 0.0000 0.0000 37.3371 0.0000 0.0000
# 5 0.0000 0.0000 0.0000 0.0000 24.6390 0.0000
# 6 0.0000 0.0000 0.0000 0.0000 0.0000 18.2326
#
#
#
# Elastic Compliance Matrix: (Units=1/GPa)
#
#
# Indices 1 2 3 4 5 6 
#
# 1 0.018265 -0.002182 -0.006125 0.000000 0.000000 0.000000
# 2 -0.002182 0.012960 -0.004905 0.000000 0.000000 0.000000
# 3 -0.006125 -0.004905 0.020566 0.000000 0.000000 0.000000
# 4 0.000000 0.000000 0.000000 0.026783 0.000000 0.000000
# 5 0.000000 0.000000 0.000000 0.000000 0.040586 0.000000
# 6 0.000000 0.000000 0.000000 0.000000 0.000000 0.054847
#
#
# Mechanical properties :
#
#
# Convention : Reuss Voigt Hill
#
# Bulk Modulus (GPa) = 39.42369 40.34823 39.88596
# Shear Modulus (GPa) = 23.93628 25.81812 24.87720
#
# Velocity S-wave (km/s) = 3.45831 3.59168 3.52562
# Velocity P-wave (km/s) = 5.97032 6.11232 6.04174
#
# Compressibility (1/GPa) = 0.02536546
#
# Stress axis : x y z
#
# Youngs Moduli (GPa) = 54.74951 77.15871 48.62445
#
# Poissons Ratio (x) = 0.16839 0.29785
# Poissons Ratio (y) = 0.11948 0.23850
# Poissons Ratio (z) = 0.33536 0.37847
#
# Static dielectric constant tensor:
#      x y z
#    x 3.490600 0.000000 0.000000 
#    y 0.000000 3.875620 0.000000 
#    z 0.000000 0.000000 3.580240 
# 
# 
# High freq. dielectric constant tensor:
#      x y z
#    x 1.767250 0.000000 0.000000 
#    y 0.000000 1.780890 0.000000 
#    z 0.000000 0.000000 1.773170 
# 
# From -- ./inp_files/7282.got.cif
#   From: 2010.03.12/outbox.cif.g09.slc.cpg/sg64_4_cif.got.tgz:7282.got - 2010.04.10 20:19:32.
