data_PCOD8264720
_publ_section_title
;
Structure prediction by ZEFSAII (Michael W. Deem and Ramdas Pophale) SiO2 
 PCOD8264720
Probable space group: C M C A
;
_chemical_formula_sum "Si O2"
_cell_formula_units_Z 64
_cell_length_a 17.505073
_cell_length_b 15.262851
_cell_length_c 12.979042
_cell_angle_alpha 90.000000
_cell_angle_beta 90.000000
_cell_angle_gamma 90.000000
_cell_volume 3467.705670
_symmetry_space_group_name_H-M "C M C A"
_symmetry_group_IT_number 64
_symmetry_cell_setting 'orthorhombic'
loop_
_space_group_symop_operation_xyz
x,y,z
-x,1/2-y,1/2+z
x,-y,-z
-x,1/2+y,1/2-z
-x,-y,-z
x,1/2+y,1/2-z
-x,y,z
x,1/2-y,1/2+z
1/2+x,1/2+y,z
1/2-x,-y,1/2+z
1/2+x,1/2-y,-z
1/2-x,y,1/2-z
1/2-x,1/2-y,-z
1/2+x,y,1/2-z
1/2-x,1/2+y,z
1/2+x,-y,1/2+z
loop_
_atom_site_type_symbol
_atom_site_label
_atom_site_fract_x
_atom_site_fract_y
_atom_site_fract_z
Si Si1 0.835548 0.903095 0.528479
Si Si2 0.087164 0.867075 0.740676
Si Si3 0.343266 0.083859 0.437628
Si Si4 0.086190 0.242063 0.587345
O O1 0.877770 0.865651 0.628171
O O2 0.746133 0.901702 0.547493
O O3 0.858104 0.839571 0.434033
O O4 0.864441 0.000000 0.500000
O O5 0.135986 0.931365 0.816399
O O6 0.090713 0.768790 0.791047
O O7 0.000000 0.900449 0.736021
O O8 0.386676 0.171592 0.477373
O O9 0.372951 0.000000 0.500000
O O10 0.000000 0.217526 0.554375
#
# Coordination Sequence:
#
# PCOD8264720 Si02
#       4
#    16  16  16  16
#     4  11  21  37  60  85 116 150 187 235 285 338
#     4   9  20  36  55  81 114 148 186 231 277 333
#     4   9  19  37  59  83 113 147 192 234 281 334
#     4   9  20  36  56  83 113 149 188 228 278 336
#
# _framework density 18.456005999999999
#
# number of rings (size 3 to 8) (size 9 to 14) (size 15 to 20)
#    1.500    1.000    0.000    2.250    0.000    4.000 
#    4.500    0.000    5.500    0.000    0.000    0.000 
#    0.000    0.000    0.000    0.000    0.000    0.000 
#
# Total GULP energy -396450.955043 kJ/mol
# GULP energy per Si atom -12389.092345 kJ/mol
# Density = 1.841400 g / cm^3
# Si number density = 18.456006 Si / 1000 Ang^3
#
#
#
# Elastic Constant Matrix: (Units=GPa)
#
#
# Indices 1 2 3 4 5 6 
#
# 1 71.7412 15.4350 18.3588 0.0000 0.0000 0.0000
# 2 15.4350 92.9351 20.4362 0.0000 0.0000 0.0000
# 3 18.3588 20.4362 69.4418 0.0000 0.0000 0.0000
# 4 0.0000 0.0000 0.0000 22.4848 0.0000 0.0000
# 5 0.0000 0.0000 0.0000 0.0000 26.4119 0.0000
# 6 0.0000 0.0000 0.0000 0.0000 0.0000 15.0117
#
#
#
# Elastic Compliance Matrix: (Units=1/GPa)
#
#
# Indices 1 2 3 4 5 6 
#
# 1 0.015214 -0.001756 -0.003505 0.000000 0.000000 0.000000
# 2 -0.001756 0.011707 -0.002981 0.000000 0.000000 0.000000
# 3 -0.003505 -0.002981 0.016205 0.000000 0.000000 0.000000
# 4 0.000000 0.000000 0.000000 0.044474 0.000000 0.000000
# 5 0.000000 0.000000 0.000000 0.000000 0.037862 0.000000
# 6 0.000000 0.000000 0.000000 0.000000 0.000000 0.066615
#
#
# Mechanical properties :
#
#
# Convention : Reuss Voigt Hill
#
# Bulk Modulus (GPa) = 37.53641 38.06423 37.80032
# Shear Modulus (GPa) = 22.99464 24.77422 23.88443
#
# Velocity S-wave (km/s) = 3.53358 3.66777 3.60130
# Velocity P-wave (km/s) = 6.08529 6.21336 6.14966
#
# Compressibility (1/GPa) = 0.02664080
#
# Stress axis : x y z
#
# Youngs Moduli (GPa) = 65.72966 85.41622 61.71073
#
# Poissons Ratio (x) = 0.14999 0.21632
# Poissons Ratio (y) = 0.11542 0.18397
# Poissons Ratio (z) = 0.23041 0.25464
#
# Static dielectric constant tensor:
#      x y z
#    x 3.401910 0.000000 0.000000 
#    y 0.000000 3.285320 0.000000 
#    z 0.000000 0.000000 3.181560 
# 
# 
# High freq. dielectric constant tensor:
#      x y z
#    x 1.730440 0.000000 0.000000 
#    y 0.000000 1.698480 0.000000 
#    z 0.000000 0.000000 1.695860 
# 
# From -- ./inp_files/23382.got.cif
#   From: 2010.03.12/outbox.cif.g09.slc.cpg/sg64_12_cif.got.tgz:23382.got - 2010.04.10 20:19:32.
