data_PCOD8264210
_publ_section_title
;
Structure prediction by ZEFSAII (Michael W. Deem and Ramdas Pophale) SiO2 
 PCOD8264210
Probable space group: C M C A
;
_chemical_formula_sum "Si O2"
_cell_formula_units_Z 112
_cell_length_a 16.907052
_cell_length_b 28.521622
_cell_length_c 11.024913
_cell_angle_alpha 90.000000
_cell_angle_beta 90.000000
_cell_angle_gamma 90.000000
_cell_volume 5316.395470
_symmetry_space_group_name_H-M "C M C A"
_symmetry_group_IT_number 64
_symmetry_cell_setting 'orthorhombic'
loop_
_space_group_symop_operation_xyz
x,y,z
-x,1/2-y,1/2+z
x,-y,-z
-x,1/2+y,1/2-z
-x,-y,-z
x,1/2+y,1/2-z
-x,y,z
x,1/2-y,1/2+z
1/2+x,1/2+y,z
1/2-x,-y,1/2+z
1/2+x,1/2-y,-z
1/2-x,y,1/2-z
1/2-x,1/2-y,-z
1/2+x,y,1/2-z
1/2-x,1/2+y,z
1/2+x,-y,1/2+z
loop_
_atom_site_type_symbol
_atom_site_label
_atom_site_fract_x
_atom_site_fract_y
_atom_site_fract_z
Si Si1 0.799403 0.747866 0.374301
Si Si2 0.657538 0.024198 0.738560
Si Si3 0.592130 0.108183 0.612452
Si Si4 0.339208 0.078165 0.221375
Si Si5 0.410689 0.166979 0.834317
Si Si6 0.408956 0.157437 0.365211
Si Si7 0.589012 0.572718 0.529032
O O1 0.750000 0.751468 0.250000
O O2 0.750000 0.750000 0.500000
O O3 0.858315 0.791050 0.382722
O O4 0.850875 0.701089 0.363454
O O5 0.750000 0.031509 0.750000
O O6 0.629911 0.056923 0.627899
O O7 0.613775 0.038960 0.861777
O O8 0.638277 0.969852 0.707275
O O9 0.500000 0.102664 0.638531
O O10 0.625347 0.146042 0.709240
O O11 0.613170 0.126448 0.480961
O O12 0.250000 0.093557 0.250000
O O13 0.395487 0.122051 0.253326
O O14 0.349456 0.066107 0.079978
O O15 0.500000 0.185576 0.813987
O O16 0.408385 0.126919 0.934770
O O17 0.500000 0.174619 0.365959
O O18 0.500000 0.558974 0.489070
#
# Coordination Sequence:
#
# PCOD8264210 Si02
#       7
#    16  16  16  16  16  16  16
#     4  12  27  44  67  98 130 168 216 266 331 395
#     4  10  22  38  63  95 127 172 215 270 326 384
#     4   9  20  40  64  91 122 163 216 264 317 387
#     4  11  25  40  60  93 136 170 215 269 329 385
#     4   9  20  41  67  92 121 163 213 264 318 385
#     4  11  25  43  64  92 131 171 210 267 329 393
#     4  10  22  41  67  95 127 173 225 268 319 392
#
# _framework density 21.066905999999999
#
# number of rings (size 3 to 8) (size 9 to 14) (size 15 to 20)
#    0.000    1.714    0.000    3.857    6.000    6.857 
#    0.000    2.857    0.000    0.000    0.000    0.000 
#    0.000    0.000    0.000    0.000    0.000    0.000 
#
# Total GULP energy -694395.328464 kJ/mol
# GULP energy per Si atom -12399.916580 kJ/mol
# Density = 2.101896 g / cm^3
# Si number density = 21.066906 Si / 1000 Ang^3
#
#
#
# Elastic Constant Matrix: (Units=GPa)
#
#
# Indices 1 2 3 4 5 6 
#
# 1 92.8518 45.7856 28.4644 0.0000 0.0000 0.0000
# 2 45.7856 127.2629 17.6868 0.0000 0.0000 0.0000
# 3 28.4644 17.6868 73.8501 0.0000 0.0000 0.0000
# 4 0.0000 0.0000 0.0000 16.0894 0.0000 0.0000
# 5 0.0000 0.0000 0.0000 0.0000 34.1979 0.0000
# 6 0.0000 0.0000 0.0000 0.0000 0.0000 128.3643
#
#
#
# Elastic Compliance Matrix: (Units=1/GPa)
#
#
# Indices 1 2 3 4 5 6 
#
# 1 0.014381 -0.004555 -0.004452 0.000000 0.000000 0.000000
# 2 -0.004555 0.009571 -0.000537 0.000000 0.000000 0.000000
# 3 -0.004452 -0.000537 0.015385 0.000000 0.000000 0.000000
# 4 0.000000 0.000000 0.000000 0.062153 0.000000 0.000000
# 5 0.000000 0.000000 0.000000 0.000000 0.029242 0.000000
# 6 0.000000 0.000000 0.000000 0.000000 0.000000 0.007790
#
#
# Mechanical properties :
#
#
# Convention : Reuss Voigt Hill
#
# Bulk Modulus (GPa) = 49.38239 53.09315 51.23777
# Shear Modulus (GPa) = 30.42122 49.19885 39.81003
#
# Velocity S-wave (km/s) = 3.80416 4.83780 4.35178
# Velocity P-wave (km/s) = 6.54119 7.51416 7.04449
#
# Compressibility (1/GPa) = 0.02025013
#
# Stress axis : x y z
#
# Youngs Moduli (GPa) = 69.53744 104.48111 64.99681
#
# Poissons Ratio (x) = 0.47592 0.28936
# Poissons Ratio (y) = 0.31675 0.03487
# Poissons Ratio (z) = 0.30958 0.05606
#
# Static dielectric constant tensor:
#      x y z
#    x 3.832200 0.000000 0.000000 
#    y 0.000000 3.943680 0.000000 
#    z 0.000000 0.000000 3.790140 
# 
# 
# High freq. dielectric constant tensor:
#      x y z
#    x 1.829100 0.000000 0.000000 
#    y 0.000000 1.836940 0.000000 
#    z 0.000000 0.000000 1.822310 
# 
# From -- ./inp_files/15010.got.cif
#   From: 2010.03.12/outbox.cif.g09.slc.cpg/sg64_8_cif.got.tgz:15010.got - 2010.04.10 20:19:32.
