data_PCOD8264437
_publ_section_title
;
Structure prediction by ZEFSAII (Michael W. Deem and Ramdas Pophale) SiO2 
 PCOD8264437
Probable space group: C M C A
;
_chemical_formula_sum "Si O2"
_cell_formula_units_Z 96
_cell_length_a 17.184591
_cell_length_b 20.103575
_cell_length_c 13.924005
_cell_angle_alpha 90.000000
_cell_angle_beta 90.000000
_cell_angle_gamma 90.000000
_cell_volume 4810.349873
_symmetry_space_group_name_H-M "C M C A"
_symmetry_group_IT_number 64
_symmetry_cell_setting 'orthorhombic'
loop_
_space_group_symop_operation_xyz
x,y,z
-x,1/2-y,1/2+z
x,-y,-z
-x,1/2+y,1/2-z
-x,-y,-z
x,1/2+y,1/2-z
-x,y,z
x,1/2-y,1/2+z
1/2+x,1/2+y,z
1/2-x,-y,1/2+z
1/2+x,1/2-y,-z
1/2-x,y,1/2-z
1/2-x,1/2-y,-z
1/2+x,y,1/2-z
1/2-x,1/2+y,z
1/2+x,-y,1/2+z
loop_
_atom_site_type_symbol
_atom_site_label
_atom_site_fract_x
_atom_site_fract_y
_atom_site_fract_z
Si Si1 0.664086 0.421265 0.209404
Si Si2 0.590345 0.440696 0.814949
Si Si3 0.089823 0.307042 0.795561
Si Si4 0.910281 0.686535 0.836377
Si Si5 0.307844 0.924989 0.506409
Si Si6 0.807010 0.310265 0.978667
O O1 0.750000 0.410973 0.250000
O O2 0.637163 0.496741 0.226875
O O3 0.604451 0.373065 0.262501
O O4 0.661765 0.401519 0.097374
O O5 0.500000 0.458483 0.824042
O O6 0.605431 0.381198 0.741226
O O7 0.619726 0.421399 0.920966
O O8 0.114279 0.256256 0.711651
O O9 0.000000 0.296461 0.823812
O O10 0.141438 0.291254 0.887595
O O11 0.861262 0.675075 0.931367
O O12 0.000000 0.686835 0.866069
O O13 0.240103 0.877300 0.544517
O O14 0.274014 0.000000 0.500000
O O15 0.750000 0.250000 0.000000
#
# Coordination Sequence:
#
# PCOD8264437 Si02
#       6
#    16  16  16  16  16  16
#     4  11  22  40  63  93 127 163 208 255 309 369
#     4  10  23  42  64  93 125 165 209 256 312 365
#     4  10  24  42  63  89 124 163 206 256 311 370
#     4  11  24  42  63  89 124 164 206 254 309 375
#     4  10  23  38  61  92 124 161 203 260 301 361
#     4  12  24  39  62  92 122 163 206 254 311 370
#
# _framework density 19.956969000000001
#
# number of rings (size 3 to 8) (size 9 to 14) (size 15 to 20)
#    0.000    1.333    1.667    3.000    4.667    5.000 
#    0.000    4.167    0.000    4.000    0.000    0.000 
#    0.000    0.000    0.000    0.000    0.000    0.000 
#
# Total GULP energy -595515.866834 kJ/mol
# GULP energy per Si atom -12406.580559 kJ/mol
# Density = 1.991155 g / cm^3
# Si number density = 19.956969 Si / 1000 Ang^3
#
#
#
# Elastic Constant Matrix: (Units=GPa)
#
#
# Indices 1 2 3 4 5 6 
#
# 1 68.2129 29.8813 28.2358 0.0000 0.0000 0.0000
# 2 29.8813 76.6656 5.3479 0.0000 0.0000 0.0000
# 3 28.2358 5.3479 61.8471 0.0000 0.0000 0.0000
# 4 0.0000 0.0000 0.0000 27.3251 0.0000 0.0000
# 5 0.0000 0.0000 0.0000 0.0000 42.5671 0.0000
# 6 0.0000 0.0000 0.0000 0.0000 0.0000 36.7380
#
#
#
# Elastic Compliance Matrix: (Units=1/GPa)
#
#
# Indices 1 2 3 4 5 6 
#
# 1 0.022006 -0.007924 -0.009362 0.000000 0.000000 0.000000
# 2 -0.007924 0.015976 0.002236 0.000000 0.000000 0.000000
# 3 -0.009362 0.002236 0.020250 0.000000 0.000000 0.000000
# 4 0.000000 0.000000 0.000000 0.036596 0.000000 0.000000
# 5 0.000000 0.000000 0.000000 0.000000 0.023492 0.000000
# 6 0.000000 0.000000 0.000000 0.000000 0.000000 0.027220
#
#
# Mechanical properties :
#
#
# Convention : Reuss Voigt Hill
#
# Bulk Modulus (GPa) = 35.54547 37.07284 36.30915
# Shear Modulus (GPa) = 27.02447 30.87675 28.95061
#
# Velocity S-wave (km/s) = 3.68385 3.93767 3.81287
# Velocity P-wave (km/s) = 5.99534 6.26820 6.13329
#
# Compressibility (1/GPa) = 0.02813298
#
# Stress axis : x y z
#
# Youngs Moduli (GPa) = 45.44129 62.59301 49.38388
#
# Poissons Ratio (x) = 0.49600 0.46232
# Poissons Ratio (y) = 0.36009 -0.11044
# Poissons Ratio (z) = 0.42541 -0.13998
#
# Static dielectric constant tensor:
#      x y z
#    x 3.686240 0.000000 0.000000 
#    y 0.000000 3.791470 0.000000 
#    z 0.000000 0.000000 3.644610 
# 
# 
# High freq. dielectric constant tensor:
#      x y z
#    x 1.782810 0.000000 0.000000 
#    y 0.000000 1.792110 0.000000 
#    z 0.000000 0.000000 1.784520 
# 
# From -- ./inp_files/23870.got.cif
#   From: 2010.03.12/outbox.cif.g09.slc.cpg/sg64_12_cif.got.tgz:23870.got - 2010.04.10 20:19:32.
