data_PCOD8264764
_publ_section_title
;
Structure prediction by ZEFSAII (Michael W. Deem and Ramdas Pophale) SiO2 
 PCOD8264764
Probable space group: C M C A
;
_chemical_formula_sum "Si O2"
_cell_formula_units_Z 96
_cell_length_a 23.651955
_cell_length_b 8.421970
_cell_length_c 22.992228
_cell_angle_alpha 90.000000
_cell_angle_beta 90.000000
_cell_angle_gamma 90.000000
_cell_volume 4579.961124
_symmetry_space_group_name_H-M "C M C A"
_symmetry_group_IT_number 64
_symmetry_cell_setting 'orthorhombic'
loop_
_space_group_symop_operation_xyz
x,y,z
-x,1/2-y,1/2+z
x,-y,-z
-x,1/2+y,1/2-z
-x,-y,-z
x,1/2+y,1/2-z
-x,y,z
x,1/2-y,1/2+z
1/2+x,1/2+y,z
1/2-x,-y,1/2+z
1/2+x,1/2-y,-z
1/2-x,y,1/2-z
1/2-x,1/2-y,-z
1/2+x,y,1/2-z
1/2-x,1/2+y,z
1/2+x,-y,1/2+z
loop_
_atom_site_type_symbol
_atom_site_label
_atom_site_fract_x
_atom_site_fract_y
_atom_site_fract_z
Si Si1 0.799281 0.348132 0.873250
Si Si2 0.386588 0.580128 0.132302
Si Si3 0.888115 0.576086 0.831269
Si Si4 0.206757 0.035164 0.935892
Si Si5 0.500000 0.949862 0.330857
Si Si6 0.500000 0.592115 0.289217
Si Si7 0.309133 0.094157 0.723572
O O1 0.855437 0.454872 0.873583
O O2 0.799703 0.223537 0.926372
O O3 0.747369 0.467633 0.884654
O O4 0.795702 0.257733 0.811180
O O5 0.402747 0.764295 0.134083
O O6 0.354553 0.547031 0.071395
O O7 0.443319 0.474312 0.131804
O O8 0.342512 0.529863 0.182973
O O9 0.945285 0.492182 0.813696
O O10 0.851058 0.631010 0.776440
O O11 0.230795 0.000000 0.000000
O O12 0.500000 0.082394 0.280374
O O13 0.500000 0.776272 0.303753
O O14 0.250000 0.025900 0.750000
#
# Coordination Sequence:
#
# PCOD8264764 Si02
#       7
#    16  16  16  16   8   8  16
#     4  11  24  39  60  93 127 166 214 260 321 376
#     4  11  23  39  61  87 121 160 211 257 317 371
#     4  12  23  38  60  92 128 169 205 251 308 386
#     4  11  23  43  66  91 122 165 218 279 328 372
#     4  12  24  42  59  91 126 171 213 259 302 380
#     4  12  24  38  60  89 128 171 211 239 304 376
#     4  11  22  36  56  87 127 168 200 248 304 385
#
# _framework density 20.960875999999999
#
# number of rings (size 3 to 8) (size 9 to 14) (size 15 to 20)
#    0.000    0.667    1.667    9.000    0.000    2.667 
#    0.000    0.417    0.000    0.000    0.000    4.083 
#    0.000    0.000    0.000    0.000    0.000    0.000 
#
# Total GULP energy -595202.475989 kJ/mol
# GULP energy per Si atom -12400.051583 kJ/mol
# Density = 2.091317 g / cm^3
# Si number density = 20.960876 Si / 1000 Ang^3
#
#
#
# Elastic Constant Matrix: (Units=GPa)
#
#
# Indices 1 2 3 4 5 6 
#
# 1 152.1447 34.1425 30.4236 0.0000 0.0000 0.0000
# 2 34.1425 110.4883 20.6328 0.0000 0.0000 0.0000
# 3 30.4236 20.6328 54.8478 0.0000 0.0000 0.0000
# 4 0.0000 0.0000 0.0000 21.5646 0.0000 0.0000
# 5 0.0000 0.0000 0.0000 0.0000 14.2646 0.0000
# 6 0.0000 0.0000 0.0000 0.0000 0.0000 39.2804
#
#
#
# Elastic Compliance Matrix: (Units=1/GPa)
#
#
# Indices 1 2 3 4 5 6 
#
# 1 0.007677 -0.001696 -0.003620 0.000000 0.000000 0.000000
# 2 -0.001696 0.010109 -0.002862 0.000000 0.000000 0.000000
# 3 -0.003620 -0.002862 0.021317 0.000000 0.000000 0.000000
# 4 0.000000 0.000000 0.000000 0.046372 0.000000 0.000000
# 5 0.000000 0.000000 0.000000 0.000000 0.070104 0.000000
# 6 0.000000 0.000000 0.000000 0.000000 0.000000 0.025458
#
#
# Mechanical properties :
#
#
# Convention : Reuss Voigt Hill
#
# Bulk Modulus (GPa) = 43.96325 54.20875 49.08600
# Shear Modulus (GPa) = 24.39293 30.50739 27.45016
#
# Velocity S-wave (km/s) = 3.41506 3.81917 3.62275
# Velocity P-wave (km/s) = 6.04729 6.73543 6.40061
#
# Compressibility (1/GPa) = 0.02274627
#
# Stress axis : x y z
#
# Youngs Moduli (GPa) = 130.25390 98.91805 46.91063
#
# Poissons Ratio (x) = 0.16780 0.16984
# Poissons Ratio (y) = 0.22095 0.13426
# Poissons Ratio (z) = 0.47157 0.28311
#
# Static dielectric constant tensor:
#      x y z
#    x 3.997350 0.000000 0.000000 
#    y 0.000000 3.920790 0.000000 
#    z 0.000000 0.000000 3.459330 
# 
# 
# High freq. dielectric constant tensor:
#      x y z
#    x 1.829920 0.000000 0.000000 
#    y 0.000000 1.840810 0.000000 
#    z 0.000000 0.000000 1.777660 
# 
# From -- ./inp_files/46632.got.cif
#   From: 2010.03.12/outbox.cif.g09.slc.cpg/sg64_24_cif.got.tgz:46632.got - 2010.04.10 20:19:32.
