data_PCOD8264776
_publ_section_title
;
Structure prediction by ZEFSAII (Michael W. Deem and Ramdas Pophale) SiO2 
 PCOD8264776
Probable space group: C M C A
;
_chemical_formula_sum "Si O2"
_cell_formula_units_Z 64
_cell_length_a 8.698672
_cell_length_b 23.484894
_cell_length_c 15.398541
_cell_angle_alpha 90.000000
_cell_angle_beta 90.000000
_cell_angle_gamma 90.000000
_cell_volume 3145.727749
_symmetry_space_group_name_H-M "C M C A"
_symmetry_group_IT_number 64
_symmetry_cell_setting 'orthorhombic'
loop_
_space_group_symop_operation_xyz
x,y,z
-x,1/2-y,1/2+z
x,-y,-z
-x,1/2+y,1/2-z
-x,-y,-z
x,1/2+y,1/2-z
-x,y,z
x,1/2-y,1/2+z
1/2+x,1/2+y,z
1/2-x,-y,1/2+z
1/2+x,1/2-y,-z
1/2-x,y,1/2-z
1/2-x,1/2-y,-z
1/2+x,y,1/2-z
1/2-x,1/2+y,z
1/2+x,-y,1/2+z
loop_
_atom_site_type_symbol
_atom_site_label
_atom_site_fract_x
_atom_site_fract_y
_atom_site_fract_z
Si Si1 0.821104 0.066288 0.996788
Si Si2 0.178755 0.128636 0.341437
Si Si3 0.681002 0.633152 0.660958
Si Si4 0.177987 0.745999 0.594305
O O1 0.769158 0.094085 0.086134
O O2 0.000000 0.078491 0.981809
O O3 0.727401 0.093136 0.918100
O O4 0.783212 0.000000 0.000000
O O5 0.250000 0.110220 0.250000
O O6 0.203601 0.195581 0.354832
O O7 0.000000 0.112130 0.345011
O O8 0.500000 0.634541 0.668329
O O9 0.750000 0.607884 0.750000
O O10 0.739906 0.697209 0.648894
O O11 0.250000 0.750000 0.500000
O O12 0.000000 0.730607 0.583959
#
# Coordination Sequence:
#
# PCOD8264776 Si02
#       4
#    16  16  16  16
#     4  11  25  45  68  93 124 165 214 268 321 377
#     4  11  24  41  65  96 129 169 210 257 315 376
#     4  12  25  42  66  96 130 170 213 262 318 377
#     4  11  22  38  64  97 132 169 209 256 316 380
#
# _framework density 20.345053
#
# number of rings (size 3 to 8) (size 9 to 14) (size 15 to 20)
#    0.000    0.750    2.500    5.250    0.000    8.000 
#    0.000    0.000    0.000    0.000    0.000    0.000 
#    0.000    0.000    0.000    0.000    0.000    0.000 
#
# Total GULP energy -397042.829129 kJ/mol
# GULP energy per Si atom -12407.588410 kJ/mol
# Density = 2.029875 g / cm^3
# Si number density = 20.345053 Si / 1000 Ang^3
#
#
#
# Elastic Constant Matrix: (Units=GPa)
#
#
# Indices 1 2 3 4 5 6 
#
# 1 149.4612 59.1606 51.4544 0.0000 0.0000 0.0000
# 2 59.1606 101.6755 39.8014 0.0000 0.0000 0.0000
# 3 51.4544 39.8014 154.3050 0.0000 0.0000 0.0000
# 4 0.0000 0.0000 0.0000 -28.9638 0.0000 0.0000
# 5 0.0000 0.0000 0.0000 0.0000 37.3376 0.0000
# 6 0.0000 0.0000 0.0000 0.0000 0.0000 94.0722
#
#
#
# Elastic Compliance Matrix: (Units=1/GPa)
#
#
# Indices 1 2 3 4 5 6 
#
# 1 0.009152 -0.004594 -0.001867 0.000000 0.000000 0.000000
# 2 -0.004594 0.013246 -0.001885 0.000000 0.000000 0.000000
# 3 -0.001867 -0.001885 0.007589 0.000000 0.000000 0.000000
# 4 0.000000 0.000000 0.000000 -0.034526 0.000000 0.000000
# 5 0.000000 0.000000 0.000000 0.000000 0.026783 0.000000
# 6 0.000000 0.000000 0.000000 0.000000 0.000000 0.010630
#
#
# Mechanical properties :
#
#
# Convention : Reuss Voigt Hill
#
# Bulk Modulus (GPa) = 75.21129 78.47494 76.84311
# Shear Modulus (GPa) = 92.59611 37.49089 65.04350
#
# Velocity S-wave (km/s) = 6.75364 4.29739 5.66035
# Velocity P-wave (km/s) = 9.89260 7.95482 8.97616
#
# Compressibility (1/GPa) = 0.01329588
#
# Stress axis : x y z
#
# Youngs Moduli (GPa) = 109.26670 75.49309 131.76465
#
# Poissons Ratio (x) = 0.34684 0.24597
# Poissons Ratio (y) = 0.50201 0.24834
# Poissons Ratio (z) = 0.20397 0.14228
#
# Static dielectric constant tensor:
#      x y z
#    x 3.887030 0.000000 0.000000 
#    y 0.000000 3.766240 0.000000 
#    z 0.000000 0.000000 3.770560 
# 
# 
# High freq. dielectric constant tensor:
#      x y z
#    x 1.814930 0.000000 0.000000 
#    y 0.000000 1.793580 0.000000 
#    z 0.000000 0.000000 1.813760 
# 
# From -- ./inp_files/20839.got.cif
#   From: 2010.03.12/outbox.cif.g09.slc.cpg/sg64_11_cif.got.tgz:20839.got - 2010.04.10 20:19:32.
