data_PCOD8264269
_publ_section_title
;
Structure prediction by ZEFSAII (Michael W. Deem and Ramdas Pophale) SiO2 
 PCOD8264269
Probable space group: C M C A
;
_chemical_formula_sum "Si O2"
_cell_formula_units_Z 80
_cell_length_a 18.340053
_cell_length_b 23.959020
_cell_length_c 8.261490
_cell_angle_alpha 90.000000
_cell_angle_beta 90.000000
_cell_angle_gamma 90.000000
_cell_volume 3630.178815
_symmetry_space_group_name_H-M "C M C A"
_symmetry_group_IT_number 64
_symmetry_cell_setting 'orthorhombic'
loop_
_space_group_symop_operation_xyz
x,y,z
-x,1/2-y,1/2+z
x,-y,-z
-x,1/2+y,1/2-z
-x,-y,-z
x,1/2+y,1/2-z
-x,y,z
x,1/2-y,1/2+z
1/2+x,1/2+y,z
1/2-x,-y,1/2+z
1/2+x,1/2-y,-z
1/2-x,y,1/2-z
1/2-x,1/2-y,-z
1/2+x,y,1/2-z
1/2-x,1/2+y,z
1/2+x,-y,1/2+z
loop_
_atom_site_type_symbol
_atom_site_label
_atom_site_fract_x
_atom_site_fract_y
_atom_site_fract_z
Si Si1 0.194328 0.357085 0.394229
Si Si2 0.813504 0.453589 0.630208
Si Si3 0.175427 0.724931 0.343043
Si Si4 0.083729 0.375349 0.806870
Si Si5 0.082958 0.836676 0.341757
O O1 0.250000 0.358596 0.250000
O O2 0.217832 0.401314 0.529755
O O3 0.194407 0.295816 0.475133
O O4 0.114436 0.369654 0.315337
O O5 0.837699 0.500000 0.500000
O O6 0.750000 0.475905 0.750000
O O7 0.882116 0.432738 0.736535
O O8 0.250000 0.734468 0.250000
O O9 0.124992 0.678629 0.259159
O O10 0.131414 0.781724 0.364300
O O11 0.000000 0.372334 0.751136
O O12 0.089792 0.376078 0.001463
O O13 0.000000 0.819301 0.308040
#
# Coordination Sequence:
#
# PCOD8264269 Si02
#       5
#    16  16  16  16  16
#     4  11  22  38  60  88 122 159 204 253 304 362
#     4  11  24  43  69  94 119 153 198 253 312 370
#     4  11  22  36  59  90 127 171 214 253 297 352
#     4  10  22  40  60  89 129 166 205 253 303 359
#     4  11  23  38  58  87 126 169 208 249 300 357
#
# _framework density 22.037483000000002
#
# number of rings (size 3 to 8) (size 9 to 14) (size 15 to 20)
#    0.000    1.200    0.000    7.800    0.000    8.400 
#    0.000    1.000    0.000    3.000    0.000    0.000 
#    0.000    0.000    0.000    0.000    0.000    0.000 
#
# Total GULP energy -495993.125069 kJ/mol
# GULP energy per Si atom -12399.828127 kJ/mol
# Density = 2.198732 g / cm^3
# Si number density = 22.037483 Si / 1000 Ang^3
#
#
#
# Elastic Constant Matrix: (Units=GPa)
#
#
# Indices 1 2 3 4 5 6 
#
# 1 159.9294 38.2159 60.2026 0.0000 0.0000 0.0000
# 2 38.2159 74.2206 25.3281 0.0000 0.0000 0.0000
# 3 60.2026 25.3281 121.1832 0.0000 0.0000 0.0000
# 4 0.0000 0.0000 0.0000 40.4673 0.0000 0.0000
# 5 0.0000 0.0000 0.0000 0.0000 41.4031 0.0000
# 6 0.0000 0.0000 0.0000 0.0000 0.0000 20.9500
#
#
#
# Elastic Compliance Matrix: (Units=1/GPa)
#
#
# Indices 1 2 3 4 5 6 
#
# 1 0.008300 -0.003087 -0.003478 0.000000 0.000000 0.000000
# 2 -0.003087 0.015656 -0.001739 0.000000 0.000000 0.000000
# 3 -0.003478 -0.001739 0.010343 0.000000 0.000000 0.000000
# 4 0.000000 0.000000 0.000000 0.024711 0.000000 0.000000
# 5 0.000000 0.000000 0.000000 0.000000 0.024153 0.000000
# 6 0.000000 0.000000 0.000000 0.000000 0.000000 0.047733
#
#
# Mechanical properties :
#
#
# Convention : Reuss Voigt Hill
#
# Bulk Modulus (GPa) = 56.52278 66.98068 61.75173
# Shear Modulus (GPa) = 32.59459 36.00319 34.29889
#
# Velocity S-wave (km/s) = 3.85002 4.04632 3.94939
# Velocity P-wave (km/s) = 6.74297 7.23120 6.99135
#
# Compressibility (1/GPa) = 0.01769198
#
# Stress axis : x y z
#
# Youngs Moduli (GPa) = 120.48865 63.87340 96.68142
#
# Poissons Ratio (x) = 0.19715 0.33626
# Poissons Ratio (y) = 0.37189 0.16811
# Poissons Ratio (z) = 0.41906 0.11107
#
# Static dielectric constant tensor:
#      x y z
#    x 4.319250 0.000000 0.000000 
#    y 0.000000 3.847320 0.000000 
#    z 0.000000 0.000000 4.785700 
# 
# 
# High freq. dielectric constant tensor:
#      x y z
#    x 1.871990 0.000000 0.000000 
#    y 0.000000 1.840620 0.000000 
#    z 0.000000 0.000000 1.896400 
# 
# From -- ./inp_files/7054.got.cif
#   From: 2010.03.12/outbox.cif.g09.slc.cpg/sg64_4_cif.got.tgz:7054.got - 2010.04.10 20:19:32.
