data_PCOD8264712
_publ_section_title
;
Structure prediction by ZEFSAII (Michael W. Deem and Ramdas Pophale) SiO2 
 PCOD8264712
Probable space group: C M C A
;
_chemical_formula_sum "Si O2"
_cell_formula_units_Z 64
_cell_length_a 16.642246
_cell_length_b 37.305656
_cell_length_c 5.050479
_cell_angle_alpha 90.000000
_cell_angle_beta 90.000000
_cell_angle_gamma 90.000000
_cell_volume 3135.589404
_symmetry_space_group_name_H-M "C M C A"
_symmetry_group_IT_number 64
_symmetry_cell_setting 'orthorhombic'
loop_
_space_group_symop_operation_xyz
x,y,z
-x,1/2-y,1/2+z
x,-y,-z
-x,1/2+y,1/2-z
-x,-y,-z
x,1/2+y,1/2-z
-x,y,z
x,1/2-y,1/2+z
1/2+x,1/2+y,z
1/2-x,-y,1/2+z
1/2+x,1/2-y,-z
1/2-x,y,1/2-z
1/2-x,1/2-y,-z
1/2+x,y,1/2-z
1/2-x,1/2+y,z
1/2+x,-y,1/2+z
loop_
_atom_site_type_symbol
_atom_site_label
_atom_site_fract_x
_atom_site_fract_y
_atom_site_fract_z
Si Si1 0.693894 0.538378 0.002196
Si Si2 0.906902 0.649528 0.844921
Si Si3 0.658158 0.112732 0.340821
Si Si4 0.904322 0.728907 0.966996
O O1 0.750000 0.546426 0.750000
O O2 0.645864 0.500000 0.000000
O O3 0.750000 0.533428 0.250000
O O4 0.636137 0.572540 0.054454
O O5 0.856908 0.639258 0.584819
O O6 0.873862 0.688276 0.935073
O O7 0.000000 0.650759 0.762992
O O8 0.896546 0.622011 0.088288
O O9 0.750000 0.115337 0.250000
O O10 0.870295 0.754492 0.736763
O O11 0.000000 0.729029 0.965318
#
# Coordination Sequence:
#
# PCOD8264712 Si02
#       4
#    16  16  16  16
#     4   9  17  31  53  80 106 137 183 229 261 303
#     4  11  22  36  57  83 111 143 180 226 275 324
#     4  11  21  36  57  82 112 144 180 223 273 325
#     4   9  17  31  52  76 100 133 182 228 260 304
#
# _framework density 20.410837000000001
#
# number of rings (size 3 to 8) (size 9 to 14) (size 15 to 20)
#    0.000    2.000    0.000    6.000    0.000    4.000 
#    0.000    0.000    0.000   19.500    0.000    0.000 
#    0.000    0.000    0.000    0.000    0.000    0.000 
#
# Total GULP energy -396602.928767 kJ/mol
# GULP energy per Si atom -12393.841524 kJ/mol
# Density = 2.036438 g / cm^3
# Si number density = 20.410837 Si / 1000 Ang^3
#
#
#
# Elastic Constant Matrix: (Units=GPa)
#
#
# Indices 1 2 3 4 5 6 
#
# 1 26.0589 28.9449 8.0192 0.0000 0.0000 0.0000
# 2 28.9449 125.4208 22.7061 0.0000 0.0000 0.0000
# 3 8.0192 22.7061 117.6230 0.0000 0.0000 0.0000
# 4 0.0000 0.0000 0.0000 40.3699 0.0000 0.0000
# 5 0.0000 0.0000 0.0000 0.0000 28.0421 0.0000
# 6 0.0000 0.0000 0.0000 0.0000 0.0000 20.4272
#
#
#
# Elastic Compliance Matrix: (Units=1/GPa)
#
#
# Indices 1 2 3 4 5 6 
#
# 1 0.051784 -0.011721 -0.001268 0.000000 0.000000 0.000000
# 2 -0.011721 0.010915 -0.001308 0.000000 0.000000 0.000000
# 3 -0.001268 -0.001308 0.008841 0.000000 0.000000 0.000000
# 4 0.000000 0.000000 0.000000 0.024771 0.000000 0.000000
# 5 0.000000 0.000000 0.000000 0.000000 0.035661 0.000000
# 6 0.000000 0.000000 0.000000 0.000000 0.000000 0.048954
#
#
# Mechanical properties :
#
#
# Convention : Reuss Voigt Hill
#
# Bulk Modulus (GPa) = 23.28522 43.16035 33.22279
# Shear Modulus (GPa) = 22.33789 31.73002 27.03395
#
# Velocity S-wave (km/s) = 3.31178 3.94708 3.64330
# Velocity P-wave (km/s) = 5.10459 6.47798 5.83186
#
# Compressibility (1/GPa) = 0.04294569
#
# Stress axis : x y z
#
# Youngs Moduli (GPa) = 19.31095 91.61686 113.11380
#
# Poissons Ratio (x) = 1.07387 0.14340
# Poissons Ratio (y) = 0.22635 0.14794
# Poissons Ratio (z) = 0.02448 0.11983
#
# Static dielectric constant tensor:
#      x y z
#    x 3.103670 0.000000 0.000000 
#    y 0.000000 4.580010 0.000000 
#    z 0.000000 0.000000 3.907750 
# 
# 
# High freq. dielectric constant tensor:
#      x y z
#    x 1.728430 0.000000 0.000000 
#    y 0.000000 1.821670 0.000000 
#    z 0.000000 0.000000 1.824580 
# 
# From -- ./inp_files/1913.got.cif
#   From: 2010.03.12/outbox.cif.g09.slc.cpg/sg64_1_cif.got.tgz:1913.got - 2010.04.10 20:19:32.
