data_PCOD8264256
_publ_section_title
;
Structure prediction by ZEFSAII (Michael W. Deem and Ramdas Pophale) SiO2 
 PCOD8264256
Probable space group: C M C A
;
_chemical_formula_sum "Si O2"
_cell_formula_units_Z 88
_cell_length_a 13.705953
_cell_length_b 14.777651
_cell_length_c 22.398564
_cell_angle_alpha 90.000000
_cell_angle_beta 90.000000
_cell_angle_gamma 90.000000
_cell_volume 4536.645247
_symmetry_space_group_name_H-M "C M C A"
_symmetry_group_IT_number 64
_symmetry_cell_setting 'orthorhombic'
loop_
_space_group_symop_operation_xyz
x,y,z
-x,1/2-y,1/2+z
x,-y,-z
-x,1/2+y,1/2-z
-x,-y,-z
x,1/2+y,1/2-z
-x,y,z
x,1/2-y,1/2+z
1/2+x,1/2+y,z
1/2-x,-y,1/2+z
1/2+x,1/2-y,-z
1/2-x,y,1/2-z
1/2-x,1/2-y,-z
1/2+x,y,1/2-z
1/2-x,1/2+y,z
1/2+x,-y,1/2+z
loop_
_atom_site_type_symbol
_atom_site_label
_atom_site_fract_x
_atom_site_fract_y
_atom_site_fract_z
Si Si1 0.389414 0.393617 0.991335
Si Si2 0.809929 0.167588 0.133100
Si Si3 0.500000 0.070700 0.801942
Si Si4 0.289136 0.499125 0.684404
Si Si5 0.500000 0.678815 0.809584
Si Si6 0.309294 0.343761 0.115228
Si Si7 0.500000 0.227181 0.306886
O O1 0.500000 0.355648 0.987717
O O2 0.331828 0.346796 0.045214
O O3 0.392115 0.500000 0.000000
O O4 0.331256 0.370766 0.931942
O O5 0.770484 0.268482 0.128720
O O6 0.907119 0.169896 0.172683
O O7 0.732263 0.104401 0.167062
O O8 0.595050 0.014391 0.820787
O O9 0.500000 0.086657 0.730133
O O10 0.500000 0.170090 0.834008
O O11 0.250000 0.523852 0.750000
O O12 0.232572 0.561073 0.637094
O O13 0.406749 0.682119 0.850748
O O14 0.500000 0.765899 0.765341
#
# Coordination Sequence:
#
# PCOD8264256 Si02
#       7
#    16  16   8  16   8  16   8
#     4  11  23  43  68  95 126 174 234 284 337 400
#     4  12  26  41  69  97 134 183 227 276 342 407
#     4  10  22  44  65  94 141 178 215 266 338 414
#     4  12  25  40  69 100 134 176 221 271 342 402
#     4  10  22  39  70  97 132 180 218 274 337 403
#     4  12  23  44  67  96 136 176 223 286 335 400
#     4  10  22  41  67  94 137 177 224 264 334 411
#
# _framework density 19.397594000000002
#
# number of rings (size 3 to 8) (size 9 to 14) (size 15 to 20)
#    0.545    0.182    7.273    0.545    2.545    2.182 
#    0.000    0.000    0.000    1.091    0.000    0.000 
#    0.000    0.000    0.000    0.000    0.000    0.000 
#
# Total GULP energy -545736.995191 kJ/mol
# GULP energy per Si atom -12403.113527 kJ/mol
# Density = 1.935344 g / cm^3
# Si number density = 19.397594 Si / 1000 Ang^3
#
#
#
# Elastic Constant Matrix: (Units=GPa)
#
#
# Indices 1 2 3 4 5 6 
#
# 1 112.1647 17.1128 44.2206 0.0000 0.0000 0.0000
# 2 17.1128 67.9631 15.2479 0.0000 0.0000 0.0000
# 3 44.2206 15.2479 95.5426 0.0000 0.0000 0.0000
# 4 0.0000 0.0000 0.0000 28.9659 0.0000 0.0000
# 5 0.0000 0.0000 0.0000 0.0000 31.1101 0.0000
# 6 0.0000 0.0000 0.0000 0.0000 0.0000 -6.2988
#
#
#
# Elastic Compliance Matrix: (Units=1/GPa)
#
#
# Indices 1 2 3 4 5 6 
#
# 1 0.011092 -0.001702 -0.004862 0.000000 0.000000 0.000000
# 2 -0.001702 0.015521 -0.001689 0.000000 0.000000 0.000000
# 3 -0.004862 -0.001689 0.012987 0.000000 0.000000 0.000000
# 4 0.000000 0.000000 0.000000 0.034523 0.000000 0.000000
# 5 0.000000 0.000000 0.000000 0.000000 0.032144 0.000000
# 6 0.000000 0.000000 0.000000 0.000000 0.000000 -0.158761
#
#
# Mechanical properties :
#
#
# Convention : Reuss Voigt Hill
#
# Bulk Modulus (GPa) = 43.30337 47.64811 45.47574
# Shear Modulus (GPa) = -176.74663 24.02806 -76.35929
#
# Velocity S-wave (km/s) = -9.55592 3.52335 -6.28099
# Velocity P-wave (km/s) = 9.96903 6.41633 5.39501
#
# Compressibility (1/GPa) = 0.02309289
#
# Stress axis : x y z
#
# Youngs Moduli (GPa) = 90.15482 64.42694 77.00287
#
# Poissons Ratio (x) = 0.10966 0.37440
# Poissons Ratio (y) = 0.15345 0.13008
# Poissons Ratio (z) = 0.43835 0.10884
#
# Static dielectric constant tensor:
#      x y z
#    x 3.715550 0.000000 0.000000 
#    y 0.000000 3.469840 0.000000 
#    z 0.000000 0.000000 3.594240 
# 
# 
# High freq. dielectric constant tensor:
#      x y z
#    x 1.765620 0.000000 0.000000 
#    y 0.000000 1.749820 0.000000 
#    z 0.000000 0.000000 1.756120 
# 
# From -- ./inp_files/45116.got.cif
#   From: 2010.03.12/outbox.cif.g09.slc.cpg/sg64_23_cif.got.tgz:45116.got - 2010.04.10 20:19:32.
