data_PCOD8264535
_publ_section_title
;
Structure prediction by ZEFSAII (Michael W. Deem and Ramdas Pophale) SiO2 
 PCOD8264535
Probable space group: C M C A
;
_chemical_formula_sum "Si O2"
_cell_formula_units_Z 96
_cell_length_a 17.345123
_cell_length_b 7.728575
_cell_length_c 29.554035
_cell_angle_alpha 90.000000
_cell_angle_beta 90.000000
_cell_angle_gamma 90.000000
_cell_volume 3961.809536
_symmetry_space_group_name_H-M "C M C A"
_symmetry_group_IT_number 64
_symmetry_cell_setting 'orthorhombic'
loop_
_space_group_symop_operation_xyz
x,y,z
-x,1/2-y,1/2+z
x,-y,-z
-x,1/2+y,1/2-z
-x,-y,-z
x,1/2+y,1/2-z
-x,y,z
x,1/2-y,1/2+z
1/2+x,1/2+y,z
1/2-x,-y,1/2+z
1/2+x,1/2-y,-z
1/2-x,y,1/2-z
1/2-x,1/2-y,-z
1/2+x,y,1/2-z
1/2-x,1/2+y,z
1/2+x,-y,1/2+z
loop_
_atom_site_type_symbol
_atom_site_label
_atom_site_fract_x
_atom_site_fract_y
_atom_site_fract_z
Si Si1 0.413105 0.699768 0.407083
Si Si2 0.310375 0.111052 0.881406
Si Si3 0.088923 0.346376 0.277980
Si Si4 0.199134 0.854323 0.033041
Si Si5 0.813137 0.975739 0.711437
Si Si6 0.586485 0.432448 0.858957
O O1 0.500000 0.649554 0.416204
O O2 0.375944 0.533151 0.384190
O O3 0.372397 0.733168 0.454945
O O4 0.402872 0.876784 0.379671
O O5 0.247774 0.094240 0.921525
O O6 0.349676 0.301322 0.879357
O O7 0.271668 0.062985 0.832633
O O8 0.121953 0.387752 0.228256
O O9 0.141791 0.199828 0.301339
O O10 0.095466 0.529267 0.305399
O O11 0.000000 0.282663 0.275830
O O12 0.250000 0.750000 0.000000
O O13 0.165529 0.000000 0.000000
O O14 0.750000 0.940733 0.750000
O O15 0.500000 0.362390 0.869750
#
# Coordination Sequence:
#
# PCOD8264535 Si02
#       6
#    16  16  16  16  16  16
#     4  11  25  47  78 112 148 192 248 311 376 446
#     4  12  26  47  79 106 153 199 248 311 382 449
#     4  11  24  44  69 100 149 200 247 297 363 442
#     4  12  26  50  77 109 147 197 251 308 380 458
#     4  12  27  44  68 106 149 193 248 306 365 438
#     4  10  23  44  73 112 147 192 250 304 367 445
#
# _framework density 24.231352000000001
#
# number of rings (size 3 to 8) (size 9 to 14) (size 15 to 20)
#    0.000    0.667    3.333    3.500    2.333    5.000 
#    0.000    3.333    0.000    0.000    0.000    0.000 
#    0.000    0.000    0.000    0.000    0.000    0.000 
#
# Total GULP energy -594843.133643 kJ/mol
# GULP energy per Si atom -12392.565284 kJ/mol
# Density = 2.417620 g / cm^3
# Si number density = 24.231352 Si / 1000 Ang^3
#
#
#
# Elastic Constant Matrix: (Units=GPa)
#
#
# Indices 1 2 3 4 5 6 
#
# 1 110.3904 24.6490 37.9196 0.0000 0.0000 0.0000
# 2 24.6490 94.3783 12.9033 0.0000 0.0000 0.0000
# 3 37.9196 12.9033 125.6018 0.0000 0.0000 0.0000
# 4 0.0000 0.0000 0.0000 39.6466 0.0000 0.0000
# 5 0.0000 0.0000 0.0000 0.0000 30.0406 0.0000
# 6 0.0000 0.0000 0.0000 0.0000 0.0000 37.0701
#
#
#
# Elastic Compliance Matrix: (Units=1/GPa)
#
#
# Indices 1 2 3 4 5 6 
#
# 1 0.010603 -0.002365 -0.002958 0.000000 0.000000 0.000000
# 2 -0.002365 0.011274 -0.000444 0.000000 0.000000 0.000000
# 3 -0.002958 -0.000444 0.008900 0.000000 0.000000 0.000000
# 4 0.000000 0.000000 0.000000 0.025223 0.000000 0.000000
# 5 0.000000 0.000000 0.000000 0.000000 0.033288 0.000000
# 6 0.000000 0.000000 0.000000 0.000000 0.000000 0.026976
#
#
# Mechanical properties :
#
#
# Convention : Reuss Voigt Hill
#
# Bulk Modulus (GPa) = 51.96694 53.47935 52.72315
# Shear Modulus (GPa) = 37.25423 38.34470 37.79947
#
# Velocity S-wave (km/s) = 3.92527 3.98231 3.95389
# Velocity P-wave (km/s) = 6.48355 6.57748 6.53068
#
# Compressibility (1/GPa) = 0.01924300
#
# Stress axis : x y z
#
# Youngs Moduli (GPa) = 94.31372 88.69966 112.35485
#
# Poissons Ratio (x) = 0.20975 0.33236
# Poissons Ratio (y) = 0.22303 0.04992
# Poissons Ratio (z) = 0.27899 0.03941
#
# Static dielectric constant tensor:
#      x y z
#    x 4.420000 0.000000 0.000000 
#    y 0.000000 4.332000 0.000000 
#    z 0.000000 0.000000 4.321010 
# 
# 
# High freq. dielectric constant tensor:
#      x y z
#    x 1.967040 0.000000 0.000000 
#    y 0.000000 1.972560 0.000000 
#    z 0.000000 0.000000 1.959070 
# 
# From -- ./inp_files/50669.got.cif
#   From: 2010.03.12/outbox.cif.g09.slc.cpg/sg64_26_cif.got.tgz:50669.got - 2010.04.10 20:19:32.
