data_PCOD8264825
_publ_section_title
;
Structure prediction by ZEFSAII (Michael W. Deem and Ramdas Pophale) SiO2 
 PCOD8264825
Probable space group: C M C A
;
_chemical_formula_sum "Si O2"
_cell_formula_units_Z 96
_cell_length_a 9.219464
_cell_length_b 23.087999
_cell_length_c 23.508323
_cell_angle_alpha 90.000000
_cell_angle_beta 90.000000
_cell_angle_gamma 90.000000
_cell_volume 5003.957552
_symmetry_space_group_name_H-M "C M C A"
_symmetry_group_IT_number 64
_symmetry_cell_setting 'orthorhombic'
loop_
_space_group_symop_operation_xyz
x,y,z
-x,1/2-y,1/2+z
x,-y,-z
-x,1/2+y,1/2-z
-x,-y,-z
x,1/2+y,1/2-z
-x,y,z
x,1/2-y,1/2+z
1/2+x,1/2+y,z
1/2-x,-y,1/2+z
1/2+x,1/2-y,-z
1/2-x,y,1/2-z
1/2-x,1/2-y,-z
1/2+x,y,1/2-z
1/2-x,1/2+y,z
1/2+x,-y,1/2+z
loop_
_atom_site_type_symbol
_atom_site_label
_atom_site_fract_x
_atom_site_fract_y
_atom_site_fract_z
Si Si1 0.327871 0.310448 0.688986
Si Si2 0.326660 0.529376 0.598326
Si Si3 0.827528 0.865684 0.476521
Si Si4 0.671503 0.400481 0.596759
Si Si5 0.342174 0.605837 0.696416
Si Si6 0.161481 0.716602 0.881630
O O1 0.500000 0.303770 0.698417
O O2 0.250000 0.308885 0.750000
O O3 0.286406 0.369974 0.656281
O O4 0.274580 0.259999 0.647084
O O5 0.500000 0.527622 0.595771
O O6 0.268820 0.573268 0.549616
O O7 0.260473 0.464902 0.592446
O O8 0.274806 0.553276 0.659737
O O9 0.773617 0.862951 0.542160
O O10 0.774445 0.808359 0.441848
O O11 0.000000 0.865983 0.471276
O O12 0.500000 0.405457 0.592411
O O13 0.500000 0.587305 0.718662
O O14 0.250000 0.622478 0.750000
O O15 0.355295 0.661573 0.657847
O O16 0.000000 0.745003 0.888632
#
# Coordination Sequence:
#
# PCOD8264825 Si02
#       6
#    16  16  16  16  16  16
#     4  11  23  36  50  70  98 133 170 202 236 283
#     4   8  14  26  45  70  99 127 156 195 242 287
#     4   8  14  27  50  77 100 123 155 198 247 293
#     4   9  17  29  47  72 100 129 161 197 237 287
#     4   9  17  28  45  70  95 122 159 202 245 286
#     4   9  18  33  52  74  99 125 158 202 249 293
#
# _framework density 19.184815
#
# number of rings (size 3 to 8) (size 9 to 14) (size 15 to 20)
#    0.000    3.000    0.000    3.500    0.000    5.333 
#    0.000    0.000    0.000    2.000    0.000    0.000 
#    0.000   10.667    0.000    0.000    0.000    0.000 
#
# Total GULP energy -594634.781492 kJ/mol
# GULP energy per Si atom -12388.224614 kJ/mol
# Density = 1.914115 g / cm^3
# Si number density = 19.184815 Si / 1000 Ang^3
#
#
#
# Elastic Constant Matrix: (Units=GPa)
#
#
# Indices 1 2 3 4 5 6 
#
# 1 41.8380 19.4138 24.5742 0.0000 0.0000 0.0000
# 2 19.4138 77.8495 29.1465 0.0000 0.0000 0.0000
# 3 24.5742 29.1465 66.3070 0.0000 0.0000 0.0000
# 4 0.0000 0.0000 0.0000 14.2920 0.0000 0.0000
# 5 0.0000 0.0000 0.0000 0.0000 8.3860 0.0000
# 6 0.0000 0.0000 0.0000 0.0000 0.0000 13.9417
#
#
#
# Elastic Compliance Matrix: (Units=1/GPa)
#
#
# Indices 1 2 3 4 5 6 
#
# 1 0.031655 -0.004192 -0.009889 0.000000 0.000000 0.000000
# 2 -0.004192 0.015931 -0.005449 0.000000 0.000000 0.000000
# 3 -0.009889 -0.005449 0.021142 0.000000 0.000000 0.000000
# 4 0.000000 0.000000 0.000000 0.069969 0.000000 0.000000
# 5 0.000000 0.000000 0.000000 0.000000 0.119246 0.000000
# 6 0.000000 0.000000 0.000000 0.000000 0.000000 0.071727
#
#
# Mechanical properties :
#
#
# Convention : Reuss Voigt Hill
#
# Bulk Modulus (GPa) = 33.70682 36.91817 35.31249
# Shear Modulus (GPa) = 13.20587 14.84796 14.02691
#
# Velocity S-wave (km/s) = 2.62649 2.78500 2.70691
# Velocity P-wave (km/s) = 5.17741 5.44306 5.31189
#
# Compressibility (1/GPa) = 0.02966759
#
# Stress axis : x y z
#
# Youngs Moduli (GPa) = 31.59022 62.77178 47.29972
#
# Poissons Ratio (x) = 0.26311 0.46776
# Poissons Ratio (y) = 0.13241 0.25775
# Poissons Ratio (z) = 0.31241 0.34206
#
# Static dielectric constant tensor:
#      x y z
#    x 3.145230 0.000000 0.000000 
#    y 0.000000 3.784280 0.000000 
#    z 0.000000 0.000000 3.846590 
# 
# 
# High freq. dielectric constant tensor:
#      x y z
#    x 1.685140 0.000000 0.000000 
#    y 0.000000 1.744900 0.000000 
#    z 0.000000 0.000000 1.757660 
# 
# From -- ./inp_files/38394.got.cif
#   From: 2010.03.12/outbox.cif.g09.slc.cpg/sg64_20_cif.got.tgz:38394.got - 2010.04.10 20:19:32.
