data_PCOD8264670
_publ_section_title
;
Structure prediction by ZEFSAII (Michael W. Deem and Ramdas Pophale) SiO2 
 PCOD8264670
Probable space group: C M C A
;
_chemical_formula_sum "Si O2"
_cell_formula_units_Z 96
_cell_length_a 18.866251
_cell_length_b 23.088728
_cell_length_c 11.479943
_cell_angle_alpha 90.000000
_cell_angle_beta 90.000000
_cell_angle_gamma 90.000000
_cell_volume 5000.637200
_symmetry_space_group_name_H-M "C M C A"
_symmetry_group_IT_number 64
_symmetry_cell_setting 'orthorhombic'
loop_
_space_group_symop_operation_xyz
x,y,z
-x,1/2-y,1/2+z
x,-y,-z
-x,1/2+y,1/2-z
-x,-y,-z
x,1/2+y,1/2-z
-x,y,z
x,1/2-y,1/2+z
1/2+x,1/2+y,z
1/2-x,-y,1/2+z
1/2+x,1/2-y,-z
1/2-x,y,1/2-z
1/2-x,1/2-y,-z
1/2+x,y,1/2-z
1/2-x,1/2+y,z
1/2+x,-y,1/2+z
loop_
_atom_site_type_symbol
_atom_site_label
_atom_site_fract_x
_atom_site_fract_y
_atom_site_fract_z
Si Si1 0.667624 0.046266 0.721110
Si Si2 0.304210 0.633047 0.967912
Si Si3 0.174445 0.270195 0.293525
Si Si4 0.830507 0.584401 0.289873
Si Si5 0.354280 0.635171 0.599857
Si Si6 0.918384 0.837025 0.634149
O O1 0.750000 0.050264 0.750000
O O2 0.654967 0.084763 0.607157
O O3 0.626198 0.075305 0.831708
O O4 0.643130 0.981522 0.691212
O O5 0.319782 0.696871 0.917493
O O6 0.219495 0.625192 0.968366
O O7 0.335802 0.625140 0.096599
O O8 0.250000 0.244305 0.250000
O O9 0.148890 0.314240 0.195014
O O10 0.119813 0.219255 0.314629
O O11 0.750000 0.583703 0.250000
O O12 0.883708 0.607303 0.193056
O O13 0.412225 0.653989 0.504990
O O14 0.000000 0.831844 0.668258
#
# Coordination Sequence:
#
# PCOD8264670 Si02
#       6
#    16  16  16  16  16  16
#     4   8  17  33  59  89 113 141 181 235 285 339
#     4   9  17  35  61  90 111 139 187 242 289 330
#     4   9  21  38  62  83 111 150 196 245 287 332
#     4  11  20  34  59  88 118 147 186 232 282 337
#     4   9  19  38  57  83 116 146 187 236 293 344
#     4  12  26  38  52  81 118 158 194 234 287 344
#
# _framework density 19.197552999999999
#
# number of rings (size 3 to 8) (size 9 to 14) (size 15 to 20)
#    0.000    2.333    1.667    3.000    2.333    2.667 
#    0.000    1.667    0.000    4.000    0.000    0.000 
#    0.000    0.000    0.000    0.000    0.000    0.000 
#
# Total GULP energy -594990.047765 kJ/mol
# GULP energy per Si atom -12395.625995 kJ/mol
# Density = 1.915386 g / cm^3
# Si number density = 19.197553 Si / 1000 Ang^3
#
#
#
# Elastic Constant Matrix: (Units=GPa)
#
#
# Indices 1 2 3 4 5 6 
#
# 1 83.2898 44.2037 24.8360 0.0000 0.0000 0.0000
# 2 44.2037 89.9529 22.3126 0.0000 0.0000 0.0000
# 3 24.8360 22.3126 87.6656 0.0000 0.0000 0.0000
# 4 0.0000 0.0000 0.0000 23.4035 0.0000 0.0000
# 5 0.0000 0.0000 0.0000 0.0000 17.5055 0.0000
# 6 0.0000 0.0000 0.0000 0.0000 0.0000 -4.1170
#
#
#
# Elastic Compliance Matrix: (Units=1/GPa)
#
#
# Indices 1 2 3 4 5 6 
#
# 1 0.016885 -0.007590 -0.002852 0.000000 0.000000 0.000000
# 2 -0.007590 0.015278 -0.001738 0.000000 0.000000 0.000000
# 3 -0.002852 -0.001738 0.012657 0.000000 0.000000 0.000000
# 4 0.000000 0.000000 0.000000 0.042729 0.000000 0.000000
# 5 0.000000 0.000000 0.000000 0.000000 0.057125 0.000000
# 6 0.000000 0.000000 0.000000 0.000000 0.000000 -0.242897
#
#
# Mechanical properties :
#
#
# Convention : Reuss Voigt Hill
#
# Bulk Modulus (GPa) = 48.87570 49.29032 49.08301
# Shear Modulus (GPa) = -74.57838 18.66213 -27.95812
#
# Velocity S-wave (km/s) = -6.23957 3.12125 -3.82034
# Velocity P-wave (km/s) = 5.13760 6.22259 2.48251
#
# Compressibility (1/GPa) = 0.02046007
#
# Stress axis : x y z
#
# Youngs Moduli (GPa) = 59.22495 65.45411 79.00569
#
# Poissons Ratio (x) = 0.49679 0.22530
# Poissons Ratio (y) = 0.44952 0.13733
# Poissons Ratio (z) = 0.16889 0.11378
#
# Static dielectric constant tensor:
#      x y z
#    x 3.025600 0.000000 0.000000 
#    y 0.000000 3.674570 0.000000 
#    z 0.000000 0.000000 3.635890 
# 
# 
# High freq. dielectric constant tensor:
#      x y z
#    x 1.687370 0.000000 0.000000 
#    y 0.000000 1.757150 0.000000 
#    z 0.000000 0.000000 1.759770 
# 
# From -- ./inp_files/16192.got.cif
#   From: 2010.03.12/outbox.cif.g09.slc.cpg/sg64_9_cif.got.tgz:16192.got - 2010.04.10 20:19:32.
