data_PCOD8264223
_publ_section_title
;
Structure prediction by ZEFSAII (Michael W. Deem and Ramdas Pophale) SiO2 
 PCOD8264223
Probable space group: C M C A
;
_chemical_formula_sum "Si O2"
_cell_formula_units_Z 112
_cell_length_a 14.038046
_cell_length_b 31.953178
_cell_length_c 12.188939
_cell_angle_alpha 90.000000
_cell_angle_beta 90.000000
_cell_angle_gamma 90.000000
_cell_volume 5467.472704
_symmetry_space_group_name_H-M "C M C A"
_symmetry_group_IT_number 64
_symmetry_cell_setting 'orthorhombic'
loop_
_space_group_symop_operation_xyz
x,y,z
-x,1/2-y,1/2+z
x,-y,-z
-x,1/2+y,1/2-z
-x,-y,-z
x,1/2+y,1/2-z
-x,y,z
x,1/2-y,1/2+z
1/2+x,1/2+y,z
1/2-x,-y,1/2+z
1/2+x,1/2-y,-z
1/2-x,y,1/2-z
1/2-x,1/2-y,-z
1/2+x,y,1/2-z
1/2-x,1/2+y,z
1/2+x,-y,1/2+z
loop_
_atom_site_type_symbol
_atom_site_label
_atom_site_fract_x
_atom_site_fract_y
_atom_site_fract_z
Si Si1 0.783605 0.959543 0.073737
Si Si2 0.389508 0.938615 0.215598
Si Si3 0.791788 0.871093 0.988761
Si Si4 0.609963 0.774614 0.133830
Si Si5 0.107470 0.169156 0.436482
Si Si6 0.611361 0.346160 0.204841
Si Si7 0.610798 0.184141 0.315876
O O1 0.674696 0.954444 0.114667
O O2 0.856721 0.963232 0.175152
O O3 0.815364 0.919944 0.000181
O O4 0.793826 0.000000 0.000000
O O5 0.500000 0.948203 0.191221
O O6 0.368699 0.889401 0.231338
O O7 0.677550 0.866582 0.980851
O O8 0.837720 0.853715 0.877472
O O9 0.831883 0.844504 0.090970
O O10 0.500000 0.770126 0.165553
O O11 0.651859 0.808961 0.218698
O O12 0.656203 0.728665 0.146736
O O13 0.623168 0.788953 0.008225
O O14 0.131020 0.180458 0.312436
O O15 0.000000 0.151986 0.451773
O O16 0.500000 0.341713 0.178003
O O17 0.500000 0.181073 0.344381
#
# Coordination Sequence:
#
# PCOD8264223 Si02
#       7
#    16  16  16  16  16  16  16
#     4  10  22  40  63  91 124 155 193 254 310 358
#     4   9  19  39  64  92 122 154 199 247 297 359
#     4  11  22  38  61  86 114 155 197 241 299 360
#     4   9  19  35  58  83 116 157 195 243 290 332
#     4  10  22  40  55  78 118 160 199 241 289 347
#     4   9  18  35  62  91 116 149 195 246 293 343
#     4  10  22  39  57  82 120 158 197 241 289 353
#
# _framework density 20.484784000000001
#
# number of rings (size 3 to 8) (size 9 to 14) (size 15 to 20)
#    0.000    2.286    0.000    1.714    2.000    5.143 
#    7.714    0.000    0.000    0.000    0.000    0.000 
#    0.000    0.000    0.000    0.000    0.000    0.000 
#
# Total GULP energy -694434.871609 kJ/mol
# GULP energy per Si atom -12400.622707 kJ/mol
# Density = 2.043816 g / cm^3
# Si number density = 20.484784 Si / 1000 Ang^3
#
#
#
# Elastic Constant Matrix: (Units=GPa)
#
#
# Indices 1 2 3 4 5 6 
#
# 1 71.4735 29.9172 43.5247 0.0000 0.0000 0.0000
# 2 29.9172 114.2816 63.6634 0.0000 0.0000 0.0000
# 3 43.5247 63.6634 122.8508 0.0000 0.0000 0.0000
# 4 0.0000 0.0000 0.0000 31.8518 0.0000 0.0000
# 5 0.0000 0.0000 0.0000 0.0000 31.4691 0.0000
# 6 0.0000 0.0000 0.0000 0.0000 0.0000 21.2815
#
#
#
# Elastic Compliance Matrix: (Units=1/GPa)
#
#
# Indices 1 2 3 4 5 6 
#
# 1 0.018055 -0.001635 -0.005549 0.000000 0.000000 0.000000
# 2 -0.001635 0.012450 -0.005872 0.000000 0.000000 0.000000
# 3 -0.005549 -0.005872 0.013149 0.000000 0.000000 0.000000
# 4 0.000000 0.000000 0.000000 0.031395 0.000000 0.000000
# 5 0.000000 0.000000 0.000000 0.000000 0.031777 0.000000
# 6 0.000000 0.000000 0.000000 0.000000 0.000000 0.046989
#
#
# Mechanical properties :
#
#
# Convention : Reuss Voigt Hill
#
# Bulk Modulus (GPa) = 57.01180 64.75741 60.88460
# Shear Modulus (GPa) = 26.91415 28.35386 27.63401
#
# Velocity S-wave (km/s) = 3.62865 3.72444 3.67686
# Velocity P-wave (km/s) = 6.74150 7.08353 6.91463
#
# Compressibility (1/GPa) = 0.01754023
#
# Stress axis : x y z
#
# Youngs Moduli (GPa) = 55.38646 80.32328 76.05045
#
# Poissons Ratio (x) = 0.13134 0.42203
# Poissons Ratio (y) = 0.09056 0.44659
# Poissons Ratio (z) = 0.30736 0.47168
#
# Static dielectric constant tensor:
#      x y z
#    x 3.838160 0.000000 0.000000 
#    y 0.000000 3.476170 0.000000 
#    z 0.000000 0.000000 3.658060 
# 
# 
# High freq. dielectric constant tensor:
#      x y z
#    x 1.809150 0.000000 0.000000 
#    y 0.000000 1.771240 0.000000 
#    z 0.000000 0.000000 1.804730 
# 
# From -- ./inp_files/14935.got.cif
#   From: 2010.03.12/outbox.cif.g09.slc.cpg/sg64_8_cif.got.tgz:14935.got - 2010.04.10 20:19:32.
