data_PCOD8264200
_publ_section_title
;
Structure prediction by ZEFSAII (Michael W. Deem and Ramdas Pophale) SiO2 
 PCOD8264200
Probable space group: C M C A
;
_chemical_formula_sum "Si O2"
_cell_formula_units_Z 72
_cell_length_a 23.019570
_cell_length_b 13.773178
_cell_length_c 10.644475
_cell_angle_alpha 90.000000
_cell_angle_beta 90.000000
_cell_angle_gamma 90.000000
_cell_volume 3374.858848
_symmetry_space_group_name_H-M "C M C A"
_symmetry_group_IT_number 64
_symmetry_cell_setting 'orthorhombic'
loop_
_space_group_symop_operation_xyz
x,y,z
-x,1/2-y,1/2+z
x,-y,-z
-x,1/2+y,1/2-z
-x,-y,-z
x,1/2+y,1/2-z
-x,y,z
x,1/2-y,1/2+z
1/2+x,1/2+y,z
1/2-x,-y,1/2+z
1/2+x,1/2-y,-z
1/2-x,y,1/2-z
1/2-x,1/2-y,-z
1/2+x,y,1/2-z
1/2-x,1/2+y,z
1/2+x,-y,1/2+z
loop_
_atom_site_type_symbol
_atom_site_label
_atom_site_fract_x
_atom_site_fract_y
_atom_site_fract_z
Si Si1 0.500000 0.341656 0.034259
Si Si2 0.296610 0.258586 0.343037
Si Si3 0.905782 0.500000 0.500000
Si Si4 0.123699 0.106065 0.239075
Si Si5 0.213651 0.598268 0.054305
Si Si6 0.500000 0.179496 0.248119
O O1 0.443562 0.408950 0.047137
O O2 0.500000 0.288515 0.896501
O O3 0.500000 0.267971 0.150676
O O4 0.250000 0.310563 0.250000
O O5 0.355615 0.218707 0.280953
O O6 0.266021 0.158544 0.387132
O O7 0.315564 0.333110 0.449281
O O8 0.867093 0.463135 0.617382
O O9 0.162890 0.063992 0.351209
O O10 0.056002 0.111290 0.276720
O O11 0.240975 0.500000 0.000000
#
# Coordination Sequence:
#
# PCOD8264200 Si02
#       6
#     8  16   8  16  16   8
#     4   9  20  40  60  87 124 170 219 250 316 374
#     4   9  21  41  61  89 124 163 203 262 317 374
#     4   9  20  38  60  88 122 166 212 251 310 386
#     4  10  22  39  61  91 124 164 213 252 321 376
#     4  10  22  40  61  94 122 156 214 261 314 374
#     4  10  22  38  61  91 124 166 208 264 311 379
#
# _framework density 21.334225
#
# number of rings (size 3 to 8) (size 9 to 14) (size 15 to 20)
#    0.000    2.444    0.000    0.667    7.778    4.444 
#    4.000    0.556    0.000    0.000    0.000    0.000 
#    0.000    0.000    0.000    0.000    0.000    0.000 
#
# Total GULP energy -446154.896305 kJ/mol
# GULP energy per Si atom -12393.191564 kJ/mol
# Density = 2.128567 g / cm^3
# Si number density = 21.334225 Si / 1000 Ang^3
#
#
#
# Elastic Constant Matrix: (Units=GPa)
#
#
# Indices 1 2 3 4 5 6 
#
# 1 78.7958 20.0874 28.2870 0.0000 0.0000 0.0000
# 2 20.0874 76.9614 52.3643 0.0000 0.0000 0.0000
# 3 28.2870 52.3643 127.7487 0.0000 0.0000 0.0000
# 4 0.0000 0.0000 0.0000 48.3299 0.0000 0.0000
# 5 0.0000 0.0000 0.0000 0.0000 21.1168 0.0000
# 6 0.0000 0.0000 0.0000 0.0000 0.0000 15.0975
#
#
#
# Elastic Compliance Matrix: (Units=1/GPa)
#
#
# Indices 1 2 3 4 5 6 
#
# 1 0.014038 -0.002148 -0.002228 0.000000 0.000000 0.000000
# 2 -0.002148 0.018348 -0.007045 0.000000 0.000000 0.000000
# 3 -0.002228 -0.007045 0.011209 0.000000 0.000000 0.000000
# 4 0.000000 0.000000 0.000000 0.020691 0.000000 0.000000
# 5 0.000000 0.000000 0.000000 0.000000 0.047356 0.000000
# 6 0.000000 0.000000 0.000000 0.000000 0.000000 0.066236
#
#
# Mechanical properties :
#
#
# Convention : Reuss Voigt Hill
#
# Bulk Modulus (GPa) = 48.18657 53.88702 51.03679
# Shear Modulus (GPa) = 24.08040 29.09334 26.58687
#
# Velocity S-wave (km/s) = 3.36329 3.69683 3.53400
# Velocity P-wave (km/s) = 6.14148 6.59813 6.37390
#
# Compressibility (1/GPa) = 0.02075267
#
# Stress axis : x y z
#
# Youngs Moduli (GPa) = 71.23271 54.50295 89.21445
#
# Poissons Ratio (x) = 0.11709 0.19876
# Poissons Ratio (y) = 0.15303 0.62852
# Poissons Ratio (z) = 0.15870 0.38397
#
# Static dielectric constant tensor:
#      x y z
#    x 3.744910 0.000000 0.000000 
#    y 0.000000 3.553410 0.000000 
#    z 0.000000 0.000000 4.078050 
# 
# 
# High freq. dielectric constant tensor:
#      x y z
#    x 1.834150 0.000000 0.000000 
#    y 0.000000 1.814910 0.000000 
#    z 0.000000 0.000000 1.841670 
# 
# From -- ./inp_files/18951.got.cif
#   From: 2010.03.12/outbox.cif.g09.slc.cpg/sg64_10_cif.got.tgz:18951.got - 2010.04.10 20:19:32.
