data_PCOD8264842
_publ_section_title
;
Structure prediction by ZEFSAII (Michael W. Deem and Ramdas Pophale) SiO2 
 PCOD8264842
Probable space group: C M C A
;
_chemical_formula_sum "Si O2"
_cell_formula_units_Z 96
_cell_length_a 20.367048
_cell_length_b 13.714274
_cell_length_c 16.045637
_cell_angle_alpha 90.000000
_cell_angle_beta 90.000000
_cell_angle_gamma 90.000000
_cell_volume 4481.855723
_symmetry_space_group_name_H-M "C M C A"
_symmetry_group_IT_number 64
_symmetry_cell_setting 'orthorhombic'
loop_
_space_group_symop_operation_xyz
x,y,z
-x,1/2-y,1/2+z
x,-y,-z
-x,1/2+y,1/2-z
-x,-y,-z
x,1/2+y,1/2-z
-x,y,z
x,1/2-y,1/2+z
1/2+x,1/2+y,z
1/2-x,-y,1/2+z
1/2+x,1/2-y,-z
1/2-x,y,1/2-z
1/2-x,1/2-y,-z
1/2+x,y,1/2-z
1/2-x,1/2+y,z
1/2+x,-y,1/2+z
loop_
_atom_site_type_symbol
_atom_site_label
_atom_site_fract_x
_atom_site_fract_y
_atom_site_fract_z
Si Si1 0.810701 0.163391 0.424332
Si Si2 0.574768 0.775635 0.352668
Si Si3 0.238422 0.489691 0.159210
Si Si4 0.116772 0.488830 0.401627
Si Si5 0.696509 0.205284 0.890588
Si Si6 0.925223 0.309084 0.669900
O O1 0.878796 0.221015 0.417985
O O2 0.751729 0.213864 0.371789
O O3 0.789813 0.157853 0.519808
O O4 0.815944 0.054737 0.388141
O O5 0.500000 0.753930 0.377406
O O6 0.587423 0.891196 0.359918
O O7 0.590692 0.727926 0.263002
O O8 0.250000 0.535228 0.250000
O O9 0.304869 0.486412 0.105293
O O10 0.206317 0.383289 0.173683
O O11 0.097694 0.500000 0.500000
O O12 0.086720 0.576142 0.345720
O O13 0.623915 0.250003 0.889370
O O14 0.000000 0.282922 0.646257
#
# Coordination Sequence:
#
# PCOD8264842 Si02
#       6
#    16  16  16  16  16  16
#     4  11  23  40  64  94 130 168 212 268 328 391
#     4  11  25  43  65  97 136 175 218 271 332 393
#     4  12  24  39  66  97 130 170 218 274 332 391
#     4  12  23  42  72 101 129 169 228 287 329 380
#     4  11  23  40  64  94 130 168 212 268 328 391
#     4  11  25  43  65  97 136 175 218 271 332 393
#
# _framework density 21.419699000000001
#
# number of rings (size 3 to 8) (size 9 to 14) (size 15 to 20)
#    0.000    0.667    3.333    5.000    0.000    3.333 
#    0.000    2.500    0.000    2.000    0.000    0.000 
#    0.000    0.000    0.000    0.000    0.000    0.000 
#
# Total GULP energy -595252.815128 kJ/mol
# GULP energy per Si atom -12401.100315 kJ/mol
# Density = 2.137095 g / cm^3
# Si number density = 21.419699 Si / 1000 Ang^3
#
#
#
# Elastic Constant Matrix: (Units=GPa)
#
#
# Indices 1 2 3 4 5 6 
#
# 1 128.3416 42.2844 17.4587 0.0000 0.0000 0.0000
# 2 42.2844 103.9426 34.0507 0.0000 0.0000 0.0000
# 3 17.4587 34.0507 78.6198 0.0000 0.0000 0.0000
# 4 0.0000 0.0000 0.0000 35.3818 0.0000 0.0000
# 5 0.0000 0.0000 0.0000 0.0000 24.0933 0.0000
# 6 0.0000 0.0000 0.0000 0.0000 0.0000 29.0905
#
#
#
# Elastic Compliance Matrix: (Units=1/GPa)
#
#
# Indices 1 2 3 4 5 6 
#
# 1 0.009013 -0.003509 -0.000482 0.000000 0.000000 0.000000
# 2 -0.003509 0.012577 -0.004668 0.000000 0.000000 0.000000
# 3 -0.000482 -0.004668 0.014848 0.000000 0.000000 0.000000
# 4 0.000000 0.000000 0.000000 0.028263 0.000000 0.000000
# 5 0.000000 0.000000 0.000000 0.000000 0.041505 0.000000
# 6 0.000000 0.000000 0.000000 0.000000 0.000000 0.034375
#
#
# Mechanical properties :
#
#
# Convention : Reuss Voigt Hill
#
# Bulk Modulus (GPa) = 52.29778 55.38798 53.84288
# Shear Modulus (GPa) = 30.43692 32.18713 31.31202
#
# Velocity S-wave (km/s) = 3.77368 3.88066 3.82754
# Velocity P-wave (km/s) = 6.59214 6.78188 6.68768
#
# Compressibility (1/GPa) = 0.01912127
#
# Stress axis : x y z
#
# Youngs Moduli (GPa) = 110.94730 79.50810 67.34806
#
# Poissons Ratio (x) = 0.27898 0.03245
# Poissons Ratio (y) = 0.38929 0.31439
# Poissons Ratio (z) = 0.05346 0.37115
#
# Static dielectric constant tensor:
#      x y z
#    x 3.816050 0.000000 0.000000 
#    y 0.000000 3.997210 0.000000 
#    z 0.000000 0.000000 3.746640 
# 
# 
# High freq. dielectric constant tensor:
#      x y z
#    x 1.836370 0.000000 0.000000 
#    y 0.000000 1.851570 0.000000 
#    z 0.000000 0.000000 1.840350 
# 
# From -- ./inp_files/26294.got.cif
#   From: 2010.03.12/outbox.cif.g09.slc.cpg/sg64_14_cif.got.tgz:26294.got - 2010.04.10 20:19:32.
