data_PCOD8264306
_publ_section_title
;
Structure prediction by ZEFSAII (Michael W. Deem and Ramdas Pophale) SiO2 
 PCOD8264306
Probable space group: C M C A
;
_chemical_formula_sum "Si O2"
_cell_formula_units_Z 80
_cell_length_a 14.198661
_cell_length_b 11.507907
_cell_length_c 21.436164
_cell_angle_alpha 90.000000
_cell_angle_beta 90.000000
_cell_angle_gamma 90.000000
_cell_volume 3502.602109
_symmetry_space_group_name_H-M "C M C A"
_symmetry_group_IT_number 64
_symmetry_cell_setting 'orthorhombic'
loop_
_space_group_symop_operation_xyz
x,y,z
-x,1/2-y,1/2+z
x,-y,-z
-x,1/2+y,1/2-z
-x,-y,-z
x,1/2+y,1/2-z
-x,y,z
x,1/2-y,1/2+z
1/2+x,1/2+y,z
1/2-x,-y,1/2+z
1/2+x,1/2-y,-z
1/2-x,y,1/2-z
1/2-x,1/2-y,-z
1/2+x,y,1/2-z
1/2-x,1/2+y,z
1/2+x,-y,1/2+z
loop_
_atom_site_type_symbol
_atom_site_label
_atom_site_fract_x
_atom_site_fract_y
_atom_site_fract_z
Si Si1 0.659917 0.105097 0.380499
Si Si2 0.723962 0.395377 0.059393
Si Si3 0.708040 0.272092 0.182989
Si Si4 0.895290 0.770654 0.481190
Si Si5 0.500000 0.031196 0.296977
Si Si6 0.000000 0.271004 0.279351
O O1 0.744888 0.149914 0.337368
O O2 0.603488 0.209784 0.413019
O O3 0.699315 0.032317 0.440787
O O4 0.592688 0.022999 0.339633
O O5 0.738397 0.368632 0.133028
O O6 0.820655 0.375778 0.021356
O O7 0.637939 0.316470 0.035377
O O8 0.750000 0.309958 0.250000
O O9 0.595429 0.253583 0.181934
O O10 0.000000 0.816408 0.496639
O O11 0.500000 0.909874 0.255438
O O12 0.500000 0.162193 0.268623
#
# Coordination Sequence:
#
# PCOD8264306 Si02
#       6
#    16  16  16  16   8   8
#     4  11  22  41  66  95 133 178 233 292 343 422
#     4  10  23  40  65  94 135 178 221 294 350 414
#     4  11  24  42  64  94 136 176 230 284 349 415
#     4  10  22  40  66  98 129 173 237 286 349 418
#     4  12  24  44  70 101 139 189 241 283 367 416
#     4  12  26  46  67 102 139 188 234 293 349 432
#
# _framework density 22.840161999999999
#
# number of rings (size 3 to 8) (size 9 to 14) (size 15 to 20)
#    0.000    1.200    5.000    0.600    2.800    3.200 
#    1.800    0.000    0.000    3.600    0.000    0.000 
#    0.000    0.000    0.000    0.000    0.000    0.000 
#
# Total GULP energy -495642.381291 kJ/mol
# GULP energy per Si atom -12391.059532 kJ/mol
# Density = 2.278818 g / cm^3
# Si number density = 22.840162 Si / 1000 Ang^3
#
#
#
# Elastic Constant Matrix: (Units=GPa)
#
#
# Indices 1 2 3 4 5 6 
#
# 1 173.9960 29.3119 12.0741 0.0000 0.0000 0.0000
# 2 29.3119 109.2002 9.2620 0.0000 0.0000 0.0000
# 3 12.0741 9.2620 58.5197 0.0000 0.0000 0.0000
# 4 0.0000 0.0000 0.0000 43.0577 0.0000 0.0000
# 5 0.0000 0.0000 0.0000 0.0000 26.4553 0.0000
# 6 0.0000 0.0000 0.0000 0.0000 0.0000 19.0202
#
#
#
# Elastic Compliance Matrix: (Units=1/GPa)
#
#
# Indices 1 2 3 4 5 6 
#
# 1 0.006078 -0.001546 -0.001009 0.000000 0.000000 0.000000
# 2 -0.001546 0.009675 -0.001212 0.000000 0.000000 0.000000
# 3 -0.001009 -0.001212 0.017488 0.000000 0.000000 0.000000
# 4 0.000000 0.000000 0.000000 0.023225 0.000000 0.000000
# 5 0.000000 0.000000 0.000000 0.000000 0.037800 0.000000
# 6 0.000000 0.000000 0.000000 0.000000 0.000000 0.052576
#
#
# Mechanical properties :
#
#
# Convention : Reuss Voigt Hill
#
# Bulk Modulus (GPa) = 38.90089 49.22355 44.06222
# Shear Modulus (GPa) = 30.68521 37.11118 33.89819
#
# Velocity S-wave (km/s) = 3.66932 4.03528 3.85664
# Velocity P-wave (km/s) = 5.91783 6.58099 6.25820
#
# Compressibility (1/GPa) = 0.02570635
#
# Stress axis : x y z
#
# Youngs Moduli (GPa) = 164.53572 103.35647 57.18076
#
# Poissons Ratio (x) = 0.15977 0.05771
# Poissons Ratio (y) = 0.25434 0.06932
# Poissons Ratio (z) = 0.16607 0.12531
#
# Static dielectric constant tensor:
#      x y z
#    x 4.202830 0.000000 0.000000 
#    y 0.000000 4.121730 0.000000 
#    z 0.000000 0.000000 4.058470 
# 
# 
# High freq. dielectric constant tensor:
#      x y z
#    x 1.905550 0.000000 0.000000 
#    y 0.000000 1.895530 0.000000 
#    z 0.000000 0.000000 1.899530 
# 
# From -- ./inp_files/44988.got.cif
#   From: 2010.03.12/outbox.cif.g09.slc.cpg/sg64_23_cif.got.tgz:44988.got - 2010.04.10 20:19:32.
