data_PCOD8264377
_publ_section_title
;
Structure prediction by ZEFSAII (Michael W. Deem and Ramdas Pophale) SiO2 
 PCOD8264377
Probable space group: C M C A
;
_chemical_formula_sum "Si O2"
_cell_formula_units_Z 64
_cell_length_a 9.304890
_cell_length_b 21.645669
_cell_length_c 13.971575
_cell_angle_alpha 90.000000
_cell_angle_beta 90.000000
_cell_angle_gamma 90.000000
_cell_volume 2814.022871
_symmetry_space_group_name_H-M "C M C A"
_symmetry_group_IT_number 64
_symmetry_cell_setting 'orthorhombic'
loop_
_space_group_symop_operation_xyz
x,y,z
-x,1/2-y,1/2+z
x,-y,-z
-x,1/2+y,1/2-z
-x,-y,-z
x,1/2+y,1/2-z
-x,y,z
x,1/2-y,1/2+z
1/2+x,1/2+y,z
1/2-x,-y,1/2+z
1/2+x,1/2-y,-z
1/2-x,y,1/2-z
1/2-x,1/2-y,-z
1/2+x,y,1/2-z
1/2-x,1/2+y,z
1/2+x,-y,1/2+z
loop_
_atom_site_type_symbol
_atom_site_label
_atom_site_fract_x
_atom_site_fract_y
_atom_site_fract_z
Si Si1 0.500000 0.025426 0.809811
Si Si2 0.772247 0.048371 0.418113
Si Si3 0.000000 0.622399 0.974071
Si Si4 0.000000 0.743395 0.870478
Si Si5 0.750000 0.690103 0.750000
Si Si6 0.500000 0.384004 0.926247
Si Si7 0.500000 0.384938 0.151488
O O1 0.500000 0.089564 0.870021
O O2 0.500000 0.046438 0.699414
O O3 0.641071 0.985635 0.833981
O O4 0.862051 0.103215 0.466109
O O5 0.633850 0.082426 0.375114
O O6 0.729640 0.000000 0.500000
O O7 0.000000 0.695886 0.959495
O O8 0.853967 0.733877 0.811097
O O9 0.000000 0.811616 0.910525
O O10 0.648221 0.648830 0.818427
O O11 0.500000 0.396417 0.039332
#
# Coordination Sequence:
#
# PCOD8264377 Si02
#       7
#     8  16   8   8   8   8   8
#     4   9  18  40  67  92 130 175 222 274 325 384
#     4   9  20  37  63  93 133 174 214 279 324 390
#     4   9  16  36  64  95 126 173 227 265 336 380
#     4  11  23  42  67  98 138 177 219 273 334 400
#     4  10  22  42  66  96 138 174 220 278 326 396
#     4  12  25  38  65 106 139 171 220 273 331 402
#     4  11  23  38  69 105 129 165 227 285 320 382
#
# _framework density 22.74324
#
# number of rings (size 3 to 8) (size 9 to 14) (size 15 to 20)
#    0.000    2.000    2.500    3.375    3.500    4.000 
#    0.000    3.750   11.000    0.000    0.000    0.000 
#    0.000    0.000    0.000    0.000    0.000    0.000 
#
# Total GULP energy -396815.378876 kJ/mol
# GULP energy per Si atom -12400.480590 kJ/mol
# Density = 2.269148 g / cm^3
# Si number density = 22.743240 Si / 1000 Ang^3
#
#
#
# Elastic Constant Matrix: (Units=GPa)
#
#
# Indices 1 2 3 4 5 6 
#
# 1 167.4615 80.1706 30.8942 0.0000 0.0000 0.0000
# 2 80.1706 172.7846 44.5024 0.0000 0.0000 0.0000
# 3 30.8942 44.5024 76.4201 0.0000 0.0000 0.0000
# 4 0.0000 0.0000 0.0000 33.8162 0.0000 0.0000
# 5 0.0000 0.0000 0.0000 0.0000 3.2169 0.0000
# 6 0.0000 0.0000 0.0000 0.0000 0.0000 22.2337
#
#
#
# Elastic Compliance Matrix: (Units=1/GPa)
#
#
# Indices 1 2 3 4 5 6 
#
# 1 0.007773 -0.003291 -0.001226 0.000000 0.000000 0.000000
# 2 -0.003291 0.008202 -0.003446 0.000000 0.000000 0.000000
# 3 -0.001226 -0.003446 0.015588 0.000000 0.000000 0.000000
# 4 0.000000 0.000000 0.000000 0.029572 0.000000 0.000000
# 5 0.000000 0.000000 0.000000 0.000000 0.310861 0.000000
# 6 0.000000 0.000000 0.000000 0.000000 0.000000 0.044977
#
#
# Mechanical properties :
#
#
# Convention : Reuss Voigt Hill
#
# Bulk Modulus (GPa) = 63.94941 80.86672 72.40806
# Shear Modulus (GPa) = 11.41263 29.25995 20.33629
#
# Velocity S-wave (km/s) = 2.24253 3.59072 2.99351
# Velocity P-wave (km/s) = 5.90629 7.26805 6.62227
#
# Compressibility (1/GPa) = 0.01563736
#
# Stress axis : x y z
#
# Youngs Moduli (GPa) = 128.64705 121.92061 64.15225
#
# Poissons Ratio (x) = 0.40123 0.07865
# Poissons Ratio (y) = 0.42337 0.22107
# Poissons Ratio (z) = 0.15772 0.42013
#
# Static dielectric constant tensor:
#      x y z
#    x 4.475100 0.000000 0.000000 
#    y 0.000000 3.892240 0.000000 
#    z 0.000000 0.000000 3.786880 
# 
# 
# High freq. dielectric constant tensor:
#      x y z
#    x 1.921170 0.000000 0.000000 
#    y 0.000000 1.889260 0.000000 
#    z 0.000000 0.000000 1.873630 
# 
# From -- ./inp_files/20970.got.cif
#   From: 2010.03.12/outbox.cif.g09.slc.cpg/sg64_11_cif.got.tgz:20970.got - 2010.04.10 20:19:32.
