data_PCOD8264002
_publ_section_title
;
Structure prediction by ZEFSAII (Michael W. Deem and Ramdas Pophale) SiO2 
 PCOD8264002
Probable space group: C M C A
;
_chemical_formula_sum "Si O2"
_cell_formula_units_Z 96
_cell_length_a 21.036822
_cell_length_b 14.889316
_cell_length_c 13.788214
_cell_angle_alpha 90.000000
_cell_angle_beta 90.000000
_cell_angle_gamma 90.000000
_cell_volume 4318.798031
_symmetry_space_group_name_H-M "C M C A"
_symmetry_group_IT_number 64
_symmetry_cell_setting 'orthorhombic'
loop_
_space_group_symop_operation_xyz
x,y,z
-x,1/2-y,1/2+z
x,-y,-z
-x,1/2+y,1/2-z
-x,-y,-z
x,1/2+y,1/2-z
-x,y,z
x,1/2-y,1/2+z
1/2+x,1/2+y,z
1/2-x,-y,1/2+z
1/2+x,1/2-y,-z
1/2-x,y,1/2-z
1/2-x,1/2-y,-z
1/2+x,y,1/2-z
1/2-x,1/2+y,z
1/2+x,-y,1/2+z
loop_
_atom_site_type_symbol
_atom_site_label
_atom_site_fract_x
_atom_site_fract_y
_atom_site_fract_z
Si Si1 0.568230 0.069430 0.087175
Si Si2 0.611167 0.027965 0.732282
Si Si3 0.702469 0.895458 0.974083
Si Si4 0.666563 0.137372 0.382911
Si Si5 0.306949 0.179386 0.822328
Si Si6 0.931500 0.400604 0.460928
O O1 0.500000 0.123329 0.080924
O O2 0.633178 0.127846 0.075320
O O3 0.564617 0.019013 0.191022
O O4 0.569791 0.000000 0.000000
O O5 0.656255 0.089809 0.795896
O O6 0.577712 0.094094 0.655247
O O7 0.649089 0.951014 0.676041
O O8 0.757933 0.869179 0.899969
O O9 0.715833 0.834547 0.067568
O O10 0.707825 0.000000 0.000000
O O11 0.652370 0.227816 0.321078
O O12 0.626296 0.147632 0.483151
O O13 0.250000 0.193304 0.750000
O O14 0.935724 0.500000 0.500000
O O15 0.000000 0.352589 0.480737
#
# Coordination Sequence:
#
# PCOD8264002 Si02
#       6
#    16  16  16  16  16  16
#     4  10  21  39  67  97 131 176 223 273 340 410
#     4  11  22  42  68  98 133 177 227 276 343 409
#     4  11  21  42  66  93 130 174 222 276 340 406
#     4  11  25  41  66  97 137 174 228 284 339 396
#     4  12  25  39  63  99 138 179 231 282 341 405
#     4   9  19  41  69  94 127 172 221 276 338 403
#
# _framework density 22.228407000000001
#
# number of rings (size 3 to 8) (size 9 to 14) (size 15 to 20)
#    0.000    1.333    3.333    4.500    2.333    0.667 
#    0.000    2.500    0.000    0.000    0.000    0.000 
#    0.000    0.000    0.000    0.000    0.000    0.000 
#
# Total GULP energy -594747.823202 kJ/mol
# GULP energy per Si atom -12390.579650 kJ/mol
# Density = 2.217781 g / cm^3
# Si number density = 22.228407 Si / 1000 Ang^3
#
#
#
# Elastic Constant Matrix: (Units=GPa)
#
#
# Indices 1 2 3 4 5 6 
#
# 1 161.9827 24.0706 61.0969 0.0000 0.0000 0.0000
# 2 24.0706 77.3190 13.6943 0.0000 0.0000 0.0000
# 3 61.0969 13.6943 102.7338 0.0000 0.0000 0.0000
# 4 0.0000 0.0000 0.0000 5.3489 0.0000 0.0000
# 5 0.0000 0.0000 0.0000 0.0000 -13.1554 0.0000
# 6 0.0000 0.0000 0.0000 0.0000 0.0000 2.7444
#
#
#
# Elastic Compliance Matrix: (Units=1/GPa)
#
#
# Indices 1 2 3 4 5 6 
#
# 1 0.008177 -0.001725 -0.004633 0.000000 0.000000 0.000000
# 2 -0.001725 0.013610 -0.000788 0.000000 0.000000 0.000000
# 3 -0.004633 -0.000788 0.012594 0.000000 0.000000 0.000000
# 4 0.000000 0.000000 0.000000 0.186955 0.000000 0.000000
# 5 0.000000 0.000000 0.000000 0.000000 -0.076014 0.000000
# 6 0.000000 0.000000 0.000000 0.000000 0.000000 0.364383
#
#
# Mechanical properties :
#
#
# Convention : Reuss Voigt Hill
#
# Bulk Modulus (GPa) = 49.77933 59.97323 54.87628
# Shear Modulus (GPa) = 9.42162 15.19915 12.31038
#
# Velocity S-wave (km/s) = 2.06101 2.61774 2.35588
# Velocity P-wave (km/s) = 5.30158 6.01463 5.66933
#
# Compressibility (1/GPa) = 0.02008866
#
# Stress axis : x y z
#
# Youngs Moduli (GPa) = 122.28783 73.47480 79.40027
#
# Poissons Ratio (x) = 0.12675 0.36788
# Poissons Ratio (y) = 0.21096 0.06259
# Poissons Ratio (z) = 0.56659 0.05792
#
# Static dielectric constant tensor:
#      x y z
#    x 5.307660 0.000000 0.000000 
#    y 0.000000 3.868650 0.000000 
#    z 0.000000 0.000000 4.201830 
# 
# 
# High freq. dielectric constant tensor:
#      x y z
#    x 1.877070 0.000000 0.000000 
#    y 0.000000 1.845810 0.000000 
#    z 0.000000 0.000000 1.889430 
# 
# From -- ./inp_files/26353.got.cif
#   From: 2010.03.12/outbox.cif.g09.slc.cpg/sg64_14_cif.got.tgz:26353.got - 2010.04.10 20:19:32.
