data_PCOD8264718
_publ_section_title
;
Structure prediction by ZEFSAII (Michael W. Deem and Ramdas Pophale) SiO2 
 PCOD8264718
Probable space group: C M C A
;
_chemical_formula_sum "Si O2"
_cell_formula_units_Z 96
_cell_length_a 13.564352
_cell_length_b 26.539756
_cell_length_c 13.633360
_cell_angle_alpha 90.000000
_cell_angle_beta 90.000000
_cell_angle_gamma 90.000000
_cell_volume 4907.935876
_symmetry_space_group_name_H-M "C M C A"
_symmetry_group_IT_number 64
_symmetry_cell_setting 'orthorhombic'
loop_
_space_group_symop_operation_xyz
x,y,z
-x,1/2-y,1/2+z
x,-y,-z
-x,1/2+y,1/2-z
-x,-y,-z
x,1/2+y,1/2-z
-x,y,z
x,1/2-y,1/2+z
1/2+x,1/2+y,z
1/2-x,-y,1/2+z
1/2+x,1/2-y,-z
1/2-x,y,1/2-z
1/2-x,1/2-y,-z
1/2+x,y,1/2-z
1/2-x,1/2+y,z
1/2+x,-y,1/2+z
loop_
_atom_site_type_symbol
_atom_site_label
_atom_site_fract_x
_atom_site_fract_y
_atom_site_fract_z
Si Si1 0.696510 0.242648 0.849850
Si Si2 0.795124 0.073308 0.491863
Si Si3 0.500000 0.573381 0.594519
Si Si4 0.000000 0.025839 0.804126
Si Si5 0.500000 0.318075 0.306820
Si Si6 0.290553 0.495971 0.146800
Si Si7 0.192212 0.326713 0.496976
Si Si8 0.000000 0.634793 0.600305
O O1 0.750000 0.257845 0.750000
O O2 0.595851 0.213104 0.834779
O O3 0.773035 0.208315 0.908590
O O4 0.672123 0.294012 0.906530
O O5 0.769622 0.044977 0.389928
O O6 0.777024 0.132524 0.478851
O O7 0.906656 0.062768 0.525089
O O8 0.721617 0.050874 0.573525
O O9 0.500000 0.535099 0.686601
O O10 0.500000 0.630299 0.632737
O O11 0.000000 0.078655 0.859767
O O12 0.093499 0.992938 0.838792
O O13 0.500000 0.326672 0.190855
O O14 0.250000 0.476929 0.250000
O O15 0.094089 0.355889 0.467437
#
# Coordination Sequence:
#
# PCOD8264718 Si02
#       8
#    16  16   8   8   8  16  16   8
#     4  11  23  40  63  92 128 166 210 260 317 373
#     4  11  24  41  65  93 128 169 213 261 328 377
#     4  11  22  39  69  97 123 167 218 273 315 381
#     4  11  22  38  68  97 124 167 217 268 324 375
#     4  11  21  37  65  96 124 162 215 266 311 371
#     4  11  24  41  64  94 131 167 212 268 318 387
#     4  11  23  40  62  93 128 166 209 262 314 383
#     4  11  21  36  66  94 123 162 216 261 322 371
#
# _framework density 19.560157
#
# number of rings (size 3 to 8) (size 9 to 14) (size 15 to 20)
#    0.000    1.000    6.667    0.500    0.000    5.333 
#    0.000    0.833    0.000    2.000    0.000    0.000 
#    0.000    0.000    0.000    0.000    0.000    0.000 
#
# Total GULP energy -595336.865242 kJ/mol
# GULP energy per Si atom -12402.851359 kJ/mol
# Density = 1.951564 g / cm^3
# Si number density = 19.560157 Si / 1000 Ang^3
#
#
#
# Elastic Constant Matrix: (Units=GPa)
#
#
# Indices 1 2 3 4 5 6 
#
# 1 137.0723 14.4686 36.1218 0.0000 0.0000 0.0000
# 2 14.4686 75.8986 32.4171 0.0000 0.0000 0.0000
# 3 36.1218 32.4171 88.6304 0.0000 0.0000 0.0000
# 4 0.0000 0.0000 0.0000 28.1155 0.0000 0.0000
# 5 0.0000 0.0000 0.0000 0.0000 57.1198 0.0000
# 6 0.0000 0.0000 0.0000 0.0000 0.0000 52.3059
#
#
#
# Elastic Compliance Matrix: (Units=1/GPa)
#
#
# Indices 1 2 3 4 5 6 
#
# 1 0.008175 -0.000160 -0.003273 0.000000 0.000000 0.000000
# 2 -0.000160 0.015618 -0.005647 0.000000 0.000000 0.000000
# 3 -0.003273 -0.005647 0.014682 0.000000 0.000000 0.000000
# 4 0.000000 0.000000 0.000000 0.035568 0.000000 0.000000
# 5 0.000000 0.000000 0.000000 0.000000 0.017507 0.000000
# 6 0.000000 0.000000 0.000000 0.000000 0.000000 0.019118
#
#
# Mechanical properties :
#
#
# Convention : Reuss Voigt Hill
#
# Bulk Modulus (GPa) = 49.22688 51.95737 50.59213
# Shear Modulus (GPa) = 36.87311 42.08116 39.47714
#
# Velocity S-wave (km/s) = 4.34650 4.64332 4.49736
# Velocity P-wave (km/s) = 7.10007 7.44095 7.27251
#
# Compressibility (1/GPa) = 0.02031410
#
# Stress axis : x y z
#
# Youngs Moduli (GPa) = 122.32600 64.02897 68.10985
#
# Poissons Ratio (x) = 0.01027 0.22293
# Poissons Ratio (y) = 0.01963 0.38461
# Poissons Ratio (z) = 0.40038 0.36157
#
# Static dielectric constant tensor:
#      x y z
#    x 3.734600 0.000000 0.000000 
#    y 0.000000 3.432070 0.000000 
#    z 0.000000 0.000000 3.614390 
# 
# 
# High freq. dielectric constant tensor:
#      x y z
#    x 1.776270 0.000000 0.000000 
#    y 0.000000 1.751490 0.000000 
#    z 0.000000 0.000000 1.761000 
# 
# From -- ./inp_files/22704.got.cif
#   From: 2010.03.12/outbox.cif.g09.slc.cpg/sg64_12_cif.got.tgz:22704.got - 2010.04.10 20:19:32.
