data_PCOD8264681
_publ_section_title
;
Structure prediction by ZEFSAII (Michael W. Deem and Ramdas Pophale) SiO2 
 PCOD8264681
Probable space group: C M C A
;
_chemical_formula_sum "Si O2"
_cell_formula_units_Z 96
_cell_length_a 10.828787
_cell_length_b 24.079298
_cell_length_c 17.479997
_cell_angle_alpha 90.000000
_cell_angle_beta 90.000000
_cell_angle_gamma 90.000000
_cell_volume 4557.902036
_symmetry_space_group_name_H-M "C M C A"
_symmetry_group_IT_number 64
_symmetry_cell_setting 'orthorhombic'
loop_
_space_group_symop_operation_xyz
x,y,z
-x,1/2-y,1/2+z
x,-y,-z
-x,1/2+y,1/2-z
-x,-y,-z
x,1/2+y,1/2-z
-x,y,z
x,1/2-y,1/2+z
1/2+x,1/2+y,z
1/2-x,-y,1/2+z
1/2+x,1/2-y,-z
1/2-x,y,1/2-z
1/2-x,1/2-y,-z
1/2+x,y,1/2-z
1/2-x,1/2+y,z
1/2+x,-y,1/2+z
loop_
_atom_site_type_symbol
_atom_site_label
_atom_site_fract_x
_atom_site_fract_y
_atom_site_fract_z
Si Si1 0.737068 0.140732 0.076321
Si Si2 0.000000 0.087512 0.465935
Si Si3 0.749001 0.568459 0.664541
Si Si4 0.852013 0.732448 0.185279
Si Si5 0.859202 0.166404 0.927219
Si Si6 0.140418 0.025538 0.078709
Si Si7 0.500000 0.518886 0.615858
O O1 0.614410 0.128656 0.028948
O O2 0.700058 0.174786 0.151929
O O3 0.794498 0.082377 0.103465
O O4 0.826638 0.173704 0.017295
O O5 0.000000 0.044864 0.533338
O O6 0.000000 0.048509 0.389596
O O7 0.750000 0.592154 0.750000
O O8 0.770149 0.619709 0.607955
O O9 0.847775 0.519873 0.645980
O O10 0.617682 0.539803 0.660220
O O11 0.750000 0.749240 0.250000
O O12 0.841241 0.776166 0.116710
O O13 0.000000 0.728496 0.211728
O O14 0.000000 0.145734 0.919652
O O15 0.000000 0.040607 0.062550
O O16 0.200002 0.000000 0.000000
#
# Coordination Sequence:
#
# PCOD8264681 Si02
#       7
#    16   8  16  16  16  16   8
#     4  12  22  43  71 101 128 174 224 276 334 396
#     4  11  20  40  66  93 129 171 223 274 319 388
#     4  12  25  39  62  97 136 177 219 273 342 402
#     4  11  27  50  71  99 139 180 227 284 343 403
#     4  11  24  45  69  97 133 174 228 283 334 403
#     4  11  22  40  66  96 134 175 218 271 330 398
#     4  11  22  40  64  93 134 179 219 271 331 404
#
# _framework density 21.062322999999999
#
# number of rings (size 3 to 8) (size 9 to 14) (size 15 to 20)
#    0.000    0.667    5.833    2.000    2.333    2.000 
#    3.000    0.000    0.000    0.000    0.000    0.000 
#    0.000    0.000    0.000    0.000    0.000    0.000 
#
# Total GULP energy -594906.603911 kJ/mol
# GULP energy per Si atom -12393.887581 kJ/mol
# Density = 2.101438 g / cm^3
# Si number density = 21.062323 Si / 1000 Ang^3
#
#
#
# Elastic Constant Matrix: (Units=GPa)
#
#
# Indices 1 2 3 4 5 6 
#
# 1 92.0561 21.7880 18.8361 0.0000 0.0000 0.0000
# 2 21.7880 82.7174 3.4637 0.0000 0.0000 0.0000
# 3 18.8361 3.4637 55.3028 0.0000 0.0000 0.0000
# 4 0.0000 0.0000 0.0000 27.7530 0.0000 0.0000
# 5 0.0000 0.0000 0.0000 0.0000 -0.1454 0.0000
# 6 0.0000 0.0000 0.0000 0.0000 0.0000 67.1044
#
#
#
# Elastic Compliance Matrix: (Units=1/GPa)
#
#
# Indices 1 2 3 4 5 6 
#
# 1 0.012423 -0.003103 -0.004037 0.000000 0.000000 0.000000
# 2 -0.003103 0.012896 0.000249 0.000000 0.000000 0.000000
# 3 -0.004037 0.000249 0.019442 0.000000 0.000000 0.000000
# 4 0.000000 0.000000 0.000000 0.036032 0.000000 0.000000
# 5 0.000000 0.000000 0.000000 0.000000 -6.879554 0.000000
# 6 0.000000 0.000000 0.000000 0.000000 0.000000 0.014902
#
#
# Mechanical properties :
#
#
# Convention : Reuss Voigt Hill
#
# Bulk Modulus (GPa) = 32.27967 35.36133 33.82050
# Shear Modulus (GPa) = -0.73967 31.34164 15.30098
#
# Velocity S-wave (km/s) = -0.59325 3.86170 2.69822
# Velocity P-wave (km/s) = 3.85873 6.05879 5.07931
#
# Compressibility (1/GPa) = 0.03097925
#
# Stress axis : x y z
#
# Youngs Moduli (GPa) = 80.49270 77.54132 51.43592
#
# Poissons Ratio (x) = 0.24064 0.20765
# Poissons Ratio (y) = 0.24980 -0.01282
# Poissons Ratio (z) = 0.32495 -0.01933
#
# Static dielectric constant tensor:
#      x y z
#    x 4.247180 0.000000 0.000000 
#    y 0.000000 3.782400 0.000000 
#    z 0.000000 0.000000 3.705720 
# 
# 
# High freq. dielectric constant tensor:
#      x y z
#    x 1.841090 0.000000 0.000000 
#    y 0.000000 1.827500 0.000000 
#    z 0.000000 0.000000 1.803190 
# 
# From -- ./inp_files/31128.got.cif
#   From: 2010.03.12/outbox.cif.g09.slc.cpg/sg64_16_cif.got.tgz:31128.got - 2010.04.10 20:19:32.
