data_PCOD8264504
_publ_section_title
;
Structure prediction by ZEFSAII (Michael W. Deem and Ramdas Pophale) SiO2 
 PCOD8264504
Probable space group: C M C A
;
_chemical_formula_sum "Si O2"
_cell_formula_units_Z 88
_cell_length_a 16.484908
_cell_length_b 12.480149
_cell_length_c 20.150900
_cell_angle_alpha 90.000000
_cell_angle_beta 90.000000
_cell_angle_gamma 90.000000
_cell_volume 4145.727439
_symmetry_space_group_name_H-M "C M C A"
_symmetry_group_IT_number 64
_symmetry_cell_setting 'orthorhombic'
loop_
_space_group_symop_operation_xyz
x,y,z
-x,1/2-y,1/2+z
x,-y,-z
-x,1/2+y,1/2-z
-x,-y,-z
x,1/2+y,1/2-z
-x,y,z
x,1/2-y,1/2+z
1/2+x,1/2+y,z
1/2-x,-y,1/2+z
1/2+x,1/2-y,-z
1/2-x,y,1/2-z
1/2-x,1/2-y,-z
1/2+x,y,1/2-z
1/2-x,1/2+y,z
1/2+x,-y,1/2+z
loop_
_atom_site_type_symbol
_atom_site_label
_atom_site_fract_x
_atom_site_fract_y
_atom_site_fract_z
Si Si1 0.833028 0.258584 0.542372
Si Si2 0.368807 0.975459 0.070699
Si Si3 0.798532 0.030992 0.109777
Si Si4 0.592104 0.140113 0.178225
Si Si5 0.409584 0.332617 0.083096
Si Si6 0.750000 0.423005 0.750000
O O1 0.750000 0.250000 0.500000
O O2 0.858215 0.151621 0.582162
O O3 0.832774 0.349597 0.599265
O O4 0.903983 0.285355 0.490653
O O5 0.280105 0.027325 0.063574
O O6 0.413226 0.032200 0.132773
O O7 0.413165 0.000000 0.000000
O O8 0.858733 0.939927 0.087313
O O9 0.773605 0.007221 0.186043
O O10 0.500000 0.153038 0.208584
O O11 0.618125 0.241454 0.134113
O O12 0.665210 0.139359 0.232338
O O13 0.500000 0.368024 0.098897
#
# Coordination Sequence:
#
# PCOD8264504 Si02
#       6
#    16  16  16  16  16   8
#     4  12  20  36  61  94 128 160 206 258 321 391
#     4  11  19  35  63  93 123 161 202 260 320 381
#     4  11  23  38  59  89 124 167 216 260 310 387
#     4  10  23  43  65  93 125 166 219 266 316 381
#     4  11  23  39  63  93 128 162 201 266 334 388
#     4  10  24  44  64  88 122 176 220 268 310 368
#
# _framework density 21.226672000000001
#
# number of rings (size 3 to 8) (size 9 to 14) (size 15 to 20)
#    0.000    1.091    5.455    1.636    0.000    4.000 
#    3.273    0.000    0.000    0.000    0.000    0.000 
#    0.000    0.000    0.000    0.000    0.000    0.000 
#
# Total GULP energy -545147.853286 kJ/mol
# GULP energy per Si atom -12389.723938 kJ/mol
# Density = 2.117836 g / cm^3
# Si number density = 21.226672 Si / 1000 Ang^3
#
#
#
# Elastic Constant Matrix: (Units=GPa)
#
#
# Indices 1 2 3 4 5 6 
#
# 1 104.2297 25.0459 22.0115 0.0000 0.0000 0.0000
# 2 25.0459 97.2047 -8.1865 0.0000 0.0000 0.0000
# 3 22.0115 -8.1865 66.3512 0.0000 0.0000 0.0000
# 4 0.0000 0.0000 0.0000 14.6148 0.0000 0.0000
# 5 0.0000 0.0000 0.0000 0.0000 20.3575 0.0000
# 6 0.0000 0.0000 0.0000 0.0000 0.0000 -47.4688
#
#
#
# Elastic Compliance Matrix: (Units=1/GPa)
#
#
# Indices 1 2 3 4 5 6 
#
# 1 0.011247 -0.003246 -0.004131 0.000000 0.000000 0.000000
# 2 -0.003246 0.011332 0.002475 0.000000 0.000000 0.000000
# 3 -0.004131 0.002475 0.016747 0.000000 0.000000 0.000000
# 4 0.000000 0.000000 0.000000 0.068424 0.000000 0.000000
# 5 0.000000 0.000000 0.000000 0.000000 0.049122 0.000000
# 6 0.000000 0.000000 0.000000 0.000000 0.000000 -0.021066
#
#
# Mechanical properties :
#
#
# Convention : Reuss Voigt Hill
#
# Bulk Modulus (GPa) = 33.87342 38.39195 36.13269
# Shear Modulus (GPa) = 32.16458 12.76169 22.46313
#
# Velocity S-wave (km/s) = 3.89690 2.45462 3.25661
# Velocity P-wave (km/s) = 6.01999 5.11463 5.58569
#
# Compressibility (1/GPa) = 0.02952167
#
# Stress axis : x y z
#
# Youngs Moduli (GPa) = 88.91547 88.24321 59.71125
#
# Poissons Ratio (x) = 0.28642 0.24669
# Poissons Ratio (y) = 0.28860 -0.14778
# Poissons Ratio (z) = 0.36735 -0.21840
#
# Static dielectric constant tensor:
#      x y z
#    x 3.967690 0.000000 0.000000 
#    y 0.000000 3.827150 0.000000 
#    z 0.000000 0.000000 3.705210 
# 
# 
# High freq. dielectric constant tensor:
#      x y z
#    x 1.832720 0.000000 0.000000 
#    y 0.000000 1.831750 0.000000 
#    z 0.000000 0.000000 1.812470 
# 
# From -- ./inp_files/40035.got.cif
#   From: 2010.03.12/outbox.cif.g09.slc.cpg/sg64_21_cif.got.tgz:40035.got - 2010.04.10 20:19:32.
