data_PCOD8264854
_publ_section_title
;
Structure prediction by ZEFSAII (Michael W. Deem and Ramdas Pophale) SiO2 
 PCOD8264854
Probable space group: C M C A
;
_chemical_formula_sum "Si O2"
_cell_formula_units_Z 112
_cell_length_a 28.796612
_cell_length_b 14.076322
_cell_length_c 14.382160
_cell_angle_alpha 90.000000
_cell_angle_beta 90.000000
_cell_angle_gamma 90.000000
_cell_volume 5829.814065
_symmetry_space_group_name_H-M "C M C A"
_symmetry_group_IT_number 64
_symmetry_cell_setting 'orthorhombic'
loop_
_space_group_symop_operation_xyz
x,y,z
-x,1/2-y,1/2+z
x,-y,-z
-x,1/2+y,1/2-z
-x,-y,-z
x,1/2+y,1/2-z
-x,y,z
x,1/2-y,1/2+z
1/2+x,1/2+y,z
1/2-x,-y,1/2+z
1/2+x,1/2-y,-z
1/2-x,y,1/2-z
1/2-x,1/2-y,-z
1/2+x,y,1/2-z
1/2-x,1/2+y,z
1/2+x,-y,1/2+z
loop_
_atom_site_type_symbol
_atom_site_label
_atom_site_fract_x
_atom_site_fract_y
_atom_site_fract_z
Si Si1 0.358198 0.839068 0.312695
Si Si2 0.051649 0.120576 0.095207
Si Si3 0.303004 0.999658 0.234278
Si Si4 0.225230 0.403768 0.050128
Si Si5 0.312952 0.218735 0.514405
Si Si6 0.449087 0.103091 0.613236
Si Si7 0.146736 0.171193 0.180545
O O1 0.354834 0.791842 0.414134
O O2 0.412381 0.866839 0.307653
O O3 0.344527 0.771901 0.227972
O O4 0.323667 0.929255 0.311731
O O5 0.091845 0.162552 0.161030
O O6 0.000000 0.155927 0.126977
O O7 0.054049 0.008564 0.102039
O O8 0.060356 0.150230 0.987953
O O9 0.250000 0.029749 0.250000
O O10 0.334535 0.093661 0.244930
O O11 0.304335 0.940910 0.138251
O O12 0.191825 0.333452 0.992202
O O13 0.241531 0.500000 0.000000
O O14 0.269447 0.334085 0.065086
O O15 0.323617 0.169063 0.415081
O O16 0.500000 0.133804 0.649159
#
# Coordination Sequence:
#
# PCOD8264854 Si02
#       7
#    16  16  16  16  16  16  16
#     4  12  23  38  60  88 119 155 208 252 297 373
#     4   9  18  35  61  90 116 149 198 250 311 375
#     4  12  24  39  58  86 120 156 204 254 297 354
#     4  11  23  42  59  82 120 165 203 254 302 350
#     4  11  24  39  60  87 119 160 212 250 301 368
#     4   9  18  35  62  89 117 151 192 252 315 367
#     4  12  24  38  63  90 118 167 209 252 308 366
#
# _framework density 19.211589
#
# number of rings (size 3 to 8) (size 9 to 14) (size 15 to 20)
#    0.000    1.143    5.714    2.571    0.000    2.286 
#    0.000    0.000    0.000    0.000    0.000    0.000 
#    0.000    9.143    0.000    0.000    0.000    0.000 
#
# Total GULP energy -693765.014312 kJ/mol
# GULP energy per Si atom -12388.660970 kJ/mol
# Density = 1.916786 g / cm^3
# Si number density = 19.211589 Si / 1000 Ang^3
#
#
#
# Elastic Constant Matrix: (Units=GPa)
#
#
# Indices 1 2 3 4 5 6 
#
# 1 101.6178 23.5930 22.4314 0.0000 0.0000 0.0000
# 2 23.5930 74.5326 10.2383 0.0000 0.0000 0.0000
# 3 22.4314 10.2383 55.9310 0.0000 0.0000 0.0000
# 4 0.0000 0.0000 0.0000 23.4378 0.0000 0.0000
# 5 0.0000 0.0000 0.0000 0.0000 33.5420 0.0000
# 6 0.0000 0.0000 0.0000 0.0000 0.0000 25.8366
#
#
#
# Elastic Compliance Matrix: (Units=1/GPa)
#
#
# Indices 1 2 3 4 5 6 
#
# 1 0.011442 -0.003069 -0.004027 0.000000 0.000000 0.000000
# 2 -0.003069 0.014586 -0.001439 0.000000 0.000000 0.000000
# 3 -0.004027 -0.001439 0.019758 0.000000 0.000000 0.000000
# 4 0.000000 0.000000 0.000000 0.042666 0.000000 0.000000
# 5 0.000000 0.000000 0.000000 0.000000 0.029813 0.000000
# 6 0.000000 0.000000 0.000000 0.000000 0.000000 0.038705
#
#
# Mechanical properties :
#
#
# Convention : Reuss Voigt Hill
#
# Bulk Modulus (GPa) = 34.82435 38.28965 36.55700
# Shear Modulus (GPa) = 27.23121 28.28452 27.75786
#
# Velocity S-wave (km/s) = 3.76897 3.84117 3.80524
# Velocity P-wave (km/s) = 6.09149 6.29655 6.19487
#
# Compressibility (1/GPa) = 0.02871554
#
# Stress axis : x y z
#
# Youngs Moduli (GPa) = 87.39521 68.55857 50.61300
#
# Poissons Ratio (x) = 0.21039 0.20383
# Poissons Ratio (y) = 0.26820 0.07285
# Poissons Ratio (z) = 0.35196 0.09867
#
# Static dielectric constant tensor:
#      x y z
#    x 3.738570 0.000000 0.000000 
#    y 0.000000 3.394460 0.000000 
#    z 0.000000 0.000000 3.490040 
# 
# 
# High freq. dielectric constant tensor:
#      x y z
#    x 1.748120 0.000000 0.000000 
#    y 0.000000 1.738240 0.000000 
#    z 0.000000 0.000000 1.732480 
# 
# From -- ./inp_files/28417.got.cif
#   From: 2010.03.12/outbox.cif.g09.slc.cpg/sg64_15_cif.got.tgz:28417.got - 2010.04.10 20:19:32.
