data_PCOD8264090
_publ_section_title
;
Structure prediction by ZEFSAII (Michael W. Deem and Ramdas Pophale) SiO2 
 PCOD8264090
Probable space group: C M C A
;
_chemical_formula_sum "Si O2"
_cell_formula_units_Z 88
_cell_length_a 13.208421
_cell_length_b 14.829166
_cell_length_c 23.136892
_cell_angle_alpha 90.000000
_cell_angle_beta 90.000000
_cell_angle_gamma 90.000000
_cell_volume 4531.819973
_symmetry_space_group_name_H-M "C M C A"
_symmetry_group_IT_number 64
_symmetry_cell_setting 'orthorhombic'
loop_
_space_group_symop_operation_xyz
x,y,z
-x,1/2-y,1/2+z
x,-y,-z
-x,1/2+y,1/2-z
-x,-y,-z
x,1/2+y,1/2-z
-x,y,z
x,1/2-y,1/2+z
1/2+x,1/2+y,z
1/2-x,-y,1/2+z
1/2+x,1/2-y,-z
1/2-x,y,1/2-z
1/2-x,1/2-y,-z
1/2+x,y,1/2-z
1/2-x,1/2+y,z
1/2+x,-y,1/2+z
loop_
_atom_site_type_symbol
_atom_site_label
_atom_site_fract_x
_atom_site_fract_y
_atom_site_fract_z
Si Si1 0.780266 0.405086 0.370385
Si Si2 0.272369 0.597259 0.348475
Si Si3 0.884664 0.154673 0.241380
Si Si4 0.291780 0.238690 0.436247
Si Si5 0.250000 0.821027 0.250000
Si Si6 0.500000 0.637755 0.046314
Si Si7 0.000000 0.064887 0.917751
O O1 0.729373 0.502315 0.381812
O O2 0.711862 0.336965 0.407475
O O3 0.769983 0.385871 0.303066
O O4 0.898866 0.401076 0.386138
O O5 0.171058 0.601720 0.309773
O O6 0.366419 0.610123 0.304533
O O7 0.279381 0.674006 0.397547
O O8 0.847503 0.257852 0.240580
O O9 0.000000 0.150812 0.224854
O O10 0.250000 0.250000 0.500000
O O11 0.403833 0.197776 0.436693
O O12 0.500000 0.543681 0.080822
O O13 0.500000 0.612837 0.979447
#
# Coordination Sequence:
#
# PCOD8264090 Si02
#       7
#    16  16  16  16   8   8   8
#     4  12  23  43  66  98 132 170 215 274 327 391
#     4  10  23  42  62  94 130 167 219 268 324 383
#     4  10  21  41  65  90 130 175 213 266 323 390
#     4  12  24  42  67  94 136 166 214 282 321 377
#     4  10  22  38  62 100 126 166 216 256 334 396
#     4  11  24  44  65 104 123 178 234 260 323 382
#     4  11  24  40  75  95 128 177 229 265 317 391
#
# _framework density 19.418246
#
# number of rings (size 3 to 8) (size 9 to 14) (size 15 to 20)
#    0.000    1.273    7.273    1.091    3.818    0.727 
#    3.273    0.000    0.000    1.091    0.000    0.000 
#    0.000    0.000    0.000    0.000    0.000    0.000 
#
# Total GULP energy -545583.684093 kJ/mol
# GULP energy per Si atom -12399.629184 kJ/mol
# Density = 1.937405 g / cm^3
# Si number density = 19.418246 Si / 1000 Ang^3
#
#
#
# Elastic Constant Matrix: (Units=GPa)
#
#
# Indices 1 2 3 4 5 6 
#
# 1 84.9846 19.9912 21.3152 0.0000 0.0000 0.0000
# 2 19.9912 118.0905 47.2794 0.0000 0.0000 0.0000
# 3 21.3152 47.2794 123.1324 0.0000 0.0000 0.0000
# 4 0.0000 0.0000 0.0000 32.8817 0.0000 0.0000
# 5 0.0000 0.0000 0.0000 0.0000 16.9509 0.0000
# 6 0.0000 0.0000 0.0000 0.0000 0.0000 16.6788
#
#
#
# Elastic Compliance Matrix: (Units=1/GPa)
#
#
# Indices 1 2 3 4 5 6 
#
# 1 0.012516 -0.001479 -0.001599 0.000000 0.000000 0.000000
# 2 -0.001479 0.010181 -0.003653 0.000000 0.000000 0.000000
# 3 -0.001599 -0.003653 0.009801 0.000000 0.000000 0.000000
# 4 0.000000 0.000000 0.000000 0.030412 0.000000 0.000000
# 5 0.000000 0.000000 0.000000 0.000000 0.058994 0.000000
# 6 0.000000 0.000000 0.000000 0.000000 0.000000 0.059956
#
#
# Mechanical properties :
#
#
# Convention : Reuss Voigt Hill
#
# Bulk Modulus (GPa) = 52.53166 55.93101 54.23133
# Shear Modulus (GPa) = 24.79340 29.14373 26.96857
#
# Velocity S-wave (km/s) = 3.57712 3.87827 3.73074
# Velocity P-wave (km/s) = 6.64624 6.99432 6.82250
#
# Compressibility (1/GPa) = 0.01903614
#
# Stress axis : x y z
#
# Youngs Moduli (GPa) = 79.89990 98.22185 102.03190
#
# Poissons Ratio (x) = 0.14523 0.16313
# Poissons Ratio (y) = 0.11814 0.37275
# Poissons Ratio (z) = 0.12774 0.35883
#
# Static dielectric constant tensor:
#      x y z
#    x 3.371900 0.000000 0.000000 
#    y 0.000000 3.732600 0.000000 
#    z 0.000000 0.000000 3.794090 
# 
# 
# High freq. dielectric constant tensor:
#      x y z
#    x 1.734960 0.000000 0.000000 
#    y 0.000000 1.765040 0.000000 
#    z 0.000000 0.000000 1.770920 
# 
# From -- ./inp_files/39117.got.cif
#   From: 2010.03.12/outbox.cif.g09.slc.cpg/sg64_20_cif.got.tgz:39117.got - 2010.04.10 20:19:32.
