data_PCOD8264342
_publ_section_title
;
Structure prediction by ZEFSAII (Michael W. Deem and Ramdas Pophale) SiO2 
 PCOD8264342
Probable space group: C M C A
;
_chemical_formula_sum "Si O2"
_cell_formula_units_Z 112
_cell_length_a 21.404131
_cell_length_b 14.665592
_cell_length_c 16.455907
_cell_angle_alpha 90.000000
_cell_angle_beta 90.000000
_cell_angle_gamma 90.000000
_cell_volume 5165.579184
_symmetry_space_group_name_H-M "C M C A"
_symmetry_group_IT_number 64
_symmetry_cell_setting 'orthorhombic'
loop_
_space_group_symop_operation_xyz
x,y,z
-x,1/2-y,1/2+z
x,-y,-z
-x,1/2+y,1/2-z
-x,-y,-z
x,1/2+y,1/2-z
-x,y,z
x,1/2-y,1/2+z
1/2+x,1/2+y,z
1/2-x,-y,1/2+z
1/2+x,1/2-y,-z
1/2-x,y,1/2-z
1/2-x,1/2-y,-z
1/2+x,y,1/2-z
1/2-x,1/2+y,z
1/2+x,-y,1/2+z
loop_
_atom_site_type_symbol
_atom_site_label
_atom_site_fract_x
_atom_site_fract_y
_atom_site_fract_z
Si Si1 0.317409 0.884001 0.293540
Si Si2 0.571378 0.397139 0.506461
Si Si3 0.364300 0.532765 0.085132
Si Si4 0.068754 0.365071 0.719141
Si Si5 0.280115 0.198873 0.423775
Si Si6 0.114059 0.315644 0.154803
Si Si7 0.654727 0.316342 0.642953
O O1 0.250000 0.884745 0.250000
O O2 0.368758 0.893807 0.221075
O O3 0.337116 0.790038 0.337396
O O4 0.323394 0.960943 0.362715
O O5 0.597548 0.500000 0.500000
O O6 0.500000 0.395684 0.537965
O O7 0.574452 0.358847 0.416343
O O8 0.613326 0.331687 0.562390
O O9 0.419069 0.569126 0.142953
O O10 0.322074 0.614475 0.050703
O O11 0.394551 0.500000 0.000000
O O12 0.068864 0.260187 0.692398
O O13 0.123018 0.377110 0.786453
O O14 0.000000 0.387895 0.754521
O O15 0.250000 0.250000 0.500000
O O16 0.319632 0.270971 0.371528
O O17 0.225515 0.150971 0.370561
#
# Coordination Sequence:
#
# PCOD8264342 Si02
#       7
#    16  16  16  16  16  16  16
#     4  11  24  42  67 102 141 171 222 281 344 417
#     4  11  25  42  66  99 136 177 231 283 330 403
#     4  11  27  41  67 103 137 178 228 283 346 407
#     4  10  24  45  68  93 131 179 232 281 335 405
#     4  11  21  41  68 100 136 177 223 277 339 415
#     4  10  22  41  66  93 130 177 218 278 346 399
#     4  11  23  43  71  95 134 180 223 278 343 411
#
# _framework density 21.681982999999999
#
# number of rings (size 3 to 8) (size 9 to 14) (size 15 to 20)
#    0.000    1.286    2.857    1.714    6.000    0.857 
#    0.000    3.571    0.000    0.000    0.000    0.000 
#    0.000    0.000    0.000    0.000    0.000    0.000 
#
# Total GULP energy -694001.921009 kJ/mol
# GULP energy per Si atom -12392.891447 kJ/mol
# Density = 2.163263 g / cm^3
# Si number density = 21.681983 Si / 1000 Ang^3
#
#
#
# Elastic Constant Matrix: (Units=GPa)
#
#
# Indices 1 2 3 4 5 6 
#
# 1 103.7220 15.9813 19.4746 0.0000 0.0000 0.0000
# 2 15.9813 64.7081 26.5668 0.0000 0.0000 0.0000
# 3 19.4746 26.5668 102.9982 0.0000 0.0000 0.0000
# 4 0.0000 0.0000 0.0000 37.5083 0.0000 0.0000
# 5 0.0000 0.0000 0.0000 0.0000 23.3022 0.0000
# 6 0.0000 0.0000 0.0000 0.0000 0.0000 10.8851
#
#
#
# Elastic Compliance Matrix: (Units=1/GPa)
#
#
# Indices 1 2 3 4 5 6 
#
# 1 0.010208 -0.001933 -0.001431 0.000000 0.000000 0.000000
# 2 -0.001933 0.017651 -0.004187 0.000000 0.000000 0.000000
# 3 -0.001431 -0.004187 0.011060 0.000000 0.000000 0.000000
# 4 0.000000 0.000000 0.000000 0.026661 0.000000 0.000000
# 5 0.000000 0.000000 0.000000 0.000000 0.042914 0.000000
# 6 0.000000 0.000000 0.000000 0.000000 0.000000 0.091869
#
#
# Mechanical properties :
#
#
# Convention : Reuss Voigt Hill
#
# Bulk Modulus (GPa) = 41.99185 43.94150 42.96668
# Shear Modulus (GPa) = 22.38099 28.29949 25.34024
#
# Velocity S-wave (km/s) = 3.21633 3.61669 3.42237
# Velocity P-wave (km/s) = 5.76214 6.14418 5.95622
#
# Compressibility (1/GPa) = 0.02381415
#
# Stress axis : x y z
#
# Youngs Moduli (GPa) = 97.96431 56.65527 90.41960
#
# Poissons Ratio (x) = 0.10954 0.12942
# Poissons Ratio (y) = 0.18940 0.37860
# Poissons Ratio (z) = 0.14022 0.23722
#
# Static dielectric constant tensor:
#      x y z
#    x 3.858960 0.000000 0.000000 
#    y 0.000000 3.874470 0.000000 
#    z 0.000000 0.000000 4.154450 
# 
# 
# High freq. dielectric constant tensor:
#      x y z
#    x 1.844110 0.000000 0.000000 
#    y 0.000000 1.843070 0.000000 
#    z 0.000000 0.000000 1.867860 
# 
# From -- ./inp_files/27380.got.cif
#   From: 2010.03.12/outbox.cif.g09.slc.cpg/sg64_14_cif.got.tgz:27380.got - 2010.04.10 20:19:32.
