data_PCOD8264894
_publ_section_title
;
Structure prediction by ZEFSAII (Michael W. Deem and Ramdas Pophale) SiO2 
 PCOD8264894
Probable space group: C M C A
;
_chemical_formula_sum "Si O2"
_cell_formula_units_Z 64
_cell_length_a 8.659547
_cell_length_b 10.196726
_cell_length_c 35.296159
_cell_angle_alpha 90.000000
_cell_angle_beta 90.000000
_cell_angle_gamma 90.000000
_cell_volume 3116.616533
_symmetry_space_group_name_H-M "C M C A"
_symmetry_group_IT_number 64
_symmetry_cell_setting 'orthorhombic'
loop_
_space_group_symop_operation_xyz
x,y,z
-x,1/2-y,1/2+z
x,-y,-z
-x,1/2+y,1/2-z
-x,-y,-z
x,1/2+y,1/2-z
-x,y,z
x,1/2-y,1/2+z
1/2+x,1/2+y,z
1/2-x,-y,1/2+z
1/2+x,1/2-y,-z
1/2-x,y,1/2-z
1/2-x,1/2-y,-z
1/2+x,y,1/2-z
1/2-x,1/2+y,z
1/2+x,-y,1/2+z
loop_
_atom_site_type_symbol
_atom_site_label
_atom_site_fract_x
_atom_site_fract_y
_atom_site_fract_z
Si Si1 0.680986 0.492233 0.915678
Si Si2 0.181068 0.250088 0.958546
Si Si3 0.679118 0.513640 0.665490
Si Si4 0.180228 0.721991 0.290054
O O1 0.500000 0.469718 0.921375
O O2 0.771630 0.376338 0.935354
O O3 0.740446 0.624651 0.935338
O O4 0.717744 0.495943 0.871495
O O5 0.000000 0.245811 0.962985
O O6 0.250000 0.250000 0.000000
O O7 0.500000 0.492265 0.655526
O O8 0.730975 0.406818 0.696068
O O9 0.708886 0.658759 0.681233
O O10 0.250000 0.764756 0.250000
O O11 0.000000 0.689764 0.285895
#
# Coordination Sequence:
#
# PCOD8264894 Si02
#       4
#    16  16  16  16
#     4  11  24  41  62  90 123 159 202 250 300 357
#     4  11  24  41  63  91 123 160 202 249 301 358
#     4  11  24  41  63  91 122 159 202 248 301 358
#     4  11  24  41  63  91 123 160 202 249 301 358
#
# _framework density 20.535088999999999
#
# number of rings (size 3 to 8) (size 9 to 14) (size 15 to 20)
#    0.000    1.000    0.000    6.000    0.000   17.000 
#    0.000    0.000    0.000    0.000    0.000    0.000 
#    0.000    0.000    0.000    0.000    0.000    0.000 
#
# Total GULP energy -397054.353811 kJ/mol
# GULP energy per Si atom -12407.948557 kJ/mol
# Density = 2.048835 g / cm^3
# Si number density = 20.535089 Si / 1000 Ang^3
#
#
#
# Elastic Constant Matrix: (Units=GPa)
#
#
# Indices 1 2 3 4 5 6 
#
# 1 56.4522 35.8757 15.3745 0.0000 0.0000 0.0000
# 2 35.8757 121.9119 25.2233 0.0000 0.0000 0.0000
# 3 15.3745 25.2233 113.0804 0.0000 0.0000 0.0000
# 4 0.0000 0.0000 0.0000 34.0442 0.0000 0.0000
# 5 0.0000 0.0000 0.0000 0.0000 43.2514 0.0000
# 6 0.0000 0.0000 0.0000 0.0000 0.0000 33.1930
#
#
#
# Elastic Compliance Matrix: (Units=1/GPa)
#
#
# Indices 1 2 3 4 5 6 
#
# 1 0.022071 -0.006158 -0.001627 0.000000 0.000000 0.000000
# 2 -0.006158 0.010318 -0.001464 0.000000 0.000000 0.000000
# 3 -0.001627 -0.001464 0.009391 0.000000 0.000000 0.000000
# 4 0.000000 0.000000 0.000000 0.029374 0.000000 0.000000
# 5 0.000000 0.000000 0.000000 0.000000 0.023121 0.000000
# 6 0.000000 0.000000 0.000000 0.000000 0.000000 0.030127
#
#
# Mechanical properties :
#
#
# Convention : Reuss Voigt Hill
#
# Bulk Modulus (GPa) = 42.95418 49.37682 46.16550
# Shear Modulus (GPa) = 33.18729 36.42914 34.80821
#
# Velocity S-wave (km/s) = 4.02447 4.21645 4.12158
# Velocity P-wave (km/s) = 6.52365 6.91389 6.72160
#
# Compressibility (1/GPa) = 0.02328062
#
# Stress axis : x y z
#
# Youngs Moduli (GPa) = 45.30860 96.91985 106.48398
#
# Poissons Ratio (x) = 0.59686 0.17326
# Poissons Ratio (y) = 0.27902 0.15591
# Poissons Ratio (z) = 0.07372 0.14191
#
# Static dielectric constant tensor:
#      x y z
#    x 3.904050 0.000000 0.000000 
#    y 0.000000 3.875910 0.000000 
#    z 0.000000 0.000000 3.740380 
# 
# 
# High freq. dielectric constant tensor:
#      x y z
#    x 1.816480 0.000000 0.000000 
#    y 0.000000 1.821380 0.000000 
#    z 0.000000 0.000000 1.819940 
# 
# From -- ./inp_files/51537.got.cif
#   From: 2010.03.12/outbox.cif.g09.slc.cpg/sg64_26_cif.got.tgz:51537.got - 2010.04.10 20:19:32.
