data_PCOD8264466
_publ_section_title
;
Structure prediction by ZEFSAII (Michael W. Deem and Ramdas Pophale) SiO2 
 PCOD8264466
Probable space group: C M C A
;
_chemical_formula_sum "Si O2"
_cell_formula_units_Z 80
_cell_length_a 13.857477
_cell_length_b 13.187679
_cell_length_c 21.715189
_cell_angle_alpha 90.000000
_cell_angle_beta 90.000000
_cell_angle_gamma 90.000000
_cell_volume 3968.406457
_symmetry_space_group_name_H-M "C M C A"
_symmetry_group_IT_number 64
_symmetry_cell_setting 'orthorhombic'
loop_
_space_group_symop_operation_xyz
x,y,z
-x,1/2-y,1/2+z
x,-y,-z
-x,1/2+y,1/2-z
-x,-y,-z
x,1/2+y,1/2-z
-x,y,z
x,1/2-y,1/2+z
1/2+x,1/2+y,z
1/2-x,-y,1/2+z
1/2+x,1/2-y,-z
1/2-x,y,1/2-z
1/2-x,1/2-y,-z
1/2+x,y,1/2-z
1/2-x,1/2+y,z
1/2+x,-y,1/2+z
loop_
_atom_site_type_symbol
_atom_site_label
_atom_site_fract_x
_atom_site_fract_y
_atom_site_fract_z
Si Si1 0.614222 0.692809 0.241543
Si Si2 0.794655 0.226359 0.434197
Si Si3 0.500000 0.430070 0.413324
Si Si4 0.500000 0.150554 0.050257
Si Si5 0.247747 0.086192 0.336858
Si Si6 0.184975 0.135857 0.658832
O O1 0.500000 0.692037 0.251757
O O2 0.645196 0.613798 0.187728
O O3 0.668017 0.658833 0.303691
O O4 0.653065 0.803580 0.220333
O O5 0.750000 0.250000 0.500000
O O6 0.909785 0.224377 0.439422
O O7 0.759144 0.114815 0.409525
O O8 0.763851 0.307923 0.383128
O O9 0.500000 0.397131 0.483270
O O10 0.500000 0.552491 0.404262
O O11 0.592162 0.381346 0.382433
O O12 0.230127 0.970258 0.320753
#
# Coordination Sequence:
#
# PCOD8264466 Si02
#       6
#    16  16   8   8  16  16
#     4  10  23  41  65  90 121 165 211 264 310 369
#     4  11  23  39  63  94 131 158 207 266 311 373
#     4  11  20  36  69  94 123 170 217 250 316 374
#     4  11  22  38  63 101 124 165 218 262 307 378
#     4  10  24  41  61  92 130 163 209 257 317 379
#     4  11  22  42  66  91 126 171 207 259 318 373
#
# _framework density 20.159226
#
# number of rings (size 3 to 8) (size 9 to 14) (size 15 to 20)
#    0.000    1.400    5.000    0.000    2.800    7.200 
#    1.800    0.000    0.000    1.200    0.000    0.000 
#    0.000    0.000    0.000    0.000    0.000    0.000 
#
# Total GULP energy -495814.781890 kJ/mol
# GULP energy per Si atom -12395.369547 kJ/mol
# Density = 2.011334 g / cm^3
# Si number density = 20.159226 Si / 1000 Ang^3
#
#
#
# Elastic Constant Matrix: (Units=GPa)
#
#
# Indices 1 2 3 4 5 6 
#
# 1 118.6036 51.4769 17.8078 0.0000 0.0000 0.0000
# 2 51.4769 140.6151 33.9171 0.0000 0.0000 0.0000
# 3 17.8078 33.9171 71.6113 0.0000 0.0000 0.0000
# 4 0.0000 0.0000 0.0000 25.7680 0.0000 0.0000
# 5 0.0000 0.0000 0.0000 0.0000 28.1005 0.0000
# 6 0.0000 0.0000 0.0000 0.0000 0.0000 31.6028
#
#
#
# Elastic Compliance Matrix: (Units=1/GPa)
#
#
# Indices 1 2 3 4 5 6 
#
# 1 0.010070 -0.003480 -0.000856 0.000000 0.000000 0.000000
# 2 -0.003480 0.009232 -0.003507 0.000000 0.000000 0.000000
# 3 -0.000856 -0.003507 0.015838 0.000000 0.000000 0.000000
# 4 0.000000 0.000000 0.000000 0.038808 0.000000 0.000000
# 5 0.000000 0.000000 0.000000 0.000000 0.035587 0.000000
# 6 0.000000 0.000000 0.000000 0.000000 0.000000 0.031643
#
#
# Mechanical properties :
#
#
# Convention : Reuss Voigt Hill
#
# Bulk Modulus (GPa) = 51.40314 59.69261 55.54788
# Shear Modulus (GPa) = 30.60952 32.26947 31.43949
#
# Velocity S-wave (km/s) = 3.90088 4.00525 3.95341
# Velocity P-wave (km/s) = 6.77075 7.14593 6.96087
#
# Compressibility (1/GPa) = 0.01945406
#
# Stress axis : x y z
#
# Youngs Moduli (GPa) = 99.30054 108.32452 63.13893
#
# Poissons Ratio (x) = 0.37699 0.05404
# Poissons Ratio (y) = 0.34558 0.22142
# Poissons Ratio (z) = 0.08500 0.37988
#
# Static dielectric constant tensor:
#      x y z
#    x 3.693650 0.000000 0.000000 
#    y 0.000000 3.793590 0.000000 
#    z 0.000000 0.000000 3.763860 
# 
# 
# High freq. dielectric constant tensor:
#      x y z
#    x 1.788200 0.000000 0.000000 
#    y 0.000000 1.782250 0.000000 
#    z 0.000000 0.000000 1.794800 
# 
# From -- ./inp_files/45011.got.cif
#   From: 2010.03.12/outbox.cif.g09.slc.cpg/sg64_23_cif.got.tgz:45011.got - 2010.04.10 20:19:32.
