data_PCOD8264565
_publ_section_title
;
Structure prediction by ZEFSAII (Michael W. Deem and Ramdas Pophale) SiO2 
 PCOD8264565
Probable space group: C M C A
;
_chemical_formula_sum "Si O2"
_cell_formula_units_Z 80
_cell_length_a 17.601989
_cell_length_b 8.750897
_cell_length_c 22.388753
_cell_angle_alpha 90.000000
_cell_angle_beta 90.000000
_cell_angle_gamma 90.000000
_cell_volume 3448.611106
_symmetry_space_group_name_H-M "C M C A"
_symmetry_group_IT_number 64
_symmetry_cell_setting 'orthorhombic'
loop_
_space_group_symop_operation_xyz
x,y,z
-x,1/2-y,1/2+z
x,-y,-z
-x,1/2+y,1/2-z
-x,-y,-z
x,1/2+y,1/2-z
-x,y,z
x,1/2-y,1/2+z
1/2+x,1/2+y,z
1/2-x,-y,1/2+z
1/2+x,1/2-y,-z
1/2-x,y,1/2-z
1/2-x,1/2-y,-z
1/2+x,y,1/2-z
1/2-x,1/2+y,z
1/2+x,-y,1/2+z
loop_
_atom_site_type_symbol
_atom_site_label
_atom_site_fract_x
_atom_site_fract_y
_atom_site_fract_z
Si Si1 0.853707 0.825305 0.081314
Si Si2 0.256488 0.058062 0.133113
Si Si3 0.646876 0.698828 0.660738
Si Si4 0.000000 0.127529 0.837436
Si Si5 0.000000 0.700790 0.276843
Si Si6 0.588022 0.165292 0.971093
O O1 0.816642 0.666165 0.100855
O O2 0.925189 0.869659 0.122472
O O3 0.790668 0.958051 0.084423
O O4 0.882888 0.801181 0.014028
O O5 0.196831 0.150967 0.173420
O O6 0.303305 0.949173 0.178595
O O7 0.571708 0.705377 0.699073
O O8 0.633271 0.682551 0.589935
O O9 0.000000 0.277738 0.794809
O O10 0.000000 0.974525 0.796922
O O11 0.500000 0.192413 0.957156
O O12 0.601667 0.000000 0.000000
#
# Coordination Sequence:
#
# PCOD8264565 Si02
#       6
#    16  16  16   8   8  16
#     4  11  23  45  67 103 139 179 228 271 341 397
#     4  10  24  41  69  98 146 180 215 283 334 406
#     4  11  23  45  67 103 139 179 228 271 341 397
#     4  12  28  49  74  99 129 176 234 286 337 404
#     4  12  28  49  74  99 129 176 234 286 337 404
#     4  11  22  36  68 105 142 182 227 276 326 400
#
# _framework density 23.197744
#
# number of rings (size 3 to 8) (size 9 to 14) (size 15 to 20)
#    0.000    1.000    6.000    0.000    2.800    5.600 
#    0.000    8.000    0.000    0.000    0.000    0.000 
#    0.000    0.000    0.000    0.000    0.000    0.000 
#
# Total GULP energy -496031.485458 kJ/mol
# GULP energy per Si atom -12400.787136 kJ/mol
# Density = 2.314494 g / cm^3
# Si number density = 23.197744 Si / 1000 Ang^3
#
#
#
# Elastic Constant Matrix: (Units=GPa)
#
#
# Indices 1 2 3 4 5 6 
#
# 1 138.0104 42.1664 11.7013 0.0000 0.0000 0.0000
# 2 42.1664 102.6259 -7.3637 0.0000 0.0000 0.0000
# 3 11.7013 -7.3637 47.2487 0.0000 0.0000 0.0000
# 4 0.0000 0.0000 0.0000 23.2749 0.0000 0.0000
# 5 0.0000 0.0000 0.0000 0.0000 -7.5970 0.0000
# 6 0.0000 0.0000 0.0000 0.0000 0.0000 38.6714
#
#
#
# Elastic Compliance Matrix: (Units=1/GPa)
#
#
# Indices 1 2 3 4 5 6 
#
# 1 0.008617 -0.003736 -0.002716 0.000000 0.000000 0.000000
# 2 -0.003736 0.011474 0.002713 0.000000 0.000000 0.000000
# 3 -0.002716 0.002713 0.022260 0.000000 0.000000 0.000000
# 4 0.000000 0.000000 0.000000 0.042965 0.000000 0.000000
# 5 0.000000 0.000000 0.000000 0.000000 -0.131630 0.000000
# 6 0.000000 0.000000 0.000000 0.000000 0.000000 0.025859
#
#
# Mechanical properties :
#
#
# Convention : Reuss Voigt Hill
#
# Bulk Modulus (GPa) = 28.67463 42.32144 35.49804
# Shear Modulus (GPa) = -3693.92034 26.96193 -1833.47920
#
# Velocity S-wave (km/s) = -39.94770 3.41290 -28.14401
# Velocity P-wave (km/s) = 45.99316 5.81497 32.26110
#
# Compressibility (1/GPa) = 0.03487403
#
# Stress axis : x y z
#
# Youngs Moduli (GPa) = 116.04321 87.15599 44.92331
#
# Poissons Ratio (x) = 0.32558 0.12203
# Poissons Ratio (y) = 0.43349 -0.12189
# Poissons Ratio (z) = 0.31521 -0.23648
#
# Static dielectric constant tensor:
#      x y z
#    x 4.505680 0.000000 0.000000 
#    y 0.000000 4.407870 0.000000 
#    z 0.000000 0.000000 3.740990 
# 
# 
# High freq. dielectric constant tensor:
#      x y z
#    x 1.947190 0.000000 0.000000 
#    y 0.000000 1.931340 0.000000 
#    z 0.000000 0.000000 1.881460 
# 
# From -- ./inp_files/7176.got.cif
#   From: 2010.03.12/outbox.cif.g09.slc.cpg/sg64_4_cif.got.tgz:7176.got - 2010.04.10 20:19:32.
