data_PCOD8264931
_publ_section_title
;
Structure prediction by ZEFSAII (Michael W. Deem and Ramdas Pophale) SiO2 
 PCOD8264931
Probable space group: C M C A
;
_chemical_formula_sum "Si O2"
_cell_formula_units_Z 64
_cell_length_a 22.138575
_cell_length_b 10.025581
_cell_length_c 13.196901
_cell_angle_alpha 90.000000
_cell_angle_beta 90.000000
_cell_angle_gamma 90.000000
_cell_volume 2929.079585
_symmetry_space_group_name_H-M "C M C A"
_symmetry_group_IT_number 64
_symmetry_cell_setting 'orthorhombic'
loop_
_space_group_symop_operation_xyz
x,y,z
-x,1/2-y,1/2+z
x,-y,-z
-x,1/2+y,1/2-z
-x,-y,-z
x,1/2+y,1/2-z
-x,y,z
x,1/2-y,1/2+z
1/2+x,1/2+y,z
1/2-x,-y,1/2+z
1/2+x,1/2-y,-z
1/2-x,y,1/2-z
1/2-x,1/2-y,-z
1/2+x,y,1/2-z
1/2-x,1/2+y,z
1/2+x,-y,1/2+z
loop_
_atom_site_type_symbol
_atom_site_label
_atom_site_fract_x
_atom_site_fract_y
_atom_site_fract_z
Si Si1 0.838229 0.781535 0.570214
Si Si2 0.210582 0.217539 0.640148
Si Si3 0.930995 0.435142 0.390490
Si Si4 0.665809 0.530852 0.253711
O O1 0.837816 0.805764 0.449431
O O2 0.777945 0.695601 0.596420
O O3 0.898557 0.706310 0.602937
O O4 0.841693 0.919154 0.631256
O O5 0.206900 0.367524 0.687104
O O6 0.196112 0.115699 0.732836
O O7 0.925059 0.500000 0.500000
O O8 0.898269 0.522510 0.303939
O O9 0.000000 0.415706 0.357291
#
# Coordination Sequence:
#
# PCOD8264931 Si02
#       4
#    16  16  16  16
#     4  11  25  43  68 101 143 176 228 284 348 411
#     4  11  26  41  70 105 141 174 223 290 354 409
#     4  11  25  45  69  97 138 186 228 278 346 414
#     4  12  24  43  68 102 135 180 228 280 342 410
#
# _framework density 21.849868000000001
#
# number of rings (size 3 to 8) (size 9 to 14) (size 15 to 20)
#    0.000    0.750    5.000    1.500    7.000    1.000 
#    0.000    1.250    0.000    3.000    0.000    0.000 
#    0.000    0.000    0.000    0.000    0.000    0.000 
#
# Total GULP energy -396721.198777 kJ/mol
# GULP energy per Si atom -12397.537462 kJ/mol
# Density = 2.180014 g / cm^3
# Si number density = 21.849868 Si / 1000 Ang^3
#
#
#
# Elastic Constant Matrix: (Units=GPa)
#
#
# Indices 1 2 3 4 5 6 
#
# 1 144.7537 39.4527 41.2876 0.0000 0.0000 0.0000
# 2 39.4527 86.4916 26.9019 0.0000 0.0000 0.0000
# 3 41.2876 26.9019 147.3915 0.0000 0.0000 0.0000
# 4 0.0000 0.0000 0.0000 42.5699 0.0000 0.0000
# 5 0.0000 0.0000 0.0000 0.0000 31.6045 0.0000
# 6 0.0000 0.0000 0.0000 0.0000 0.0000 1.4145
#
#
#
# Elastic Compliance Matrix: (Units=1/GPa)
#
#
# Indices 1 2 3 4 5 6 
#
# 1 0.008285 -0.003241 -0.001729 0.000000 0.000000 0.000000
# 2 -0.003241 0.013526 -0.001561 0.000000 0.000000 0.000000
# 3 -0.001729 -0.001561 0.007554 0.000000 0.000000 0.000000
# 4 0.000000 0.000000 0.000000 0.023491 0.000000 0.000000
# 5 0.000000 0.000000 0.000000 0.000000 0.031641 0.000000
# 6 0.000000 0.000000 0.000000 0.000000 0.000000 0.706973
#
#
# Mechanical properties :
#
#
# Convention : Reuss Voigt Hill
#
# Bulk Modulus (GPa) = 61.34177 65.99125 63.66651
# Shear Modulus (GPa) = 6.17310 33.18409 19.67860
#
# Velocity S-wave (km/s) = 1.68267 3.90132 3.00430
# Velocity P-wave (km/s) = 5.64892 7.11065 6.42152
#
# Compressibility (1/GPa) = 0.01630211
#
# Stress axis : x y z
#
# Youngs Moduli (GPa) = 120.70137 73.93298 132.38182
#
# Poissons Ratio (x) = 0.23964 0.22891
# Poissons Ratio (y) = 0.39123 0.20662
# Poissons Ratio (z) = 0.20872 0.11539
#
# Static dielectric constant tensor:
#      x y z
#    x 3.812510 0.000000 0.000000 
#    y 0.000000 3.793350 0.000000 
#    z 0.000000 0.000000 4.356950 
# 
# 
# High freq. dielectric constant tensor:
#      x y z
#    x 1.834150 0.000000 0.000000 
#    y 0.000000 1.851210 0.000000 
#    z 0.000000 0.000000 1.888170 
# 
# From -- ./inp_files/26914.got.cif
#   From: 2010.03.12/outbox.cif.g09.slc.cpg/sg64_14_cif.got.tgz:26914.got - 2010.04.10 20:19:32.
