data_PCOD8264139
_publ_section_title
;
Structure prediction by ZEFSAII (Michael W. Deem and Ramdas Pophale) SiO2 
 PCOD8264139
Probable space group: C M C A
;
_chemical_formula_sum "Si O2"
_cell_formula_units_Z 96
_cell_length_a 24.636949
_cell_length_b 9.704194
_cell_length_c 22.739461
_cell_angle_alpha 90.000000
_cell_angle_beta 90.000000
_cell_angle_gamma 90.000000
_cell_volume 5436.589736
_symmetry_space_group_name_H-M "C M C A"
_symmetry_group_IT_number 64
_symmetry_cell_setting 'orthorhombic'
loop_
_space_group_symop_operation_xyz
x,y,z
-x,1/2-y,1/2+z
x,-y,-z
-x,1/2+y,1/2-z
-x,-y,-z
x,1/2+y,1/2-z
-x,y,z
x,1/2-y,1/2+z
1/2+x,1/2+y,z
1/2-x,-y,1/2+z
1/2+x,1/2-y,-z
1/2-x,y,1/2-z
1/2-x,1/2-y,-z
1/2+x,y,1/2-z
1/2-x,1/2+y,z
1/2+x,-y,1/2+z
loop_
_atom_site_type_symbol
_atom_site_label
_atom_site_fract_x
_atom_site_fract_y
_atom_site_fract_z
Si Si1 0.221161 0.996857 0.811102
Si Si2 0.878892 0.907678 0.743450
Si Si3 0.370262 0.116458 0.036330
Si Si4 0.806412 0.288102 0.856642
Si Si5 0.438061 0.173905 0.802217
Si Si6 0.436946 0.369702 0.433036
O O1 0.250000 0.036769 0.750000
O O2 0.163805 0.926830 0.796473
O O3 0.214729 0.134142 0.848925
O O4 0.256274 0.892364 0.850191
O O5 0.899165 0.055580 0.722436
O O6 0.852395 0.824078 0.690164
O O7 0.927958 0.815905 0.767904
O O8 0.332026 0.205800 0.078025
O O9 0.416436 0.029400 0.072333
O O10 0.402977 0.205926 0.986235
O O11 0.335091 0.000000 0.000000
O O12 0.500000 0.127629 0.793008
O O13 0.425635 0.202856 0.870749
O O14 0.500000 0.366681 0.449263
#
# Coordination Sequence:
#
# PCOD8264139 Si02
#       6
#    16  16  16  16  16  16
#     4  10  22  34  56  80 110 148 182 219 277 338
#     4  11  20  36  54  81 118 145 175 223 276 327
#     4   8  16  31  54  76 104 136 184 237 264 310
#     4  11  20  35  55  83 106 142 189 228 270 325
#     4  11  21  34  56  85 115 144 180 221 273 333
#     4   8  16  31  53  78 105 147 184 221 274 323
#
# _framework density 17.658127
#
# number of rings (size 3 to 8) (size 9 to 14) (size 15 to 20)
#    1.000    1.000    3.333    3.000    2.333    0.000 
#    0.000    0.833    0.000    0.000    0.000    2.333 
#    0.000    0.000    0.000    0.000    0.000    0.000 
#
# Total GULP energy -594714.195715 kJ/mol
# GULP energy per Si atom -12389.879077 kJ/mol
# Density = 1.761794 g / cm^3
# Si number density = 17.658127 Si / 1000 Ang^3
#
#
#
# Elastic Constant Matrix: (Units=GPa)
#
#
# Indices 1 2 3 4 5 6 
#
# 1 80.7678 18.5014 46.1023 0.0000 0.0000 0.0000
# 2 18.5014 54.2293 31.0268 0.0000 0.0000 0.0000
# 3 46.1023 31.0268 85.5054 0.0000 0.0000 0.0000
# 4 0.0000 0.0000 0.0000 20.2192 0.0000 0.0000
# 5 0.0000 0.0000 0.0000 0.0000 32.7288 0.0000
# 6 0.0000 0.0000 0.0000 0.0000 0.0000 27.1276
#
#
#
# Elastic Compliance Matrix: (Units=1/GPa)
#
#
# Indices 1 2 3 4 5 6 
#
# 1 0.017909 -0.000739 -0.009388 0.000000 0.000000 0.000000
# 2 -0.000739 0.023302 -0.008057 0.000000 0.000000 0.000000
# 3 -0.009388 -0.008057 0.019681 0.000000 0.000000 0.000000
# 4 0.000000 0.000000 0.000000 0.049458 0.000000 0.000000
# 5 0.000000 0.000000 0.000000 0.000000 0.030554 0.000000
# 6 0.000000 0.000000 0.000000 0.000000 0.000000 0.036863
#
#
# Mechanical properties :
#
#
# Convention : Reuss Voigt Hill
#
# Bulk Modulus (GPa) = 40.77661 45.75149 43.26405
# Shear Modulus (GPa) = 22.49119 24.33991 23.41555
#
# Velocity S-wave (km/s) = 3.57277 3.71671 3.64545
# Velocity P-wave (km/s) = 6.33735 6.66216 6.50178
#
# Compressibility (1/GPa) = 0.02452386
#
# Stress axis : x y z
#
# Youngs Moduli (GPa) = 55.83759 42.91463 50.81144
#
# Poissons Ratio (x) = 0.03170 0.47702
# Poissons Ratio (y) = 0.04125 0.40940
# Poissons Ratio (z) = 0.52421 0.34577
#
# Static dielectric constant tensor:
#      x y z
#    x 3.228450 0.000000 0.000000 
#    y 0.000000 2.924140 0.000000 
#    z 0.000000 0.000000 3.257310 
# 
# 
# High freq. dielectric constant tensor:
#      x y z
#    x 1.682510 0.000000 0.000000 
#    y 0.000000 1.651230 0.000000 
#    z 0.000000 0.000000 1.678800 
# 
# From -- ./inp_files/50963.got.cif
#   From: 2010.03.12/outbox.cif.g09.slc.cpg/sg64_26_cif.got.tgz:50963.got - 2010.04.10 20:19:32.
