data_PCOD8264353
_publ_section_title
;
Structure prediction by ZEFSAII (Michael W. Deem and Ramdas Pophale) SiO2 
 PCOD8264353
Probable space group: C M C A
;
_chemical_formula_sum "Si O2"
_cell_formula_units_Z 64
_cell_length_a 15.977546
_cell_length_b 13.014509
_cell_length_c 14.012597
_cell_angle_alpha 90.000000
_cell_angle_beta 90.000000
_cell_angle_gamma 90.000000
_cell_volume 2913.778246
_symmetry_space_group_name_H-M "C M C A"
_symmetry_group_IT_number 64
_symmetry_cell_setting 'orthorhombic'
loop_
_space_group_symop_operation_xyz
x,y,z
-x,1/2-y,1/2+z
x,-y,-z
-x,1/2+y,1/2-z
-x,-y,-z
x,1/2+y,1/2-z
-x,y,z
x,1/2-y,1/2+z
1/2+x,1/2+y,z
1/2-x,-y,1/2+z
1/2+x,1/2-y,-z
1/2-x,y,1/2-z
1/2-x,1/2-y,-z
1/2+x,y,1/2-z
1/2-x,1/2+y,z
1/2+x,-y,1/2+z
loop_
_atom_site_type_symbol
_atom_site_label
_atom_site_fract_x
_atom_site_fract_y
_atom_site_fract_z
Si Si1 0.157036 0.956458 0.706546
Si Si2 0.653206 0.231304 0.086108
Si Si3 0.000000 0.665119 0.506612
Si Si4 0.742450 0.089635 0.939887
Si Si5 0.000000 0.012594 0.160512
O O1 0.250000 0.949584 0.750000
O O2 0.127751 0.841964 0.674477
O O3 0.085053 0.994555 0.777663
O O4 0.166081 0.039457 0.620306
O O5 0.578005 0.259868 0.016766
O O6 0.695976 0.338657 0.123939
O O7 0.714334 0.163696 0.023558
O O8 0.000000 0.584402 0.592160
O O9 0.000000 0.616187 0.401681
O O10 0.791679 0.000000 0.000000
#
# Coordination Sequence:
#
# PCOD8264353 Si02
#       5
#    16  16   8  16   8
#     4  11  24  43  66 100 135 168 218 278 324 387
#     4  10  22  41  68  93 127 175 215 266 327 398
#     4  11  25  43  64  89 132 176 215 269 329 390
#     4   9  21  40  67  94 128 170 215 261 329 393
#     4  11  27  43  64  95 135 171 218 274 324 387
#
# _framework density 21.964608999999999
#
# number of rings (size 3 to 8) (size 9 to 14) (size 15 to 20)
#    0.000    1.750    0.000    2.250   14.000    4.000 
#    4.500    3.750    0.000    0.000    0.000    0.000 
#    0.000    0.000    0.000    0.000    0.000    0.000 
#
# Total GULP energy -396455.673603 kJ/mol
# GULP energy per Si atom -12389.239800 kJ/mol
# Density = 2.191462 g / cm^3
# Si number density = 21.964609 Si / 1000 Ang^3
#
#
#
# Elastic Constant Matrix: (Units=GPa)
#
#
# Indices 1 2 3 4 5 6 
#
# 1 78.3570 25.6063 11.8089 0.0000 0.0000 0.0000
# 2 25.6063 126.8322 28.1399 0.0000 0.0000 0.0000
# 3 11.8089 28.1399 74.8358 0.0000 0.0000 0.0000
# 4 0.0000 0.0000 0.0000 34.6000 0.0000 0.0000
# 5 0.0000 0.0000 0.0000 0.0000 25.3354 0.0000
# 6 0.0000 0.0000 0.0000 0.0000 0.0000 12.0482
#
#
#
# Elastic Compliance Matrix: (Units=1/GPa)
#
#
# Indices 1 2 3 4 5 6 
#
# 1 0.013767 -0.002506 -0.001230 0.000000 0.000000 0.000000
# 2 -0.002506 0.009058 -0.003011 0.000000 0.000000 0.000000
# 3 -0.001230 -0.003011 0.014689 0.000000 0.000000 0.000000
# 4 0.000000 0.000000 0.000000 0.028902 0.000000 0.000000
# 5 0.000000 0.000000 0.000000 0.000000 0.039470 0.000000
# 6 0.000000 0.000000 0.000000 0.000000 0.000000 0.083000
#
#
# Mechanical properties :
#
#
# Convention : Reuss Voigt Hill
#
# Bulk Modulus (GPa) = 41.63236 45.68167 43.65702
# Shear Modulus (GPa) = 23.76581 28.69473 26.23027
#
# Velocity S-wave (km/s) = 3.29295 3.61835 3.45948
# Velocity P-wave (km/s) = 5.78390 6.18867 5.98970
#
# Compressibility (1/GPa) = 0.02401977
#
# Stress axis : x y z
#
# Youngs Moduli (GPa) = 72.63992 110.39440 68.07945
#
# Poissons Ratio (x) = 0.27670 0.08373
# Poissons Ratio (y) = 0.18207 0.20496
# Poissons Ratio (z) = 0.08933 0.33236
#
# Static dielectric constant tensor:
#      x y z
#    x 3.883900 0.000000 0.000000 
#    y 0.000000 4.915990 0.000000 
#    z 0.000000 0.000000 4.032880 
# 
# 
# High freq. dielectric constant tensor:
#      x y z
#    x 1.849600 0.000000 0.000000 
#    y 0.000000 1.890580 0.000000 
#    z 0.000000 0.000000 1.854870 
# 
# From -- ./inp_files/24931.got.cif
#   From: 2010.03.12/outbox.cif.g09.slc.cpg/sg64_13_cif.got.tgz:24931.got - 2010.04.10 20:19:32.
