data_PCOD8264968
_publ_section_title
;
Structure prediction by ZEFSAII (Michael W. Deem and Ramdas Pophale) SiO2 
 PCOD8264968
Probable space group: C M C A
;
_chemical_formula_sum "Si O2"
_cell_formula_units_Z 120
_cell_length_a 22.774050
_cell_length_b 19.308973
_cell_length_c 12.499563
_cell_angle_alpha 90.000000
_cell_angle_beta 90.000000
_cell_angle_gamma 90.000000
_cell_volume 5496.601789
_symmetry_space_group_name_H-M "C M C A"
_symmetry_group_IT_number 64
_symmetry_cell_setting 'orthorhombic'
loop_
_space_group_symop_operation_xyz
x,y,z
-x,1/2-y,1/2+z
x,-y,-z
-x,1/2+y,1/2-z
-x,-y,-z
x,1/2+y,1/2-z
-x,y,z
x,1/2-y,1/2+z
1/2+x,1/2+y,z
1/2-x,-y,1/2+z
1/2+x,1/2-y,-z
1/2-x,y,1/2-z
1/2-x,1/2-y,-z
1/2+x,y,1/2-z
1/2-x,1/2+y,z
1/2+x,-y,1/2+z
loop_
_atom_site_type_symbol
_atom_site_label
_atom_site_fract_x
_atom_site_fract_y
_atom_site_fract_z
Si Si1 0.198860 0.834837 0.680987
Si Si2 0.882770 0.926774 0.805311
Si Si3 0.430921 0.022258 0.884156
Si Si4 0.858080 0.704494 0.604363
Si Si5 0.932488 0.293121 0.595261
Si Si6 0.822745 0.500000 0.500000
Si Si7 0.866455 0.842417 0.329996
Si Si8 0.248777 0.629008 0.960018
O O1 0.250000 0.796148 0.750000
O O2 0.176496 0.894985 0.758425
O O3 0.146523 0.782628 0.649303
O O4 0.221537 0.873044 0.576613
O O5 0.926287 0.863924 0.837578
O O6 0.866169 0.968775 0.911200
O O7 0.910606 0.974378 0.713660
O O8 0.500000 0.019356 0.886791
O O9 0.411546 0.101080 0.871411
O O10 0.405015 0.000000 0.000000
O O11 0.914003 0.694534 0.528058
O O12 0.864856 0.651143 0.701848
O O13 0.796984 0.690228 0.543005
O O14 0.889333 0.233520 0.638178
O O15 0.000000 0.268919 0.599975
O O16 0.781652 0.556282 0.558625
O O17 0.801054 0.857156 0.372205
#
# Coordination Sequence:
#
# PCOD8264968 Si02
#       8
#    16  16  16  16  16   8  16  16
#     4  12  22  41  73 104 144 183 232 295 369 441
#     4  12  26  49  72 107 147 195 247 297 371 438
#     4  11  27  49  73 103 143 194 250 307 363 434
#     4  12  25  46  69 109 142 184 237 303 373 440
#     4  12  27  49  74 104 145 194 246 306 367 433
#     4  12  26  46  71 110 151 194 244 296 358 466
#     4  12  26  46  74 107 144 185 246 305 368 439
#     4  12  25  43  71 104 146 189 234 294 372 438
#
# _framework density 21.831671
#
# number of rings (size 3 to 8) (size 9 to 14) (size 15 to 20)
#    0.000    0.133    5.333    4.000    2.800    1.067 
#    0.000    0.667    0.000    0.000    0.000    0.000 
#    0.000    0.000    0.000    0.000    0.000    0.000 
#
# Total GULP energy -744163.775976 kJ/mol
# GULP energy per Si atom -12402.729600 kJ/mol
# Density = 2.178198 g / cm^3
# Si number density = 21.831671 Si / 1000 Ang^3
#
#
#
# Elastic Constant Matrix: (Units=GPa)
#
#
# Indices 1 2 3 4 5 6 
#
# 1 96.0856 31.3051 40.4740 0.0000 0.0000 0.0000
# 2 31.3051 117.2915 41.9147 0.0000 0.0000 0.0000
# 3 40.4740 41.9147 109.1720 0.0000 0.0000 0.0000
# 4 0.0000 0.0000 0.0000 35.2219 0.0000 0.0000
# 5 0.0000 0.0000 0.0000 0.0000 28.1843 0.0000
# 6 0.0000 0.0000 0.0000 0.0000 0.0000 32.4608
#
#
#
# Elastic Compliance Matrix: (Units=1/GPa)
#
#
# Indices 1 2 3 4 5 6 
#
# 1 0.012719 -0.001981 -0.003955 0.000000 0.000000 0.000000
# 2 -0.001981 0.010190 -0.003178 0.000000 0.000000 0.000000
# 3 -0.003955 -0.003178 0.011846 0.000000 0.000000 0.000000
# 4 0.000000 0.000000 0.000000 0.028391 0.000000 0.000000
# 5 0.000000 0.000000 0.000000 0.000000 0.035481 0.000000
# 6 0.000000 0.000000 0.000000 0.000000 0.000000 0.030806
#
#
# Mechanical properties :
#
#
# Convention : Reuss Voigt Hill
#
# Bulk Modulus (GPa) = 60.50554 61.10408 60.80481
# Shear Modulus (GPa) = 32.64344 33.09708 32.87026
#
# Velocity S-wave (km/s) = 3.87102 3.89782 3.88445
# Velocity P-wave (km/s) = 6.91046 6.95031 6.93042
#
# Compressibility (1/GPa) = 0.01652741
#
# Stress axis : x y z
#
# Youngs Moduli (GPa) = 78.62432 98.13340 84.41669
#
# Poissons Ratio (x) = 0.19445 0.33383
# Poissons Ratio (y) = 0.15579 0.26826
# Poissons Ratio (z) = 0.31092 0.31184
#
# Static dielectric constant tensor:
#      x y z
#    x 3.805550 0.000000 0.000000 
#    y 0.000000 4.006250 0.000000 
#    z 0.000000 0.000000 4.390230 
# 
# 
# High freq. dielectric constant tensor:
#      x y z
#    x 1.849350 0.000000 0.000000 
#    y 0.000000 1.864090 0.000000 
#    z 0.000000 0.000000 1.880530 
# 
# From -- ./inp_files/18592.got.cif
#   From: 2010.03.12/outbox.cif.g09.slc.cpg/sg64_10_cif.got.tgz:18592.got - 2010.04.10 20:19:32.
