data_PCOD8264496
_publ_section_title
;
Structure prediction by ZEFSAII (Michael W. Deem and Ramdas Pophale) SiO2 
 PCOD8264496
Probable space group: C M C A
;
_chemical_formula_sum "Si O2"
_cell_formula_units_Z 72
_cell_length_a 10.294938
_cell_length_b 14.212224
_cell_length_c 24.028179
_cell_angle_alpha 90.000000
_cell_angle_beta 90.000000
_cell_angle_gamma 90.000000
_cell_volume 3515.658139
_symmetry_space_group_name_H-M "C M C A"
_symmetry_group_IT_number 64
_symmetry_cell_setting 'orthorhombic'
loop_
_space_group_symop_operation_xyz
x,y,z
-x,1/2-y,1/2+z
x,-y,-z
-x,1/2+y,1/2-z
-x,-y,-z
x,1/2+y,1/2-z
-x,y,z
x,1/2-y,1/2+z
1/2+x,1/2+y,z
1/2-x,-y,1/2+z
1/2+x,1/2-y,-z
1/2-x,y,1/2-z
1/2-x,1/2-y,-z
1/2+x,y,1/2-z
1/2-x,1/2+y,z
1/2+x,-y,1/2+z
loop_
_atom_site_type_symbol
_atom_site_label
_atom_site_fract_x
_atom_site_fract_y
_atom_site_fract_z
Si Si1 0.272353 0.835437 0.373782
Si Si2 0.799206 0.479522 0.559297
Si Si3 0.000000 0.082919 0.148806
Si Si4 0.000000 0.708382 0.821928
Si Si5 0.647353 0.697199 0.461134
Si Si6 0.000000 0.891072 0.204173
O O1 0.126748 0.817967 0.355597
O O2 0.338022 0.744332 0.400927
O O3 0.366282 0.856893 0.322656
O O4 0.259095 0.919650 0.417542
O O5 0.872507 0.500000 0.500000
O O6 0.880205 0.424949 0.606238
O O7 0.675808 0.413911 0.544806
O O8 0.000000 0.178504 0.184695
O O9 0.000000 0.004270 0.197305
O O10 0.000000 0.647610 0.766116
O O11 0.500000 0.710139 0.483606
O O12 0.750000 0.750000 0.500000
#
# Coordination Sequence:
#
# PCOD8264496 Si02
#       6
#    16  16   8   8  16   8
#     4  11  24  44  67  97 134 172 223 279 329 400
#     4  11  23  40  66  97 139 176 213 268 333 405
#     4  10  23  42  70  99 127 176 228 265 335 405
#     4  12  24  45  72  96 128 175 232 285 334 388
#     4  12  26  41  65 100 137 177 219 266 334 405
#     4  10  24  49  65  93 130 177 222 283 339 390
#
# _framework density 20.479807000000001
#
# number of rings (size 3 to 8) (size 9 to 14) (size 15 to 20)
#    0.000    0.889    5.556    1.000    4.667    0.444 
#    4.000    2.222    0.000    0.000    0.000    0.000 
#    0.000    0.000    0.000    0.000    0.000    0.000 
#
# Total GULP energy -446149.134615 kJ/mol
# GULP energy per Si atom -12393.031517 kJ/mol
# Density = 2.043319 g / cm^3
# Si number density = 20.479807 Si / 1000 Ang^3
#
#
#
# Elastic Constant Matrix: (Units=GPa)
#
#
# Indices 1 2 3 4 5 6 
#
# 1 144.7921 32.4957 22.8098 0.0000 0.0000 0.0000
# 2 32.4957 115.4938 50.1841 0.0000 0.0000 0.0000
# 3 22.8098 50.1841 89.0069 0.0000 0.0000 0.0000
# 4 0.0000 0.0000 0.0000 30.2691 0.0000 0.0000
# 5 0.0000 0.0000 0.0000 0.0000 -17.6921 0.0000
# 6 0.0000 0.0000 0.0000 0.0000 0.0000 23.1284
#
#
#
# Elastic Compliance Matrix: (Units=1/GPa)
#
#
# Indices 1 2 3 4 5 6 
#
# 1 0.007434 -0.001674 -0.000961 0.000000 0.000000 0.000000
# 2 -0.001674 0.011845 -0.006249 0.000000 0.000000 0.000000
# 3 -0.000961 -0.006249 0.015005 0.000000 0.000000 0.000000
# 4 0.000000 0.000000 0.000000 0.033037 0.000000 0.000000
# 5 0.000000 0.000000 0.000000 0.000000 -0.056523 0.000000
# 6 0.000000 0.000000 0.000000 0.000000 0.000000 0.043237
#
#
# Mechanical properties :
#
#
# Convention : Reuss Voigt Hill
#
# Bulk Modulus (GPa) = 60.55340 62.25247 61.40293
# Shear Modulus (GPa) = 64.67576 23.39465 44.03521
#
# Velocity S-wave (km/s) = 5.62573 3.38350 4.64203
# Velocity P-wave (km/s) = 8.47526 6.76218 7.66672
#
# Compressibility (1/GPa) = 0.01651435
#
# Stress axis : x y z
#
# Youngs Moduli (GPa) = 134.52536 84.42420 66.64435
#
# Poissons Ratio (x) = 0.14131 0.06406
# Poissons Ratio (y) = 0.22518 0.41649
# Poissons Ratio (z) = 0.12931 0.52761
#
# Static dielectric constant tensor:
#      x y z
#    x 3.899640 0.000000 0.000000 
#    y 0.000000 4.016930 0.000000 
#    z 0.000000 0.000000 3.677350 
# 
# 
# High freq. dielectric constant tensor:
#      x y z
#    x 1.802500 0.000000 0.000000 
#    y 0.000000 1.816780 0.000000 
#    z 0.000000 0.000000 1.793240 
# 
# From -- ./inp_files/47646.got.cif
#   From: 2010.03.12/outbox.cif.g09.slc.cpg/sg64_24_cif.got.tgz:47646.got - 2010.04.10 20:19:32.
