data_PCOD8264619
_publ_section_title
;
Structure prediction by ZEFSAII (Michael W. Deem and Ramdas Pophale) SiO2 
 PCOD8264619
Probable space group: C M C A
;
_chemical_formula_sum "Si O2"
_cell_formula_units_Z 40
_cell_length_a 10.277213
_cell_length_b 31.270268
_cell_length_c 4.972099
_cell_angle_alpha 90.000000
_cell_angle_beta 90.000000
_cell_angle_gamma 90.000000
_cell_volume 1597.889446
_symmetry_space_group_name_H-M "C M C A"
_symmetry_group_IT_number 64
_symmetry_cell_setting 'orthorhombic'
loop_
_space_group_symop_operation_xyz
x,y,z
-x,1/2-y,1/2+z
x,-y,-z
-x,1/2+y,1/2-z
-x,-y,-z
x,1/2+y,1/2-z
-x,y,z
x,1/2-y,1/2+z
1/2+x,1/2+y,z
1/2-x,-y,1/2+z
1/2+x,1/2-y,-z
1/2-x,y,1/2-z
1/2-x,1/2-y,-z
1/2+x,y,1/2-z
1/2-x,1/2+y,z
1/2+x,-y,1/2+z
loop_
_atom_site_type_symbol
_atom_site_label
_atom_site_fract_x
_atom_site_fract_y
_atom_site_fract_z
Si Si1 0.750000 0.719342 0.250000
Si Si2 0.355588 0.952262 0.945776
Si Si3 0.000000 0.604212 0.699397
Si Si4 0.000000 0.338157 0.799376
O O1 0.750000 0.750000 0.500000
O O2 0.625010 0.689696 0.238897
O O3 0.500000 0.954223 0.805314
O O4 0.250000 0.929724 0.750000
O O5 0.371863 0.924763 0.224500
O O6 0.304619 0.000000 0.000000
O O7 0.000000 0.619760 0.392528
O O8 0.000000 0.645848 0.894229
#
# Coordination Sequence:
#
# PCOD8264619 Si02
#       4
#     8  16   8   8
#     4  12  26  50  78 106 144 186 236 284 362 464
#     4   9  21  42  64 101 142 208 255 311 361 438
#     4  10  25  45  70 106 153 185 244 308 368 420
#     4  12  26  47  75 112 145 187 234 300 374 430
#
# _framework density 25.033023
#
# number of rings (size 3 to 8) (size 9 to 14) (size 15 to 20)
#    1.200    0.400    0.000    3.600    2.800    4.000 
#    0.000    0.000    0.000    0.000    0.000    0.000 
#    0.000    0.000    0.000    0.000    0.000    0.000 
#
# Total GULP energy -247905.961702 kJ/mol
# GULP energy per Si atom -12395.298085 kJ/mol
# Density = 2.497605 g / cm^3
# Si number density = 25.033023 Si / 1000 Ang^3
#
#
#
# Elastic Constant Matrix: (Units=GPa)
#
#
# Indices 1 2 3 4 5 6 
#
# 1 129.2000 24.3685 18.3201 0.0000 0.0000 0.0000
# 2 24.3685 138.5673 17.3404 0.0000 0.0000 0.0000
# 3 18.3201 17.3404 86.3221 0.0000 0.0000 0.0000
# 4 0.0000 0.0000 0.0000 50.1359 0.0000 0.0000
# 5 0.0000 0.0000 0.0000 0.0000 32.1751 0.0000
# 6 0.0000 0.0000 0.0000 0.0000 0.0000 -22.3340
#
#
#
# Elastic Compliance Matrix: (Units=1/GPa)
#
#
# Indices 1 2 3 4 5 6 
#
# 1 0.008187 -0.001254 -0.001486 0.000000 0.000000 0.000000
# 2 -0.001254 0.007595 -0.001260 0.000000 0.000000 0.000000
# 3 -0.001486 -0.001260 0.012153 0.000000 0.000000 0.000000
# 4 0.000000 0.000000 0.000000 0.019946 0.000000 0.000000
# 5 0.000000 0.000000 0.000000 0.000000 0.031080 0.000000
# 6 0.000000 0.000000 0.000000 0.000000 0.000000 -0.044775
#
#
# Mechanical properties :
#
#
# Convention : Reuss Voigt Hill
#
# Bulk Modulus (GPa) = 50.15897 52.68304 51.42100
# Shear Modulus (GPa) = 102.39701 31.59940 66.99821
#
# Velocity S-wave (km/s) = 6.40262 3.55675 5.17900
# Velocity P-wave (km/s) = 8.64516 6.16104 7.50657
#
# Compressibility (1/GPa) = 0.01993662
#
# Stress axis : x y z
#
# Youngs Moduli (GPa) = 122.14343 131.66838 82.28529
#
# Poissons Ratio (x) = 0.16510 0.12225
# Poissons Ratio (y) = 0.15315 0.10364
# Poissons Ratio (z) = 0.18146 0.16584
#
# Static dielectric constant tensor:
#      x y z
#    x 4.568070 0.000000 0.000000 
#    y 0.000000 4.621700 0.000000 
#    z 0.000000 0.000000 4.260220 
# 
# 
# High freq. dielectric constant tensor:
#      x y z
#    x 2.016680 0.000000 0.000000 
#    y 0.000000 2.003980 0.000000 
#    z 0.000000 0.000000 1.991950 
# 
# From -- ./inp_files/354.got.cif
#   From: 2010.03.12/outbox.cif.g09.slc.cpg/sg64_1_cif.got.tgz:354.got - 2010.04.10 20:19:32.
