data_PCOD8264695
_publ_section_title
;
Structure prediction by ZEFSAII (Michael W. Deem and Ramdas Pophale) SiO2 
 PCOD8264695
Probable space group: C M C A
;
_chemical_formula_sum "Si O2"
_cell_formula_units_Z 64
_cell_length_a 8.939559
_cell_length_b 23.505604
_cell_length_c 18.816671
_cell_angle_alpha 90.000000
_cell_angle_beta 90.000000
_cell_angle_gamma 90.000000
_cell_volume 3953.942068
_symmetry_space_group_name_H-M "C M C A"
_symmetry_group_IT_number 64
_symmetry_cell_setting 'orthorhombic'
loop_
_space_group_symop_operation_xyz
x,y,z
-x,1/2-y,1/2+z
x,-y,-z
-x,1/2+y,1/2-z
-x,-y,-z
x,1/2+y,1/2-z
-x,y,z
x,1/2-y,1/2+z
1/2+x,1/2+y,z
1/2-x,-y,1/2+z
1/2+x,1/2-y,-z
1/2-x,y,1/2-z
1/2-x,1/2-y,-z
1/2+x,y,1/2-z
1/2-x,1/2+y,z
1/2+x,-y,1/2+z
loop_
_atom_site_type_symbol
_atom_site_label
_atom_site_fract_x
_atom_site_fract_y
_atom_site_fract_z
Si Si1 0.668838 0.846690 0.092407
Si Si2 0.676238 0.564611 0.991343
Si Si3 0.331404 0.841980 0.936189
Si Si4 0.177718 0.750931 0.175421
O O1 0.500000 0.854770 0.120941
O O2 0.762651 0.811982 0.150139
O O3 0.745526 0.908650 0.079315
O O4 0.669159 0.814254 0.015721
O O5 0.500000 0.569236 0.982560
O O6 0.729318 0.600783 0.061027
O O7 0.729891 0.500000 0.000000
O O8 0.500000 0.859592 0.914844
O O9 0.267073 0.797015 0.880002
O O10 0.250000 0.734460 0.250000
O O11 0.000000 0.753660 0.181305
#
# Coordination Sequence:
#
# PCOD8264695 Si02
#       4
#    16  16  16  16
#     4   9  18  32  50  72  97 127 160 198 243 284
#     4   9  17  29  49  75  98 122 157 202 244 282
#     4   8  18  32  49  71  97 127 160 196 240 287
#     4  11  21  33  48  71 101 131 161 195 237 288
#
# _framework density 16.186377
#
# number of rings (size 3 to 8) (size 9 to 14) (size 15 to 20)
#    1.500    1.250    0.000    2.250    0.000    4.000 
#    0.000    0.000    0.000    1.500    0.000    3.500 
#    0.000    0.000    0.000    0.000    0.000    0.000 
#
# Total GULP energy -396426.785431 kJ/mol
# GULP energy per Si atom -12388.337045 kJ/mol
# Density = 1.614954 g / cm^3
# Si number density = 16.186377 Si / 1000 Ang^3
#
#
#
# Elastic Constant Matrix: (Units=GPa)
#
#
# Indices 1 2 3 4 5 6 
#
# 1 83.6684 40.4924 21.7789 0.0000 0.0000 0.0000
# 2 40.4924 91.2539 21.1375 0.0000 0.0000 0.0000
# 3 21.7789 21.1375 50.9475 0.0000 0.0000 0.0000
# 4 0.0000 0.0000 0.0000 8.7927 0.0000 0.0000
# 5 0.0000 0.0000 0.0000 0.0000 24.4466 0.0000
# 6 0.0000 0.0000 0.0000 0.0000 0.0000 24.9332
#
#
#
# Elastic Compliance Matrix: (Units=1/GPa)
#
#
# Indices 1 2 3 4 5 6 
#
# 1 0.016035 -0.006115 -0.004318 0.000000 0.000000 0.000000
# 2 -0.006115 0.014456 -0.003383 0.000000 0.000000 0.000000
# 3 -0.004318 -0.003383 0.022877 0.000000 0.000000 0.000000
# 4 0.000000 0.000000 0.000000 0.113730 0.000000 0.000000
# 5 0.000000 0.000000 0.000000 0.000000 0.040906 0.000000
# 6 0.000000 0.000000 0.000000 0.000000 0.000000 0.040107
#
#
# Mechanical properties :
#
#
# Convention : Reuss Voigt Hill
#
# Bulk Modulus (GPa) = 38.85606 43.63194 41.24400
# Shear Modulus (GPa) = 17.58564 21.13189 19.35876
#
# Velocity S-wave (km/s) = 3.29971 3.61714 3.46206
# Velocity P-wave (km/s) = 6.21087 6.66779 6.44338
#
# Compressibility (1/GPa) = 0.02573601
#
# Stress axis : x y z
#
# Youngs Moduli (GPa) = 62.36200 69.17682 43.71117
#
# Poissons Ratio (x) = 0.42304 0.18873
# Poissons Ratio (y) = 0.38136 0.14789
# Poissons Ratio (z) = 0.26925 0.23405
#
# Static dielectric constant tensor:
#      x y z
#    x 3.055250 0.000000 0.000000 
#    y 0.000000 2.916490 0.000000 
#    z 0.000000 0.000000 2.813480 
# 
# 
# High freq. dielectric constant tensor:
#      x y z
#    x 1.636840 0.000000 0.000000 
#    y 0.000000 1.604140 0.000000 
#    z 0.000000 0.000000 1.588980 
# 
# From -- ./inp_files/29254.got.cif
#   From: 2010.03.12/outbox.cif.g09.slc.cpg/sg64_15_cif.got.tgz:29254.got - 2010.04.10 20:19:32.
