data_PCOD8264501
_publ_section_title
;
Structure prediction by ZEFSAII (Michael W. Deem and Ramdas Pophale) SiO2 
 PCOD8264501
Probable space group: C M C A
;
_chemical_formula_sum "Si O2"
_cell_formula_units_Z 72
_cell_length_a 17.397050
_cell_length_b 9.131532
_cell_length_c 21.232744
_cell_angle_alpha 90.000000
_cell_angle_beta 90.000000
_cell_angle_gamma 90.000000
_cell_volume 3373.070206
_symmetry_space_group_name_H-M "C M C A"
_symmetry_group_IT_number 64
_symmetry_cell_setting 'orthorhombic'
loop_
_space_group_symop_operation_xyz
x,y,z
-x,1/2-y,1/2+z
x,-y,-z
-x,1/2+y,1/2-z
-x,-y,-z
x,1/2+y,1/2-z
-x,y,z
x,1/2-y,1/2+z
1/2+x,1/2+y,z
1/2-x,-y,1/2+z
1/2+x,1/2-y,-z
1/2-x,y,1/2-z
1/2-x,1/2-y,-z
1/2+x,y,1/2-z
1/2-x,1/2+y,z
1/2+x,-y,1/2+z
loop_
_atom_site_type_symbol
_atom_site_label
_atom_site_fract_x
_atom_site_fract_y
_atom_site_fract_z
Si Si1 0.084401 0.600060 0.204381
Si Si2 0.500000 0.710847 0.548629
Si Si3 0.331757 0.763171 0.575659
Si Si4 0.740108 0.000000 0.000000
Si Si5 0.177025 0.683043 0.786221
Si Si6 0.000000 0.624607 0.086910
O O1 0.110119 0.432586 0.203701
O O2 0.147008 0.690309 0.241058
O O3 0.075631 0.652557 0.131084
O O4 0.000000 0.606645 0.237314
O O5 0.423885 0.788240 0.576170
O O6 0.500000 0.542075 0.565703
O O7 0.500000 0.731995 0.472498
O O8 0.313830 0.614150 0.537208
O O9 0.299413 0.750115 0.646398
O O10 0.293327 0.908062 0.547235
O O11 0.250000 0.613737 0.750000
#
# Coordination Sequence:
#
# PCOD8264501 Si02
#       6
#    16   8  16   8  16   8
#     4  10  23  43  64  94 130 172 218 265 323 389
#     4  11  20  40  73  97 125 172 226 274 318 395
#     4  11  25  45  69  98 131 174 224 271 332 395
#     4  10  26  46  66  96 138 174 214 280 334 396
#     4  12  26  41  66  98 133 172 218 272 328 391
#     4   9  20  37  71  93 127 170 220 258 330 390
#
# _framework density 21.345538000000001
#
# number of rings (size 3 to 8) (size 9 to 14) (size 15 to 20)
#    0.667    0.667    2.222    2.667    7.778    2.222 
#    0.000    0.000    0.000    0.000    0.000    0.000 
#    0.000    0.000    0.000    0.000    0.000    0.000 
#
# Total GULP energy -446320.359114 kJ/mol
# GULP energy per Si atom -12397.787753 kJ/mol
# Density = 2.129696 g / cm^3
# Si number density = 21.345538 Si / 1000 Ang^3
#
#
#
# Elastic Constant Matrix: (Units=GPa)
#
#
# Indices 1 2 3 4 5 6 
#
# 1 111.4842 10.1549 27.8380 0.0000 0.0000 0.0000
# 2 10.1549 54.2351 14.0382 0.0000 0.0000 0.0000
# 3 27.8380 14.0382 136.2083 0.0000 0.0000 0.0000
# 4 0.0000 0.0000 0.0000 13.2727 0.0000 0.0000
# 5 0.0000 0.0000 0.0000 0.0000 34.5523 0.0000
# 6 0.0000 0.0000 0.0000 0.0000 0.0000 9.2156
#
#
#
# Elastic Compliance Matrix: (Units=1/GPa)
#
#
# Indices 1 2 3 4 5 6 
#
# 1 0.009543 -0.001317 -0.001815 0.000000 0.000000 0.000000
# 2 -0.001317 0.019125 -0.001702 0.000000 0.000000 0.000000
# 3 -0.001815 -0.001702 0.007888 0.000000 0.000000 0.000000
# 4 0.000000 0.000000 0.000000 0.075342 0.000000 0.000000
# 5 0.000000 0.000000 0.000000 0.000000 0.028942 0.000000
# 6 0.000000 0.000000 0.000000 0.000000 0.000000 0.108512
#
#
# Mechanical properties :
#
#
# Convention : Reuss Voigt Hill
#
# Bulk Modulus (GPa) = 37.18998 45.10997 41.14997
# Shear Modulus (GPa) = 18.65792 28.06788 23.36290
#
# Velocity S-wave (km/s) = 2.95971 3.63013 3.31193
# Velocity P-wave (km/s) = 5.39819 6.22491 5.82624
#
# Compressibility (1/GPa) = 0.02688896
#
# Stress axis : x y z
#
# Youngs Moduli (GPa) = 104.78910 52.28649 126.77520
#
# Poissons Ratio (x) = 0.06887 0.23005
# Poissons Ratio (y) = 0.13802 0.21577
# Poissons Ratio (z) = 0.19015 0.08899
#
# Static dielectric constant tensor:
#      x y z
#    x 3.825490 0.000000 0.000000 
#    y 0.000000 3.469900 0.000000 
#    z 0.000000 0.000000 4.123430 
# 
# 
# High freq. dielectric constant tensor:
#      x y z
#    x 1.844970 0.000000 0.000000 
#    y 0.000000 1.813190 0.000000 
#    z 0.000000 0.000000 1.847490 
# 
# From -- ./inp_files/40727.got.cif
#   From: 2010.03.12/outbox.cif.g09.slc.cpg/sg64_21_cif.got.tgz:40727.got - 2010.04.10 20:19:32.
