data_PCOD8264320
_publ_section_title
;
Structure prediction by ZEFSAII (Michael W. Deem and Ramdas Pophale) SiO2 
 PCOD8264320
Probable space group: C M C A
;
_chemical_formula_sum "Si O2"
_cell_formula_units_Z 64
_cell_length_a 15.660690
_cell_length_b 24.229712
_cell_length_c 8.397799
_cell_angle_alpha 90.000000
_cell_angle_beta 90.000000
_cell_angle_gamma 90.000000
_cell_volume 3186.578492
_symmetry_space_group_name_H-M "C M C A"
_symmetry_group_IT_number 64
_symmetry_cell_setting 'orthorhombic'
loop_
_space_group_symop_operation_xyz
x,y,z
-x,1/2-y,1/2+z
x,-y,-z
-x,1/2+y,1/2-z
-x,-y,-z
x,1/2+y,1/2-z
-x,y,z
x,1/2-y,1/2+z
1/2+x,1/2+y,z
1/2-x,-y,1/2+z
1/2+x,1/2-y,-z
1/2-x,y,1/2-z
1/2-x,1/2-y,-z
1/2+x,y,1/2-z
1/2-x,1/2+y,z
1/2+x,-y,1/2+z
loop_
_atom_site_type_symbol
_atom_site_label
_atom_site_fract_x
_atom_site_fract_y
_atom_site_fract_z
Si Si1 0.155734 0.879244 0.687545
Si Si2 0.500000 0.684576 0.827013
Si Si3 0.500000 0.692636 0.203026
Si Si4 0.155572 0.003787 0.187682
Si Si5 0.591831 0.601212 0.638879
O O1 0.250000 0.862927 0.750000
O O2 0.163354 0.887008 0.495096
O O3 0.087132 0.832504 0.727113
O O4 0.121347 0.936258 0.762128
O O5 0.500000 0.743958 0.748733
O O6 0.585211 0.651432 0.767220
O O7 0.500000 0.686992 0.014980
O O8 0.250000 0.995975 0.250000
O O9 0.101763 0.955728 0.267650
O O10 0.149637 0.000000 0.000000
O O11 0.500000 0.597391 0.548507
#
# Coordination Sequence:
#
# PCOD8264320 Si02
#       5
#    16   8   8  16  16
#     4  11  23  40  66  95 126 167 207 258 315 373
#     4  10  24  41  66  93 120 168 208 268 308 372
#     4  12  22  45  66  89 130 162 214 262 314 368
#     4  11  22  37  59  94 131 165 210 256 305 376
#     4  10  22  41  62  90 127 162 208 255 316 363
#
# _framework density 20.084237000000002
#
# number of rings (size 3 to 8) (size 9 to 14) (size 15 to 20)
#    0.750    0.500    1.250    6.750    1.750    1.500 
#    0.000    6.250    0.000    0.000    0.000    0.000 
#    0.000    0.000    0.000    0.000    0.000    0.000 
#
# Total GULP energy -396632.957669 kJ/mol
# GULP energy per Si atom -12394.779927 kJ/mol
# Density = 2.003852 g / cm^3
# Si number density = 20.084237 Si / 1000 Ang^3
#
#
#
# Elastic Constant Matrix: (Units=GPa)
#
#
# Indices 1 2 3 4 5 6 
#
# 1 70.9852 11.8325 -7.3503 0.0000 0.0000 0.0000
# 2 11.8325 98.5853 -24.8699 0.0000 0.0000 0.0000
# 3 -7.3503 -24.8699 82.5773 0.0000 0.0000 0.0000
# 4 0.0000 0.0000 0.0000 38.1182 0.0000 0.0000
# 5 0.0000 0.0000 0.0000 0.0000 30.5933 0.0000
# 6 0.0000 0.0000 0.0000 0.0000 0.0000 6.4465
#
#
#
# Elastic Compliance Matrix: (Units=1/GPa)
#
#
# Indices 1 2 3 4 5 6 
#
# 1 0.014427 -0.001523 0.000825 0.000000 0.000000 0.000000
# 2 -0.001523 0.011138 0.003219 0.000000 0.000000 0.000000
# 3 0.000825 0.003219 0.013153 0.000000 0.000000 0.000000
# 4 0.000000 0.000000 0.000000 0.026234 0.000000 0.000000
# 5 0.000000 0.000000 0.000000 0.000000 0.032687 0.000000
# 6 0.000000 0.000000 0.000000 0.000000 0.000000 0.155123
#
#
# Mechanical properties :
#
#
# Convention : Reuss Voigt Hill
#
# Bulk Modulus (GPa) = 22.85196 23.48585 23.16890
# Shear Modulus (GPa) = 19.06163 33.20064 26.13113
#
# Velocity S-wave (km/s) = 3.08406 4.07021 3.61096
# Velocity P-wave (km/s) = 4.90761 5.81445 5.38017
#
# Compressibility (1/GPa) = 0.04375992
#
# Stress axis : x y z
#
# Youngs Moduli (GPa) = 69.31531 89.77970 76.02956
#
# Poissons Ratio (x) = 0.13677 -0.06275
# Poissons Ratio (y) = 0.10559 -0.24474
# Poissons Ratio (z) = -0.05721 -0.28900
#
# Static dielectric constant tensor:
#      x y z
#    x 3.466250 0.000000 0.000000 
#    y 0.000000 3.614380 0.000000 
#    z 0.000000 0.000000 3.755220 
# 
# 
# High freq. dielectric constant tensor:
#      x y z
#    x 1.768860 0.000000 0.000000 
#    y 0.000000 1.788680 0.000000 
#    z 0.000000 0.000000 1.801280 
# 
# From -- ./inp_files/5669.got.cif
#   From: 2010.03.12/outbox.cif.g09.slc.cpg/sg64_3_cif.got.tgz:5669.got - 2010.04.10 20:19:32.
