data_PCOD8264521
_publ_section_title
;
Structure prediction by ZEFSAII (Michael W. Deem and Ramdas Pophale) SiO2 
 PCOD8264521
Probable space group: C M C A
;
_chemical_formula_sum "Si O2"
_cell_formula_units_Z 96
_cell_length_a 17.269051
_cell_length_b 19.075117
_cell_length_c 13.593472
_cell_angle_alpha 90.000000
_cell_angle_beta 90.000000
_cell_angle_gamma 90.000000
_cell_volume 4477.814306
_symmetry_space_group_name_H-M "C M C A"
_symmetry_group_IT_number 64
_symmetry_cell_setting 'orthorhombic'
loop_
_space_group_symop_operation_xyz
x,y,z
-x,1/2-y,1/2+z
x,-y,-z
-x,1/2+y,1/2-z
-x,-y,-z
x,1/2+y,1/2-z
-x,y,z
x,1/2-y,1/2+z
1/2+x,1/2+y,z
1/2-x,-y,1/2+z
1/2+x,1/2-y,-z
1/2-x,y,1/2-z
1/2-x,1/2-y,-z
1/2+x,y,1/2-z
1/2-x,1/2+y,z
1/2+x,-y,1/2+z
loop_
_atom_site_type_symbol
_atom_site_label
_atom_site_fract_x
_atom_site_fract_y
_atom_site_fract_z
Si Si1 0.590022 0.417871 0.352947
Si Si2 0.341016 0.045890 0.240566
Si Si3 0.166090 0.211734 0.737291
Si Si4 0.910847 0.259413 0.442023
Si Si5 0.336577 0.345372 0.899699
Si Si6 0.167779 0.381242 0.960871
O O1 0.500000 0.425509 0.380166
O O2 0.613149 0.472839 0.267085
O O3 0.605283 0.340175 0.312468
O O4 0.643806 0.433213 0.449317
O O5 0.250000 0.031802 0.250000
O O6 0.369302 0.088978 0.336605
O O7 0.361666 0.089864 0.143047
O O8 0.250000 0.174904 0.750000
O O9 0.135863 0.231210 0.843292
O O10 0.180328 0.282104 0.674798
O O11 0.898900 0.323515 0.518229
O O12 0.878413 0.188917 0.491047
O O13 0.000000 0.251994 0.416483
O O14 0.259198 0.367033 0.958511
#
# Coordination Sequence:
#
# PCOD8264521 Si02
#       6
#    16  16  16  16  16  16
#     4  12  26  41  62  99 138 171 212 268 341 397
#     4  10  23  44  66  92 127 175 224 268 320 394
#     4  12  22  42  67  92 125 172 221 272 318 388
#     4  12  24  37  62 101 133 163 211 277 335 383
#     4  11  22  43  69  95 127 174 228 268 324 398
#     4  11  21  41  67  95 130 167 219 274 322 393
#
# _framework density 21.439031
#
# number of rings (size 3 to 8) (size 9 to 14) (size 15 to 20)
#    0.000    0.667    5.000    4.000    0.000    3.333 
#    0.000    2.500    0.000    2.000    0.000    0.000 
#    0.000    0.000    0.000    0.000    0.000    0.000 
#
# Total GULP energy -595321.937030 kJ/mol
# GULP energy per Si atom -12402.540355 kJ/mol
# Density = 2.139023 g / cm^3
# Si number density = 21.439031 Si / 1000 Ang^3
#
#
#
# Elastic Constant Matrix: (Units=GPa)
#
#
# Indices 1 2 3 4 5 6 
#
# 1 87.3486 38.4512 49.2190 0.0000 0.0000 0.0000
# 2 38.4512 84.8273 36.2342 0.0000 0.0000 0.0000
# 3 49.2190 36.2342 79.6161 0.0000 0.0000 0.0000
# 4 0.0000 0.0000 0.0000 50.2579 0.0000 0.0000
# 5 0.0000 0.0000 0.0000 0.0000 18.1607 0.0000
# 6 0.0000 0.0000 0.0000 0.0000 0.0000 11.1530
#
#
#
# Elastic Compliance Matrix: (Units=1/GPa)
#
#
# Indices 1 2 3 4 5 6 
#
# 1 0.018814 -0.004419 -0.009620 0.000000 0.000000 0.000000
# 2 -0.004419 0.015671 -0.004400 0.000000 0.000000 0.000000
# 3 -0.009620 -0.004400 0.020510 0.000000 0.000000 0.000000
# 4 0.000000 0.000000 0.000000 0.019897 0.000000 0.000000
# 5 0.000000 0.000000 0.000000 0.000000 0.055064 0.000000
# 6 0.000000 0.000000 0.000000 0.000000 0.000000 0.089662
#
#
# Mechanical properties :
#
#
# Convention : Reuss Voigt Hill
#
# Bulk Modulus (GPa) = 55.19676 55.51120 55.35398
# Shear Modulus (GPa) = 19.04496 24.44016 21.74256
#
# Velocity S-wave (km/s) = 2.98372 3.38003 3.18804
# Velocity P-wave (km/s) = 6.13775 6.41729 6.27907
#
# Compressibility (1/GPa) = 0.01811701
#
# Stress axis : x y z
#
# Youngs Moduli (GPa) = 53.15111 63.81050 48.75685
#
# Poissons Ratio (x) = 0.28199 0.46903
# Poissons Ratio (y) = 0.23488 0.21454
# Poissons Ratio (z) = 0.51131 0.28079
#
# Static dielectric constant tensor:
#      x y z
#    x 3.654830 0.000000 0.000000 
#    y 0.000000 3.968690 0.000000 
#    z 0.000000 0.000000 4.010740 
# 
# 
# High freq. dielectric constant tensor:
#      x y z
#    x 1.825750 0.000000 0.000000 
#    y 0.000000 1.836520 0.000000 
#    z 0.000000 0.000000 1.854730 
# 
# From -- ./inp_files/23859.got.cif
#   From: 2010.03.12/outbox.cif.g09.slc.cpg/sg64_12_cif.got.tgz:23859.got - 2010.04.10 20:19:32.
