data_PCOD8264880
_publ_section_title
;
Structure prediction by ZEFSAII (Michael W. Deem and Ramdas Pophale) SiO2 
 PCOD8264880
Probable space group: C M C A
;
_chemical_formula_sum "Si O2"
_cell_formula_units_Z 64
_cell_length_a 17.112627
_cell_length_b 14.287399
_cell_length_c 11.438577
_cell_angle_alpha 90.000000
_cell_angle_beta 90.000000
_cell_angle_gamma 90.000000
_cell_volume 2796.674082
_symmetry_space_group_name_H-M "C M C A"
_symmetry_group_IT_number 64
_symmetry_cell_setting 'orthorhombic'
loop_
_space_group_symop_operation_xyz
x,y,z
-x,1/2-y,1/2+z
x,-y,-z
-x,1/2+y,1/2-z
-x,-y,-z
x,1/2+y,1/2-z
-x,y,z
x,1/2-y,1/2+z
1/2+x,1/2+y,z
1/2-x,-y,1/2+z
1/2+x,1/2-y,-z
1/2-x,y,1/2-z
1/2-x,1/2-y,-z
1/2+x,y,1/2-z
1/2-x,1/2+y,z
1/2+x,-y,1/2+z
loop_
_atom_site_type_symbol
_atom_site_label
_atom_site_fract_x
_atom_site_fract_y
_atom_site_fract_z
Si Si1 0.329200 0.607969 0.205879
Si Si2 0.587241 0.299427 0.997772
Si Si3 0.218422 0.408295 0.376679
Si Si4 0.130545 0.403823 0.962306
O O1 0.250000 0.659835 0.250000
O O2 0.382563 0.677115 0.131711
O O3 0.309065 0.516396 0.127718
O O4 0.371871 0.579659 0.323789
O O5 0.500000 0.340212 0.015682
O O6 0.644710 0.342004 0.095171
O O7 0.581701 0.187568 0.006197
O O8 0.250000 0.377300 0.250000
O O9 0.283370 0.395132 0.477883
O O10 0.088457 0.500000 0.000000
#
# Coordination Sequence:
#
# PCOD8264880 Si02
#       4
#    16  16  16  16
#     4  11  23  44  76 109 138 185 247 304 358 426
#     4  12  29  46  70 109 151 194 236 297 376 437
#     4  11  23  44  77 108 137 184 247 302 355 427
#     4  12  24  45  72 105 145 190 250 300 354 425
#
# _framework density 22.884323999999999
#
# number of rings (size 3 to 8) (size 9 to 14) (size 15 to 20)
#    0.000    0.500    7.500    1.500    3.500    3.500 
#    0.000    0.000    0.000    0.000    0.000    0.000 
#    0.000    0.000    0.000    0.000    0.000    0.000 
#
# Total GULP energy -396676.642042 kJ/mol
# GULP energy per Si atom -12396.145064 kJ/mol
# Density = 2.283224 g / cm^3
# Si number density = 22.884324 Si / 1000 Ang^3
#
#
#
# Elastic Constant Matrix: (Units=GPa)
#
#
# Indices 1 2 3 4 5 6 
#
# 1 116.7415 38.9025 35.8055 0.0000 0.0000 0.0000
# 2 38.9025 96.2519 31.2466 0.0000 0.0000 0.0000
# 3 35.8055 31.2466 126.6156 0.0000 0.0000 0.0000
# 4 0.0000 0.0000 0.0000 26.4090 0.0000 0.0000
# 5 0.0000 0.0000 0.0000 0.0000 20.5791 0.0000
# 6 0.0000 0.0000 0.0000 0.0000 0.0000 47.2258
#
#
#
# Elastic Compliance Matrix: (Units=1/GPa)
#
#
# Indices 1 2 3 4 5 6 
#
# 1 0.010373 -0.003522 -0.002064 0.000000 0.000000 0.000000
# 2 -0.003522 0.012490 -0.002086 0.000000 0.000000 0.000000
# 3 -0.002064 -0.002086 0.008996 0.000000 0.000000 0.000000
# 4 0.000000 0.000000 0.000000 0.037866 0.000000 0.000000
# 5 0.000000 0.000000 0.000000 0.000000 0.048593 0.000000
# 6 0.000000 0.000000 0.000000 0.000000 0.000000 0.021175
#
#
# Mechanical properties :
#
#
# Convention : Reuss Voigt Hill
#
# Bulk Modulus (GPa) = 60.55413 61.27980 60.91697
# Shear Modulus (GPa) = 31.18306 34.41974 32.80140
#
# Velocity S-wave (km/s) = 3.69540 3.88245 3.79008
# Velocity P-wave (km/s) = 6.68778 6.85084 6.76980
#
# Compressibility (1/GPa) = 0.01651415
#
# Stress axis : x y z
#
# Youngs Moduli (GPa) = 96.40630 80.06192 111.15453
#
# Poissons Ratio (x) = 0.28201 0.22943
# Poissons Ratio (y) = 0.33958 0.23190
# Poissons Ratio (z) = 0.19899 0.16704
#
# Static dielectric constant tensor:
#      x y z
#    x 3.837310 0.000000 0.000000 
#    y 0.000000 4.154800 0.000000 
#    z 0.000000 0.000000 4.319920 
# 
# 
# High freq. dielectric constant tensor:
#      x y z
#    x 1.871680 0.000000 0.000000 
#    y 0.000000 1.905470 0.000000 
#    z 0.000000 0.000000 1.927050 
# 
# From -- ./inp_files/15448.got.cif
#   From: 2010.03.12/outbox.cif.g09.slc.cpg/sg64_8_cif.got.tgz:15448.got - 2010.04.10 20:19:32.
