data_PCOD8264831
_publ_section_title
;
Structure prediction by ZEFSAII (Michael W. Deem and Ramdas Pophale) SiO2 
 PCOD8264831
Probable space group: C M C A
;
_chemical_formula_sum "Si O2"
_cell_formula_units_Z 80
_cell_length_a 17.648191
_cell_length_b 7.509947
_cell_length_c 27.703722
_cell_angle_alpha 90.000000
_cell_angle_beta 90.000000
_cell_angle_gamma 90.000000
_cell_volume 3671.767622
_symmetry_space_group_name_H-M "C M C A"
_symmetry_group_IT_number 64
_symmetry_cell_setting 'orthorhombic'
loop_
_space_group_symop_operation_xyz
x,y,z
-x,1/2-y,1/2+z
x,-y,-z
-x,1/2+y,1/2-z
-x,-y,-z
x,1/2+y,1/2-z
-x,y,z
x,1/2-y,1/2+z
1/2+x,1/2+y,z
1/2-x,-y,1/2+z
1/2+x,1/2-y,-z
1/2-x,y,1/2-z
1/2-x,1/2-y,-z
1/2+x,y,1/2-z
1/2-x,1/2+y,z
1/2+x,-y,1/2+z
loop_
_atom_site_type_symbol
_atom_site_label
_atom_site_fract_x
_atom_site_fract_y
_atom_site_fract_z
Si Si1 0.847049 0.634511 0.399729
Si Si2 0.821313 0.774969 0.218041
Si Si3 0.089389 0.103004 0.199058
Si Si4 0.587621 0.950675 0.052675
Si Si5 0.682618 0.774874 0.888302
O O1 0.878325 0.704475 0.347666
O O2 0.899677 0.738666 0.438217
O O3 0.763922 0.704860 0.413185
O O4 0.851700 0.419344 0.402236
O O5 0.750000 0.853985 0.250000
O O6 0.868458 0.646400 0.251510
O O7 0.794820 0.682515 0.168223
O O8 0.885217 0.900710 0.194709
O O9 0.000000 0.130416 0.203787
O O10 0.500000 0.997750 0.055646
O O11 0.627523 0.071013 0.093390
O O12 0.620021 0.000000 0.000000
#
# Coordination Sequence:
#
# PCOD8264831 Si02
#       5
#    16  16  16  16  16
#     4  11  23  44  69 100 138 179 228 284 337 409
#     4  11  23  39  63  93 134 178 224 275 331 404
#     4  11  24  38  60  95 133 176 225 277 336 398
#     4  11  27  49  74 104 137 178 228 290 360 415
#     4  11  24  43  71 102 136 182 231 280 341 408
#
# _framework density 21.787872
#
# number of rings (size 3 to 8) (size 9 to 14) (size 15 to 20)
#    0.000    1.000    4.000    1.800    5.600    6.400 
#    0.000    2.000    0.000    0.000    0.000    0.000 
#    0.000    0.000    0.000    0.000    0.000    0.000 
#
# Total GULP energy -495526.888278 kJ/mol
# GULP energy per Si atom -12388.172207 kJ/mol
# Density = 2.173828 g / cm^3
# Si number density = 21.787872 Si / 1000 Ang^3
#
#
#
# Elastic Constant Matrix: (Units=GPa)
#
#
# Indices 1 2 3 4 5 6 
#
# 1 105.5622 25.2783 22.7887 0.0000 0.0000 0.0000
# 2 25.2783 77.3372 23.3088 0.0000 0.0000 0.0000
# 3 22.7887 23.3088 72.8829 0.0000 0.0000 0.0000
# 4 0.0000 0.0000 0.0000 26.0029 0.0000 0.0000
# 5 0.0000 0.0000 0.0000 0.0000 32.2007 0.0000
# 6 0.0000 0.0000 0.0000 0.0000 0.0000 30.4867
#
#
#
# Elastic Compliance Matrix: (Units=1/GPa)
#
#
# Indices 1 2 3 4 5 6 
#
# 1 0.010660 -0.002744 -0.002456 0.000000 0.000000 0.000000
# 2 -0.002744 0.015016 -0.003944 0.000000 0.000000 0.000000
# 3 -0.002456 -0.003944 0.015750 0.000000 0.000000 0.000000
# 4 0.000000 0.000000 0.000000 0.038457 0.000000 0.000000
# 5 0.000000 0.000000 0.000000 0.000000 0.031055 0.000000
# 6 0.000000 0.000000 0.000000 0.000000 0.000000 0.032801
#
#
# Mechanical properties :
#
#
# Convention : Reuss Voigt Hill
#
# Bulk Modulus (GPa) = 43.21884 44.28155 43.75020
# Shear Modulus (GPa) = 29.45661 30.03180 29.74421
#
# Velocity S-wave (km/s) = 3.68091 3.71667 3.69883
# Velocity P-wave (km/s) = 6.15993 6.22786 6.19399
#
# Compressibility (1/GPa) = 0.02313805
#
# Stress axis : x y z
#
# Youngs Moduli (GPa) = 93.80542 66.59490 63.49267
#
# Poissons Ratio (x) = 0.18276 0.15591
# Poissons Ratio (y) = 0.25743 0.25043
# Poissons Ratio (z) = 0.23035 0.26267
#
# Static dielectric constant tensor:
#      x y z
#    x 3.943400 0.000000 0.000000 
#    y 0.000000 3.832620 0.000000 
#    z 0.000000 0.000000 5.060250 
# 
# 
# High freq. dielectric constant tensor:
#      x y z
#    x 1.859810 0.000000 0.000000 
#    y 0.000000 1.847340 0.000000 
#    z 0.000000 0.000000 1.855240 
# 
# From -- ./inp_files/53532.got.cif
#   From: 2010.03.12/outbox.cif.g09.slc.cpg/sg64_27_cif.got.tgz:53532.got - 2010.04.10 20:19:32.
