data_PCOD8264801
_publ_section_title
;
Structure prediction by ZEFSAII (Michael W. Deem and Ramdas Pophale) SiO2 
 PCOD8264801
Probable space group: C M C A
;
_chemical_formula_sum "Si O2"
_cell_formula_units_Z 64
_cell_length_a 15.511392
_cell_length_b 15.549039
_cell_length_c 12.396265
_cell_angle_alpha 90.000000
_cell_angle_beta 90.000000
_cell_angle_gamma 90.000000
_cell_volume 2989.820931
_symmetry_space_group_name_H-M "C M C A"
_symmetry_group_IT_number 64
_symmetry_cell_setting 'orthorhombic'
loop_
_space_group_symop_operation_xyz
x,y,z
-x,1/2-y,1/2+z
x,-y,-z
-x,1/2+y,1/2-z
-x,-y,-z
x,1/2+y,1/2-z
-x,y,z
x,1/2-y,1/2+z
1/2+x,1/2+y,z
1/2-x,-y,1/2+z
1/2+x,1/2-y,-z
1/2-x,y,1/2-z
1/2-x,1/2-y,-z
1/2+x,y,1/2-z
1/2-x,1/2+y,z
1/2+x,-y,1/2+z
loop_
_atom_site_type_symbol
_atom_site_label
_atom_site_fract_x
_atom_site_fract_y
_atom_site_fract_z
Si Si1 0.842136 0.241541 0.442657
Si Si2 0.500000 0.013184 0.164146
Si Si3 0.600714 0.094382 0.481978
Si Si4 0.500000 0.643041 0.530819
Si Si5 0.343935 0.609706 0.247431
O O1 0.750000 0.250000 0.500000
O O2 0.873722 0.340002 0.421624
O O3 0.843025 0.190977 0.329161
O O4 0.912972 0.198851 0.522637
O O5 0.586186 0.035998 0.229571
O O6 0.500000 0.910762 0.142604
O O7 0.500000 0.070669 0.059167
O O8 0.500000 0.082858 0.472285
O O9 0.637413 0.140653 0.374055
O O10 0.643178 0.000000 0.500000
O O11 0.250000 0.565700 0.250000
#
# Coordination Sequence:
#
# PCOD8264801 Si02
#       5
#    16   8  16   8  16
#     4  11  22  41  69  97 131 177 223 277 338 408
#     4   9  20  39  64  95 131 171 219 273 336 397
#     4  11  24  44  65  92 133 176 225 285 343 404
#     4   9  20  39  64  95 131 173 218 276 329 395
#     4  11  22  41  67  95 133 174 220 275 337 410
#
# _framework density 21.405964999999998
#
# number of rings (size 3 to 8) (size 9 to 14) (size 15 to 20)
#    0.000    1.500    5.000    0.000    0.000    2.000 
#    4.500    1.250    0.000    0.000    0.000    0.000 
#    0.000    0.000    0.000    0.000    0.000    0.000 
#
# Total GULP energy -396489.273188 kJ/mol
# GULP energy per Si atom -12390.289787 kJ/mol
# Density = 2.135724 g / cm^3
# Si number density = 21.405965 Si / 1000 Ang^3
#
#
#
# Elastic Constant Matrix: (Units=GPa)
#
#
# Indices 1 2 3 4 5 6 
#
# 1 167.3153 58.4330 33.4712 0.0000 0.0000 0.0000
# 2 58.4330 147.9343 46.5947 0.0000 0.0000 0.0000
# 3 33.4712 46.5947 80.4890 0.0000 0.0000 0.0000
# 4 0.0000 0.0000 0.0000 13.4676 0.0000 0.0000
# 5 0.0000 0.0000 0.0000 0.0000 28.3405 0.0000
# 6 0.0000 0.0000 0.0000 0.0000 0.0000 -22.9162
#
#
#
# Elastic Compliance Matrix: (Units=1/GPa)
#
#
# Indices 1 2 3 4 5 6 
#
# 1 0.007103 -0.002293 -0.001626 0.000000 0.000000 0.000000
# 2 -0.002293 0.009008 -0.004261 0.000000 0.000000 0.000000
# 3 -0.001626 -0.004261 0.015567 0.000000 0.000000 0.000000
# 4 0.000000 0.000000 0.000000 0.074252 0.000000 0.000000
# 5 0.000000 0.000000 0.000000 0.000000 0.035285 0.000000
# 6 0.000000 0.000000 0.000000 0.000000 0.000000 -0.043637
#
#
# Mechanical properties :
#
#
# Convention : Reuss Voigt Hill
#
# Bulk Modulus (GPa) = 65.28765 74.74849 70.01807
# Shear Modulus (GPa) = 42.00132 20.92770 31.46451
#
# Velocity S-wave (km/s) = 4.43440 3.13014 3.83808
# Velocity P-wave (km/s) = 7.53555 6.93246 7.24029
#
# Compressibility (1/GPa) = 0.01531683
#
# Stress axis : x y z
#
# Youngs Moduli (GPa) = 140.78544 111.01649 64.23923
#
# Poissons Ratio (x) = 0.25461 0.10446
# Poissons Ratio (y) = 0.32289 0.27371
# Poissons Ratio (z) = 0.22893 0.47302
#
# Static dielectric constant tensor:
#      x y z
#    x 4.195350 0.000000 0.000000 
#    y 0.000000 4.252750 0.000000 
#    z 0.000000 0.000000 3.929640 
# 
# 
# High freq. dielectric constant tensor:
#      x y z
#    x 1.856650 0.000000 0.000000 
#    y 0.000000 1.836590 0.000000 
#    z 0.000000 0.000000 1.821930 
# 
# From -- ./inp_files/14060.got.cif
#   From: 2010.03.12/outbox.cif.g09.slc.cpg/sg64_8_cif.got.tgz:14060.got - 2010.04.10 20:19:32.
