data_PCOD8264213
_publ_section_title
;
Structure prediction by ZEFSAII (Michael W. Deem and Ramdas Pophale) SiO2 
 PCOD8264213
Probable space group: C M C A
;
_chemical_formula_sum "Si O2"
_cell_formula_units_Z 88
_cell_length_a 23.369945
_cell_length_b 32.747809
_cell_length_c 5.271343
_cell_angle_alpha 90.000000
_cell_angle_beta 90.000000
_cell_angle_gamma 90.000000
_cell_volume 4034.235207
_symmetry_space_group_name_H-M "C M C A"
_symmetry_group_IT_number 64
_symmetry_cell_setting 'orthorhombic'
loop_
_space_group_symop_operation_xyz
x,y,z
-x,1/2-y,1/2+z
x,-y,-z
-x,1/2+y,1/2-z
-x,-y,-z
x,1/2+y,1/2-z
-x,y,z
x,1/2-y,1/2+z
1/2+x,1/2+y,z
1/2-x,-y,1/2+z
1/2+x,1/2-y,-z
1/2-x,y,1/2-z
1/2-x,1/2-y,-z
1/2+x,y,1/2-z
1/2-x,1/2+y,z
1/2+x,-y,1/2+z
loop_
_atom_site_type_symbol
_atom_site_label
_atom_site_fract_x
_atom_site_fract_y
_atom_site_fract_z
Si Si1 0.652632 0.500000 0.500000
Si Si2 0.814764 0.232645 0.494213
Si Si3 0.561746 0.459773 0.840278
Si Si4 0.216161 0.923975 0.487520
Si Si5 0.566399 0.629348 0.987848
Si Si6 0.367659 0.352384 0.518919
O O1 0.614459 0.469189 0.661815
O O2 0.693269 0.466787 0.365184
O O3 0.846267 0.251569 0.248188
O O4 0.750000 0.250000 0.500000
O O5 0.820523 0.183812 0.480646
O O6 0.500000 0.451713 0.698596
O O7 0.576410 0.419832 0.006730
O O8 0.553060 0.500000 0.000000
O O9 0.250000 0.903897 0.250000
O O10 0.165412 0.894095 0.561337
O O11 0.250000 0.932104 0.750000
O O12 0.500000 0.640058 0.962106
O O13 0.589266 0.651066 0.243356
O O14 0.598014 0.647723 0.744045
#
# Coordination Sequence:
#
# PCOD8264213 Si02
#       6
#     8  16  16  16  16  16
#     4  12  23  42  60  86 138 180 235 274 348 376
#     4  10  23  41  69 103 134 171 217 283 339 410
#     4  10  22  38  64  94 128 176 237 295 337 388
#     4  12  28  42  64  92 135 188 233 280 329 412
#     4  11  24  44  70 106 137 182 232 282 347 416
#     4  12  24  45  73 100 142 180 221 286 355 401
#
# _framework density 21.813303999999999
#
# number of rings (size 3 to 8) (size 9 to 14) (size 15 to 20)
#    0.000    0.909    1.818    4.636    7.636    0.000 
#    0.000    0.000    0.000   10.909    0.000    0.000 
#    0.000    0.000    0.000    0.000    0.000    0.000 
#
# Total GULP energy -545146.250485 kJ/mol
# GULP energy per Si atom -12389.687511 kJ/mol
# Density = 2.176366 g / cm^3
# Si number density = 21.813304 Si / 1000 Ang^3
#
#
#
# Elastic Constant Matrix: (Units=GPa)
#
#
# Indices 1 2 3 4 5 6 
#
# 1 104.3176 46.2281 43.4225 0.0000 0.0000 0.0000
# 2 46.2281 131.5737 35.6484 0.0000 0.0000 0.0000
# 3 43.4225 35.6484 159.1353 0.0000 0.0000 0.0000
# 4 0.0000 0.0000 0.0000 27.9530 0.0000 0.0000
# 5 0.0000 0.0000 0.0000 0.0000 30.1084 0.0000
# 6 0.0000 0.0000 0.0000 0.0000 0.0000 11.1770
#
#
#
# Elastic Compliance Matrix: (Units=1/GPa)
#
#
# Indices 1 2 3 4 5 6 
#
# 1 0.012242 -0.003615 -0.002530 0.000000 0.000000 0.000000
# 2 -0.003615 0.009159 -0.001065 0.000000 0.000000 0.000000
# 3 -0.002530 -0.001065 0.007213 0.000000 0.000000 0.000000
# 4 0.000000 0.000000 0.000000 0.035774 0.000000 0.000000
# 5 0.000000 0.000000 0.000000 0.000000 0.033213 0.000000
# 6 0.000000 0.000000 0.000000 0.000000 0.000000 0.089470
#
#
# Mechanical properties :
#
#
# Convention : Reuss Voigt Hill
#
# Bulk Modulus (GPa) = 70.46411 71.73605 71.10008
# Shear Modulus (GPa) = 24.24546 31.82950 28.03748
#
# Velocity S-wave (km/s) = 3.33753 3.82406 3.58905
# Velocity P-wave (km/s) = 6.87209 7.24263 7.05979
#
# Compressibility (1/GPa) = 0.01419162
#
# Stress axis : x y z
#
# Youngs Moduli (GPa) = 81.68880 109.17973 138.63770
#
# Poissons Ratio (x) = 0.39474 0.35081
# Poissons Ratio (y) = 0.29534 0.14768
# Poissons Ratio (z) = 0.20670 0.11630
#
# Static dielectric constant tensor:
#      x y z
#    x 4.447010 0.000000 0.000000 
#    y 0.000000 3.836070 0.000000 
#    z 0.000000 0.000000 4.394500 
# 
# 
# High freq. dielectric constant tensor:
#      x y z
#    x 1.856140 0.000000 0.000000 
#    y 0.000000 1.852710 0.000000 
#    z 0.000000 0.000000 1.860990 
# 
# From -- ./inp_files/2433.got.cif
#   From: 2010.03.12/outbox.cif.g09.slc.cpg/sg64_2_cif.got.tgz:2433.got - 2010.04.10 20:19:32.
