data_PCOD8264278
_publ_section_title
;
Structure prediction by ZEFSAII (Michael W. Deem and Ramdas Pophale) SiO2 
 PCOD8264278
Probable space group: C M C A
;
_chemical_formula_sum "Si O2"
_cell_formula_units_Z 112
_cell_length_a 15.132055
_cell_length_b 14.370594
_cell_length_c 24.341801
_cell_angle_alpha 90.000000
_cell_angle_beta 90.000000
_cell_angle_gamma 90.000000
_cell_volume 5293.285741
_symmetry_space_group_name_H-M "C M C A"
_symmetry_group_IT_number 64
_symmetry_cell_setting 'orthorhombic'
loop_
_space_group_symop_operation_xyz
x,y,z
-x,1/2-y,1/2+z
x,-y,-z
-x,1/2+y,1/2-z
-x,-y,-z
x,1/2+y,1/2-z
-x,y,z
x,1/2-y,1/2+z
1/2+x,1/2+y,z
1/2-x,-y,1/2+z
1/2+x,1/2-y,-z
1/2-x,y,1/2-z
1/2-x,1/2-y,-z
1/2+x,y,1/2-z
1/2-x,1/2+y,z
1/2+x,-y,1/2+z
loop_
_atom_site_type_symbol
_atom_site_label
_atom_site_fract_x
_atom_site_fract_y
_atom_site_fract_z
Si Si1 0.104227 0.440106 0.392959
Si Si2 0.759920 0.895430 0.014555
Si Si3 0.902946 0.958496 0.318781
Si Si4 0.399248 0.837340 0.083664
Si Si5 0.167546 0.353299 0.599570
Si Si6 0.695767 0.852744 0.802951
Si Si7 0.156996 0.648021 0.720229
O O1 0.158032 0.391775 0.442484
O O2 0.114169 0.551166 0.394728
O O3 0.148120 0.405976 0.336707
O O4 0.000000 0.414014 0.397227
O O5 0.669239 0.847744 0.033975
O O6 0.787306 0.842104 0.959706
O O7 0.734984 0.000000 0.000000
O O8 0.856304 0.901198 0.367848
O O9 0.910612 0.897716 0.263029
O O10 0.000000 0.973021 0.341221
O O11 0.867676 0.061683 0.312691
O O12 0.500000 0.863246 0.066427
O O13 0.401005 0.731306 0.105639
O O14 0.242307 0.338952 0.644989
O O15 0.750000 0.881771 0.750000
O O16 0.641236 0.757760 0.790524
O O17 0.250000 0.628607 0.750000
#
# Coordination Sequence:
#
# PCOD8264278 Si02
#       7
#    16  16  16  16  16  16  16
#     4  11  23  39  63  93 125 163 207 257 312 369
#     4  10  22  40  62  87 123 164 207 258 311 367
#     4  11  23  38  58  87 122 157 198 251 306 364
#     4  11  23  40  62  90 125 164 207 254 308 374
#     4  11  22  39  63  91 122 159 205 256 311 369
#     4  11  23  40  64  87 116 159 202 248 307 369
#     4  11  22  39  62  88 121 160 206 254 308 368
#
# _framework density 21.15888
#
# number of rings (size 3 to 8) (size 9 to 14) (size 15 to 20)
#    0.000    1.143    0.000    8.571    0.000    4.571 
#    0.000    2.857    0.000    0.000    0.000    0.000 
#    0.000    0.000    0.000    0.000    0.000    0.000 
#
# Total GULP energy -694243.089637 kJ/mol
# GULP energy per Si atom -12397.198029 kJ/mol
# Density = 2.111072 g / cm^3
# Si number density = 21.158880 Si / 1000 Ang^3
#
#
#
# Elastic Constant Matrix: (Units=GPa)
#
#
# Indices 1 2 3 4 5 6 
#
# 1 105.3440 49.5276 49.0946 0.0000 0.0000 0.0000
# 2 49.5276 98.8279 44.0282 0.0000 0.0000 0.0000
# 3 49.0946 44.0282 131.5178 0.0000 0.0000 0.0000
# 4 0.0000 0.0000 0.0000 35.0444 0.0000 0.0000
# 5 0.0000 0.0000 0.0000 0.0000 12.8432 0.0000
# 6 0.0000 0.0000 0.0000 0.0000 0.0000 25.0377
#
#
#
# Elastic Compliance Matrix: (Units=1/GPa)
#
#
# Indices 1 2 3 4 5 6 
#
# 1 0.013515 -0.005319 -0.003264 0.000000 0.000000 0.000000
# 2 -0.005319 0.013985 -0.002696 0.000000 0.000000 0.000000
# 3 -0.003264 -0.002696 0.009725 0.000000 0.000000 0.000000
# 4 0.000000 0.000000 0.000000 0.028535 0.000000 0.000000
# 5 0.000000 0.000000 0.000000 0.000000 0.077862 0.000000
# 6 0.000000 0.000000 0.000000 0.000000 0.000000 0.039940
#
#
# Mechanical properties :
#
#
# Convention : Reuss Voigt Hill
#
# Bulk Modulus (GPa) = 68.18570 68.99894 68.59232
# Shear Modulus (GPa) = 23.69563 27.45436 25.57499
#
# Velocity S-wave (km/s) = 3.35011 3.60604 3.48043
# Velocity P-wave (km/s) = 6.87458 7.07239 6.97419
#
# Compressibility (1/GPa) = 0.01466583
#
# Stress axis : x y z
#
# Youngs Moduli (GPa) = 73.99423 71.50383 102.82982
#
# Poissons Ratio (x) = 0.38029 0.33568
# Poissons Ratio (y) = 0.39354 0.27728
# Poissons Ratio (z) = 0.24155 0.19281
#
# Static dielectric constant tensor:
#      x y z
#    x 3.626120 0.000000 0.000000 
#    y 0.000000 4.000750 0.000000 
#    z 0.000000 0.000000 4.039920 
# 
# 
# High freq. dielectric constant tensor:
#      x y z
#    x 1.819380 0.000000 0.000000 
#    y 0.000000 1.844700 0.000000 
#    z 0.000000 0.000000 1.841100 
# 
# From -- ./inp_files/45216.got.cif
#   From: 2010.03.12/outbox.cif.g09.slc.cpg/sg64_23_cif.got.tgz:45216.got - 2010.04.10 20:19:32.
