data_PCOD8264882
_publ_section_title
;
Structure prediction by ZEFSAII (Michael W. Deem and Ramdas Pophale) SiO2 
 PCOD8264882
Probable space group: C M C A
;
_chemical_formula_sum "Si O2"
_cell_formula_units_Z 48
_cell_length_a 17.949819
_cell_length_b 13.789159
_cell_length_c 7.716635
_cell_angle_alpha 90.000000
_cell_angle_beta 90.000000
_cell_angle_gamma 90.000000
_cell_volume 1909.966770
_symmetry_space_group_name_H-M "C M C A"
_symmetry_group_IT_number 64
_symmetry_cell_setting 'orthorhombic'
loop_
_space_group_symop_operation_xyz
x,y,z
-x,1/2-y,1/2+z
x,-y,-z
-x,1/2+y,1/2-z
-x,-y,-z
x,1/2+y,1/2-z
-x,y,z
x,1/2-y,1/2+z
1/2+x,1/2+y,z
1/2-x,-y,1/2+z
1/2+x,1/2-y,-z
1/2-x,y,1/2-z
1/2-x,1/2-y,-z
1/2+x,y,1/2-z
1/2-x,1/2+y,z
1/2+x,-y,1/2+z
loop_
_atom_site_type_symbol
_atom_site_label
_atom_site_fract_x
_atom_site_fract_y
_atom_site_fract_z
Si Si1 0.715833 0.897869 0.941020
Si Si2 0.125483 0.388423 0.456509
Si Si3 0.417440 0.202655 0.902238
O O1 0.750000 0.899670 0.750000
O O2 0.785493 0.874303 0.066338
O O3 0.647439 0.824139 0.959855
O O4 0.681190 0.000000 0.000000
O O5 0.105198 0.500000 0.500000
O O6 0.092616 0.320085 0.610610
O O7 0.089439 0.353907 0.277158
O O8 0.500000 0.180022 0.976871
#
# Coordination Sequence:
#
# PCOD8264882 Si02
#       3
#    16  16  16
#     4  11  23  45  75 104 140 191 246 296 354 430
#     4  11  25  48  75 103 143 193 245 294 352 431
#     4  12  26  44  71 107 145 186 236 300 368 426
#
# _framework density 25.131325
#
# number of rings (size 3 to 8) (size 9 to 14) (size 15 to 20)
#    0.000    0.667    0.000    9.000    0.000    3.333 
#    0.000    1.667    0.000    1.000    0.000    0.000 
#    0.000    0.000    0.000    0.000    0.000    0.000 
#
# Total GULP energy -297440.763590 kJ/mol
# GULP energy per Si atom -12393.365150 kJ/mol
# Density = 2.507413 g / cm^3
# Si number density = 25.131325 Si / 1000 Ang^3
#
#
#
# Elastic Constant Matrix: (Units=GPa)
#
#
# Indices 1 2 3 4 5 6 
#
# 1 166.0222 97.1715 28.9800 0.0000 0.0000 0.0000
# 2 97.1715 187.6281 83.9633 0.0000 0.0000 0.0000
# 3 28.9800 83.9633 112.2329 0.0000 0.0000 0.0000
# 4 0.0000 0.0000 0.0000 43.5538 0.0000 0.0000
# 5 0.0000 0.0000 0.0000 0.0000 28.5083 0.0000
# 6 0.0000 0.0000 0.0000 0.0000 0.0000 10.8883
#
#
#
# Elastic Compliance Matrix: (Units=1/GPa)
#
#
# Indices 1 2 3 4 5 6 
#
# 1 0.008859 -0.005358 0.001721 0.000000 0.000000 0.000000
# 2 -0.005358 0.011253 -0.007035 0.000000 0.000000 0.000000
# 3 0.001721 -0.007035 0.013728 0.000000 0.000000 0.000000
# 4 0.000000 0.000000 0.000000 0.022960 0.000000 0.000000
# 5 0.000000 0.000000 0.000000 0.000000 0.035077 0.000000
# 6 0.000000 0.000000 0.000000 0.000000 0.000000 0.091841
#
#
# Mechanical properties :
#
#
# Convention : Reuss Voigt Hill
#
# Bulk Modulus (GPa) = 80.02356 98.45698 89.24027
# Shear Modulus (GPa) = 23.89734 33.64134 28.76934
#
# Velocity S-wave (km/s) = 3.08701 3.66269 3.38710
# Velocity P-wave (km/s) = 6.67963 7.55970 7.13325
#
# Compressibility (1/GPa) = 0.01249632
#
# Stress axis : x y z
#
# Youngs Moduli (GPa) = 112.87995 88.86747 72.84123
#
# Poissons Ratio (x) = 0.47617 -0.12536
# Poissons Ratio (y) = 0.60483 0.51242
# Poissons Ratio (z) = -0.19427 0.62516
#
# Static dielectric constant tensor:
#      x y z
#    x 4.824360 0.000000 0.000000 
#    y 0.000000 4.919410 0.000000 
#    z 0.000000 0.000000 4.245510 
# 
# 
# High freq. dielectric constant tensor:
#      x y z
#    x 2.006350 0.000000 0.000000 
#    y 0.000000 2.015610 0.000000 
#    z 0.000000 0.000000 1.991070 
# 
# From -- ./inp_files/6186.got.cif
#   From: 2010.03.12/outbox.cif.g09.slc.cpg/sg64_4_cif.got.tgz:6186.got - 2010.04.10 20:19:32.
