data_PCOD8264549
_publ_section_title
;
Structure prediction by ZEFSAII (Michael W. Deem and Ramdas Pophale) SiO2 
 PCOD8264549
Probable space group: C M C A
;
_chemical_formula_sum "Si O2"
_cell_formula_units_Z 64
_cell_length_a 25.110037
_cell_length_b 16.345146
_cell_length_c 7.354030
_cell_angle_alpha 90.000000
_cell_angle_beta 90.000000
_cell_angle_gamma 90.000000
_cell_volume 3018.294095
_symmetry_space_group_name_H-M "C M C A"
_symmetry_group_IT_number 64
_symmetry_cell_setting 'orthorhombic'
loop_
_space_group_symop_operation_xyz
x,y,z
-x,1/2-y,1/2+z
x,-y,-z
-x,1/2+y,1/2-z
-x,-y,-z
x,1/2+y,1/2-z
-x,y,z
x,1/2-y,1/2+z
1/2+x,1/2+y,z
1/2-x,-y,1/2+z
1/2+x,1/2-y,-z
1/2-x,y,1/2-z
1/2-x,1/2-y,-z
1/2+x,y,1/2-z
1/2-x,1/2+y,z
1/2+x,-y,1/2+z
loop_
_atom_site_type_symbol
_atom_site_label
_atom_site_fract_x
_atom_site_fract_y
_atom_site_fract_z
Si Si1 0.694111 0.000000 0.500000
Si Si2 0.119067 0.367923 0.383044
Si Si3 0.363574 0.311624 0.716491
Si Si4 0.750000 0.380528 0.750000
Si Si5 0.939658 0.592748 0.949901
O O1 0.658290 0.053797 0.639169
O O2 0.733732 0.063890 0.415223
O O3 0.111384 0.349146 0.597440
O O4 0.138295 0.286099 0.282470
O O5 0.066733 0.394944 0.269080
O O6 0.301225 0.329312 0.688338
O O7 0.399404 0.347285 0.554891
O O8 0.000000 0.615426 0.003853
O O9 0.926042 0.500000 0.000000
#
# Coordination Sequence:
#
# PCOD8264549 Si02
#       5
#     8  16  16   8  16
#     4  10  24  38  65  98 131 178 216 274 332 404
#     4  11  23  45  65  98 136 172 224 276 332 397
#     4  11  24  43  66 102 135 176 221 277 333 401
#     4  10  24  38  64 102 130 180 216 270 338 402
#     4  11  25  45  71  96 130 179 222 278 339 394
#
# _framework density 21.204029999999999
#
# number of rings (size 3 to 8) (size 9 to 14) (size 15 to 20)
#    0.000    1.250    2.500    3.000    5.250    7.000 
#    0.000    3.125    0.000    0.000    0.000    0.000 
#    0.000    0.000    0.000    0.000    0.000    0.000 
#
# Total GULP energy -396450.499674 kJ/mol
# GULP energy per Si atom -12389.078115 kJ/mol
# Density = 2.115577 g / cm^3
# Si number density = 21.204030 Si / 1000 Ang^3
#
#
#
# Elastic Constant Matrix: (Units=GPa)
#
#
# Indices 1 2 3 4 5 6 
#
# 1 130.7089 57.6248 48.3627 0.0000 0.0000 0.0000
# 2 57.6248 135.5502 28.6472 0.0000 0.0000 0.0000
# 3 48.3627 28.6472 103.0606 0.0000 0.0000 0.0000
# 4 0.0000 0.0000 0.0000 -9.9686 0.0000 0.0000
# 5 0.0000 0.0000 0.0000 0.0000 39.3984 0.0000
# 6 0.0000 0.0000 0.0000 0.0000 0.0000 18.7945
#
#
#
# Elastic Compliance Matrix: (Units=1/GPa)
#
#
# Indices 1 2 3 4 5 6 
#
# 1 0.010786 -0.003735 -0.004023 0.000000 0.000000 0.000000
# 2 -0.003735 0.009131 -0.000785 0.000000 0.000000 0.000000
# 3 -0.004023 -0.000785 0.011809 0.000000 0.000000 0.000000
# 4 0.000000 0.000000 0.000000 -0.100314 0.000000 0.000000
# 5 0.000000 0.000000 0.000000 0.000000 0.025382 0.000000
# 6 0.000000 0.000000 0.000000 0.000000 0.000000 0.053207
#
#
# Mechanical properties :
#
#
# Convention : Reuss Voigt Hill
#
# Bulk Modulus (GPa) = 68.31067 70.95434 69.63251
# Shear Modulus (GPa) = 156.40931 25.29051 90.84991
#
# Velocity S-wave (km/s) = 8.59791 3.45733 6.55276
# Velocity P-wave (km/s) = 11.43902 7.03369 9.49537
#
# Compressibility (1/GPa) = 0.01463900
#
# Stress axis : x y z
#
# Youngs Moduli (GPa) = 92.71449 109.51538 84.67900
#
# Poissons Ratio (x) = 0.40904 0.34068
# Poissons Ratio (y) = 0.34629 0.06651
# Poissons Ratio (z) = 0.37301 0.08602
#
# Static dielectric constant tensor:
#      x y z
#    x 4.706760 0.000000 0.000000 
#    y 0.000000 4.208680 0.000000 
#    z 0.000000 0.000000 3.827980 
# 
# 
# High freq. dielectric constant tensor:
#      x y z
#    x 1.816470 0.000000 0.000000 
#    y 0.000000 1.856490 0.000000 
#    z 0.000000 0.000000 1.833350 
# 
# From -- ./inp_files/9971.got.cif
#   From: 2010.03.12/outbox.cif.g09.slc.cpg/sg64_5_cif.got.tgz:9971.got - 2010.04.10 20:19:32.
