data_PCOD8264432
_publ_section_title
;
Structure prediction by ZEFSAII (Michael W. Deem and Ramdas Pophale) SiO2 
 PCOD8264432
Probable space group: C M C A
;
_chemical_formula_sum "Si O2"
_cell_formula_units_Z 104
_cell_length_a 22.475456
_cell_length_b 23.146529
_cell_length_c 9.677638
_cell_angle_alpha 90.000000
_cell_angle_beta 90.000000
_cell_angle_gamma 90.000000
_cell_volume 5034.585946
_symmetry_space_group_name_H-M "C M C A"
_symmetry_group_IT_number 64
_symmetry_cell_setting 'orthorhombic'
loop_
_space_group_symop_operation_xyz
x,y,z
-x,1/2-y,1/2+z
x,-y,-z
-x,1/2+y,1/2-z
-x,-y,-z
x,1/2+y,1/2-z
-x,y,z
x,1/2-y,1/2+z
1/2+x,1/2+y,z
1/2-x,-y,1/2+z
1/2+x,1/2-y,-z
1/2-x,y,1/2-z
1/2-x,1/2-y,-z
1/2+x,y,1/2-z
1/2-x,1/2+y,z
1/2+x,-y,1/2+z
loop_
_atom_site_type_symbol
_atom_site_label
_atom_site_fract_x
_atom_site_fract_y
_atom_site_fract_z
Si Si1 0.067664 0.967238 0.640085
Si Si2 0.121649 0.645994 0.058901
Si Si3 0.293363 0.255647 0.629575
Si Si4 0.500000 0.307714 0.196281
Si Si5 0.629954 0.652028 0.754262
Si Si6 0.000000 0.385034 0.543043
Si Si7 0.602130 0.544111 0.897141
Si Si8 0.500000 0.323171 0.667750
O O1 0.116368 0.915333 0.639200
O O2 0.000000 0.942421 0.633251
O O3 0.081897 0.000000 0.500000
O O4 0.072131 0.009228 0.771062
O O5 0.165579 0.688320 0.137215
O O6 0.055817 0.672810 0.065317
O O7 0.148940 0.643975 0.904341
O O8 0.250000 0.267518 0.750000
O O9 0.250000 0.250000 0.500000
O O10 0.334586 0.200106 0.659703
O O11 0.559199 0.337604 0.255859
O O12 0.500000 0.240648 0.232949
O O13 0.500000 0.322690 0.032525
O O14 0.645384 0.592241 0.833101
O O15 0.055796 0.423972 0.498986
O O16 0.000000 0.370417 0.706456
O O17 0.636886 0.500000 0.000000
#
# Coordination Sequence:
#
# PCOD8264432 Si02
#       8
#    16  16  16   8  16   8  16   8
#     4  11  22  37  64 100 140 184 223 263 339 426
#     4  12  24  41  68  99 141 179 225 282 342 418
#     4  12  27  48  75  97 130 184 239 288 345 408
#     4  10  23  35  61  97 144 173 217 275 360 417
#     4  11  24  43  67 101 140 180 222 283 352 409
#     4  10  23  36  53  94 148 197 218 267 329 418
#     4  11  22  39  62  93 142 184 224 266 333 416
#     4  12  23  35  62 103 143 184 223 274 363 430
#
# _framework density 20.657109999999999
#
# number of rings (size 3 to 8) (size 9 to 14) (size 15 to 20)
#    0.000    0.769    6.154    1.615    2.154    3.692 
#    0.000    0.000    0.000    5.538    0.000    0.000 
#    0.000    0.000    0.000    0.000    0.000    0.000 
#
# Total GULP energy -644240.822805 kJ/mol
# GULP energy per Si atom -12389.246592 kJ/mol
# Density = 2.061009 g / cm^3
# Si number density = 20.657110 Si / 1000 Ang^3
#
#
#
# Elastic Constant Matrix: (Units=GPa)
#
#
# Indices 1 2 3 4 5 6 
#
# 1 90.4122 47.4035 31.7026 0.0000 0.0000 0.0000
# 2 47.4035 155.0875 56.4469 0.0000 0.0000 0.0000
# 3 31.7026 56.4469 124.1256 0.0000 0.0000 0.0000
# 4 0.0000 0.0000 0.0000 43.8418 0.0000 0.0000
# 5 0.0000 0.0000 0.0000 0.0000 27.5694 0.0000
# 6 0.0000 0.0000 0.0000 0.0000 0.0000 5.5157
#
#
#
# Elastic Compliance Matrix: (Units=1/GPa)
#
#
# Indices 1 2 3 4 5 6 
#
# 1 0.013530 -0.003449 -0.001887 0.000000 0.000000 0.000000
# 2 -0.003449 0.008606 -0.003033 0.000000 0.000000 0.000000
# 3 -0.001887 -0.003033 0.009918 0.000000 0.000000 0.000000
# 4 0.000000 0.000000 0.000000 0.022809 0.000000 0.000000
# 5 0.000000 0.000000 0.000000 0.000000 0.036272 0.000000
# 6 0.000000 0.000000 0.000000 0.000000 0.000000 0.181299
#
#
# Mechanical properties :
#
#
# Convention : Reuss Voigt Hill
#
# Bulk Modulus (GPa) = 65.29072 71.19236 68.24154
# Shear Modulus (GPa) = 16.99075 30.99020 23.99047
#
# Velocity S-wave (km/s) = 2.87106 3.87747 3.41158
# Velocity P-wave (km/s) = 6.53193 7.38817 6.97321
#
# Compressibility (1/GPa) = 0.01531611
#
# Stress axis : x y z
#
# Youngs Moduli (GPa) = 73.90740 116.19904 100.83086
#
# Poissons Ratio (x) = 0.40073 0.19031
# Poissons Ratio (y) = 0.25488 0.30580
# Poissons Ratio (z) = 0.13950 0.35241
#
# Static dielectric constant tensor:
#      x y z
#    x 3.457300 0.000000 0.000000 
#    y 0.000000 4.043890 0.000000 
#    z 0.000000 0.000000 3.937720 
# 
# 
# High freq. dielectric constant tensor:
#      x y z
#    x 1.760700 0.000000 0.000000 
#    y 0.000000 1.830060 0.000000 
#    z 0.000000 0.000000 1.826020 
# 
# From -- ./inp_files/10623.got.cif
#   From: 2010.03.12/outbox.cif.g09.slc.cpg/sg64_6_cif.got.tgz:10623.got - 2010.04.10 20:19:32.
