data_PCOD8264552
_publ_section_title
;
Structure prediction by ZEFSAII (Michael W. Deem and Ramdas Pophale) SiO2 
 PCOD8264552
Probable space group: C M C A
;
_chemical_formula_sum "Si O2"
_cell_formula_units_Z 72
_cell_length_a 16.661648
_cell_length_b 8.808995
_cell_length_c 22.073219
_cell_angle_alpha 90.000000
_cell_angle_beta 90.000000
_cell_angle_gamma 90.000000
_cell_volume 3239.738753
_symmetry_space_group_name_H-M "C M C A"
_symmetry_group_IT_number 64
_symmetry_cell_setting 'orthorhombic'
loop_
_space_group_symop_operation_xyz
x,y,z
-x,1/2-y,1/2+z
x,-y,-z
-x,1/2+y,1/2-z
-x,-y,-z
x,1/2+y,1/2-z
-x,y,z
x,1/2-y,1/2+z
1/2+x,1/2+y,z
1/2-x,-y,1/2+z
1/2+x,1/2-y,-z
1/2-x,y,1/2-z
1/2-x,1/2-y,-z
1/2+x,y,1/2-z
1/2-x,1/2+y,z
1/2+x,-y,1/2+z
loop_
_atom_site_type_symbol
_atom_site_label
_atom_site_fract_x
_atom_site_fract_y
_atom_site_fract_z
Si Si1 0.781144 0.500000 0.500000
Si Si2 0.346767 0.211737 0.944643
Si Si3 0.846436 0.468765 0.304276
Si Si4 0.500000 0.024651 0.607359
Si Si5 0.820582 0.311514 0.186898
Si Si6 0.000000 0.234368 0.004967
O O1 0.730938 0.385356 0.459391
O O2 0.834050 0.394794 0.544736
O O3 0.370065 0.179747 0.875500
O O4 0.420387 0.162787 0.987989
O O5 0.921276 0.461656 0.350252
O O6 0.869916 0.405238 0.237457
O O7 0.815267 0.637546 0.293360
O O8 0.770410 0.367995 0.325496
O O9 0.500000 0.165547 0.561557
O O10 0.500000 0.876901 0.564377
#
# Coordination Sequence:
#
# PCOD8264552 Si02
#       6
#     8  16  16   8  16   8
#     4  10  24  38  68 102 128 176 218 270 334 392
#     4  11  23  42  67  97 133 171 222 273 330 396
#     4  11  24  43  68  98 132 174 221 271 337 396
#     4  11  24  43  67  97 133 172 218 274 340 396
#     4  11  23  42  68  99 130 173 221 275 321 403
#     4  11  24  42  65  97 133 176 214 280 336 391
#
# _framework density 22.224012999999999
#
# number of rings (size 3 to 8) (size 9 to 14) (size 15 to 20)
#    0.000    1.111    2.222    5.333    6.222    2.222 
#    0.000    0.000    0.000    1.333    0.000    0.000 
#    0.000    0.000    0.000    0.000    0.000    0.000 
#
# Total GULP energy -446113.319055 kJ/mol
# GULP energy per Si atom -12392.036640 kJ/mol
# Density = 2.217343 g / cm^3
# Si number density = 22.224013 Si / 1000 Ang^3
#
#
#
# Elastic Constant Matrix: (Units=GPa)
#
#
# Indices 1 2 3 4 5 6 
#
# 1 111.3389 25.7527 32.3251 0.0000 0.0000 0.0000
# 2 25.7527 104.5829 31.1151 0.0000 0.0000 0.0000
# 3 32.3251 31.1151 128.2082 0.0000 0.0000 0.0000
# 4 0.0000 0.0000 0.0000 24.6780 0.0000 0.0000
# 5 0.0000 0.0000 0.0000 0.0000 42.4589 0.0000
# 6 0.0000 0.0000 0.0000 0.0000 0.0000 -10.2100
#
#
#
# Elastic Compliance Matrix: (Units=1/GPa)
#
#
# Indices 1 2 3 4 5 6 
#
# 1 0.010012 -0.001848 -0.002076 0.000000 0.000000 0.000000
# 2 -0.001848 0.010647 -0.002118 0.000000 0.000000 0.000000
# 3 -0.002076 -0.002118 0.008837 0.000000 0.000000 0.000000
# 4 0.000000 0.000000 0.000000 0.040522 0.000000 0.000000
# 5 0.000000 0.000000 0.000000 0.000000 0.023552 0.000000
# 6 0.000000 0.000000 0.000000 0.000000 0.000000 -0.097943
#
#
# Mechanical properties :
#
#
# Convention : Reuss Voigt Hill
#
# Bulk Modulus (GPa) = 57.42956 58.05734 57.74345
# Shear Modulus (GPa) = 369.98319 28.38120 199.18219
#
# Velocity S-wave (km/s) = 12.91667 3.57746 9.47731
# Velocity P-wave (km/s) = 15.75916 6.57607 12.07468
#
# Compressibility (1/GPa) = 0.01741264
#
# Stress axis : x y z
#
# Youngs Moduli (GPa) = 99.88385 93.92378 113.15770
#
# Poissons Ratio (x) = 0.17354 0.23489
# Poissons Ratio (y) = 0.18456 0.23968
# Poissons Ratio (z) = 0.20734 0.19894
#
# Static dielectric constant tensor:
#      x y z
#    x 4.026260 0.000000 0.000000 
#    y 0.000000 3.987230 0.000000 
#    z 0.000000 0.000000 4.166350 
# 
# 
# High freq. dielectric constant tensor:
#      x y z
#    x 1.871550 0.000000 0.000000 
#    y 0.000000 1.868510 0.000000 
#    z 0.000000 0.000000 1.889600 
# 
# From -- ./inp_files/45663.got.cif
#   From: 2010.03.12/outbox.cif.g09.slc.cpg/sg64_23_cif.got.tgz:45663.got - 2010.04.10 20:19:32.
