data_PCOD8264281
_publ_section_title
;
Structure prediction by ZEFSAII (Michael W. Deem and Ramdas Pophale) SiO2 
 PCOD8264281
Probable space group: C M C A
;
_chemical_formula_sum "Si O2"
_cell_formula_units_Z 56
_cell_length_a 33.168237
_cell_length_b 14.841426
_cell_length_c 5.024577
_cell_angle_alpha 90.000000
_cell_angle_beta 90.000000
_cell_angle_gamma 90.000000
_cell_volume 2473.418046
_symmetry_space_group_name_H-M "C M C A"
_symmetry_group_IT_number 64
_symmetry_cell_setting 'orthorhombic'
loop_
_space_group_symop_operation_xyz
x,y,z
-x,1/2-y,1/2+z
x,-y,-z
-x,1/2+y,1/2-z
-x,-y,-z
x,1/2+y,1/2-z
-x,y,z
x,1/2-y,1/2+z
1/2+x,1/2+y,z
1/2-x,-y,1/2+z
1/2+x,1/2-y,-z
1/2-x,y,1/2-z
1/2-x,1/2-y,-z
1/2+x,y,1/2-z
1/2-x,1/2+y,z
1/2+x,-y,1/2+z
loop_
_atom_site_type_symbol
_atom_site_label
_atom_site_fract_x
_atom_site_fract_y
_atom_site_fract_z
Si Si1 0.426781 0.942178 0.257221
Si Si2 0.362320 0.807693 0.465939
Si Si3 0.222968 0.895902 0.002142
Si Si4 0.000000 0.813344 0.334576
O O1 0.387948 0.894484 0.385047
O O2 0.460243 0.873214 0.158588
O O3 0.445585 0.000000 0.500000
O O4 0.413199 0.000000 0.000000
O O5 0.372911 0.772722 0.760632
O O6 0.315712 0.833342 0.471220
O O7 0.250000 0.870592 0.750000
O O8 0.250000 0.872346 0.250000
O O9 0.209310 0.000000 0.000000
O O10 0.000000 0.753607 0.592827
#
# Coordination Sequence:
#
# PCOD8264281 Si02
#       4
#    16  16  16   8
#     4  12  25  44  68  96 131 175 222 265 322 394
#     4  12  25  41  63  94 129 165 211 268 327 379
#     4  10  22  40  62  88 122 166 214 263 320 388
#     4  12  24  44  70 100 136 170 216 274 332 384
#
# _framework density 22.640733000000001
#
# number of rings (size 3 to 8) (size 9 to 14) (size 15 to 20)
#    0.000    0.571    0.000    8.571    0.000    6.857 
#    0.000    0.000    0.000    0.000    0.000    0.000 
#    0.000    0.000    0.000    0.000    0.000    0.000 
#
# Total GULP energy -347349.265394 kJ/mol
# GULP energy per Si atom -12405.330907 kJ/mol
# Density = 2.258920 g / cm^3
# Si number density = 22.640733 Si / 1000 Ang^3
#
#
#
# Elastic Constant Matrix: (Units=GPa)
#
#
# Indices 1 2 3 4 5 6 
#
# 1 106.3275 42.2665 33.6297 0.0000 0.0000 0.0000
# 2 42.2665 95.2081 43.6336 0.0000 0.0000 0.0000
# 3 33.6297 43.6336 155.4179 0.0000 0.0000 0.0000
# 4 0.0000 0.0000 0.0000 55.4825 0.0000 0.0000
# 5 0.0000 0.0000 0.0000 0.0000 38.7527 0.0000
# 6 0.0000 0.0000 0.0000 0.0000 0.0000 6.5482
#
#
#
# Elastic Compliance Matrix: (Units=1/GPa)
#
#
# Indices 1 2 3 4 5 6 
#
# 1 0.011619 -0.004598 -0.001223 0.000000 0.000000 0.000000
# 2 -0.004598 0.013873 -0.002900 0.000000 0.000000 0.000000
# 3 -0.001223 -0.002900 0.007513 0.000000 0.000000 0.000000
# 4 0.000000 0.000000 0.000000 0.018024 0.000000 0.000000
# 5 0.000000 0.000000 0.000000 0.000000 0.025805 0.000000
# 6 0.000000 0.000000 0.000000 0.000000 0.000000 0.152713
#
#
# Mechanical properties :
#
#
# Convention : Reuss Voigt Hill
#
# Bulk Modulus (GPa) = 64.25196 66.22369 65.23783
# Shear Modulus (GPa) = 19.82725 35.98493 27.90609
#
# Velocity S-wave (km/s) = 2.96249 3.99104 3.51459
# Velocity P-wave (km/s) = 6.33580 7.10993 6.73400
#
# Compressibility (1/GPa) = 0.01556373
#
# Stress axis : x y z
#
# Youngs Moduli (GPa) = 86.06238 72.07993 133.09876
#
# Poissons Ratio (x) = 0.33140 0.16284
# Poissons Ratio (y) = 0.39568 0.38601
# Poissons Ratio (z) = 0.10529 0.20904
#
# Static dielectric constant tensor:
#      x y z
#    x 3.999910 0.000000 0.000000 
#    y 0.000000 4.087900 0.000000 
#    z 0.000000 0.000000 4.321540 
# 
# 
# High freq. dielectric constant tensor:
#      x y z
#    x 1.897130 0.000000 0.000000 
#    y 0.000000 1.906310 0.000000 
#    z 0.000000 0.000000 1.915810 
# 
# From -- ./inp_files/3094.got.cif
#   From: 2010.03.12/outbox.cif.g09.slc.cpg/sg64_2_cif.got.tgz:3094.got - 2010.04.10 20:19:32.
