data_PCOD8264266
_publ_section_title
;
Structure prediction by ZEFSAII (Michael W. Deem and Ramdas Pophale) SiO2 
 PCOD8264266
Probable space group: C M C A
;
_chemical_formula_sum "Si O2"
_cell_formula_units_Z 64
_cell_length_a 9.115955
_cell_length_b 9.975969
_cell_length_c 35.098276
_cell_angle_alpha 90.000000
_cell_angle_beta 90.000000
_cell_angle_gamma 90.000000
_cell_volume 3191.854224
_symmetry_space_group_name_H-M "C M C A"
_symmetry_group_IT_number 64
_symmetry_cell_setting 'orthorhombic'
loop_
_space_group_symop_operation_xyz
x,y,z
-x,1/2-y,1/2+z
x,-y,-z
-x,1/2+y,1/2-z
-x,-y,-z
x,1/2+y,1/2-z
-x,y,z
x,1/2-y,1/2+z
1/2+x,1/2+y,z
1/2-x,-y,1/2+z
1/2+x,1/2-y,-z
1/2-x,y,1/2-z
1/2-x,1/2-y,-z
1/2+x,y,1/2-z
1/2-x,1/2+y,z
1/2+x,-y,1/2+z
loop_
_atom_site_type_symbol
_atom_site_label
_atom_site_fract_x
_atom_site_fract_y
_atom_site_fract_z
Si Si1 0.830715 0.516460 0.081424
Si Si2 0.330297 0.714702 0.788661
Si Si3 0.669106 0.984225 0.831407
Si Si4 0.330085 0.285781 0.038666
O O1 0.780622 0.501106 0.125005
O O2 0.732503 0.423328 0.055033
O O3 0.804543 0.669705 0.069546
O O4 0.000000 0.475604 0.075925
O O5 0.500000 0.691895 0.779365
O O6 0.250000 0.756039 0.750000
O O7 0.267539 0.577283 0.805087
O O8 0.305379 0.831012 0.819412
O O9 0.500000 0.025678 0.826135
O O10 0.500000 0.306944 0.029497
O O11 0.250000 0.250000 0.000000
#
# Coordination Sequence:
#
# PCOD8264266 Si02
#       4
#    16  16  16  16
#     4  10  22  40  60  85 118 152 190 239 289 339
#     4  11  23  39  60  87 118 153 194 238 286 342
#     4  10  22  40  61  86 116 151 192 238 288 341
#     4  11  23  39  60  87 118 153 194 238 286 342
#
# _framework density 20.051041000000001
#
# number of rings (size 3 to 8) (size 9 to 14) (size 15 to 20)
#    0.000    1.500    0.000    4.500    0.000   12.000 
#    0.000    0.000    0.000    0.000    0.000    0.000 
#    0.000    0.000    0.000    0.000    0.000    0.000 
#
# Total GULP energy -397034.652244 kJ/mol
# GULP energy per Si atom -12407.332883 kJ/mol
# Density = 2.000540 g / cm^3
# Si number density = 20.051041 Si / 1000 Ang^3
#
#
#
# Elastic Constant Matrix: (Units=GPa)
#
#
# Indices 1 2 3 4 5 6 
#
# 1 100.6998 35.9900 38.8451 0.0000 0.0000 0.0000
# 2 35.9900 65.8931 3.3124 0.0000 0.0000 0.0000
# 3 38.8451 3.3124 97.2060 0.0000 0.0000 0.0000
# 4 0.0000 0.0000 0.0000 40.0935 0.0000 0.0000
# 5 0.0000 0.0000 0.0000 0.0000 35.4071 0.0000
# 6 0.0000 0.0000 0.0000 0.0000 0.0000 35.3125
#
#
#
# Elastic Compliance Matrix: (Units=1/GPa)
#
#
# Indices 1 2 3 4 5 6 
#
# 1 0.014946 -0.007877 -0.005704 0.000000 0.000000 0.000000
# 2 -0.007877 0.019353 0.002488 0.000000 0.000000 0.000000
# 3 -0.005704 0.002488 0.012482 0.000000 0.000000 0.000000
# 4 0.000000 0.000000 0.000000 0.024942 0.000000 0.000000
# 5 0.000000 0.000000 0.000000 0.000000 0.028243 0.000000
# 6 0.000000 0.000000 0.000000 0.000000 0.000000 0.028319
#
#
# Mechanical properties :
#
#
# Convention : Reuss Voigt Hill
#
# Bulk Modulus (GPa) = 40.65727 46.67710 43.66719
# Shear Modulus (GPa) = 31.51223 34.53938 33.02581
#
# Velocity S-wave (km/s) = 3.96864 4.15489 4.06283
# Velocity P-wave (km/s) = 6.42815 6.80788 6.62073
#
# Compressibility (1/GPa) = 0.02459585
#
# Stress axis : x y z
#
# Youngs Moduli (GPa) = 66.90744 51.67129 80.11435
#
# Poissons Ratio (x) = 0.40699 0.45699
# Poissons Ratio (y) = 0.52700 -0.19933
# Poissons Ratio (z) = 0.38166 -0.12856
#
# Static dielectric constant tensor:
#      x y z
#    x 3.803950 0.000000 0.000000 
#    y 0.000000 3.624860 0.000000 
#    z 0.000000 0.000000 3.992520 
# 
# 
# High freq. dielectric constant tensor:
#      x y z
#    x 1.786940 0.000000 0.000000 
#    y 0.000000 1.790850 0.000000 
#    z 0.000000 0.000000 1.798100 
# 
# From -- ./inp_files/51529.got.cif
#   From: 2010.03.12/outbox.cif.g09.slc.cpg/sg64_26_cif.got.tgz:51529.got - 2010.04.10 20:19:32.
