data_PCOD8264780
_publ_section_title
;
Structure prediction by ZEFSAII (Michael W. Deem and Ramdas Pophale) SiO2 
 PCOD8264780
Probable space group: C M C A
;
_chemical_formula_sum "Si O2"
_cell_formula_units_Z 64
_cell_length_a 16.145483
_cell_length_b 20.391593
_cell_length_c 9.026452
_cell_angle_alpha 90.000000
_cell_angle_beta 90.000000
_cell_angle_gamma 90.000000
_cell_volume 2971.797911
_symmetry_space_group_name_H-M "C M C A"
_symmetry_group_IT_number 64
_symmetry_cell_setting 'orthorhombic'
loop_
_space_group_symop_operation_xyz
x,y,z
-x,1/2-y,1/2+z
x,-y,-z
-x,1/2+y,1/2-z
-x,-y,-z
x,1/2+y,1/2-z
-x,y,z
x,1/2-y,1/2+z
1/2+x,1/2+y,z
1/2-x,-y,1/2+z
1/2+x,1/2-y,-z
1/2-x,y,1/2-z
1/2-x,1/2-y,-z
1/2+x,y,1/2-z
1/2-x,1/2+y,z
1/2+x,-y,1/2+z
loop_
_atom_site_type_symbol
_atom_site_label
_atom_site_fract_x
_atom_site_fract_y
_atom_site_fract_z
Si Si1 0.405098 0.690196 0.373011
Si Si2 0.901996 0.573872 0.330895
Si Si3 0.098074 0.427162 0.336023
Si Si4 0.660598 0.697923 0.689686
O O1 0.500000 0.677461 0.423370
O O2 0.367305 0.627320 0.284954
O O3 0.404878 0.753376 0.266350
O O4 0.346747 0.704583 0.513103
O O5 0.870183 0.588103 0.497419
O O6 0.875360 0.500331 0.284872
O O7 0.000000 0.579630 0.333733
O O8 0.142191 0.377488 0.226067
O O9 0.000000 0.419270 0.325398
O O10 0.750000 0.718930 0.750000
#
# Coordination Sequence:
#
# PCOD8264780 Si02
#       4
#    16  16  16  16
#     4  11  22  39  62  86 111 153 203 245 288 348
#     4   8  17  34  61  89 112 143 193 245 288 335
#     4   9  17  36  61  85 114 151 191 238 289 346
#     4  12  25  39  55  84 121 153 189 242 301 353
#
# _framework density 21.535785000000001
#
# number of rings (size 3 to 8) (size 9 to 14) (size 15 to 20)
#    0.000    2.000    0.000    6.000    0.000    3.000 
#    0.000   10.000    0.000    0.000    0.000    0.000 
#    0.000    0.000    0.000    0.000    0.000    0.000 
#
# Total GULP energy -396823.981838 kJ/mol
# GULP energy per Si atom -12400.749432 kJ/mol
# Density = 2.148677 g / cm^3
# Si number density = 21.535785 Si / 1000 Ang^3
#
#
#
# Elastic Constant Matrix: (Units=GPa)
#
#
# Indices 1 2 3 4 5 6 
#
# 1 44.1750 9.7272 19.2151 0.0000 0.0000 0.0000
# 2 9.7272 134.2936 65.6253 0.0000 0.0000 0.0000
# 3 19.2151 65.6253 135.8113 0.0000 0.0000 0.0000
# 4 0.0000 0.0000 0.0000 45.3283 0.0000 0.0000
# 5 0.0000 0.0000 0.0000 0.0000 24.3734 0.0000
# 6 0.0000 0.0000 0.0000 0.0000 0.0000 9.1829
#
#
#
# Elastic Compliance Matrix: (Units=1/GPa)
#
#
# Indices 1 2 3 4 5 6 
#
# 1 0.024123 -0.000104 -0.003363 0.000000 0.000000 0.000000
# 2 -0.000104 0.009749 -0.004696 0.000000 0.000000 0.000000
# 3 -0.003363 -0.004696 0.010108 0.000000 0.000000 0.000000
# 4 0.000000 0.000000 0.000000 0.022061 0.000000 0.000000
# 5 0.000000 0.000000 0.000000 0.000000 0.041028 0.000000
# 6 0.000000 0.000000 0.000000 0.000000 0.000000 0.108898
#
#
# Mechanical properties :
#
#
# Convention : Reuss Voigt Hill
#
# Bulk Modulus (GPa) = 36.16086 55.93502 46.04794
# Shear Modulus (GPa) = 20.70305 30.42443 25.56374
#
# Velocity S-wave (km/s) = 3.10390 3.76272 3.44908
# Velocity P-wave (km/s) = 5.44730 6.70126 6.10655
#
# Compressibility (1/GPa) = 0.02765421
#
# Stress axis : x y z
#
# Youngs Moduli (GPa) = 41.45449 102.57815 98.93110
#
# Poissons Ratio (x) = 0.01067 0.33268
# Poissons Ratio (y) = 0.00431 0.46457
# Poissons Ratio (z) = 0.13940 0.48170
#
# Static dielectric constant tensor:
#      x y z
#    x 3.414490 0.000000 0.000000 
#    y 0.000000 4.167190 0.000000 
#    z 0.000000 0.000000 3.905270 
# 
# 
# High freq. dielectric constant tensor:
#      x y z
#    x 1.809690 0.000000 0.000000 
#    y 0.000000 1.860410 0.000000 
#    z 0.000000 0.000000 1.842600 
# 
# From -- ./inp_files/5581.got.cif
#   From: 2010.03.12/outbox.cif.g09.slc.cpg/sg64_3_cif.got.tgz:5581.got - 2010.04.10 20:19:32.
