data_PCOD8264604
_publ_section_title
;
Structure prediction by ZEFSAII (Michael W. Deem and Ramdas Pophale) SiO2 
 PCOD8264604
Probable space group: C M C A
;
_chemical_formula_sum "Si O2"
_cell_formula_units_Z 72
_cell_length_a 9.424366
_cell_length_b 14.352220
_cell_length_c 25.285058
_cell_angle_alpha 90.000000
_cell_angle_beta 90.000000
_cell_angle_gamma 90.000000
_cell_volume 3420.071464
_symmetry_space_group_name_H-M "C M C A"
_symmetry_group_IT_number 64
_symmetry_cell_setting 'orthorhombic'
loop_
_space_group_symop_operation_xyz
x,y,z
-x,1/2-y,1/2+z
x,-y,-z
-x,1/2+y,1/2-z
-x,-y,-z
x,1/2+y,1/2-z
-x,y,z
x,1/2-y,1/2+z
1/2+x,1/2+y,z
1/2-x,-y,1/2+z
1/2+x,1/2-y,-z
1/2-x,y,1/2-z
1/2-x,1/2-y,-z
1/2+x,y,1/2-z
1/2-x,1/2+y,z
1/2+x,-y,1/2+z
loop_
_atom_site_type_symbol
_atom_site_label
_atom_site_fract_x
_atom_site_fract_y
_atom_site_fract_z
Si Si1 0.335709 0.237709 0.629578
Si Si2 0.660603 0.553767 0.613497
Si Si3 0.241854 0.000000 0.000000
Si Si4 0.341468 0.689436 0.039123
Si Si5 0.340156 0.902710 0.800811
O O1 0.500000 0.229912 0.610501
O O2 0.267497 0.135831 0.630524
O O3 0.245099 0.306967 0.593054
O O4 0.327127 0.292174 0.685504
O O5 0.500000 0.585089 0.626109
O O6 0.665512 0.530397 0.550913
O O7 0.705544 0.465114 0.648713
O O8 0.142575 0.084973 0.017588
O O9 0.500000 0.730946 0.045933
O O10 0.250000 0.750000 0.000000
O O11 0.500000 0.926929 0.785207
O O12 0.250000 0.929173 0.750000
#
# Coordination Sequence:
#
# PCOD8264604 Si02
#       5
#    16  16   8  16  16
#     4  11  24  43  65  94 130 168 218 270 324 389
#     4  11  24  42  67  99 134 174 219 267 329 395
#     4  12  24  40  66  98 140 172 220 260 334 386
#     4  12  25  40  62  95 133 172 215 260 318 384
#     4  10  24  46  68  95 128 169 219 274 333 393
#
# _framework density 21.052191000000001
#
# number of rings (size 3 to 8) (size 9 to 14) (size 15 to 20)
#    0.000    0.889    4.444    2.000    0.000    6.222 
#    0.000    4.444    0.000    0.000    0.000    0.000 
#    0.000    0.000    0.000    0.000    0.000    0.000 
#
# Total GULP energy -446210.185260 kJ/mol
# GULP energy per Si atom -12394.727368 kJ/mol
# Density = 2.100428 g / cm^3
# Si number density = 21.052191 Si / 1000 Ang^3
#
#
#
# Elastic Constant Matrix: (Units=GPa)
#
#
# Indices 1 2 3 4 5 6 
#
# 1 155.9975 58.1404 55.1390 0.0000 0.0000 0.0000
# 2 58.1404 127.3876 39.7059 0.0000 0.0000 0.0000
# 3 55.1390 39.7059 110.2607 0.0000 0.0000 0.0000
# 4 0.0000 0.0000 0.0000 26.6647 0.0000 0.0000
# 5 0.0000 0.0000 0.0000 0.0000 28.3627 0.0000
# 6 0.0000 0.0000 0.0000 0.0000 0.0000 28.7517
#
#
#
# Elastic Compliance Matrix: (Units=1/GPa)
#
#
# Indices 1 2 3 4 5 6 
#
# 1 0.008661 -0.002932 -0.003275 0.000000 0.000000 0.000000
# 2 -0.002932 0.009835 -0.002076 0.000000 0.000000 0.000000
# 3 -0.003275 -0.002076 0.011455 0.000000 0.000000 0.000000
# 4 0.000000 0.000000 0.000000 0.037503 0.000000 0.000000
# 5 0.000000 0.000000 0.000000 0.000000 0.035258 0.000000
# 6 0.000000 0.000000 0.000000 0.000000 0.000000 0.034781
#
#
# Mechanical properties :
#
#
# Convention : Reuss Voigt Hill
#
# Bulk Modulus (GPa) = 74.70943 77.73515 76.22229
# Shear Modulus (GPa) = 31.54203 32.79985 32.17094
#
# Velocity S-wave (km/s) = 3.87496 3.95147 3.91340
# Velocity P-wave (km/s) = 7.45555 7.60420 7.53024
#
# Compressibility (1/GPa) = 0.01338519
#
# Stress axis : x y z
#
# Youngs Moduli (GPa) = 115.46320 101.67620 87.30036
#
# Poissons Ratio (x) = 0.29811 0.28593
# Poissons Ratio (y) = 0.33853 0.18119
# Poissons Ratio (z) = 0.37817 0.21103
#
# Static dielectric constant tensor:
#      x y z
#    x 3.642830 0.000000 0.000000 
#    y 0.000000 3.705270 0.000000 
#    z 0.000000 0.000000 4.524840 
# 
# 
# High freq. dielectric constant tensor:
#      x y z
#    x 1.827990 0.000000 0.000000 
#    y 0.000000 1.836440 0.000000 
#    z 0.000000 0.000000 1.812300 
# 
# From -- ./inp_files/47622.got.cif
#   From: 2010.03.12/outbox.cif.g09.slc.cpg/sg64_24_cif.got.tgz:47622.got - 2010.04.10 20:19:32.
