data_PCOD8264475
_publ_section_title
;
Structure prediction by ZEFSAII (Michael W. Deem and Ramdas Pophale) SiO2 
 PCOD8264475
Probable space group: C M C A
;
_chemical_formula_sum "Si O2"
_cell_formula_units_Z 80
_cell_length_a 27.632670
_cell_length_b 9.258956
_cell_length_c 13.629596
_cell_angle_alpha 90.000000
_cell_angle_beta 90.000000
_cell_angle_gamma 90.000000
_cell_volume 3487.127716
_symmetry_space_group_name_H-M "C M C A"
_symmetry_group_IT_number 64
_symmetry_cell_setting 'orthorhombic'
loop_
_space_group_symop_operation_xyz
x,y,z
-x,1/2-y,1/2+z
x,-y,-z
-x,1/2+y,1/2-z
-x,-y,-z
x,1/2+y,1/2-z
-x,y,z
x,1/2-y,1/2+z
1/2+x,1/2+y,z
1/2-x,-y,1/2+z
1/2+x,1/2-y,-z
1/2-x,y,1/2-z
1/2-x,1/2-y,-z
1/2+x,y,1/2-z
1/2-x,1/2+y,z
1/2+x,-y,1/2+z
loop_
_atom_site_type_symbol
_atom_site_label
_atom_site_fract_x
_atom_site_fract_y
_atom_site_fract_z
Si Si1 0.798058 0.313439 0.892939
Si Si2 0.604029 0.230631 0.849564
Si Si3 0.207952 0.861929 0.376517
Si Si4 0.112058 0.645695 0.551375
Si Si5 0.556593 0.011201 0.719766
O O1 0.796620 0.471240 0.842373
O O2 0.757513 0.213469 0.840182
O O3 0.848266 0.225982 0.881129
O O4 0.790403 0.342470 0.007207
O O5 0.661831 0.221812 0.831754
O O6 0.576244 0.086239 0.818001
O O7 0.584046 0.360017 0.784101
O O8 0.592558 0.250362 0.965221
O O9 0.134009 0.500000 0.500000
O O10 0.067767 0.605145 0.622439
O O11 0.500000 0.983542 0.727484
#
# Coordination Sequence:
#
# PCOD8264475 Si02
#       5
#    16  16  16  16  16
#     4   9  18  32  60  93 125 165 210 246 309 377
#     4  10  23  42  63  93 127 164 212 270 325 380
#     4   9  19  33  59  91 126 167 203 251 307 378
#     4   9  21  39  66  94 129 170 217 264 320 388
#     4  11  24  42  67  91 123 169 216 271 328 383
#
# _framework density 22.941516
#
# number of rings (size 3 to 8) (size 9 to 14) (size 15 to 20)
#    0.000    2.400    0.000    0.600   14.000    4.400 
#    0.000    1.000    0.000    2.400    0.000    0.000 
#    0.000    0.000    0.000    0.000    0.000    0.000 
#
# Total GULP energy -495972.991499 kJ/mol
# GULP energy per Si atom -12399.324787 kJ/mol
# Density = 2.288930 g / cm^3
# Si number density = 22.941516 Si / 1000 Ang^3
#
#
#
# Elastic Constant Matrix: (Units=GPa)
#
#
# Indices 1 2 3 4 5 6 
#
# 1 165.1621 86.7960 29.4897 0.0000 0.0000 0.0000
# 2 86.7960 131.8151 24.7908 0.0000 0.0000 0.0000
# 3 29.4897 24.7908 40.0827 0.0000 0.0000 0.0000
# 4 0.0000 0.0000 0.0000 34.2755 0.0000 0.0000
# 5 0.0000 0.0000 0.0000 0.0000 23.4046 0.0000
# 6 0.0000 0.0000 0.0000 0.0000 0.0000 30.6456
#
#
#
# Elastic Compliance Matrix: (Units=1/GPa)
#
#
# Indices 1 2 3 4 5 6 
#
# 1 0.009698 -0.005708 -0.003605 0.000000 0.000000 0.000000
# 2 -0.005708 0.011944 -0.003188 0.000000 0.000000 0.000000
# 3 -0.003605 -0.003188 0.029572 0.000000 0.000000 0.000000
# 4 0.000000 0.000000 0.000000 0.029175 0.000000 0.000000
# 5 0.000000 0.000000 0.000000 0.000000 0.042727 0.000000
# 6 0.000000 0.000000 0.000000 0.000000 0.000000 0.032631
#
#
# Mechanical properties :
#
#
# Convention : Reuss Voigt Hill
#
# Bulk Modulus (GPa) = 38.14859 68.80145 53.47502
# Shear Modulus (GPa) = 26.38707 30.73068 28.55888
#
# Velocity S-wave (km/s) = 3.39512 3.66392 3.53208
# Velocity P-wave (km/s) = 5.65985 6.92489 6.32408
#
# Compressibility (1/GPa) = 0.02621329
#
# Stress axis : x y z
#
# Youngs Moduli (GPa) = 103.11591 83.72142 33.81534
#
# Poissons Ratio (x) = 0.47786 0.12189
# Poissons Ratio (y) = 0.58856 0.10781
# Poissons Ratio (z) = 0.37170 0.26692
#
# Static dielectric constant tensor:
#      x y z
#    x 3.955970 0.000000 0.000000 
#    y 0.000000 4.452290 0.000000 
#    z 0.000000 0.000000 3.913780 
# 
# 
# High freq. dielectric constant tensor:
#      x y z
#    x 1.888360 0.000000 0.000000 
#    y 0.000000 1.913240 0.000000 
#    z 0.000000 0.000000 1.901620 
# 
# From -- ./inp_files/35363.got.cif
#   From: 2010.03.12/outbox.cif.g09.slc.cpg/sg64_18_cif.got.tgz:35363.got - 2010.04.10 20:19:32.
