data_PCOD8264105
_publ_section_title
;
Structure prediction by ZEFSAII (Michael W. Deem and Ramdas Pophale) SiO2 
 PCOD8264105
Probable space group: C M C A
;
_chemical_formula_sum "Si O2"
_cell_formula_units_Z 56
_cell_length_a 15.742610
_cell_length_b 32.629474
_cell_length_c 5.108549
_cell_angle_alpha 90.000000
_cell_angle_beta 90.000000
_cell_angle_gamma 90.000000
_cell_volume 2624.124118
_symmetry_space_group_name_H-M "C M C A"
_symmetry_group_IT_number 64
_symmetry_cell_setting 'orthorhombic'
loop_
_space_group_symop_operation_xyz
x,y,z
-x,1/2-y,1/2+z
x,-y,-z
-x,1/2+y,1/2-z
-x,-y,-z
x,1/2+y,1/2-z
-x,y,z
x,1/2-y,1/2+z
1/2+x,1/2+y,z
1/2-x,-y,1/2+z
1/2+x,1/2-y,-z
1/2-x,y,1/2-z
1/2-x,1/2-y,-z
1/2+x,y,1/2-z
1/2-x,1/2+y,z
1/2+x,-y,1/2+z
loop_
_atom_site_type_symbol
_atom_site_label
_atom_site_fract_x
_atom_site_fract_y
_atom_site_fract_z
Si Si1 0.250000 0.108951 0.750000
Si Si2 0.170546 0.452626 0.923447
Si Si3 0.750000 0.662822 0.250000
Si Si4 0.000000 0.471570 0.748281
Si Si5 0.096270 0.723079 0.225791
O O1 0.171939 0.078010 0.672997
O O2 0.276081 0.136359 0.502611
O O3 0.250000 0.439250 0.750000
O O4 0.084730 0.444034 0.758578
O O5 0.178550 0.500000 0.000000
O O6 0.833416 0.688611 0.174598
O O7 0.000000 0.500000 0.500000
O O8 0.000000 0.500000 0.000000
O O9 0.110458 0.741274 0.513792
O O10 0.000000 0.705188 0.198459
#
# Coordination Sequence:
#
# PCOD8264105 Si02
#       5
#     8  16   8   8  16
#     4  12  26  40  60  94 130 182 208 266 336 402
#     4  11  22  43  69  89 126 171 235 278 330 383
#     4  12  24  42  60  96 142 162 210 260 338 390
#     4  10  24  38  66  98 116 154 222 292 338 382
#     4  10  21  41  71  98 122 166 216 257 310 387
#
# _framework density 21.340453
#
# number of rings (size 3 to 8) (size 9 to 14) (size 15 to 20)
#    0.000    1.143    2.857    3.429    4.000    0.000 
#    5.143    0.000    0.000    0.000    0.000    0.000 
#    0.000    0.000    0.000    0.000    0.000    0.000 
#
# Total GULP energy -347070.893851 kJ/mol
# GULP energy per Si atom -12395.389066 kJ/mol
# Density = 2.129188 g / cm^3
# Si number density = 21.340453 Si / 1000 Ang^3
#
#
#
# Elastic Constant Matrix: (Units=GPa)
#
#
# Indices 1 2 3 4 5 6 
#
# 1 191.4376 62.3251 54.6735 0.0000 0.0000 0.0000
# 2 62.3251 102.8563 37.1298 0.0000 0.0000 0.0000
# 3 54.6735 37.1298 125.3562 0.0000 0.0000 0.0000
# 4 0.0000 0.0000 0.0000 45.6483 0.0000 0.0000
# 5 0.0000 0.0000 0.0000 0.0000 32.2283 0.0000
# 6 0.0000 0.0000 0.0000 0.0000 0.0000 -1.3596
#
#
#
# Elastic Compliance Matrix: (Units=1/GPa)
#
#
# Indices 1 2 3 4 5 6 
#
# 1 0.006924 -0.003477 -0.001990 0.000000 0.000000 0.000000
# 2 -0.003477 0.012633 -0.002225 0.000000 0.000000 0.000000
# 3 -0.001990 -0.002225 0.009504 0.000000 0.000000 0.000000
# 4 0.000000 0.000000 0.000000 0.021907 0.000000 0.000000
# 5 0.000000 0.000000 0.000000 0.000000 0.031029 0.000000
# 6 0.000000 0.000000 0.000000 0.000000 0.000000 -0.735516
#
#
# Mechanical properties :
#
#
# Convention : Reuss Voigt Hill
#
# Bulk Modulus (GPa) = 73.11953 80.87856 76.99905
# Shear Modulus (GPa) = -7.89170 33.00485 12.55658
#
# Velocity S-wave (km/s) = -1.92510 3.93693 2.42831
# Velocity P-wave (km/s) = 5.42184 7.65816 6.63490
#
# Compressibility (1/GPa) = 0.01367624
#
# Stress axis : x y z
#
# Youngs Moduli (GPa) = 144.42506 79.16065 105.21618
#
# Poissons Ratio (x) = 0.27526 0.20937
# Poissons Ratio (y) = 0.50220 0.23412
# Poissons Ratio (z) = 0.28740 0.17614
#
# Static dielectric constant tensor:
#      x y z
#    x 4.266240 0.000000 0.000000 
#    y 0.000000 3.744730 0.000000 
#    z 0.000000 0.000000 4.080730 
# 
# 
# High freq. dielectric constant tensor:
#      x y z
#    x 1.839230 0.000000 0.000000 
#    y 0.000000 1.818620 0.000000 
#    z 0.000000 0.000000 1.856400 
# 
# From -- ./inp_files/928.got.cif
#   From: 2010.03.12/outbox.cif.g09.slc.cpg/sg64_1_cif.got.tgz:928.got - 2010.04.10 20:19:32.
