data_PCOD8264666
_publ_section_title
;
Structure prediction by ZEFSAII (Michael W. Deem and Ramdas Pophale) SiO2 
 PCOD8264666
Probable space group: C M C A
;
_chemical_formula_sum "Si O2"
_cell_formula_units_Z 64
_cell_length_a 19.549202
_cell_length_b 19.089376
_cell_length_c 8.254460
_cell_angle_alpha 90.000000
_cell_angle_beta 90.000000
_cell_angle_gamma 90.000000
_cell_volume 3080.416449
_symmetry_space_group_name_H-M "C M C A"
_symmetry_group_IT_number 64
_symmetry_cell_setting 'orthorhombic'
loop_
_space_group_symop_operation_xyz
x,y,z
-x,1/2-y,1/2+z
x,-y,-z
-x,1/2+y,1/2-z
-x,-y,-z
x,1/2+y,1/2-z
-x,y,z
x,1/2-y,1/2+z
1/2+x,1/2+y,z
1/2-x,-y,1/2+z
1/2+x,1/2-y,-z
1/2-x,y,1/2-z
1/2-x,1/2-y,-z
1/2+x,y,1/2-z
1/2-x,1/2+y,z
1/2+x,-y,1/2+z
loop_
_atom_site_type_symbol
_atom_site_label
_atom_site_fract_x
_atom_site_fract_y
_atom_site_fract_z
Si Si1 0.307542 0.555314 0.133753
Si Si2 0.717068 0.818033 0.419588
Si Si3 0.923787 0.267193 0.477856
Si Si4 0.575760 0.857556 0.784423
O O1 0.250000 0.520853 0.250000
O O2 0.371626 0.580766 0.242689
O O3 0.333797 0.500000 0.000000
O O4 0.270319 0.619755 0.046004
O O5 0.750000 0.837611 0.250000
O O6 0.750000 0.750000 0.500000
O O7 0.636042 0.809230 0.385289
O O8 0.911571 0.182416 0.456635
O O9 0.917966 0.290243 0.664616
O O10 0.000000 0.286782 0.410942
O O11 0.500000 0.891449 0.776979
#
# Coordination Sequence:
#
# PCOD8264666 Si02
#       4
#    16  16  16  16
#     4  11  23  38  54  75 106 145 185 227 276 325
#     4  11  20  33  55  82 108 138 179 224 271 325
#     4   9  17  30  49  77 108 134 165 210 263 313
#     4   9  18  33  55  81 108 138 173 217 269 325
#
# _framework density 20.776412000000001
#
# number of rings (size 3 to 8) (size 9 to 14) (size 15 to 20)
#    0.000    2.000    0.000    6.000    0.000    0.500 
#    0.000    0.000    0.000    0.750    0.000    0.000 
#    0.000    0.000    0.000    0.000    0.000    0.000 
#
# Total GULP energy -396508.263762 kJ/mol
# GULP energy per Si atom -12390.883243 kJ/mol
# Density = 2.072912 g / cm^3
# Si number density = 20.776412 Si / 1000 Ang^3
#
#
#
# Elastic Constant Matrix: (Units=GPa)
#
#
# Indices 1 2 3 4 5 6 
#
# 1 111.0609 15.7270 24.2146 0.0000 0.0000 0.0000
# 2 15.7270 65.7791 4.2371 0.0000 0.0000 0.0000
# 3 24.2146 4.2371 32.8721 0.0000 0.0000 0.0000
# 4 0.0000 0.0000 0.0000 37.8611 0.0000 0.0000
# 5 0.0000 0.0000 0.0000 0.0000 26.6155 0.0000
# 6 0.0000 0.0000 0.0000 0.0000 0.0000 23.5098
#
#
#
# Elastic Compliance Matrix: (Units=1/GPa)
#
#
# Indices 1 2 3 4 5 6 
#
# 1 0.011015 -0.002129 -0.007839 0.000000 0.000000 0.000000
# 2 -0.002129 0.015741 -0.000461 0.000000 0.000000 0.000000
# 3 -0.007839 -0.000461 0.036255 0.000000 0.000000 0.000000
# 4 0.000000 0.000000 0.000000 0.026412 0.000000 0.000000
# 5 0.000000 0.000000 0.000000 0.000000 0.037572 0.000000
# 6 0.000000 0.000000 0.000000 0.000000 0.000000 0.042535
#
#
# Mechanical properties :
#
#
# Convention : Reuss Voigt Hill
#
# Bulk Modulus (GPa) = 23.72315 33.11882 28.42098
# Shear Modulus (GPa) = 24.45710 28.63284 26.54497
#
# Velocity S-wave (km/s) = 3.43469 3.71636 3.57830
# Velocity P-wave (km/s) = 5.21273 5.86433 5.54810
#
# Compressibility (1/GPa) = 0.04215293
#
# Stress axis : x y z
#
# Youngs Moduli (GPa) = 90.78762 63.52834 27.58228
#
# Poissons Ratio (x) = 0.13522 0.21623
# Poissons Ratio (y) = 0.19324 0.01272
# Poissons Ratio (z) = 0.71172 0.02929
#
# Static dielectric constant tensor:
#      x y z
#    x 4.083100 0.000000 0.000000 
#    y 0.000000 3.416660 0.000000 
#    z 0.000000 0.000000 3.817380 
# 
# 
# High freq. dielectric constant tensor:
#      x y z
#    x 1.832630 0.000000 0.000000 
#    y 0.000000 1.769870 0.000000 
#    z 0.000000 0.000000 1.806660 
# 
# From -- ./inp_files/6606.got.cif
#   From: 2010.03.12/outbox.cif.g09.slc.cpg/sg64_4_cif.got.tgz:6606.got - 2010.04.10 20:19:32.
