data_PCOD8264725
_publ_section_title
;
Structure prediction by ZEFSAII (Michael W. Deem and Ramdas Pophale) SiO2 
 PCOD8264725
Probable space group: C M C A
;
_chemical_formula_sum "Si O2"
_cell_formula_units_Z 104
_cell_length_a 21.087530
_cell_length_b 9.384468
_cell_length_c 27.203210
_cell_angle_alpha 90.000000
_cell_angle_beta 90.000000
_cell_angle_gamma 90.000000
_cell_volume 5383.386057
_symmetry_space_group_name_H-M "C M C A"
_symmetry_group_IT_number 64
_symmetry_cell_setting 'orthorhombic'
loop_
_space_group_symop_operation_xyz
x,y,z
-x,1/2-y,1/2+z
x,-y,-z
-x,1/2+y,1/2-z
-x,-y,-z
x,1/2+y,1/2-z
-x,y,z
x,1/2-y,1/2+z
1/2+x,1/2+y,z
1/2-x,-y,1/2+z
1/2+x,1/2-y,-z
1/2-x,y,1/2-z
1/2-x,1/2-y,-z
1/2+x,y,1/2-z
1/2-x,1/2+y,z
1/2+x,-y,1/2+z
loop_
_atom_site_type_symbol
_atom_site_label
_atom_site_fract_x
_atom_site_fract_y
_atom_site_fract_z
Si Si1 0.261705 0.803556 0.692127
Si Si2 0.500000 0.751463 0.544605
Si Si3 0.071700 0.877027 0.280513
Si Si4 0.500000 0.500253 0.117893
Si Si5 0.895935 0.978191 0.444005
Si Si6 0.678018 0.033830 0.850784
Si Si7 0.000000 0.207537 0.433025
Si Si8 0.895654 0.070613 0.195081
O O1 0.250000 0.780525 0.750000
O O2 0.270581 0.651125 0.666035
O O3 0.323058 0.900465 0.681121
O O4 0.201745 0.879774 0.667281
O O5 0.437591 0.664504 0.560637
O O6 0.500000 0.777095 0.486722
O O7 0.500000 0.905852 0.568963
O O8 0.109660 0.933962 0.327350
O O9 0.074887 0.706594 0.276960
O O10 0.000000 0.930335 0.286090
O O11 0.102647 0.935333 0.230788
O O12 0.500000 0.332890 0.106662
O O13 0.436193 0.537203 0.147023
O O14 0.833591 0.965647 0.409529
O O15 0.872762 0.000000 0.500000
O O16 0.937339 0.112582 0.426267
#
# Coordination Sequence:
#
# PCOD8264725 Si02
#       8
#    16   8  16   8  16  16   8  16
#     4  11  23  41  58  87 119 167 210 245 290 362
#     4   9  17  37  63  87 125 154 196 243 309 380
#     4  11  21  38  55  85 118 158 197 239 305 343
#     4  12  21  36  56  96 126 154 199 250 320 350
#     4   9  20  41  63  90 116 155 204 251 307 370
#     4  11  24  38  65  84 119 164 204 253 298 355
#     4   9  21  35  61  91 119 158 196 253 303 364
#     4  11  24  36  56  82 124 162 197 249 288 360
#
# _framework density 19.318695999999999
#
# number of rings (size 3 to 8) (size 9 to 14) (size 15 to 20)
#    0.000    1.538    3.077    3.462    4.308    2.462 
#    0.000    0.769    0.000    1.846    0.000    0.000 
#    0.000    0.000    0.000    0.000    0.000    0.000 
#
# Total GULP energy -644945.048040 kJ/mol
# GULP energy per Si atom -12402.789385 kJ/mol
# Density = 1.927473 g / cm^3
# Si number density = 19.318696 Si / 1000 Ang^3
#
#
#
# Elastic Constant Matrix: (Units=GPa)
#
#
# Indices 1 2 3 4 5 6 
#
# 1 47.5671 17.0756 31.9173 0.0000 0.0000 0.0000
# 2 17.0756 91.4270 41.4567 0.0000 0.0000 0.0000
# 3 31.9173 41.4567 100.6194 0.0000 0.0000 0.0000
# 4 0.0000 0.0000 0.0000 31.2686 0.0000 0.0000
# 5 0.0000 0.0000 0.0000 0.0000 28.9884 0.0000
# 6 0.0000 0.0000 0.0000 0.0000 0.0000 19.9159
#
#
#
# Elastic Compliance Matrix: (Units=1/GPa)
#
#
# Indices 1 2 3 4 5 6 
#
# 1 0.026856 -0.001418 -0.007935 0.000000 0.000000 0.000000
# 2 -0.001418 0.013525 -0.005123 0.000000 0.000000 0.000000
# 3 -0.007935 -0.005123 0.014566 0.000000 0.000000 0.000000
# 4 0.000000 0.000000 0.000000 0.031981 0.000000 0.000000
# 5 0.000000 0.000000 0.000000 0.000000 0.034497 0.000000
# 6 0.000000 0.000000 0.000000 0.000000 0.000000 0.050211
#
#
# Mechanical properties :
#
#
# Convention : Reuss Voigt Hill
#
# Bulk Modulus (GPa) = 38.46672 46.72364 42.59518
# Shear Modulus (GPa) = 23.89449 25.97882 24.93665
#
# Velocity S-wave (km/s) = 3.52072 3.67106 3.59667
# Velocity P-wave (km/s) = 6.04004 6.49670 6.27253
#
# Compressibility (1/GPa) = 0.02599650
#
# Stress axis : x y z
#
# Youngs Moduli (GPa) = 37.23544 73.93470 68.65233
#
# Poissons Ratio (x) = 0.10483 0.54474
# Poissons Ratio (y) = 0.05280 0.35170
# Poissons Ratio (z) = 0.29546 0.37876
#
# Static dielectric constant tensor:
#      x y z
#    x 3.452330 0.000000 0.000000 
#    y 0.000000 3.571450 0.000000 
#    z 0.000000 0.000000 3.410940 
# 
# 
# High freq. dielectric constant tensor:
#      x y z
#    x 1.741450 0.000000 0.000000 
#    y 0.000000 1.758540 0.000000 
#    z 0.000000 0.000000 1.743550 
# 
# From -- ./inp_files/51055.got.cif
#   From: 2010.03.12/outbox.cif.g09.slc.cpg/sg64_26_cif.got.tgz:51055.got - 2010.04.10 20:19:32.
