data_PCOD8264407
_publ_section_title
;
Structure prediction by ZEFSAII (Michael W. Deem and Ramdas Pophale) SiO2 
 PCOD8264407
Probable space group: C M C A
;
_chemical_formula_sum "Si O2"
_cell_formula_units_Z 64
_cell_length_a 10.287273
_cell_length_b 9.776461
_cell_length_c 25.490528
_cell_angle_alpha 90.000000
_cell_angle_beta 90.000000
_cell_angle_gamma 90.000000
_cell_volume 2563.662015
_symmetry_space_group_name_H-M "C M C A"
_symmetry_group_IT_number 64
_symmetry_cell_setting 'orthorhombic'
loop_
_space_group_symop_operation_xyz
x,y,z
-x,1/2-y,1/2+z
x,-y,-z
-x,1/2+y,1/2-z
-x,-y,-z
x,1/2+y,1/2-z
-x,y,z
x,1/2-y,1/2+z
1/2+x,1/2+y,z
1/2-x,-y,1/2+z
1/2+x,1/2-y,-z
1/2-x,y,1/2-z
1/2-x,1/2-y,-z
1/2+x,y,1/2-z
1/2-x,1/2+y,z
1/2+x,-y,1/2+z
loop_
_atom_site_type_symbol
_atom_site_label
_atom_site_fract_x
_atom_site_fract_y
_atom_site_fract_z
Si Si1 0.351818 0.758658 0.900721
Si Si2 0.145002 0.968180 0.939228
Si Si3 0.721129 0.070634 0.189115
Si Si4 0.000000 0.884126 0.288764
Si Si5 0.500000 0.428930 0.810799
O O1 0.500000 0.776993 0.921165
O O2 0.307080 0.603759 0.908623
O O3 0.346267 0.799808 0.838729
O O4 0.255129 0.854359 0.933204
O O5 0.000000 0.921675 0.918522
O O6 0.132447 0.000000 0.000000
O O7 0.750000 0.106771 0.250000
O O8 0.862319 0.049815 0.158878
O O9 0.631007 0.936590 0.181874
O O10 0.000000 0.721631 0.284613
O O11 0.000000 0.953610 0.232484
#
# Coordination Sequence:
#
# PCOD8264407 Si02
#       5
#    16  16  16   8   8
#     4  11  24  43  67 100 133 173 221 274 333 398
#     4  10  24  46  71 100 132 168 220 281 344 409
#     4  10  23  41  62  93 133 175 218 268 317 389
#     4  10  22  44  60  90 129 170 226 274 323 386
#     4  10  24  40  64  88 123 176 222 268 321 382
#
# _framework density 24.964290999999999
#
# number of rings (size 3 to 8) (size 9 to 14) (size 15 to 20)
#    0.000    1.750    1.250    0.750    5.250   10.500 
#    0.000    0.000    0.000    0.000    0.000    0.000 
#    0.000    0.000    0.000    0.000    0.000    0.000 
#
# Total GULP energy -396628.527813 kJ/mol
# GULP energy per Si atom -12394.641494 kJ/mol
# Density = 2.490747 g / cm^3
# Si number density = 24.964291 Si / 1000 Ang^3
#
#
#
# Elastic Constant Matrix: (Units=GPa)
#
#
# Indices 1 2 3 4 5 6 
#
# 1 185.6685 56.4706 16.7852 0.0000 0.0000 0.0000
# 2 56.4706 150.3363 30.6435 0.0000 0.0000 0.0000
# 3 16.7852 30.6435 49.8406 0.0000 0.0000 0.0000
# 4 0.0000 0.0000 0.0000 29.3695 0.0000 0.0000
# 5 0.0000 0.0000 0.0000 0.0000 23.5716 0.0000
# 6 0.0000 0.0000 0.0000 0.0000 0.0000 35.8815
#
#
#
# Elastic Compliance Matrix: (Units=1/GPa)
#
#
# Indices 1 2 3 4 5 6 
#
# 1 0.006104 -0.002142 -0.000739 0.000000 0.000000 0.000000
# 2 -0.002142 0.008357 -0.004416 0.000000 0.000000 0.000000
# 3 -0.000739 -0.004416 0.023028 0.000000 0.000000 0.000000
# 4 0.000000 0.000000 0.000000 0.034049 0.000000 0.000000
# 5 0.000000 0.000000 0.000000 0.000000 0.042424 0.000000
# 6 0.000000 0.000000 0.000000 0.000000 0.000000 0.027870
#
#
# Mechanical properties :
#
#
# Convention : Reuss Voigt Hill
#
# Bulk Modulus (GPa) = 43.67911 65.96045 54.81978
# Shear Modulus (GPa) = 30.47705 36.56091 33.51898
#
# Velocity S-wave (km/s) = 3.49782 3.83107 3.66823
# Velocity P-wave (km/s) = 5.81787 6.78592 6.32046
#
# Compressibility (1/GPa) = 0.02289424
#
# Stress axis : x y z
#
# Youngs Moduli (GPa) = 163.81838 119.66410 43.42524
#
# Poissons Ratio (x) = 0.25637 0.03207
# Poissons Ratio (y) = 0.35097 0.19179
# Poissons Ratio (z) = 0.12099 0.52849
#
# Static dielectric constant tensor:
#      x y z
#    x 5.602590 0.000000 0.000000 
#    y 0.000000 4.138670 0.000000 
#    z 0.000000 0.000000 4.590580 
# 
# 
# High freq. dielectric constant tensor:
#      x y z
#    x 2.027370 0.000000 0.000000 
#    y 0.000000 1.983570 0.000000 
#    z 0.000000 0.000000 1.998980 
# 
# From -- ./inp_files/52484.got.cif
#   From: 2010.03.12/outbox.cif.g09.slc.cpg/sg64_27_cif.got.tgz:52484.got - 2010.04.10 20:19:32.
