data_PCOD8264176
_publ_section_title
;
Structure prediction by ZEFSAII (Michael W. Deem and Ramdas Pophale) SiO2 
 PCOD8264176
Probable space group: C M C A
;
_chemical_formula_sum "Si O2"
_cell_formula_units_Z 88
_cell_length_a 9.959510
_cell_length_b 30.872871
_cell_length_c 12.948765
_cell_angle_alpha 90.000000
_cell_angle_beta 90.000000
_cell_angle_gamma 90.000000
_cell_volume 3981.469007
_symmetry_space_group_name_H-M "C M C A"
_symmetry_group_IT_number 64
_symmetry_cell_setting 'orthorhombic'
loop_
_space_group_symop_operation_xyz
x,y,z
-x,1/2-y,1/2+z
x,-y,-z
-x,1/2+y,1/2-z
-x,-y,-z
x,1/2+y,1/2-z
-x,y,z
x,1/2-y,1/2+z
1/2+x,1/2+y,z
1/2-x,-y,1/2+z
1/2+x,1/2-y,-z
1/2-x,y,1/2-z
1/2-x,1/2-y,-z
1/2+x,y,1/2-z
1/2-x,1/2+y,z
1/2+x,-y,1/2+z
loop_
_atom_site_type_symbol
_atom_site_label
_atom_site_fract_x
_atom_site_fract_y
_atom_site_fract_z
Si Si1 0.850849 0.390208 0.889537
Si Si2 0.000000 0.726394 0.352379
Si Si3 0.750000 0.051434 0.750000
Si Si4 0.848915 0.517102 0.105236
Si Si5 0.250000 0.182150 0.250000
Si Si6 0.500000 0.677621 0.933904
Si Si7 0.761146 0.625957 0.893171
Si Si8 0.000000 0.679393 0.798621
O O1 0.783328 0.436899 0.858738
O O2 0.770625 0.349334 0.847076
O O3 0.000000 0.386311 0.843323
O O4 0.856044 0.388393 0.013455
O O5 0.127984 0.712527 0.284496
O O6 0.000000 0.710795 0.470986
O O7 0.000000 0.778171 0.369879
O O8 0.694204 0.083779 0.662011
O O9 0.854917 0.018822 0.695832
O O10 0.000000 0.529926 0.074841
O O11 0.776543 0.500000 0.000000
O O12 0.636970 0.650938 0.942951
O O13 0.500000 0.697907 0.818810
O O14 0.862186 0.651950 0.815547
#
# Coordination Sequence:
#
# PCOD8264176 Si02
#       8
#    16   8   8  16   8   8  16   8
#     4  11  22  43  71 101 138 184 236 277 344 419
#     4  12  30  46  74 102 142 174 244 284 363 410
#     4  12  23  39  66 100 134 182 224 287 329 416
#     4  10  22  37  63  97 131 172 224 277 325 395
#     4  12  25  47  70 102 134 194 222 293 345 432
#     4  12  26  48  68 106 136 184 224 297 343 422
#     4  12  25  42  75  99 142 183 237 273 358 410
#     4  12  28  48  70 110 132 187 227 303 342 425
#
# _framework density 22.102395000000001
#
# number of rings (size 3 to 8) (size 9 to 14) (size 15 to 20)
#    0.000    0.545    7.273    0.545    5.091    2.182 
#    0.000    0.000    0.000    1.636    0.000    0.000 
#    0.000    0.000    0.000    0.000    0.000    0.000 
#
# Total GULP energy -545081.638972 kJ/mol
# GULP energy per Si atom -12388.219068 kJ/mol
# Density = 2.205209 g / cm^3
# Si number density = 22.102395 Si / 1000 Ang^3
#
#
#
# Elastic Constant Matrix: (Units=GPa)
#
#
# Indices 1 2 3 4 5 6 
#
# 1 99.1529 36.4647 20.3601 0.0000 0.0000 0.0000
# 2 36.4647 130.6512 35.2127 0.0000 0.0000 0.0000
# 3 20.3601 35.2127 115.6796 0.0000 0.0000 0.0000
# 4 0.0000 0.0000 0.0000 44.4493 0.0000 0.0000
# 5 0.0000 0.0000 0.0000 0.0000 26.2486 0.0000
# 6 0.0000 0.0000 0.0000 0.0000 0.0000 10.0759
#
#
#
# Elastic Compliance Matrix: (Units=1/GPa)
#
#
# Indices 1 2 3 4 5 6 
#
# 1 0.011373 -0.002870 -0.001128 0.000000 0.000000 0.000000
# 2 -0.002870 0.009062 -0.002253 0.000000 0.000000 0.000000
# 3 -0.001128 -0.002253 0.009529 0.000000 0.000000 0.000000
# 4 0.000000 0.000000 0.000000 0.022498 0.000000 0.000000
# 5 0.000000 0.000000 0.000000 0.000000 0.038097 0.000000
# 6 0.000000 0.000000 0.000000 0.000000 0.000000 0.099246
#
#
# Mechanical properties :
#
#
# Convention : Reuss Voigt Hill
#
# Bulk Modulus (GPa) = 57.27048 58.83986 58.05517
# Shear Modulus (GPa) = 24.02364 33.05119 28.53741
#
# Velocity S-wave (km/s) = 3.30043 3.87119 3.59715
# Velocity P-wave (km/s) = 6.36329 6.83087 6.60122
#
# Compressibility (1/GPa) = 0.01746100
#
# Stress axis : x y z
#
# Youngs Moduli (GPa) = 87.93099 110.34681 104.94247
#
# Poissons Ratio (x) = 0.31670 0.11837
# Poissons Ratio (y) = 0.25237 0.23648
# Poissons Ratio (z) = 0.09918 0.24866
#
# Static dielectric constant tensor:
#      x y z
#    x 3.625050 0.000000 0.000000 
#    y 0.000000 4.094750 0.000000 
#    z 0.000000 0.000000 3.971130 
# 
# 
# High freq. dielectric constant tensor:
#      x y z
#    x 1.842860 0.000000 0.000000 
#    y 0.000000 1.881350 0.000000 
#    z 0.000000 0.000000 1.881620 
# 
# From -- ./inp_files/22498.got.cif
#   From: 2010.03.12/outbox.cif.g09.slc.cpg/sg64_12_cif.got.tgz:22498.got - 2010.04.10 20:19:32.
