data_PCOD8264509
_publ_section_title
;
Structure prediction by ZEFSAII (Michael W. Deem and Ramdas Pophale) SiO2 
 PCOD8264509
Probable space group: C M C A
;
_chemical_formula_sum "Si O2"
_cell_formula_units_Z 80
_cell_length_a 8.598588
_cell_length_b 15.579089
_cell_length_c 28.751494
_cell_angle_alpha 90.000000
_cell_angle_beta 90.000000
_cell_angle_gamma 90.000000
_cell_volume 3851.497456
_symmetry_space_group_name_H-M "C M C A"
_symmetry_group_IT_number 64
_symmetry_cell_setting 'orthorhombic'
loop_
_space_group_symop_operation_xyz
x,y,z
-x,1/2-y,1/2+z
x,-y,-z
-x,1/2+y,1/2-z
-x,-y,-z
x,1/2+y,1/2-z
-x,y,z
x,1/2-y,1/2+z
1/2+x,1/2+y,z
1/2-x,-y,1/2+z
1/2+x,1/2-y,-z
1/2-x,y,1/2-z
1/2-x,1/2-y,-z
1/2+x,y,1/2-z
1/2-x,1/2+y,z
1/2+x,-y,1/2+z
loop_
_atom_site_type_symbol
_atom_site_label
_atom_site_fract_x
_atom_site_fract_y
_atom_site_fract_z
Si Si1 0.321713 0.969140 0.857510
Si Si2 0.317335 0.712403 0.547021
Si Si3 0.816976 0.471612 0.449110
Si Si4 0.180717 0.222239 0.363744
Si Si5 0.318196 0.621711 0.800916
O O1 0.500000 0.997788 0.852905
O O2 0.297241 0.871269 0.840056
O O3 0.271401 0.970993 0.911393
O O4 0.220301 0.033141 0.826731
O O5 0.500000 0.696202 0.541578
O O6 0.250000 0.750000 0.500000
O O7 0.226910 0.626224 0.560007
O O8 0.282340 0.777103 0.589174
O O9 0.759634 0.500000 0.500000
O O10 0.000000 0.485034 0.443239
O O11 0.245341 0.295605 0.329057
O O12 0.000000 0.237900 0.376238
O O13 0.500000 0.629538 0.796082
O O14 0.250000 0.621329 0.750000
#
# Coordination Sequence:
#
# PCOD8264509 Si02
#       5
#    16  16  16  16  16
#     4  11  23  41  66  97 130 169 215 267 325 385
#     4  12  24  38  61  91 128 172 217 266 319 383
#     4  11  23  39  60  90 129 172 217 265 320 383
#     4  10  23  43  66  94 132 170 212 267 324 385
#     4  11  24  44  69  95 130 172 216 273 329 386
#
# _framework density 20.771142999999999
#
# number of rings (size 3 to 8) (size 9 to 14) (size 15 to 20)
#    0.000    1.000    2.000    4.800    0.000    8.000 
#    0.000    2.000    0.000    0.000    0.000    0.000 
#    0.000    0.000    0.000    0.000    0.000    0.000 
#
# Total GULP energy -496209.261637 kJ/mol
# GULP energy per Si atom -12405.231541 kJ/mol
# Density = 2.072387 g / cm^3
# Si number density = 20.771143 Si / 1000 Ang^3
#
#
#
# Elastic Constant Matrix: (Units=GPa)
#
#
# Indices 1 2 3 4 5 6 
#
# 1 35.6542 15.1149 19.5160 0.0000 0.0000 0.0000
# 2 15.1149 124.1702 45.7494 0.0000 0.0000 0.0000
# 3 19.5160 45.7494 133.7987 0.0000 0.0000 0.0000
# 4 0.0000 0.0000 0.0000 4.0399 0.0000 0.0000
# 5 0.0000 0.0000 0.0000 0.0000 37.1311 0.0000
# 6 0.0000 0.0000 0.0000 0.0000 0.0000 28.9005
#
#
#
# Elastic Compliance Matrix: (Units=1/GPa)
#
#
# Indices 1 2 3 4 5 6 
#
# 1 0.031103 -0.002419 -0.003710 0.000000 0.000000 0.000000
# 2 -0.002419 0.009402 -0.002862 0.000000 0.000000 0.000000
# 3 -0.003710 -0.002862 0.008994 0.000000 0.000000 0.000000
# 4 0.000000 0.000000 0.000000 0.247529 0.000000 0.000000
# 5 0.000000 0.000000 0.000000 0.000000 0.026932 0.000000
# 6 0.000000 0.000000 0.000000 0.000000 0.000000 0.034601
#
#
# Mechanical properties :
#
#
# Convention : Reuss Voigt Hill
#
# Bulk Modulus (GPa) = 31.72843 50.48707 41.10775
# Shear Modulus (GPa) = 12.91824 28.23050 20.57437
#
# Velocity S-wave (km/s) = 2.49656 3.69063 3.15068
# Velocity P-wave (km/s) = 4.85992 6.52074 5.75060
#
# Compressibility (1/GPa) = 0.03151747
#
# Stress axis : x y z
#
# Youngs Moduli (GPa) = 32.15092 106.35513 111.19012
#
# Poissons Ratio (x) = 0.25731 0.41246
# Poissons Ratio (y) = 0.07779 0.31823
# Poissons Ratio (z) = 0.11926 0.30439
#
# Static dielectric constant tensor:
#      x y z
#    x 3.735580 0.000000 0.000000 
#    y 0.000000 3.896000 0.000000 
#    z 0.000000 0.000000 4.954460 
# 
# 
# High freq. dielectric constant tensor:
#      x y z
#    x 1.817150 0.000000 0.000000 
#    y 0.000000 1.826820 0.000000 
#    z 0.000000 0.000000 1.810070 
# 
# From -- ./inp_files/47841.got.cif
#   From: 2010.03.12/outbox.cif.g09.slc.cpg/sg64_24_cif.got.tgz:47841.got - 2010.04.10 20:19:32.
