data_PCOD8264510
_publ_section_title
;
Structure prediction by ZEFSAII (Michael W. Deem and Ramdas Pophale) SiO2 
 PCOD8264510
Probable space group: C M C A
;
_chemical_formula_sum "Si O2"
_cell_formula_units_Z 96
_cell_length_a 14.504428
_cell_length_b 19.713959
_cell_length_c 14.453931
_cell_angle_alpha 90.000000
_cell_angle_beta 90.000000
_cell_angle_gamma 90.000000
_cell_volume 4132.952678
_symmetry_space_group_name_H-M "C M C A"
_symmetry_group_IT_number 64
_symmetry_cell_setting 'orthorhombic'
loop_
_space_group_symop_operation_xyz
x,y,z
-x,1/2-y,1/2+z
x,-y,-z
-x,1/2+y,1/2-z
-x,-y,-z
x,1/2+y,1/2-z
-x,y,z
x,1/2-y,1/2+z
1/2+x,1/2+y,z
1/2-x,-y,1/2+z
1/2+x,1/2-y,-z
1/2-x,y,1/2-z
1/2-x,1/2-y,-z
1/2+x,y,1/2-z
1/2-x,1/2+y,z
1/2+x,-y,1/2+z
loop_
_atom_site_type_symbol
_atom_site_label
_atom_site_fract_x
_atom_site_fract_y
_atom_site_fract_z
Si Si1 0.647749 0.654672 0.781725
Si Si2 0.897312 0.717952 0.326304
Si Si3 0.742692 0.059169 0.441208
Si Si4 0.099672 0.497569 0.304024
Si Si5 0.604397 0.615668 0.327272
Si Si6 0.390974 0.162675 0.517020
O O1 0.750000 0.642373 0.750000
O O2 0.604003 0.704392 0.705490
O O3 0.598588 0.582437 0.782625
O O4 0.638224 0.692074 0.882190
O O5 0.852570 0.666847 0.250709
O O6 0.857320 0.710376 0.430992
O O7 0.000000 0.690065 0.333629
O O8 0.688353 0.023719 0.357856
O O9 0.821126 0.113481 0.410693
O O10 0.664858 0.092689 0.506631
O O11 0.792000 0.000000 0.500000
O O12 0.101078 0.538437 0.207948
O O13 0.000000 0.513133 0.352960
O O14 0.500000 0.638327 0.359335
O O15 0.500000 0.149249 0.517026
#
# Coordination Sequence:
#
# PCOD8264510 Si02
#       6
#    16  16  16  16  16  16
#     4  12  26  41  66  99 139 176 221 283 346 403
#     4  10  23  45  69  96 132 183 228 275 338 402
#     4  12  23  37  69 101 136 173 235 287 339 402
#     4  11  22  40  66  97 134 175 220 280 344 400
#     4  10  23  43  67  94 137 187 229 277 342 410
#     4  11  24  43  69 101 134 176 231 284 337 404
#
# _framework density 23.227944999999998
#
# number of rings (size 3 to 8) (size 9 to 14) (size 15 to 20)
#    0.000    1.000    3.333    3.500    2.333    1.667 
#    0.000    0.000    0.000    0.000    0.000    0.000 
#    0.000    0.000    0.000    0.000    0.000    0.000 
#
# Total GULP energy -594743.789468 kJ/mol
# GULP energy per Si atom -12390.495614 kJ/mol
# Density = 2.317508 g / cm^3
# Si number density = 23.227945 Si / 1000 Ang^3
#
#
#
# Elastic Constant Matrix: (Units=GPa)
#
#
# Indices 1 2 3 4 5 6 
#
# 1 109.8943 -1.5734 23.7540 0.0000 0.0000 0.0000
# 2 -1.5734 69.5254 7.8398 0.0000 0.0000 0.0000
# 3 23.7540 7.8398 67.8051 0.0000 0.0000 0.0000
# 4 0.0000 0.0000 0.0000 38.1617 0.0000 0.0000
# 5 0.0000 0.0000 0.0000 0.0000 24.9214 0.0000
# 6 0.0000 0.0000 0.0000 0.0000 0.0000 58.7670
#
#
#
# Elastic Compliance Matrix: (Units=1/GPa)
#
#
# Indices 1 2 3 4 5 6 
#
# 1 0.009872 0.000621 -0.003530 0.000000 0.000000 0.000000
# 2 0.000621 0.014612 -0.001907 0.000000 0.000000 0.000000
# 3 -0.003530 -0.001907 0.016205 0.000000 0.000000 0.000000
# 4 0.000000 0.000000 0.000000 0.026204 0.000000 0.000000
# 5 0.000000 0.000000 0.000000 0.000000 0.040126 0.000000
# 6 0.000000 0.000000 0.000000 0.000000 0.000000 0.017016
#
#
# Mechanical properties :
#
#
# Convention : Reuss Voigt Hill
#
# Bulk Modulus (GPa) = 32.19834 34.14062 33.16948
# Shear Modulus (GPa) = 34.71728 38.85031 36.78380
#
# Velocity S-wave (km/s) = 3.87024 4.09414 3.98377
# Velocity P-wave (km/s) = 5.81925 6.08928 5.95580
#
# Compressibility (1/GPa) = 0.03105750
#
# Stress axis : x y z
#
# Youngs Moduli (GPa) = 101.30067 68.43524 61.70790
#
# Poissons Ratio (x) = -0.04253 0.21784
# Poissons Ratio (y) = -0.06295 0.11769
# Poissons Ratio (z) = 0.35761 0.13052
#
# Static dielectric constant tensor:
#      x y z
#    x 4.336220 0.000000 0.000000 
#    y 0.000000 4.123000 0.000000 
#    z 0.000000 0.000000 4.258830 
# 
# 
# High freq. dielectric constant tensor:
#      x y z
#    x 1.922440 0.000000 0.000000 
#    y 0.000000 1.908140 0.000000 
#    z 0.000000 0.000000 1.903270 
# 
# From -- ./inp_files/23958.got.cif
#   From: 2010.03.12/outbox.cif.g09.slc.cpg/sg64_12_cif.got.tgz:23958.got - 2010.04.10 20:19:32.
