data_PCOD8264384
_publ_section_title
;
Structure prediction by ZEFSAII (Michael W. Deem and Ramdas Pophale) SiO2 
 PCOD8264384
Probable space group: C M C A
;
_chemical_formula_sum "Si O2"
_cell_formula_units_Z 96
_cell_length_a 18.450454
_cell_length_b 26.364663
_cell_length_c 9.593210
_cell_angle_alpha 90.000000
_cell_angle_beta 90.000000
_cell_angle_gamma 90.000000
_cell_volume 4666.521091
_symmetry_space_group_name_H-M "C M C A"
_symmetry_group_IT_number 64
_symmetry_cell_setting 'orthorhombic'
loop_
_space_group_symop_operation_xyz
x,y,z
-x,1/2-y,1/2+z
x,-y,-z
-x,1/2+y,1/2-z
-x,-y,-z
x,1/2+y,1/2-z
-x,y,z
x,1/2-y,1/2+z
1/2+x,1/2+y,z
1/2-x,-y,1/2+z
1/2+x,1/2-y,-z
1/2-x,y,1/2-z
1/2-x,1/2-y,-z
1/2+x,y,1/2-z
1/2-x,1/2+y,z
1/2+x,-y,1/2+z
loop_
_atom_site_type_symbol
_atom_site_label
_atom_site_fract_x
_atom_site_fract_y
_atom_site_fract_z
Si Si1 0.416576 0.207026 0.622919
Si Si2 0.915614 0.805161 0.802440
Si Si3 0.332242 0.388931 0.211755
Si Si4 0.349254 0.096221 0.187070
Si Si5 0.081577 0.946343 0.444574
Si Si6 0.207786 0.944321 0.947057
O O1 0.500000 0.192461 0.641828
O O2 0.398668 0.259823 0.696822
O O3 0.396081 0.211392 0.460050
O O4 0.372838 0.164236 0.705082
O O5 0.860192 0.849475 0.759260
O O6 0.000000 0.821976 0.792946
O O7 0.250000 0.378012 0.250000
O O8 0.366510 0.426043 0.325339
O O9 0.339206 0.416995 0.064764
O O10 0.276918 0.090930 0.091730
O O11 0.343490 0.053513 0.309415
O O12 0.416786 0.088711 0.083123
O O13 0.000000 0.949586 0.386858
O O14 0.111405 0.000000 0.500000
O O15 0.230971 0.000000 0.000000
#
# Coordination Sequence:
#
# PCOD8264384 Si02
#       6
#    16  16  16  16  16  16
#     4  10  23  44  67  94 127 173 222 275 341 406
#     4  10  22  42  68  94 127 170 221 276 342 404
#     4  12  24  42  64  96 131 174 221 277 331 402
#     4  11  22  41  65  95 130 170 221 277 321 401
#     4  11  24  41  64  95 131 173 221 275 335 402
#     4  11  24  40  65  93 132 179 220 269 331 395
#
# _framework density 20.57207
#
# number of rings (size 3 to 8) (size 9 to 14) (size 15 to 20)
#    0.000    1.167    3.333    2.500    4.667    0.000 
#    3.000    1.667    0.000    4.000    0.000    0.000 
#    0.000    0.000    0.000    0.000    0.000    0.000 
#
# Total GULP energy -595134.314417 kJ/mol
# GULP energy per Si atom -12398.631550 kJ/mol
# Density = 2.052525 g / cm^3
# Si number density = 20.572070 Si / 1000 Ang^3
#
#
#
# Elastic Constant Matrix: (Units=GPa)
#
#
# Indices 1 2 3 4 5 6 
#
# 1 88.2044 58.7910 54.2370 0.0000 0.0000 0.0000
# 2 58.7910 123.0718 66.8605 0.0000 0.0000 0.0000
# 3 54.2370 66.8605 155.1471 0.0000 0.0000 0.0000
# 4 0.0000 0.0000 0.0000 41.2459 0.0000 0.0000
# 5 0.0000 0.0000 0.0000 0.0000 11.9023 0.0000
# 6 0.0000 0.0000 0.0000 0.0000 0.0000 31.6567
#
#
#
# Elastic Compliance Matrix: (Units=1/GPa)
#
#
# Indices 1 2 3 4 5 6 
#
# 1 0.017878 -0.006718 -0.003355 0.000000 0.000000 0.000000
# 2 -0.006718 0.013133 -0.003311 0.000000 0.000000 0.000000
# 3 -0.003355 -0.003311 0.009045 0.000000 0.000000 0.000000
# 4 0.000000 0.000000 0.000000 0.024245 0.000000 0.000000
# 5 0.000000 0.000000 0.000000 0.000000 0.084017 0.000000
# 6 0.000000 0.000000 0.000000 0.000000 0.000000 0.031589
#
#
# Mechanical properties :
#
#
# Convention : Reuss Voigt Hill
#
# Bulk Modulus (GPa) = 75.25204 80.68892 77.97048
# Shear Modulus (GPa) = 23.68496 29.39665 26.54080
#
# Velocity S-wave (km/s) = 3.39679 3.78426 3.59575
# Velocity P-wave (km/s) = 7.21411 7.64211 7.43119
#
# Compressibility (1/GPa) = 0.01328868
#
# Stress axis : x y z
#
# Youngs Moduli (GPa) = 55.93586 76.14263 110.55416
#
# Poissons Ratio (x) = 0.51149 0.37089
# Poissons Ratio (y) = 0.37575 0.36609
# Poissons Ratio (z) = 0.18765 0.25214
#
# Static dielectric constant tensor:
#      x y z
#    x 3.618280 0.000000 0.000000 
#    y 0.000000 3.640180 0.000000 
#    z 0.000000 0.000000 4.121340 
# 
# 
# High freq. dielectric constant tensor:
#      x y z
#    x 1.795420 0.000000 0.000000 
#    y 0.000000 1.797180 0.000000 
#    z 0.000000 0.000000 1.830410 
# 
# From -- ./inp_files/8379.got.cif
#   From: 2010.03.12/outbox.cif.g09.slc.cpg/sg64_5_cif.got.tgz:8379.got - 2010.04.10 20:19:32.
