data_PCOD8264932
_publ_section_title
;
Structure prediction by ZEFSAII (Michael W. Deem and Ramdas Pophale) SiO2 
 PCOD8264932
Probable space group: C M C A
;
_chemical_formula_sum "Si O2"
_cell_formula_units_Z 72
_cell_length_a 15.268935
_cell_length_b 17.186179
_cell_length_c 12.779506
_cell_angle_alpha 90.000000
_cell_angle_beta 90.000000
_cell_angle_gamma 90.000000
_cell_volume 3353.529595
_symmetry_space_group_name_H-M "C M C A"
_symmetry_group_IT_number 64
_symmetry_cell_setting 'orthorhombic'
loop_
_space_group_symop_operation_xyz
x,y,z
-x,1/2-y,1/2+z
x,-y,-z
-x,1/2+y,1/2-z
-x,-y,-z
x,1/2+y,1/2-z
-x,y,z
x,1/2-y,1/2+z
1/2+x,1/2+y,z
1/2-x,-y,1/2+z
1/2+x,1/2-y,-z
1/2-x,y,1/2-z
1/2-x,1/2-y,-z
1/2+x,y,1/2-z
1/2-x,1/2+y,z
1/2+x,-y,1/2+z
loop_
_atom_site_type_symbol
_atom_site_label
_atom_site_fract_x
_atom_site_fract_y
_atom_site_fract_z
Si Si1 0.832026 0.045120 0.405562
Si Si2 0.097435 0.166568 0.249845
Si Si3 0.599266 0.832003 0.342889
Si Si4 0.702598 0.172943 0.460063
Si Si5 0.750000 0.931475 0.250000
O O1 0.891741 0.088257 0.319264
O O2 0.773798 0.106276 0.468363
O O3 0.884622 0.000000 0.500000
O O4 0.767111 0.984885 0.349792
O O5 0.109862 0.239937 0.325200
O O6 0.168425 0.176151 0.158687
O O7 0.000000 0.164566 0.201318
O O8 0.500000 0.859883 0.320271
O O9 0.621860 0.847476 0.463964
O O10 0.664210 0.878576 0.267069
O O11 0.750000 0.250000 0.500000
#
# Coordination Sequence:
#
# PCOD8264932 Si02
#       5
#    16  16  16  16   8
#     4  12  25  43  68 102 134 185 235 285 367 430
#     4  11  25  44  67 100 142 183 235 293 352 429
#     4  11  25  43  69 104 137 184 239 285 350 431
#     4  12  22  42  72  98 137 184 235 290 350 433
#     4  12  24  44  68 100 146 182 226 292 362 424
#
# _framework density 21.469916999999999
#
# number of rings (size 3 to 8) (size 9 to 14) (size 15 to 20)
#    0.000    0.444    6.667    2.000    0.000    1.333 
#    0.000    1.111    0.000    0.000    0.000    0.000 
#    0.000    0.000    0.000    0.000    0.000    0.000 
#
# Total GULP energy -446321.095276 kJ/mol
# GULP energy per Si atom -12397.808202 kJ/mol
# Density = 2.142105 g / cm^3
# Si number density = 21.469917 Si / 1000 Ang^3
#
#
#
# Elastic Constant Matrix: (Units=GPa)
#
#
# Indices 1 2 3 4 5 6 
#
# 1 105.1580 48.6822 33.7625 0.0000 0.0000 0.0000
# 2 48.6822 106.4234 45.9272 0.0000 0.0000 0.0000
# 3 33.7625 45.9272 118.2600 0.0000 0.0000 0.0000
# 4 0.0000 0.0000 0.0000 47.1431 0.0000 0.0000
# 5 0.0000 0.0000 0.0000 0.0000 37.6537 0.0000
# 6 0.0000 0.0000 0.0000 0.0000 0.0000 13.5085
#
#
#
# Elastic Compliance Matrix: (Units=1/GPa)
#
#
# Indices 1 2 3 4 5 6 
#
# 1 0.012310 -0.004943 -0.001595 0.000000 0.000000 0.000000
# 2 -0.004943 0.013273 -0.003744 0.000000 0.000000 0.000000
# 3 -0.001595 -0.003744 0.010365 0.000000 0.000000 0.000000
# 4 0.000000 0.000000 0.000000 0.021212 0.000000 0.000000
# 5 0.000000 0.000000 0.000000 0.000000 0.026558 0.000000
# 6 0.000000 0.000000 0.000000 0.000000 0.000000 0.074028
#
#
# Mechanical properties :
#
#
# Convention : Reuss Voigt Hill
#
# Bulk Modulus (GPa) = 64.99566 65.17614 65.08590
# Shear Modulus (GPa) = 27.25750 33.09236 30.17493
#
# Velocity S-wave (km/s) = 3.56696 3.93024 3.75300
# Velocity P-wave (km/s) = 6.87771 7.14273 7.01147
#
# Compressibility (1/GPa) = 0.01538564
#
# Stress axis : x y z
#
# Youngs Moduli (GPa) = 81.23656 75.34123 96.47777
#
# Poissons Ratio (x) = 0.37239 0.15386
# Poissons Ratio (y) = 0.40153 0.36117
# Poissons Ratio (z) = 0.12956 0.28204
#
# Static dielectric constant tensor:
#      x y z
#    x 3.775440 0.000000 0.000000 
#    y 0.000000 4.107550 0.000000 
#    z 0.000000 0.000000 3.977090 
# 
# 
# High freq. dielectric constant tensor:
#      x y z
#    x 1.830750 0.000000 0.000000 
#    y 0.000000 1.853880 0.000000 
#    z 0.000000 0.000000 1.854260 
# 
# From -- ./inp_files/23496.got.cif
#   From: 2010.03.12/outbox.cif.g09.slc.cpg/sg64_12_cif.got.tgz:23496.got - 2010.04.10 20:19:32.
