data_PCOD8264356
_publ_section_title
;
Structure prediction by ZEFSAII (Michael W. Deem and Ramdas Pophale) SiO2 
 PCOD8264356
Probable space group: C M C A
;
_chemical_formula_sum "Si O2"
_cell_formula_units_Z 96
_cell_length_a 17.671085
_cell_length_b 23.599781
_cell_length_c 11.143466
_cell_angle_alpha 90.000000
_cell_angle_beta 90.000000
_cell_angle_gamma 90.000000
_cell_volume 4647.201258
_symmetry_space_group_name_H-M "C M C A"
_symmetry_group_IT_number 64
_symmetry_cell_setting 'orthorhombic'
loop_
_space_group_symop_operation_xyz
x,y,z
-x,1/2-y,1/2+z
x,-y,-z
-x,1/2+y,1/2-z
-x,-y,-z
x,1/2+y,1/2-z
-x,y,z
x,1/2-y,1/2+z
1/2+x,1/2+y,z
1/2-x,-y,1/2+z
1/2+x,1/2-y,-z
1/2-x,y,1/2-z
1/2-x,1/2-y,-z
1/2+x,y,1/2-z
1/2-x,1/2+y,z
1/2+x,-y,1/2+z
loop_
_atom_site_type_symbol
_atom_site_label
_atom_site_fract_x
_atom_site_fract_y
_atom_site_fract_z
Si Si1 0.587998 0.055322 0.572996
Si Si2 0.411144 0.915249 0.829893
Si Si3 0.657171 0.139406 0.401045
Si Si4 0.295172 0.756803 0.124377
Si Si5 0.827073 0.525665 0.801780
Si Si6 0.316013 0.627426 0.525098
O O1 0.500000 0.049098 0.597048
O O2 0.605213 0.114406 0.506428
O O3 0.628982 0.059643 0.699357
O O4 0.617507 0.000000 0.500000
O O5 0.500000 0.914110 0.802020
O O6 0.363658 0.895028 0.716512
O O7 0.382381 0.978647 0.857814
O O8 0.392042 0.876634 0.944893
O O9 0.641693 0.206675 0.378040
O O10 0.745591 0.133426 0.433927
O O11 0.250000 0.750986 0.250000
O O12 0.329082 0.820147 0.116713
O O13 0.250000 0.750000 0.000000
O O14 0.750000 0.497916 0.750000
O O15 0.802355 0.570162 0.902335
#
# Coordination Sequence:
#
# PCOD8264356 Si02
#       6
#    16  16  16  16  16  16
#     4  11  23  40  64  95 133 173 216 271 335 399
#     4  12  26  42  62  92 137 180 218 270 340 408
#     4  11  21  42  69  96 122 172 225 277 327 399
#     4  10  22  41  70 100 133 169 221 288 340 388
#     4  12  23  39  65  97 133 169 223 275 335 404
#     4  11  24  41  67  96 130 168 227 277 335 396
#
# _framework density 20.657595000000001
#
# number of rings (size 3 to 8) (size 9 to 14) (size 15 to 20)
#    0.000    0.833    3.333    5.500    2.333    2.000 
#    0.000    1.667    0.000    0.000    0.000    0.000 
#    0.000    0.000    0.000    0.000    0.000    0.000 
#
# Total GULP energy -595029.999944 kJ/mol
# GULP energy per Si atom -12396.458332 kJ/mol
# Density = 2.061058 g / cm^3
# Si number density = 20.657595 Si / 1000 Ang^3
#
#
#
# Elastic Constant Matrix: (Units=GPa)
#
#
# Indices 1 2 3 4 5 6 
#
# 1 86.4931 48.1047 34.2264 0.0000 0.0000 0.0000
# 2 48.1047 129.2210 36.7066 0.0000 0.0000 0.0000
# 3 34.2264 36.7066 101.3646 0.0000 0.0000 0.0000
# 4 0.0000 0.0000 0.0000 23.1838 0.0000 0.0000
# 5 0.0000 0.0000 0.0000 0.0000 25.4363 0.0000
# 6 0.0000 0.0000 0.0000 0.0000 0.0000 13.5600
#
#
#
# Elastic Compliance Matrix: (Units=1/GPa)
#
#
# Indices 1 2 3 4 5 6 
#
# 1 0.015641 -0.004818 -0.003536 0.000000 0.000000 0.000000
# 2 -0.004818 0.010110 -0.002034 0.000000 0.000000 0.000000
# 3 -0.003536 -0.002034 0.011796 0.000000 0.000000 0.000000
# 4 0.000000 0.000000 0.000000 0.043134 0.000000 0.000000
# 5 0.000000 0.000000 0.000000 0.000000 0.039314 0.000000
# 6 0.000000 0.000000 0.000000 0.000000 0.000000 0.073746
#
#
# Mechanical properties :
#
#
# Convention : Reuss Voigt Hill
#
# Bulk Modulus (GPa) = 59.63213 61.68379 60.65796
# Shear Modulus (GPa) = 22.71613 25.63874 24.17744
#
# Velocity S-wave (km/s) = 3.31970 3.52679 3.42481
# Velocity P-wave (km/s) = 6.60480 6.81977 6.71315
#
# Compressibility (1/GPa) = 0.01676948
#
# Stress axis : x y z
#
# Youngs Moduli (GPa) = 63.93614 98.91100 84.77334
#
# Poissons Ratio (x) = 0.47654 0.29980
# Poissons Ratio (y) = 0.30804 0.17246
# Poissons Ratio (z) = 0.22611 0.20122
#
# Static dielectric constant tensor:
#      x y z
#    x 3.496750 0.000000 0.000000 
#    y 0.000000 4.359520 0.000000 
#    z 0.000000 0.000000 3.990600 
# 
# 
# High freq. dielectric constant tensor:
#      x y z
#    x 1.778020 0.000000 0.000000 
#    y 0.000000 1.815490 0.000000 
#    z 0.000000 0.000000 1.824400 
# 
# From -- ./inp_files/16218.got.cif
#   From: 2010.03.12/outbox.cif.g09.slc.cpg/sg64_9_cif.got.tgz:16218.got - 2010.04.10 20:19:32.
