data_PCOD8264337
_publ_section_title
;
Structure prediction by ZEFSAII (Michael W. Deem and Ramdas Pophale) SiO2 
 PCOD8264337
Probable space group: C M C A
;
_chemical_formula_sum "Si O2"
_cell_formula_units_Z 48
_cell_length_a 13.839286
_cell_length_b 5.195887
_cell_length_c 29.109951
_cell_angle_alpha 90.000000
_cell_angle_beta 90.000000
_cell_angle_gamma 90.000000
_cell_volume 2093.219907
_symmetry_space_group_name_H-M "C M C A"
_symmetry_group_IT_number 64
_symmetry_cell_setting 'orthorhombic'
loop_
_space_group_symop_operation_xyz
x,y,z
-x,1/2-y,1/2+z
x,-y,-z
-x,1/2+y,1/2-z
-x,-y,-z
x,1/2+y,1/2-z
-x,y,z
x,1/2-y,1/2+z
1/2+x,1/2+y,z
1/2-x,-y,1/2+z
1/2+x,1/2-y,-z
1/2-x,y,1/2-z
1/2-x,1/2-y,-z
1/2+x,y,1/2-z
1/2-x,1/2+y,z
1/2+x,-y,1/2+z
loop_
_atom_site_type_symbol
_atom_site_label
_atom_site_fract_x
_atom_site_fract_y
_atom_site_fract_z
Si Si1 0.000000 0.998137 0.389465
Si Si2 0.691336 0.510542 0.553725
Si Si3 0.000000 0.501998 0.669570
Si Si4 0.791903 0.415852 0.699382
O O1 0.907096 0.044398 0.420243
O O2 0.000000 0.207646 0.348844
O O3 0.000000 0.706928 0.370866
O O4 0.667949 0.500000 0.500000
O O5 0.732756 0.788871 0.567665
O O6 0.093748 0.460819 0.701483
O O7 0.750000 0.361603 0.750000
O O8 0.736119 0.649349 0.673264
#
# Coordination Sequence:
#
# PCOD8264337 Si02
#       4
#     8  16   8  16
#     4  12  25  40  63  94 132 163 202 261 314 364
#     4  10  22  41  65  92 126 170 212 248 298 368
#     4  12  26  40  62  96 124 161 208 259 319 368
#     4  10  23  42  65  88 118 159 204 257 311 376
#
# _framework density 22.931177999999999
#
# number of rings (size 3 to 8) (size 9 to 14) (size 15 to 20)
#    0.000    1.333    0.000    4.500    0.000   13.333 
#    0.000    6.667    0.000    0.000    0.000    0.000 
#    0.000    0.000    0.000    0.000    0.000    0.000 
#
# Total GULP energy -297646.203467 kJ/mol
# GULP energy per Si atom -12401.925144 kJ/mol
# Density = 2.287899 g / cm^3
# Si number density = 22.931178 Si / 1000 Ang^3
#
#
#
# Elastic Constant Matrix: (Units=GPa)
#
#
# Indices 1 2 3 4 5 6 
#
# 1 152.2840 11.3097 28.9517 0.0000 0.0000 0.0000
# 2 11.3097 154.3655 -0.9349 0.0000 0.0000 0.0000
# 3 28.9517 -0.9349 37.0039 0.0000 0.0000 0.0000
# 4 0.0000 0.0000 0.0000 15.8387 0.0000 0.0000
# 5 0.0000 0.0000 0.0000 0.0000 44.1340 0.0000
# 6 0.0000 0.0000 0.0000 0.0000 0.0000 47.0464
#
#
#
# Elastic Compliance Matrix: (Units=1/GPa)
#
#
# Indices 1 2 3 4 5 6 
#
# 1 0.007770 -0.000606 -0.006095 0.000000 0.000000 0.000000
# 2 -0.000606 0.006526 0.000639 0.000000 0.000000 0.000000
# 3 -0.006095 0.000639 0.031809 0.000000 0.000000 0.000000
# 4 0.000000 0.000000 0.000000 0.063137 0.000000 0.000000
# 5 0.000000 0.000000 0.000000 0.000000 0.022658 0.000000
# 6 0.000000 0.000000 0.000000 0.000000 0.000000 0.021256
#
#
# Mechanical properties :
#
#
# Convention : Reuss Voigt Hill
#
# Bulk Modulus (GPa) = 29.42733 46.92292 38.17513
# Shear Modulus (GPa) = 28.31137 41.69227 35.00182
#
# Velocity S-wave (km/s) = 3.51753 4.26860 3.91114
# Velocity P-wave (km/s) = 5.41831 6.69339 6.08932
#
# Compressibility (1/GPa) = 0.03398202
#
# Stress axis : x y z
#
# Youngs Moduli (GPa) = 128.69296 153.22344 31.43767
#
# Poissons Ratio (x) = 0.09289 0.19161
# Poissons Ratio (y) = 0.07802 -0.02009
# Poissons Ratio (z) = 0.78437 -0.09794
#
# Static dielectric constant tensor:
#      x y z
#    x 4.154920 0.000000 0.000000 
#    y 0.000000 5.203140 0.000000 
#    z 0.000000 0.000000 4.014150 
# 
# 
# High freq. dielectric constant tensor:
#      x y z
#    x 1.915990 0.000000 0.000000 
#    y 0.000000 1.939980 0.000000 
#    z 0.000000 0.000000 1.887590 
# 
# From -- ./inp_files/3058.got.cif
#   From: 2010.03.12/outbox.cif.g09.slc.cpg/sg64_2_cif.got.tgz:3058.got - 2010.04.10 20:19:32.
