data_PCOD8264651
_publ_section_title
;
Structure prediction by ZEFSAII (Michael W. Deem and Ramdas Pophale) SiO2 
 PCOD8264651
Probable space group: C M C A
;
_chemical_formula_sum "Si O2"
_cell_formula_units_Z 96
_cell_length_a 22.199021
_cell_length_b 14.547760
_cell_length_c 14.409902
_cell_angle_alpha 90.000000
_cell_angle_beta 90.000000
_cell_angle_gamma 90.000000
_cell_volume 4653.620640
_symmetry_space_group_name_H-M "C M C A"
_symmetry_group_IT_number 64
_symmetry_cell_setting 'orthorhombic'
loop_
_space_group_symop_operation_xyz
x,y,z
-x,1/2-y,1/2+z
x,-y,-z
-x,1/2+y,1/2-z
-x,-y,-z
x,1/2+y,1/2-z
-x,y,z
x,1/2-y,1/2+z
1/2+x,1/2+y,z
1/2-x,-y,1/2+z
1/2+x,1/2-y,-z
1/2-x,y,1/2-z
1/2-x,1/2-y,-z
1/2+x,y,1/2-z
1/2-x,1/2+y,z
1/2+x,-y,1/2+z
loop_
_atom_site_type_symbol
_atom_site_label
_atom_site_fract_x
_atom_site_fract_y
_atom_site_fract_z
Si Si1 0.139590 0.416706 0.449566
Si Si2 0.320361 0.960802 0.245591
Si Si3 0.736547 0.666280 0.065572
Si Si4 0.070795 0.234475 0.499212
Si Si5 0.356497 0.733615 0.681883
Si Si6 0.636867 0.135830 0.151810
O O1 0.103393 0.500000 0.500000
O O2 0.152371 0.443155 0.345427
O O3 0.203277 0.410222 0.504307
O O4 0.102007 0.323581 0.454894
O O5 0.250000 0.991690 0.250000
O O6 0.325650 0.865729 0.190129
O O7 0.365943 0.036802 0.201836
O O8 0.693760 0.695114 0.149534
O O9 0.796898 0.630987 0.109928
O O10 0.750000 0.750000 0.000000
O O11 0.090049 0.223584 0.606615
O O12 0.091018 0.147561 0.435197
O O13 0.000000 0.245375 0.495270
O O14 0.378132 0.778769 0.778848
#
# Coordination Sequence:
#
# PCOD8264651 Si02
#       6
#    16  16  16  16  16  16
#     4  11  22  41  66 100 134 170 220 275 339 406
#     4  12  23  37  66 106 136 168 212 268 340 419
#     4  11  19  37  64  95 138 174 202 267 345 420
#     4  11  26  47  67  88 131 185 234 284 331 389
#     4  11  22  41  65  96 132 172 221 274 339 401
#     4  12  23  42  66  99 136 176 219 273 343 404
#
# _framework density 20.629099
#
# number of rings (size 3 to 8) (size 9 to 14) (size 15 to 20)
#    0.000    0.667    5.000    6.500    0.000    1.667 
#    0.000    2.500    0.000    0.000    0.000    0.000 
#    0.000    0.000    0.000    0.000    0.000    0.000 
#
# Total GULP energy -595026.323878 kJ/mol
# GULP energy per Si atom -12396.381747 kJ/mol
# Density = 2.058215 g / cm^3
# Si number density = 20.629099 Si / 1000 Ang^3
#
#
#
# Elastic Constant Matrix: (Units=GPa)
#
#
# Indices 1 2 3 4 5 6 
#
# 1 102.0705 14.0850 50.2795 0.0000 0.0000 0.0000
# 2 14.0850 85.6122 21.6945 0.0000 0.0000 0.0000
# 3 50.2795 21.6945 103.0506 0.0000 0.0000 0.0000
# 4 0.0000 0.0000 0.0000 48.5908 0.0000 0.0000
# 5 0.0000 0.0000 0.0000 0.0000 15.3861 0.0000
# 6 0.0000 0.0000 0.0000 0.0000 0.0000 1.6090
#
#
#
# Elastic Compliance Matrix: (Units=1/GPa)
#
#
# Indices 1 2 3 4 5 6 
#
# 1 0.012922 -0.000558 -0.006187 0.000000 0.000000 0.000000
# 2 -0.000558 0.012363 -0.002330 0.000000 0.000000 0.000000
# 3 -0.006187 -0.002330 0.013213 0.000000 0.000000 0.000000
# 4 0.000000 0.000000 0.000000 0.020580 0.000000 0.000000
# 5 0.000000 0.000000 0.000000 0.000000 0.064994 0.000000
# 6 0.000000 0.000000 0.000000 0.000000 0.000000 0.621501
#
#
# Mechanical properties :
#
#
# Convention : Reuss Voigt Hill
#
# Bulk Modulus (GPa) = 49.14768 51.42793 50.28781
# Shear Modulus (GPa) = 6.48923 26.76214 16.62569
#
# Velocity S-wave (km/s) = 1.77553 3.60571 2.84198
# Velocity P-wave (km/s) = 5.29901 6.50529 5.93289
#
# Compressibility (1/GPa) = 0.02034684
#
# Stress axis : x y z
#
# Youngs Moduli (GPa) = 77.38749 80.88706 75.68068
#
# Poissons Ratio (x) = 0.04514 0.46826
# Poissons Ratio (y) = 0.04319 0.17637
# Poissons Ratio (z) = 0.47882 0.18850
#
# Static dielectric constant tensor:
#      x y z
#    x 3.377650 0.000000 0.000000 
#    y 0.000000 3.855910 0.000000 
#    z 0.000000 0.000000 4.108330 
# 
# 
# High freq. dielectric constant tensor:
#      x y z
#    x 1.761210 0.000000 0.000000 
#    y 0.000000 1.817450 0.000000 
#    z 0.000000 0.000000 1.834820 
# 
# From -- ./inp_files/26290.got.cif
#   From: 2010.03.12/outbox.cif.g09.slc.cpg/sg64_14_cif.got.tgz:26290.got - 2010.04.10 20:19:32.
