data_PCOD8264021
_publ_section_title
;
Structure prediction by ZEFSAII (Michael W. Deem and Ramdas Pophale) SiO2 
 PCOD8264021
Probable space group: C M C A
;
_chemical_formula_sum "Si O2"
_cell_formula_units_Z 88
_cell_length_a 15.963530
_cell_length_b 8.411762
_cell_length_c 30.359883
_cell_angle_alpha 90.000000
_cell_angle_beta 90.000000
_cell_angle_gamma 90.000000
_cell_volume 4076.768050
_symmetry_space_group_name_H-M "C M C A"
_symmetry_group_IT_number 64
_symmetry_cell_setting 'orthorhombic'
loop_
_space_group_symop_operation_xyz
x,y,z
-x,1/2-y,1/2+z
x,-y,-z
-x,1/2+y,1/2-z
-x,-y,-z
x,1/2+y,1/2-z
-x,y,z
x,1/2-y,1/2+z
1/2+x,1/2+y,z
1/2-x,-y,1/2+z
1/2+x,1/2-y,-z
1/2-x,y,1/2-z
1/2-x,1/2-y,-z
1/2+x,y,1/2-z
1/2-x,1/2+y,z
1/2+x,-y,1/2+z
loop_
_atom_site_type_symbol
_atom_site_label
_atom_site_fract_x
_atom_site_fract_y
_atom_site_fract_z
Si Si1 0.766483 0.960997 0.416447
Si Si2 0.261074 0.785569 0.853001
Si Si3 0.663493 0.556116 0.272405
Si Si4 0.150208 0.000000 0.000000
Si Si5 0.906061 0.340471 0.028055
Si Si6 0.905069 0.766678 0.807370
O O1 0.728225 0.894897 0.369972
O O2 0.703807 0.980795 0.456434
O O3 0.843640 0.847255 0.430559
O O4 0.795125 0.130980 0.398069
O O5 0.316388 0.810917 0.809567
O O6 0.162680 0.824989 0.843201
O O7 0.750000 0.495740 0.250000
O O8 0.616294 0.414608 0.296186
O O9 0.601183 0.631694 0.237237
O O10 0.099717 0.831948 0.996501
O O11 0.000000 0.359259 0.045481
O O12 0.882194 0.500000 0.000000
O O13 0.000000 0.780954 0.825808
#
# Coordination Sequence:
#
# PCOD8264021 Si02
#       6
#    16  16  16   8  16  16
#     4  12  22  42  66  93 126 170 224 265 318 394
#     4  11  23  39  65  93 123 170 214 263 312 386
#     4  10  21  40  63  87 122 165 208 252 312 389
#     4  12  23  44  71  94 130 180 228 270 331 404
#     4  11  24  42  65  96 130 167 217 276 335 387
#     4  11  23  40  63  94 128 163 205 262 324 381
#
# _framework density 21.585726999999999
#
# number of rings (size 3 to 8) (size 9 to 14) (size 15 to 20)
#    0.000    0.909    4.545    4.091    2.545    0.727 
#    0.000    0.000    0.000    4.364    0.000    0.000 
#    0.000    0.000    0.000    0.000    0.000    0.000 
#
# Total GULP energy -545114.077044 kJ/mol
# GULP energy per Si atom -12388.956296 kJ/mol
# Density = 2.153660 g / cm^3
# Si number density = 21.585727 Si / 1000 Ang^3
#
#
#
# Elastic Constant Matrix: (Units=GPa)
#
#
# Indices 1 2 3 4 5 6 
#
# 1 55.6950 28.6451 9.3939 0.0000 0.0000 0.0000
# 2 28.6451 100.5529 22.2254 0.0000 0.0000 0.0000
# 3 9.3939 22.2254 82.5890 0.0000 0.0000 0.0000
# 4 0.0000 0.0000 0.0000 49.9618 0.0000 0.0000
# 5 0.0000 0.0000 0.0000 0.0000 10.0116 0.0000
# 6 0.0000 0.0000 0.0000 0.0000 0.0000 5.0046
#
#
#
# Elastic Compliance Matrix: (Units=1/GPa)
#
#
# Indices 1 2 3 4 5 6 
#
# 1 0.021091 -0.005824 -0.000832 0.000000 0.000000 0.000000
# 2 -0.005824 0.012182 -0.002616 0.000000 0.000000 0.000000
# 3 -0.000832 -0.002616 0.012907 0.000000 0.000000 0.000000
# 4 0.000000 0.000000 0.000000 0.020015 0.000000 0.000000
# 5 0.000000 0.000000 0.000000 0.000000 0.099884 0.000000
# 6 0.000000 0.000000 0.000000 0.000000 0.000000 0.199817
#
#
# Mechanical properties :
#
#
# Convention : Reuss Voigt Hill
#
# Bulk Modulus (GPa) = 36.18446 39.92953 38.05699
# Shear Modulus (GPa) = 12.70154 24.90043 18.80099
#
# Velocity S-wave (km/s) = 2.42838 3.40009 2.95446
# Velocity P-wave (km/s) = 4.96611 5.82687 5.41362
#
# Compressibility (1/GPa) = 0.02763618
#
# Stress axis : x y z
#
# Youngs Moduli (GPa) = 47.41398 82.08519 77.47918
#
# Poissons Ratio (x) = 0.47810 0.06443
# Poissons Ratio (y) = 0.27616 0.20268
# Poissons Ratio (z) = 0.03943 0.21473
#
# Static dielectric constant tensor:
#      x y z
#    x 3.740420 0.000000 0.000000 
#    y 0.000000 4.145560 0.000000 
#    z 0.000000 0.000000 3.893420 
# 
# 
# High freq. dielectric constant tensor:
#      x y z
#    x 1.816170 0.000000 0.000000 
#    y 0.000000 1.869230 0.000000 
#    z 0.000000 0.000000 1.853410 
# 
# From -- ./inp_files/53581.got.cif
#   From: 2010.03.12/outbox.cif.g09.slc.cpg/sg64_27_cif.got.tgz:53581.got - 2010.04.10 20:19:32.
