data_PCOD8264728
_publ_section_title
;
Structure prediction by ZEFSAII (Michael W. Deem and Ramdas Pophale) SiO2 
 PCOD8264728
Probable space group: C M C A
;
_chemical_formula_sum "Si O2"
_cell_formula_units_Z 80
_cell_length_a 20.724156
_cell_length_b 16.824905
_cell_length_c 11.092169
_cell_angle_alpha 90.000000
_cell_angle_beta 90.000000
_cell_angle_gamma 90.000000
_cell_volume 3867.639182
_symmetry_space_group_name_H-M "C M C A"
_symmetry_group_IT_number 64
_symmetry_cell_setting 'orthorhombic'
loop_
_space_group_symop_operation_xyz
x,y,z
-x,1/2-y,1/2+z
x,-y,-z
-x,1/2+y,1/2-z
-x,-y,-z
x,1/2+y,1/2-z
-x,y,z
x,1/2-y,1/2+z
1/2+x,1/2+y,z
1/2-x,-y,1/2+z
1/2+x,1/2-y,-z
1/2-x,y,1/2-z
1/2-x,1/2-y,-z
1/2+x,y,1/2-z
1/2-x,1/2+y,z
1/2+x,-y,1/2+z
loop_
_atom_site_type_symbol
_atom_site_label
_atom_site_fract_x
_atom_site_fract_y
_atom_site_fract_z
Si Si1 0.216362 0.132839 0.590214
Si Si2 0.750000 0.269721 0.750000
Si Si3 0.000000 0.121724 0.410166
Si Si4 0.308992 0.500000 0.000000
Si Si5 0.133932 0.970648 0.248885
Si Si6 0.361570 0.135975 0.137636
Si Si7 0.500000 0.439875 0.333702
O O1 0.246435 0.216883 0.629244
O O2 0.266620 0.079542 0.514307
O O3 0.189676 0.091701 0.713099
O O4 0.158287 0.151759 0.499888
O O5 0.685249 0.322328 0.735016
O O6 0.936443 0.164924 0.354021
O O7 0.000000 0.122969 0.556189
O O8 0.000000 0.030107 0.375740
O O9 0.354417 0.493468 0.883430
O O10 0.064385 0.927217 0.253244
O O11 0.139946 0.041346 0.344618
#
# Coordination Sequence:
#
# PCOD8264728 Si02
#       7
#    16   8   8   8  16  16   8
#     4  12  22  39  63  92 122 166 222 268 320 396
#     4  12  26  38  58  96 136 166 210 260 344 406
#     4   9  18  36  65  91 119 160 217 259 311 386
#     4  12  22  35  62  89 130 162 210 274 330 372
#     4  11  21  38  64  92 122 164 218 268 322 380
#     4  11  22  40  63  92 125 167 204 274 326 379
#     4   9  18  35  63  95 115 155 220 267 305 381
#
# _framework density 20.684453000000001
#
# number of rings (size 3 to 8) (size 9 to 14) (size 15 to 20)
#    0.000    1.000    6.000    1.800    0.000    0.400 
#    0.000    2.000    0.000    2.400    0.000    0.000 
#    0.000    0.000    0.000    0.000    0.000    0.000 
#
# Total GULP energy -495939.631750 kJ/mol
# GULP energy per Si atom -12398.490794 kJ/mol
# Density = 2.063737 g / cm^3
# Si number density = 20.684453 Si / 1000 Ang^3
#
#
#
# Elastic Constant Matrix: (Units=GPa)
#
#
# Indices 1 2 3 4 5 6 
#
# 1 177.1606 37.7057 42.2546 0.0000 0.0000 0.0000
# 2 37.7057 48.2297 -0.0986 0.0000 0.0000 0.0000
# 3 42.2546 -0.0986 88.9199 0.0000 0.0000 0.0000
# 4 0.0000 0.0000 0.0000 29.3869 0.0000 0.0000
# 5 0.0000 0.0000 0.0000 0.0000 31.8518 0.0000
# 6 0.0000 0.0000 0.0000 0.0000 0.0000 13.6234
#
#
#
# Elastic Compliance Matrix: (Units=1/GPa)
#
#
# Indices 1 2 3 4 5 6 
#
# 1 0.007841 -0.006138 -0.003733 0.000000 0.000000 0.000000
# 2 -0.006138 0.025539 0.002945 0.000000 0.000000 0.000000
# 3 -0.003733 0.002945 0.013023 0.000000 0.000000 0.000000
# 4 0.000000 0.000000 0.000000 0.034029 0.000000 0.000000
# 5 0.000000 0.000000 0.000000 0.000000 0.031395 0.000000
# 6 0.000000 0.000000 0.000000 0.000000 0.000000 0.073403
#
#
# Mechanical properties :
#
#
# Convention : Reuss Voigt Hill
#
# Bulk Modulus (GPa) = 30.72051 52.67039 41.69545
# Shear Modulus (GPa) = 23.81714 30.60231 27.20973
#
# Velocity S-wave (km/s) = 3.39699 3.85058 3.63087
# Velocity P-wave (km/s) = 5.50184 6.72966 6.14648
#
# Compressibility (1/GPa) = 0.03255154
#
# Stress axis : x y z
#
# Youngs Moduli (GPa) = 127.52985 39.15627 76.78572
#
# Poissons Ratio (x) = 0.24034 0.28664
# Poissons Ratio (y) = 0.78277 -0.22614
# Poissons Ratio (z) = 0.47607 -0.11532
#
# Static dielectric constant tensor:
#      x y z
#    x 4.101610 0.000000 0.000000 
#    y 0.000000 3.415220 0.000000 
#    z 0.000000 0.000000 3.594970 
# 
# 
# High freq. dielectric constant tensor:
#      x y z
#    x 1.819180 0.000000 0.000000 
#    y 0.000000 1.774780 0.000000 
#    z 0.000000 0.000000 1.804200 
# 
# From -- ./inp_files/17112.got.cif
#   From: 2010.03.12/outbox.cif.g09.slc.cpg/sg64_9_cif.got.tgz:17112.got - 2010.04.10 20:19:32.
