data_PCOD8264844
_publ_section_title
;
Structure prediction by ZEFSAII (Michael W. Deem and Ramdas Pophale) SiO2 
 PCOD8264844
Probable space group: C M C A
;
_chemical_formula_sum "Si O2"
_cell_formula_units_Z 72
_cell_length_a 17.531969
_cell_length_b 18.385155
_cell_length_c 11.368449
_cell_angle_alpha 90.000000
_cell_angle_beta 90.000000
_cell_angle_gamma 90.000000
_cell_volume 3664.369060
_symmetry_space_group_name_H-M "C M C A"
_symmetry_group_IT_number 64
_symmetry_cell_setting 'orthorhombic'
loop_
_space_group_symop_operation_xyz
x,y,z
-x,1/2-y,1/2+z
x,-y,-z
-x,1/2+y,1/2-z
-x,-y,-z
x,1/2+y,1/2-z
-x,y,z
x,1/2-y,1/2+z
1/2+x,1/2+y,z
1/2-x,-y,1/2+z
1/2+x,1/2-y,-z
1/2-x,y,1/2-z
1/2-x,1/2-y,-z
1/2+x,y,1/2-z
1/2-x,1/2+y,z
1/2+x,-y,1/2+z
loop_
_atom_site_type_symbol
_atom_site_label
_atom_site_fract_x
_atom_site_fract_y
_atom_site_fract_z
Si Si1 0.000000 0.986022 0.194277
Si Si2 0.500000 0.383609 0.986789
Si Si3 0.161582 0.177995 0.065589
Si Si4 0.282036 0.168460 0.874758
Si Si5 0.250000 0.587806 0.250000
Si Si6 0.862024 0.517406 0.870209
O O1 0.073821 0.994669 0.273885
O O2 0.000000 0.049027 0.099718
O O3 0.000000 0.910030 0.122735
O O4 0.573589 0.334961 0.962046
O O5 0.170231 0.264797 0.072349
O O6 0.187931 0.138233 0.185097
O O7 0.212303 0.146653 0.959364
O O8 0.250000 0.193338 0.750000
O O9 0.337256 0.100522 0.861312
O O10 0.208107 0.536771 0.155220
O O11 0.893903 0.500000 0.000000
#
# Coordination Sequence:
#
# PCOD8264844 Si02
#       6
#     8   8  16  16   8  16
#     4  11  25  41  63  97 130 166 220 273 331 387
#     4  11  24  43  67  91 130 173 211 273 328 400
#     4  11  24  43  65  96 129 175 214 269 329 389
#     4  11  23  40  68  95 129 167 221 269 319 394
#     4  12  22  40  70  96 126 170 220 260 326 396
#     4  12  24  40  67  98 130 172 216 274 327 388
#
# _framework density 19.648675999999998
#
# number of rings (size 3 to 8) (size 9 to 14) (size 15 to 20)
#    0.000    0.667    6.667    1.667    0.000    0.889 
#    0.000    1.111    0.000    0.000    0.000    0.000 
#    0.000    0.000    0.000    0.000    0.000    0.000 
#
# Total GULP energy -446616.450060 kJ/mol
# GULP energy per Si atom -12406.012502 kJ/mol
# Density = 1.960395 g / cm^3
# Si number density = 19.648676 Si / 1000 Ang^3
#
#
#
# Elastic Constant Matrix: (Units=GPa)
#
#
# Indices 1 2 3 4 5 6 
#
# 1 122.7123 43.0466 37.0432 0.0000 0.0000 0.0000
# 2 43.0466 82.9621 15.8604 0.0000 0.0000 0.0000
# 3 37.0432 15.8604 111.3894 0.0000 0.0000 0.0000
# 4 0.0000 0.0000 0.0000 29.6951 0.0000 0.0000
# 5 0.0000 0.0000 0.0000 0.0000 31.0330 0.0000
# 6 0.0000 0.0000 0.0000 0.0000 0.0000 26.4832
#
#
#
# Elastic Compliance Matrix: (Units=1/GPa)
#
#
# Indices 1 2 3 4 5 6 
#
# 1 0.010786 -0.005048 -0.002868 0.000000 0.000000 0.000000
# 2 -0.005048 0.014754 -0.000422 0.000000 0.000000 0.000000
# 3 -0.002868 -0.000422 0.009991 0.000000 0.000000 0.000000
# 4 0.000000 0.000000 0.000000 0.033676 0.000000 0.000000
# 5 0.000000 0.000000 0.000000 0.000000 0.032224 0.000000
# 6 0.000000 0.000000 0.000000 0.000000 0.000000 0.037760
#
#
# Mechanical properties :
#
#
# Convention : Reuss Voigt Hill
#
# Bulk Modulus (GPa) = 53.03759 56.55157 54.79458
# Shear Modulus (GPa) = 30.83542 32.18316 31.50929
#
# Velocity S-wave (km/s) = 3.96579 4.05153 4.00888
# Velocity P-wave (km/s) = 6.92975 7.12252 7.02680
#
# Compressibility (1/GPa) = 0.01885455
#
# Stress axis : x y z
#
# Youngs Moduli (GPa) = 92.71471 67.77967 100.08617
#
# Poissons Ratio (x) = 0.34216 0.28706
# Poissons Ratio (y) = 0.46803 0.04223
# Poissons Ratio (z) = 0.26591 0.02860
#
# Static dielectric constant tensor:
#      x y z
#    x 3.683560 0.000000 0.000000 
#    y 0.000000 3.531140 0.000000 
#    z 0.000000 0.000000 3.839510 
# 
# 
# High freq. dielectric constant tensor:
#      x y z
#    x 1.758730 0.000000 0.000000 
#    y 0.000000 1.772440 0.000000 
#    z 0.000000 0.000000 1.783810 
# 
# From -- ./inp_files/15804.got.cif
#   From: 2010.03.12/outbox.cif.g09.slc.cpg/sg64_8_cif.got.tgz:15804.got - 2010.04.10 20:19:32.
