data_PCOD8264892
_publ_section_title
;
Structure prediction by ZEFSAII (Michael W. Deem and Ramdas Pophale) SiO2 
 PCOD8264892
Probable space group: C M C A
;
_chemical_formula_sum "Si O2"
_cell_formula_units_Z 80
_cell_length_a 9.163610
_cell_length_b 14.228066
_cell_length_c 29.466733
_cell_angle_alpha 90.000000
_cell_angle_beta 90.000000
_cell_angle_gamma 90.000000
_cell_volume 3841.885846
_symmetry_space_group_name_H-M "C M C A"
_symmetry_group_IT_number 64
_symmetry_cell_setting 'orthorhombic'
loop_
_space_group_symop_operation_xyz
x,y,z
-x,1/2-y,1/2+z
x,-y,-z
-x,1/2+y,1/2-z
-x,-y,-z
x,1/2+y,1/2-z
-x,y,z
x,1/2-y,1/2+z
1/2+x,1/2+y,z
1/2-x,-y,1/2+z
1/2+x,1/2-y,-z
1/2-x,y,1/2-z
1/2-x,1/2-y,-z
1/2+x,y,1/2-z
1/2-x,1/2+y,z
1/2+x,-y,1/2+z
loop_
_atom_site_type_symbol
_atom_site_label
_atom_site_fract_x
_atom_site_fract_y
_atom_site_fract_z
Si Si1 0.333033 0.373295 0.957875
Si Si2 0.334309 0.800001 0.350006
Si Si3 0.827423 0.555511 0.796292
Si Si4 0.166644 0.183261 0.948687
Si Si5 0.669458 0.413648 0.626590
O O1 0.500000 0.383204 0.943278
O O2 0.284567 0.264906 0.955015
O O3 0.243047 0.436530 0.922257
O O4 0.311608 0.397544 0.012128
O O5 0.500000 0.808990 0.332092
O O6 0.226631 0.841658 0.312107
O O7 0.313843 0.857105 0.397678
O O8 0.292406 0.691774 0.357966
O O9 0.750000 0.525581 0.750000
O O10 0.773106 0.482087 0.834208
O O11 0.000000 0.555739 0.789246
O O12 0.000000 0.224030 0.952664
O O13 0.500000 0.429301 0.618993
#
# Coordination Sequence:
#
# PCOD8264892 Si02
#       5
#    16  16  16  16  16
#     4   9  15  25  48  80 109 142 183 219 254 305
#     4   9  18  36  59  81 109 144 179 218 264 314
#     4  11  24  41  59  80 106 137 177 226 277 326
#     4   8  15  28  47  75 112 148 178 213 260 311
#     4   9  20  38  57  79 111 146 177 216 268 321
#
# _framework density 20.823105999999999
#
# number of rings (size 3 to 8) (size 9 to 14) (size 15 to 20)
#    0.000    2.800    0.000    2.400    0.000    6.400 
#    0.000    3.000    0.000    6.000    0.000    0.000 
#    0.000    0.000    0.000    0.000    0.000    0.000 
#
# Total GULP energy -495670.716075 kJ/mol
# GULP energy per Si atom -12391.767902 kJ/mol
# Density = 2.077571 g / cm^3
# Si number density = 20.823106 Si / 1000 Ang^3
#
#
#
# Elastic Constant Matrix: (Units=GPa)
#
#
# Indices 1 2 3 4 5 6 
#
# 1 64.8772 10.7199 40.9763 0.0000 0.0000 0.0000
# 2 10.7199 18.4666 15.0083 0.0000 0.0000 0.0000
# 3 40.9763 15.0083 109.2448 0.0000 0.0000 0.0000
# 4 0.0000 0.0000 0.0000 32.8431 0.0000 0.0000
# 5 0.0000 0.0000 0.0000 0.0000 38.9746 0.0000
# 6 0.0000 0.0000 0.0000 0.0000 0.0000 16.7050
#
#
#
# Elastic Compliance Matrix: (Units=1/GPa)
#
#
# Indices 1 2 3 4 5 6 
#
# 1 0.020865 -0.006474 -0.006937 0.000000 0.000000 0.000000
# 2 -0.006474 0.062967 -0.006222 0.000000 0.000000 0.000000
# 3 -0.006937 -0.006222 0.012610 0.000000 0.000000 0.000000
# 4 0.000000 0.000000 0.000000 0.030448 0.000000 0.000000
# 5 0.000000 0.000000 0.000000 0.000000 0.025658 0.000000
# 6 0.000000 0.000000 0.000000 0.000000 0.000000 0.059862
#
#
# Mechanical properties :
#
#
# Convention : Reuss Voigt Hill
#
# Bulk Modulus (GPa) = 17.48990 36.22195 26.85592
# Shear Modulus (GPa) = 18.46827 26.09683 22.28255
#
# Velocity S-wave (km/s) = 2.98134 3.54399 3.27477
# Velocity P-wave (km/s) = 4.50208 5.84631 5.21766
#
# Compressibility (1/GPa) = 0.05717587
#
# Stress axis : x y z
#
# Youngs Moduli (GPa) = 47.92789 15.88133 79.29977
#
# Poissons Ratio (x) = 0.10282 0.55007
# Poissons Ratio (y) = 0.31031 0.49341
# Poissons Ratio (z) = 0.33246 0.09881
#
# Static dielectric constant tensor:
#      x y z
#    x 3.660060 0.000000 0.000000 
#    y 0.000000 3.324610 0.000000 
#    z 0.000000 0.000000 4.164900 
# 
# 
# High freq. dielectric constant tensor:
#      x y z
#    x 1.810490 0.000000 0.000000 
#    y 0.000000 1.780460 0.000000 
#    z 0.000000 0.000000 1.829180 
# 
# From -- ./inp_files/47895.got.cif
#   From: 2010.03.12/outbox.cif.g09.slc.cpg/sg64_24_cif.got.tgz:47895.got - 2010.04.10 20:19:32.
