data_PCOD8264079
_publ_section_title
;
Structure prediction by ZEFSAII (Michael W. Deem and Ramdas Pophale) SiO2 
 PCOD8264079
Probable space group: C M C A
;
_chemical_formula_sum "Si O2"
_cell_formula_units_Z 80
_cell_length_a 16.607024
_cell_length_b 26.021120
_cell_length_c 8.715698
_cell_angle_alpha 90.000000
_cell_angle_beta 90.000000
_cell_angle_gamma 90.000000
_cell_volume 3766.343899
_symmetry_space_group_name_H-M "C M C A"
_symmetry_group_IT_number 64
_symmetry_cell_setting 'orthorhombic'
loop_
_space_group_symop_operation_xyz
x,y,z
-x,1/2-y,1/2+z
x,-y,-z
-x,1/2+y,1/2-z
-x,-y,-z
x,1/2+y,1/2-z
-x,y,z
x,1/2-y,1/2+z
1/2+x,1/2+y,z
1/2-x,-y,1/2+z
1/2+x,1/2-y,-z
1/2-x,y,1/2-z
1/2-x,1/2-y,-z
1/2+x,y,1/2-z
1/2-x,1/2+y,z
1/2+x,-y,1/2+z
loop_
_atom_site_type_symbol
_atom_site_label
_atom_site_fract_x
_atom_site_fract_y
_atom_site_fract_z
Si Si1 0.908791 0.092331 0.129996
Si Si2 0.316089 0.500000 0.000000
Si Si3 0.090362 0.628447 0.708287
Si Si4 0.750000 0.931217 0.250000
Si Si5 0.089905 0.724540 0.905850
Si Si6 0.341999 0.813655 0.782410
O O1 0.865765 0.126286 0.261930
O O2 0.000000 0.083420 0.181321
O O3 0.901326 0.124815 0.973885
O O4 0.870502 0.035805 0.110470
O O5 0.257856 0.534853 0.900608
O O6 0.166999 0.599529 0.782366
O O7 0.098185 0.687384 0.758548
O O8 0.000000 0.607251 0.756820
O O9 0.109947 0.780815 0.843765
O O10 0.000000 0.725130 0.972797
O O11 0.145104 0.704401 0.043489
O O12 0.250000 0.805037 0.750000
#
# Coordination Sequence:
#
# PCOD8264079 Si02
#       6
#    16   8  16   8  16  16
#     4  10  21  41  63  88 121 165 215 266 316 379
#     4  10  23  38  63  90 118 166 208 266 322 382
#     4   9  21  39  64  90 120 164 212 255 314 383
#     4  10  22  38  64  84 130 156 210 266 330 370
#     4  11  23  41  62  90 128 171 209 252 313 385
#     4  12  26  38  63  95 131 163 211 260 317 380
#
# _framework density 21.240759000000001
#
# number of rings (size 3 to 8) (size 9 to 14) (size 15 to 20)
#    0.000    1.600    0.000    3.900    8.400    2.400 
#    0.000    0.500    0.000    0.000    0.000    0.000 
#    0.000    0.000    0.000    0.000    0.000    0.000 
#
# Total GULP energy -495915.071801 kJ/mol
# GULP energy per Si atom -12397.876795 kJ/mol
# Density = 2.119241 g / cm^3
# Si number density = 21.240759 Si / 1000 Ang^3
#
#
#
# Elastic Constant Matrix: (Units=GPa)
#
#
# Indices 1 2 3 4 5 6 
#
# 1 122.3375 25.9025 5.9115 0.0000 0.0000 0.0000
# 2 25.9025 98.1820 5.7724 0.0000 0.0000 0.0000
# 3 5.9115 5.7724 28.6534 0.0000 0.0000 0.0000
# 4 0.0000 0.0000 0.0000 29.9193 0.0000 0.0000
# 5 0.0000 0.0000 0.0000 0.0000 20.9663 0.0000
# 6 0.0000 0.0000 0.0000 0.0000 0.0000 25.6507
#
#
#
# Elastic Compliance Matrix: (Units=1/GPa)
#
#
# Indices 1 2 3 4 5 6 
#
# 1 0.008709 -0.002218 -0.001350 0.000000 0.000000 0.000000
# 2 -0.002218 0.010872 -0.001733 0.000000 0.000000 0.000000
# 3 -0.001350 -0.001733 0.035527 0.000000 0.000000 0.000000
# 4 0.000000 0.000000 0.000000 0.033423 0.000000 0.000000
# 5 0.000000 0.000000 0.000000 0.000000 0.047696 0.000000
# 6 0.000000 0.000000 0.000000 0.000000 0.000000 0.038985
#
#
# Mechanical properties :
#
#
# Convention : Reuss Voigt Hill
#
# Bulk Modulus (GPa) = 22.46833 36.03842 29.25337
# Shear Modulus (GPa) = 24.91899 29.41301 27.16600
#
# Velocity S-wave (km/s) = 3.42887 3.72525 3.58013
# Velocity P-wave (km/s) = 5.12612 5.95876 5.55805
#
# Compressibility (1/GPa) = 0.04450710
#
# Stress axis : x y z
#
# Youngs Moduli (GPa) = 114.82364 91.97726 28.14732
#
# Poissons Ratio (x) = 0.20403 0.03800
# Poissons Ratio (y) = 0.25471 0.04877
# Poissons Ratio (z) = 0.15500 0.15936
#
# Static dielectric constant tensor:
#      x y z
#    x 4.065710 0.000000 0.000000 
#    y 0.000000 3.935150 0.000000 
#    z 0.000000 0.000000 3.639560 
# 
# 
# High freq. dielectric constant tensor:
#      x y z
#    x 1.847900 0.000000 0.000000 
#    y 0.000000 1.833120 0.000000 
#    z 0.000000 0.000000 1.818790 
# 
# From -- ./inp_files/7184.got.cif
#   From: 2010.03.12/outbox.cif.g09.slc.cpg/sg64_4_cif.got.tgz:7184.got - 2010.04.10 20:19:32.
