data_PCOD8264754
_publ_section_title
;
Structure prediction by ZEFSAII (Michael W. Deem and Ramdas Pophale) SiO2 
 PCOD8264754
Probable space group: C M C A
;
_chemical_formula_sum "Si O2"
_cell_formula_units_Z 64
_cell_length_a 9.007851
_cell_length_b 22.811282
_cell_length_c 19.248930
_cell_angle_alpha 90.000000
_cell_angle_beta 90.000000
_cell_angle_gamma 90.000000
_cell_volume 3955.282251
_symmetry_space_group_name_H-M "C M C A"
_symmetry_group_IT_number 64
_symmetry_cell_setting 'orthorhombic'
loop_
_space_group_symop_operation_xyz
x,y,z
-x,1/2-y,1/2+z
x,-y,-z
-x,1/2+y,1/2-z
-x,-y,-z
x,1/2+y,1/2-z
-x,y,z
x,1/2-y,1/2+z
1/2+x,1/2+y,z
1/2-x,-y,1/2+z
1/2+x,1/2-y,-z
1/2-x,y,1/2-z
1/2-x,1/2-y,-z
1/2+x,y,1/2-z
1/2-x,1/2+y,z
1/2+x,-y,1/2+z
loop_
_atom_site_type_symbol
_atom_site_label
_atom_site_fract_x
_atom_site_fract_y
_atom_site_fract_z
Si Si1 0.672528 0.489368 0.323561
Si Si2 0.332024 0.922674 0.441271
Si Si3 0.832730 0.690596 0.483536
Si Si4 0.327851 0.590121 0.426249
O O1 0.500000 0.474677 0.315065
O O2 0.750000 0.487513 0.250000
O O3 0.744117 0.440019 0.372348
O O4 0.697139 0.554069 0.355654
O O5 0.500000 0.947256 0.438300
O O6 0.332245 0.851286 0.447880
O O7 0.249550 0.946824 0.510952
O O8 0.750000 0.750000 0.500000
O O9 0.748748 0.654654 0.421413
O O10 0.000000 0.704556 0.459267
O O11 0.500000 0.598040 0.443891
#
# Coordination Sequence:
#
# PCOD8264754 Si02
#       4
#    16  16  16  16
#     4  11  22  33  49  72 102 136 165 201 246 293
#     4   9  19  32  50  74 100 129 163 204 246 290
#     4   9  18  30  50  76  99 127 161 205 247 287
#     4   9  18  32  50  73 100 129 164 203 245 292
#
# _framework density 16.180893000000001
#
# number of rings (size 3 to 8) (size 9 to 14) (size 15 to 20)
#    1.500    1.000    0.000    3.000    0.000    7.000 
#    0.000    0.000    0.000    1.500    0.000    7.000 
#    0.000    0.000    0.000    0.000    0.000    0.000 
#
# Total GULP energy -396451.483220 kJ/mol
# GULP energy per Si atom -12389.108851 kJ/mol
# Density = 1.614406 g / cm^3
# Si number density = 16.180893 Si / 1000 Ang^3
#
#
#
# Elastic Constant Matrix: (Units=GPa)
#
#
# Indices 1 2 3 4 5 6 
#
# 1 135.3270 18.7852 36.3365 0.0000 0.0000 0.0000
# 2 18.7852 34.5730 -3.3080 0.0000 0.0000 0.0000
# 3 36.3365 -3.3080 81.5756 0.0000 0.0000 0.0000
# 4 0.0000 0.0000 0.0000 7.7941 0.0000 0.0000
# 5 0.0000 0.0000 0.0000 0.0000 28.1139 0.0000
# 6 0.0000 0.0000 0.0000 0.0000 0.0000 26.0784
#
#
#
# Elastic Compliance Matrix: (Units=1/GPa)
#
#
# Indices 1 2 3 4 5 6 
#
# 1 0.009326 -0.005486 -0.004377 0.000000 0.000000 0.000000
# 2 -0.005486 0.032264 0.003752 0.000000 0.000000 0.000000
# 3 -0.004377 0.003752 0.014360 0.000000 0.000000 0.000000
# 4 0.000000 0.000000 0.000000 0.128302 0.000000 0.000000
# 5 0.000000 0.000000 0.000000 0.000000 0.035570 0.000000
# 6 0.000000 0.000000 0.000000 0.000000 0.000000 0.038346
#
#
# Mechanical properties :
#
#
# Convention : Reuss Voigt Hill
#
# Bulk Modulus (GPa) = 22.86804 39.45589 31.16197
# Shear Modulus (GPa) = 17.54595 25.70808 21.62701
#
# Velocity S-wave (km/s) = 3.29654 3.99029 3.65989
# Velocity P-wave (km/s) = 5.35285 6.75774 6.09590
#
# Compressibility (1/GPa) = 0.04372915
#
# Stress axis : x y z
#
# Youngs Moduli (GPa) = 107.22425 30.99407 69.63665
#
# Poissons Ratio (x) = 0.17004 0.30478
# Poissons Ratio (y) = 0.58825 -0.26128
# Poissons Ratio (z) = 0.46929 -0.11629
#
# Static dielectric constant tensor:
#      x y z
#    x 3.271940 0.000000 0.000000 
#    y 0.000000 2.903120 0.000000 
#    z 0.000000 0.000000 2.711190 
# 
# 
# High freq. dielectric constant tensor:
#      x y z
#    x 1.648960 0.000000 0.000000 
#    y 0.000000 1.611910 0.000000 
#    z 0.000000 0.000000 1.581150 
# 
# From -- ./inp_files/29436.got.cif
#   From: 2010.03.12/outbox.cif.g09.slc.cpg/sg64_15_cif.got.tgz:29436.got - 2010.04.10 20:19:32.
