data_PCOD8264634
_publ_section_title
;
Structure prediction by ZEFSAII (Michael W. Deem and Ramdas Pophale) SiO2 
 PCOD8264634
Probable space group: C M C A
;
_chemical_formula_sum "Si O2"
_cell_formula_units_Z 96
_cell_length_a 16.662187
_cell_length_b 20.580320
_cell_length_c 16.567998
_cell_angle_alpha 90.000000
_cell_angle_beta 90.000000
_cell_angle_gamma 90.000000
_cell_volume 5681.384224
_symmetry_space_group_name_H-M "C M C A"
_symmetry_group_IT_number 64
_symmetry_cell_setting 'orthorhombic'
loop_
_space_group_symop_operation_xyz
x,y,z
-x,1/2-y,1/2+z
x,-y,-z
-x,1/2+y,1/2-z
-x,-y,-z
x,1/2+y,1/2-z
-x,y,z
x,1/2-y,1/2+z
1/2+x,1/2+y,z
1/2-x,-y,1/2+z
1/2+x,1/2-y,-z
1/2-x,y,1/2-z
1/2-x,1/2-y,-z
1/2+x,y,1/2-z
1/2-x,1/2+y,z
1/2+x,-y,1/2+z
loop_
_atom_site_type_symbol
_atom_site_label
_atom_site_fract_x
_atom_site_fract_y
_atom_site_fract_z
Si Si1 0.261720 0.810387 0.057120
Si Si2 0.671971 0.243268 0.695766
Si Si3 0.590315 0.237060 0.850054
Si Si4 0.827250 0.614080 0.194608
Si Si5 0.238421 0.434819 0.550171
Si Si6 0.591072 0.609815 0.149414
O O1 0.190644 0.807391 0.124338
O O2 0.350142 0.805924 0.096162
O O3 0.250000 0.750000 0.000000
O O4 0.252839 0.877424 0.012134
O O5 0.750000 0.251353 0.750000
O O6 0.600803 0.218842 0.754859
O O7 0.651008 0.314513 0.658933
O O8 0.500000 0.220600 0.876808
O O9 0.609966 0.313569 0.860781
O O10 0.750000 0.620260 0.250000
O O11 0.808117 0.566565 0.119247
O O12 0.896900 0.589303 0.255875
O O13 0.245701 0.500000 0.500000
O O14 0.150535 0.429445 0.590638
O O15 0.500000 0.593144 0.124645
#
# Coordination Sequence:
#
# PCOD8264634 Si02
#       6
#    16  16  16  16  16  16
#     4  11  17  31  53  74 102 136 164 211 263 302
#     4   8  14  27  49  70  92 128 170 208 250 295
#     4   9  17  31  52  79 105 132 171 215 256 301
#     4   8  14  29  49  68  92 129 173 205 235 296
#     4  11  21  32  50  78 108 136 173 211 251 304
#     4   9  17  32  54  77 101 133 171 211 256 306
#
# _framework density 16.897290999999999
#
# number of rings (size 3 to 8) (size 9 to 14) (size 15 to 20)
#    0.000    2.667    3.333    2.000    0.000    0.333 
#    0.000   10.000    0.000    4.000    0.000    0.000 
#    0.000    0.000    0.000    0.000    0.000    0.000 
#
# Total GULP energy -594718.860134 kJ/mol
# GULP energy per Si atom -12389.976253 kJ/mol
# Density = 1.685883 g / cm^3
# Si number density = 16.897291 Si / 1000 Ang^3
#
#
#
# Elastic Constant Matrix: (Units=GPa)
#
#
# Indices 1 2 3 4 5 6 
#
# 1 73.3079 28.5574 39.5448 0.0000 0.0000 0.0000
# 2 28.5574 87.7389 60.0725 0.0000 0.0000 0.0000
# 3 39.5448 60.0725 109.1770 0.0000 0.0000 0.0000
# 4 0.0000 0.0000 0.0000 28.8409 0.0000 0.0000
# 5 0.0000 0.0000 0.0000 0.0000 22.9987 0.0000
# 6 0.0000 0.0000 0.0000 0.0000 0.0000 11.0271
#
#
#
# Elastic Compliance Matrix: (Units=1/GPa)
#
#
# Indices 1 2 3 4 5 6 
#
# 1 0.017200 -0.002138 -0.005053 0.000000 0.000000 0.000000
# 2 -0.002138 0.018552 -0.009434 0.000000 0.000000 0.000000
# 3 -0.005053 -0.009434 0.016180 0.000000 0.000000 0.000000
# 4 0.000000 0.000000 0.000000 0.034673 0.000000 0.000000
# 5 0.000000 0.000000 0.000000 0.000000 0.043481 0.000000
# 6 0.000000 0.000000 0.000000 0.000000 0.000000 0.090686
#
#
# Mechanical properties :
#
#
# Convention : Reuss Voigt Hill
#
# Bulk Modulus (GPa) = 53.52676 58.50813 56.01745
# Shear Modulus (GPa) = 19.21225 22.04328 20.62777
#
# Velocity S-wave (km/s) = 3.37560 3.61577 3.49775
# Velocity P-wave (km/s) = 6.85124 7.22029 7.03818
#
# Compressibility (1/GPa) = 0.01868224
#
# Stress axis : x y z
#
# Youngs Moduli (GPa) = 58.13923 53.90155 61.80298
#
# Poissons Ratio (x) = 0.11526 0.31232
# Poissons Ratio (y) = 0.12432 0.58302
# Poissons Ratio (z) = 0.29380 0.50848
#
# Static dielectric constant tensor:
#      x y z
#    x 3.800260 0.000000 0.000000 
#    y 0.000000 2.557090 0.000000 
#    z 0.000000 0.000000 3.579030 
# 
# 
# High freq. dielectric constant tensor:
#      x y z
#    x 1.637030 0.000000 0.000000 
#    y 0.000000 1.602950 0.000000 
#    z 0.000000 0.000000 1.659790 
# 
# From -- ./inp_files/33294.got.cif
#   From: 2010.03.12/outbox.cif.g09.slc.cpg/sg64_17_cif.got.tgz:33294.got - 2010.04.10 20:19:32.
