data_PCOD8264990
_publ_section_title
;
Structure prediction by ZEFSAII (Michael W. Deem and Ramdas Pophale) SiO2 
 PCOD8264990
Probable space group: C M C A
;
_chemical_formula_sum "Si O2"
_cell_formula_units_Z 112
_cell_length_a 27.274114
_cell_length_b 14.325025
_cell_length_c 14.466226
_cell_angle_alpha 90.000000
_cell_angle_beta 90.000000
_cell_angle_gamma 90.000000
_cell_volume 5651.988709
_symmetry_space_group_name_H-M "C M C A"
_symmetry_group_IT_number 64
_symmetry_cell_setting 'orthorhombic'
loop_
_space_group_symop_operation_xyz
x,y,z
-x,1/2-y,1/2+z
x,-y,-z
-x,1/2+y,1/2-z
-x,-y,-z
x,1/2+y,1/2-z
-x,y,z
x,1/2-y,1/2+z
1/2+x,1/2+y,z
1/2-x,-y,1/2+z
1/2+x,1/2-y,-z
1/2-x,y,1/2-z
1/2-x,1/2-y,-z
1/2+x,y,1/2-z
1/2-x,1/2+y,z
1/2+x,-y,1/2+z
loop_
_atom_site_type_symbol
_atom_site_label
_atom_site_fract_x
_atom_site_fract_y
_atom_site_fract_z
Si Si1 0.815549 0.634079 0.879417
Si Si2 0.554606 0.975386 0.647655
Si Si3 0.945190 0.154478 0.978869
Si Si4 0.150619 0.240084 0.453342
Si Si5 0.292703 0.085205 0.568930
Si Si6 0.652793 0.494970 0.765697
Si Si7 0.192687 0.702786 0.247542
O O1 0.757442 0.620093 0.886349
O O2 0.837990 0.540696 0.834328
O O3 0.830982 0.722286 0.816752
O O4 0.838337 0.651964 0.980510
O O5 0.500000 0.966128 0.690395
O O6 0.565206 0.889059 0.579491
O O7 0.559796 0.072720 0.595146
O O8 0.594821 0.973039 0.728548
O O9 0.907166 0.236970 0.956568
O O10 0.000000 0.197268 0.975262
O O11 0.182135 0.330109 0.487762
O O12 0.167784 0.212965 0.351723
O O13 0.329914 0.063021 0.652175
O O14 0.283636 0.000000 0.500000
O O15 0.683864 0.401842 0.781186
O O16 0.250000 0.722405 0.250000
#
# Coordination Sequence:
#
# PCOD8264990 Si02
#       7
#    16  16  16  16  16  16  16
#     4  12  25  41  58  92 128 164 211 253 308 378
#     4   9  17  34  61  90 117 152 206 267 318 363
#     4   9  17  34  61  91 117 152 208 268 317 367
#     4  12  24  39  62  87 129 167 206 258 315 370
#     4  12  23  39  63  89 118 164 213 257 311 369
#     4  12  24  39  62  88 128 163 208 260 311 370
#     4  12  24  41  59  88 125 168 207 258 308 373
#
# _framework density 19.816033000000001
#
# number of rings (size 3 to 8) (size 9 to 14) (size 15 to 20)
#    0.000    0.857    4.286    5.143    4.000    0.000 
#    0.000    1.429    0.000    5.143    0.000    2.000 
#    0.000    0.000    0.000    0.000    0.000    0.000 
#
# Total GULP energy -694524.858346 kJ/mol
# GULP energy per Si atom -12402.229613 kJ/mol
# Density = 1.977093 g / cm^3
# Si number density = 19.816033 Si / 1000 Ang^3
#
#
#
# Elastic Constant Matrix: (Units=GPa)
#
#
# Indices 1 2 3 4 5 6 
#
# 1 138.4234 19.8649 39.3333 0.0000 0.0000 0.0000
# 2 19.8649 52.8338 15.2879 0.0000 0.0000 0.0000
# 3 39.3333 15.2879 80.0289 0.0000 0.0000 0.0000
# 4 0.0000 0.0000 0.0000 35.7358 0.0000 0.0000
# 5 0.0000 0.0000 0.0000 0.0000 16.6032 0.0000
# 6 0.0000 0.0000 0.0000 0.0000 0.0000 11.5108
#
#
#
# Elastic Compliance Matrix: (Units=1/GPa)
#
#
# Indices 1 2 3 4 5 6 
#
# 1 0.008618 -0.002133 -0.003828 0.000000 0.000000 0.000000
# 2 -0.002133 0.020562 -0.002880 0.000000 0.000000 0.000000
# 3 -0.003828 -0.002880 0.014927 0.000000 0.000000 0.000000
# 4 0.000000 0.000000 0.000000 0.027983 0.000000 0.000000
# 5 0.000000 0.000000 0.000000 0.000000 0.060229 0.000000
# 6 0.000000 0.000000 0.000000 0.000000 0.000000 0.086875
#
#
# Mechanical properties :
#
#
# Convention : Reuss Voigt Hill
#
# Bulk Modulus (GPa) = 37.84125 46.69535 42.26830
# Shear Modulus (GPa) = 20.35123 25.88995 23.12059
#
# Velocity S-wave (km/s) = 3.20817 3.61850 3.41950
# Velocity P-wave (km/s) = 5.73244 6.40887 6.08007
#
# Compressibility (1/GPa) = 0.02642619
#
# Stress axis : x y z
#
# Youngs Moduli (GPa) = 116.03525 48.63238 66.99187
#
# Poissons Ratio (x) = 0.10371 0.25646
# Poissons Ratio (y) = 0.24745 0.19293
# Poissons Ratio (z) = 0.44422 0.14006
#
# Static dielectric constant tensor:
#      x y z
#    x 3.745280 0.000000 0.000000 
#    y 0.000000 3.645960 0.000000 
#    z 0.000000 0.000000 3.467550 
# 
# 
# High freq. dielectric constant tensor:
#      x y z
#    x 1.770080 0.000000 0.000000 
#    y 0.000000 1.765290 0.000000 
#    z 0.000000 0.000000 1.758660 
# 
# From -- ./inp_files/28110.got.cif
#   From: 2010.03.12/outbox.cif.g09.slc.cpg/sg64_15_cif.got.tgz:28110.got - 2010.04.10 20:19:32.
