data_PCOD8264741
_publ_section_title
;
Structure prediction by ZEFSAII (Michael W. Deem and Ramdas Pophale) SiO2 
 PCOD8264741
Probable space group: C M C A
;
_chemical_formula_sum "Si O2"
_cell_formula_units_Z 64
_cell_length_a 21.670439
_cell_length_b 7.559719
_cell_length_c 14.428953
_cell_angle_alpha 90.000000
_cell_angle_beta 90.000000
_cell_angle_gamma 90.000000
_cell_volume 2363.786135
_symmetry_space_group_name_H-M "C M C A"
_symmetry_group_IT_number 64
_symmetry_cell_setting 'orthorhombic'
loop_
_space_group_symop_operation_xyz
x,y,z
-x,1/2-y,1/2+z
x,-y,-z
-x,1/2+y,1/2-z
-x,-y,-z
x,1/2+y,1/2-z
-x,y,z
x,1/2-y,1/2+z
1/2+x,1/2+y,z
1/2-x,-y,1/2+z
1/2+x,1/2-y,-z
1/2-x,y,1/2-z
1/2-x,1/2-y,-z
1/2+x,y,1/2-z
1/2-x,1/2+y,z
1/2+x,-y,1/2+z
loop_
_atom_site_type_symbol
_atom_site_label
_atom_site_fract_x
_atom_site_fract_y
_atom_site_fract_z
Si Si1 0.151444 0.707112 0.578787
Si Si2 0.369288 0.246483 0.872412
Si Si3 0.739741 0.504079 0.645836
Si Si4 0.071862 0.092238 0.290274
O O1 0.119982 0.697725 0.478563
O O2 0.192407 0.529641 0.599057
O O3 0.097305 0.736012 0.653781
O O4 0.199007 0.872263 0.584108
O O5 0.297486 0.193152 0.852440
O O6 0.391443 0.409311 0.807744
O O7 0.414269 0.082612 0.848707
O O8 0.750000 0.436131 0.750000
O O9 0.000000 0.118096 0.273205
#
# Coordination Sequence:
#
# PCOD8264741 Si02
#       4
#    16  16  16  16
#     4  11  25  44  69 107 138 185 224 283 351 415
#     4  11  25  44  67  99 140 180 227 282 350 408
#     4  11  21  41  70 103 147 178 224 284 350 415
#     4  11  24  45  70  99 134 181 235 284 335 404
#
# _framework density 27.075206999999999
#
# number of rings (size 3 to 8) (size 9 to 14) (size 15 to 20)
#    0.000    1.000    2.500    5.250    3.500    3.000 
#    0.000    1.250    0.000    3.000    0.000    0.000 
#    0.000    0.000    0.000    0.000    0.000    0.000 
#
# Total GULP energy -397036.767296 kJ/mol
# GULP energy per Si atom -12407.398978 kJ/mol
# Density = 2.701358 g / cm^3
# Si number density = 27.075207 Si / 1000 Ang^3
#
#
#
# Elastic Constant Matrix: (Units=GPa)
#
#
# Indices 1 2 3 4 5 6 
#
# 1 168.2032 -0.0119 51.8284 0.0000 0.0000 0.0000
# 2 -0.0119 67.8892 24.8277 0.0000 0.0000 0.0000
# 3 51.8284 24.8277 204.4146 0.0000 0.0000 0.0000
# 4 0.0000 0.0000 0.0000 37.6337 0.0000 0.0000
# 5 0.0000 0.0000 0.0000 0.0000 20.4919 0.0000
# 6 0.0000 0.0000 0.0000 0.0000 0.0000 38.4926
#
#
#
# Elastic Compliance Matrix: (Units=1/GPa)
#
#
# Indices 1 2 3 4 5 6 
#
# 1 0.006475 0.000629 -0.001718 0.000000 0.000000 0.000000
# 2 0.000629 0.015476 -0.002039 0.000000 0.000000 0.000000
# 3 -0.001718 -0.002039 0.005575 0.000000 0.000000 0.000000
# 4 0.000000 0.000000 0.000000 0.026572 0.000000 0.000000
# 5 0.000000 0.000000 0.000000 0.000000 0.048800 0.000000
# 6 0.000000 0.000000 0.000000 0.000000 0.000000 0.025979
#
#
# Mechanical properties :
#
#
# Convention : Reuss Voigt Hill
#
# Bulk Modulus (GPa) = 47.01462 65.97726 56.49594
# Shear Modulus (GPa) = 35.15626 43.58117 39.36871
#
# Velocity S-wave (km/s) = 3.60733 4.01638 3.81734
# Velocity P-wave (km/s) = 5.89514 6.77712 6.35146
#
# Compressibility (1/GPa) = 0.02126998
#
# Stress axis : x y z
#
# Youngs Moduli (GPa) = 154.44924 64.61717 179.36239
#
# Poissons Ratio (x) = -0.04067 0.30816
# Poissons Ratio (y) = -0.09722 0.36576
# Poissons Ratio (z) = 0.26535 0.13177
#
# Static dielectric constant tensor:
#      x y z
#    x 4.749560 0.000000 0.000000 
#    y 0.000000 5.308370 0.000000 
#    z 0.000000 0.000000 4.750940 
# 
# 
# High freq. dielectric constant tensor:
#      x y z
#    x 2.067780 0.000000 0.000000 
#    y 0.000000 2.127560 0.000000 
#    z 0.000000 0.000000 2.093470 
# 
# From -- ./inp_files/26907.got.cif
#   From: 2010.03.12/outbox.cif.g09.slc.cpg/sg64_14_cif.got.tgz:26907.got - 2010.04.10 20:19:32.
