data_PCOD8264627
_publ_section_title
;
Structure prediction by ZEFSAII (Michael W. Deem and Ramdas Pophale) SiO2 
 PCOD8264627
Probable space group: C M C A
;
_chemical_formula_sum "Si O2"
_cell_formula_units_Z 72
_cell_length_a 21.659387
_cell_length_b 14.124810
_cell_length_c 9.194441
_cell_angle_alpha 90.000000
_cell_angle_beta 90.000000
_cell_angle_gamma 90.000000
_cell_volume 2812.898789
_symmetry_space_group_name_H-M "C M C A"
_symmetry_group_IT_number 64
_symmetry_cell_setting 'orthorhombic'
loop_
_space_group_symop_operation_xyz
x,y,z
-x,1/2-y,1/2+z
x,-y,-z
-x,1/2+y,1/2-z
-x,-y,-z
x,1/2+y,1/2-z
-x,y,z
x,1/2-y,1/2+z
1/2+x,1/2+y,z
1/2-x,-y,1/2+z
1/2+x,1/2-y,-z
1/2-x,y,1/2-z
1/2-x,1/2-y,-z
1/2+x,y,1/2-z
1/2-x,1/2+y,z
1/2+x,-y,1/2+z
loop_
_atom_site_type_symbol
_atom_site_label
_atom_site_fract_x
_atom_site_fract_y
_atom_site_fract_z
Si Si1 0.000000 0.139918 0.111749
Si Si2 0.806561 0.585523 0.596117
Si Si3 0.750000 0.256239 0.250000
Si Si4 0.622486 0.920456 0.121150
Si Si5 0.629134 0.789904 0.610459
Si Si6 0.500000 0.424395 0.201755
O O1 0.938755 0.191077 0.179545
O O2 0.000000 0.032177 0.154539
O O3 0.000000 0.147140 0.935731
O O4 0.778068 0.500000 0.500000
O O5 0.758641 0.672818 0.610085
O O6 0.826567 0.550503 0.756687
O O7 0.866281 0.630052 0.515038
O O8 0.687727 0.194615 0.277858
O O9 0.635678 0.817311 0.051229
O O10 0.557800 0.906599 0.197162
O O11 0.622185 0.000000 0.000000
#
# Coordination Sequence:
#
# PCOD8264627 Si02
#       6
#     8  16   8  16  16   8
#     4  11  23  43  82 109 148 200 255 312 385 455
#     4  11  24  46  75 105 148 200 255 315 389 463
#     4  10  26  44  72 112 154 198 262 316 386 458
#     4  11  25  44  69 111 156 196 251 319 383 461
#     4  11  24  46  72 111 153 202 251 317 385 462
#     4  11  22  45  71 113 150 197 244 313 381 453
#
# _framework density 25.596371000000001
#
# number of rings (size 3 to 8) (size 9 to 14) (size 15 to 20)
#    0.000    1.111    2.222    3.000    0.000   11.556 
#    4.000    0.000    0.000    0.000    0.000    0.000 
#    0.000    0.000    0.000    0.000    0.000    0.000 
#
# Total GULP energy -446089.821369 kJ/mol
# GULP energy per Si atom -12391.383927 kJ/mol
# Density = 2.553811 g / cm^3
# Si number density = 25.596371 Si / 1000 Ang^3
#
#
#
# Elastic Constant Matrix: (Units=GPa)
#
#
# Indices 1 2 3 4 5 6 
#
# 1 173.7899 16.3401 28.6028 0.0000 0.0000 0.0000
# 2 16.3401 102.0316 36.7245 0.0000 0.0000 0.0000
# 3 28.6028 36.7245 90.6003 0.0000 0.0000 0.0000
# 4 0.0000 0.0000 0.0000 31.6517 0.0000 0.0000
# 5 0.0000 0.0000 0.0000 0.0000 35.5766 0.0000
# 6 0.0000 0.0000 0.0000 0.0000 0.0000 -68.0649
#
#
#
# Elastic Compliance Matrix: (Units=1/GPa)
#
#
# Indices 1 2 3 4 5 6 
#
# 1 0.006079 -0.000331 -0.001785 0.000000 0.000000 0.000000
# 2 -0.000331 0.011493 -0.004554 0.000000 0.000000 0.000000
# 3 -0.001785 -0.004554 0.013447 0.000000 0.000000 0.000000
# 4 0.000000 0.000000 0.000000 0.031594 0.000000 0.000000
# 5 0.000000 0.000000 0.000000 0.000000 0.028108 0.000000
# 6 0.000000 0.000000 0.000000 0.000000 0.000000 -0.014692
#
#
# Mechanical properties :
#
#
# Convention : Reuss Voigt Hill
#
# Bulk Modulus (GPa) = 56.56520 58.86185 57.71353
# Shear Modulus (GPa) = 52.48640 18.81631 35.65135
#
# Velocity S-wave (km/s) = 4.53320 2.71424 3.73611
# Velocity P-wave (km/s) = 7.03895 5.73314 6.41933
#
# Compressibility (1/GPa) = 0.01767871
#
# Stress axis : x y z
#
# Youngs Moduli (GPa) = 164.50146 87.00868 74.36590
#
# Poissons Ratio (x) = 0.02881 0.13274
# Poissons Ratio (y) = 0.05446 0.33868
# Poissons Ratio (z) = 0.29363 0.39625
#
# Static dielectric constant tensor:
#      x y z
#    x 5.077510 0.000000 0.000000 
#    y 0.000000 4.475070 0.000000 
#    z 0.000000 0.000000 4.494500 
# 
# 
# High freq. dielectric constant tensor:
#      x y z
#    x 2.046020 0.000000 0.000000 
#    y 0.000000 2.020170 0.000000 
#    z 0.000000 0.000000 1.996760 
# 
# From -- ./inp_files/10064.got.cif
#   From: 2010.03.12/outbox.cif.g09.slc.cpg/sg64_6_cif.got.tgz:10064.got - 2010.04.10 20:19:32.
