data_PCOD8264417
_publ_section_title
;
Structure prediction by ZEFSAII (Michael W. Deem and Ramdas Pophale) SiO2 
 PCOD8264417
Probable space group: C M C A
;
_chemical_formula_sum "Si O2"
_cell_formula_units_Z 112
_cell_length_a 13.611341
_cell_length_b 26.422377
_cell_length_c 14.745358
_cell_angle_alpha 90.000000
_cell_angle_beta 90.000000
_cell_angle_gamma 90.000000
_cell_volume 5303.079287
_symmetry_space_group_name_H-M "C M C A"
_symmetry_group_IT_number 64
_symmetry_cell_setting 'orthorhombic'
loop_
_space_group_symop_operation_xyz
x,y,z
-x,1/2-y,1/2+z
x,-y,-z
-x,1/2+y,1/2-z
-x,-y,-z
x,1/2+y,1/2-z
-x,y,z
x,1/2-y,1/2+z
1/2+x,1/2+y,z
1/2-x,-y,1/2+z
1/2+x,1/2-y,-z
1/2-x,y,1/2-z
1/2-x,1/2-y,-z
1/2+x,y,1/2-z
1/2-x,1/2+y,z
1/2+x,-y,1/2+z
loop_
_atom_site_type_symbol
_atom_site_label
_atom_site_fract_x
_atom_site_fract_y
_atom_site_fract_z
Si Si1 0.616639 0.056961 0.498690
Si Si2 0.616875 0.339791 0.535949
Si Si3 0.616745 0.367693 0.150442
Si Si4 0.225762 0.884940 0.844999
Si Si5 0.110156 0.213761 0.155001
Si Si6 0.383952 0.325954 0.334912
Si Si7 0.109576 0.728439 0.554779
O O1 0.500000 0.057357 0.496241
O O2 0.655360 0.085022 0.590848
O O3 0.651261 0.083385 0.406387
O O4 0.658266 0.000000 0.500000
O O5 0.500000 0.345035 0.549385
O O6 0.672994 0.379338 0.598807
O O7 0.648631 0.349131 0.431383
O O8 0.658630 0.283797 0.563164
O O9 0.500000 0.365876 0.140361
O O10 0.648526 0.366382 0.256701
O O11 0.664620 0.315540 0.111293
O O12 0.250000 0.913759 0.750000
O O13 0.177945 0.832028 0.811417
O O14 0.155281 0.268656 0.183286
O O15 0.000000 0.206620 0.195152
O O16 0.105825 0.209565 0.047184
O O17 0.500000 0.319055 0.338507
O O18 0.000000 0.734461 0.593860
#
# Coordination Sequence:
#
# PCOD8264417 Si02
#       7
#    16  16  16  16  16  16  16
#     4  10  22  44  70  90 112 145 195 260 314 343
#     4   9  20  37  52  77 123 170 195 225 285 358
#     4   9  15  29  57  88 113 146 192 242 290 340
#     4  12  25  37  56  88 117 154 197 245 288 350
#     4   9  17  33  53  77 117 158 191 236 288 344
#     4   8  16  30  52  82 119 160 197 231 281 356
#     4   8  14  27  50  77 112 155 192 229 277 340
#
# _framework density 21.119806000000001
#
# number of rings (size 3 to 8) (size 9 to 14) (size 15 to 20)
#    0.000    2.714    1.429    2.143    2.000    3.429 
#    0.000    2.143    0.000    0.429    0.000    0.000 
#    0.000    0.000    0.000    0.000    0.000    0.000 
#
# Total GULP energy -693860.592563 kJ/mol
# GULP energy per Si atom -12390.367724 kJ/mol
# Density = 2.107174 g / cm^3
# Si number density = 21.119806 Si / 1000 Ang^3
#
#
#
# Elastic Constant Matrix: (Units=GPa)
#
#
# Indices 1 2 3 4 5 6 
#
# 1 44.4341 19.0884 16.1531 0.0000 0.0000 0.0000
# 2 19.0884 89.2377 65.5914 0.0000 0.0000 0.0000
# 3 16.1531 65.5914 141.0879 0.0000 0.0000 0.0000
# 4 0.0000 0.0000 0.0000 20.4095 0.0000 0.0000
# 5 0.0000 0.0000 0.0000 0.0000 18.5265 0.0000
# 6 0.0000 0.0000 0.0000 0.0000 0.0000 14.6612
#
#
#
# Elastic Compliance Matrix: (Units=1/GPa)
#
#
# Indices 1 2 3 4 5 6 
#
# 1 0.024812 -0.004891 -0.000567 0.000000 0.000000 0.000000
# 2 -0.004891 0.017987 -0.007802 0.000000 0.000000 0.000000
# 3 -0.000567 -0.007802 0.010780 0.000000 0.000000 0.000000
# 4 0.000000 0.000000 0.000000 0.048997 0.000000 0.000000
# 5 0.000000 0.000000 0.000000 0.000000 0.053977 0.000000
# 6 0.000000 0.000000 0.000000 0.000000 0.000000 0.068207
#
#
# Mechanical properties :
#
#
# Convention : Reuss Voigt Hill
#
# Bulk Modulus (GPa) = 36.95576 52.93617 44.94597
# Shear Modulus (GPa) = 19.20863 22.31454 20.76159
#
# Velocity S-wave (km/s) = 3.01908 3.25402 3.13875
# Velocity P-wave (km/s) = 5.44878 6.26397 5.87054
#
# Compressibility (1/GPa) = 0.02705938
#
# Stress axis : x y z
#
# Youngs Moduli (GPa) = 40.30245 55.59611 92.76528
#
# Poissons Ratio (x) = 0.27190 0.05261
# Poissons Ratio (y) = 0.19711 0.72377
# Poissons Ratio (z) = 0.02286 0.43377
#
# Static dielectric constant tensor:
#      x y z
#    x 3.692240 0.000000 0.000000 
#    y 0.000000 3.618350 0.000000 
#    z 0.000000 0.000000 3.966410 
# 
# 
# High freq. dielectric constant tensor:
#      x y z
#    x 1.826310 0.000000 0.000000 
#    y 0.000000 1.766970 0.000000 
#    z 0.000000 0.000000 1.834710 
# 
# From -- ./inp_files/24443.got.cif
#   From: 2010.03.12/outbox.cif.g09.slc.cpg/sg64_13_cif.got.tgz:24443.got - 2010.04.10 20:19:32.
