data_PCOD8264040
_publ_section_title
;
Structure prediction by ZEFSAII (Michael W. Deem and Ramdas Pophale) SiO2 
 PCOD8264040
Probable space group: C M C A
;
_chemical_formula_sum "Si O2"
_cell_formula_units_Z 112
_cell_length_a 14.055615
_cell_length_b 11.059885
_cell_length_c 31.420200
_cell_angle_alpha 90.000000
_cell_angle_beta 90.000000
_cell_angle_gamma 90.000000
_cell_volume 4884.379605
_symmetry_space_group_name_H-M "C M C A"
_symmetry_group_IT_number 64
_symmetry_cell_setting 'orthorhombic'
loop_
_space_group_symop_operation_xyz
x,y,z
-x,1/2-y,1/2+z
x,-y,-z
-x,1/2+y,1/2-z
-x,-y,-z
x,1/2+y,1/2-z
-x,y,z
x,1/2-y,1/2+z
1/2+x,1/2+y,z
1/2-x,-y,1/2+z
1/2+x,1/2-y,-z
1/2-x,y,1/2-z
1/2-x,1/2-y,-z
1/2+x,y,1/2-z
1/2-x,1/2+y,z
1/2+x,-y,1/2+z
loop_
_atom_site_type_symbol
_atom_site_label
_atom_site_fract_x
_atom_site_fract_y
_atom_site_fract_z
Si Si1 0.398568 0.379983 0.582286
Si Si2 0.282527 0.049431 0.867398
Si Si3 0.843765 0.190060 0.982888
Si Si4 0.767062 0.864970 0.701472
Si Si5 0.893413 0.689083 0.656387
Si Si6 0.893294 0.459299 0.561462
Si Si7 0.112530 0.204083 0.139359
O O1 0.500000 0.450859 0.581291
O O2 0.309561 0.470184 0.590291
O O3 0.394821 0.303328 0.539043
O O4 0.400570 0.290189 0.621471
O O5 0.312096 0.978355 0.824140
O O6 0.168997 0.079581 0.863874
O O7 0.347868 0.165607 0.872598
O O8 0.828709 0.077951 0.949439
O O9 0.750000 0.250000 0.000000
O O10 0.901751 0.134849 0.022295
O O11 0.750000 0.900454 0.750000
O O12 0.836538 0.747637 0.696649
O O13 0.662456 0.837867 0.682641
O O14 0.000000 0.643264 0.669536
O O15 0.852548 0.386784 0.602077
O O16 0.000000 0.506997 0.571100
O O17 0.000000 0.206860 0.145192
#
# Coordination Sequence:
#
# PCOD8264040 Si02
#       7
#    16  16  16  16  16  16  16
#     4  10  21  40  64  94 132 177 224 279 342 404
#     4  10  22  39  68  97 135 171 226 276 344 410
#     4  11  24  37  65  98 133 172 225 281 341 402
#     4  10  23  41  63  96 139 178 222 279 344 408
#     4   9  21  40  66  94 129 177 227 272 331 408
#     4  10  23  45  67  94 131 178 229 284 338 399
#     4  10  23  43  70  97 132 180 230 281 340 406
#
# _framework density 22.930242
#
# number of rings (size 3 to 8) (size 9 to 14) (size 15 to 20)
#    0.000    2.000    0.000    2.143    8.000    5.143 
#    0.000    0.000    0.000    2.571    0.000    2.000 
#    0.000    0.000    0.000    0.000    0.000    0.000 
#
# Total GULP energy -693933.065854 kJ/mol
# GULP energy per Si atom -12391.661890 kJ/mol
# Density = 2.287805 g / cm^3
# Si number density = 22.930242 Si / 1000 Ang^3
#
#
#
# Elastic Constant Matrix: (Units=GPa)
#
#
# Indices 1 2 3 4 5 6 
#
# 1 164.9834 73.8918 47.0304 0.0000 0.0000 0.0000
# 2 73.8918 132.4814 46.5003 0.0000 0.0000 0.0000
# 3 47.0304 46.5003 103.0883 0.0000 0.0000 0.0000
# 4 0.0000 0.0000 0.0000 31.6911 0.0000 0.0000
# 5 0.0000 0.0000 0.0000 0.0000 21.6226 0.0000
# 6 0.0000 0.0000 0.0000 0.0000 0.0000 38.3326
#
#
#
# Elastic Compliance Matrix: (Units=1/GPa)
#
#
# Indices 1 2 3 4 5 6 
#
# 1 0.008429 -0.003982 -0.002049 0.000000 0.000000 0.000000
# 2 -0.003982 0.010849 -0.003077 0.000000 0.000000 0.000000
# 3 -0.002049 -0.003077 0.012023 0.000000 0.000000 0.000000
# 4 0.000000 0.000000 0.000000 0.031555 0.000000 0.000000
# 5 0.000000 0.000000 0.000000 0.000000 0.046248 0.000000
# 6 0.000000 0.000000 0.000000 0.000000 0.000000 0.026087
#
#
# Mechanical properties :
#
#
# Convention : Reuss Voigt Hill
#
# Bulk Modulus (GPa) = 76.42489 81.71089 79.06789
# Shear Modulus (GPa) = 31.69181 33.87130 32.78155
#
# Velocity S-wave (km/s) = 3.72169 3.84753 3.78513
# Velocity P-wave (km/s) = 7.20206 7.44647 7.32528
#
# Compressibility (1/GPa) = 0.01308474
#
# Stress axis : x y z
#
# Youngs Moduli (GPa) = 118.64158 92.17255 83.17164
#
# Poissons Ratio (x) = 0.36702 0.17043
# Poissons Ratio (y) = 0.47242 0.25594
# Poissons Ratio (z) = 0.24312 0.28363
#
# Static dielectric constant tensor:
#      x y z
#    x 4.643560 0.000000 0.000000 
#    y 0.000000 4.566650 0.000000 
#    z 0.000000 0.000000 4.115860 
# 
# 
# High freq. dielectric constant tensor:
#      x y z
#    x 1.913730 0.000000 0.000000 
#    y 0.000000 1.914490 0.000000 
#    z 0.000000 0.000000 1.883210 
# 
# From -- ./inp_files/53275.got.cif
#   From: 2010.03.12/outbox.cif.g09.slc.cpg/sg64_27_cif.got.tgz:53275.got - 2010.04.10 20:19:32.
