data_PCOD8264762
_publ_section_title
;
Structure prediction by ZEFSAII (Michael W. Deem and Ramdas Pophale) SiO2 
 PCOD8264762
Probable space group: C M C A
;
_chemical_formula_sum "Si O2"
_cell_formula_units_Z 104
_cell_length_a 28.560824
_cell_length_b 18.479469
_cell_length_c 11.589595
_cell_angle_alpha 90.000000
_cell_angle_beta 90.000000
_cell_angle_gamma 90.000000
_cell_volume 6116.859153
_symmetry_space_group_name_H-M "C M C A"
_symmetry_group_IT_number 64
_symmetry_cell_setting 'orthorhombic'
loop_
_space_group_symop_operation_xyz
x,y,z
-x,1/2-y,1/2+z
x,-y,-z
-x,1/2+y,1/2-z
-x,-y,-z
x,1/2+y,1/2-z
-x,y,z
x,1/2-y,1/2+z
1/2+x,1/2+y,z
1/2-x,-y,1/2+z
1/2+x,1/2-y,-z
1/2-x,y,1/2-z
1/2-x,1/2-y,-z
1/2+x,y,1/2-z
1/2-x,1/2+y,z
1/2+x,-y,1/2+z
loop_
_atom_site_type_symbol
_atom_site_label
_atom_site_fract_x
_atom_site_fract_y
_atom_site_fract_z
Si Si1 0.500000 0.008771 0.185561
Si Si2 0.000000 0.384810 0.028793
Si Si3 0.100790 0.117327 0.516010
Si Si4 0.733085 0.834038 0.625809
Si Si5 0.195939 0.183553 0.566391
Si Si6 0.750000 0.406785 0.250000
Si Si7 0.317593 0.984920 0.629031
Si Si8 0.899434 0.483193 0.810041
O O1 0.450967 0.025831 0.251196
O O2 0.500000 0.054592 0.068937
O O3 0.500000 0.923964 0.152874
O O4 0.049625 0.341604 0.017311
O O5 0.140560 0.173756 0.551144
O O6 0.099961 0.052384 0.607174
O O7 0.111999 0.086906 0.388133
O O8 0.750000 0.807462 0.750000
O O9 0.777148 0.850480 0.543232
O O10 0.702734 0.769646 0.570683
O O11 0.702032 0.904683 0.640428
O O12 0.213741 0.143486 0.681267
O O13 0.722211 0.457108 0.160633
O O14 0.334805 0.000000 0.500000
O O15 0.361568 0.993518 0.711796
#
# Coordination Sequence:
#
# PCOD8264762 Si02
#       8
#     8   8  16  16  16   8  16  16
#     4   7  12  26  45  73 105 125 154 210 264 303
#     4   7  12  24  46  79 101 119 160 215 259 293
#     4   9  16  29  53  78 102 128 164 214 261 301
#     4  11  23  36  50  71 108 138 173 208 254 306
#     4  11  22  36  52  74 102 142 170 209 256 308
#     4  12  22  36  54  72 104 134 174 214 248 302
#     4  12  23  34  51  76 104 137 173 216 250 304
#     4   9  17  29  51  78 102 128 166 213 261 299
#
# _framework density 17.002189000000001
#
# number of rings (size 3 to 8) (size 9 to 14) (size 15 to 20)
#    0.000    2.000    4.615    2.769    0.000    0.000 
#    0.000    0.385    0.000    0.923    0.000    1.077 
#    0.000    0.000    0.000    0.000    0.000    0.000 
#
# Total GULP energy -644416.212494 kJ/mol
# GULP energy per Si atom -12392.619471 kJ/mol
# Density = 1.696349 g / cm^3
# Si number density = 17.002189 Si / 1000 Ang^3
#
#
#
# Elastic Constant Matrix: (Units=GPa)
#
#
# Indices 1 2 3 4 5 6 
#
# 1 140.2458 27.9023 30.7460 0.0000 0.0000 0.0000
# 2 27.9023 48.3523 3.3668 0.0000 0.0000 0.0000
# 3 30.7460 3.3668 74.1359 0.0000 0.0000 0.0000
# 4 0.0000 0.0000 0.0000 16.6784 0.0000 0.0000
# 5 0.0000 0.0000 0.0000 0.0000 20.0174 0.0000
# 6 0.0000 0.0000 0.0000 0.0000 0.0000 18.4304
#
#
#
# Elastic Compliance Matrix: (Units=1/GPa)
#
#
# Indices 1 2 3 4 5 6 
#
# 1 0.008856 -0.004870 -0.003452 0.000000 0.000000 0.000000
# 2 -0.004870 0.023425 0.000956 0.000000 0.000000 0.000000
# 3 -0.003452 0.000956 0.014877 0.000000 0.000000 0.000000
# 4 0.000000 0.000000 0.000000 0.059958 0.000000 0.000000
# 5 0.000000 0.000000 0.000000 0.000000 0.049956 0.000000
# 6 0.000000 0.000000 0.000000 0.000000 0.000000 0.054258
#
#
# Mechanical properties :
#
#
# Convention : Reuss Voigt Hill
#
# Bulk Modulus (GPa) = 30.83899 42.97380 36.90640
# Shear Modulus (GPa) = 21.10854 24.40650 22.75752
#
# Velocity S-wave (km/s) = 3.52734 3.79290 3.66253
# Velocity P-wave (km/s) = 5.89637 6.67171 6.29599
#
# Compressibility (1/GPa) = 0.03242648
#
# Stress axis : x y z
#
# Youngs Moduli (GPa) = 112.91839 42.68882 67.21874
#
# Poissons Ratio (x) = 0.20790 0.23201
# Poissons Ratio (y) = 0.54992 -0.06425
# Poissons Ratio (z) = 0.38975 -0.04081
#
# Static dielectric constant tensor:
#      x y z
#    x 3.603710 0.000000 0.000000 
#    y 0.000000 2.882810 0.000000 
#    z 0.000000 0.000000 3.285690 
# 
# 
# High freq. dielectric constant tensor:
#      x y z
#    x 1.666560 0.000000 0.000000 
#    y 0.000000 1.625000 0.000000 
#    z 0.000000 0.000000 1.640790 
# 
# From -- ./inp_files/19245.got.cif
#   From: 2010.03.12/outbox.cif.g09.slc.cpg/sg64_10_cif.got.tgz:19245.got - 2010.04.10 20:19:32.
