data_PCOD8264207
_publ_section_title
;
Structure prediction by ZEFSAII (Michael W. Deem and Ramdas Pophale) SiO2 
 PCOD8264207
Probable space group: C M C A
;
_chemical_formula_sum "Si O2"
_cell_formula_units_Z 96
_cell_length_a 23.897883
_cell_length_b 21.421759
_cell_length_c 8.646287
_cell_angle_alpha 90.000000
_cell_angle_beta 90.000000
_cell_angle_gamma 90.000000
_cell_volume 4426.334257
_symmetry_space_group_name_H-M "C M C A"
_symmetry_group_IT_number 64
_symmetry_cell_setting 'orthorhombic'
loop_
_space_group_symop_operation_xyz
x,y,z
-x,1/2-y,1/2+z
x,-y,-z
-x,1/2+y,1/2-z
-x,-y,-z
x,1/2+y,1/2-z
-x,y,z
x,1/2-y,1/2+z
1/2+x,1/2+y,z
1/2-x,-y,1/2+z
1/2+x,1/2-y,-z
1/2-x,y,1/2-z
1/2-x,1/2-y,-z
1/2+x,y,1/2-z
1/2-x,1/2+y,z
1/2+x,-y,1/2+z
loop_
_atom_site_type_symbol
_atom_site_label
_atom_site_fract_x
_atom_site_fract_y
_atom_site_fract_z
Si Si1 0.620995 0.310009 0.875482
Si Si2 0.696508 0.871801 0.839383
Si Si3 0.116105 0.385422 0.333673
Si Si4 0.500000 0.264517 0.944095
Si Si5 0.000000 0.842699 0.245159
Si Si6 0.695020 0.696230 0.647205
Si Si7 0.694917 0.005994 0.683826
O O1 0.640514 0.334212 0.707491
O O2 0.556958 0.288234 0.862405
O O3 0.667224 0.258113 0.930521
O O4 0.623181 0.371384 0.984641
O O5 0.750000 0.843953 0.750000
O O6 0.689312 0.943970 0.789156
O O7 0.707753 0.857792 0.019994
O O8 0.145556 0.327098 0.255160
O O9 0.140942 0.451846 0.285370
O O10 0.052179 0.387817 0.280031
O O11 0.500000 0.189432 0.915229
O O12 0.500000 0.284417 0.122989
O O13 0.750000 0.710725 0.750000
O O14 0.750000 0.041327 0.750000
O O15 0.702648 0.000000 0.500000
#
# Coordination Sequence:
#
# PCOD8264207 Si02
#       7
#    16  16  16   8   8  16  16
#     4  11  22  42  63  97 133 176 221 271 333 396
#     4  11  25  42  65  94 130 174 223 267 332 396
#     4  11  23  41  67  94 131 173 222 274 330 388
#     4  10  22  38  63  93 132 173 217 263 327 400
#     4  10  22  42  66  97 128 179 215 268 334 394
#     4  12  25  38  64  98 138 173 213 273 336 398
#     4  11  25  45  68  94 128 173 227 274 326 394
#
# _framework density 21.688374
#
# number of rings (size 3 to 8) (size 9 to 14) (size 15 to 20)
#    0.000    1.000    3.333    3.000    9.333    2.000 
#    0.000    2.083    0.000    1.000    0.000    0.000 
#    0.000    0.000    0.000    0.000    0.000    0.000 
#
# Total GULP energy -594794.631327 kJ/mol
# GULP energy per Si atom -12391.554819 kJ/mol
# Density = 2.163901 g / cm^3
# Si number density = 21.688374 Si / 1000 Ang^3
#
#
#
# Elastic Constant Matrix: (Units=GPa)
#
#
# Indices 1 2 3 4 5 6 
#
# 1 172.3416 60.8039 41.2150 0.0000 0.0000 0.0000
# 2 60.8039 99.1590 36.0345 0.0000 0.0000 0.0000
# 3 41.2150 36.0345 58.6859 0.0000 0.0000 0.0000
# 4 0.0000 0.0000 0.0000 29.2360 0.0000 0.0000
# 5 0.0000 0.0000 0.0000 0.0000 29.1756 0.0000
# 6 0.0000 0.0000 0.0000 0.0000 0.0000 9.5009
#
#
#
# Elastic Compliance Matrix: (Units=1/GPa)
#
#
# Indices 1 2 3 4 5 6 
#
# 1 0.007872 -0.003627 -0.003301 0.000000 0.000000 0.000000
# 2 -0.003627 0.014653 -0.006450 0.000000 0.000000 0.000000
# 3 -0.003301 -0.006450 0.023318 0.000000 0.000000 0.000000
# 4 0.000000 0.000000 0.000000 0.034204 0.000000 0.000000
# 5 0.000000 0.000000 0.000000 0.000000 0.034275 0.000000
# 6 0.000000 0.000000 0.000000 0.000000 0.000000 0.105254
#
#
# Mechanical properties :
#
#
# Convention : Reuss Voigt Hill
#
# Bulk Modulus (GPa) = 52.39205 67.36593 59.87899
# Shear Modulus (GPa) = 19.78673 26.39136 23.08905
#
# Velocity S-wave (km/s) = 3.02374 3.49211 3.26633
# Velocity P-wave (km/s) = 6.03323 6.88390 6.47256
#
# Compressibility (1/GPa) = 0.01908687
#
# Stress axis : x y z
#
# Youngs Moduli (GPa) = 127.03935 68.24595 42.88443
#
# Poissons Ratio (x) = 0.24754 0.14156
# Poissons Ratio (y) = 0.46080 0.27660
# Poissons Ratio (z) = 0.41936 0.44017
#
# Static dielectric constant tensor:
#      x y z
#    x 4.053700 0.000000 0.000000 
#    y 0.000000 3.696120 0.000000 
#    z 0.000000 0.000000 3.889030 
# 
# 
# High freq. dielectric constant tensor:
#      x y z
#    x 1.860430 0.000000 0.000000 
#    y 0.000000 1.838600 0.000000 
#    z 0.000000 0.000000 1.849600 
# 
# From -- ./inp_files/9567.got.cif
#   From: 2010.03.12/outbox.cif.g09.slc.cpg/sg64_5_cif.got.tgz:9567.got - 2010.04.10 20:19:32.
