data_PCOD8264462
_publ_section_title
;
Structure prediction by ZEFSAII (Michael W. Deem and Ramdas Pophale) SiO2 
 PCOD8264462
Probable space group: C M C A
;
_chemical_formula_sum "Si O2"
_cell_formula_units_Z 32
_cell_length_a 22.546925
_cell_length_b 11.273008
_cell_length_c 4.876729
_cell_angle_alpha 90.000000
_cell_angle_beta 90.000000
_cell_angle_gamma 90.000000
_cell_volume 1239.526334
_symmetry_space_group_name_H-M "C M C A"
_symmetry_group_IT_number 64
_symmetry_cell_setting 'orthorhombic'
loop_
_space_group_symop_operation_xyz
x,y,z
-x,1/2-y,1/2+z
x,-y,-z
-x,1/2+y,1/2-z
-x,-y,-z
x,1/2+y,1/2-z
-x,y,z
x,1/2-y,1/2+z
1/2+x,1/2+y,z
1/2-x,-y,1/2+z
1/2+x,1/2-y,-z
1/2-x,y,1/2-z
1/2-x,1/2-y,-z
1/2+x,y,1/2-z
1/2-x,1/2+y,z
1/2+x,-y,1/2+z
loop_
_atom_site_type_symbol
_atom_site_label
_atom_site_fract_x
_atom_site_fract_y
_atom_site_fract_z
Si Si1 0.901830 0.000000 0.500000
Si Si2 0.500000 0.830516 0.785325
Si Si3 0.816742 0.829414 0.211549
O O1 0.861599 0.935153 0.274536
O O2 0.941378 0.906398 0.664830
O O3 0.500000 0.788366 0.470562
O O4 0.827603 0.713791 0.401974
O O5 0.750000 0.878125 0.250000
#
# Coordination Sequence:
#
# PCOD8264462 Si02
#       3
#     8   8  16
#     4  11  24  42  72  96 130 181 222 266 336 399
#     4  11  26  45  66  98 134 171 224 283 328 384
#     4  10  23  41  62  94 132 167 212 267 319 385
#
# _framework density 25.816312
#
# number of rings (size 3 to 8) (size 9 to 14) (size 15 to 20)
#    0.000    1.500    0.000    3.000    0.000   16.000 
#    0.000    0.000    0.000    0.000    0.000    0.000 
#    0.000    0.000    0.000    0.000    0.000    0.000 
#
# Total GULP energy -198579.211691 kJ/mol
# GULP energy per Si atom -12411.200731 kJ/mol
# Density = 2.575755 g / cm^3
# Si number density = 25.816312 Si / 1000 Ang^3
#
#
#
# Elastic Constant Matrix: (Units=GPa)
#
#
# Indices 1 2 3 4 5 6 
#
# 1 173.8322 69.4322 12.5672 0.0000 0.0000 0.0000
# 2 69.4322 106.2274 2.0078 0.0000 0.0000 0.0000
# 3 12.5672 2.0078 61.7995 0.0000 0.0000 0.0000
# 4 0.0000 0.0000 0.0000 27.2679 0.0000 0.0000
# 5 0.0000 0.0000 0.0000 0.0000 32.2582 0.0000
# 6 0.0000 0.0000 0.0000 0.0000 0.0000 45.4692
#
#
#
# Elastic Compliance Matrix: (Units=1/GPa)
#
#
# Indices 1 2 3 4 5 6 
#
# 1 0.007911 -0.005144 -0.001442 0.000000 0.000000 0.000000
# 2 -0.005144 0.012764 0.000631 0.000000 0.000000 0.000000
# 3 -0.001442 0.000631 0.016454 0.000000 0.000000 0.000000
# 4 0.000000 0.000000 0.000000 0.036673 0.000000 0.000000
# 5 0.000000 0.000000 0.000000 0.000000 0.031000 0.000000
# 6 0.000000 0.000000 0.000000 0.000000 0.000000 0.021993
#
#
# Mechanical properties :
#
#
# Convention : Reuss Voigt Hill
#
# Bulk Modulus (GPa) = 39.64951 56.65261 48.15106
# Shear Modulus (GPa) = 33.98801 38.18919 36.08860
#
# Velocity S-wave (km/s) = 3.63234 3.85029 3.74290
# Velocity P-wave (km/s) = 5.74313 6.46208 6.11318
#
# Compressibility (1/GPa) = 0.02522099
#
# Stress axis : x y z
#
# Youngs Moduli (GPa) = 126.39903 78.34574 60.77544
#
# Poissons Ratio (x) = 0.40300 0.08762
# Poissons Ratio (y) = 0.65017 -0.03837
# Poissons Ratio (z) = 0.18223 -0.04946
#
# Static dielectric constant tensor:
#      x y z
#    x 4.973070 0.000000 0.000000 
#    y 0.000000 4.463340 0.000000 
#    z 0.000000 0.000000 4.461100 
# 
# 
# High freq. dielectric constant tensor:
#      x y z
#    x 2.055240 0.000000 0.000000 
#    y 0.000000 2.030540 0.000000 
#    z 0.000000 0.000000 2.032050 
# 
# From -- ./inp_files/1398.got.cif
#   From: 2010.03.12/outbox.cif.g09.slc.cpg/sg64_1_cif.got.tgz:1398.got - 2010.04.10 20:19:32.
