data_PCOD8264576
_publ_section_title
;
Structure prediction by ZEFSAII (Michael W. Deem and Ramdas Pophale) SiO2 
 PCOD8264576
Probable space group: C M C A
;
_chemical_formula_sum "Si O2"
_cell_formula_units_Z 72
_cell_length_a 25.751554
_cell_length_b 8.891013
_cell_length_c 14.913247
_cell_angle_alpha 90.000000
_cell_angle_beta 90.000000
_cell_angle_gamma 90.000000
_cell_volume 3414.498279
_symmetry_space_group_name_H-M "C M C A"
_symmetry_group_IT_number 64
_symmetry_cell_setting 'orthorhombic'
loop_
_space_group_symop_operation_xyz
x,y,z
-x,1/2-y,1/2+z
x,-y,-z
-x,1/2+y,1/2-z
-x,-y,-z
x,1/2+y,1/2-z
-x,y,z
x,1/2-y,1/2+z
1/2+x,1/2+y,z
1/2-x,-y,1/2+z
1/2+x,1/2-y,-z
1/2-x,y,1/2-z
1/2-x,1/2-y,-z
1/2+x,y,1/2-z
1/2-x,1/2+y,z
1/2+x,-y,1/2+z
loop_
_atom_site_type_symbol
_atom_site_label
_atom_site_fract_x
_atom_site_fract_y
_atom_site_fract_z
Si Si1 0.258338 0.000000 0.500000
Si Si2 0.609212 0.101164 0.800692
Si Si3 0.500000 0.209492 0.061303
Si Si4 0.111486 0.734562 0.128724
Si Si5 0.500000 0.873393 0.130941
Si Si6 0.178343 0.736060 0.948916
O O1 0.222579 0.891317 0.440296
O O2 0.294866 0.898539 0.564292
O O3 0.629354 0.139277 0.700617
O O4 0.549346 0.152833 0.806023
O O5 0.637895 0.208329 0.871021
O O6 0.615402 0.926963 0.823263
O O7 0.553146 0.280003 0.099383
O O8 0.500000 0.035862 0.086365
O O9 0.500000 0.238747 0.954187
O O10 0.150328 0.730921 0.045404
#
# Coordination Sequence:
#
# PCOD8264576 Si02
#       6
#     8  16   8  16   8  16
#     4  10  24  42  70  86 116 160 206 266 302 358
#     4  11  22  38  63  93 126 163 202 246 300 365
#     4   9  17  34  61  90 123 164 201 238 293 362
#     4  11  22  38  63  93 126 163 202 246 300 365
#     4   9  17  34  61  90 123 164 201 238 293 362
#     4  11  22  45  65  88 121 160 206 250 315 356
#
# _framework density 21.086552999999999
#
# number of rings (size 3 to 8) (size 9 to 14) (size 15 to 20)
#    0.000    1.556    4.444    0.667    3.111    0.000 
#    0.000    6.667    0.000    2.667    0.000    0.000 
#    0.000    0.000    0.000    0.000    0.000    0.000 
#
# Total GULP energy -446307.706030 kJ/mol
# GULP energy per Si atom -12397.436279 kJ/mol
# Density = 2.103856 g / cm^3
# Si number density = 21.086553 Si / 1000 Ang^3
#
#
#
# Elastic Constant Matrix: (Units=GPa)
#
#
# Indices 1 2 3 4 5 6 
#
# 1 107.3108 38.6474 21.0877 0.0000 0.0000 0.0000
# 2 38.6474 71.3696 13.1219 0.0000 0.0000 0.0000
# 3 21.0877 13.1219 96.8527 0.0000 0.0000 0.0000
# 4 0.0000 0.0000 0.0000 25.7907 0.0000 0.0000
# 5 0.0000 0.0000 0.0000 0.0000 -18.8758 0.0000
# 6 0.0000 0.0000 0.0000 0.0000 0.0000 22.5050
#
#
#
# Elastic Compliance Matrix: (Units=1/GPa)
#
#
# Indices 1 2 3 4 5 6 
#
# 1 0.011861 -0.006100 -0.001756 0.000000 0.000000 0.000000
# 2 -0.006100 0.017507 -0.001044 0.000000 0.000000 0.000000
# 3 -0.001756 -0.001044 0.010849 0.000000 0.000000 0.000000
# 4 0.000000 0.000000 0.000000 0.038774 0.000000 0.000000
# 5 0.000000 0.000000 0.000000 0.000000 -0.052978 0.000000
# 6 0.000000 0.000000 0.000000 0.000000 0.000000 0.044435
#
#
# Mechanical properties :
#
#
# Convention : Reuss Voigt Hill
#
# Bulk Modulus (GPa) = 44.60931 46.80522 45.70726
# Shear Modulus (GPa) = 52.23708 19.39572 35.81640
#
# Velocity S-wave (km/s) = 4.98262 3.03614 4.12581
# Velocity P-wave (km/s) = 7.36907 5.87671 6.66479
#
# Compressibility (1/GPa) = 0.02241685
#
# Stress axis : x y z
#
# Youngs Moduli (GPa) = 84.31268 57.12137 92.17695
#
# Poissons Ratio (x) = 0.34843 0.16186
# Poissons Ratio (y) = 0.51429 0.09621
# Poissons Ratio (z) = 0.14805 0.05962
#
# Static dielectric constant tensor:
#      x y z
#    x 4.091620 0.000000 0.000000 
#    y 0.000000 3.675620 0.000000 
#    z 0.000000 0.000000 3.600720 
# 
# 
# High freq. dielectric constant tensor:
#      x y z
#    x 1.838060 0.000000 0.000000 
#    y 0.000000 1.812240 0.000000 
#    z 0.000000 0.000000 1.811940 
# 
# From -- ./inp_files/10060.got.cif
#   From: 2010.03.12/outbox.cif.g09.slc.cpg/sg64_6_cif.got.tgz:10060.got - 2010.04.10 20:19:32.
