data_PCOD8264050
_publ_section_title
;
Structure prediction by ZEFSAII (Michael W. Deem and Ramdas Pophale) SiO2 
 PCOD8264050
Probable space group: C M C A
;
_chemical_formula_sum "Si O2"
_cell_formula_units_Z 72
_cell_length_a 17.545275
_cell_length_b 20.409349
_cell_length_c 9.824900
_cell_angle_alpha 90.000000
_cell_angle_beta 90.000000
_cell_angle_gamma 90.000000
_cell_volume 3518.175262
_symmetry_space_group_name_H-M "C M C A"
_symmetry_group_IT_number 64
_symmetry_cell_setting 'orthorhombic'
loop_
_space_group_symop_operation_xyz
x,y,z
-x,1/2-y,1/2+z
x,-y,-z
-x,1/2+y,1/2-z
-x,-y,-z
x,1/2+y,1/2-z
-x,y,z
x,1/2-y,1/2+z
1/2+x,1/2+y,z
1/2-x,-y,1/2+z
1/2+x,1/2-y,-z
1/2-x,y,1/2-z
1/2-x,1/2-y,-z
1/2+x,y,1/2-z
1/2-x,1/2+y,z
1/2+x,-y,1/2+z
loop_
_atom_site_type_symbol
_atom_site_label
_atom_site_fract_x
_atom_site_fract_y
_atom_site_fract_z
Si Si1 0.086329 0.789424 0.958934
Si Si2 0.083542 0.387970 0.308930
Si Si3 0.644154 0.500000 0.000000
Si Si4 0.197455 0.175628 0.628761
Si Si5 0.705326 0.119570 0.382385
O O1 0.141290 0.726968 0.943617
O O2 0.121989 0.847116 0.865675
O O3 0.000000 0.772805 0.911174
O O4 0.086051 0.817670 0.112820
O O5 0.095261 0.448768 0.411523
O O6 0.146786 0.384185 0.190269
O O7 0.000000 0.397133 0.243176
O O8 0.696786 0.541418 0.103383
O O9 0.250000 0.206305 0.750000
O O10 0.254337 0.147457 0.516890
O O11 0.750000 0.138807 0.250000
#
# Coordination Sequence:
#
# PCOD8264050 Si02
#       5
#    16  16   8  16  16
#     4  10  22  39  61  92 125 161 201 247 311 374
#     4  10  22  40  64  92 123 165 206 253 310 369
#     4  10  21  40  66  88 123 164 212 252 303 370
#     4  12  22  40  62  93 126 158 206 256 311 367
#     4  11  25  40  64  92 124 163 207 258 309 364
#
# _framework density 20.465154999999999
#
# number of rings (size 3 to 8) (size 9 to 14) (size 15 to 20)
#    0.000    1.333    4.444    2.333    6.222    0.889 
#    0.000    1.111    0.000    1.333    0.000    0.000 
#    0.000    0.000    0.000    0.000    0.000    0.000 
#
# Total GULP energy -446090.219005 kJ/mol
# GULP energy per Si atom -12391.394972 kJ/mol
# Density = 2.041858 g / cm^3
# Si number density = 20.465155 Si / 1000 Ang^3
#
#
#
# Elastic Constant Matrix: (Units=GPa)
#
#
# Indices 1 2 3 4 5 6 
#
# 1 132.7991 35.3548 30.6735 0.0000 0.0000 0.0000
# 2 35.3548 98.0408 14.8275 0.0000 0.0000 0.0000
# 3 30.6735 14.8275 76.2978 0.0000 0.0000 0.0000
# 4 0.0000 0.0000 0.0000 21.0875 0.0000 0.0000
# 5 0.0000 0.0000 0.0000 0.0000 23.7362 0.0000
# 6 0.0000 0.0000 0.0000 0.0000 0.0000 18.2799
#
#
#
# Elastic Compliance Matrix: (Units=1/GPa)
#
#
# Indices 1 2 3 4 5 6 
#
# 1 0.008978 -0.002773 -0.003070 0.000000 0.000000 0.000000
# 2 -0.002773 0.011365 -0.001094 0.000000 0.000000 0.000000
# 3 -0.003070 -0.001094 0.014553 0.000000 0.000000 0.000000
# 4 0.000000 0.000000 0.000000 0.047421 0.000000 0.000000
# 5 0.000000 0.000000 0.000000 0.000000 0.042130 0.000000
# 6 0.000000 0.000000 0.000000 0.000000 0.000000 0.054705
#
#
# Mechanical properties :
#
#
# Convention : Reuss Voigt Hill
#
# Bulk Modulus (GPa) = 47.56954 52.09437 49.83196
# Shear Modulus (GPa) = 24.99573 27.70619 26.35096
#
# Velocity S-wave (km/s) = 3.49862 3.68342 3.59221
# Velocity P-wave (km/s) = 6.29405 6.60307 6.45041
#
# Compressibility (1/GPa) = 0.02102185
#
# Stress axis : x y z
#
# Youngs Moduli (GPa) = 111.38820 87.98723 68.71229
#
# Poissons Ratio (x) = 0.24400 0.21097
# Poissons Ratio (y) = 0.30889 0.07516
# Poissons Ratio (z) = 0.34199 0.09624
#
# Static dielectric constant tensor:
#      x y z
#    x 4.049700 0.000000 0.000000 
#    y 0.000000 3.688700 0.000000 
#    z 0.000000 0.000000 3.589260 
# 
# 
# High freq. dielectric constant tensor:
#      x y z
#    x 1.818980 0.000000 0.000000 
#    y 0.000000 1.791380 0.000000 
#    z 0.000000 0.000000 1.776840 
# 
# From -- ./inp_files/6873.got.cif
#   From: 2010.03.12/outbox.cif.g09.slc.cpg/sg64_4_cif.got.tgz:6873.got - 2010.04.10 20:19:32.
