data_PCOD8264317
_publ_section_title
;
Structure prediction by ZEFSAII (Michael W. Deem and Ramdas Pophale) SiO2 
 PCOD8264317
Probable space group: C M C A
;
_chemical_formula_sum "Si O2"
_cell_formula_units_Z 112
_cell_length_a 22.483348
_cell_length_b 14.231204
_cell_length_c 16.526456
_cell_angle_alpha 90.000000
_cell_angle_beta 90.000000
_cell_angle_gamma 90.000000
_cell_volume 5287.889345
_symmetry_space_group_name_H-M "C M C A"
_symmetry_group_IT_number 64
_symmetry_cell_setting 'orthorhombic'
loop_
_space_group_symop_operation_xyz
x,y,z
-x,1/2-y,1/2+z
x,-y,-z
-x,1/2+y,1/2-z
-x,-y,-z
x,1/2+y,1/2-z
-x,y,z
x,1/2-y,1/2+z
1/2+x,1/2+y,z
1/2-x,-y,1/2+z
1/2+x,1/2-y,-z
1/2-x,y,1/2-z
1/2-x,1/2-y,-z
1/2+x,y,1/2-z
1/2-x,1/2+y,z
1/2+x,-y,1/2+z
loop_
_atom_site_type_symbol
_atom_site_label
_atom_site_fract_x
_atom_site_fract_y
_atom_site_fract_z
Si Si1 0.663872 0.696775 0.186486
Si Si2 0.750048 0.332587 0.113549
Si Si3 0.647993 0.103561 0.988468
Si Si4 0.932336 0.395519 0.327588
Si Si5 0.862282 0.282097 0.864172
Si Si6 0.931827 0.337935 0.149915
Si Si7 0.174037 0.995655 0.902443
O O1 0.712288 0.782159 0.185175
O O2 0.657044 0.668025 0.280330
O O3 0.601060 0.737040 0.154756
O O4 0.684932 0.609780 0.130759
O O5 0.692027 0.272768 0.093693
O O6 0.726417 0.438112 0.134717
O O7 0.794776 0.334877 0.037301
O O8 0.619123 0.138970 0.072104
O O9 0.595924 0.101537 0.922235
O O10 0.673074 0.000000 0.000000
O O11 0.916995 0.289041 0.353406
O O12 0.923884 0.400271 0.230782
O O13 0.890441 0.471452 0.370643
O O14 0.000000 0.417598 0.352920
O O15 0.000000 0.315228 0.131695
O O16 0.175200 0.000000 0.000000
#
# Coordination Sequence:
#
# PCOD8264317 Si02
#       7
#    16  16  16  16  16  16  16
#     4  10  23  42  65  92 125 165 217 259 313 379
#     4  10  23  42  60  88 129 166 206 256 315 371
#     4  11  24  37  64  93 126 169 210 258 314 373
#     4   9  21  43  66  90 126 165 208 264 317 372
#     4  10  22  41  61  92 123 167 214 259 315 370
#     4   9  21  43  66  89 126 169 209 261 318 371
#     4  11  25  39  66  98 127 166 209 261 319 378
#
# _framework density 21.180472999999999
#
# number of rings (size 3 to 8) (size 9 to 14) (size 15 to 20)
#    0.000    2.000    0.000    1.286   14.000    2.857 
#    0.000    0.000    0.000    0.000    0.000    0.000 
#    0.000    0.000    0.000    0.000    0.000    0.000 
#
# Total GULP energy -694198.423746 kJ/mol
# GULP energy per Si atom -12396.400424 kJ/mol
# Density = 2.113227 g / cm^3
# Si number density = 21.180473 Si / 1000 Ang^3
#
#
#
# Elastic Constant Matrix: (Units=GPa)
#
#
# Indices 1 2 3 4 5 6 
#
# 1 128.0956 36.1478 43.4596 0.0000 0.0000 0.0000
# 2 36.1478 86.8902 45.6932 0.0000 0.0000 0.0000
# 3 43.4596 45.6932 119.5071 0.0000 0.0000 0.0000
# 4 0.0000 0.0000 0.0000 27.6495 0.0000 0.0000
# 5 0.0000 0.0000 0.0000 0.0000 22.2020 0.0000
# 6 0.0000 0.0000 0.0000 0.0000 0.0000 24.5900
#
#
#
# Elastic Compliance Matrix: (Units=1/GPa)
#
#
# Indices 1 2 3 4 5 6 
#
# 1 0.009364 -0.002634 -0.002398 0.000000 0.000000 0.000000
# 2 -0.002634 0.015146 -0.004833 0.000000 0.000000 0.000000
# 3 -0.002398 -0.004833 0.011088 0.000000 0.000000 0.000000
# 4 0.000000 0.000000 0.000000 0.036167 0.000000 0.000000
# 5 0.000000 0.000000 0.000000 0.000000 0.045041 0.000000
# 6 0.000000 0.000000 0.000000 0.000000 0.000000 0.040667
#
#
# Mechanical properties :
#
#
# Convention : Reuss Voigt Hill
#
# Bulk Modulus (GPa) = 63.02501 65.01046 64.01774
# Shear Modulus (GPa) = 27.39840 28.83445 28.11643
#
# Velocity S-wave (km/s) = 3.60052 3.69368 3.64740
# Velocity P-wave (km/s) = 6.86337 6.99651 6.93026
#
# Compressibility (1/GPa) = 0.01586672
#
# Stress axis : x y z
#
# Youngs Moduli (GPa) = 106.79614 66.02237 90.19049
#
# Poissons Ratio (x) = 0.17393 0.21626
# Poissons Ratio (y) = 0.28135 0.43590
# Poissons Ratio (z) = 0.25608 0.31910
#
# Static dielectric constant tensor:
#      x y z
#    x 3.844410 0.000000 0.000000 
#    y 0.000000 3.676520 0.000000 
#    z 0.000000 0.000000 3.809070 
# 
# 
# High freq. dielectric constant tensor:
#      x y z
#    x 1.828960 0.000000 0.000000 
#    y 0.000000 1.814530 0.000000 
#    z 0.000000 0.000000 1.833180 
# 
# From -- ./inp_files/27420.got.cif
#   From: 2010.03.12/outbox.cif.g09.slc.cpg/sg64_14_cif.got.tgz:27420.got - 2010.04.10 20:19:32.
