data_PCOD8264664
_publ_section_title
;
Structure prediction by ZEFSAII (Michael W. Deem and Ramdas Pophale) SiO2 
 PCOD8264664
Probable space group: C M C A
;
_chemical_formula_sum "Si O2"
_cell_formula_units_Z 80
_cell_length_a 18.661417
_cell_length_b 14.541379
_cell_length_c 17.245934
_cell_angle_alpha 90.000000
_cell_angle_beta 90.000000
_cell_angle_gamma 90.000000
_cell_volume 4679.903857
_symmetry_space_group_name_H-M "C M C A"
_symmetry_group_IT_number 64
_symmetry_cell_setting 'orthorhombic'
loop_
_space_group_symop_operation_xyz
x,y,z
-x,1/2-y,1/2+z
x,-y,-z
-x,1/2+y,1/2-z
-x,-y,-z
x,1/2+y,1/2-z
-x,y,z
x,1/2-y,1/2+z
1/2+x,1/2+y,z
1/2-x,-y,1/2+z
1/2+x,1/2-y,-z
1/2-x,y,1/2-z
1/2-x,1/2-y,-z
1/2+x,y,1/2-z
1/2-x,1/2+y,z
1/2+x,-y,1/2+z
loop_
_atom_site_type_symbol
_atom_site_label
_atom_site_fract_x
_atom_site_fract_y
_atom_site_fract_z
Si Si1 0.173211 0.037056 0.724002
Si Si2 0.077618 0.389715 0.001191
Si Si3 0.188024 0.142214 0.189713
Si Si4 0.210986 0.436828 0.928201
Si Si5 0.581107 0.308166 0.328200
O O1 0.250000 0.077926 0.750000
O O2 0.113409 0.115905 0.730526
O O3 0.151613 0.951327 0.778526
O O4 0.178731 0.005461 0.635380
O O5 0.084559 0.346026 0.085323
O O6 0.000000 0.359205 0.965523
O O7 0.081035 0.500000 0.000000
O O8 0.147889 0.362792 0.951216
O O9 0.250000 0.174101 0.250000
O O10 0.223147 0.122291 0.105601
O O11 0.126427 0.215871 0.179356
O O12 0.237464 0.500000 0.000000
O O13 0.500000 0.287253 0.302517
#
# Coordination Sequence:
#
# PCOD8264664 Si02
#       5
#    16  16  16  16  16
#     4   9  18  33  52  73 104 132 170 222 257 303
#     4   9  16  27  47  77 105 129 171 214 254 307
#     4   9  21  35  51  79 107 135 179 220 255 314
#     4   9  15  31  53  76  97 136 173 207 265 304
#     4  11  20  32  53  76 103 139 172 214 263 308
#
# _framework density 17.094369
#
# number of rings (size 3 to 8) (size 9 to 14) (size 15 to 20)
#    0.000    3.000    4.000    0.600    0.000    1.600 
#    0.000    3.000    0.000    0.600    0.000    0.000 
#    0.000    0.000    0.000    0.000    0.000    0.000 
#
# Total GULP energy -495523.744517 kJ/mol
# GULP energy per Si atom -12388.093613 kJ/mol
# Density = 1.705546 g / cm^3
# Si number density = 17.094369 Si / 1000 Ang^3
#
#
#
# Elastic Constant Matrix: (Units=GPa)
#
#
# Indices 1 2 3 4 5 6 
#
# 1 148.4429 85.2378 53.9030 0.0000 0.0000 0.0000
# 2 85.2378 98.2679 35.2596 0.0000 0.0000 0.0000
# 3 53.9030 35.2596 79.7004 0.0000 0.0000 0.0000
# 4 0.0000 0.0000 0.0000 18.1417 0.0000 0.0000
# 5 0.0000 0.0000 0.0000 0.0000 22.4424 0.0000
# 6 0.0000 0.0000 0.0000 0.0000 0.0000 72.2240
#
#
#
# Elastic Compliance Matrix: (Units=1/GPa)
#
#
# Indices 1 2 3 4 5 6 
#
# 1 0.015061 -0.011184 -0.005238 0.000000 0.000000 0.000000
# 2 -0.011184 0.020402 -0.001462 0.000000 0.000000 0.000000
# 3 -0.005238 -0.001462 0.016736 0.000000 0.000000 0.000000
# 4 0.000000 0.000000 0.000000 0.055122 0.000000 0.000000
# 5 0.000000 0.000000 0.000000 0.000000 0.044559 0.000000
# 6 0.000000 0.000000 0.000000 0.000000 0.000000 0.013846
#
#
# Mechanical properties :
#
#
# Convention : Reuss Voigt Hill
#
# Bulk Modulus (GPa) = 60.86042 75.02357 67.94200
# Shear Modulus (GPa) = 24.15805 32.69565 28.42685
#
# Velocity S-wave (km/s) = 3.76336 4.37814 4.08234
# Velocity P-wave (km/s) = 7.38672 8.33910 7.87732
#
# Compressibility (1/GPa) = 0.01643104
#
# Stress axis : x y z
#
# Youngs Moduli (GPa) = 66.39741 49.01458 59.75075
#
# Poissons Ratio (x) = 0.54820 0.31297
# Poissons Ratio (y) = 0.74261 0.08734
# Poissons Ratio (z) = 0.34779 0.07164
#
# Static dielectric constant tensor:
#      x y z
#    x 3.536790 0.000000 0.000000 
#    y 0.000000 2.949210 0.000000 
#    z 0.000000 0.000000 3.184760 
# 
# 
# High freq. dielectric constant tensor:
#      x y z
#    x 1.660790 0.000000 0.000000 
#    y 0.000000 1.635730 0.000000 
#    z 0.000000 0.000000 1.649460 
# 
# From -- ./inp_files/32984.got.cif
#   From: 2010.03.12/outbox.cif.g09.slc.cpg/sg64_17_cif.got.tgz:32984.got - 2010.04.10 20:19:32.
