data_PCOD8264039
_publ_section_title
;
Structure prediction by ZEFSAII (Michael W. Deem and Ramdas Pophale) SiO2 
 PCOD8264039
Probable space group: C M C A
;
_chemical_formula_sum "Si O2"
_cell_formula_units_Z 72
_cell_length_a 9.025646
_cell_length_b 20.736981
_cell_length_c 16.760452
_cell_angle_alpha 90.000000
_cell_angle_beta 90.000000
_cell_angle_gamma 90.000000
_cell_volume 3136.964126
_symmetry_space_group_name_H-M "C M C A"
_symmetry_group_IT_number 64
_symmetry_cell_setting 'orthorhombic'
loop_
_space_group_symop_operation_xyz
x,y,z
-x,1/2-y,1/2+z
x,-y,-z
-x,1/2+y,1/2-z
-x,-y,-z
x,1/2+y,1/2-z
-x,y,z
x,1/2-y,1/2+z
1/2+x,1/2+y,z
1/2-x,-y,1/2+z
1/2+x,1/2-y,-z
1/2-x,y,1/2-z
1/2-x,1/2-y,-z
1/2+x,y,1/2-z
1/2-x,1/2+y,z
1/2+x,-y,1/2+z
loop_
_atom_site_type_symbol
_atom_site_label
_atom_site_fract_x
_atom_site_fract_y
_atom_site_fract_z
Si Si1 0.667097 0.464379 0.327227
Si Si2 0.175568 0.821762 0.371975
Si Si3 0.732126 0.500000 0.000000
Si Si4 0.822870 0.692390 0.172648
Si Si5 0.664329 0.140407 0.475436
O O1 0.500000 0.470277 0.300831
O O2 0.750000 0.495792 0.250000
O O3 0.716868 0.389756 0.332347
O O4 0.679721 0.497675 0.415116
O O5 0.264412 0.765771 0.327928
O O6 0.236445 0.821409 0.461635
O O7 0.000000 0.808333 0.371836
O O8 0.637644 0.434752 0.996433
O O9 0.750000 0.659721 0.250000
O O10 0.758645 0.647671 0.103893
O O11 0.000000 0.690671 0.174102
O O12 0.500000 0.171840 0.468854
#
# Coordination Sequence:
#
# PCOD8264039 Si02
#       5
#    16  16   8  16  16
#     4  10  22  39  64  93 125 165 212 263 320 381
#     4  10  21  40  64  92 125 163 204 253 312 377
#     4  10  24  44  66  90 126 170 216 264 318 378
#     4  12  25  41  62  91 126 164 203 252 311 374
#     4  11  23  41  64  91 121 160 208 258 310 370
#
# _framework density 22.952126
#
# number of rings (size 3 to 8) (size 9 to 14) (size 15 to 20)
#    0.000    1.333    0.000    5.333    0.000   10.667 
#    0.000    0.000    0.000    0.000    0.000    0.000 
#    0.000    0.000    0.000    0.000    0.000    0.000 
#
# Total GULP energy -446030.988641 kJ/mol
# GULP energy per Si atom -12389.749684 kJ/mol
# Density = 2.289989 g / cm^3
# Si number density = 22.952126 Si / 1000 Ang^3
#
#
#
# Elastic Constant Matrix: (Units=GPa)
#
#
# Indices 1 2 3 4 5 6 
#
# 1 134.8964 2.4479 59.7144 0.0000 0.0000 0.0000
# 2 2.4479 46.8494 8.8592 0.0000 0.0000 0.0000
# 3 59.7144 8.8592 186.0618 0.0000 0.0000 0.0000
# 4 0.0000 0.0000 0.0000 14.2885 0.0000 0.0000
# 5 0.0000 0.0000 0.0000 0.0000 37.6110 0.0000
# 6 0.0000 0.0000 0.0000 0.0000 0.0000 18.5469
#
#
#
# Elastic Compliance Matrix: (Units=1/GPa)
#
#
# Indices 1 2 3 4 5 6 
#
# 1 0.008641 0.000074 -0.002777 0.000000 0.000000 0.000000
# 2 0.000074 0.021540 -0.001049 0.000000 0.000000 0.000000
# 3 -0.002777 -0.001049 0.006316 0.000000 0.000000 0.000000
# 4 0.000000 0.000000 0.000000 0.069986 0.000000 0.000000
# 5 0.000000 0.000000 0.000000 0.000000 0.026588 0.000000
# 6 0.000000 0.000000 0.000000 0.000000 0.000000 0.053917
#
#
# Mechanical properties :
#
#
# Convention : Reuss Voigt Hill
#
# Bulk Modulus (GPa) = 34.49292 56.65009 45.57151
# Shear Modulus (GPa) = 24.49107 33.87503 29.18305
#
# Velocity S-wave (km/s) = 3.27012 3.84591 3.56964
# Velocity P-wave (km/s) = 5.41471 6.66759 6.07354
#
# Compressibility (1/GPa) = 0.02899145
#
# Stress axis : x y z
#
# Youngs Moduli (GPa) = 115.72838 46.42625 158.33636
#
# Poissons Ratio (x) = -0.00342 0.43965
# Poissons Ratio (y) = -0.00851 0.16613
# Poissons Ratio (z) = 0.32134 0.04871
#
# Static dielectric constant tensor:
#      x y z
#    x 3.948400 0.000000 0.000000 
#    y 0.000000 4.054620 0.000000 
#    z 0.000000 0.000000 3.046510 
# 
# 
# High freq. dielectric constant tensor:
#      x y z
#    x 1.904820 0.000000 0.000000 
#    y 0.000000 1.899240 0.000000 
#    z 0.000000 0.000000 1.926830 
# 
# From -- ./inp_files/29532.got.cif
#   From: 2010.03.12/outbox.cif.g09.slc.cpg/sg64_15_cif.got.tgz:29532.got - 2010.04.10 20:19:32.
