data_PCOD8264738
_publ_section_title
;
Structure prediction by ZEFSAII (Michael W. Deem and Ramdas Pophale) SiO2 
 PCOD8264738
Probable space group: C M C A
;
_chemical_formula_sum "Si O2"
_cell_formula_units_Z 96
_cell_length_a 14.226382
_cell_length_b 22.056056
_cell_length_c 14.126666
_cell_angle_alpha 90.000000
_cell_angle_beta 90.000000
_cell_angle_gamma 90.000000
_cell_volume 4432.635282
_symmetry_space_group_name_H-M "C M C A"
_symmetry_group_IT_number 64
_symmetry_cell_setting 'orthorhombic'
loop_
_space_group_symop_operation_xyz
x,y,z
-x,1/2-y,1/2+z
x,-y,-z
-x,1/2+y,1/2-z
-x,-y,-z
x,1/2+y,1/2-z
-x,y,z
x,1/2-y,1/2+z
1/2+x,1/2+y,z
1/2-x,-y,1/2+z
1/2+x,1/2-y,-z
1/2-x,y,1/2-z
1/2-x,1/2-y,-z
1/2+x,y,1/2-z
1/2-x,1/2+y,z
1/2+x,-y,1/2+z
loop_
_atom_site_type_symbol
_atom_site_label
_atom_site_fract_x
_atom_site_fract_y
_atom_site_fract_z
Si Si1 0.267929 0.278466 0.898051
Si Si2 0.894763 0.024477 0.882303
Si Si3 0.298606 0.589953 0.053630
Si Si4 0.641976 0.390582 0.273317
Si Si5 0.602467 0.428480 0.486713
Si Si6 0.395058 0.740226 0.762289
O O1 0.321021 0.343293 0.908508
O O2 0.346845 0.241749 0.841308
O O3 0.169555 0.275330 0.839471
O O4 0.250000 0.250000 0.000000
O O5 0.900168 0.050583 0.777818
O O6 0.000000 0.011441 0.919926
O O7 0.836160 0.961737 0.875459
O O8 0.841904 0.072624 0.951166
O O9 0.185351 0.595359 0.052715
O O10 0.750000 0.384238 0.250000
O O11 0.620760 0.402604 0.382243
O O12 0.593806 0.332036 0.224752
O O13 0.605384 0.500000 0.500000
O O14 0.500000 0.404239 0.519596
O O15 0.500000 0.769069 0.765455
#
# Coordination Sequence:
#
# PCOD8264738 Si02
#       6
#    16  16  16  16  16  16
#     4  11  24  43  69  94 132 180 227 279 340 398
#     4  11  23  40  66  99 127 168 218 265 336 404
#     4  11  21  41  62  90 133 166 206 275 321 390
#     4  12  20  41  69  91 126 168 214 271 328 390
#     4  11  22  38  60  95 128 161 208 259 324 396
#     4  11  25  45  67  99 133 173 233 285 330 404
#
# _framework density 21.657544999999999
#
# number of rings (size 3 to 8) (size 9 to 14) (size 15 to 20)
#    0.000    0.833    5.000    4.500    0.000    2.667 
#    9.000    0.000    0.000    0.000    0.000    0.000 
#    0.000    0.000    0.000    0.000    0.000    0.000 
#
# Total GULP energy -594678.143198 kJ/mol
# GULP energy per Si atom -12389.127983 kJ/mol
# Density = 2.160825 g / cm^3
# Si number density = 21.657545 Si / 1000 Ang^3
#
#
#
# Elastic Constant Matrix: (Units=GPa)
#
#
# Indices 1 2 3 4 5 6 
#
# 1 169.6444 19.7846 36.1572 0.0000 0.0000 0.0000
# 2 19.7846 116.7291 43.2237 0.0000 0.0000 0.0000
# 3 36.1572 43.2237 67.9729 0.0000 0.0000 0.0000
# 4 0.0000 0.0000 0.0000 28.7699 0.0000 0.0000
# 5 0.0000 0.0000 0.0000 0.0000 13.5109 0.0000
# 6 0.0000 0.0000 0.0000 0.0000 0.0000 2.6887
#
#
#
# Elastic Compliance Matrix: (Units=1/GPa)
#
#
# Indices 1 2 3 4 5 6 
#
# 1 0.006654 0.000239 -0.003691 0.000000 0.000000 0.000000
# 2 0.000239 0.011214 -0.007258 0.000000 0.000000 0.000000
# 3 -0.003691 -0.007258 0.021291 0.000000 0.000000 0.000000
# 4 0.000000 0.000000 0.000000 0.034759 0.000000 0.000000
# 5 0.000000 0.000000 0.000000 0.000000 0.074014 0.000000
# 6 0.000000 0.000000 0.000000 0.000000 0.000000 0.371922
#
#
# Mechanical properties :
#
#
# Convention : Reuss Voigt Hill
#
# Bulk Modulus (GPa) = 56.37745 61.40862 58.89303
# Shear Modulus (GPa) = 9.13766 26.00596 17.57181
#
# Velocity S-wave (km/s) = 2.05629 3.46899 2.85151
# Velocity P-wave (km/s) = 5.63255 6.66792 6.17198
#
# Compressibility (1/GPa) = 0.01773759
#
# Stress axis : x y z
#
# Youngs Moduli (GPa) = 150.29577 89.17489 46.96884
#
# Poissons Ratio (x) = -0.02133 0.17338
# Poissons Ratio (y) = -0.03594 0.34090
# Poissons Ratio (z) = 0.55479 0.64724
#
# Static dielectric constant tensor:
#      x y z
#    x 4.419290 0.000000 0.000000 
#    y 0.000000 3.974910 0.000000 
#    z 0.000000 0.000000 3.859380 
# 
# 
# High freq. dielectric constant tensor:
#      x y z
#    x 1.869170 0.000000 0.000000 
#    y 0.000000 1.846660 0.000000 
#    z 0.000000 0.000000 1.836190 
# 
# From -- ./inp_files/23904.got.cif
#   From: 2010.03.12/outbox.cif.g09.slc.cpg/sg64_12_cif.got.tgz:23904.got - 2010.04.10 20:19:32.
