data_PCOD8264258
_publ_section_title
;
Structure prediction by ZEFSAII (Michael W. Deem and Ramdas Pophale) SiO2 
 PCOD8264258
Probable space group: C M C A
;
_chemical_formula_sum "Si O2"
_cell_formula_units_Z 88
_cell_length_a 12.573467
_cell_length_b 13.481633
_cell_length_c 28.656944
_cell_angle_alpha 90.000000
_cell_angle_beta 90.000000
_cell_angle_gamma 90.000000
_cell_volume 4857.663441
_symmetry_space_group_name_H-M "C M C A"
_symmetry_group_IT_number 64
_symmetry_cell_setting 'orthorhombic'
loop_
_space_group_symop_operation_xyz
x,y,z
-x,1/2-y,1/2+z
x,-y,-z
-x,1/2+y,1/2-z
-x,-y,-z
x,1/2+y,1/2-z
-x,y,z
x,1/2-y,1/2+z
1/2+x,1/2+y,z
1/2-x,-y,1/2+z
1/2+x,1/2-y,-z
1/2-x,y,1/2-z
1/2-x,1/2-y,-z
1/2+x,y,1/2-z
1/2-x,1/2+y,z
1/2+x,-y,1/2+z
loop_
_atom_site_type_symbol
_atom_site_label
_atom_site_fract_x
_atom_site_fract_y
_atom_site_fract_z
Si Si1 0.378897 0.599440 0.560244
Si Si2 0.000000 0.859263 0.153346
Si Si3 0.878861 0.629907 0.045175
Si Si4 0.500000 0.853486 0.242815
Si Si5 0.327513 0.785363 0.707608
Si Si6 0.000000 0.952323 0.793381
Si Si7 0.715640 0.723358 0.884682
O O1 0.500000 0.629117 0.572724
O O2 0.349117 0.640772 0.509149
O O3 0.365195 0.482154 0.561754
O O4 0.301482 0.643489 0.598903
O O5 0.000000 0.806639 0.204595
O O6 0.895768 0.829937 0.124891
O O7 0.000000 0.978664 0.160408
O O8 0.798554 0.695972 0.074862
O O9 0.000000 0.664469 0.053655
O O10 0.603473 0.814639 0.215254
O O11 0.500000 0.974088 0.247518
O O12 0.250000 0.800198 0.750000
O O13 0.396786 0.884468 0.705778
O O14 0.259502 0.777322 0.660895
#
# Coordination Sequence:
#
# PCOD8264258 Si02
#       7
#    16   8  16   8  16   8  16
#     4   9  21  39  61  87 118 151 196 245 291 346
#     4  10  22  40  56  82 120 161 183 243 287 346
#     4   9  19  40  61  86 117 155 195 238 294 352
#     4   9  21  44  51  78 122 156 182 242 296 334
#     4  11  22  38  60  85 114 156 195 240 282 347
#     4   9  23  40  59  78 119 149 202 241 289 336
#     4  12  22  36  63  88 120 151 200 237 296 342
#
# _framework density 18.115705999999999
#
# number of rings (size 3 to 8) (size 9 to 14) (size 15 to 20)
#    0.545    1.455    2.727    1.636    5.091    2.182 
#    0.000    0.000    0.000    1.091    0.000    0.000 
#    0.000    0.000    0.000    0.000    0.000    0.000 
#
# Total GULP energy -545523.641955 kJ/mol
# GULP energy per Si atom -12398.264590 kJ/mol
# Density = 1.807447 g / cm^3
# Si number density = 18.115706 Si / 1000 Ang^3
#
#
#
# Elastic Constant Matrix: (Units=GPa)
#
#
# Indices 1 2 3 4 5 6 
#
# 1 109.7883 47.6468 34.2170 0.0000 0.0000 0.0000
# 2 47.6468 88.4480 25.9662 0.0000 0.0000 0.0000
# 3 34.2170 25.9662 56.7663 0.0000 0.0000 0.0000
# 4 0.0000 0.0000 0.0000 -83.1821 0.0000 0.0000
# 5 0.0000 0.0000 0.0000 0.0000 36.0447 0.0000
# 6 0.0000 0.0000 0.0000 0.0000 0.0000 12.9331
#
#
#
# Elastic Compliance Matrix: (Units=1/GPa)
#
#
# Indices 1 2 3 4 5 6 
#
# 1 0.013194 -0.005513 -0.005431 0.000000 0.000000 0.000000
# 2 -0.005513 0.015363 -0.003705 0.000000 0.000000 0.000000
# 3 -0.005431 -0.003705 0.022584 0.000000 0.000000 0.000000
# 4 0.000000 0.000000 0.000000 -0.012022 0.000000 0.000000
# 5 0.000000 0.000000 0.000000 0.000000 0.027743 0.000000
# 6 0.000000 0.000000 0.000000 0.000000 0.000000 0.077321
#
#
# Mechanical properties :
#
#
# Convention : Reuss Voigt Hill
#
# Bulk Modulus (GPa) = 45.77837 52.29584 49.03710
# Shear Modulus (GPa) = 27.66064 2.97064 15.31564
#
# Velocity S-wave (km/s) = 3.91178 1.28194 2.91079
# Velocity P-wave (km/s) = 6.76221 5.57867 6.19875
#
# Compressibility (1/GPa) = 0.02184438
#
# Stress axis : x y z
#
# Youngs Moduli (GPa) = 75.79408 65.08938 44.27866
#
# Poissons Ratio (x) = 0.35884 0.24048
# Poissons Ratio (y) = 0.41785 0.16403
# Poissons Ratio (z) = 0.41163 0.24113
#
# Static dielectric constant tensor:
#      x y z
#    x 3.355300 0.000000 0.000000 
#    y 0.000000 3.187080 0.000000 
#    z 0.000000 0.000000 3.159910 
# 
# 
# High freq. dielectric constant tensor:
#      x y z
#    x 1.708510 0.000000 0.000000 
#    y 0.000000 1.694600 0.000000 
#    z 0.000000 0.000000 1.701320 
# 
# From -- ./inp_files/44107.got.cif
#   From: 2010.03.12/outbox.cif.g09.slc.cpg/sg64_23_cif.got.tgz:44107.got - 2010.04.10 20:19:32.
