data_PCOD8264969
_publ_section_title
;
Structure prediction by ZEFSAII (Michael W. Deem and Ramdas Pophale) SiO2 
 PCOD8264969
Probable space group: C M C A
;
_chemical_formula_sum "Si O2"
_cell_formula_units_Z 40
_cell_length_a 14.229926
_cell_length_b 23.561409
_cell_length_c 5.123935
_cell_angle_alpha 90.000000
_cell_angle_beta 90.000000
_cell_angle_gamma 90.000000
_cell_volume 1717.938101
_symmetry_space_group_name_H-M "C M C A"
_symmetry_group_IT_number 64
_symmetry_cell_setting 'orthorhombic'
loop_
_space_group_symop_operation_xyz
x,y,z
-x,1/2-y,1/2+z
x,-y,-z
-x,1/2+y,1/2-z
-x,-y,-z
x,1/2+y,1/2-z
-x,y,z
x,1/2-y,1/2+z
1/2+x,1/2+y,z
1/2-x,-y,1/2+z
1/2+x,1/2-y,-z
1/2-x,y,1/2-z
1/2-x,1/2-y,-z
1/2+x,y,1/2-z
1/2-x,1/2+y,z
1/2+x,-y,1/2+z
loop_
_atom_site_type_symbol
_atom_site_label
_atom_site_fract_x
_atom_site_fract_y
_atom_site_fract_z
Si Si1 0.750000 0.961516 0.750000
Si Si2 0.846961 0.381512 0.101834
Si Si3 0.500000 0.711013 0.528433
Si Si4 0.500000 0.538652 0.756492
O O1 0.832571 0.918942 0.660640
O O2 0.719655 0.000000 0.500000
O O3 0.750000 0.365647 0.250000
O O4 0.904416 0.325564 0.024456
O O5 0.908908 0.421562 0.285605
O O6 0.500000 0.749282 0.276332
O O7 0.500000 0.500000 0.500000
O O8 0.500000 0.500000 0.000000
#
# Coordination Sequence:
#
# PCOD8264969 Si02
#       4
#     8  16   8   8
#     4  12  26  42  74 114 156 198 240 292 372 462
#     4  11  28  47  76 110 153 195 261 305 370 464
#     4  11  30  55  77 106 147 194 260 336 384 422
#     4  11  28  41  66 108 154 200 238 294 365 446
#
# _framework density 23.283726999999999
#
# number of rings (size 3 to 8) (size 9 to 14) (size 15 to 20)
#    0.000    0.800    2.000    1.200   16.800    4.800 
#    0.000    3.000    0.000    0.000    0.000    0.000 
#    0.000    0.000    0.000    0.000    0.000    0.000 
#
# Total GULP energy -247881.072969 kJ/mol
# GULP energy per Si atom -12394.053648 kJ/mol
# Density = 2.323073 g / cm^3
# Si number density = 23.283727 Si / 1000 Ang^3
#
#
#
# Elastic Constant Matrix: (Units=GPa)
#
#
# Indices 1 2 3 4 5 6 
#
# 1 179.0073 89.0663 56.2331 0.0000 0.0000 0.0000
# 2 89.0663 194.2815 101.7896 0.0000 0.0000 0.0000
# 3 56.2331 101.7896 184.5360 0.0000 0.0000 0.0000
# 4 0.0000 0.0000 0.0000 27.7895 0.0000 0.0000
# 5 0.0000 0.0000 0.0000 0.0000 14.6585 0.0000
# 6 0.0000 0.0000 0.0000 0.0000 0.0000 54.4425
#
#
#
# Elastic Compliance Matrix: (Units=1/GPa)
#
#
# Indices 1 2 3 4 5 6 
#
# 1 0.007274 -0.003057 -0.000530 0.000000 0.000000 0.000000
# 2 -0.003057 0.008524 -0.003770 0.000000 0.000000 0.000000
# 3 -0.000530 -0.003770 0.007660 0.000000 0.000000 0.000000
# 4 0.000000 0.000000 0.000000 0.035985 0.000000 0.000000
# 5 0.000000 0.000000 0.000000 0.000000 0.068220 0.000000
# 6 0.000000 0.000000 0.000000 0.000000 0.000000 0.018368
#
#
# Mechanical properties :
#
#
# Convention : Reuss Voigt Hill
#
# Bulk Modulus (GPa) = 114.37536 116.88921 115.63228
# Shear Modulus (GPa) = 30.55118 40.09383 35.32251
#
# Velocity S-wave (km/s) = 3.62626 4.15416 3.89915
# Velocity P-wave (km/s) = 8.17081 8.56274 8.36907
#
# Compressibility (1/GPa) = 0.00874314
#
# Stress axis : x y z
#
# Youngs Moduli (GPa) = 137.47798 117.31814 130.54290
#
# Poissons Ratio (x) = 0.35861 0.06925
# Poissons Ratio (y) = 0.42023 0.49218
# Poissons Ratio (z) = 0.07293 0.44232
#
# Static dielectric constant tensor:
#      x y z
#    x 4.717800 0.000000 0.000000 
#    y 0.000000 4.412120 0.000000 
#    z 0.000000 0.000000 4.281350 
# 
# 
# High freq. dielectric constant tensor:
#      x y z
#    x 1.939500 0.000000 0.000000 
#    y 0.000000 1.921680 0.000000 
#    z 0.000000 0.000000 1.929660 
# 
# From -- ./inp_files/620.got.cif
#   From: 2010.03.12/outbox.cif.g09.slc.cpg/sg64_1_cif.got.tgz:620.got - 2010.04.10 20:19:32.
