data_PCOD8264819
_publ_section_title
;
Structure prediction by ZEFSAII (Michael W. Deem and Ramdas Pophale) SiO2 
 PCOD8264819
Probable space group: C M C A
;
_chemical_formula_sum "Si O2"
_cell_formula_units_Z 64
_cell_length_a 9.920348
_cell_length_b 19.272819
_cell_length_c 15.907970
_cell_angle_alpha 90.000000
_cell_angle_beta 90.000000
_cell_angle_gamma 90.000000
_cell_volume 3041.493644
_symmetry_space_group_name_H-M "C M C A"
_symmetry_group_IT_number 64
_symmetry_cell_setting 'orthorhombic'
loop_
_space_group_symop_operation_xyz
x,y,z
-x,1/2-y,1/2+z
x,-y,-z
-x,1/2+y,1/2-z
-x,-y,-z
x,1/2+y,1/2-z
-x,y,z
x,1/2-y,1/2+z
1/2+x,1/2+y,z
1/2-x,-y,1/2+z
1/2+x,1/2-y,-z
1/2-x,y,1/2-z
1/2-x,1/2-y,-z
1/2+x,y,1/2-z
1/2-x,1/2+y,z
1/2+x,-y,1/2+z
loop_
_atom_site_type_symbol
_atom_site_label
_atom_site_fract_x
_atom_site_fract_y
_atom_site_fract_z
Si Si1 0.250000 0.366619 0.750000
Si Si2 0.000000 0.726490 0.233268
Si Si3 0.500000 0.794760 0.440439
Si Si4 0.655699 0.961944 0.604096
Si Si5 0.739536 0.396732 0.058309
Si Si6 0.000000 0.311549 0.091948
O O1 0.132612 0.318340 0.785456
O O2 0.321356 0.416025 0.815601
O O3 0.000000 0.760627 0.326676
O O4 0.000000 0.781883 0.159239
O O5 0.366661 0.836830 0.459538
O O6 0.500000 0.729332 0.503616
O O7 0.500000 0.955261 0.574877
O O8 0.756548 0.934003 0.531951
O O9 0.689534 0.043080 0.622789
O O10 0.872804 0.362359 0.095641
#
# Coordination Sequence:
#
# PCOD8264819 Si02
#       6
#     8   8   8  16  16   8
#     4  12  24  42  68  94 132 172 218 278 332 386
#     4  12  26  42  64 100 138 172 224 276 324 408
#     4  12  22  42  68  90 136 190 212 262 346 388
#     4  11  22  44  70  97 129 172 228 277 329 403
#     4  11  23  43  70  95 131 177 221 273 334 393
#     4  12  26  42  64 106 140 170 228 276 324 408
#
# _framework density 21.042292
#
# number of rings (size 3 to 8) (size 9 to 14) (size 15 to 20)
#    0.000    0.500    3.750    6.000    0.000    5.000 
#    0.000    0.000    0.000    0.000    0.000    0.000 
#    0.000    0.000    0.000    0.000    0.000    0.000 
#
# Total GULP energy -396703.533924 kJ/mol
# GULP energy per Si atom -12396.985435 kJ/mol
# Density = 2.099440 g / cm^3
# Si number density = 21.042292 Si / 1000 Ang^3
#
#
#
# Elastic Constant Matrix: (Units=GPa)
#
#
# Indices 1 2 3 4 5 6 
#
# 1 116.0658 43.6033 8.0445 0.0000 0.0000 0.0000
# 2 43.6033 111.9095 29.3824 0.0000 0.0000 0.0000
# 3 8.0445 29.3824 80.1535 0.0000 0.0000 0.0000
# 4 0.0000 0.0000 0.0000 27.7640 0.0000 0.0000
# 5 0.0000 0.0000 0.0000 0.0000 13.5467 0.0000
# 6 0.0000 0.0000 0.0000 0.0000 0.0000 43.1738
#
#
#
# Elastic Compliance Matrix: (Units=1/GPa)
#
#
# Indices 1 2 3 4 5 6 
#
# 1 0.010110 -0.004064 0.000475 0.000000 0.000000 0.000000
# 2 -0.004064 0.011521 -0.003815 0.000000 0.000000 0.000000
# 3 0.000475 -0.003815 0.013827 0.000000 0.000000 0.000000
# 4 0.000000 0.000000 0.000000 0.036018 0.000000 0.000000
# 5 0.000000 0.000000 0.000000 0.000000 0.073819 0.000000
# 6 0.000000 0.000000 0.000000 0.000000 0.000000 0.023162
#
#
# Mechanical properties :
#
#
# Convention : Reuss Voigt Hill
#
# Bulk Modulus (GPa) = 48.42795 52.24324 50.33560
# Shear Modulus (GPa) = 26.29535 32.03679 29.16607
#
# Velocity S-wave (km/s) = 3.53886 3.90615 3.72703
# Velocity P-wave (km/s) = 6.30576 6.72500 6.51875
#
# Compressibility (1/GPa) = 0.02064923
#
# Stress axis : x y z
#
# Youngs Moduli (GPa) = 98.91668 86.79881 72.32204
#
# Poissons Ratio (x) = 0.35272 -0.03435
# Poissons Ratio (y) = 0.40197 0.27594
# Poissons Ratio (z) = -0.04699 0.33118
#
# Static dielectric constant tensor:
#      x y z
#    x 4.094270 0.000000 0.000000 
#    y 0.000000 4.220930 0.000000 
#    z 0.000000 0.000000 3.669530 
# 
# 
# High freq. dielectric constant tensor:
#      x y z
#    x 1.828480 0.000000 0.000000 
#    y 0.000000 1.849790 0.000000 
#    z 0.000000 0.000000 1.813910 
# 
# From -- ./inp_files/29312.got.cif
#   From: 2010.03.12/outbox.cif.g09.slc.cpg/sg64_15_cif.got.tgz:29312.got - 2010.04.10 20:19:32.
