data_PCOD8264814
_publ_section_title
;
Structure prediction by ZEFSAII (Michael W. Deem and Ramdas Pophale) SiO2 
 PCOD8264814
Probable space group: C M C A
;
_chemical_formula_sum "Si O2"
_cell_formula_units_Z 72
_cell_length_a 18.533029
_cell_length_b 13.752386
_cell_length_c 14.121115
_cell_angle_alpha 90.000000
_cell_angle_beta 90.000000
_cell_angle_gamma 90.000000
_cell_volume 3599.096148
_symmetry_space_group_name_H-M "C M C A"
_symmetry_group_IT_number 64
_symmetry_cell_setting 'orthorhombic'
loop_
_space_group_symop_operation_xyz
x,y,z
-x,1/2-y,1/2+z
x,-y,-z
-x,1/2+y,1/2-z
-x,-y,-z
x,1/2+y,1/2-z
-x,y,z
x,1/2-y,1/2+z
1/2+x,1/2+y,z
1/2-x,-y,1/2+z
1/2+x,1/2-y,-z
1/2-x,y,1/2-z
1/2-x,1/2-y,-z
1/2+x,y,1/2-z
1/2-x,1/2+y,z
1/2+x,-y,1/2+z
loop_
_atom_site_type_symbol
_atom_site_label
_atom_site_fract_x
_atom_site_fract_y
_atom_site_fract_z
Si Si1 0.500000 0.436241 0.138209
Si Si2 0.500000 0.645432 0.070775
Si Si3 0.294781 0.184344 0.113276
Si Si4 0.250000 0.974611 0.750000
Si Si5 0.143869 0.728148 0.921925
Si Si6 0.855321 0.134102 0.774040
O O1 0.500000 0.554147 0.143917
O O2 0.434240 0.388379 0.191885
O O3 0.500000 0.399956 0.031991
O O4 0.570750 0.710246 0.086280
O O5 0.296667 0.087166 0.175385
O O6 0.211611 0.198788 0.083365
O O7 0.323038 0.270669 0.178428
O O8 0.347801 0.172741 0.022775
O O9 0.193780 0.043312 0.805040
O O10 0.145022 0.648235 0.839316
#
# Coordination Sequence:
#
# PCOD8264814 Si02
#       6
#     8   8  16   8  16  16
#     4  11  25  40  66  99 132 175 224 270 333 399
#     4  11  23  42  68  97 132 177 221 273 336 395
#     4  11  23  41  66  99 129 170 222 272 333 389
#     4  12  22  42  68  94 132 168 220 272 334 394
#     4  11  22  43  66  95 132 175 215 273 333 387
#     4  12  23  45  64  97 136 170 224 274 325 406
#
# _framework density 20.005020999999999
#
# number of rings (size 3 to 8) (size 9 to 14) (size 15 to 20)
#    0.000    0.667    6.667    2.000    0.000    0.889 
#    0.000    1.111    0.000    2.667    0.000    0.000 
#    0.000    0.000    0.000    0.000    0.000    0.000 
#
# Total GULP energy -446451.854849 kJ/mol
# GULP energy per Si atom -12401.440412 kJ/mol
# Density = 1.995949 g / cm^3
# Si number density = 20.005021 Si / 1000 Ang^3
#
#
#
# Elastic Constant Matrix: (Units=GPa)
#
#
# Indices 1 2 3 4 5 6 
#
# 1 141.7809 59.9132 24.3297 0.0000 0.0000 0.0000
# 2 59.9132 125.6689 59.4329 0.0000 0.0000 0.0000
# 3 24.3297 59.4329 121.9195 0.0000 0.0000 0.0000
# 4 0.0000 0.0000 0.0000 0.7698 0.0000 0.0000
# 5 0.0000 0.0000 0.0000 0.0000 32.5573 0.0000
# 6 0.0000 0.0000 0.0000 0.0000 0.0000 135.3981
#
#
#
# Elastic Compliance Matrix: (Units=1/GPa)
#
#
# Indices 1 2 3 4 5 6 
#
# 1 0.008846 -0.004396 0.000378 0.000000 0.000000 0.000000
# 2 -0.004396 0.012526 -0.005229 0.000000 0.000000 0.000000
# 3 0.000378 -0.005229 0.010676 0.000000 0.000000 0.000000
# 4 0.000000 0.000000 0.000000 1.299063 0.000000 0.000000
# 5 0.000000 0.000000 0.000000 0.000000 0.030715 0.000000
# 6 0.000000 0.000000 0.000000 0.000000 0.000000 0.007386
#
#
# Mechanical properties :
#
#
# Convention : Reuss Voigt Hill
#
# Bulk Modulus (GPa) = 73.78244 75.19119 74.48681
# Shear Modulus (GPa) = 3.59138 50.12461 26.85799
#
# Velocity S-wave (km/s) = 1.34132 5.01103 3.66807
# Velocity P-wave (km/s) = 6.27382 8.43495 7.43334
#
# Compressibility (1/GPa) = 0.01355336
#
# Stress axis : x y z
#
# Youngs Moduli (GPa) = 113.04603 79.83298 93.67012
#
# Poissons Ratio (x) = 0.35094 -0.03538
# Poissons Ratio (y) = 0.49695 0.48980
# Poissons Ratio (z) = -0.04269 0.41744
#
# Static dielectric constant tensor:
#      x y z
#    x 4.007540 0.000000 0.000000 
#    y 0.000000 3.629190 0.000000 
#    z 0.000000 0.000000 3.904940 
# 
# 
# High freq. dielectric constant tensor:
#      x y z
#    x 1.788810 0.000000 0.000000 
#    y 0.000000 1.775970 0.000000 
#    z 0.000000 0.000000 1.787850 
# 
# From -- ./inp_files/25162.got.cif
#   From: 2010.03.12/outbox.cif.g09.slc.cpg/sg64_13_cif.got.tgz:25162.got - 2010.04.10 20:19:32.
