data_PCOD8264849
_publ_section_title
;
Structure prediction by ZEFSAII (Michael W. Deem and Ramdas Pophale) SiO2 
 PCOD8264849
Probable space group: C M C A
;
_chemical_formula_sum "Si O2"
_cell_formula_units_Z 80
_cell_length_a 7.667191
_cell_length_b 19.942085
_cell_length_c 25.797884
_cell_angle_alpha 90.000000
_cell_angle_beta 90.000000
_cell_angle_gamma 90.000000
_cell_volume 3944.490650
_symmetry_space_group_name_H-M "C M C A"
_symmetry_group_IT_number 64
_symmetry_cell_setting 'orthorhombic'
loop_
_space_group_symop_operation_xyz
x,y,z
-x,1/2-y,1/2+z
x,-y,-z
-x,1/2+y,1/2-z
-x,-y,-z
x,1/2+y,1/2-z
-x,y,z
x,1/2-y,1/2+z
1/2+x,1/2+y,z
1/2-x,-y,1/2+z
1/2+x,1/2-y,-z
1/2-x,y,1/2-z
1/2-x,1/2-y,-z
1/2+x,y,1/2-z
1/2-x,1/2+y,z
1/2+x,-y,1/2+z
loop_
_atom_site_type_symbol
_atom_site_label
_atom_site_fract_x
_atom_site_fract_y
_atom_site_fract_z
Si Si1 0.297975 0.027102 0.192650
Si Si2 0.000000 0.588156 0.052879
Si Si3 0.804625 0.395953 0.358386
Si Si4 0.804956 0.362170 0.618873
Si Si5 0.202982 0.739476 0.809120
Si Si6 0.000000 0.568064 0.932205
O O1 0.500000 0.040066 0.181249
O O2 0.250000 0.049994 0.250000
O O3 0.248456 0.949655 0.185255
O O4 0.186492 0.070753 0.152923
O O5 0.828075 0.627851 0.071431
O O6 0.000000 0.512287 0.074965
O O7 0.000000 0.589449 0.991407
O O8 0.804502 0.324813 0.329946
O O9 0.672461 0.400428 0.406578
O O10 0.000000 0.409220 0.379349
O O11 0.739556 0.301873 0.655376
O O12 0.000000 0.348714 0.596869
O O13 0.250000 0.756059 0.750000
O O14 0.000000 0.724770 0.814307
#
# Coordination Sequence:
#
# PCOD8264849 Si02
#       6
#    16   8  16  16  16   8
#     4  12  22  37  60  92 130 165 208 256 309 377
#     4  11  24  44  73  90 128 165 210 279 325 371
#     4  12  23  41  65  91 130 167 210 264 313 379
#     4  11  23  41  64  94 129 166 212 262 313 382
#     4  11  24  40  63  96 135 173 212 253 316 388
#     4  11  24  46  67  98 122 165 216 273 327 371
#
# _framework density 20.281452000000002
#
# number of rings (size 3 to 8) (size 9 to 14) (size 15 to 20)
#    0.000    0.600    5.000    3.600    2.800    2.400 
#    0.000    3.000    0.000    0.000    0.000    0.000 
#    0.000    0.000    0.000    0.000    0.000    0.000 
#
# Total GULP energy -496213.681203 kJ/mol
# GULP energy per Si atom -12405.342030 kJ/mol
# Density = 2.023529 g / cm^3
# Si number density = 20.281452 Si / 1000 Ang^3
#
#
#
# Elastic Constant Matrix: (Units=GPa)
#
#
# Indices 1 2 3 4 5 6 
#
# 1 125.8542 7.5622 30.7819 0.0000 0.0000 0.0000
# 2 7.5622 78.7355 5.8564 0.0000 0.0000 0.0000
# 3 30.7819 5.8564 85.9379 0.0000 0.0000 0.0000
# 4 0.0000 0.0000 0.0000 29.5175 0.0000 0.0000
# 5 0.0000 0.0000 0.0000 0.0000 24.4271 0.0000
# 6 0.0000 0.0000 0.0000 0.0000 0.0000 26.4932
#
#
#
# Elastic Compliance Matrix: (Units=1/GPa)
#
#
# Indices 1 2 3 4 5 6 
#
# 1 0.008738 -0.000610 -0.003088 0.000000 0.000000 0.000000
# 2 -0.000610 0.012808 -0.000655 0.000000 0.000000 0.000000
# 3 -0.003088 -0.000655 0.012787 0.000000 0.000000 0.000000
# 4 0.000000 0.000000 0.000000 0.033878 0.000000 0.000000
# 5 0.000000 0.000000 0.000000 0.000000 0.040938 0.000000
# 6 0.000000 0.000000 0.000000 0.000000 0.000000 0.037746
#
#
# Mechanical properties :
#
#
# Convention : Reuss Voigt Hill
#
# Bulk Modulus (GPa) = 39.01939 42.10319 40.56129
# Shear Modulus (GPa) = 30.46146 32.50935 31.48540
#
# Velocity S-wave (km/s) = 3.87969 4.00798 3.94436
# Velocity P-wave (km/s) = 6.27296 6.49793 6.38643
#
# Compressibility (1/GPa) = 0.02562828
#
# Stress axis : x y z
#
# Youngs Moduli (GPa) = 114.44732 78.07631 78.20405
#
# Poissons Ratio (x) = 0.04759 0.24151
# Poissons Ratio (y) = 0.06976 0.05119
# Poissons Ratio (z) = 0.35343 0.05110
#
# Static dielectric constant tensor:
#      x y z
#    x 3.850440 0.000000 0.000000 
#    y 0.000000 3.710170 0.000000 
#    z 0.000000 0.000000 3.491640 
# 
# 
# High freq. dielectric constant tensor:
#      x y z
#    x 1.809440 0.000000 0.000000 
#    y 0.000000 1.796680 0.000000 
#    z 0.000000 0.000000 1.775350 
# 
# From -- ./inp_files/47934.got.cif
#   From: 2010.03.12/outbox.cif.g09.slc.cpg/sg64_24_cif.got.tgz:47934.got - 2010.04.10 20:19:32.
