data_PCOD8264929
_publ_section_title
;
Structure prediction by ZEFSAII (Michael W. Deem and Ramdas Pophale) SiO2 
 PCOD8264929
Probable space group: C M C A
;
_chemical_formula_sum "Si O2"
_cell_formula_units_Z 80
_cell_length_a 17.187003
_cell_length_b 8.395384
_cell_length_c 23.587438
_cell_angle_alpha 90.000000
_cell_angle_beta 90.000000
_cell_angle_gamma 90.000000
_cell_volume 3403.466574
_symmetry_space_group_name_H-M "C M C A"
_symmetry_group_IT_number 64
_symmetry_cell_setting 'orthorhombic'
loop_
_space_group_symop_operation_xyz
x,y,z
-x,1/2-y,1/2+z
x,-y,-z
-x,1/2+y,1/2-z
-x,-y,-z
x,1/2+y,1/2-z
-x,y,z
x,1/2-y,1/2+z
1/2+x,1/2+y,z
1/2-x,-y,1/2+z
1/2+x,1/2-y,-z
1/2-x,y,1/2-z
1/2-x,1/2-y,-z
1/2+x,y,1/2-z
1/2-x,1/2+y,z
1/2+x,-y,1/2+z
loop_
_atom_site_type_symbol
_atom_site_label
_atom_site_fract_x
_atom_site_fract_y
_atom_site_fract_z
Si Si1 0.173677 0.090624 0.799394
Si Si2 0.415458 0.391621 0.410173
Si Si3 0.585722 0.278893 0.791794
Si Si4 0.712647 0.893382 0.863535
Si Si5 0.183868 0.157955 0.033149
O O1 0.156749 0.194847 0.742576
O O2 0.175374 0.223144 0.848665
O O3 0.103940 0.964903 0.802340
O O4 0.257158 0.994076 0.807434
O O5 0.500000 0.463171 0.426082
O O6 0.421601 0.302439 0.351366
O O7 0.351976 0.528164 0.403170
O O8 0.390726 0.272651 0.460897
O O9 0.500000 0.270305 0.761311
O O10 0.789073 0.876317 0.902344
O O11 0.250000 0.250000 0.000000
O O12 0.158691 0.000000 0.000000
#
# Coordination Sequence:
#
# PCOD8264929 Si02
#       5
#    16  16  16  16  16
#     4  12  24  42  69  99 144 190 243 281 351 426
#     4  11  25  46  69 106 149 181 235 303 361 419
#     4  11  25  43  66 102 147 189 232 290 352 419
#     4  12  24  44  69 107 136 190 242 296 348 431
#     4  12  23  45  76 101 136 183 241 304 362 428
#
# _framework density 23.505445999999999
#
# number of rings (size 3 to 8) (size 9 to 14) (size 15 to 20)
#    0.000    0.400    6.000    1.800    0.000   10.000 
#    0.000    2.000    0.000    0.000    0.000    0.000 
#    0.000    0.000    0.000    0.000    0.000    0.000 
#
# Total GULP energy -495601.024025 kJ/mol
# GULP energy per Si atom -12390.025601 kJ/mol
# Density = 2.345195 g / cm^3
# Si number density = 23.505446 Si / 1000 Ang^3
#
#
#
# Elastic Constant Matrix: (Units=GPa)
#
#
# Indices 1 2 3 4 5 6 
#
# 1 113.8709 13.4012 17.0667 0.0000 0.0000 0.0000
# 2 13.4012 93.2763 4.2595 0.0000 0.0000 0.0000
# 3 17.0667 4.2595 53.8464 0.0000 0.0000 0.0000
# 4 0.0000 0.0000 0.0000 40.3671 0.0000 0.0000
# 5 0.0000 0.0000 0.0000 0.0000 37.1654 0.0000
# 6 0.0000 0.0000 0.0000 0.0000 0.0000 21.8996
#
#
#
# Elastic Compliance Matrix: (Units=1/GPa)
#
#
# Indices 1 2 3 4 5 6 
#
# 1 0.009355 -0.001213 -0.002869 0.000000 0.000000 0.000000
# 2 -0.001213 0.010917 -0.000479 0.000000 0.000000 0.000000
# 3 -0.002869 -0.000479 0.019519 0.000000 0.000000 0.000000
# 4 0.000000 0.000000 0.000000 0.024773 0.000000 0.000000
# 5 0.000000 0.000000 0.000000 0.000000 0.026907 0.000000
# 6 0.000000 0.000000 0.000000 0.000000 0.000000 0.045663
#
#
# Mechanical properties :
#
#
# Convention : Reuss Voigt Hill
#
# Bulk Modulus (GPa) = 32.60731 36.71646 34.66189
# Shear Modulus (GPa) = 31.95350 34.97085 33.46218
#
# Velocity S-wave (km/s) = 3.69102 3.86135 3.77715
# Velocity P-wave (km/s) = 5.66279 5.96107 5.81384
#
# Compressibility (1/GPa) = 0.03066797
#
# Stress axis : x y z
#
# Youngs Moduli (GPa) = 106.89898 91.60033 51.23329
#
# Poissons Ratio (x) = 0.11111 0.14699
# Poissons Ratio (y) = 0.12967 0.02455
# Poissons Ratio (z) = 0.30669 0.04389
#
# Static dielectric constant tensor:
#      x y z
#    x 23.728160 0.000000 0.000000 
#    y 0.000000 4.729440 0.000000 
#    z 0.000000 0.000000 5.433780 
# 
# 
# High freq. dielectric constant tensor:
#      x y z
#    x 1.924530 0.000000 0.000000 
#    y 0.000000 1.945990 0.000000 
#    z 0.000000 0.000000 1.922880 
# 
# From -- ./inp_files/50313.got.cif
#   From: 2010.03.12/outbox.cif.g09.slc.cpg/sg64_26_cif.got.tgz:50313.got - 2010.04.10 20:19:32.
