data_PCOD8264993
_publ_section_title
;
Structure prediction by ZEFSAII (Michael W. Deem and Ramdas Pophale) SiO2 
 PCOD8264993
Probable space group: C M C A
;
_chemical_formula_sum "Si O2"
_cell_formula_units_Z 64
_cell_length_a 21.571670
_cell_length_b 8.572770
_cell_length_c 14.553722
_cell_angle_alpha 90.000000
_cell_angle_beta 90.000000
_cell_angle_gamma 90.000000
_cell_volume 2691.404753
_symmetry_space_group_name_H-M "C M C A"
_symmetry_group_IT_number 64
_symmetry_cell_setting 'orthorhombic'
loop_
_space_group_symop_operation_xyz
x,y,z
-x,1/2-y,1/2+z
x,-y,-z
-x,1/2+y,1/2-z
-x,-y,-z
x,1/2+y,1/2-z
-x,y,z
x,1/2-y,1/2+z
1/2+x,1/2+y,z
1/2-x,-y,1/2+z
1/2+x,1/2-y,-z
1/2-x,y,1/2-z
1/2-x,1/2-y,-z
1/2+x,y,1/2-z
1/2-x,1/2+y,z
1/2+x,-y,1/2+z
loop_
_atom_site_type_symbol
_atom_site_label
_atom_site_fract_x
_atom_site_fract_y
_atom_site_fract_z
Si Si1 0.132851 0.832820 0.033832
Si Si2 0.500000 0.003535 0.803595
Si Si3 0.500000 0.334615 0.120331
Si Si4 0.183599 0.165789 0.294776
Si Si5 0.873120 0.146610 0.645847
O O1 0.060214 0.845678 0.056932
O O2 0.174795 0.782385 0.119656
O O3 0.143006 0.703878 0.955708
O O4 0.157616 0.000000 0.000000
O O5 0.500000 0.820419 0.819346
O O6 0.500000 0.024541 0.693610
O O7 0.558350 0.078784 0.854110
O O8 0.250000 0.192086 0.250000
O O9 0.132118 0.210424 0.218032
O O10 0.175260 0.987638 0.325013
#
# Coordination Sequence:
#
# PCOD8264993 Si02
#       5
#    16   8   8  16  16
#     4  12  27  47  78 117 156 200 255 319 387 461
#     4  12  23  43  79 112 159 198 243 310 396 454
#     4  12  26  45  76 119 159 203 247 317 394 464
#     4  12  27  50  76 108 151 205 260 314 375 451
#     4  12  25  47  78 110 155 199 253 321 386 452
#
# _framework density 23.779404
#
# number of rings (size 3 to 8) (size 9 to 14) (size 15 to 20)
#    0.000    0.000    5.000    4.125    3.500    2.000 
#    0.000    3.750    0.000    0.000    0.000    0.000 
#    0.000    0.000    0.000    0.000    0.000    0.000 
#
# Total GULP energy -397097.238236 kJ/mol
# GULP energy per Si atom -12409.288695 kJ/mol
# Density = 2.372528 g / cm^3
# Si number density = 23.779404 Si / 1000 Ang^3
#
#
#
# Elastic Constant Matrix: (Units=GPa)
#
#
# Indices 1 2 3 4 5 6 
#
# 1 104.8948 44.2000 58.1600 0.0000 0.0000 0.0000
# 2 44.2000 105.3034 46.4190 0.0000 0.0000 0.0000
# 3 58.1600 46.4190 160.2615 0.0000 0.0000 0.0000
# 4 0.0000 0.0000 0.0000 52.2134 0.0000 0.0000
# 5 0.0000 0.0000 0.0000 0.0000 -29.5176 0.0000
# 6 0.0000 0.0000 0.0000 0.0000 0.0000 19.9844
#
#
#
# Elastic Compliance Matrix: (Units=1/GPa)
#
#
# Indices 1 2 3 4 5 6 
#
# 1 0.013220 -0.003937 -0.003657 0.000000 0.000000 0.000000
# 2 -0.003937 0.012059 -0.002064 0.000000 0.000000 0.000000
# 3 -0.003657 -0.002064 0.008165 0.000000 0.000000 0.000000
# 4 0.000000 0.000000 0.000000 0.019152 0.000000 0.000000
# 5 0.000000 0.000000 0.000000 0.000000 -0.033878 0.000000
# 6 0.000000 0.000000 0.000000 0.000000 0.000000 0.050039
#
#
# Mechanical properties :
#
#
# Convention : Reuss Voigt Hill
#
# Bulk Modulus (GPa) = 70.78520 74.22418 72.50469
# Shear Modulus (GPa) = 53.88956 23.31476 38.60216
#
# Velocity S-wave (km/s) = 4.76566 3.13463 4.03345
# Velocity P-wave (km/s) = 7.75332 6.66203 7.22830
#
# Compressibility (1/GPa) = 0.01412725
#
# Stress axis : x y z
#
# Youngs Moduli (GPa) = 75.64243 82.92806 122.47497
#
# Poissons Ratio (x) = 0.32647 0.44794
# Poissons Ratio (y) = 0.29779 0.25279
# Poissons Ratio (z) = 0.27665 0.17117
#
# Static dielectric constant tensor:
#      x y z
#    x 4.153700 0.000000 0.000000 
#    y 0.000000 4.457470 0.000000 
#    z 0.000000 0.000000 4.374620 
# 
# 
# High freq. dielectric constant tensor:
#      x y z
#    x 1.937500 0.000000 0.000000 
#    y 0.000000 1.958240 0.000000 
#    z 0.000000 0.000000 1.955600 
# 
# From -- ./inp_files/26941.got.cif
#   From: 2010.03.12/outbox.cif.g09.slc.cpg/sg64_14_cif.got.tgz:26941.got - 2010.04.10 20:19:32.
