data_PCOD8264541
_publ_section_title
;
Structure prediction by ZEFSAII (Michael W. Deem and Ramdas Pophale) SiO2 
 PCOD8264541
Probable space group: C M C A
;
_chemical_formula_sum "Si O2"
_cell_formula_units_Z 112
_cell_length_a 27.410665
_cell_length_b 14.395577
_cell_length_c 13.542435
_cell_angle_alpha 90.000000
_cell_angle_beta 90.000000
_cell_angle_gamma 90.000000
_cell_volume 5343.741097
_symmetry_space_group_name_H-M "C M C A"
_symmetry_group_IT_number 64
_symmetry_cell_setting 'orthorhombic'
loop_
_space_group_symop_operation_xyz
x,y,z
-x,1/2-y,1/2+z
x,-y,-z
-x,1/2+y,1/2-z
-x,-y,-z
x,1/2+y,1/2-z
-x,y,z
x,1/2-y,1/2+z
1/2+x,1/2+y,z
1/2-x,-y,1/2+z
1/2+x,1/2-y,-z
1/2-x,y,1/2-z
1/2-x,1/2-y,-z
1/2+x,y,1/2-z
1/2-x,1/2+y,z
1/2+x,-y,1/2+z
loop_
_atom_site_type_symbol
_atom_site_label
_atom_site_fract_x
_atom_site_fract_y
_atom_site_fract_z
Si Si1 0.242715 0.991488 0.635940
Si Si2 0.444886 0.997860 0.616308
Si Si3 0.116044 0.850555 0.768562
Si Si4 0.867524 0.995262 0.389471
Si Si5 0.788439 0.198970 0.112547
Si Si6 0.705589 0.334957 0.102512
Si Si7 0.390427 0.151115 0.728567
O O1 0.250000 0.012188 0.750000
O O2 0.189615 0.020982 0.600381
O O3 0.250583 0.885320 0.609603
O O4 0.281792 0.057180 0.580538
O O5 0.500000 0.985132 0.655097
O O6 0.412734 0.911577 0.652257
O O7 0.442487 0.000000 0.500000
O O8 0.424705 0.096516 0.653078
O O9 0.121340 0.908808 0.667844
O O10 0.169229 0.822764 0.809722
O O11 0.087345 0.753784 0.749289
O O12 0.890587 0.000000 0.500000
O O13 0.888740 0.906769 0.330546
O O14 0.755223 0.286586 0.144538
O O15 0.810176 0.212733 0.001629
O O16 0.662581 0.330203 0.181716
#
# Coordination Sequence:
#
# PCOD8264541 Si02
#       7
#    16  16  16  16  16  16  16
#     4  12  20  34  52  73 113 164 213 251 294 347
#     4  10  23  45  71  97 122 152 201 263 321 377
#     4  11  23  39  64  89 123 161 202 255 310 377
#     4  11  23  37  54  83 121 166 211 255 301 359
#     4  11  23  36  56  86 120 161 208 255 302 361
#     4  11  23  36  56  86 120 161 208 255 302 361
#     4  11  23  39  64  89 123 161 202 255 310 377
#
# _framework density 20.959098000000001
#
# number of rings (size 3 to 8) (size 9 to 14) (size 15 to 20)
#    0.000    1.000    2.857    4.714    0.000    5.143 
#    0.000    0.000    0.000    7.714    0.000    0.000 
#    0.000    0.000    0.000    0.000    0.000    0.000 
#
# Total GULP energy -694369.478142 kJ/mol
# GULP energy per Si atom -12399.454967 kJ/mol
# Density = 2.091139 g / cm^3
# Si number density = 20.959098 Si / 1000 Ang^3
#
#
#
# Elastic Constant Matrix: (Units=GPa)
#
#
# Indices 1 2 3 4 5 6 
#
# 1 72.3872 26.4783 33.6222 0.0000 0.0000 0.0000
# 2 26.4783 137.3242 43.5320 0.0000 0.0000 0.0000
# 3 33.6222 43.5320 128.7151 0.0000 0.0000 0.0000
# 4 0.0000 0.0000 0.0000 23.5319 0.0000 0.0000
# 5 0.0000 0.0000 0.0000 0.0000 13.6919 0.0000
# 6 0.0000 0.0000 0.0000 0.0000 0.0000 18.8598
#
#
#
# Elastic Compliance Matrix: (Units=1/GPa)
#
#
# Indices 1 2 3 4 5 6 
#
# 1 0.016196 -0.001996 -0.003556 0.000000 0.000000 0.000000
# 2 -0.001996 0.008402 -0.002320 0.000000 0.000000 0.000000
# 3 -0.003556 -0.002320 0.009483 0.000000 0.000000 0.000000
# 4 0.000000 0.000000 0.000000 0.042495 0.000000 0.000000
# 5 0.000000 0.000000 0.000000 0.000000 0.073036 0.000000
# 6 0.000000 0.000000 0.000000 0.000000 0.000000 0.053023
#
#
# Mechanical properties :
#
#
# Convention : Reuss Voigt Hill
#
# Bulk Modulus (GPa) = 54.53289 60.63238 57.58264
# Shear Modulus (GPa) = 22.27257 26.86967 24.57112
#
# Velocity S-wave (km/s) = 3.26340 3.58439 3.42765
# Velocity P-wave (km/s) = 6.34625 6.79133 6.57256
#
# Compressibility (1/GPa) = 0.01833756
#
# Stress axis : x y z
#
# Youngs Moduli (GPa) = 61.74310 119.01328 105.45548
#
# Poissons Ratio (x) = 0.23752 0.37497
# Poissons Ratio (y) = 0.12322 0.24470
# Poissons Ratio (z) = 0.21954 0.27616
#
# Static dielectric constant tensor:
#      x y z
#    x 3.494030 0.000000 0.000000 
#    y 0.000000 4.132680 0.000000 
#    z 0.000000 0.000000 4.057660 
# 
# 
# High freq. dielectric constant tensor:
#      x y z
#    x 1.770370 0.000000 0.000000 
#    y 0.000000 1.839900 0.000000 
#    z 0.000000 0.000000 1.838660 
# 
# From -- ./inp_files/27449.got.cif
#   From: 2010.03.12/outbox.cif.g09.slc.cpg/sg64_14_cif.got.tgz:27449.got - 2010.04.10 20:19:32.
