data_PCOD8264790
_publ_section_title
;
Structure prediction by ZEFSAII (Michael W. Deem and Ramdas Pophale) SiO2 
 PCOD8264790
Probable space group: C M C A
;
_chemical_formula_sum "Si O2"
_cell_formula_units_Z 72
_cell_length_a 20.600811
_cell_length_b 9.841481
_cell_length_c 17.042085
_cell_angle_alpha 90.000000
_cell_angle_beta 90.000000
_cell_angle_gamma 90.000000
_cell_volume 3455.154748
_symmetry_space_group_name_H-M "C M C A"
_symmetry_group_IT_number 64
_symmetry_cell_setting 'orthorhombic'
loop_
_space_group_symop_operation_xyz
x,y,z
-x,1/2-y,1/2+z
x,-y,-z
-x,1/2+y,1/2-z
-x,-y,-z
x,1/2+y,1/2-z
-x,y,z
x,1/2-y,1/2+z
1/2+x,1/2+y,z
1/2-x,-y,1/2+z
1/2+x,1/2-y,-z
1/2-x,y,1/2-z
1/2-x,1/2-y,-z
1/2+x,y,1/2-z
1/2-x,1/2+y,z
1/2+x,-y,1/2+z
loop_
_atom_site_type_symbol
_atom_site_label
_atom_site_fract_x
_atom_site_fract_y
_atom_site_fract_z
Si Si1 0.750000 0.157741 0.750000
Si Si2 0.340110 0.641753 0.023682
Si Si3 0.870373 0.502923 0.217554
Si Si4 0.925765 0.771144 0.833834
Si Si5 0.211707 0.673729 0.105986
O O1 0.812717 0.066105 0.766557
O O2 0.746026 0.250794 0.826806
O O3 0.384379 0.716985 0.087216
O O4 0.267582 0.605658 0.053819
O O5 0.373970 0.500000 0.000000
O O6 0.334714 0.731380 0.945656
O O7 0.921347 0.384216 0.196871
O O8 0.902016 0.623820 0.267233
O O9 0.837335 0.561340 0.139067
O O10 0.000000 0.803855 0.853289
#
# Coordination Sequence:
#
# PCOD8264790 Si02
#       5
#     8  16  16  16  16
#     4  12  20  42  70 106 136 166 218 290 338 406
#     4  11  24  41  65 101 138 175 212 276 357 410
#     4  12  23  43  69 102 130 177 229 287 341 394
#     4  12  27  46  67  94 137 185 237 276 325 413
#     4  11  22  39  69 103 137 166 218 285 350 406
#
# _framework density 20.838429000000001
#
# number of rings (size 3 to 8) (size 9 to 14) (size 15 to 20)
#    0.000    0.444    4.444    5.333    3.111    0.444 
#    0.000    3.333    0.000    0.000    0.000    0.000 
#    0.000    0.000    0.000    0.000    0.000    0.000 
#
# Total GULP energy -446423.703294 kJ/mol
# GULP energy per Si atom -12400.658425 kJ/mol
# Density = 2.079100 g / cm^3
# Si number density = 20.838429 Si / 1000 Ang^3
#
#
#
# Elastic Constant Matrix: (Units=GPa)
#
#
# Indices 1 2 3 4 5 6 
#
# 1 89.3974 24.9985 17.4383 0.0000 0.0000 0.0000
# 2 24.9985 123.7556 43.3851 0.0000 0.0000 0.0000
# 3 17.4383 43.3851 96.7279 0.0000 0.0000 0.0000
# 4 0.0000 0.0000 0.0000 27.8080 0.0000 0.0000
# 5 0.0000 0.0000 0.0000 0.0000 13.9447 0.0000
# 6 0.0000 0.0000 0.0000 0.0000 0.0000 15.8934
#
#
#
# Elastic Compliance Matrix: (Units=1/GPa)
#
#
# Indices 1 2 3 4 5 6 
#
# 1 0.011987 -0.001974 -0.001276 0.000000 0.000000 0.000000
# 2 -0.001974 0.009913 -0.004090 0.000000 0.000000 0.000000
# 3 -0.001276 -0.004090 0.012403 0.000000 0.000000 0.000000
# 4 0.000000 0.000000 0.000000 0.035961 0.000000 0.000000
# 5 0.000000 0.000000 0.000000 0.000000 0.071712 0.000000
# 6 0.000000 0.000000 0.000000 0.000000 0.000000 0.062919
#
#
# Mechanical properties :
#
#
# Convention : Reuss Voigt Hill
#
# Bulk Modulus (GPa) = 50.96142 53.50273 52.23208
# Shear Modulus (GPa) = 22.11256 26.46649 24.28953
#
# Velocity S-wave (km/s) = 3.26105 3.56769 3.41781
# Velocity P-wave (km/s) = 6.21996 6.53467 6.37926
#
# Compressibility (1/GPa) = 0.01962269
#
# Stress axis : x y z
#
# Youngs Moduli (GPa) = 83.42462 100.87543 80.62620
#
# Poissons Ratio (x) = 0.19915 0.10284
# Poissons Ratio (y) = 0.16469 0.32980
# Poissons Ratio (z) = 0.10641 0.41263
#
# Static dielectric constant tensor:
#      x y z
#    x 3.566280 0.000000 0.000000 
#    y 0.000000 3.983600 0.000000 
#    z 0.000000 0.000000 3.773460 
# 
# 
# High freq. dielectric constant tensor:
#      x y z
#    x 1.792210 0.000000 0.000000 
#    y 0.000000 1.833040 0.000000 
#    z 0.000000 0.000000 1.821810 
# 
# From -- ./inp_files/34847.got.cif
#   From: 2010.03.12/outbox.cif.g09.slc.cpg/sg64_18_cif.got.tgz:34847.got - 2010.04.10 20:19:32.
