data_PCOD8264722
_publ_section_title
;
Structure prediction by ZEFSAII (Michael W. Deem and Ramdas Pophale) SiO2 
 PCOD8264722
Probable space group: C M C A
;
_chemical_formula_sum "Si O2"
_cell_formula_units_Z 96
_cell_length_a 8.507461
_cell_length_b 28.913206
_cell_length_c 20.425608
_cell_angle_alpha 90.000000
_cell_angle_beta 90.000000
_cell_angle_gamma 90.000000
_cell_volume 5024.249641
_symmetry_space_group_name_H-M "C M C A"
_symmetry_group_IT_number 64
_symmetry_cell_setting 'orthorhombic'
loop_
_space_group_symop_operation_xyz
x,y,z
-x,1/2-y,1/2+z
x,-y,-z
-x,1/2+y,1/2-z
-x,-y,-z
x,1/2+y,1/2-z
-x,y,z
x,1/2-y,1/2+z
1/2+x,1/2+y,z
1/2-x,-y,1/2+z
1/2+x,1/2-y,-z
1/2-x,y,1/2-z
1/2-x,1/2-y,-z
1/2+x,y,1/2-z
1/2-x,1/2+y,z
1/2+x,-y,1/2+z
loop_
_atom_site_type_symbol
_atom_site_label
_atom_site_fract_x
_atom_site_fract_y
_atom_site_fract_z
Si Si1 0.313224 0.965221 0.818963
Si Si2 0.683850 0.872941 0.022933
Si Si3 0.314141 0.027271 0.938239
Si Si4 0.314811 0.125185 0.380210
Si Si5 0.815414 0.222196 0.178998
Si Si6 0.316914 0.722453 0.938622
O O1 0.500000 0.958448 0.818937
O O2 0.250000 0.983850 0.750000
O O3 0.228995 0.916675 0.832777
O O4 0.257080 0.003178 0.871691
O O5 0.500000 0.862622 0.032423
O O6 0.738574 0.919270 0.060793
O O7 0.784253 0.831684 0.053297
O O8 0.717549 0.879984 0.946554
O O9 0.500000 0.024710 0.944256
O O10 0.239136 0.000000 0.000000
O O11 0.500000 0.126237 0.395489
O O12 0.257988 0.171909 0.344687
O O13 0.750000 0.234143 0.250000
O O14 0.758962 0.261040 0.128698
O O15 0.000000 0.223844 0.182746
O O16 0.500000 0.732051 0.935876
O O17 0.250000 0.750000 0.000000
#
# Coordination Sequence:
#
# PCOD8264722 Si02
#       6
#    16  16  16  16  16  16
#     4  11  22  38  59  85 121 157 199 243 296 357
#     4  11  21  37  63  90 119 155 201 250 300 350
#     4   9  18  36  60  86 114 155 199 241 292 352
#     4  11  22  36  58  90 125 156 195 243 300 361
#     4  11  24  41  61  88 123 160 201 246 301 361
#     4  12  24  40  62  89 122 159 203 249 298 356
#
# _framework density 19.107332
#
# number of rings (size 3 to 8) (size 9 to 14) (size 15 to 20)
#    0.000    1.167    3.333    4.000    0.000    3.333 
#    0.000    5.000    0.000    2.000    0.000    0.000 
#    0.000    0.000    0.000    0.000    0.000    0.000 
#
# Total GULP energy -595432.686656 kJ/mol
# GULP energy per Si atom -12404.847639 kJ/mol
# Density = 1.906384 g / cm^3
# Si number density = 19.107332 Si / 1000 Ang^3
#
#
#
# Elastic Constant Matrix: (Units=GPa)
#
#
# Indices 1 2 3 4 5 6 
#
# 1 34.0549 6.3526 8.5124 0.0000 0.0000 0.0000
# 2 6.3526 115.5107 60.1651 0.0000 0.0000 0.0000
# 3 8.5124 60.1651 143.5404 0.0000 0.0000 0.0000
# 4 0.0000 0.0000 0.0000 35.8554 0.0000 0.0000
# 5 0.0000 0.0000 0.0000 0.0000 33.4703 0.0000
# 6 0.0000 0.0000 0.0000 0.0000 0.0000 26.6693
#
#
#
# Elastic Compliance Matrix: (Units=1/GPa)
#
#
# Indices 1 2 3 4 5 6 
#
# 1 0.029883 -0.000922 -0.001386 0.000000 0.000000 0.000000
# 2 -0.000922 0.011104 -0.004599 0.000000 0.000000 0.000000
# 3 -0.001386 -0.004599 0.008977 0.000000 0.000000 0.000000
# 4 0.000000 0.000000 0.000000 0.027890 0.000000 0.000000
# 5 0.000000 0.000000 0.000000 0.000000 0.029877 0.000000
# 6 0.000000 0.000000 0.000000 0.000000 0.000000 0.037496
#
#
# Mechanical properties :
#
#
# Convention : Reuss Voigt Hill
#
# Bulk Modulus (GPa) = 27.66308 49.24067 38.45188
# Shear Modulus (GPa) = 29.22445 33.73742 31.48094
#
# Velocity S-wave (km/s) = 3.91511 4.20656 4.06345
# Velocity P-wave (km/s) = 5.91157 7.02994 6.49487
#
# Compressibility (1/GPa) = 0.03614926
#
# Stress axis : x y z
#
# Youngs Moduli (GPa) = 33.46419 90.06138 111.39943
#
# Poissons Ratio (x) = 0.08300 0.15438
# Poissons Ratio (y) = 0.03084 0.51237
# Poissons Ratio (z) = 0.04638 0.41423
#
# Static dielectric constant tensor:
#      x y z
#    x 3.437260 0.000000 0.000000 
#    y 0.000000 3.711890 0.000000 
#    z 0.000000 0.000000 3.594210 
# 
# 
# High freq. dielectric constant tensor:
#      x y z
#    x 1.742100 0.000000 0.000000 
#    y 0.000000 1.747790 0.000000 
#    z 0.000000 0.000000 1.743550 
# 
# From -- ./inp_files/37094.got.cif
#   From: 2010.03.12/outbox.cif.g09.slc.cpg/sg64_19_cif.got.tgz:37094.got - 2010.04.10 20:19:32.
