data_PCOD8264635
_publ_section_title
;
Structure prediction by ZEFSAII (Michael W. Deem and Ramdas Pophale) SiO2 
 PCOD8264635
Probable space group: C M C A
;
_chemical_formula_sum "Si O2"
_cell_formula_units_Z 112
_cell_length_a 14.652727
_cell_length_b 25.403850
_cell_length_c 12.940583
_cell_angle_alpha 90.000000
_cell_angle_beta 90.000000
_cell_angle_gamma 90.000000
_cell_volume 4816.946697
_symmetry_space_group_name_H-M "C M C A"
_symmetry_group_IT_number 64
_symmetry_cell_setting 'orthorhombic'
loop_
_space_group_symop_operation_xyz
x,y,z
-x,1/2-y,1/2+z
x,-y,-z
-x,1/2+y,1/2-z
-x,-y,-z
x,1/2+y,1/2-z
-x,y,z
x,1/2-y,1/2+z
1/2+x,1/2+y,z
1/2-x,-y,1/2+z
1/2+x,1/2-y,-z
1/2-x,y,1/2-z
1/2-x,1/2-y,-z
1/2+x,y,1/2-z
1/2-x,1/2+y,z
1/2+x,-y,1/2+z
loop_
_atom_site_type_symbol
_atom_site_label
_atom_site_fract_x
_atom_site_fract_y
_atom_site_fract_z
Si Si1 0.226124 0.958455 0.409890
Si Si2 0.103973 0.674112 0.458683
Si Si3 0.853057 0.601203 0.277533
Si Si4 0.656798 0.754222 0.208353
Si Si5 0.602789 0.515116 0.779512
Si Si6 0.098030 0.808875 0.619897
Si Si7 0.721232 0.337465 0.436115
O O1 0.206761 0.899362 0.447084
O O2 0.209575 0.000000 0.500000
O O3 0.330169 0.964114 0.369858
O O4 0.147604 0.968021 0.327302
O O5 0.138760 0.624571 0.392297
O O6 0.112669 0.726688 0.390773
O O7 0.170923 0.677264 0.558268
O O8 0.000000 0.667354 0.496275
O O9 0.750000 0.586111 0.250000
O O10 0.909116 0.547549 0.279830
O O11 0.894813 0.641503 0.196103
O O12 0.750000 0.725558 0.250000
O O13 0.594966 0.745100 0.310252
O O14 0.680023 0.814227 0.171960
O O15 0.500000 0.538982 0.792293
O O16 0.175959 0.808369 0.534161
O O17 0.000000 0.811783 0.563034
#
# Coordination Sequence:
#
# PCOD8264635 Si02
#       7
#    16  16  16  16  16  16  16
#     4  11  25  44  71 102 140 188 235 286 347 414
#     4  11  22  40  67 102 133 171 228 280 332 410
#     4  11  17  37  68  96 134 179 222 277 345 400
#     4  11  23  43  66  93 131 179 214 275 343 404
#     4  11  24  43  67 101 140 182 232 291 351 412
#     4  11  23  41  69 103 134 172 227 282 338 413
#     4  12  25  43  71  96 138 184 228 278 352 406
#
# _framework density 23.251242999999999
#
# number of rings (size 3 to 8) (size 9 to 14) (size 15 to 20)
#    0.000    0.857    4.286    5.571    2.000    2.857 
#    0.000    0.714    0.000    0.000    0.000    0.000 
#    0.000    0.000    0.000    0.000    0.000    0.000 
#
# Total GULP energy -694047.900050 kJ/mol
# GULP energy per Si atom -12393.712501 kJ/mol
# Density = 2.319832 g / cm^3
# Si number density = 23.251243 Si / 1000 Ang^3
#
#
#
# Elastic Constant Matrix: (Units=GPa)
#
#
# Indices 1 2 3 4 5 6 
#
# 1 139.9707 24.6781 12.5572 0.0000 0.0000 0.0000
# 2 24.6781 114.5778 46.6714 0.0000 0.0000 0.0000
# 3 12.5572 46.6714 67.7235 0.0000 0.0000 0.0000
# 4 0.0000 0.0000 0.0000 32.2679 0.0000 0.0000
# 5 0.0000 0.0000 0.0000 0.0000 13.8264 0.0000
# 6 0.0000 0.0000 0.0000 0.0000 0.0000 34.2275
#
#
#
# Elastic Compliance Matrix: (Units=1/GPa)
#
#
# Indices 1 2 3 4 5 6 
#
# 1 0.007433 -0.001445 -0.000382 0.000000 0.000000 0.000000
# 2 -0.001445 0.012415 -0.008288 0.000000 0.000000 0.000000
# 3 -0.000382 -0.008288 0.020548 0.000000 0.000000 0.000000
# 4 0.000000 0.000000 0.000000 0.030991 0.000000 0.000000
# 5 0.000000 0.000000 0.000000 0.000000 0.072325 0.000000
# 6 0.000000 0.000000 0.000000 0.000000 0.000000 0.029216
#
#
# Mechanical properties :
#
#
# Convention : Reuss Voigt Hill
#
# Bulk Modulus (GPa) = 49.58832 54.45391 52.02112
# Shear Modulus (GPa) = 25.01486 31.95538 28.48512
#
# Velocity S-wave (km/s) = 3.28357 3.71125 3.50394
# Velocity P-wave (km/s) = 5.97907 6.46801 6.22834
#
# Compressibility (1/GPa) = 0.02016604
#
# Stress axis : x y z
#
# Youngs Moduli (GPa) = 134.52662 80.54883 48.66611
#
# Poissons Ratio (x) = 0.11642 0.01860
# Poissons Ratio (y) = 0.19444 0.40333
# Poissons Ratio (z) = 0.05142 0.66756
#
# Static dielectric constant tensor:
#      x y z
#    x 4.270790 0.000000 0.000000 
#    y 0.000000 4.149330 0.000000 
#    z 0.000000 0.000000 4.115660 
# 
# 
# High freq. dielectric constant tensor:
#      x y z
#    x 1.924640 0.000000 0.000000 
#    y 0.000000 1.911120 0.000000 
#    z 0.000000 0.000000 1.911620 
# 
# From -- ./inp_files/14989.got.cif
#   From: 2010.03.12/outbox.cif.g09.slc.cpg/sg64_8_cif.got.tgz:14989.got - 2010.04.10 20:19:32.
