data_PCOD8264626
_publ_section_title
;
Structure prediction by ZEFSAII (Michael W. Deem and Ramdas Pophale) SiO2 
 PCOD8264626
Probable space group: C M C A
;
_chemical_formula_sum "Si O2"
_cell_formula_units_Z 88
_cell_length_a 18.542167
_cell_length_b 11.336283
_cell_length_c 19.053647
_cell_angle_alpha 90.000000
_cell_angle_beta 90.000000
_cell_angle_gamma 90.000000
_cell_volume 4005.062358
_symmetry_space_group_name_H-M "C M C A"
_symmetry_group_IT_number 64
_symmetry_cell_setting 'orthorhombic'
loop_
_space_group_symop_operation_xyz
x,y,z
-x,1/2-y,1/2+z
x,-y,-z
-x,1/2+y,1/2-z
-x,-y,-z
x,1/2+y,1/2-z
-x,y,z
x,1/2-y,1/2+z
1/2+x,1/2+y,z
1/2-x,-y,1/2+z
1/2+x,1/2-y,-z
1/2-x,y,1/2-z
1/2-x,1/2-y,-z
1/2+x,y,1/2-z
1/2-x,1/2+y,z
1/2+x,-y,1/2+z
loop_
_atom_site_type_symbol
_atom_site_label
_atom_site_fract_x
_atom_site_fract_y
_atom_site_fract_z
Si Si1 0.858194 0.311986 0.668061
Si Si2 0.000000 0.826184 0.149654
Si Si3 0.118673 0.000000 0.500000
Si Si4 0.120689 0.964401 0.076027
Si Si5 0.000000 0.157630 0.693240
Si Si6 0.250000 0.551304 0.250000
Si Si7 0.274789 0.604199 0.612078
Si Si8 0.500000 0.575723 0.402246
O O1 0.883914 0.415769 0.618778
O O2 0.927245 0.232508 0.684304
O O3 0.821255 0.369231 0.736933
O O4 0.793710 0.237802 0.632340
O O5 0.070393 0.866265 0.109015
O O6 0.000000 0.885008 0.226506
O O7 0.000000 0.683555 0.152698
O O8 0.165468 0.069712 0.555922
O O9 0.068810 0.087009 0.453721
O O10 0.198951 0.904261 0.072690
O O11 0.092838 0.000000 0.000000
O O12 0.000000 0.047208 0.640811
O O13 0.271833 0.473822 0.317319
#
# Coordination Sequence:
#
# PCOD8264626 Si02
#       8
#    16   8   8  16   8   8  16   8
#     4  11  26  45  74  99 149 179 236 296 351 430
#     4  12  31  45  73  99 148 186 247 293 362 423
#     4  11  24  46  74 107 140 188 244 287 358 432
#     4  11  27  48  71 107 140 187 232 293 362 421
#     4  12  28  46  71 104 136 199 240 289 362 422
#     4  10  26  44  72 110 142 186 232 300 354 426
#     4  11  24  46  76 105 143 186 237 289 361 427
#     4  11  28  47  73 103 144 190 244 302 350 436
#
# _framework density 21.972192
#
# number of rings (size 3 to 8) (size 9 to 14) (size 15 to 20)
#    0.000    0.909    2.727    1.364   15.273    2.182 
#    0.000    0.000    0.000    0.000    0.000    0.000 
#    0.000    0.000    0.000    0.000    0.000    0.000 
#
# Total GULP energy -545589.271917 kJ/mol
# GULP energy per Si atom -12399.756180 kJ/mol
# Density = 2.192218 g / cm^3
# Si number density = 21.972192 Si / 1000 Ang^3
#
#
#
# Elastic Constant Matrix: (Units=GPa)
#
#
# Indices 1 2 3 4 5 6 
#
# 1 127.3052 43.9537 43.0645 0.0000 0.0000 0.0000
# 2 43.9537 105.3346 27.2729 0.0000 0.0000 0.0000
# 3 43.0645 27.2729 119.9794 0.0000 0.0000 0.0000
# 4 0.0000 0.0000 0.0000 16.8590 0.0000 0.0000
# 5 0.0000 0.0000 0.0000 0.0000 -121.9084 0.0000
# 6 0.0000 0.0000 0.0000 0.0000 0.0000 17.1587
#
#
#
# Elastic Compliance Matrix: (Units=1/GPa)
#
#
# Indices 1 2 3 4 5 6 
#
# 1 0.009993 -0.003444 -0.002804 0.000000 0.000000 0.000000
# 2 -0.003444 0.011274 -0.001327 0.000000 0.000000 0.000000
# 3 -0.002804 -0.001327 0.009643 0.000000 0.000000 0.000000
# 4 0.000000 0.000000 0.000000 0.059315 0.000000 0.000000
# 5 0.000000 0.000000 0.000000 0.000000 -0.008203 0.000000
# 6 0.000000 0.000000 0.000000 0.000000 0.000000 0.058280
#
#
# Mechanical properties :
#
#
# Convention : Reuss Voigt Hill
#
# Bulk Modulus (GPa) = 63.44833 64.57794 64.01313
# Shear Modulus (GPa) = 31.11317 -1.68959 14.71179
#
# Velocity S-wave (km/s) = 3.76709 -0.87786 2.59040
# Velocity P-wave (km/s) = 6.91814 5.33170 6.17607
#
# Compressibility (1/GPa) = 0.01576086
#
# Stress axis : x y z
#
# Youngs Moduli (GPa) = 100.07395 88.69940 103.70505
#
# Poissons Ratio (x) = 0.30546 0.29078
# Poissons Ratio (y) = 0.34463 0.13758
# Poissons Ratio (z) = 0.28059 0.11768
#
# Static dielectric constant tensor:
#      x y z
#    x 4.309270 0.000000 0.000000 
#    y 0.000000 3.897790 0.000000 
#    z 0.000000 0.000000 4.241780 
# 
# 
# High freq. dielectric constant tensor:
#      x y z
#    x 1.882820 0.000000 0.000000 
#    y 0.000000 1.862710 0.000000 
#    z 0.000000 0.000000 1.877190 
# 
# From -- ./inp_files/40107.got.cif
#   From: 2010.03.12/outbox.cif.g09.slc.cpg/sg64_21_cif.got.tgz:40107.got - 2010.04.10 20:19:32.
