data_PCOD8264457
_publ_section_title
;
Structure prediction by ZEFSAII (Michael W. Deem and Ramdas Pophale) SiO2 
 PCOD8264457
Probable space group: C M C A
;
_chemical_formula_sum "Si O2"
_cell_formula_units_Z 72
_cell_length_a 24.672866
_cell_length_b 7.777242
_cell_length_c 18.387547
_cell_angle_alpha 90.000000
_cell_angle_beta 90.000000
_cell_angle_gamma 90.000000
_cell_volume 3528.328468
_symmetry_space_group_name_H-M "C M C A"
_symmetry_group_IT_number 64
_symmetry_cell_setting 'orthorhombic'
loop_
_space_group_symop_operation_xyz
x,y,z
-x,1/2-y,1/2+z
x,-y,-z
-x,1/2+y,1/2-z
-x,-y,-z
x,1/2+y,1/2-z
-x,y,z
x,1/2-y,1/2+z
1/2+x,1/2+y,z
1/2-x,-y,1/2+z
1/2+x,1/2-y,-z
1/2-x,y,1/2-z
1/2-x,1/2-y,-z
1/2+x,y,1/2-z
1/2-x,1/2+y,z
1/2+x,-y,1/2+z
loop_
_atom_site_type_symbol
_atom_site_label
_atom_site_fract_x
_atom_site_fract_y
_atom_site_fract_z
Si Si1 0.879543 0.626883 0.262909
Si Si2 0.563304 0.081754 0.851215
Si Si3 0.618674 0.000000 0.000000
Si Si4 0.299778 0.640221 0.800180
Si Si5 0.196366 0.681961 0.534680
O O1 0.905564 0.751121 0.322109
O O2 0.922047 0.582798 0.198805
O O3 0.820105 0.680110 0.232527
O O4 0.858661 0.455908 0.302504
O O5 0.500000 0.117177 0.847466
O O6 0.580359 0.051029 0.933624
O O7 0.652209 0.831909 0.975436
O O8 0.250000 0.571827 0.750000
O O9 0.282774 0.654602 0.883282
O O10 0.176648 0.500000 0.500000
O O11 0.250000 0.750000 0.500000
#
# Coordination Sequence:
#
# PCOD8264457 Si02
#       5
#    16  16   8  16  16
#     4  10  23  40  67  94 129 166 223 277 324 402
#     4  11  23  44  69  94 127 174 226 282 338 387
#     4  12  25  46  68 100 136 176 223 276 340 400
#     4  11  24  39  64  96 129 172 215 264 329 404
#     4  12  27  41  65  97 140 178 214 267 336 409
#
# _framework density 20.406262000000002
#
# number of rings (size 3 to 8) (size 9 to 14) (size 15 to 20)
#    0.000    0.889    3.333    3.000   12.444    0.000 
#    0.000    0.000    0.000    2.667    0.000    0.000 
#    0.000    0.000    0.000    0.000    0.000    0.000 
#
# Total GULP energy -446091.190977 kJ/mol
# GULP energy per Si atom -12391.421972 kJ/mol
# Density = 2.035982 g / cm^3
# Si number density = 20.406262 Si / 1000 Ang^3
#
#
#
# Elastic Constant Matrix: (Units=GPa)
#
#
# Indices 1 2 3 4 5 6 
#
# 1 113.5599 29.9652 54.5452 0.0000 0.0000 0.0000
# 2 29.9652 76.5214 34.8318 0.0000 0.0000 0.0000
# 3 54.5452 34.8318 174.6262 0.0000 0.0000 0.0000
# 4 0.0000 0.0000 0.0000 13.1054 0.0000 0.0000
# 5 0.0000 0.0000 0.0000 0.0000 29.7456 0.0000
# 6 0.0000 0.0000 0.0000 0.0000 0.0000 24.5002
#
#
#
# Elastic Compliance Matrix: (Units=1/GPa)
#
#
# Indices 1 2 3 4 5 6 
#
# 1 0.010954 -0.003005 -0.002822 0.000000 0.000000 0.000000
# 2 -0.003005 0.015198 -0.002093 0.000000 0.000000 0.000000
# 3 -0.002822 -0.002093 0.007026 0.000000 0.000000 0.000000
# 4 0.000000 0.000000 0.000000 0.076305 0.000000 0.000000
# 5 0.000000 0.000000 0.000000 0.000000 0.033618 0.000000
# 6 0.000000 0.000000 0.000000 0.000000 0.000000 0.040816
#
#
# Mechanical properties :
#
#
# Convention : Reuss Voigt Hill
#
# Bulk Modulus (GPa) = 57.67859 67.04354 62.36107
# Shear Modulus (GPa) = 24.32665 29.82792 27.07728
#
# Velocity S-wave (km/s) = 3.45645 3.82737 3.64663
# Velocity P-wave (km/s) = 6.65251 7.24275 6.95390
#
# Compressibility (1/GPa) = 0.01733745
#
# Stress axis : x y z
#
# Youngs Moduli (GPa) = 91.28709 65.79993 142.33862
#
# Poissons Ratio (x) = 0.19773 0.40172
# Poissons Ratio (y) = 0.27432 0.29788
# Poissons Ratio (z) = 0.25764 0.13770
#
# Static dielectric constant tensor:
#      x y z
#    x 3.562860 0.000000 0.000000 
#    y 0.000000 3.949050 0.000000 
#    z 0.000000 0.000000 4.034510 
# 
# 
# High freq. dielectric constant tensor:
#      x y z
#    x 1.793120 0.000000 0.000000 
#    y 0.000000 1.813460 0.000000 
#    z 0.000000 0.000000 1.806810 
# 
# From -- ./inp_files/34844.got.cif
#   From: 2010.03.12/outbox.cif.g09.slc.cpg/sg64_18_cif.got.tgz:34844.got - 2010.04.10 20:19:32.
