data_PCOD8264214
_publ_section_title
;
Structure prediction by ZEFSAII (Michael W. Deem and Ramdas Pophale) SiO2 
 PCOD8264214
Probable space group: C M C A
;
_chemical_formula_sum "Si O2"
_cell_formula_units_Z 96
_cell_length_a 18.455050
_cell_length_b 16.420958
_cell_length_c 14.250280
_cell_angle_alpha 90.000000
_cell_angle_beta 90.000000
_cell_angle_gamma 90.000000
_cell_volume 4318.541667
_symmetry_space_group_name_H-M "C M C A"
_symmetry_group_IT_number 64
_symmetry_cell_setting 'orthorhombic'
loop_
_space_group_symop_operation_xyz
x,y,z
-x,1/2-y,1/2+z
x,-y,-z
-x,1/2+y,1/2-z
-x,-y,-z
x,1/2+y,1/2-z
-x,y,z
x,1/2-y,1/2+z
1/2+x,1/2+y,z
1/2-x,-y,1/2+z
1/2+x,1/2-y,-z
1/2-x,y,1/2-z
1/2-x,1/2-y,-z
1/2+x,y,1/2-z
1/2-x,1/2+y,z
1/2+x,-y,1/2+z
loop_
_atom_site_type_symbol
_atom_site_label
_atom_site_fract_x
_atom_site_fract_y
_atom_site_fract_z
Si Si1 0.356985 0.889929 0.810487
Si Si2 0.227210 0.953113 0.354670
Si Si3 0.500000 0.905348 0.901843
Si Si4 0.585487 0.859596 0.604619
Si Si5 0.750000 0.225804 0.250000
Si Si6 0.500000 0.590220 0.624452
Si Si7 0.154902 0.500000 0.500000
Si Si8 0.863036 0.310963 0.131346
O O1 0.427461 0.859319 0.867694
O O2 0.374373 0.887821 0.699452
O O3 0.286774 0.832394 0.829790
O O4 0.335168 0.978826 0.847186
O O5 0.250000 0.926386 0.250000
O O6 0.191734 0.877646 0.414958
O O7 0.297134 0.982809 0.409229
O O8 0.500000 0.994545 0.851545
O O9 0.500000 0.903147 0.012556
O O10 0.500000 0.857527 0.622405
O O11 0.604310 0.922219 0.521585
O O12 0.612201 0.768494 0.572027
O O13 0.817940 0.279145 0.219549
O O14 0.568505 0.637204 0.668062
#
# Coordination Sequence:
#
# PCOD8264214 Si02
#       8
#    16  16   8  16   8   8   8  16
#     4  11  21  42  68  94 130 174 228 271 334 406
#     4  12  23  43  67 101 137 174 231 285 341 403
#     4  11  24  39  66  95 122 177 226 271 327 415
#     4  11  23  45  68  97 136 182 222 280 341 411
#     4  10  22  38  64  96 124 174 220 272 344 398
#     4  11  24  41  60  93 134 171 218 277 342 391
#     4  12  27  42  72 101 136 184 230 284 344 415
#     4  11  23  42  65  94 137 174 220 284 344 392
#
# _framework density 22.229727
#
# number of rings (size 3 to 8) (size 9 to 14) (size 15 to 20)
#    0.000    0.833    6.667    1.250    2.333    0.667 
#    3.000    0.000    0.000    0.000    0.000    0.000 
#    0.000    0.000    0.000    0.000    0.000    0.000 
#
# Total GULP energy -594699.651834 kJ/mol
# GULP energy per Si atom -12389.576080 kJ/mol
# Density = 2.217913 g / cm^3
# Si number density = 22.229727 Si / 1000 Ang^3
#
#
#
# Elastic Constant Matrix: (Units=GPa)
#
#
# Indices 1 2 3 4 5 6 
#
# 1 126.0276 43.6921 24.7400 0.0000 0.0000 0.0000
# 2 43.6921 126.0737 16.9919 0.0000 0.0000 0.0000
# 3 24.7400 16.9919 52.2634 0.0000 0.0000 0.0000
# 4 0.0000 0.0000 0.0000 23.0175 0.0000 0.0000
# 5 0.0000 0.0000 0.0000 0.0000 23.3116 0.0000
# 6 0.0000 0.0000 0.0000 0.0000 0.0000 39.8548
#
#
#
# Elastic Compliance Matrix: (Units=1/GPa)
#
#
# Indices 1 2 3 4 5 6 
#
# 1 0.009636 -0.002850 -0.003635 0.000000 0.000000 0.000000
# 2 -0.002850 0.009138 -0.001622 0.000000 0.000000 0.000000
# 3 -0.003635 -0.001622 0.021382 0.000000 0.000000 0.000000
# 4 0.000000 0.000000 0.000000 0.043445 0.000000 0.000000
# 5 0.000000 0.000000 0.000000 0.000000 0.042897 0.000000
# 6 0.000000 0.000000 0.000000 0.000000 0.000000 0.025091
#
#
# Mechanical properties :
#
#
# Convention : Reuss Voigt Hill
#
# Bulk Modulus (GPa) = 41.76618 52.80142 47.28380
# Shear Modulus (GPa) = 28.44399 31.83282 30.13841
#
# Velocity S-wave (km/s) = 3.58096 3.78827 3.68607
# Velocity P-wave (km/s) = 5.99390 6.55278 6.27956
#
# Compressibility (1/GPa) = 0.02394282
#
# Stress axis : x y z
#
# Youngs Moduli (GPa) = 103.77440 109.43254 46.76837
#
# Poissons Ratio (x) = 0.31184 0.17001
# Poissons Ratio (y) = 0.29572 0.07586
# Poissons Ratio (z) = 0.37723 0.17750
#
# Static dielectric constant tensor:
#      x y z
#    x 4.361960 0.000000 0.000000 
#    y 0.000000 4.497340 0.000000 
#    z 0.000000 0.000000 3.439590 
# 
# 
# High freq. dielectric constant tensor:
#      x y z
#    x 1.903820 0.000000 0.000000 
#    y 0.000000 1.891770 0.000000 
#    z 0.000000 0.000000 1.819280 
# 
# From -- ./inp_files/26411.got.cif
#   From: 2010.03.12/outbox.cif.g09.slc.cpg/sg64_14_cif.got.tgz:26411.got - 2010.04.10 20:19:32.
