data_PCOD8264034
_publ_section_title
;
Structure prediction by ZEFSAII (Michael W. Deem and Ramdas Pophale) SiO2 
 PCOD8264034
Probable space group: C M C A
;
_chemical_formula_sum "Si O2"
_cell_formula_units_Z 88
_cell_length_a 15.568285
_cell_length_b 8.557395
_cell_length_c 30.147566
_cell_angle_alpha 90.000000
_cell_angle_beta 90.000000
_cell_angle_gamma 90.000000
_cell_volume 4016.378254
_symmetry_space_group_name_H-M "C M C A"
_symmetry_group_IT_number 64
_symmetry_cell_setting 'orthorhombic'
loop_
_space_group_symop_operation_xyz
x,y,z
-x,1/2-y,1/2+z
x,-y,-z
-x,1/2+y,1/2-z
-x,-y,-z
x,1/2+y,1/2-z
-x,y,z
x,1/2-y,1/2+z
1/2+x,1/2+y,z
1/2-x,-y,1/2+z
1/2+x,1/2-y,-z
1/2-x,y,1/2-z
1/2-x,1/2-y,-z
1/2+x,y,1/2-z
1/2-x,1/2+y,z
1/2+x,-y,1/2+z
loop_
_atom_site_type_symbol
_atom_site_label
_atom_site_fract_x
_atom_site_fract_y
_atom_site_fract_z
Si Si1 0.158893 0.342916 0.231937
Si Si2 0.274177 0.794759 0.647457
Si Si3 0.729671 0.551885 0.915454
Si Si4 0.661119 0.500000 0.500000
Si Si5 0.903163 0.331188 0.476361
Si Si6 0.403856 0.149205 0.188913
O O1 0.250000 0.409174 0.250000
O O2 0.178902 0.208586 0.194921
O O3 0.102892 0.272323 0.271061
O O4 0.104918 0.477705 0.209278
O O5 0.290496 0.635407 0.620572
O O6 0.170841 0.819755 0.653028
O O7 0.316389 0.920126 0.614269
O O8 0.658486 0.672371 0.933778
O O9 0.782948 0.479414 0.955942
O O10 0.610521 0.332189 0.495777
O O11 0.883251 0.500000 0.500000
O O12 0.000000 0.331783 0.459677
O O13 0.500000 0.164821 0.167997
#
# Coordination Sequence:
#
# PCOD8264034 Si02
#       6
#    16  16  16   8  16  16
#     4  10  21  40  64  90 121 169 210 252 315 388
#     4  11  23  39  66  92 124 169 214 263 311 386
#     4  12  22  42  67  93 126 169 224 263 318 393
#     4  12  23  44  71  96 126 182 226 266 331 406
#     4  11  24  42  65  96 130 166 217 277 333 384
#     4  11  23  40  62  93 128 162 207 262 320 380
#
# _framework density 21.910285999999999
#
# number of rings (size 3 to 8) (size 9 to 14) (size 15 to 20)
#    0.000    0.909    4.545    4.091    2.545    0.727 
#    0.000    1.818    0.000    0.000    0.000    0.000 
#    0.000    0.000    0.000    0.000    0.000    0.000 
#
# Total GULP energy -545097.784406 kJ/mol
# GULP energy per Si atom -12388.586009 kJ/mol
# Density = 2.186042 g / cm^3
# Si number density = 21.910286 Si / 1000 Ang^3
#
#
#
# Elastic Constant Matrix: (Units=GPa)
#
#
# Indices 1 2 3 4 5 6 
#
# 1 71.9286 1.4442 -2.6326 0.0000 0.0000 0.0000
# 2 1.4442 116.2450 13.0683 0.0000 0.0000 0.0000
# 3 -2.6326 13.0683 71.8396 0.0000 0.0000 0.0000
# 4 0.0000 0.0000 0.0000 29.6254 0.0000 0.0000
# 5 0.0000 0.0000 0.0000 0.0000 11.4316 0.0000
# 6 0.0000 0.0000 0.0000 0.0000 0.0000 16.6758
#
#
#
# Elastic Compliance Matrix: (Units=1/GPa)
#
#
# Indices 1 2 3 4 5 6 
#
# 1 0.013928 -0.000235 0.000553 0.000000 0.000000 0.000000
# 2 -0.000235 0.008786 -0.001607 0.000000 0.000000 0.000000
# 3 0.000553 -0.001607 0.014232 0.000000 0.000000 0.000000
# 4 0.000000 0.000000 0.000000 0.033755 0.000000 0.000000
# 5 0.000000 0.000000 0.000000 0.000000 0.087477 0.000000
# 6 0.000000 0.000000 0.000000 0.000000 0.000000 0.059967
#
#
# Mechanical properties :
#
#
# Convention : Reuss Voigt Hill
#
# Bulk Modulus (GPa) = 29.09656 31.53034 30.31345
# Shear Modulus (GPa) = 21.53509 28.08876 24.81193
#
# Velocity S-wave (km/s) = 3.13849 3.58437 3.36881
# Velocity P-wave (km/s) = 5.14219 5.61713 5.38490
#
# Compressibility (1/GPa) = 0.03436832
#
# Stress axis : x y z
#
# Youngs Moduli (GPa) = 71.79968 113.81626 70.26179
#
# Poissons Ratio (x) = 0.02677 -0.03887
# Poissons Ratio (y) = 0.01689 0.11290
# Poissons Ratio (z) = -0.03972 0.18289
#
# Static dielectric constant tensor:
#      x y z
#    x 3.686740 0.000000 0.000000 
#    y 0.000000 4.399380 0.000000 
#    z 0.000000 0.000000 3.981270 
# 
# 
# High freq. dielectric constant tensor:
#      x y z
#    x 1.825910 0.000000 0.000000 
#    y 0.000000 1.880450 0.000000 
#    z 0.000000 0.000000 1.861450 
# 
# From -- ./inp_files/53554.got.cif
#   From: 2010.03.12/outbox.cif.g09.slc.cpg/sg64_27_cif.got.tgz:53554.got - 2010.04.10 20:19:32.
