data_PCOD8264646
_publ_section_title
;
Structure prediction by ZEFSAII (Michael W. Deem and Ramdas Pophale) SiO2 
 PCOD8264646
Probable space group: C M C A
;
_chemical_formula_sum "Si O2"
_cell_formula_units_Z 112
_cell_length_a 14.269158
_cell_length_b 27.915181
_cell_length_c 14.373318
_cell_angle_alpha 90.000000
_cell_angle_beta 90.000000
_cell_angle_gamma 90.000000
_cell_volume 5725.268110
_symmetry_space_group_name_H-M "C M C A"
_symmetry_group_IT_number 64
_symmetry_cell_setting 'orthorhombic'
loop_
_space_group_symop_operation_xyz
x,y,z
-x,1/2-y,1/2+z
x,-y,-z
-x,1/2+y,1/2-z
-x,-y,-z
x,1/2+y,1/2-z
-x,y,z
x,1/2-y,1/2+z
1/2+x,1/2+y,z
1/2-x,-y,1/2+z
1/2+x,1/2-y,-z
1/2-x,y,1/2-z
1/2-x,1/2-y,-z
1/2+x,y,1/2-z
1/2-x,1/2+y,z
1/2+x,-y,1/2+z
loop_
_atom_site_type_symbol
_atom_site_label
_atom_site_fract_x
_atom_site_fract_y
_atom_site_fract_z
Si Si1 0.109874 0.936303 0.082416
Si Si2 0.893027 0.833844 0.562134
Si Si3 0.108048 0.959396 0.872545
Si Si4 0.768391 0.251521 0.856492
Si Si5 0.353292 0.373657 0.750389
Si Si6 0.898114 0.309245 0.589273
Si Si7 0.221544 0.150241 0.936654
O O1 0.184067 0.896247 0.120112
O O2 0.000000 0.921003 0.090416
O O3 0.127280 0.984109 0.143801
O O4 0.140317 0.946178 0.976174
O O5 0.852812 0.783826 0.603227
O O6 0.893563 0.873247 0.645448
O O7 0.827475 0.853212 0.477615
O O8 0.000000 0.826960 0.526488
O O9 0.155668 0.927317 0.792342
O O10 0.000000 0.947385 0.863246
O O11 0.750000 0.262414 0.750000
O O12 0.671588 0.263688 0.910434
O O13 0.790981 0.195983 0.870463
O O14 0.250000 0.350997 0.750000
O O15 0.412560 0.337091 0.813615
O O16 0.854061 0.347882 0.519885
O O17 0.000000 0.290827 0.556353
#
# Coordination Sequence:
#
# PCOD8264646 Si02
#       7
#    16  16  16  16  16  16  16
#     4   9  17  32  52  78 110 139 175 222 273 327
#     4  11  21  35  54  80 114 146 183 230 276 331
#     4   9  17  29  51  81 107 137 175 221 278 332
#     4  11  23  38  50  75 109 146 192 234 275 330
#     4  12  18  31  54  84 118 141 175 226 283 333
#     4  11  19  33  55  78 110 144 177 226 283 330
#     4  11  22  35  54  78 112 146 189 227 272 339
#
# _framework density 19.562403
#
# number of rings (size 3 to 8) (size 9 to 14) (size 15 to 20)
#    0.000    1.429    5.714    4.286    0.000    2.857 
#    0.000    0.714    0.000    0.000    0.000   10.000 
#    0.000    0.000    0.000    0.000    0.000    0.000 
#
# Total GULP energy -694007.413989 kJ/mol
# GULP energy per Si atom -12392.989536 kJ/mol
# Density = 1.951788 g / cm^3
# Si number density = 19.562403 Si / 1000 Ang^3
#
#
#
# Elastic Constant Matrix: (Units=GPa)
#
#
# Indices 1 2 3 4 5 6 
#
# 1 137.2549 39.5531 9.5287 0.0000 0.0000 0.0000
# 2 39.5531 126.3383 17.2367 0.0000 0.0000 0.0000
# 3 9.5287 17.2367 26.5224 0.0000 0.0000 0.0000
# 4 0.0000 0.0000 0.0000 26.3498 0.0000 0.0000
# 5 0.0000 0.0000 0.0000 0.0000 10.8149 0.0000
# 6 0.0000 0.0000 0.0000 0.0000 0.0000 19.3691
#
#
#
# Elastic Compliance Matrix: (Units=1/GPa)
#
#
# Indices 1 2 3 4 5 6 
#
# 1 0.008054 -0.002334 -0.001377 0.000000 0.000000 0.000000
# 2 -0.002334 0.009362 -0.005246 0.000000 0.000000 0.000000
# 3 -0.001377 -0.005246 0.041608 0.000000 0.000000 0.000000
# 4 0.000000 0.000000 0.000000 0.037951 0.000000 0.000000
# 5 0.000000 0.000000 0.000000 0.000000 0.092465 0.000000
# 6 0.000000 0.000000 0.000000 0.000000 0.000000 0.051629
#
#
# Mechanical properties :
#
#
# Convention : Reuss Voigt Hill
#
# Bulk Modulus (GPa) = 24.32447 46.97254 35.64850
# Shear Modulus (GPa) = 18.33626 26.22654 22.28140
#
# Velocity S-wave (km/s) = 3.06489 3.66548 3.37856
# Velocity P-wave (km/s) = 4.99860 6.47905 5.78637
#
# Compressibility (1/GPa) = 0.04111086
#
# Stress axis : x y z
#
# Youngs Moduli (GPa) = 124.16539 106.82045 24.03398
#
# Poissons Ratio (x) = 0.24927 0.03309
# Poissons Ratio (y) = 0.28975 0.12607
# Poissons Ratio (z) = 0.17097 0.56034
#
# Static dielectric constant tensor:
#      x y z
#    x 3.541560 0.000000 0.000000 
#    y 0.000000 3.564800 0.000000 
#    z 0.000000 0.000000 3.365800 
# 
# 
# High freq. dielectric constant tensor:
#      x y z
#    x 1.756430 0.000000 0.000000 
#    y 0.000000 1.755780 0.000000 
#    z 0.000000 0.000000 1.724740 
# 
# From -- ./inp_files/24382.got.cif
#   From: 2010.03.12/outbox.cif.g09.slc.cpg/sg64_13_cif.got.tgz:24382.got - 2010.04.10 20:19:32.
