data_PCOD8264239
_publ_section_title
;
Structure prediction by ZEFSAII (Michael W. Deem and Ramdas Pophale) SiO2 
 PCOD8264239
Probable space group: C M C A
;
_chemical_formula_sum "Si O2"
_cell_formula_units_Z 80
_cell_length_a 15.988485
_cell_length_b 25.452848
_cell_length_c 9.142264
_cell_angle_alpha 90.000000
_cell_angle_beta 90.000000
_cell_angle_gamma 90.000000
_cell_volume 3720.466993
_symmetry_space_group_name_H-M "C M C A"
_symmetry_group_IT_number 64
_symmetry_cell_setting 'orthorhombic'
loop_
_space_group_symop_operation_xyz
x,y,z
-x,1/2-y,1/2+z
x,-y,-z
-x,1/2+y,1/2-z
-x,-y,-z
x,1/2+y,1/2-z
-x,y,z
x,1/2-y,1/2+z
1/2+x,1/2+y,z
1/2-x,-y,1/2+z
1/2+x,1/2-y,-z
1/2-x,y,1/2-z
1/2-x,1/2-y,-z
1/2+x,y,1/2-z
1/2-x,1/2+y,z
1/2+x,-y,1/2+z
loop_
_atom_site_type_symbol
_atom_site_label
_atom_site_fract_x
_atom_site_fract_y
_atom_site_fract_z
Si Si1 0.404409 0.788565 0.112837
Si Si2 0.902032 0.415316 0.870919
Si Si3 0.842741 0.896836 0.310450
Si Si4 0.904527 0.004595 0.840480
Si Si5 0.844866 0.194936 0.300191
O O1 0.500000 0.797473 0.064398
O O2 0.375311 0.837532 0.213435
O O3 0.396582 0.735257 0.201956
O O4 0.347690 0.786191 0.968154
O O5 0.864954 0.463541 0.775681
O O6 0.887931 0.361751 0.780256
O O7 0.000000 0.422596 0.909983
O O8 0.848227 0.412738 0.019263
O O9 0.750000 0.902331 0.250000
O O10 0.899531 0.936163 0.216935
O O11 0.000000 0.986993 0.857788
O O12 0.860566 0.000000 0.000000
O O13 0.750000 0.192960 0.250000
#
# Coordination Sequence:
#
# PCOD8264239 Si02
#       5
#    16  16  16  16  16
#     4  11  23  42  64  88 121 163 207 246 300 370
#     4  10  22  43  66  88 122 169 211 247 302 372
#     4  11  23  38  60  89 121 158 203 253 307 359
#     4  10  22  39  61  90 122 159 204 249 297 362
#     4  11  23  39  62  92 125 158 200 254 308 358
#
# _framework density 21.502676999999998
#
# number of rings (size 3 to 8) (size 9 to 14) (size 15 to 20)
#    0.000    1.400    0.000    6.600    0.000   10.400 
#    0.000    4.000    0.000    0.000    0.000    0.000 
#    0.000    0.000    0.000    0.000    0.000    0.000 
#
# Total GULP energy -496108.820161 kJ/mol
# GULP energy per Si atom -12402.720504 kJ/mol
# Density = 2.145374 g / cm^3
# Si number density = 21.502677 Si / 1000 Ang^3
#
#
#
# Elastic Constant Matrix: (Units=GPa)
#
#
# Indices 1 2 3 4 5 6 
#
# 1 87.9405 38.2167 49.1350 0.0000 0.0000 0.0000
# 2 38.2167 96.3336 63.2621 0.0000 0.0000 0.0000
# 3 49.1350 63.2621 123.3047 0.0000 0.0000 0.0000
# 4 0.0000 0.0000 0.0000 42.0902 0.0000 0.0000
# 5 0.0000 0.0000 0.0000 0.0000 29.3860 0.0000
# 6 0.0000 0.0000 0.0000 0.0000 0.0000 11.1414
#
#
#
# Elastic Compliance Matrix: (Units=1/GPa)
#
#
# Indices 1 2 3 4 5 6 
#
# 1 0.015218 -0.003099 -0.004474 0.000000 0.000000 0.000000
# 2 -0.003099 0.016286 -0.007121 0.000000 0.000000 0.000000
# 3 -0.004474 -0.007121 0.013546 0.000000 0.000000 0.000000
# 4 0.000000 0.000000 0.000000 0.023759 0.000000 0.000000
# 5 0.000000 0.000000 0.000000 0.000000 0.034030 0.000000
# 6 0.000000 0.000000 0.000000 0.000000 0.000000 0.089755
#
#
# Mechanical properties :
#
#
# Convention : Reuss Voigt Hill
#
# Bulk Modulus (GPa) = 63.84689 67.64515 65.74602
# Shear Modulus (GPa) = 22.00677 26.98786 24.49732
#
# Velocity S-wave (km/s) = 3.20260 3.54657 3.37897
# Velocity P-wave (km/s) = 6.59034 6.94969 6.77239
#
# Compressibility (1/GPa) = 0.01566247
#
# Stress axis : x y z
#
# Youngs Moduli (GPa) = 65.71212 61.40161 73.82112
#
# Poissons Ratio (x) = 0.19028 0.33029
# Poissons Ratio (y) = 0.20364 0.52567
# Poissons Ratio (z) = 0.29401 0.43723
#
# Static dielectric constant tensor:
#      x y z
#    x 3.664210 0.000000 0.000000 
#    y 0.000000 4.138610 0.000000 
#    z 0.000000 0.000000 3.962180 
# 
# 
# High freq. dielectric constant tensor:
#      x y z
#    x 1.834540 0.000000 0.000000 
#    y 0.000000 1.859770 0.000000 
#    z 0.000000 0.000000 1.845240 
# 
# From -- ./inp_files/7139.got.cif
#   From: 2010.03.12/outbox.cif.g09.slc.cpg/sg64_4_cif.got.tgz:7139.got - 2010.04.10 20:19:32.
