data_PCOD8264539
_publ_section_title
;
Structure prediction by ZEFSAII (Michael W. Deem and Ramdas Pophale) SiO2 
 PCOD8264539
Probable space group: C M C A
;
_chemical_formula_sum "Si O2"
_cell_formula_units_Z 64
_cell_length_a 10.811262
_cell_length_b 13.456587
_cell_length_c 18.256243
_cell_angle_alpha 90.000000
_cell_angle_beta 90.000000
_cell_angle_gamma 90.000000
_cell_volume 2655.967299
_symmetry_space_group_name_H-M "C M C A"
_symmetry_group_IT_number 64
_symmetry_cell_setting 'orthorhombic'
loop_
_space_group_symop_operation_xyz
x,y,z
-x,1/2-y,1/2+z
x,-y,-z
-x,1/2+y,1/2-z
-x,-y,-z
x,1/2+y,1/2-z
-x,y,z
x,1/2-y,1/2+z
1/2+x,1/2+y,z
1/2-x,-y,1/2+z
1/2+x,1/2-y,-z
1/2-x,y,1/2-z
1/2-x,1/2-y,-z
1/2+x,y,1/2-z
1/2-x,1/2+y,z
1/2+x,-y,1/2+z
loop_
_atom_site_type_symbol
_atom_site_label
_atom_site_fract_x
_atom_site_fract_y
_atom_site_fract_z
Si Si1 0.774599 0.028619 0.081207
Si Si2 0.364449 0.764687 0.555130
Si Si3 0.219474 0.657167 0.668412
Si Si4 0.365678 0.634342 0.303629
O O1 0.838146 0.934138 0.121903
O O2 0.870651 0.119876 0.079350
O O3 0.653281 0.063213 0.126285
O O4 0.730495 0.000000 0.000000
O O5 0.500000 0.738090 0.521762
O O6 0.250000 0.750000 0.500000
O O7 0.343407 0.695828 0.626608
O O8 0.250000 0.618538 0.750000
O O9 0.126663 0.750479 0.671211
O O10 0.500000 0.607925 0.268628
O O11 0.250000 0.617576 0.250000
#
# Coordination Sequence:
#
# PCOD8264539 Si02
#       4
#    16  16  16  16
#     4  11  23  44  68 108 141 181 238 299 353 417
#     4  11  25  47  72 105 145 189 238 294 355 424
#     4  10  23  45  70 104 144 185 231 290 357 422
#     4  10  24  45  72 102 140 188 234 291 355 424
#
# _framework density 24.096684
#
# number of rings (size 3 to 8) (size 9 to 14) (size 15 to 20)
#    0.000    1.500    2.500    0.750    0.000   17.000 
#    0.000    5.000    0.000    0.000    0.000    0.000 
#    0.000    0.000    0.000    0.000    0.000    0.000 
#
# Total GULP energy -396476.619006 kJ/mol
# GULP energy per Si atom -12389.894344 kJ/mol
# Density = 2.404184 g / cm^3
# Si number density = 24.096684 Si / 1000 Ang^3
#
#
#
# Elastic Constant Matrix: (Units=GPa)
#
#
# Indices 1 2 3 4 5 6 
#
# 1 192.0455 11.4813 64.6913 0.0000 0.0000 0.0000
# 2 11.4813 112.8653 57.7266 0.0000 0.0000 0.0000
# 3 64.6913 57.7266 175.1689 0.0000 0.0000 0.0000
# 4 0.0000 0.0000 0.0000 53.8862 0.0000 0.0000
# 5 0.0000 0.0000 0.0000 0.0000 28.8100 0.0000
# 6 0.0000 0.0000 0.0000 0.0000 0.0000 -3.2013
#
#
#
# Elastic Compliance Matrix: (Units=1/GPa)
#
#
# Indices 1 2 3 4 5 6 
#
# 1 0.005984 0.000627 -0.002417 0.000000 0.000000 0.000000
# 2 0.000627 0.010722 -0.003765 0.000000 0.000000 0.000000
# 3 -0.002417 -0.003765 0.007842 0.000000 0.000000 0.000000
# 4 0.000000 0.000000 0.000000 0.018558 0.000000 0.000000
# 5 0.000000 0.000000 0.000000 0.000000 0.034710 0.000000
# 6 0.000000 0.000000 0.000000 0.000000 0.000000 -0.312372
#
#
# Mechanical properties :
#
#
# Convention : Reuss Voigt Hill
#
# Bulk Modulus (GPa) = 74.41039 83.09754 78.75397
# Shear Modulus (GPa) = -22.83438 38.97768 8.07165
#
# Velocity S-wave (km/s) = -3.08168 4.02625 1.83220
# Velocity P-wave (km/s) = 4.27606 7.49494 6.10159
#
# Compressibility (1/GPa) = 0.01343898
#
# Stress axis : x y z
#
# Youngs Moduli (GPa) = 167.12314 93.26607 127.51865
#
# Poissons Ratio (x) = -0.05850 0.30815
# Poissons Ratio (y) = -0.10483 0.48012
# Poissons Ratio (z) = 0.40386 0.35115
#
# Static dielectric constant tensor:
#      x y z
#    x 3.726390 0.000000 0.000000 
#    y 0.000000 4.809270 0.000000 
#    z 0.000000 0.000000 4.508460 
# 
# 
# High freq. dielectric constant tensor:
#      x y z
#    x 1.909110 0.000000 0.000000 
#    y 0.000000 1.975830 0.000000 
#    z 0.000000 0.000000 1.964020 
# 
# From -- ./inp_files/30447.got.cif
#   From: 2010.03.12/outbox.cif.g09.slc.cpg/sg64_16_cif.got.tgz:30447.got - 2010.04.10 20:19:32.
