data_PCOD8264617
_publ_section_title
;
Structure prediction by ZEFSAII (Michael W. Deem and Ramdas Pophale) SiO2 
 PCOD8264617
Probable space group: C M C A
;
_chemical_formula_sum "Si O2"
_cell_formula_units_Z 48
_cell_length_a 9.036931
_cell_length_b 19.716860
_cell_length_c 11.379442
_cell_angle_alpha 90.000000
_cell_angle_beta 90.000000
_cell_angle_gamma 90.000000
_cell_volume 2027.587876
_symmetry_space_group_name_H-M "C M C A"
_symmetry_group_IT_number 64
_symmetry_cell_setting 'orthorhombic'
loop_
_space_group_symop_operation_xyz
x,y,z
-x,1/2-y,1/2+z
x,-y,-z
-x,1/2+y,1/2-z
-x,-y,-z
x,1/2+y,1/2-z
-x,y,z
x,1/2-y,1/2+z
1/2+x,1/2+y,z
1/2-x,-y,1/2+z
1/2+x,1/2-y,-z
1/2-x,y,1/2-z
1/2-x,1/2-y,-z
1/2+x,y,1/2-z
1/2-x,1/2+y,z
1/2+x,-y,1/2+z
loop_
_atom_site_type_symbol
_atom_site_label
_atom_site_fract_x
_atom_site_fract_y
_atom_site_fract_z
Si Si1 0.250000 0.998467 0.750000
Si Si2 0.750000 0.191577 0.250000
Si Si3 0.500000 0.832740 0.916089
Si Si4 0.500000 0.555584 0.599009
Si Si5 0.000000 0.715260 0.416393
Si Si6 0.000000 0.058447 0.096793
O O1 0.352114 0.048761 0.824965
O O2 0.148794 0.949002 0.827643
O O3 0.641632 0.148192 0.164276
O O4 0.643874 0.235055 0.337054
O O5 0.500000 0.871910 0.038295
O O6 0.500000 0.754260 0.958996
O O7 0.500000 0.500000 0.500000
O O8 0.000000 0.635188 0.451576
O O9 0.000000 0.000000 0.000000
#
# Coordination Sequence:
#
# PCOD8264617 Si02
#       6
#     8   8   8   8   8   8
#     4  10  25  45  64 106 137 177 224 286 333 403
#     4  10  25  45  70  98 139 179 228 276 345 411
#     4  11  26  47  70 104 131 186 228 283 340 404
#     4  11  26  43  72  98 143 178 233 277 344 405
#     4  11  24  44  71  99 134 179 229 278 338 407
#     4  11  24  42  69  96 138 179 225 274 342 396
#
# _framework density 23.673449999999999
#
# number of rings (size 3 to 8) (size 9 to 14) (size 15 to 20)
#    0.000    1.333    0.000    3.000   18.667    1.333 
#   12.000    0.000    0.000    0.000    0.000    0.000 
#    0.000    0.000    0.000    0.000    0.000    0.000 
#
# Total GULP energy -297519.693597 kJ/mol
# GULP energy per Si atom -12396.653900 kJ/mol
# Density = 2.361957 g / cm^3
# Si number density = 23.673450 Si / 1000 Ang^3
#
#
#
# Elastic Constant Matrix: (Units=GPa)
#
#
# Indices 1 2 3 4 5 6 
#
# 1 205.8274 46.1144 75.4816 0.0000 0.0000 0.0000
# 2 46.1144 131.7981 70.7570 0.0000 0.0000 0.0000
# 3 75.4816 70.7570 137.4789 0.0000 0.0000 0.0000
# 4 0.0000 0.0000 0.0000 44.7486 0.0000 0.0000
# 5 0.0000 0.0000 0.0000 0.0000 -92.1980 0.0000
# 6 0.0000 0.0000 0.0000 0.0000 0.0000 14.7587
#
#
#
# Elastic Compliance Matrix: (Units=1/GPa)
#
#
# Indices 1 2 3 4 5 6 
#
# 1 0.006104 -0.000465 -0.003112 0.000000 0.000000 0.000000
# 2 -0.000465 0.010520 -0.005159 0.000000 0.000000 0.000000
# 3 -0.003112 -0.005159 0.011638 0.000000 0.000000 0.000000
# 4 0.000000 0.000000 0.000000 0.022347 0.000000 0.000000
# 5 0.000000 0.000000 0.000000 0.000000 -0.010846 0.000000
# 6 0.000000 0.000000 0.000000 0.000000 0.000000 0.067757
#
#
# Mechanical properties :
#
#
# Convention : Reuss Voigt Hill
#
# Bulk Modulus (GPa) = 92.68344 95.53450 94.10897
# Shear Modulus (GPa) = 38.88421 12.31194 25.59807
#
# Velocity S-wave (km/s) = 4.05720 2.28299 3.29188
# Velocity P-wave (km/s) = 7.82200 6.88419 7.36803
#
# Compressibility (1/GPa) = 0.01078941
#
# Stress axis : x y z
#
# Youngs Moduli (GPa) = 163.83140 95.06005 85.92831
#
# Poissons Ratio (x) = 0.04420 0.26740
# Poissons Ratio (y) = 0.07618 0.44330
# Poissons Ratio (z) = 0.50983 0.49041
#
# Static dielectric constant tensor:
#      x y z
#    x 4.789130 0.000000 0.000000 
#    y 0.000000 4.405770 0.000000 
#    z 0.000000 0.000000 4.287080 
# 
# 
# High freq. dielectric constant tensor:
#      x y z
#    x 1.970050 0.000000 0.000000 
#    y 0.000000 1.907050 0.000000 
#    z 0.000000 0.000000 1.945930 
# 
# From -- ./inp_files/11832.got.cif
#   From: 2010.03.12/outbox.cif.g09.slc.cpg/sg64_6_cif.got.tgz:11832.got - 2010.04.10 20:19:32.
