data_PCOD8264517
_publ_section_title
;
Structure prediction by ZEFSAII (Michael W. Deem and Ramdas Pophale) SiO2 
 PCOD8264517
Probable space group: C M C A
;
_chemical_formula_sum "Si O2"
_cell_formula_units_Z 64
_cell_length_a 15.522644
_cell_length_b 18.500678
_cell_length_c 9.766998
_cell_angle_alpha 90.000000
_cell_angle_beta 90.000000
_cell_angle_gamma 90.000000
_cell_volume 2804.881000
_symmetry_space_group_name_H-M "C M C A"
_symmetry_group_IT_number 64
_symmetry_cell_setting 'orthorhombic'
loop_
_space_group_symop_operation_xyz
x,y,z
-x,1/2-y,1/2+z
x,-y,-z
-x,1/2+y,1/2-z
-x,-y,-z
x,1/2+y,1/2-z
-x,y,z
x,1/2-y,1/2+z
1/2+x,1/2+y,z
1/2-x,-y,1/2+z
1/2+x,1/2-y,-z
1/2-x,y,1/2-z
1/2-x,1/2-y,-z
1/2+x,y,1/2-z
1/2-x,1/2+y,z
1/2+x,-y,1/2+z
loop_
_atom_site_type_symbol
_atom_site_label
_atom_site_fract_x
_atom_site_fract_y
_atom_site_fract_z
Si Si1 0.401075 0.314050 0.455346
Si Si2 0.593342 0.414361 0.981739
Si Si3 0.850752 0.816869 0.762304
Si Si4 0.263561 0.432838 0.400979
O O1 0.500000 0.330245 0.420885
O O2 0.391038 0.297510 0.616261
O O3 0.368233 0.246022 0.370675
O O4 0.347019 0.383389 0.410301
O O5 0.500000 0.385045 0.035958
O O6 0.604700 0.389586 0.823412
O O7 0.594727 0.500000 0.000000
O O8 0.677367 0.385194 0.063268
O O9 0.750000 0.831476 0.750000
O O10 0.277195 0.500000 0.500000
O O11 0.250000 0.464135 0.250000
#
# Coordination Sequence:
#
# PCOD8264517 Si02
#       4
#    16  16  16  16
#     4  12  27  46  73 108 148 190 242 301 360 432
#     4  10  23  43  72 102 139 189 241 293 357 428
#     4  12  25  48  73 105 145 194 242 300 363 428
#     4  11  27  47  72 105 143 194 242 297 363 430
#
# _framework density 22.817367000000001
#
# number of rings (size 3 to 8) (size 9 to 14) (size 15 to 20)
#    0.000    0.750    2.500    3.750   10.500    1.500 
#    0.000    0.000    0.000    0.000    0.000    0.000 
#    0.000    0.000    0.000    0.000    0.000    0.000 
#
# Total GULP energy -396680.263251 kJ/mol
# GULP energy per Si atom -12396.258227 kJ/mol
# Density = 2.276543 g / cm^3
# Si number density = 22.817367 Si / 1000 Ang^3
#
#
#
# Elastic Constant Matrix: (Units=GPa)
#
#
# Indices 1 2 3 4 5 6 
#
# 1 177.0517 57.5138 10.5915 0.0000 0.0000 0.0000
# 2 57.5138 123.5305 78.9127 0.0000 0.0000 0.0000
# 3 10.5915 78.9127 160.3548 0.0000 0.0000 0.0000
# 4 0.0000 0.0000 0.0000 40.6786 0.0000 0.0000
# 5 0.0000 0.0000 0.0000 0.0000 9.3242 0.0000
# 6 0.0000 0.0000 0.0000 0.0000 0.0000 88.4279
#
#
#
# Elastic Compliance Matrix: (Units=1/GPa)
#
#
# Indices 1 2 3 4 5 6 
#
# 1 0.006942 -0.004287 0.001651 0.000000 0.000000 0.000000
# 2 -0.004287 0.014454 -0.006830 0.000000 0.000000 0.000000
# 3 0.001651 -0.006830 0.009488 0.000000 0.000000 0.000000
# 4 0.000000 0.000000 0.000000 0.024583 0.000000 0.000000
# 5 0.000000 0.000000 0.000000 0.000000 0.107248 0.000000
# 6 0.000000 0.000000 0.000000 0.000000 0.000000 0.011309
#
#
# Mechanical properties :
#
#
# Convention : Reuss Voigt Hill
#
# Bulk Modulus (GPa) = 83.66153 83.88589 83.77371
# Shear Modulus (GPa) = 25.38860 48.61407 37.00134
#
# Velocity S-wave (km/s) = 3.33932 4.62082 4.03132
# Velocity P-wave (km/s) = 7.18424 8.08166 7.64613
#
# Compressibility (1/GPa) = 0.01195293
#
# Stress axis : x y z
#
# Youngs Moduli (GPa) = 144.05505 69.18520 105.39438
#
# Poissons Ratio (x) = 0.29657 -0.17401
# Poissons Ratio (y) = 0.61752 0.71983
# Poissons Ratio (z) = -0.23784 0.47252
#
# Static dielectric constant tensor:
#      x y z
#    x 5.086850 0.000000 0.000000 
#    y 0.000000 4.146470 0.000000 
#    z 0.000000 0.000000 4.363290 
# 
# 
# High freq. dielectric constant tensor:
#      x y z
#    x 1.929250 0.000000 0.000000 
#    y 0.000000 1.891720 0.000000 
#    z 0.000000 0.000000 1.903880 
# 
# From -- ./inp_files/5603.got.cif
#   From: 2010.03.12/outbox.cif.g09.slc.cpg/sg64_3_cif.got.tgz:5603.got - 2010.04.10 20:19:32.
