data_PCOD8264318
_publ_section_title
;
Structure prediction by ZEFSAII (Michael W. Deem and Ramdas Pophale) SiO2 
 PCOD8264318
Probable space group: C M C A
;
_chemical_formula_sum "Si O2"
_cell_formula_units_Z 112
_cell_length_a 23.606802
_cell_length_b 15.029210
_cell_length_c 15.602610
_cell_angle_alpha 90.000000
_cell_angle_beta 90.000000
_cell_angle_gamma 90.000000
_cell_volume 5535.674727
_symmetry_space_group_name_H-M "C M C A"
_symmetry_group_IT_number 64
_symmetry_cell_setting 'orthorhombic'
loop_
_space_group_symop_operation_xyz
x,y,z
-x,1/2-y,1/2+z
x,-y,-z
-x,1/2+y,1/2-z
-x,-y,-z
x,1/2+y,1/2-z
-x,y,z
x,1/2-y,1/2+z
1/2+x,1/2+y,z
1/2-x,-y,1/2+z
1/2+x,1/2-y,-z
1/2-x,y,1/2-z
1/2-x,1/2-y,-z
1/2+x,y,1/2-z
1/2-x,1/2+y,z
1/2+x,-y,1/2+z
loop_
_atom_site_type_symbol
_atom_site_label
_atom_site_fract_x
_atom_site_fract_y
_atom_site_fract_z
Si Si1 0.736590 0.321613 0.071447
Si Si2 0.437523 0.914996 0.058624
Si Si3 0.853356 0.742583 0.190003
Si Si4 0.566433 0.734700 0.964298
Si Si5 0.839062 0.108264 0.679097
Si Si6 0.144888 0.089845 0.035816
Si Si7 0.314071 0.928749 0.730017
O O1 0.706022 0.268751 0.147177
O O2 0.791229 0.371905 0.108340
O O3 0.750000 0.250000 0.000000
O O4 0.697030 0.395442 0.028914
O O5 0.500000 0.901074 0.098312
O O6 0.420209 0.830827 0.002014
O O7 0.394269 0.931073 0.134629
O O8 0.436080 0.000000 0.000000
O O9 0.857440 0.800674 0.275821
O O10 0.853459 0.637872 0.214094
O O11 0.906737 0.766914 0.130445
O O12 0.500000 0.712539 0.957869
O O13 0.597160 0.665735 0.028156
O O14 0.820127 0.032503 0.745831
O O15 0.168628 0.083367 0.131558
O O16 0.115996 0.000000 0.000000
O O17 0.250000 0.899303 0.750000
#
# Coordination Sequence:
#
# PCOD8264318 Si02
#       7
#    16  16  16  16  16  16  16
#     4  11  22  38  60  85 119 161 200 242 299 367
#     4  10  22  41  62  85 114 150 198 251 302 361
#     4  11  22  38  58  87 122 151 193 253 306 356
#     4  10  22  42  65  86 114 159 209 253 304 369
#     4  12  23  38  60  89 122 156 197 247 305 363
#     4  11  23  40  59  86 123 163 205 247 298 370
#     4  12  23  37  59  90 125 160 198 247 310 373
#
# _framework density 20.232403000000001
#
# number of rings (size 3 to 8) (size 9 to 14) (size 15 to 20)
#    0.000    1.000    0.000    9.857    0.000    2.571 
#    0.000    1.429    0.000    0.000    0.000    0.000 
#    0.000    0.000    0.000    0.000    0.000    0.000 
#
# Total GULP energy -694542.772805 kJ/mol
# GULP energy per Si atom -12402.549514 kJ/mol
# Density = 2.018635 g / cm^3
# Si number density = 20.232403 Si / 1000 Ang^3
#
#
#
# Elastic Constant Matrix: (Units=GPa)
#
#
# Indices 1 2 3 4 5 6 
#
# 1 114.6771 37.6116 49.8615 0.0000 0.0000 0.0000
# 2 37.6116 127.5292 34.5106 0.0000 0.0000 0.0000
# 3 49.8615 34.5106 98.7063 0.0000 0.0000 0.0000
# 4 0.0000 0.0000 0.0000 41.3970 0.0000 0.0000
# 5 0.0000 0.0000 0.0000 0.0000 22.3506 0.0000
# 6 0.0000 0.0000 0.0000 0.0000 0.0000 124.1499
#
#
#
# Elastic Compliance Matrix: (Units=1/GPa)
#
#
# Indices 1 2 3 4 5 6 
#
# 1 0.011633 -0.002033 -0.005166 0.000000 0.000000 0.000000
# 2 -0.002033 0.009016 -0.002125 0.000000 0.000000 0.000000
# 3 -0.005166 -0.002125 0.013484 0.000000 0.000000 0.000000
# 4 0.000000 0.000000 0.000000 0.024156 0.000000 0.000000
# 5 0.000000 0.000000 0.000000 0.000000 0.044741 0.000000
# 6 0.000000 0.000000 0.000000 0.000000 0.000000 0.008055
#
#
# Mechanical properties :
#
#
# Convention : Reuss Voigt Hill
#
# Bulk Modulus (GPa) = 64.57968 64.98665 64.78317
# Shear Modulus (GPa) = 37.06604 52.17476 44.62040
#
# Velocity S-wave (km/s) = 4.28485 5.08367 4.70126
# Velocity P-wave (km/s) = 7.51453 8.16383 7.84590
#
# Compressibility (1/GPa) = 0.01548475
#
# Stress axis : x y z
#
# Youngs Moduli (GPa) = 85.96311 110.91333 74.16461
#
# Poissons Ratio (x) = 0.22549 0.38310
# Poissons Ratio (y) = 0.17476 0.15762
# Poissons Ratio (z) = 0.44405 0.23572
#
# Static dielectric constant tensor:
#      x y z
#    x 3.434990 0.000000 0.000000 
#    y 0.000000 3.570820 0.000000 
#    z 0.000000 0.000000 2.985950 
# 
# 
# High freq. dielectric constant tensor:
#      x y z
#    x 1.781850 0.000000 0.000000 
#    y 0.000000 1.809600 0.000000 
#    z 0.000000 0.000000 1.795280 
# 
# From -- ./inp_files/27379.got.cif
#   From: 2010.03.12/outbox.cif.g09.slc.cpg/sg64_14_cif.got.tgz:27379.got - 2010.04.10 20:19:32.
