data_PCOD8264822
_publ_section_title
;
Structure prediction by ZEFSAII (Michael W. Deem and Ramdas Pophale) SiO2 
 PCOD8264822
Probable space group: C M C A
;
_chemical_formula_sum "Si O2"
_cell_formula_units_Z 80
_cell_length_a 20.862889
_cell_length_b 12.273831
_cell_length_c 14.409935
_cell_angle_alpha 90.000000
_cell_angle_beta 90.000000
_cell_angle_gamma 90.000000
_cell_volume 3689.917093
_symmetry_space_group_name_H-M "C M C A"
_symmetry_group_IT_number 64
_symmetry_cell_setting 'orthorhombic'
loop_
_space_group_symop_operation_xyz
x,y,z
-x,1/2-y,1/2+z
x,-y,-z
-x,1/2+y,1/2-z
-x,-y,-z
x,1/2+y,1/2-z
-x,y,z
x,1/2-y,1/2+z
1/2+x,1/2+y,z
1/2-x,-y,1/2+z
1/2+x,1/2-y,-z
1/2-x,y,1/2-z
1/2-x,1/2-y,-z
1/2+x,y,1/2-z
1/2-x,1/2+y,z
1/2+x,-y,1/2+z
loop_
_atom_site_type_symbol
_atom_site_label
_atom_site_fract_x
_atom_site_fract_y
_atom_site_fract_z
Si Si1 0.894426 0.044707 0.229062
Si Si2 0.500000 0.782387 0.411199
Si Si3 0.638182 0.683666 0.391179
Si Si4 0.700881 0.500000 0.500000
Si Si5 0.212795 0.105277 0.844960
Si Si6 0.500000 0.396370 0.282691
Si Si7 0.000000 0.831032 0.881397
O O1 0.848404 0.969508 0.170275
O O2 0.936996 0.969856 0.298540
O O3 0.853145 0.127311 0.291040
O O4 0.936660 0.113534 0.157695
O O5 0.563429 0.709679 0.404560
O O6 0.500000 0.866473 0.326572
O O7 0.500000 0.846247 0.508275
O O8 0.657169 0.602433 0.473228
O O9 0.686441 0.785670 0.393664
O O10 0.742291 0.462115 0.412977
O O11 0.250000 0.133038 0.750000
O O12 0.500000 0.295930 0.352714
#
# Coordination Sequence:
#
# PCOD8264822 Si02
#       7
#    16   8  16   8  16   8   8
#     4  11  23  45  73  97 145 193 239 294 368 423
#     4  12  25  44  73 110 141 184 231 317 359 425
#     4  12  27  50  72 108 148 185 253 300 367 436
#     4  12  30  47  72 111 142 204 238 302 362 442
#     4  12  27  47  75 105 147 195 248 299 358 442
#     4  11  22  46  64 108 141 178 242 295 357 425
#     4  11  25  40  75 104 144 190 234 303 366 430
#
# _framework density 21.680703999999999
#
# number of rings (size 3 to 8) (size 9 to 14) (size 15 to 20)
#    0.000    0.400    6.000    1.200    8.400    3.600 
#    0.000    0.000    0.000    0.000    0.000    0.000 
#    0.000    0.000    0.000    0.000    0.000    0.000 
#
# Total GULP energy -496206.225621 kJ/mol
# GULP energy per Si atom -12405.155641 kJ/mol
# Density = 2.163136 g / cm^3
# Si number density = 21.680704 Si / 1000 Ang^3
#
#
#
# Elastic Constant Matrix: (Units=GPa)
#
#
# Indices 1 2 3 4 5 6 
#
# 1 85.6429 30.1777 8.8076 0.0000 0.0000 0.0000
# 2 30.1777 100.2562 9.4114 0.0000 0.0000 0.0000
# 3 8.8076 9.4114 73.5120 0.0000 0.0000 0.0000
# 4 0.0000 0.0000 0.0000 40.6403 0.0000 0.0000
# 5 0.0000 0.0000 0.0000 0.0000 -36.7879 0.0000
# 6 0.0000 0.0000 0.0000 0.0000 0.0000 10.8743
#
#
#
# Elastic Compliance Matrix: (Units=1/GPa)
#
#
# Indices 1 2 3 4 5 6 
#
# 1 0.013146 -0.003856 -0.001081 0.000000 0.000000 0.000000
# 2 -0.003856 0.011227 -0.000975 0.000000 0.000000 0.000000
# 3 -0.001081 -0.000975 0.013858 0.000000 0.000000 0.000000
# 4 0.000000 0.000000 0.000000 0.024606 0.000000 0.000000
# 5 0.000000 0.000000 0.000000 0.000000 -0.027183 0.000000
# 6 0.000000 0.000000 0.000000 0.000000 0.000000 0.091960
#
#
# Mechanical properties :
#
#
# Convention : Reuss Voigt Hill
#
# Bulk Modulus (GPa) = 37.87066 39.57830 38.72448
# Shear Modulus (GPa) = 33.72909 17.01298 25.37104
#
# Velocity S-wave (km/s) = 3.94854 2.80430 3.42455
# Velocity P-wave (km/s) = 6.18816 5.36472 5.79109
#
# Compressibility (1/GPa) = 0.02640567
#
# Stress axis : x y z
#
# Youngs Moduli (GPa) = 76.06775 89.07456 72.16229
#
# Poissons Ratio (x) = 0.34343 0.07804
# Poissons Ratio (y) = 0.29328 0.07038
# Poissons Ratio (z) = 0.08226 0.08688
#
# Static dielectric constant tensor:
#      x y z
#    x 4.121810 0.000000 0.000000 
#    y 0.000000 4.099290 0.000000 
#    z 0.000000 0.000000 3.807360 
# 
# 
# High freq. dielectric constant tensor:
#      x y z
#    x 1.864580 0.000000 0.000000 
#    y 0.000000 1.869500 0.000000 
#    z 0.000000 0.000000 1.845730 
# 
# From -- ./inp_files/27149.got.cif
#   From: 2010.03.12/outbox.cif.g09.slc.cpg/sg64_14_cif.got.tgz:27149.got - 2010.04.10 20:19:32.
