data_PCOD8264960
_publ_section_title
;
Structure prediction by ZEFSAII (Michael W. Deem and Ramdas Pophale) SiO2 
 PCOD8264960
Probable space group: C M C A
;
_chemical_formula_sum "Si O2"
_cell_formula_units_Z 88
_cell_length_a 21.704155
_cell_length_b 14.410753
_cell_length_c 13.548002
_cell_angle_alpha 90.000000
_cell_angle_beta 90.000000
_cell_angle_gamma 90.000000
_cell_volume 4237.452166
_symmetry_space_group_name_H-M "C M C A"
_symmetry_group_IT_number 64
_symmetry_cell_setting 'orthorhombic'
loop_
_space_group_symop_operation_xyz
x,y,z
-x,1/2-y,1/2+z
x,-y,-z
-x,1/2+y,1/2-z
-x,-y,-z
x,1/2+y,1/2-z
-x,y,z
x,1/2-y,1/2+z
1/2+x,1/2+y,z
1/2-x,-y,1/2+z
1/2+x,1/2-y,-z
1/2-x,y,1/2-z
1/2-x,1/2-y,-z
1/2+x,y,1/2-z
1/2-x,1/2+y,z
1/2+x,-y,1/2+z
loop_
_atom_site_type_symbol
_atom_site_label
_atom_site_fract_x
_atom_site_fract_y
_atom_site_fract_z
Si Si1 0.818583 0.025101 0.216015
Si Si2 0.745911 0.183501 0.909788
Si Si3 0.878789 0.350942 0.193565
Si Si4 0.430263 0.895139 0.995848
Si Si5 0.356696 0.792400 0.829421
Si Si6 0.789114 0.500000 0.500000
O O1 0.750000 0.991495 0.250000
O O2 0.830638 0.123646 0.265282
O O3 0.868131 0.950454 0.254379
O O4 0.827352 0.035573 0.096491
O O5 0.683658 0.193209 0.849979
O O6 0.804304 0.212928 0.844304
O O7 0.746926 0.080295 0.954875
O O8 0.750000 0.250000 0.000000
O O9 0.905101 0.271236 0.267936
O O10 0.929110 0.359095 0.107669
O O11 0.500000 0.892054 0.954913
O O12 0.386540 0.831037 0.929108
O O13 0.404548 0.000000 0.000000
#
# Coordination Sequence:
#
# PCOD8264960 Si02
#       6
#    16  16  16  16  16   8
#     4  12  23  37  60  94 137 177 208 257 329 400
#     4  12  23  37  61  99 135 171 210 259 329 414
#     4  12  23  41  63 100 134 169 218 272 336 398
#     4  11  26  47  70  93 121 176 241 284 322 384
#     4  12  24  41  66  97 135 173 216 272 338 405
#     4  12  24  38  58  92 146 172 210 262 320 416
#
# _framework density 20.767195999999998
#
# number of rings (size 3 to 8) (size 9 to 14) (size 15 to 20)
#    0.000    0.182    7.273    3.818    1.273    0.727 
#    0.000    0.000    0.000    0.000    0.000    3.182 
#    0.000    0.000    0.000    0.000    0.000    0.000 
#
# Total GULP energy -545315.642050 kJ/mol
# GULP energy per Si atom -12393.537319 kJ/mol
# Density = 2.071993 g / cm^3
# Si number density = 20.767196 Si / 1000 Ang^3
#
#
#
# Elastic Constant Matrix: (Units=GPa)
#
#
# Indices 1 2 3 4 5 6 
#
# 1 40.2704 13.3224 9.3403 0.0000 0.0000 0.0000
# 2 13.3224 116.5937 31.7757 0.0000 0.0000 0.0000
# 3 9.3403 31.7757 133.3819 0.0000 0.0000 0.0000
# 4 0.0000 0.0000 0.0000 52.0649 0.0000 0.0000
# 5 0.0000 0.0000 0.0000 0.0000 17.1334 0.0000
# 6 0.0000 0.0000 0.0000 0.0000 0.0000 15.6992
#
#
#
# Elastic Compliance Matrix: (Units=1/GPa)
#
#
# Indices 1 2 3 4 5 6 
#
# 1 0.025983 -0.002645 -0.001189 0.000000 0.000000 0.000000
# 2 -0.002645 0.009442 -0.002064 0.000000 0.000000 0.000000
# 3 -0.001189 -0.002064 0.008072 0.000000 0.000000 0.000000
# 4 0.000000 0.000000 0.000000 0.019207 0.000000 0.000000
# 5 0.000000 0.000000 0.000000 0.000000 0.058366 0.000000
# 6 0.000000 0.000000 0.000000 0.000000 0.000000 0.063697
#
#
# Mechanical properties :
#
#
# Convention : Reuss Voigt Hill
#
# Bulk Modulus (GPa) = 31.54547 44.34699 37.94623
# Shear Modulus (GPa) = 24.13945 32.70000 28.41973
#
# Velocity S-wave (km/s) = 3.41307 3.97243 3.70333
# Velocity P-wave (km/s) = 5.54573 6.51467 6.04963
#
# Compressibility (1/GPa) = 0.03170028
#
# Stress axis : x y z
#
# Youngs Moduli (GPa) = 38.48673 105.91522 123.88067
#
# Poissons Ratio (x) = 0.28012 0.14735
# Poissons Ratio (y) = 0.10179 0.25570
# Poissons Ratio (z) = 0.04578 0.21862
#
# Static dielectric constant tensor:
#      x y z
#    x 4.574050 0.000000 0.000000 
#    y 0.000000 3.849340 0.000000 
#    z 0.000000 0.000000 4.424070 
# 
# 
# High freq. dielectric constant tensor:
#      x y z
#    x 1.749400 0.000000 0.000000 
#    y 0.000000 1.836210 0.000000 
#    z 0.000000 0.000000 1.845120 
# 
# From -- ./inp_files/19068.got.cif
#   From: 2010.03.12/outbox.cif.g09.slc.cpg/sg64_10_cif.got.tgz:19068.got - 2010.04.10 20:19:32.
