data_PCOD8264876
_publ_section_title
;
Structure prediction by ZEFSAII (Michael W. Deem and Ramdas Pophale) SiO2 
 PCOD8264876
Probable space group: C M C A
;
_chemical_formula_sum "Si O2"
_cell_formula_units_Z 72
_cell_length_a 14.490726
_cell_length_b 26.388039
_cell_length_c 9.252169
_cell_angle_alpha 90.000000
_cell_angle_beta 90.000000
_cell_angle_gamma 90.000000
_cell_volume 3537.861432
_symmetry_space_group_name_H-M "C M C A"
_symmetry_group_IT_number 64
_symmetry_cell_setting 'orthorhombic'
loop_
_space_group_symop_operation_xyz
x,y,z
-x,1/2-y,1/2+z
x,-y,-z
-x,1/2+y,1/2-z
-x,-y,-z
x,1/2+y,1/2-z
-x,y,z
x,1/2-y,1/2+z
1/2+x,1/2+y,z
1/2-x,-y,1/2+z
1/2+x,1/2-y,-z
1/2-x,y,1/2-z
1/2-x,1/2-y,-z
1/2+x,y,1/2-z
1/2-x,1/2+y,z
1/2+x,-y,1/2+z
loop_
_atom_site_type_symbol
_atom_site_label
_atom_site_fract_x
_atom_site_fract_y
_atom_site_fract_z
Si Si1 0.250000 0.876748 0.250000
Si Si2 0.146220 0.295580 0.699137
Si Si3 0.760078 0.058896 0.473220
Si Si4 0.102994 0.199068 0.872446
Si Si5 0.103853 0.592483 0.269202
O O1 0.217042 0.912282 0.379785
O O2 0.163597 0.842367 0.208560
O O3 0.250000 0.299022 0.750000
O O4 0.095688 0.249227 0.775731
O O5 0.145672 0.287178 0.527285
O O6 0.095950 0.347047 0.746593
O O7 0.846128 0.067584 0.367553
O O8 0.663444 0.080133 0.411626
O O9 0.747713 0.000000 0.500000
O O10 0.000000 0.176948 0.892859
O O11 0.000000 0.570236 0.282204
#
# Coordination Sequence:
#
# PCOD8264876 Si02
#       5
#     8  16  16  16  16
#     4  12  24  42  68  96 136 176 218 276 334 392
#     4  12  23  44  66  97 135 177 216 263 326 392
#     4  11  25  46  69  96 129 172 224 279 333 389
#     4  12  26  41  65 101 137 175 220 266 321 398
#     4  11  23  44  70  96 132 175 217 269 332 394
#
# _framework density 20.351279000000002
#
# number of rings (size 3 to 8) (size 9 to 14) (size 15 to 20)
#    0.000    0.444    5.556    4.000    3.111    1.778 
#    0.000    2.222    0.000    0.000    0.000    0.000 
#    0.000    0.000    0.000    0.000    0.000    0.000 
#
# Total GULP energy -446591.617247 kJ/mol
# GULP energy per Si atom -12405.322701 kJ/mol
# Density = 2.030496 g / cm^3
# Si number density = 20.351279 Si / 1000 Ang^3
#
#
#
# Elastic Constant Matrix: (Units=GPa)
#
#
# Indices 1 2 3 4 5 6 
#
# 1 162.0294 31.2204 61.1850 0.0000 0.0000 0.0000
# 2 31.2204 119.0033 38.1771 0.0000 0.0000 0.0000
# 3 61.1850 38.1771 137.9377 0.0000 0.0000 0.0000
# 4 0.0000 0.0000 0.0000 -128.6606 0.0000 0.0000
# 5 0.0000 0.0000 0.0000 0.0000 13.5055 0.0000
# 6 0.0000 0.0000 0.0000 0.0000 0.0000 20.3625
#
#
#
# Elastic Compliance Matrix: (Units=1/GPa)
#
#
# Indices 1 2 3 4 5 6 
#
# 1 0.007518 -0.000991 -0.003061 0.000000 0.000000 0.000000
# 2 -0.000991 0.009352 -0.002149 0.000000 0.000000 0.000000
# 3 -0.003061 -0.002149 0.009202 0.000000 0.000000 0.000000
# 4 0.000000 0.000000 0.000000 -0.007772 0.000000 0.000000
# 5 0.000000 0.000000 0.000000 0.000000 0.074044 0.000000
# 6 0.000000 0.000000 0.000000 0.000000 0.000000 0.049110
#
#
# Mechanical properties :
#
#
# Convention : Reuss Voigt Hill
#
# Bulk Modulus (GPa) = 73.14156 75.57062 74.35609
# Shear Modulus (GPa) = 31.56320 0.26735 15.91527
#
# Velocity S-wave (km/s) = 3.94244 0.36284 2.79951
# Velocity P-wave (km/s) = 7.53269 6.11468 6.86042
#
# Compressibility (1/GPa) = 0.01367212
#
# Stress axis : x y z
#
# Youngs Moduli (GPa) = 133.00744 106.92396 108.67048
#
# Poissons Ratio (x) = 0.10591 0.33262
# Poissons Ratio (y) = 0.13175 0.23355
# Poissons Ratio (z) = 0.40711 0.22979
#
# Static dielectric constant tensor:
#      x y z
#    x 3.874400 0.000000 0.000000 
#    y 0.000000 3.815840 0.000000 
#    z 0.000000 0.000000 3.886480 
# 
# 
# High freq. dielectric constant tensor:
#      x y z
#    x 1.802660 0.000000 0.000000 
#    y 0.000000 1.798560 0.000000 
#    z 0.000000 0.000000 1.807220 
# 
# From -- ./inp_files/5804.got.cif
#   From: 2010.03.12/outbox.cif.g09.slc.cpg/sg64_3_cif.got.tgz:5804.got - 2010.04.10 20:19:32.
