data_PCOD8264896
_publ_section_title
;
Structure prediction by ZEFSAII (Michael W. Deem and Ramdas Pophale) SiO2 
 PCOD8264896
Probable space group: C M C A
;
_chemical_formula_sum "Si O2"
_cell_formula_units_Z 80
_cell_length_a 23.771116
_cell_length_b 16.819727
_cell_length_c 8.759964
_cell_angle_alpha 90.000000
_cell_angle_beta 90.000000
_cell_angle_gamma 90.000000
_cell_volume 3502.441057
_symmetry_space_group_name_H-M "C M C A"
_symmetry_group_IT_number 64
_symmetry_cell_setting 'orthorhombic'
loop_
_space_group_symop_operation_xyz
x,y,z
-x,1/2-y,1/2+z
x,-y,-z
-x,1/2+y,1/2-z
-x,-y,-z
x,1/2+y,1/2-z
-x,y,z
x,1/2-y,1/2+z
1/2+x,1/2+y,z
1/2-x,-y,1/2+z
1/2+x,1/2-y,-z
1/2-x,y,1/2-z
1/2-x,1/2-y,-z
1/2+x,y,1/2-z
1/2-x,1/2+y,z
1/2+x,-y,1/2+z
loop_
_atom_site_type_symbol
_atom_site_label
_atom_site_fract_x
_atom_site_fract_y
_atom_site_fract_z
Si Si1 0.619326 0.182843 0.882059
Si Si2 0.806447 0.968181 0.335828
Si Si3 0.935942 0.805631 0.707072
Si Si4 0.131390 0.071784 0.108095
Si Si5 0.286738 0.697057 0.109418
O O1 0.644468 0.097756 0.841986
O O2 0.567824 0.215139 0.776409
O O3 0.665243 0.246574 0.826263
O O4 0.603310 0.184934 0.059356
O O5 0.750000 0.937969 0.250000
O O6 0.786871 0.000000 0.500000
O O7 0.837245 0.040923 0.257112
O O8 0.919517 0.871672 0.836491
O O9 0.000000 0.821721 0.659118
O O10 0.180877 0.123933 0.023818
O O11 0.109864 0.000000 0.000000
O O12 0.250000 0.663588 0.250000
O O13 0.250000 0.750000 0.000000
#
# Coordination Sequence:
#
# PCOD8264896 Si02
#       5
#    16  16  16  16  16
#     4  11  25  44  70 103 138 183 243 295 353 435
#     4  12  26  44  69 105 151 191 227 282 364 439
#     4  11  25  50  75 100 139 188 249 312 362 414
#     4  11  26  44  68 105 149 184 240 299 353 437
#     4  11  24  41  64  98 139 186 229 276 347 428
#
# _framework density 22.841211000000001
#
# number of rings (size 3 to 8) (size 9 to 14) (size 15 to 20)
#    0.000    0.800    2.000    4.800   14.000    0.400 
#    0.000    3.000    0.000    0.000    0.000    0.000 
#    0.000    0.000    0.000    0.000    0.000    0.000 
#
# Total GULP energy -495646.379614 kJ/mol
# GULP energy per Si atom -12391.159490 kJ/mol
# Density = 2.278922 g / cm^3
# Si number density = 22.841211 Si / 1000 Ang^3
#
#
#
# Elastic Constant Matrix: (Units=GPa)
#
#
# Indices 1 2 3 4 5 6 
#
# 1 107.1313 44.6322 34.7937 0.0000 0.0000 0.0000
# 2 44.6322 109.6659 19.9699 0.0000 0.0000 0.0000
# 3 34.7937 19.9699 83.7402 0.0000 0.0000 0.0000
# 4 0.0000 0.0000 0.0000 37.1079 0.0000 0.0000
# 5 0.0000 0.0000 0.0000 0.0000 26.9408 0.0000
# 6 0.0000 0.0000 0.0000 0.0000 0.0000 26.1786
#
#
#
# Elastic Compliance Matrix: (Units=1/GPa)
#
#
# Indices 1 2 3 4 5 6 
#
# 1 0.012486 -0.004325 -0.004157 0.000000 0.000000 0.000000
# 2 -0.004325 0.011030 -0.000834 0.000000 0.000000 0.000000
# 3 -0.004157 -0.000834 0.013868 0.000000 0.000000 0.000000
# 4 0.000000 0.000000 0.000000 0.026948 0.000000 0.000000
# 5 0.000000 0.000000 0.000000 0.000000 0.037118 0.000000
# 6 0.000000 0.000000 0.000000 0.000000 0.000000 0.038199
#
#
# Mechanical properties :
#
#
# Convention : Reuss Voigt Hill
#
# Bulk Modulus (GPa) = 53.32106 55.48099 54.40103
# Shear Modulus (GPa) = 30.38937 31.45489 30.92213
#
# Velocity S-wave (km/s) = 3.65151 3.71497 3.68338
# Velocity P-wave (km/s) = 6.41661 6.53789 6.47753
#
# Compressibility (1/GPa) = 0.01875432
#
# Stress axis : x y z
#
# Youngs Moduli (GPa) = 80.08962 90.65788 72.11098
#
# Poissons Ratio (x) = 0.39207 0.29973
# Poissons Ratio (y) = 0.34636 0.06011
# Poissons Ratio (z) = 0.33290 0.07557
#
# Static dielectric constant tensor:
#      x y z
#    x 4.931800 0.000000 0.000000 
#    y 0.000000 4.278100 0.000000 
#    z 0.000000 0.000000 4.516060 
# 
# 
# High freq. dielectric constant tensor:
#      x y z
#    x 1.888150 0.000000 0.000000 
#    y 0.000000 1.912190 0.000000 
#    z 0.000000 0.000000 1.903380 
# 
# From -- ./inp_files/10229.got.cif
#   From: 2010.03.12/outbox.cif.g09.slc.cpg/sg64_6_cif.got.tgz:10229.got - 2010.04.10 20:19:32.
