data_PCOD8264328
_publ_section_title
;
Structure prediction by ZEFSAII (Michael W. Deem and Ramdas Pophale) SiO2 
 PCOD8264328
Probable space group: C M C A
;
_chemical_formula_sum "Si O2"
_cell_formula_units_Z 96
_cell_length_a 15.355002
_cell_length_b 13.907338
_cell_length_c 20.480034
_cell_angle_alpha 90.000000
_cell_angle_beta 90.000000
_cell_angle_gamma 90.000000
_cell_volume 4373.453974
_symmetry_space_group_name_H-M "C M C A"
_symmetry_group_IT_number 64
_symmetry_cell_setting 'orthorhombic'
loop_
_space_group_symop_operation_xyz
x,y,z
-x,1/2-y,1/2+z
x,-y,-z
-x,1/2+y,1/2-z
-x,-y,-z
x,1/2+y,1/2-z
-x,y,z
x,1/2-y,1/2+z
1/2+x,1/2+y,z
1/2-x,-y,1/2+z
1/2+x,1/2-y,-z
1/2-x,y,1/2-z
1/2-x,1/2-y,-z
1/2+x,y,1/2-z
1/2-x,1/2+y,z
1/2+x,-y,1/2+z
loop_
_atom_site_type_symbol
_atom_site_label
_atom_site_fract_x
_atom_site_fract_y
_atom_site_fract_z
Si Si1 0.335078 0.488372 0.285092
Si Si2 0.855915 0.418076 0.550111
Si Si3 0.817151 0.863451 0.606365
Si Si4 0.098650 0.204385 0.519135
Si Si5 0.907131 0.047816 0.848459
Si Si6 0.762113 0.335170 0.126222
O O1 0.250000 0.531367 0.250000
O O2 0.362359 0.566788 0.339928
O O3 0.405969 0.469276 0.229601
O O4 0.314986 0.382556 0.314477
O O5 0.883028 0.500000 0.500000
O O6 0.752621 0.422310 0.563933
O O7 0.889246 0.318149 0.521874
O O8 0.904663 0.442354 0.618247
O O9 0.890580 0.827060 0.556217
O O10 0.764657 0.774963 0.640404
O O11 0.174608 0.155948 0.563109
O O12 0.000000 0.176078 0.541576
O O13 0.828625 0.107297 0.881832
O O14 0.000000 0.099043 0.862689
#
# Coordination Sequence:
#
# PCOD8264328 Si02
#       6
#    16  16  16  16  16  16
#     4  10  22  41  63  91 129 175 222 265 325 393
#     4  11  21  40  69  95 128 169 218 282 332 391
#     4  11  22  39  69  94 132 177 220 263 335 400
#     4  11  25  40  62 103 137 171 222 274 336 402
#     4  11  23  42  67  97 129 171 228 281 331 390
#     4  10  22  43  65  94 134 177 218 266 328 398
#
# _framework density 21.950614999999999
#
# number of rings (size 3 to 8) (size 9 to 14) (size 15 to 20)
#    0.000    1.333    3.333    4.500    0.000    6.667 
#    0.000    0.833    0.000    0.000    0.000    0.000 
#    0.000    0.000    0.000    0.000    0.000    0.000 
#
# Total GULP energy -594784.855673 kJ/mol
# GULP energy per Si atom -12391.351160 kJ/mol
# Density = 2.190065 g / cm^3
# Si number density = 21.950615 Si / 1000 Ang^3
#
#
#
# Elastic Constant Matrix: (Units=GPa)
#
#
# Indices 1 2 3 4 5 6 
#
# 1 139.4714 44.2226 50.9431 0.0000 0.0000 0.0000
# 2 44.2226 98.9854 66.0416 0.0000 0.0000 0.0000
# 3 50.9431 66.0416 121.3160 0.0000 0.0000 0.0000
# 4 0.0000 0.0000 0.0000 37.2712 0.0000 0.0000
# 5 0.0000 0.0000 0.0000 0.0000 20.1346 0.0000
# 6 0.0000 0.0000 0.0000 0.0000 0.0000 11.3467
#
#
#
# Elastic Compliance Matrix: (Units=1/GPa)
#
#
# Indices 1 2 3 4 5 6 
#
# 1 0.008790 -0.002300 -0.002439 0.000000 0.000000 0.000000
# 2 -0.002300 0.016466 -0.007998 0.000000 0.000000 0.000000
# 3 -0.002439 -0.007998 0.013621 0.000000 0.000000 0.000000
# 4 0.000000 0.000000 0.000000 0.026830 0.000000 0.000000
# 5 0.000000 0.000000 0.000000 0.000000 0.049666 0.000000
# 6 0.000000 0.000000 0.000000 0.000000 0.000000 0.088131
#
#
# Mechanical properties :
#
#
# Convention : Reuss Voigt Hill
#
# Bulk Modulus (GPa) = 74.60791 75.79859 75.20325
# Shear Modulus (GPa) = 21.41822 26.98822 24.20322
#
# Velocity S-wave (km/s) = 3.12708 3.51022 3.32418
# Velocity P-wave (km/s) = 6.86301 7.14390 7.00486
#
# Compressibility (1/GPa) = 0.01340340
#
# Stress axis : x y z
#
# Youngs Moduli (GPa) = 113.76535 60.73103 73.41494
#
# Poissons Ratio (x) = 0.13965 0.17908
# Poissons Ratio (y) = 0.26161 0.58718
# Poissons Ratio (z) = 0.27751 0.48573
#
# Static dielectric constant tensor:
#      x y z
#    x 3.827030 0.000000 0.000000 
#    y 0.000000 3.957430 0.000000 
#    z 0.000000 0.000000 4.133550 
# 
# 
# High freq. dielectric constant tensor:
#      x y z
#    x 1.847780 0.000000 0.000000 
#    y 0.000000 1.854580 0.000000 
#    z 0.000000 0.000000 1.868280 
# 
# From -- ./inp_files/39228.got.cif
#   From: 2010.03.12/outbox.cif.g09.slc.cpg/sg64_20_cif.got.tgz:39228.got - 2010.04.10 20:19:32.
