data_PCOD8264663
_publ_section_title
;
Structure prediction by ZEFSAII (Michael W. Deem and Ramdas Pophale) SiO2 
 PCOD8264663
Probable space group: C M C A
;
_chemical_formula_sum "Si O2"
_cell_formula_units_Z 96
_cell_length_a 25.503417
_cell_length_b 23.463860
_cell_length_c 8.558438
_cell_angle_alpha 90.000000
_cell_angle_beta 90.000000
_cell_angle_gamma 90.000000
_cell_volume 5121.442953
_symmetry_space_group_name_H-M "C M C A"
_symmetry_group_IT_number 64
_symmetry_cell_setting 'orthorhombic'
loop_
_space_group_symop_operation_xyz
x,y,z
-x,1/2-y,1/2+z
x,-y,-z
-x,1/2+y,1/2-z
-x,-y,-z
x,1/2+y,1/2-z
-x,y,z
x,1/2-y,1/2+z
1/2+x,1/2+y,z
1/2-x,-y,1/2+z
1/2+x,1/2-y,-z
1/2-x,y,1/2-z
1/2-x,1/2-y,-z
1/2+x,y,1/2-z
1/2-x,1/2+y,z
1/2+x,-y,1/2+z
loop_
_atom_site_type_symbol
_atom_site_label
_atom_site_fract_x
_atom_site_fract_y
_atom_site_fract_z
Si Si1 0.086505 0.647393 0.828349
Si Si2 0.000000 0.560607 0.313517
Si Si3 0.306861 0.677792 0.199925
Si Si4 0.000000 0.073529 0.829190
Si Si5 0.907694 0.632013 0.186515
Si Si6 0.056579 0.230921 0.104763
Si Si7 0.845394 0.788911 0.114093
O O1 0.052724 0.598791 0.745006
O O2 0.053330 0.705379 0.829659
O O3 0.140865 0.659874 0.734497
O O4 0.100800 0.628451 0.002099
O O5 0.946382 0.580904 0.231945
O O6 0.000000 0.493333 0.300327
O O7 0.000000 0.586080 0.487223
O O8 0.250000 0.655709 0.250000
O O9 0.349735 0.628152 0.234294
O O10 0.322947 0.735035 0.293039
O O11 0.303458 0.690408 0.014234
O O12 0.933019 0.691287 0.244255
O O13 0.000000 0.214555 0.031820
O O14 0.101164 0.226284 0.975934
#
# Coordination Sequence:
#
# PCOD8264663 Si02
#       7
#    16   8  16   8  16  16  16
#     4  12  21  33  54  83 116 149 192 226 281 351
#     4  11  25  44  55  82 117 152 189 242 286 353
#     4  11  21  36  55  81 116 159 196 234 282 337
#     4  11  25  38  59  82 113 156 191 230 296 343
#     4  11  22  37  56  81 119 151 190 235 288 340
#     4  11  20  32  51  81 117 154 182 225 275 346
#     4  11  21  34  50  82 120 154 194 228 283 336
#
# _framework density 18.744719
#
# number of rings (size 3 to 8) (size 9 to 14) (size 15 to 20)
#    0.000    0.833    6.667    3.000    1.167    2.667 
#    0.000    0.000    0.000    0.000    0.000   10.500 
#    0.000    0.000    0.000    0.000    0.000    0.000 
#
# Total GULP energy -595017.629628 kJ/mol
# GULP energy per Si atom -12396.200617 kJ/mol
# Density = 1.870205 g / cm^3
# Si number density = 18.744719 Si / 1000 Ang^3
#
#
#
# Elastic Constant Matrix: (Units=GPa)
#
#
# Indices 1 2 3 4 5 6 
#
# 1 106.6093 18.0696 21.0521 0.0000 0.0000 0.0000
# 2 18.0696 54.8014 23.8330 0.0000 0.0000 0.0000
# 3 21.0521 23.8330 119.8761 0.0000 0.0000 0.0000
# 4 0.0000 0.0000 0.0000 23.5856 0.0000 0.0000
# 5 0.0000 0.0000 0.0000 0.0000 22.1632 0.0000
# 6 0.0000 0.0000 0.0000 0.0000 0.0000 7.6277
#
#
#
# Elastic Compliance Matrix: (Units=1/GPa)
#
#
# Indices 1 2 3 4 5 6 
#
# 1 0.010095 -0.002800 -0.001216 0.000000 0.000000 0.000000
# 2 -0.002800 0.020751 -0.003634 0.000000 0.000000 0.000000
# 3 -0.001216 -0.003634 0.009278 0.000000 0.000000 0.000000
# 4 0.000000 0.000000 0.000000 0.042399 0.000000 0.000000
# 5 0.000000 0.000000 0.000000 0.000000 0.045120 0.000000
# 6 0.000000 0.000000 0.000000 0.000000 0.000000 0.131101
#
#
# Mechanical properties :
#
#
# Convention : Reuss Voigt Hill
#
# Bulk Modulus (GPa) = 40.28289 45.24401 42.76345
# Shear Modulus (GPa) = 17.71054 25.23079 21.47066
#
# Velocity S-wave (km/s) = 3.07714 3.67280 3.38808
# Velocity P-wave (km/s) = 5.84482 6.49425 6.17807
#
# Compressibility (1/GPa) = 0.02482444
#
# Stress axis : x y z
#
# Youngs Moduli (GPa) = 99.06169 48.18992 107.78175
#
# Poissons Ratio (x) = 0.13491 0.13108
# Poissons Ratio (y) = 0.27733 0.39168
# Poissons Ratio (z) = 0.12048 0.17512
#
# Static dielectric constant tensor:
#      x y z
#    x 3.596110 0.000000 0.000000 
#    y 0.000000 3.115080 0.000000 
#    z 0.000000 0.000000 3.823320 
# 
# 
# High freq. dielectric constant tensor:
#      x y z
#    x 1.715370 0.000000 0.000000 
#    y 0.000000 1.678320 0.000000 
#    z 0.000000 0.000000 1.754910 
# 
# From -- ./inp_files/10543.got.cif
#   From: 2010.03.12/outbox.cif.g09.slc.cpg/sg64_6_cif.got.tgz:10543.got - 2010.04.10 20:19:32.
