data_PCOD8264525
_publ_section_title
;
Structure prediction by ZEFSAII (Michael W. Deem and Ramdas Pophale) SiO2 
 PCOD8264525
Probable space group: C M C A
;
_chemical_formula_sum "Si O2"
_cell_formula_units_Z 64
_cell_length_a 25.154580
_cell_length_b 12.375529
_cell_length_c 8.939934
_cell_angle_alpha 90.000000
_cell_angle_beta 90.000000
_cell_angle_gamma 90.000000
_cell_volume 2783.012489
_symmetry_space_group_name_H-M "C M C A"
_symmetry_group_IT_number 64
_symmetry_cell_setting 'orthorhombic'
loop_
_space_group_symop_operation_xyz
x,y,z
-x,1/2-y,1/2+z
x,-y,-z
-x,1/2+y,1/2-z
-x,-y,-z
x,1/2+y,1/2-z
-x,y,z
x,1/2-y,1/2+z
1/2+x,1/2+y,z
1/2-x,-y,1/2+z
1/2+x,1/2-y,-z
1/2-x,y,1/2-z
1/2-x,1/2-y,-z
1/2+x,y,1/2-z
1/2-x,1/2+y,z
1/2+x,-y,1/2+z
loop_
_atom_site_type_symbol
_atom_site_label
_atom_site_fract_x
_atom_site_fract_y
_atom_site_fract_z
Si Si1 0.629023 0.046227 0.648632
Si Si2 0.562047 0.136206 0.256878
Si Si3 0.708831 0.585101 0.620114
Si Si4 0.621361 0.267685 0.504788
O O1 0.663706 0.017384 0.793410
O O2 0.625157 0.174125 0.629874
O O3 0.657367 0.000000 0.500000
O O4 0.573152 0.983354 0.674505
O O5 0.500000 0.159186 0.254302
O O6 0.590486 0.225849 0.359942
O O7 0.585757 0.141961 0.088441
O O8 0.733709 0.500000 0.500000
O O9 0.750000 0.624357 0.750000
O O10 0.680343 0.687852 0.539525
#
# Coordination Sequence:
#
# PCOD8264525 Si02
#       4
#    16  16  16  16
#     4  10  23  44  67  99 148 185 232 290 343 419
#     4  11  23  42  72 106 147 194 235 286 351 412
#     4  12  25  46  73 103 138 184 236 299 364 417
#     4  11  23  44  68 105 147 182 240 294 339 428
#
# _framework density 22.996663000000002
#
# number of rings (size 3 to 8) (size 9 to 14) (size 15 to 20)
#    0.000    1.000    5.000    1.500    0.000    6.500 
#    0.000    5.000    0.000    0.000    0.000    0.000 
#    0.000    0.000    0.000    0.000    0.000    0.000 
#
# Total GULP energy -396448.294089 kJ/mol
# GULP energy per Si atom -12389.009190 kJ/mol
# Density = 2.294432 g / cm^3
# Si number density = 22.996663 Si / 1000 Ang^3
#
#
#
# Elastic Constant Matrix: (Units=GPa)
#
#
# Indices 1 2 3 4 5 6 
#
# 1 132.9083 51.9958 45.8271 0.0000 0.0000 0.0000
# 2 51.9958 115.5459 50.1063 0.0000 0.0000 0.0000
# 3 45.8271 50.1063 114.4389 0.0000 0.0000 0.0000
# 4 0.0000 0.0000 0.0000 27.6242 0.0000 0.0000
# 5 0.0000 0.0000 0.0000 0.0000 42.3827 0.0000
# 6 0.0000 0.0000 0.0000 0.0000 0.0000 23.8971
#
#
#
# Elastic Compliance Matrix: (Units=1/GPa)
#
#
# Indices 1 2 3 4 5 6 
#
# 1 0.009646 -0.003291 -0.002422 0.000000 0.000000 0.000000
# 2 -0.003291 0.011805 -0.003851 0.000000 0.000000 0.000000
# 3 -0.002422 -0.003851 0.011394 0.000000 0.000000 0.000000
# 4 0.000000 0.000000 0.000000 0.036200 0.000000 0.000000
# 5 0.000000 0.000000 0.000000 0.000000 0.023595 0.000000
# 6 0.000000 0.000000 0.000000 0.000000 0.000000 0.041846
#
#
# Mechanical properties :
#
#
# Convention : Reuss Voigt Hill
#
# Bulk Modulus (GPa) = 72.89453 73.19461 73.04457
# Shear Modulus (GPa) = 31.60799 33.11172 32.35986
#
# Velocity S-wave (km/s) = 3.71139 3.79865 3.75528
# Velocity P-wave (km/s) = 7.08044 7.15102 7.11582
#
# Compressibility (1/GPa) = 0.01371845
#
# Stress axis : x y z
#
# Youngs Moduli (GPa) = 103.66491 84.70707 87.76180
#
# Poissons Ratio (x) = 0.27873 0.21258
# Poissons Ratio (y) = 0.34111 0.33799
# Poissons Ratio (z) = 0.25110 0.32623
#
# Static dielectric constant tensor:
#      x y z
#    x 3.813300 0.000000 0.000000 
#    y 0.000000 4.001780 0.000000 
#    z 0.000000 0.000000 4.457670 
# 
# 
# High freq. dielectric constant tensor:
#      x y z
#    x 1.881210 0.000000 0.000000 
#    y 0.000000 1.897040 0.000000 
#    z 0.000000 0.000000 1.941100 
# 
# From -- ./inp_files/10860.got.cif
#   From: 2010.03.12/outbox.cif.g09.slc.cpg/sg64_6_cif.got.tgz:10860.got - 2010.04.10 20:19:32.
