data_PCOD8264955
_publ_section_title
;
Structure prediction by ZEFSAII (Michael W. Deem and Ramdas Pophale) SiO2 
 PCOD8264955
Probable space group: C M C A
;
_chemical_formula_sum "Si O2"
_cell_formula_units_Z 72
_cell_length_a 22.732346
_cell_length_b 15.954794
_cell_length_c 8.389299
_cell_angle_alpha 90.000000
_cell_angle_beta 90.000000
_cell_angle_gamma 90.000000
_cell_volume 3042.713995
_symmetry_space_group_name_H-M "C M C A"
_symmetry_group_IT_number 64
_symmetry_cell_setting 'orthorhombic'
loop_
_space_group_symop_operation_xyz
x,y,z
-x,1/2-y,1/2+z
x,-y,-z
-x,1/2+y,1/2-z
-x,-y,-z
x,1/2+y,1/2-z
-x,y,z
x,1/2-y,1/2+z
1/2+x,1/2+y,z
1/2-x,-y,1/2+z
1/2+x,1/2-y,-z
1/2-x,y,1/2-z
1/2-x,1/2-y,-z
1/2+x,y,1/2-z
1/2-x,1/2+y,z
1/2+x,-y,1/2+z
loop_
_atom_site_type_symbol
_atom_site_label
_atom_site_fract_x
_atom_site_fract_y
_atom_site_fract_z
Si Si1 0.725687 0.089816 0.427137
Si Si2 0.000000 0.203499 0.030763
Si Si3 0.627426 0.806919 0.448772
Si Si4 0.907945 0.000000 0.500000
Si Si5 0.163353 0.146331 0.606178
Si Si6 0.500000 0.125392 0.121695
O O1 0.750000 0.080480 0.250000
O O2 0.664557 0.141349 0.419774
O O3 0.770373 0.139799 0.542128
O O4 0.711717 0.000000 0.500000
O O5 0.000000 0.178484 0.215961
O O6 0.058630 0.165209 0.946758
O O7 0.000000 0.305425 0.020057
O O8 0.627042 0.708692 0.491981
O O9 0.661034 0.818285 0.283406
O O10 0.865814 0.054506 0.613048
O O11 0.944665 0.063021 0.389347
#
# Coordination Sequence:
#
# PCOD8264955 Si02
#       6
#    16   8  16   8  16   8
#     4  12  27  47  76 112 151 193 248 316 378 442
#     4  12  26  45  78 106 154 192 254 297 367 444
#     4  12  27  46  77 109 149 198 252 303 375 451
#     4  11  26  44  76 106 154 191 250 300 388 429
#     4  12  25  49  76 108 150 193 250 309 378 445
#     4  11  26  47  74 108 149 205 243 312 364 451
#
# _framework density 23.663084000000001
#
# number of rings (size 3 to 8) (size 9 to 14) (size 15 to 20)
#    0.000    0.222    3.333    5.333    3.111    0.889 
#    0.000    1.667    0.000    0.000    0.000    0.000 
#    0.000    0.000    0.000    0.000    0.000    0.000 
#
# Total GULP energy -446476.319366 kJ/mol
# GULP energy per Si atom -12402.119982 kJ/mol
# Density = 2.360923 g / cm^3
# Si number density = 23.663084 Si / 1000 Ang^3
#
#
#
# Elastic Constant Matrix: (Units=GPa)
#
#
# Indices 1 2 3 4 5 6 
#
# 1 172.0066 56.1613 30.6373 0.0000 0.0000 0.0000
# 2 56.1613 135.4738 61.6405 0.0000 0.0000 0.0000
# 3 30.6373 61.6405 112.9676 0.0000 0.0000 0.0000
# 4 0.0000 0.0000 0.0000 30.8416 0.0000 0.0000
# 5 0.0000 0.0000 0.0000 0.0000 20.2954 0.0000
# 6 0.0000 0.0000 0.0000 0.0000 0.0000 33.0152
#
#
#
# Elastic Compliance Matrix: (Units=1/GPa)
#
#
# Indices 1 2 3 4 5 6 
#
# 1 0.006738 -0.002610 -0.000403 0.000000 0.000000 0.000000
# 2 -0.002610 0.010830 -0.005202 0.000000 0.000000 0.000000
# 3 -0.000403 -0.005202 0.011800 0.000000 0.000000 0.000000
# 4 0.000000 0.000000 0.000000 0.032424 0.000000 0.000000
# 5 0.000000 0.000000 0.000000 0.000000 0.049272 0.000000
# 6 0.000000 0.000000 0.000000 0.000000 0.000000 0.030289
#
#
# Mechanical properties :
#
#
# Convention : Reuss Voigt Hill
#
# Bulk Modulus (GPa) = 77.29033 79.70292 78.49662
# Shear Modulus (GPa) = 30.84620 34.96437 32.90529
#
# Velocity S-wave (km/s) = 3.61440 3.84812 3.73309
# Velocity P-wave (km/s) = 7.08182 7.31434 7.19902
#
# Compressibility (1/GPa) = 0.01293823
#
# Stress axis : x y z
#
# Youngs Moduli (GPa) = 148.42031 92.33553 84.74746
#
# Poissons Ratio (x) = 0.24096 0.03418
# Poissons Ratio (y) = 0.38732 0.44083
# Poissons Ratio (z) = 0.05987 0.48030
#
# Static dielectric constant tensor:
#      x y z
#    x 4.513080 0.000000 0.000000 
#    y 0.000000 4.497710 0.000000 
#    z 0.000000 0.000000 4.004410 
# 
# 
# High freq. dielectric constant tensor:
#      x y z
#    x 1.956900 0.000000 0.000000 
#    y 0.000000 1.945730 0.000000 
#    z 0.000000 0.000000 1.924400 
# 
# From -- ./inp_files/9164.got.cif
#   From: 2010.03.12/outbox.cif.g09.slc.cpg/sg64_5_cif.got.tgz:9164.got - 2010.04.10 20:19:32.
