data_PCOD8264999
_publ_section_title
;
Structure prediction by ZEFSAII (Michael W. Deem and Ramdas Pophale) SiO2 
 PCOD8264999
Probable space group: C M C A
;
_chemical_formula_sum "Si O2"
_cell_formula_units_Z 80
_cell_length_a 14.813687
_cell_length_b 10.227032
_cell_length_c 27.428952
_cell_angle_alpha 90.000000
_cell_angle_beta 90.000000
_cell_angle_gamma 90.000000
_cell_volume 4155.487627
_symmetry_space_group_name_H-M "C M C A"
_symmetry_group_IT_number 64
_symmetry_cell_setting 'orthorhombic'
loop_
_space_group_symop_operation_xyz
x,y,z
-x,1/2-y,1/2+z
x,-y,-z
-x,1/2+y,1/2-z
-x,-y,-z
x,1/2+y,1/2-z
-x,y,z
x,1/2-y,1/2+z
1/2+x,1/2+y,z
1/2-x,-y,1/2+z
1/2+x,1/2-y,-z
1/2-x,y,1/2-z
1/2-x,1/2-y,-z
1/2+x,y,1/2-z
1/2-x,1/2+y,z
1/2+x,-y,1/2+z
loop_
_atom_site_type_symbol
_atom_site_label
_atom_site_fract_x
_atom_site_fract_y
_atom_site_fract_z
Si Si1 0.603521 0.274655 0.606344
Si Si2 0.607461 0.541256 0.208902
Si Si3 0.396522 0.530237 0.099106
Si Si4 0.607349 0.751735 0.284156
Si Si5 0.242666 0.123279 0.467253
O O1 0.500000 0.317534 0.599637
O O2 0.635177 0.296642 0.662057
O O3 0.663626 0.365866 0.572345
O O4 0.616418 0.124038 0.591604
O O5 0.500000 0.539261 0.212272
O O6 0.635591 0.571331 0.153313
O O7 0.648998 0.652636 0.244134
O O8 0.644295 0.398588 0.225397
O O9 0.500000 0.570837 0.090447
O O10 0.338230 0.606723 0.059564
O O11 0.500000 0.754045 0.280550
O O12 0.250000 0.250000 0.500000
O O13 0.217832 0.000000 0.500000
#
# Coordination Sequence:
#
# PCOD8264999 Si02
#       5
#    16  16  16  16  16
#     4   9  19  38  61  83 113 151 186 225 281 340
#     4   8  14  28  52  81 110 141 179 220 265 324
#     4   9  19  38  62  83 110 153 192 220 272 350
#     4   8  14  28  52  80 110 143 177 218 268 325
#     4  12  24  40  60  83 111 144 189 246 287 324
#
# _framework density 19.251650999999999
#
# number of rings (size 3 to 8) (size 9 to 14) (size 15 to 20)
#    0.000    2.800    2.000    2.400    0.000    1.600 
#    3.600    1.000    0.000    4.800    0.000    0.000 
#    0.000    0.000    0.000    0.000    0.000    0.000 
#
# Total GULP energy -495936.425971 kJ/mol
# GULP energy per Si atom -12398.410649 kJ/mol
# Density = 1.920783 g / cm^3
# Si number density = 19.251651 Si / 1000 Ang^3
#
#
#
# Elastic Constant Matrix: (Units=GPa)
#
#
# Indices 1 2 3 4 5 6 
#
# 1 61.1903 34.8753 46.9623 0.0000 0.0000 0.0000
# 2 34.8753 114.6507 83.3367 0.0000 0.0000 0.0000
# 3 46.9623 83.3367 133.9370 0.0000 0.0000 0.0000
# 4 0.0000 0.0000 0.0000 45.6812 0.0000 0.0000
# 5 0.0000 0.0000 0.0000 0.0000 17.7222 0.0000
# 6 0.0000 0.0000 0.0000 0.0000 0.0000 18.7268
#
#
#
# Elastic Compliance Matrix: (Units=1/GPa)
#
#
# Indices 1 2 3 4 5 6 
#
# 1 0.022617 -0.002037 -0.006663 0.000000 0.000000 0.000000
# 2 -0.002037 0.016107 -0.009308 0.000000 0.000000 0.000000
# 3 -0.006663 -0.009308 0.015594 0.000000 0.000000 0.000000
# 4 0.000000 0.000000 0.000000 0.021891 0.000000 0.000000
# 5 0.000000 0.000000 0.000000 0.000000 0.056427 0.000000
# 6 0.000000 0.000000 0.000000 0.000000 0.000000 0.053399
#
#
# Mechanical properties :
#
#
# Convention : Reuss Voigt Hill
#
# Bulk Modulus (GPa) = 54.63583 71.12515 62.88049
# Shear Modulus (GPa) = 21.91526 26.06627 23.99076
#
# Velocity S-wave (km/s) = 3.37762 3.68363 3.53394
# Velocity P-wave (km/s) = 6.60700 7.42411 7.02744
#
# Compressibility (1/GPa) = 0.01830301
#
# Stress axis : x y z
#
# Youngs Moduli (GPa) = 44.21473 62.08289 64.12726
#
# Poissons Ratio (x) = 0.12644 0.42727
# Poissons Ratio (y) = 0.09005 0.59690
# Poissons Ratio (z) = 0.29460 0.57787
#
# Static dielectric constant tensor:
#      x y z
#    x 3.209850 0.000000 0.000000 
#    y 0.000000 3.640130 0.000000 
#    z 0.000000 0.000000 3.710000 
# 
# 
# High freq. dielectric constant tensor:
#      x y z
#    x 1.727880 0.000000 0.000000 
#    y 0.000000 1.738370 0.000000 
#    z 0.000000 0.000000 1.758740 
# 
# From -- ./inp_files/44975.got.cif
#   From: 2010.03.12/outbox.cif.g09.slc.cpg/sg64_23_cif.got.tgz:44975.got - 2010.04.10 20:19:32.
