data_PCOD8264179
_publ_section_title
;
Structure prediction by ZEFSAII (Michael W. Deem and Ramdas Pophale) SiO2 
 PCOD8264179
Probable space group: C M C A
;
_chemical_formula_sum "Si O2"
_cell_formula_units_Z 80
_cell_length_a 9.090505
_cell_length_b 25.004836
_cell_length_c 18.070915
_cell_angle_alpha 90.000000
_cell_angle_beta 90.000000
_cell_angle_gamma 90.000000
_cell_volume 4107.638007
_symmetry_space_group_name_H-M "C M C A"
_symmetry_group_IT_number 64
_symmetry_cell_setting 'orthorhombic'
loop_
_space_group_symop_operation_xyz
x,y,z
-x,1/2-y,1/2+z
x,-y,-z
-x,1/2+y,1/2-z
-x,-y,-z
x,1/2+y,1/2-z
-x,y,z
x,1/2-y,1/2+z
1/2+x,1/2+y,z
1/2-x,-y,1/2+z
1/2+x,1/2-y,-z
1/2-x,y,1/2-z
1/2-x,1/2-y,-z
1/2+x,y,1/2-z
1/2-x,1/2+y,z
1/2+x,-y,1/2+z
loop_
_atom_site_type_symbol
_atom_site_label
_atom_site_fract_x
_atom_site_fract_y
_atom_site_fract_z
Si Si1 0.331817 0.897843 0.578274
Si Si2 0.669543 0.999962 0.327350
Si Si3 0.327152 0.584660 0.571501
Si Si4 0.328682 0.180146 0.824264
Si Si5 0.828095 0.800482 0.824521
O O1 0.500000 0.897701 0.549047
O O2 0.222680 0.913659 0.513060
O O3 0.284358 0.839620 0.608488
O O4 0.314446 0.939246 0.645624
O O5 0.500000 0.983599 0.317144
O O6 0.750000 0.992117 0.250000
O O7 0.741763 0.962605 0.388700
O O8 0.500000 0.572855 0.575192
O O9 0.285685 0.641219 0.608851
O O10 0.500000 0.178098 0.807056
O O11 0.250000 0.159983 0.750000
O O12 0.278524 0.240235 0.845966
O O13 0.750000 0.819720 0.750000
O O14 0.000000 0.803938 0.808744
#
# Coordination Sequence:
#
# PCOD8264179 Si02
#       5
#    16  16  16  16  16
#     4  10  22  38  56  80 111 144 177 220 273 323
#     4  11  23  39  59  82 108 140 180 223 269 322
#     4  11  23  37  55  81 112 145 182 223 267 318
#     4   9  19  35  55  80 108 140 180 223 266 316
#     4   9  18  35  57  80 108 141 179 223 269 318
#
# _framework density 19.475912999999998
#
# number of rings (size 3 to 8) (size 9 to 14) (size 15 to 20)
#    0.000    2.000    0.000    3.000    0.000    8.800 
#    0.000    0.000    0.000    0.000    0.000    0.000 
#    0.000    0.000    0.000    0.000    0.000    0.000 
#
# Total GULP energy -496158.808479 kJ/mol
# GULP energy per Si atom -12403.970212 kJ/mol
# Density = 1.943158 g / cm^3
# Si number density = 19.475913 Si / 1000 Ang^3
#
#
#
# Elastic Constant Matrix: (Units=GPa)
#
#
# Indices 1 2 3 4 5 6 
#
# 1 73.3720 31.4097 34.0120 0.0000 0.0000 0.0000
# 2 31.4097 75.7850 20.9574 0.0000 0.0000 0.0000
# 3 34.0120 20.9574 80.4479 0.0000 0.0000 0.0000
# 4 0.0000 0.0000 0.0000 31.8618 0.0000 0.0000
# 5 0.0000 0.0000 0.0000 0.0000 40.3879 0.0000
# 6 0.0000 0.0000 0.0000 0.0000 0.0000 24.4227
#
#
#
# Elastic Compliance Matrix: (Units=1/GPa)
#
#
# Indices 1 2 3 4 5 6 
#
# 1 0.019319 -0.006195 -0.006554 0.000000 0.000000 0.000000
# 2 -0.006195 0.016206 -0.001603 0.000000 0.000000 0.000000
# 3 -0.006554 -0.001603 0.015619 0.000000 0.000000 0.000000
# 4 0.000000 0.000000 0.000000 0.031386 0.000000 0.000000
# 5 0.000000 0.000000 0.000000 0.000000 0.024760 0.000000
# 6 0.000000 0.000000 0.000000 0.000000 0.000000 0.040946
#
#
# Mechanical properties :
#
#
# Convention : Reuss Voigt Hill
#
# Bulk Modulus (GPa) = 44.56123 44.70702 44.63412
# Shear Modulus (GPa) = 27.11230 28.88286 27.99758
#
# Velocity S-wave (km/s) = 3.73513 3.85516 3.79562
# Velocity P-wave (km/s) = 6.44449 6.54379 6.49433
#
# Compressibility (1/GPa) = 0.02244103
#
# Stress axis : x y z
#
# Youngs Moduli (GPa) = 51.76206 61.70609 64.02494
#
# Poissons Ratio (x) = 0.38224 0.41962
# Poissons Ratio (y) = 0.32064 0.10262
# Poissons Ratio (z) = 0.33925 0.09890
#
# Static dielectric constant tensor:
#      x y z
#    x 3.564200 0.000000 0.000000 
#    y 0.000000 3.951570 0.000000 
#    z 0.000000 0.000000 3.418620 
# 
# 
# High freq. dielectric constant tensor:
#      x y z
#    x 1.759830 0.000000 0.000000 
#    y 0.000000 1.773950 0.000000 
#    z 0.000000 0.000000 1.752610 
# 
# From -- ./inp_files/29719.got.cif
#   From: 2010.03.12/outbox.cif.g09.slc.cpg/sg64_15_cif.got.tgz:29719.got - 2010.04.10 20:19:32.
