data_PCOD8264397
_publ_section_title
;
Structure prediction by ZEFSAII (Michael W. Deem and Ramdas Pophale) SiO2 
 PCOD8264397
Probable space group: C M C A
;
_chemical_formula_sum "Si O2"
_cell_formula_units_Z 88
_cell_length_a 23.597801
_cell_length_b 11.197493
_cell_length_c 14.715360
_cell_angle_alpha 90.000000
_cell_angle_beta 90.000000
_cell_angle_gamma 90.000000
_cell_volume 3888.330977
_symmetry_space_group_name_H-M "C M C A"
_symmetry_group_IT_number 64
_symmetry_cell_setting 'orthorhombic'
loop_
_space_group_symop_operation_xyz
x,y,z
-x,1/2-y,1/2+z
x,-y,-z
-x,1/2+y,1/2-z
-x,-y,-z
x,1/2+y,1/2-z
-x,y,z
x,1/2-y,1/2+z
1/2+x,1/2+y,z
1/2-x,-y,1/2+z
1/2+x,1/2-y,-z
1/2-x,y,1/2-z
1/2-x,1/2-y,-z
1/2+x,y,1/2-z
1/2-x,1/2+y,z
1/2+x,-y,1/2+z
loop_
_atom_site_type_symbol
_atom_site_label
_atom_site_fract_x
_atom_site_fract_y
_atom_site_fract_z
Si Si1 0.000000 0.377624 0.898529
Si Si2 0.181487 0.394742 0.145644
Si Si3 0.877466 0.365727 0.834860
Si Si4 0.690475 0.864885 0.357578
Si Si5 0.101828 0.808158 0.865322
Si Si6 0.382577 0.000000 0.500000
Si Si7 0.000000 0.353880 0.113020
O O1 0.059680 0.321504 0.865809
O O2 0.000000 0.510005 0.854107
O O3 0.000000 0.361992 0.005322
O O4 0.144230 0.511417 0.117460
O O5 0.245446 0.388972 0.109478
O O6 0.181744 0.398828 0.253829
O O7 0.154260 0.274787 0.103500
O O8 0.830525 0.271121 0.868478
O O9 0.880360 0.378782 0.725580
O O10 0.654428 0.951960 0.418532
O O11 0.052456 0.715144 0.843615
O O12 0.082076 0.895567 0.948507
#
# Coordination Sequence:
#
# PCOD8264397 Si02
#       7
#     8  16  16  16  16   8   8
#     4  11  23  42  70  95 135 170 236 276 330 416
#     4  10  22  43  67  95 132 184 224 274 320 426
#     4  11  22  45  71  99 127 187 230 271 334 419
#     4  10  24  40  68  98 135 175 225 274 343 396
#     4  11  24  42  68  96 137 171 224 280 346 397
#     4  12  24  43  60 104 138 165 220 290 342 394
#     4  11  23  43  62 100 133 177 216 287 345 393
#
# _framework density 22.631817999999999
#
# number of rings (size 3 to 8) (size 9 to 14) (size 15 to 20)
#    0.000    1.273    3.636    1.636    2.545    2.545 
#    3.273    0.909    0.000    0.000    0.000    0.000 
#    0.000    0.000    0.000    0.000    0.000    0.000 
#
# Total GULP energy -545261.128703 kJ/mol
# GULP energy per Si atom -12392.298380 kJ/mol
# Density = 2.258031 g / cm^3
# Si number density = 22.631818 Si / 1000 Ang^3
#
#
#
# Elastic Constant Matrix: (Units=GPa)
#
#
# Indices 1 2 3 4 5 6 
#
# 1 109.5274 17.9813 -2.4309 0.0000 0.0000 0.0000
# 2 17.9813 73.4526 11.6595 0.0000 0.0000 0.0000
# 3 -2.4309 11.6595 30.5304 0.0000 0.0000 0.0000
# 4 0.0000 0.0000 0.0000 35.6748 0.0000 0.0000
# 5 0.0000 0.0000 0.0000 0.0000 20.9258 0.0000
# 6 0.0000 0.0000 0.0000 0.0000 0.0000 27.4668
#
#
#
# Elastic Compliance Matrix: (Units=1/GPa)
#
#
# Indices 1 2 3 4 5 6 
#
# 1 0.009601 -0.002631 0.001769 0.000000 0.000000 0.000000
# 2 -0.002631 0.015214 -0.006020 0.000000 0.000000 0.000000
# 3 0.001769 -0.006020 0.035194 0.000000 0.000000 0.000000
# 4 0.000000 0.000000 0.000000 0.028031 0.000000 0.000000
# 5 0.000000 0.000000 0.000000 0.000000 0.047788 0.000000
# 6 0.000000 0.000000 0.000000 0.000000 0.000000 0.036408
#
#
# Mechanical properties :
#
#
# Convention : Reuss Voigt Hill
#
# Bulk Modulus (GPa) = 21.62343 29.77001 25.69672
# Shear Modulus (GPa) = 24.82446 29.23353 27.02899
#
# Velocity S-wave (km/s) = 3.31552 3.59792 3.45960
# Velocity P-wave (km/s) = 4.92261 5.51749 5.22851
#
# Compressibility (1/GPa) = 0.04624612
#
# Stress axis : x y z
#
# Youngs Moduli (GPa) = 104.15164 65.72941 28.41395
#
# Poissons Ratio (x) = 0.17295 -0.05027
# Poissons Ratio (y) = 0.27405 0.17104
# Poissons Ratio (z) = -0.18428 0.39567
#
# Static dielectric constant tensor:
#      x y z
#    x 4.251310 0.000000 0.000000 
#    y 0.000000 4.221490 0.000000 
#    z 0.000000 0.000000 3.841490 
# 
# 
# High freq. dielectric constant tensor:
#      x y z
#    x 1.891600 0.000000 0.000000 
#    y 0.000000 1.897860 0.000000 
#    z 0.000000 0.000000 1.881450 
# 
# From -- ./inp_files/27225.got.cif
#   From: 2010.03.12/outbox.cif.g09.slc.cpg/sg64_14_cif.got.tgz:27225.got - 2010.04.10 20:19:32.
