data_PCOD8264087
_publ_section_title
;
Structure prediction by ZEFSAII (Michael W. Deem and Ramdas Pophale) SiO2 
 PCOD8264087
Probable space group: C M C A
;
_chemical_formula_sum "Si O2"
_cell_formula_units_Z 72
_cell_length_a 11.986673
_cell_length_b 20.904911
_cell_length_c 15.354783
_cell_angle_alpha 90.000000
_cell_angle_beta 90.000000
_cell_angle_gamma 90.000000
_cell_volume 3847.606626
_symmetry_space_group_name_H-M "C M C A"
_symmetry_group_IT_number 64
_symmetry_cell_setting 'orthorhombic'
loop_
_space_group_symop_operation_xyz
x,y,z
-x,1/2-y,1/2+z
x,-y,-z
-x,1/2+y,1/2-z
-x,-y,-z
x,1/2+y,1/2-z
-x,y,z
x,1/2-y,1/2+z
1/2+x,1/2+y,z
1/2-x,-y,1/2+z
1/2+x,1/2-y,-z
1/2-x,y,1/2-z
1/2-x,1/2-y,-z
1/2+x,y,1/2-z
1/2-x,1/2+y,z
1/2+x,-y,1/2+z
loop_
_atom_site_type_symbol
_atom_site_label
_atom_site_fract_x
_atom_site_fract_y
_atom_site_fract_z
Si Si1 0.500000 0.357506 0.595775
Si Si2 0.212357 0.572237 0.151619
Si Si3 0.875481 0.112221 0.000000
Si Si4 0.000000 0.234559 0.000000
Si Si5 0.787643 0.572237 0.848381
Si Si6 0.000000 0.142494 0.595775
O O1 0.390221 0.379492 0.645338
O O2 0.500000 0.279999 0.585975
O O3 0.500000 0.389944 0.500000
O O4 0.250000 0.577727 0.250000
O O5 0.311437 0.591448 0.086698
O O6 0.174329 0.500000 0.129699
O O7 0.000000 0.080603 0.000000
O O8 0.811437 0.091448 0.913302
O O9 0.889464 0.189697 0.000000
O O10 0.000000 0.279999 0.085975
O O11 0.750000 0.577727 0.750000
O O12 0.890221 0.620508 0.854662
#
# Coordination Sequence:
#
# PCOD8264087 Si02
#       6
#     8  16  16   8  16   8
#     4  10  21  41  65  82 122 159 204 246 295 348
#     4  11  24  39  62  94 123 156 200 251 301 360
#     4  10  22  42  60  86 126 160 200 240 310 348
#     4   8  22  40  64  88 118 160 208 248 286 360
#     4  11  24  39  62  94 123 156 200 251 301 360
#     4  10  21  41  65  82 122 159 204 246 295 348
#
# _framework density 18.712931999999999
#
# number of rings (size 3 to 8) (size 9 to 14) (size 15 to 20)
#    1.333    0.444    2.222    1.333    3.111    6.222 
#    0.000    6.667    0.000    0.000    0.000    0.000 
#    0.000    0.000    0.000    0.000    0.000    0.000 
#
# Total GULP energy -446179.630875 kJ/mol
# GULP energy per Si atom -12393.878635 kJ/mol
# Density = 1.867034 g / cm^3
# Si number density = 18.712932 Si / 1000 Ang^3
#
#
#
# Elastic Constant Matrix: (Units=GPa)
#
#
# Indices 1 2 3 4 5 6 
#
# 1 103.0677 21.7260 47.3703 0.0000 0.0000 0.0000
# 2 21.7260 115.9759 49.9909 0.0000 0.0000 0.0000
# 3 47.3703 49.9909 111.1257 0.0000 0.0000 0.0000
# 4 0.0000 0.0000 0.0000 1.4095 0.0000 0.0000
# 5 0.0000 0.0000 0.0000 0.0000 18.0837 0.0000
# 6 0.0000 0.0000 0.0000 0.0000 0.0000 37.0498
#
#
#
# Elastic Compliance Matrix: (Units=1/GPa)
#
#
# Indices 1 2 3 4 5 6 
#
# 1 0.012067 -0.000054 -0.005120 0.000000 0.000000 0.000000
# 2 -0.000054 0.010697 -0.004789 0.000000 0.000000 0.000000
# 3 -0.005120 -0.004789 0.013336 0.000000 0.000000 0.000000
# 4 0.000000 0.000000 0.000000 0.709469 0.000000 0.000000
# 5 0.000000 0.000000 0.000000 0.000000 0.055299 0.000000
# 6 0.000000 0.000000 0.000000 0.000000 0.000000 0.026991
#
#
# Mechanical properties :
#
#
# Convention : Reuss Voigt Hill
#
# Bulk Modulus (GPa) = 61.82674 63.14931 62.48802
# Shear Modulus (GPa) = 5.86047 25.38075 15.62061
#
# Velocity S-wave (km/s) = 1.77160 3.68682 2.89234
# Velocity P-wave (km/s) = 6.10705 7.20716 6.67979
#
# Compressibility (1/GPa) = 0.01617423
#
# Stress axis : x y z
#
# Youngs Moduli (GPa) = 82.87302 93.48502 74.98708
#
# Poissons Ratio (x) = 0.00502 0.38390
# Poissons Ratio (y) = 0.00445 0.35913
# Poissons Ratio (z) = 0.42427 0.44772
#
# Static dielectric constant tensor:
#      x y z
#    x 3.214590 0.000000 0.000000 
#    y 0.000000 3.506640 0.000000 
#    z 0.000000 0.000000 3.342820 
# 
# 
# High freq. dielectric constant tensor:
#      x y z
#    x 1.730000 0.000000 0.000000 
#    y 0.000000 1.728920 0.000000 
#    z 0.000000 0.000000 1.724200 
# 
# From -- ./inp_files/22274.got.cif
#   From: 2010.03.12/outbox.cif.g09.slc.cpg/sg64_12_cif.got.tgz:22274.got - 2010.04.10 20:19:32.
