data_PCOD8264313
_publ_section_title
;
Structure prediction by ZEFSAII (Michael W. Deem and Ramdas Pophale) SiO2 
 PCOD8264313
Probable space group: C M C A
;
_chemical_formula_sum "Si O2"
_cell_formula_units_Z 96
_cell_length_a 14.886057
_cell_length_b 15.512164
_cell_length_c 20.585730
_cell_angle_alpha 90.000000
_cell_angle_beta 90.000000
_cell_angle_gamma 90.000000
_cell_volume 4753.552968
_symmetry_space_group_name_H-M "C M C A"
_symmetry_group_IT_number 64
_symmetry_cell_setting 'orthorhombic'
loop_
_space_group_symop_operation_xyz
x,y,z
-x,1/2-y,1/2+z
x,-y,-z
-x,1/2+y,1/2-z
-x,-y,-z
x,1/2+y,1/2-z
-x,y,z
x,1/2-y,1/2+z
1/2+x,1/2+y,z
1/2-x,-y,1/2+z
1/2+x,1/2-y,-z
1/2-x,y,1/2-z
1/2-x,1/2-y,-z
1/2+x,y,1/2-z
1/2-x,1/2+y,z
1/2+x,-y,1/2+z
loop_
_atom_site_type_symbol
_atom_site_label
_atom_site_fract_x
_atom_site_fract_y
_atom_site_fract_z
Si Si1 0.103747 0.858123 0.683958
Si Si2 0.847982 0.819215 0.228289
Si Si3 0.901149 0.952139 0.327342
Si Si4 0.399247 0.816719 0.958919
Si Si5 0.599704 0.371406 0.083807
Si Si6 0.712593 0.925493 0.047642
O O1 0.146271 0.785627 0.731909
O O2 0.139911 0.851781 0.609830
O O3 0.000000 0.832607 0.682249
O O4 0.122122 0.956030 0.708828
O O5 0.750000 0.849016 0.250000
O O6 0.910321 0.872223 0.277836
O O7 0.874077 0.848931 0.156973
O O8 0.826651 0.934755 0.380855
O O9 0.000000 0.962983 0.359636
O O10 0.500000 0.853849 0.972575
O O11 0.404470 0.714192 0.958696
O O12 0.329192 0.839310 0.016182
O O13 0.500000 0.416137 0.081562
O O14 0.678922 0.428733 0.052807
O O15 0.679011 0.000000 0.000000
#
# Coordination Sequence:
#
# PCOD8264313 Si02
#       6
#    16  16  16  16  16  16
#     4   9  19  36  58  87 119 157 195 238 304 365
#     4  11  21  39  62  87 115 157 204 249 301 359
#     4  11  22  37  61  91 126 159 197 255 308 356
#     4   9  18  35  60  86 118 156 192 237 298 361
#     4  10  22  41  61  80 116 166 203 242 299 360
#     4  12  22  35  59  94 123 153 200 251 295 360
#
# _framework density 20.195421
#
# number of rings (size 3 to 8) (size 9 to 14) (size 15 to 20)
#    0.000    1.667    3.333    3.500    0.000    1.667 
#    0.000    0.000    0.000    0.000    0.000    0.000 
#    0.000    0.000    0.000    0.000    0.000    0.000 
#
# Total GULP energy -594822.419079 kJ/mol
# GULP energy per Si atom -12392.133731 kJ/mol
# Density = 2.014946 g / cm^3
# Si number density = 20.195421 Si / 1000 Ang^3
#
#
#
# Elastic Constant Matrix: (Units=GPa)
#
#
# Indices 1 2 3 4 5 6 
#
# 1 110.0240 18.5174 25.5577 0.0000 0.0000 0.0000
# 2 18.5174 88.6233 43.8204 0.0000 0.0000 0.0000
# 3 25.5577 43.8204 67.3299 0.0000 0.0000 0.0000
# 4 0.0000 0.0000 0.0000 27.0790 0.0000 0.0000
# 5 0.0000 0.0000 0.0000 0.0000 28.0412 0.0000
# 6 0.0000 0.0000 0.0000 0.0000 0.0000 26.2382
#
#
#
# Elastic Compliance Matrix: (Units=1/GPa)
#
#
# Indices 1 2 3 4 5 6 
#
# 1 0.009974 -0.000313 -0.003582 0.000000 0.000000 0.000000
# 2 -0.000313 0.016648 -0.010716 0.000000 0.000000 0.000000
# 3 -0.003582 -0.010716 0.023187 0.000000 0.000000 0.000000
# 4 0.000000 0.000000 0.000000 0.036929 0.000000 0.000000
# 5 0.000000 0.000000 0.000000 0.000000 0.035662 0.000000
# 6 0.000000 0.000000 0.000000 0.000000 0.000000 0.038112
#
#
# Mechanical properties :
#
#
# Convention : Reuss Voigt Hill
#
# Bulk Modulus (GPa) = 48.57797 49.08537 48.83167
# Shear Modulus (GPa) = 25.43293 28.14380 26.78837
#
# Velocity S-wave (km/s) = 3.55257 3.73711 3.64601
# Velocity P-wave (km/s) = 6.39796 6.55586 6.47739
#
# Compressibility (1/GPa) = 0.02058546
#
# Stress axis : x y z
#
# Youngs Moduli (GPa) = 100.26356 60.06823 43.12841
#
# Poissons Ratio (x) = 0.01878 0.15451
# Poissons Ratio (y) = 0.03134 0.46217
# Poissons Ratio (z) = 0.35919 0.64370
#
# Static dielectric constant tensor:
#      x y z
#    x 3.767330 0.000000 0.000000 
#    y 0.000000 3.677730 0.000000 
#    z 0.000000 0.000000 3.418260 
# 
# 
# High freq. dielectric constant tensor:
#      x y z
#    x 1.793920 0.000000 0.000000 
#    y 0.000000 1.779960 0.000000 
#    z 0.000000 0.000000 1.763060 
# 
# From -- ./inp_files/39151.got.cif
#   From: 2010.03.12/outbox.cif.g09.slc.cpg/sg64_20_cif.got.tgz:39151.got - 2010.04.10 20:19:32.
