data_PCOD8264472
_publ_section_title
;
Structure prediction by ZEFSAII (Michael W. Deem and Ramdas Pophale) SiO2 
 PCOD8264472
Probable space group: C M C A
;
_chemical_formula_sum "Si O2"
_cell_formula_units_Z 112
_cell_length_a 14.808926
_cell_length_b 31.937410
_cell_length_c 11.203085
_cell_angle_alpha 90.000000
_cell_angle_beta 90.000000
_cell_angle_gamma 90.000000
_cell_volume 5298.596981
_symmetry_space_group_name_H-M "C M C A"
_symmetry_group_IT_number 64
_symmetry_cell_setting 'orthorhombic'
loop_
_space_group_symop_operation_xyz
x,y,z
-x,1/2-y,1/2+z
x,-y,-z
-x,1/2+y,1/2-z
-x,-y,-z
x,1/2+y,1/2-z
-x,y,z
x,1/2-y,1/2+z
1/2+x,1/2+y,z
1/2-x,-y,1/2+z
1/2+x,1/2-y,-z
1/2-x,y,1/2-z
1/2-x,1/2-y,-z
1/2+x,y,1/2-z
1/2-x,1/2+y,z
1/2+x,-y,1/2+z
loop_
_atom_site_type_symbol
_atom_site_label
_atom_site_fract_x
_atom_site_fract_y
_atom_site_fract_z
Si Si1 0.101917 0.672333 0.091927
Si Si2 0.399536 0.412171 0.702301
Si Si3 0.896969 0.657573 0.628403
Si Si4 0.607808 0.118670 0.871472
Si Si5 0.101278 0.421042 0.522262
Si Si6 0.792217 0.451943 0.001726
Si Si7 0.699737 0.756337 0.375622
O O1 0.112871 0.637961 0.195938
O O2 0.143879 0.714341 0.142507
O O3 0.000000 0.683778 0.062174
O O4 0.143021 0.652708 0.969215
O O5 0.500000 0.423320 0.650584
O O6 0.392804 0.426169 0.837138
O O7 0.320464 0.434111 0.627602
O O8 0.855283 0.634735 0.744756
O O9 0.883188 0.627220 0.515060
O O10 0.857008 0.702357 0.599852
O O11 0.000000 0.665939 0.658479
O O12 0.500000 0.112539 0.876695
O O13 0.653405 0.073600 0.896977
O O14 0.184147 0.448570 0.471681
O O15 0.000000 0.435610 0.477583
O O16 0.821425 0.500000 0.000000
O O17 0.750000 0.763176 0.250000
O O18 0.750000 0.750000 0.500000
#
# Coordination Sequence:
#
# PCOD8264472 Si02
#       7
#    16  16  16  16  16  16  16
#     4   9  19  38  62  88 121 164 205 256 312 367
#     4   9  20  40  66  92 122 161 207 261 317 373
#     4  10  23  44  64  86 125 177 214 259 327 391
#     4   9  20  41  67  94 128 169 214 266 327 385
#     4  10  23  42  63  87 124 168 209 253 312 387
#     4  11  23  39  67  98 125 162 208 265 326 389
#     4  12  27  38  59  98 131 166 219 276 322 380
#
# _framework density 21.137671000000001
#
# number of rings (size 3 to 8) (size 9 to 14) (size 15 to 20)
#    0.000    2.000    0.000    3.000    8.000    1.429 
#    5.143    1.429    0.000    0.000    0.000    0.000 
#    0.000    0.000    0.000    0.000    0.000    0.000 
#
# Total GULP energy -693972.933577 kJ/mol
# GULP energy per Si atom -12392.373814 kJ/mol
# Density = 2.108956 g / cm^3
# Si number density = 21.137671 Si / 1000 Ang^3
#
#
#
# Elastic Constant Matrix: (Units=GPa)
#
#
# Indices 1 2 3 4 5 6 
#
# 1 79.5839 40.6596 14.2541 0.0000 0.0000 0.0000
# 2 40.6596 125.8410 14.0742 0.0000 0.0000 0.0000
# 3 14.2541 14.0742 70.9795 0.0000 0.0000 0.0000
# 4 0.0000 0.0000 0.0000 19.2105 0.0000 0.0000
# 5 0.0000 0.0000 0.0000 0.0000 24.9047 0.0000
# 6 0.0000 0.0000 0.0000 0.0000 0.0000 29.4780
#
#
#
# Elastic Compliance Matrix: (Units=1/GPa)
#
#
# Indices 1 2 3 4 5 6 
#
# 1 0.015364 -0.004724 -0.002149 0.000000 0.000000 0.000000
# 2 -0.004724 0.009579 -0.000951 0.000000 0.000000 0.000000
# 3 -0.002149 -0.000951 0.014709 0.000000 0.000000 0.000000
# 4 0.000000 0.000000 0.000000 0.052055 0.000000 0.000000
# 5 0.000000 0.000000 0.000000 0.000000 0.040153 0.000000
# 6 0.000000 0.000000 0.000000 0.000000 0.000000 0.033924
#
#
# Mechanical properties :
#
#
# Convention : Reuss Voigt Hill
#
# Bulk Modulus (GPa) = 41.65809 46.04226 43.85017
# Shear Modulus (GPa) = 26.39485 28.54639 27.47062
#
# Velocity S-wave (km/s) = 3.53754 3.67890 3.60891
# Velocity P-wave (km/s) = 6.03626 6.31467 6.17703
#
# Compressibility (1/GPa) = 0.02400494
#
# Stress axis : x y z
#
# Youngs Moduli (GPa) = 65.08915 104.39373 67.98743
#
# Poissons Ratio (x) = 0.49312 0.14608
# Poissons Ratio (y) = 0.30746 0.06464
# Poissons Ratio (z) = 0.13986 0.09926
#
# Static dielectric constant tensor:
#      x y z
#    x 4.056620 0.000000 0.000000 
#    y 0.000000 3.949810 0.000000 
#    z 0.000000 0.000000 3.772750 
# 
# 
# High freq. dielectric constant tensor:
#      x y z
#    x 1.835640 0.000000 0.000000 
#    y 0.000000 1.818270 0.000000 
#    z 0.000000 0.000000 1.826340 
# 
# From -- ./inp_files/14954.got.cif
#   From: 2010.03.12/outbox.cif.g09.slc.cpg/sg64_8_cif.got.tgz:14954.got - 2010.04.10 20:19:32.
