data_PCOD8264068
_publ_section_title
;
Structure prediction by ZEFSAII (Michael W. Deem and Ramdas Pophale) SiO2 
 PCOD8264068
Probable space group: C M C A
;
_chemical_formula_sum "Si O2"
_cell_formula_units_Z 88
_cell_length_a 19.139169
_cell_length_b 22.016381
_cell_length_c 9.341196
_cell_angle_alpha 90.000000
_cell_angle_beta 90.000000
_cell_angle_gamma 90.000000
_cell_volume 3936.148676
_symmetry_space_group_name_H-M "C M C A"
_symmetry_group_IT_number 64
_symmetry_cell_setting 'orthorhombic'
loop_
_space_group_symop_operation_xyz
x,y,z
-x,1/2-y,1/2+z
x,-y,-z
-x,1/2+y,1/2-z
-x,-y,-z
x,1/2+y,1/2-z
-x,y,z
x,1/2-y,1/2+z
1/2+x,1/2+y,z
1/2-x,-y,1/2+z
1/2+x,1/2-y,-z
1/2-x,y,1/2-z
1/2-x,1/2-y,-z
1/2+x,y,1/2-z
1/2-x,1/2+y,z
1/2+x,-y,1/2+z
loop_
_atom_site_type_symbol
_atom_site_label
_atom_site_fract_x
_atom_site_fract_y
_atom_site_fract_z
Si Si1 0.419894 0.354192 0.385439
Si Si2 0.423184 0.652943 0.928771
Si Si3 0.920120 0.457840 0.625551
Si Si4 0.675000 0.238131 0.434350
Si Si5 0.659698 0.941355 0.913205
Si Si6 0.250000 0.648160 0.250000
O O1 0.500000 0.334341 0.419284
O O2 0.413786 0.381206 0.223976
O O3 0.366412 0.297929 0.388437
O O4 0.398962 0.406935 0.494700
O O5 0.500000 0.682548 0.933038
O O6 0.414390 0.609895 0.065290
O O7 0.368783 0.707372 0.939265
O O8 0.889653 0.500000 0.500000
O O9 0.873634 0.464722 0.765940
O O10 0.000000 0.475992 0.661669
O O11 0.750000 0.250000 0.500000
O O12 0.686155 0.191204 0.302115
O O13 0.723108 0.894913 0.879789
O O14 0.688094 0.000000 0.000000
#
# Coordination Sequence:
#
# PCOD8264068 Si02
#       6
#    16  16  16  16  16   8
#     4  11  25  44  72 110 142 183 240 296 362 431
#     4  10  22  41  67 100 136 176 229 289 352 421
#     4  10  21  40  69  99 134 178 225 285 354 418
#     4  12  23  45  71  97 142 188 232 294 361 422
#     4  12  26  47  70 102 144 193 237 297 353 423
#     4  12  26  48  66 106 142 188 248 294 352 428
#
# _framework density 22.356881000000001
#
# number of rings (size 3 to 8) (size 9 to 14) (size 15 to 20)
#    0.000    0.909    3.636    3.273    0.000    3.636 
#    3.273    0.000    0.000    0.000    0.000    0.000 
#    0.000    0.000    0.000    0.000    0.000    0.000 
#
# Total GULP energy -545524.308871 kJ/mol
# GULP energy per Si atom -12398.279747 kJ/mol
# Density = 2.230600 g / cm^3
# Si number density = 22.356881 Si / 1000 Ang^3
#
#
#
# Elastic Constant Matrix: (Units=GPa)
#
#
# Indices 1 2 3 4 5 6 
#
# 1 100.2343 43.8666 29.7069 0.0000 0.0000 0.0000
# 2 43.8666 100.4072 40.7860 0.0000 0.0000 0.0000
# 3 29.7069 40.7860 112.6511 0.0000 0.0000 0.0000
# 4 0.0000 0.0000 0.0000 46.8883 0.0000 0.0000
# 5 0.0000 0.0000 0.0000 0.0000 36.6298 0.0000
# 6 0.0000 0.0000 0.0000 0.0000 0.0000 33.6968
#
#
#
# Elastic Compliance Matrix: (Units=1/GPa)
#
#
# Indices 1 2 3 4 5 6 
#
# 1 0.012563 -0.004857 -0.001554 0.000000 0.000000 0.000000
# 2 -0.004857 0.013555 -0.003627 0.000000 0.000000 0.000000
# 3 -0.001554 -0.003627 0.010600 0.000000 0.000000 0.000000
# 4 0.000000 0.000000 0.000000 0.021327 0.000000 0.000000
# 5 0.000000 0.000000 0.000000 0.000000 0.027300 0.000000
# 6 0.000000 0.000000 0.000000 0.000000 0.000000 0.029676
#
#
# Mechanical properties :
#
#
# Convention : Reuss Voigt Hill
#
# Bulk Modulus (GPa) = 60.09222 60.22353 60.15787
# Shear Modulus (GPa) = 35.55049 36.70519 36.12784
#
# Velocity S-wave (km/s) = 3.99198 4.05629 4.02426
# Velocity P-wave (km/s) = 6.94153 6.99527 6.96845
#
# Compressibility (1/GPa) = 0.01664109
#
# Stress axis : x y z
#
# Youngs Moduli (GPa) = 79.59872 73.77524 94.34030
#
# Poissons Ratio (x) = 0.35834 0.14664
# Poissons Ratio (y) = 0.38663 0.34214
# Poissons Ratio (z) = 0.12373 0.26756
#
# Static dielectric constant tensor:
#      x y z
#    x 4.073790 0.000000 0.000000 
#    y 0.000000 4.045130 0.000000 
#    z 0.000000 0.000000 4.225940 
# 
# 
# High freq. dielectric constant tensor:
#      x y z
#    x 1.879900 0.000000 0.000000 
#    y 0.000000 1.877980 0.000000 
#    z 0.000000 0.000000 1.890190 
# 
# From -- ./inp_files/8198.got.cif
#   From: 2010.03.12/outbox.cif.g09.slc.cpg/sg64_5_cif.got.tgz:8198.got - 2010.04.10 20:19:32.
