data_PCOD8264115
_publ_section_title
;
Structure prediction by ZEFSAII (Michael W. Deem and Ramdas Pophale) SiO2 
 PCOD8264115
Probable space group: C M C A
;
_chemical_formula_sum "Si O2"
_cell_formula_units_Z 56
_cell_length_a 16.595085
_cell_length_b 11.170094
_cell_length_c 14.224490
_cell_angle_alpha 90.000000
_cell_angle_beta 90.000000
_cell_angle_gamma 90.000000
_cell_volume 2636.774642
_symmetry_space_group_name_H-M "C M C A"
_symmetry_group_IT_number 64
_symmetry_cell_setting 'orthorhombic'
loop_
_space_group_symop_operation_xyz
x,y,z
-x,1/2-y,1/2+z
x,-y,-z
-x,1/2+y,1/2-z
-x,-y,-z
x,1/2+y,1/2-z
-x,y,z
x,1/2-y,1/2+z
1/2+x,1/2+y,z
1/2-x,-y,1/2+z
1/2+x,1/2-y,-z
1/2-x,y,1/2-z
1/2-x,1/2-y,-z
1/2+x,y,1/2-z
1/2-x,1/2+y,z
1/2+x,-y,1/2+z
loop_
_atom_site_type_symbol
_atom_site_label
_atom_site_fract_x
_atom_site_fract_y
_atom_site_fract_z
Si Si1 0.587700 0.411998 0.088940
Si Si2 0.093925 0.272356 0.059059
Si Si3 0.677688 0.000000 0.000000
Si Si4 0.795124 0.911596 0.846174
O O1 0.500000 0.409799 0.138863
O O2 0.654427 0.462777 0.161095
O O3 0.585781 0.500000 0.000000
O O4 0.608765 0.281679 0.046282
O O5 0.144798 0.199535 0.136627
O O6 0.000000 0.263351 0.086806
O O7 0.121673 0.409884 0.059161
O O8 0.732270 0.920945 0.931119
O O9 0.750000 0.887189 0.750000
#
# Coordination Sequence:
#
# PCOD8264115 Si02
#       4
#    16  16   8  16
#     4   8  15  34  62  87 115 162 210 253 311 383
#     4  10  21  42  65  87 125 174 214 260 324 389
#     4  12  23  40  63  98 132 164 218 274 315 366
#     4  11  22  37  66  96 129 165 219 272 321 371
#
# _framework density 21.238067999999998
#
# number of rings (size 3 to 8) (size 9 to 14) (size 15 to 20)
#    0.000    2.000    4.286    3.857    0.000    1.143 
#    0.000    5.714    0.000    0.000    0.000    0.000 
#    0.000    0.000    0.000    0.000    0.000    0.000 
#
# Total GULP energy -347110.148795 kJ/mol
# GULP energy per Si atom -12396.791028 kJ/mol
# Density = 2.118973 g / cm^3
# Si number density = 21.238068 Si / 1000 Ang^3
#
#
#
# Elastic Constant Matrix: (Units=GPa)
#
#
# Indices 1 2 3 4 5 6 
#
# 1 157.2119 60.8931 60.6446 0.0000 0.0000 0.0000
# 2 60.8931 82.2597 18.6577 0.0000 0.0000 0.0000
# 3 60.6446 18.6577 83.3350 0.0000 0.0000 0.0000
# 4 0.0000 0.0000 0.0000 15.6776 0.0000 0.0000
# 5 0.0000 0.0000 0.0000 0.0000 26.2652 0.0000
# 6 0.0000 0.0000 0.0000 0.0000 0.0000 172.8089
#
#
#
# Elastic Compliance Matrix: (Units=1/GPa)
#
#
# Indices 1 2 3 4 5 6 
#
# 1 0.011847 -0.007179 -0.007014 0.000000 0.000000 0.000000
# 2 -0.007179 0.017157 0.001383 0.000000 0.000000 0.000000
# 3 -0.007014 0.001383 0.016794 0.000000 0.000000 0.000000
# 4 0.000000 0.000000 0.000000 0.063785 0.000000 0.000000
# 5 0.000000 0.000000 0.000000 0.000000 0.038073 0.000000
# 6 0.000000 0.000000 0.000000 0.000000 0.000000 0.005787
#
#
# Mechanical properties :
#
#
# Convention : Reuss Voigt Hill
#
# Bulk Modulus (GPa) = 49.55751 67.02196 58.28974
# Shear Modulus (GPa) = 26.91197 55.12441 41.01819
#
# Velocity S-wave (km/s) = 3.56358 5.10018 4.39948
# Velocity P-wave (km/s) = 6.34957 8.14300 7.30156
#
# Compressibility (1/GPa) = 0.02017858
#
# Stress axis : x y z
#
# Youngs Moduli (GPa) = 84.40788 58.28442 59.54343
#
# Poissons Ratio (x) = 0.41843 0.41765
# Poissons Ratio (y) = 0.60597 -0.08235
# Poissons Ratio (z) = 0.59205 -0.08061
#
# Static dielectric constant tensor:
#      x y z
#    x 4.233170 0.000000 0.000000 
#    y 0.000000 3.959600 0.000000 
#    z 0.000000 0.000000 2.486870 
# 
# 
# High freq. dielectric constant tensor:
#      x y z
#    x 1.856020 0.000000 0.000000 
#    y 0.000000 1.830380 0.000000 
#    z 0.000000 0.000000 1.771870 
# 
# From -- ./inp_files/23020.got.cif
#   From: 2010.03.12/outbox.cif.g09.slc.cpg/sg64_12_cif.got.tgz:23020.got - 2010.04.10 20:19:32.
