data_PCOD8264647
_publ_section_title
;
Structure prediction by ZEFSAII (Michael W. Deem and Ramdas Pophale) SiO2 
 PCOD8264647
Probable space group: C M C A
;
_chemical_formula_sum "Si O2"
_cell_formula_units_Z 96
_cell_length_a 24.626012
_cell_length_b 20.992481
_cell_length_c 8.936140
_cell_angle_alpha 90.000000
_cell_angle_beta 90.000000
_cell_angle_gamma 90.000000
_cell_volume 4619.636666
_symmetry_space_group_name_H-M "C M C A"
_symmetry_group_IT_number 64
_symmetry_cell_setting 'orthorhombic'
loop_
_space_group_symop_operation_xyz
x,y,z
-x,1/2-y,1/2+z
x,-y,-z
-x,1/2+y,1/2-z
-x,-y,-z
x,1/2+y,1/2-z
-x,y,z
x,1/2-y,1/2+z
1/2+x,1/2+y,z
1/2-x,-y,1/2+z
1/2+x,1/2-y,-z
1/2-x,y,1/2-z
1/2-x,1/2-y,-z
1/2+x,y,1/2-z
1/2-x,1/2+y,z
1/2+x,-y,1/2+z
loop_
_atom_site_type_symbol
_atom_site_label
_atom_site_fract_x
_atom_site_fract_y
_atom_site_fract_z
Si Si1 0.132308 0.062953 0.919801
Si Si2 0.377889 0.764323 0.682550
Si Si3 0.437790 0.315800 0.076121
Si Si4 0.220924 0.189718 0.597765
Si Si5 0.297664 0.043564 0.855239
Si Si6 0.707726 0.859679 0.633212
O O1 0.082678 0.112038 0.914856
O O2 0.148881 0.046950 0.749708
O O3 0.184329 0.089656 0.013586
O O4 0.110078 0.000000 0.000000
O O5 0.399036 0.728292 0.825874
O O6 0.430334 0.787628 0.589714
O O7 0.339783 0.717140 0.585014
O O8 0.341978 0.827040 0.723922
O O9 0.500000 0.312765 0.126505
O O10 0.250000 0.211929 0.750000
O O11 0.217121 0.113229 0.586684
O O12 0.261721 0.200305 0.453965
O O13 0.250000 0.015014 0.750000
O O14 0.308882 0.000000 0.000000
O O15 0.750000 0.891885 0.750000
#
# Coordination Sequence:
#
# PCOD8264647 Si02
#       6
#    16  16  16  16  16  16
#     4  11  24  41  59  88 123 161 207 247 300 358
#     4  11  21  40  62  90 120 157 198 246 302 364
#     4  11  24  44  66  87 113 154 207 268 316 350
#     4  11  19  35  56  88 128 166 190 230 290 362
#     4  11  22  36  59  86 125 167 202 236 286 356
#     4  11  22  34  58  93 128 161 192 233 289 365
#
# _framework density 20.780854000000001
#
# number of rings (size 3 to 8) (size 9 to 14) (size 15 to 20)
#    0.000    1.000    5.000    4.000    2.333    0.333 
#    0.000    0.000    0.000    0.500    0.000    0.000 
#    0.000    0.000    0.000    0.000    0.000    0.000 
#
# Total GULP energy -595157.429043 kJ/mol
# GULP energy per Si atom -12399.113105 kJ/mol
# Density = 2.073356 g / cm^3
# Si number density = 20.780854 Si / 1000 Ang^3
#
#
#
# Elastic Constant Matrix: (Units=GPa)
#
#
# Indices 1 2 3 4 5 6 
#
# 1 101.8260 34.7000 38.3487 0.0000 0.0000 0.0000
# 2 34.7000 79.9929 37.0053 0.0000 0.0000 0.0000
# 3 38.3487 37.0053 89.5479 0.0000 0.0000 0.0000
# 4 0.0000 0.0000 0.0000 40.0073 0.0000 0.0000
# 5 0.0000 0.0000 0.0000 0.0000 25.4167 0.0000
# 6 0.0000 0.0000 0.0000 0.0000 0.0000 18.6026
#
#
#
# Elastic Compliance Matrix: (Units=1/GPa)
#
#
# Indices 1 2 3 4 5 6 
#
# 1 0.012514 -0.003646 -0.003852 0.000000 0.000000 0.000000
# 2 -0.003646 0.016518 -0.005265 0.000000 0.000000 0.000000
# 3 -0.003852 -0.005265 0.014993 0.000000 0.000000 0.000000
# 4 0.000000 0.000000 0.000000 0.024995 0.000000 0.000000
# 5 0.000000 0.000000 0.000000 0.000000 0.039344 0.000000
# 6 0.000000 0.000000 0.000000 0.000000 0.000000 0.053756
#
#
# Mechanical properties :
#
#
# Convention : Reuss Voigt Hill
#
# Bulk Modulus (GPa) = 54.05864 54.60833 54.33348
# Shear Modulus (GPa) = 25.79806 27.55950 26.67878
#
# Velocity S-wave (km/s) = 3.52722 3.64565 3.58692
# Velocity P-wave (km/s) = 6.53135 6.63749 6.58463
#
# Compressibility (1/GPa) = 0.01849843
#
# Stress axis : x y z
#
# Youngs Moduli (GPa) = 79.90993 60.53899 66.69998
#
# Poissons Ratio (x) = 0.22075 0.25695
# Poissons Ratio (y) = 0.29138 0.35115
# Poissons Ratio (z) = 0.30784 0.31871
#
# Static dielectric constant tensor:
#      x y z
#    x 3.396000 0.000000 0.000000 
#    y 0.000000 3.895950 0.000000 
#    z 0.000000 0.000000 3.826440 
# 
# 
# High freq. dielectric constant tensor:
#      x y z
#    x 1.775740 0.000000 0.000000 
#    y 0.000000 1.832010 0.000000 
#    z 0.000000 0.000000 1.818810 
# 
# From -- ./inp_files/9463.got.cif
#   From: 2010.03.12/outbox.cif.g09.slc.cpg/sg64_5_cif.got.tgz:9463.got - 2010.04.10 20:19:32.
