data_PCOD8264572
_publ_section_title
;
Structure prediction by ZEFSAII (Michael W. Deem and Ramdas Pophale) SiO2 
 PCOD8264572
Probable space group: C M C A
;
_chemical_formula_sum "Si O2"
_cell_formula_units_Z 56
_cell_length_a 26.956826
_cell_length_b 8.581045
_cell_length_c 10.267387
_cell_angle_alpha 90.000000
_cell_angle_beta 90.000000
_cell_angle_gamma 90.000000
_cell_volume 2375.028725
_symmetry_space_group_name_H-M "C M C A"
_symmetry_group_IT_number 64
_symmetry_cell_setting 'orthorhombic'
loop_
_space_group_symop_operation_xyz
x,y,z
-x,1/2-y,1/2+z
x,-y,-z
-x,1/2+y,1/2-z
-x,-y,-z
x,1/2+y,1/2-z
-x,y,z
x,1/2-y,1/2+z
1/2+x,1/2+y,z
1/2-x,-y,1/2+z
1/2+x,1/2-y,-z
1/2-x,y,1/2-z
1/2-x,1/2-y,-z
1/2+x,y,1/2-z
1/2-x,1/2+y,z
1/2+x,-y,1/2+z
loop_
_atom_site_type_symbol
_atom_site_label
_atom_site_fract_x
_atom_site_fract_y
_atom_site_fract_z
Si Si1 0.442106 0.907812 0.372122
Si Si2 0.228909 0.500000 0.500000
Si Si3 0.393939 0.585776 0.362565
Si Si4 0.208198 0.278712 0.843229
O O1 0.500000 0.937314 0.352198
O O2 0.432600 0.724111 0.390931
O O3 0.423086 0.000000 0.500000
O O4 0.415105 0.964702 0.241229
O O5 0.195092 0.641712 0.553522
O O6 0.265337 0.567407 0.393150
O O7 0.381898 0.500000 0.500000
O O8 0.344764 0.659920 0.293113
O O9 0.250000 0.202182 0.750000
#
# Coordination Sequence:
#
# PCOD8264572 Si02
#       4
#    16   8  16  16
#     4  11  27  49  76 110 150 192 247 318 386 453
#     4  10  24  42  66  96 150 188 242 292 364 424
#     4  12  27  47  78 111 145 201 253 310 379 452
#     4  11  25  43  68 103 147 194 239 304 361 439
#
# _framework density 23.578662000000001
#
# number of rings (size 3 to 8) (size 9 to 14) (size 15 to 20)
#    0.000    0.857    1.429    3.429   10.000    6.857 
#    0.000    0.000    0.000    0.000    0.000    0.000 
#    0.000    0.000    0.000    0.000    0.000    0.000 
#
# Total GULP energy -346983.008462 kJ/mol
# GULP energy per Si atom -12392.250302 kJ/mol
# Density = 2.352500 g / cm^3
# Si number density = 23.578662 Si / 1000 Ang^3
#
#
#
# Elastic Constant Matrix: (Units=GPa)
#
#
# Indices 1 2 3 4 5 6 
#
# 1 104.0847 24.4289 41.3257 0.0000 0.0000 0.0000
# 2 24.4289 124.5131 34.6779 0.0000 0.0000 0.0000
# 3 41.3257 34.6779 112.1017 0.0000 0.0000 0.0000
# 4 0.0000 0.0000 0.0000 43.6589 0.0000 0.0000
# 5 0.0000 0.0000 0.0000 0.0000 35.2822 0.0000
# 6 0.0000 0.0000 0.0000 0.0000 0.0000 32.5672
#
#
#
# Elastic Compliance Matrix: (Units=1/GPa)
#
#
# Indices 1 2 3 4 5 6 
#
# 1 0.011408 -0.001168 -0.003844 0.000000 0.000000 0.000000
# 2 -0.001168 0.008908 -0.002325 0.000000 0.000000 0.000000
# 3 -0.003844 -0.002325 0.011057 0.000000 0.000000 0.000000
# 4 0.000000 0.000000 0.000000 0.022905 0.000000 0.000000
# 5 0.000000 0.000000 0.000000 0.000000 0.028343 0.000000
# 6 0.000000 0.000000 0.000000 0.000000 0.000000 0.030706
#
#
# Mechanical properties :
#
#
# Convention : Reuss Voigt Hill
#
# Bulk Modulus (GPa) = 59.88478 60.17384 60.02931
# Shear Modulus (GPa) = 37.43452 38.31946 37.87699
#
# Velocity S-wave (km/s) = 3.98885 4.03572 4.01235
# Velocity P-wave (km/s) = 6.83136 6.87691 6.85418
#
# Compressibility (1/GPa) = 0.01669873
#
# Stress axis : x y z
#
# Youngs Moduli (GPa) = 87.65841 112.25945 90.44091
#
# Poissons Ratio (x) = 0.13106 0.34768
# Poissons Ratio (y) = 0.10234 0.21029
# Poissons Ratio (z) = 0.33699 0.26103
#
# Static dielectric constant tensor:
#      x y z
#    x 4.274450 0.000000 0.000000 
#    y 0.000000 4.324340 0.000000 
#    z 0.000000 0.000000 3.620540 
# 
# 
# High freq. dielectric constant tensor:
#      x y z
#    x 1.931160 0.000000 0.000000 
#    y 0.000000 1.959640 0.000000 
#    z 0.000000 0.000000 1.928030 
# 
# From -- ./inp_files/18853.got.cif
#   From: 2010.03.12/outbox.cif.g09.slc.cpg/sg64_10_cif.got.tgz:18853.got - 2010.04.10 20:19:32.
