data_PCOD8264048
_publ_section_title
;
Structure prediction by ZEFSAII (Michael W. Deem and Ramdas Pophale) SiO2 
 PCOD8264048
Probable space group: C M C A
;
_chemical_formula_sum "Si O2"
_cell_formula_units_Z 72
_cell_length_a 10.642845
_cell_length_b 23.527483
_cell_length_c 13.067416
_cell_angle_alpha 90.000000
_cell_angle_beta 90.000000
_cell_angle_gamma 90.000000
_cell_volume 3272.072535
_symmetry_space_group_name_H-M "C M C A"
_symmetry_group_IT_number 64
_symmetry_cell_setting 'orthorhombic'
loop_
_space_group_symop_operation_xyz
x,y,z
-x,1/2-y,1/2+z
x,-y,-z
-x,1/2+y,1/2-z
-x,-y,-z
x,1/2+y,1/2-z
-x,y,z
x,1/2-y,1/2+z
1/2+x,1/2+y,z
1/2-x,-y,1/2+z
1/2+x,1/2-y,-z
1/2-x,y,1/2-z
1/2-x,1/2-y,-z
1/2+x,y,1/2-z
1/2-x,1/2+y,z
1/2+x,-y,1/2+z
loop_
_atom_site_type_symbol
_atom_site_label
_atom_site_fract_x
_atom_site_fract_y
_atom_site_fract_z
Si Si1 0.864297 0.685926 0.551285
Si Si2 0.697792 0.698450 0.359303
Si Si3 0.645671 0.920482 0.332490
Si Si4 0.861467 0.926510 0.668849
Si Si5 0.740175 0.000000 0.500000
O O1 0.807985 0.687677 0.439240
O O2 0.880954 0.748310 0.599806
O O3 0.801105 0.641091 0.629435
O O4 0.000000 0.659167 0.532164
O O5 0.750000 0.716943 0.250000
O O6 0.619385 0.640684 0.350952
O O7 0.500000 0.918329 0.290427
O O8 0.750000 0.941243 0.250000
O O9 0.649641 0.964548 0.425830
O O10 0.750000 0.937997 0.750000
O O11 0.829769 0.957541 0.563173
O O12 0.000000 0.947902 0.708135
#
# Coordination Sequence:
#
# PCOD8264048 Si02
#       5
#    16  16  16  16   8
#     4  10  21  40  65  95 131 170 213 264 327 392
#     4  10  21  40  65  96 130 167 215 265 327 386
#     4  11  25  45  68  98 132 173 218 270 327 389
#     4  11  25  43  67  97 132 170 218 269 325 384
#     4  12  24  44  66  96 128 176 222 278 312 382
#
# _framework density 22.004401999999999
#
# number of rings (size 3 to 8) (size 9 to 14) (size 15 to 20)
#    0.000    1.333    2.222    2.667    0.000    9.778 
#    0.000    3.333    0.000    0.000    0.000    0.000 
#    0.000    0.000    0.000    0.000    0.000    0.000 
#
# Total GULP energy -446104.111243 kJ/mol
# GULP energy per Si atom -12391.780868 kJ/mol
# Density = 2.195432 g / cm^3
# Si number density = 22.004402 Si / 1000 Ang^3
#
#
#
# Elastic Constant Matrix: (Units=GPa)
#
#
# Indices 1 2 3 4 5 6 
#
# 1 137.5009 17.0612 62.2225 0.0000 0.0000 0.0000
# 2 17.0612 85.1368 33.0670 0.0000 0.0000 0.0000
# 3 62.2225 33.0670 128.7376 0.0000 0.0000 0.0000
# 4 0.0000 0.0000 0.0000 37.8770 0.0000 0.0000
# 5 0.0000 0.0000 0.0000 0.0000 45.1360 0.0000
# 6 0.0000 0.0000 0.0000 0.0000 0.0000 -35.8607
#
#
#
# Elastic Compliance Matrix: (Units=1/GPa)
#
#
# Indices 1 2 3 4 5 6 
#
# 1 0.009310 -0.000131 -0.004466 0.000000 0.000000 0.000000
# 2 -0.000131 0.013049 -0.003288 0.000000 0.000000 0.000000
# 3 -0.004466 -0.003288 0.010771 0.000000 0.000000 0.000000
# 4 0.000000 0.000000 0.000000 0.026401 0.000000 0.000000
# 5 0.000000 0.000000 0.000000 0.000000 0.022155 0.000000
# 6 0.000000 0.000000 0.000000 0.000000 0.000000 -0.027886
#
#
# Mechanical properties :
#
#
# Convention : Reuss Voigt Hill
#
# Bulk Modulus (GPa) = 57.60693 64.00854 60.80773
# Shear Modulus (GPa) = 66.34941 25.36543 45.85742
#
# Velocity S-wave (km/s) = 5.49711 3.39889 4.57005
# Velocity P-wave (km/s) = 8.15644 6.67498 7.45262
#
# Compressibility (1/GPa) = 0.01735902
#
# Stress axis : x y z
#
# Youngs Moduli (GPa) = 107.41188 76.63254 92.84204
#
# Poissons Ratio (x) = 0.01004 0.41464
# Poissons Ratio (y) = 0.01408 0.30531
# Poissons Ratio (z) = 0.47971 0.25200
#
# Static dielectric constant tensor:
#      x y z
#    x 3.695230 0.000000 0.000000 
#    y 0.000000 4.249520 0.000000 
#    z 0.000000 0.000000 4.028360 
# 
# 
# High freq. dielectric constant tensor:
#      x y z
#    x 1.856270 0.000000 0.000000 
#    y 0.000000 1.890690 0.000000 
#    z 0.000000 0.000000 1.860940 
# 
# From -- ./inp_files/13096.got.cif
#   From: 2010.03.12/outbox.cif.g09.slc.cpg/sg64_7_cif.got.tgz:13096.got - 2010.04.10 20:19:32.
