data_PCOD8264739
_publ_section_title
;
Structure prediction by ZEFSAII (Michael W. Deem and Ramdas Pophale) SiO2 
 PCOD8264739
Probable space group: C M C A
;
_chemical_formula_sum "Si O2"
_cell_formula_units_Z 112
_cell_length_a 30.162002
_cell_length_b 15.716323
_cell_length_c 11.026801
_cell_angle_alpha 90.000000
_cell_angle_beta 90.000000
_cell_angle_gamma 90.000000
_cell_volume 5227.098056
_symmetry_space_group_name_H-M "C M C A"
_symmetry_group_IT_number 64
_symmetry_cell_setting 'orthorhombic'
loop_
_space_group_symop_operation_xyz
x,y,z
-x,1/2-y,1/2+z
x,-y,-z
-x,1/2+y,1/2-z
-x,-y,-z
x,1/2+y,1/2-z
-x,y,z
x,1/2-y,1/2+z
1/2+x,1/2+y,z
1/2-x,-y,1/2+z
1/2+x,1/2-y,-z
1/2-x,y,1/2-z
1/2-x,1/2-y,-z
1/2+x,y,1/2-z
1/2-x,1/2+y,z
1/2+x,-y,1/2+z
loop_
_atom_site_type_symbol
_atom_site_label
_atom_site_fract_x
_atom_site_fract_y
_atom_site_fract_z
Si Si1 0.549011 0.882516 0.453721
Si Si2 0.830471 0.250305 0.535552
Si Si3 0.450326 0.306148 0.635102
Si Si4 0.604588 0.129412 0.338524
Si Si5 0.798208 0.677951 0.714377
Si Si6 0.891793 0.405361 0.026081
Si Si7 0.878091 0.446779 0.282790
O O1 0.500000 0.916878 0.420317
O O2 0.552192 0.782171 0.433175
O O3 0.559147 0.899946 0.595045
O O4 0.587818 0.933186 0.389556
O O5 0.864994 0.326761 0.558814
O O6 0.799409 0.274288 0.418440
O O7 0.808326 0.239030 0.669260
O O8 0.854092 0.163441 0.493527
O O9 0.500000 0.323901 0.684005
O O10 0.412278 0.303437 0.738242
O O11 0.437282 0.382642 0.543134
O O12 0.628965 0.049243 0.274076
O O13 0.750000 0.641840 0.750000
O O14 0.830390 0.597102 0.701629
O O15 0.902422 0.404426 0.168322
O O16 0.873536 0.500000 0.000000
#
# Coordination Sequence:
#
# PCOD8264739 Si02
#       7
#    16  16  16  16  16  16  16
#     4  11  24  40  62  93 130 172 225 273 321 391
#     4  11  23  42  75  96 130 178 221 276 340 419
#     4  11  23  39  60  91 130 177 230 285 332 398
#     4  12  22  41  65  92 131 177 227 260 343 400
#     4  11  24  45  71 103 134 167 223 281 344 411
#     4  11  21  41  64  90 127 168 225 271 337 390
#     4  11  24  40  66  94 130 176 209 280 335 403
#
# _framework density 21.426803
#
# number of rings (size 3 to 8) (size 9 to 14) (size 15 to 20)
#    0.000    0.857    4.286    3.857    0.000    2.571 
#    0.000    0.714   12.571    0.000    0.000    0.000 
#    0.000    0.000    0.000    0.000    0.000    0.000 
#
# Total GULP energy -693801.343151 kJ/mol
# GULP energy per Si atom -12389.309699 kJ/mol
# Density = 2.137803 g / cm^3
# Si number density = 21.426803 Si / 1000 Ang^3
#
#
#
# Elastic Constant Matrix: (Units=GPa)
#
#
# Indices 1 2 3 4 5 6 
#
# 1 108.4331 43.2835 34.5910 0.0000 0.0000 0.0000
# 2 43.2835 102.8164 20.2224 0.0000 0.0000 0.0000
# 3 34.5910 20.2224 106.6848 0.0000 0.0000 0.0000
# 4 0.0000 0.0000 0.0000 34.3906 0.0000 0.0000
# 5 0.0000 0.0000 0.0000 0.0000 35.4117 0.0000
# 6 0.0000 0.0000 0.0000 0.0000 0.0000 8.2727
#
#
#
# Elastic Compliance Matrix: (Units=1/GPa)
#
#
# Indices 1 2 3 4 5 6 
#
# 1 0.011963 -0.004439 -0.003037 0.000000 0.000000 0.000000
# 2 -0.004439 0.011750 -0.000788 0.000000 0.000000 0.000000
# 3 -0.003037 -0.000788 0.010508 0.000000 0.000000 0.000000
# 4 0.000000 0.000000 0.000000 0.029078 0.000000 0.000000
# 5 0.000000 0.000000 0.000000 0.000000 0.028239 0.000000
# 6 0.000000 0.000000 0.000000 0.000000 0.000000 0.120879
#
#
# Mechanical properties :
#
#
# Convention : Reuss Voigt Hill
#
# Bulk Modulus (GPa) = 56.52289 57.12534 56.82411
# Shear Modulus (GPa) = 21.29090 30.27084 25.78087
#
# Velocity S-wave (km/s) = 3.15565 3.76274 3.47249
# Velocity P-wave (km/s) = 6.30193 6.75250 6.53110
#
# Compressibility (1/GPa) = 0.01769195
#
# Stress axis : x y z
#
# Youngs Moduli (GPa) = 83.59044 85.10861 95.16892
#
# Poissons Ratio (x) = 0.37778 0.28907
# Poissons Ratio (y) = 0.37104 0.07499
# Poissons Ratio (z) = 0.25390 0.06706
#
# Static dielectric constant tensor:
#      x y z
#    x 3.769960 0.000000 0.000000 
#    y 0.000000 3.862090 0.000000 
#    z 0.000000 0.000000 4.174710 
# 
# 
# High freq. dielectric constant tensor:
#      x y z
#    x 1.813900 0.000000 0.000000 
#    y 0.000000 1.841500 0.000000 
#    z 0.000000 0.000000 1.862340 
# 
# From -- ./inp_files/19854.got.cif
#   From: 2010.03.12/outbox.cif.g09.slc.cpg/sg64_10_cif.got.tgz:19854.got - 2010.04.10 20:19:32.
