data_PCOD8264085
_publ_section_title
;
Structure prediction by ZEFSAII (Michael W. Deem and Ramdas Pophale) SiO2 
 PCOD8264085
Probable space group: C M C A
;
_chemical_formula_sum "Si O2"
_cell_formula_units_Z 96
_cell_length_a 17.774622
_cell_length_b 9.847153
_cell_length_c 27.967155
_cell_angle_alpha 90.000000
_cell_angle_beta 90.000000
_cell_angle_gamma 90.000000
_cell_volume 4895.074984
_symmetry_space_group_name_H-M "C M C A"
_symmetry_group_IT_number 64
_symmetry_cell_setting 'orthorhombic'
loop_
_space_group_symop_operation_xyz
x,y,z
-x,1/2-y,1/2+z
x,-y,-z
-x,1/2+y,1/2-z
-x,-y,-z
x,1/2+y,1/2-z
-x,y,z
x,1/2-y,1/2+z
1/2+x,1/2+y,z
1/2-x,-y,1/2+z
1/2+x,1/2-y,-z
1/2-x,y,1/2-z
1/2-x,1/2-y,-z
1/2+x,y,1/2-z
1/2-x,1/2+y,z
1/2+x,-y,1/2+z
loop_
_atom_site_type_symbol
_atom_site_label
_atom_site_fract_x
_atom_site_fract_y
_atom_site_fract_z
Si Si1 0.169210 0.790891 0.887143
Si Si2 0.413544 0.645025 0.016863
Si Si3 0.912208 0.200822 0.208970
Si Si4 0.806356 0.486500 0.873901
Si Si5 0.586322 0.095742 0.042397
Si Si6 0.665022 0.474013 0.267792
O O1 0.133153 0.798982 0.939041
O O2 0.104429 0.806243 0.847518
O O3 0.209968 0.645505 0.882583
O O4 0.228411 0.910245 0.880492
O O5 0.500000 0.631932 0.032873
O O6 0.381482 0.500000 0.000000
O O7 0.404523 0.747788 0.972646
O O8 0.865822 0.321353 0.233705
O O9 0.887507 0.061160 0.233296
O O10 0.000000 0.225690 0.216652
O O11 0.868193 0.427898 0.909580
O O12 0.838525 0.462823 0.820843
O O13 0.500000 0.057421 0.053153
O O14 0.617384 0.000000 0.000000
O O15 0.750000 0.472550 0.250000
#
# Coordination Sequence:
#
# PCOD8264085 Si02
#       6
#    16  16  16  16  16  16
#     4  11  24  41  62  92 128 166 211 261 320 384
#     4  10  22  41  63  89 125 166 206 260 321 376
#     4  11  24  42  68  97 128 168 217 270 320 384
#     4  11  25  39  66  92 122 170 213 257 324 388
#     4  10  21  41  64  89 125 165 211 264 315 377
#     4  11  23  44  67  93 133 171 212 265 329 387
#
# _framework density 19.611547999999999
#
# number of rings (size 3 to 8) (size 9 to 14) (size 15 to 20)
#    0.000    1.333    3.333    1.500    4.667    4.667 
#    0.000    0.000    0.000    0.000    0.000    0.000 
#    0.000    0.000    0.000    0.000    0.000    0.000 
#
# Total GULP energy -595478.933121 kJ/mol
# GULP energy per Si atom -12405.811107 kJ/mol
# Density = 1.956691 g / cm^3
# Si number density = 19.611548 Si / 1000 Ang^3
#
#
#
# Elastic Constant Matrix: (Units=GPa)
#
#
# Indices 1 2 3 4 5 6 
#
# 1 81.1195 35.5481 37.6472 0.0000 0.0000 0.0000
# 2 35.5481 100.6456 43.2095 0.0000 0.0000 0.0000
# 3 37.6472 43.2095 92.7542 0.0000 0.0000 0.0000
# 4 0.0000 0.0000 0.0000 28.2320 0.0000 0.0000
# 5 0.0000 0.0000 0.0000 0.0000 25.9571 0.0000
# 6 0.0000 0.0000 0.0000 0.0000 0.0000 28.8138
#
#
#
# Elastic Compliance Matrix: (Units=1/GPa)
#
#
# Indices 1 2 3 4 5 6 
#
# 1 0.016178 -0.003619 -0.004881 0.000000 0.000000 0.000000
# 2 -0.003619 0.013229 -0.004694 0.000000 0.000000 0.000000
# 3 -0.004881 -0.004694 0.014949 0.000000 0.000000 0.000000
# 4 0.000000 0.000000 0.000000 0.035421 0.000000 0.000000
# 5 0.000000 0.000000 0.000000 0.000000 0.038525 0.000000
# 6 0.000000 0.000000 0.000000 0.000000 0.000000 0.034706
#
#
# Mechanical properties :
#
#
# Convention : Reuss Voigt Hill
#
# Bulk Modulus (GPa) = 55.64996 56.36990 56.00993
# Shear Modulus (GPa) = 26.97088 27.14154 27.05621
#
# Velocity S-wave (km/s) = 3.71247 3.72419 3.71833
# Velocity P-wave (km/s) = 6.84209 6.87739 6.85976
#
# Compressibility (1/GPa) = 0.01796946
#
# Stress axis : x y z
#
# Youngs Moduli (GPa) = 61.81060 75.58985 66.89462
#
# Poissons Ratio (x) = 0.27355 0.32649
# Poissons Ratio (y) = 0.22368 0.31401
# Poissons Ratio (z) = 0.30168 0.35482
#
# Static dielectric constant tensor:
#      x y z
#    x 3.461050 0.000000 0.000000 
#    y 0.000000 3.773230 0.000000 
#    z 0.000000 0.000000 3.700560 
# 
# 
# High freq. dielectric constant tensor:
#      x y z
#    x 1.759600 0.000000 0.000000 
#    y 0.000000 1.778700 0.000000 
#    z 0.000000 0.000000 1.771670 
# 
# From -- ./inp_files/50682.got.cif
#   From: 2010.03.12/outbox.cif.g09.slc.cpg/sg64_26_cif.got.tgz:50682.got - 2010.04.10 20:19:32.
