data_PCOD8264655
_publ_section_title
;
Structure prediction by ZEFSAII (Michael W. Deem and Ramdas Pophale) SiO2 
 PCOD8264655
Probable space group: C M C A
;
_chemical_formula_sum "Si O2"
_cell_formula_units_Z 80
_cell_length_a 16.588072
_cell_length_b 12.555195
_cell_length_c 21.198235
_cell_angle_alpha 90.000000
_cell_angle_beta 90.000000
_cell_angle_gamma 90.000000
_cell_volume 4414.881757
_symmetry_space_group_name_H-M "C M C A"
_symmetry_group_IT_number 64
_symmetry_cell_setting 'orthorhombic'
loop_
_space_group_symop_operation_xyz
x,y,z
-x,1/2-y,1/2+z
x,-y,-z
-x,1/2+y,1/2-z
-x,-y,-z
x,1/2+y,1/2-z
-x,y,z
x,1/2-y,1/2+z
1/2+x,1/2+y,z
1/2-x,-y,1/2+z
1/2+x,1/2-y,-z
1/2-x,y,1/2-z
1/2-x,1/2-y,-z
1/2+x,y,1/2-z
1/2-x,1/2+y,z
1/2+x,-y,1/2+z
loop_
_atom_site_type_symbol
_atom_site_label
_atom_site_fract_x
_atom_site_fract_y
_atom_site_fract_z
Si Si1 0.163105 0.126134 0.218362
Si Si2 0.907500 0.189861 0.343558
Si Si3 0.907648 0.912419 0.197351
Si Si4 0.596340 0.494924 0.571116
Si Si5 0.592135 0.175834 0.835682
O O1 0.250000 0.133871 0.250000
O O2 0.097856 0.137784 0.274184
O O3 0.149601 0.220306 0.167504
O O4 0.148361 0.014289 0.182502
O O5 0.871431 0.310407 0.341274
O O6 0.866885 0.111750 0.395449
O O7 0.000000 0.202405 0.360731
O O8 0.902159 0.890382 0.271543
O O9 0.000000 0.935296 0.177577
O O10 0.629387 0.500000 0.500000
O O11 0.500000 0.489065 0.573466
O O12 0.624757 0.600415 0.608199
O O13 0.500000 0.211898 0.848288
#
# Coordination Sequence:
#
# PCOD8264655 Si02
#       5
#    16  16  16  16  16
#     4  11  20  28  44  71 102 129 155 194 240 294
#     4   9  17  31  48  70  97 123 157 199 247 289
#     4   9  16  28  47  67  93 125 153 191 241 290
#     4   9  16  29  52  76  94 119 163 210 241 278
#     4   9  17  30  48  70  97 125 157 198 245 290
#
# _framework density 18.120531
#
# number of rings (size 3 to 8) (size 9 to 14) (size 15 to 20)
#    0.000    2.600    2.000    3.000    0.000    3.200 
#    0.000    0.000    0.000    2.400    0.000    7.000 
#    0.000    0.000    0.000    0.000    0.000    0.800 
#
# Total GULP energy -495694.873381 kJ/mol
# GULP energy per Si atom -12392.371835 kJ/mol
# Density = 1.807929 g / cm^3
# Si number density = 18.120531 Si / 1000 Ang^3
#
#
#
# Elastic Constant Matrix: (Units=GPa)
#
#
# Indices 1 2 3 4 5 6 
#
# 1 36.7754 47.0724 12.0210 0.0000 0.0000 0.0000
# 2 47.0724 194.6822 69.7747 0.0000 0.0000 0.0000
# 3 12.0210 69.7747 93.9047 0.0000 0.0000 0.0000
# 4 0.0000 0.0000 0.0000 27.3281 0.0000 0.0000
# 5 0.0000 0.0000 0.0000 0.0000 9.0335 0.0000
# 6 0.0000 0.0000 0.0000 0.0000 0.0000 9.9987
#
#
#
# Elastic Compliance Matrix: (Units=1/GPa)
#
#
# Indices 1 2 3 4 5 6 
#
# 1 0.039916 -0.010658 0.002810 0.000000 0.000000 0.000000
# 2 -0.010658 0.009847 -0.005952 0.000000 0.000000 0.000000
# 3 0.002810 -0.005952 0.014712 0.000000 0.000000 0.000000
# 4 0.000000 0.000000 0.000000 0.036592 0.000000 0.000000
# 5 0.000000 0.000000 0.000000 0.000000 0.110699 0.000000
# 6 0.000000 0.000000 0.000000 0.000000 0.000000 0.100013
#
#
# Mechanical properties :
#
#
# Convention : Reuss Voigt Hill
#
# Bulk Modulus (GPa) = 27.11954 64.78873 45.95414
# Shear Modulus (GPa) = 14.21775 22.37168 18.29472
#
# Velocity S-wave (km/s) = 2.80415 3.51751 3.18089
# Velocity P-wave (km/s) = 5.04807 7.23388 6.23747
#
# Compressibility (1/GPa) = 0.03687378
#
# Stress axis : x y z
#
# Youngs Moduli (GPa) = 25.05235 101.55351 67.97089
#
# Poissons Ratio (x) = 1.08241 -0.19099
# Poissons Ratio (y) = 0.26702 0.40458
# Poissons Ratio (z) = -0.07039 0.60448
#
# Static dielectric constant tensor:
#      x y z
#    x 2.959110 0.000000 0.000000 
#    y 0.000000 3.716120 0.000000 
#    z 0.000000 0.000000 3.150130 
# 
# 
# High freq. dielectric constant tensor:
#      x y z
#    x 1.663380 0.000000 0.000000 
#    y 0.000000 1.722140 0.000000 
#    z 0.000000 0.000000 1.647160 
# 
# From -- ./inp_files/40131.got.cif
#   From: 2010.03.12/outbox.cif.g09.slc.cpg/sg64_21_cif.got.tgz:40131.got - 2010.04.10 20:19:32.
