data_PCOD8264817
_publ_section_title
;
Structure prediction by ZEFSAII (Michael W. Deem and Ramdas Pophale) SiO2 
 PCOD8264817
Probable space group: C M C A
;
_chemical_formula_sum "Si O2"
_cell_formula_units_Z 96
_cell_length_a 21.253199
_cell_length_b 17.775521
_cell_length_c 11.378221
_cell_angle_alpha 90.000000
_cell_angle_beta 90.000000
_cell_angle_gamma 90.000000
_cell_volume 4298.540394
_symmetry_space_group_name_H-M "C M C A"
_symmetry_group_IT_number 64
_symmetry_cell_setting 'orthorhombic'
loop_
_space_group_symop_operation_xyz
x,y,z
-x,1/2-y,1/2+z
x,-y,-z
-x,1/2+y,1/2-z
-x,-y,-z
x,1/2+y,1/2-z
-x,y,z
x,1/2-y,1/2+z
1/2+x,1/2+y,z
1/2-x,-y,1/2+z
1/2+x,1/2-y,-z
1/2-x,y,1/2-z
1/2-x,1/2-y,-z
1/2+x,y,1/2-z
1/2-x,1/2+y,z
1/2+x,-y,1/2+z
loop_
_atom_site_type_symbol
_atom_site_label
_atom_site_fract_x
_atom_site_fract_y
_atom_site_fract_z
Si Si1 0.704568 0.924869 0.072435
Si Si2 0.000000 0.615761 0.975622
Si Si3 0.337477 0.552107 0.830773
Si Si4 0.891704 0.094589 0.194841
Si Si5 0.926505 0.840601 0.045511
Si Si6 0.376856 0.817409 0.931569
Si Si7 0.500000 0.992460 0.806586
O O1 0.666237 0.927965 0.193568
O O2 0.778340 0.916140 0.096763
O O3 0.683295 0.850421 0.000685
O O4 0.686744 0.000000 0.000000
O O5 0.000000 0.580144 0.844423
O O6 0.061528 0.665671 0.991477
O O7 0.000000 0.552873 0.073530
O O8 0.334659 0.460111 0.847243
O O9 0.401250 0.587097 0.884340
O O10 0.920596 0.146024 0.093741
O O11 0.874688 0.149161 0.300988
O O12 0.939327 0.028556 0.232275
O O13 0.000000 0.826506 0.077690
O O14 0.879458 0.772540 0.081123
#
# Coordination Sequence:
#
# PCOD8264817 Si02
#       7
#    16   8  16  16  16  16   8
#     4  11  23  48  75 104 135 182 244 296 342 416
#     4   9  18  35  59 101 130 163 231 283 339 406
#     4  11  26  45  75 105 137 183 239 297 356 419
#     4  11  22  44  67 101 140 185 233 290 356 416
#     4  12  27  45  67 105 153 188 230 294 366 427
#     4  11  24  43  70 101 141 187 231 291 352 426
#     4   9  18  31  64  93 127 173 221 280 338 407
#
# _framework density 22.333162999999999
#
# number of rings (size 3 to 8) (size 9 to 14) (size 15 to 20)
#    0.000    1.167    3.333    2.500    5.833    1.333 
#    1.500    0.000    0.000    0.000    0.000    0.000 
#    0.000    0.000    0.000    0.000    0.000    0.000 
#
# Total GULP energy -595153.209951 kJ/mol
# GULP energy per Si atom -12399.025207 kJ/mol
# Density = 2.228233 g / cm^3
# Si number density = 22.333163 Si / 1000 Ang^3
#
#
#
# Elastic Constant Matrix: (Units=GPa)
#
#
# Indices 1 2 3 4 5 6 
#
# 1 88.0107 31.1790 41.2514 0.0000 0.0000 0.0000
# 2 31.1790 119.8399 48.5174 0.0000 0.0000 0.0000
# 3 41.2514 48.5174 118.9260 0.0000 0.0000 0.0000
# 4 0.0000 0.0000 0.0000 38.0308 0.0000 0.0000
# 5 0.0000 0.0000 0.0000 0.0000 29.1921 0.0000
# 6 0.0000 0.0000 0.0000 0.0000 0.0000 37.7300
#
#
#
# Elastic Compliance Matrix: (Units=1/GPa)
#
#
# Indices 1 2 3 4 5 6 
#
# 1 0.013958 -0.002002 -0.004025 0.000000 0.000000 0.000000
# 2 -0.002002 0.010282 -0.003500 0.000000 0.000000 0.000000
# 3 -0.004025 -0.003500 0.011233 0.000000 0.000000 0.000000
# 4 0.000000 0.000000 0.000000 0.026294 0.000000 0.000000
# 5 0.000000 0.000000 0.000000 0.000000 0.034256 0.000000
# 6 0.000000 0.000000 0.000000 0.000000 0.000000 0.026504
#
#
# Mechanical properties :
#
#
# Convention : Reuss Voigt Hill
#
# Bulk Modulus (GPa) = 60.90640 63.18580 62.04610
# Shear Modulus (GPa) = 34.00091 34.71252 34.35671
#
# Velocity S-wave (km/s) = 3.90608 3.94674 3.92646
# Velocity P-wave (km/s) = 6.90465 7.00877 6.95690
#
# Compressibility (1/GPa) = 0.01641864
#
# Stress axis : x y z
#
# Youngs Moduli (GPa) = 71.64372 97.25268 89.02577
#
# Poissons Ratio (x) = 0.19470 0.35831
# Poissons Ratio (y) = 0.14343 0.31163
# Poissons Ratio (z) = 0.28835 0.34043
#
# Static dielectric constant tensor:
#      x y z
#    x 3.969520 0.000000 0.000000 
#    y 0.000000 3.886660 0.000000 
#    z 0.000000 0.000000 4.140280 
# 
# 
# High freq. dielectric constant tensor:
#      x y z
#    x 1.872320 0.000000 0.000000 
#    y 0.000000 1.870300 0.000000 
#    z 0.000000 0.000000 1.892580 
# 
# From -- ./inp_files/18399.got.cif
#   From: 2010.03.12/outbox.cif.g09.slc.cpg/sg64_10_cif.got.tgz:18399.got - 2010.04.10 20:19:32.
