data_PCOD8264054
_publ_section_title
;
Structure prediction by ZEFSAII (Michael W. Deem and Ramdas Pophale) SiO2 
 PCOD8264054
Probable space group: C M C A
;
_chemical_formula_sum "Si O2"
_cell_formula_units_Z 96
_cell_length_a 14.373846
_cell_length_b 14.609421
_cell_length_c 21.394376
_cell_angle_alpha 90.000000
_cell_angle_beta 90.000000
_cell_angle_gamma 90.000000
_cell_volume 4492.681343
_symmetry_space_group_name_H-M "C M C A"
_symmetry_group_IT_number 64
_symmetry_cell_setting 'orthorhombic'
loop_
_space_group_symop_operation_xyz
x,y,z
-x,1/2-y,1/2+z
x,-y,-z
-x,1/2+y,1/2-z
-x,-y,-z
x,1/2+y,1/2-z
-x,y,z
x,1/2-y,1/2+z
1/2+x,1/2+y,z
1/2-x,-y,1/2+z
1/2+x,1/2-y,-z
1/2-x,y,1/2-z
1/2-x,1/2-y,-z
1/2+x,y,1/2-z
1/2-x,1/2+y,z
1/2+x,-y,1/2+z
loop_
_atom_site_type_symbol
_atom_site_label
_atom_site_fract_x
_atom_site_fract_y
_atom_site_fract_z
Si Si1 0.395356 0.900899 0.496088
Si Si2 0.749047 0.997542 0.675346
Si Si3 0.606631 0.044149 0.065033
Si Si4 0.394555 0.255303 0.590497
Si Si5 0.104517 0.649441 0.365504
Si Si6 0.245519 0.711207 0.821117
O O1 0.500000 0.920552 0.472463
O O2 0.349488 0.830264 0.447418
O O3 0.396007 0.847043 0.560318
O O4 0.342768 0.000000 0.500000
O O5 0.750000 0.976029 0.750000
O O6 0.739198 0.105215 0.664761
O O7 0.836223 0.973029 0.629738
O O8 0.658529 0.942507 0.653702
O O9 0.500000 0.011850 0.077358
O O10 0.610521 0.152270 0.050133
O O11 0.645427 0.000000 0.000000
O O12 0.500000 0.235051 0.611317
O O13 0.331185 0.268660 0.651060
O O14 0.148985 0.746199 0.345507
O O15 0.000000 0.643718 0.338178
O O16 0.250000 0.735704 0.750000
#
# Coordination Sequence:
#
# PCOD8264054 Si02
#       6
#    16  16  16  16  16  16
#     4   9  19  36  59  92 127 159 205 261 321 392
#     4  11  25  45  67  96 137 180 228 280 340 410
#     4  10  23  42  68 100 134 175 226 282 341 406
#     4  10  21  40  67  94 126 167 212 268 333 394
#     4  11  24  42  66  95 131 174 219 273 333 400
#     4  11  25  43  63  94 130 169 222 276 330 400
#
# _framework density 21.368086999999999
#
# number of rings (size 3 to 8) (size 9 to 14) (size 15 to 20)
#    0.000    1.667    1.667    1.500    2.333    6.667 
#    0.000    3.333    0.000    0.000    0.000    0.000 
#    0.000    0.000    0.000    0.000    0.000    0.000 
#
# Total GULP energy -594631.523898 kJ/mol
# GULP energy per Si atom -12388.156748 kJ/mol
# Density = 2.131945 g / cm^3
# Si number density = 21.368087 Si / 1000 Ang^3
#
#
#
# Elastic Constant Matrix: (Units=GPa)
#
#
# Indices 1 2 3 4 5 6 
#
# 1 125.9135 44.6184 59.2906 0.0000 0.0000 0.0000
# 2 44.6184 111.4120 44.8439 0.0000 0.0000 0.0000
# 3 59.2906 44.8439 129.4618 0.0000 0.0000 0.0000
# 4 0.0000 0.0000 0.0000 116.3892 0.0000 0.0000
# 5 0.0000 0.0000 0.0000 0.0000 13.6811 0.0000
# 6 0.0000 0.0000 0.0000 0.0000 0.0000 27.2534
#
#
#
# Elastic Compliance Matrix: (Units=1/GPa)
#
#
# Indices 1 2 3 4 5 6 
#
# 1 0.010786 -0.002709 -0.004001 0.000000 0.000000 0.000000
# 2 -0.002709 0.011110 -0.002608 0.000000 0.000000 0.000000
# 3 -0.004001 -0.002608 0.010460 0.000000 0.000000 0.000000
# 4 0.000000 0.000000 0.000000 0.008592 0.000000 0.000000
# 5 0.000000 0.000000 0.000000 0.000000 0.073093 0.000000
# 6 0.000000 0.000000 0.000000 0.000000 0.000000 0.036693
#
#
# Mechanical properties :
#
#
# Convention : Reuss Voigt Hill
#
# Bulk Modulus (GPa) = 72.88601 73.81035 73.34818
# Shear Modulus (GPa) = 28.74484 46.00039 37.37261
#
# Velocity S-wave (km/s) = 3.67171 4.64482 4.18663
# Velocity P-wave (km/s) = 7.22212 7.96135 7.60073
#
# Compressibility (1/GPa) = 0.01372005
#
# Stress axis : x y z
#
# Youngs Moduli (GPa) = 92.71160 90.00693 95.60095
#
# Poissons Ratio (x) = 0.24383 0.38254
# Poissons Ratio (y) = 0.25116 0.24930
# Poissons Ratio (z) = 0.37098 0.23472
#
# Static dielectric constant tensor:
#      x y z
#    x 3.953970 0.000000 0.000000 
#    y 0.000000 4.164100 0.000000 
#    z 0.000000 0.000000 3.994910 
# 
# 
# High freq. dielectric constant tensor:
#      x y z
#    x 1.829140 0.000000 0.000000 
#    y 0.000000 1.856950 0.000000 
#    z 0.000000 0.000000 1.839140 
# 
# From -- ./inp_files/39156.got.cif
#   From: 2010.03.12/outbox.cif.g09.slc.cpg/sg64_20_cif.got.tgz:39156.got - 2010.04.10 20:19:32.
