data_PCOD8264180
_publ_section_title
;
Structure prediction by ZEFSAII (Michael W. Deem and Ramdas Pophale) SiO2 
 PCOD8264180
Probable space group: C M C A
;
_chemical_formula_sum "Si O2"
_cell_formula_units_Z 96
_cell_length_a 16.660298
_cell_length_b 16.618707
_cell_length_c 18.560645
_cell_angle_alpha 90.000000
_cell_angle_beta 90.000000
_cell_angle_gamma 90.000000
_cell_volume 5138.934243
_symmetry_space_group_name_H-M "C M C A"
_symmetry_group_IT_number 64
_symmetry_cell_setting 'orthorhombic'
loop_
_space_group_symop_operation_xyz
x,y,z
-x,1/2-y,1/2+z
x,-y,-z
-x,1/2+y,1/2-z
-x,-y,-z
x,1/2+y,1/2-z
-x,y,z
x,1/2-y,1/2+z
1/2+x,1/2+y,z
1/2-x,-y,1/2+z
1/2+x,1/2-y,-z
1/2-x,y,1/2-z
1/2-x,1/2-y,-z
1/2+x,y,1/2-z
1/2-x,1/2+y,z
1/2+x,-y,1/2+z
loop_
_atom_site_type_symbol
_atom_site_label
_atom_site_fract_x
_atom_site_fract_y
_atom_site_fract_z
Si Si1 0.670627 0.769681 0.581254
Si Si2 0.404586 0.775989 0.310573
Si Si3 0.089772 0.356105 0.162084
Si Si4 0.686468 0.850188 0.440823
Si Si5 0.717220 0.634186 0.323521
Si Si6 0.304553 0.982856 0.079163
O O1 0.592648 0.721438 0.609158
O O2 0.644993 0.832223 0.518367
O O3 0.733099 0.702232 0.555508
O O4 0.708787 0.812999 0.649561
O O5 0.500000 0.761276 0.313257
O O6 0.379294 0.828315 0.240852
O O7 0.376352 0.827748 0.379105
O O8 0.361397 0.689245 0.310950
O O9 0.142159 0.428511 0.131460
O O10 0.000000 0.388689 0.167068
O O11 0.716102 0.942489 0.431591
O O12 0.750000 0.594102 0.250000
O O13 0.699603 0.568508 0.383261
O O14 0.342812 0.000000 0.000000
#
# Coordination Sequence:
#
# PCOD8264180 Si02
#       6
#    16  16  16  16  16  16
#     4   9  17  35  56  81 106 148 192 239 276 338
#     4  10  22  39  59  84 114 152 197 242 287 344
#     4  10  22  38  56  83 120 154 193 241 292 347
#     4   9  19  34  57  80 114 146 191 234 282 342
#     4  11  21  36  61  85 111 149 196 242 292 344
#     4  11  23  37  58  89 120 151 189 244 297 345
#
# _framework density 18.680917000000001
#
# number of rings (size 3 to 8) (size 9 to 14) (size 15 to 20)
#    0.000    2.000    3.333    0.000    4.667    1.667 
#    0.000    0.000    0.000    1.500    0.000    0.000 
#    0.000    0.000    0.000    0.000    0.000    0.000 
#
# Total GULP energy -594885.016604 kJ/mol
# GULP energy per Si atom -12393.437846 kJ/mol
# Density = 1.863840 g / cm^3
# Si number density = 18.680917 Si / 1000 Ang^3
#
#
#
# Elastic Constant Matrix: (Units=GPa)
#
#
# Indices 1 2 3 4 5 6 
#
# 1 44.4330 26.1028 32.8858 0.0000 0.0000 0.0000
# 2 26.1028 71.9526 16.6976 0.0000 0.0000 0.0000
# 3 32.8858 16.6976 99.3294 0.0000 0.0000 0.0000
# 4 0.0000 0.0000 0.0000 41.7735 0.0000 0.0000
# 5 0.0000 0.0000 0.0000 0.0000 20.1373 0.0000
# 6 0.0000 0.0000 0.0000 0.0000 0.0000 13.9479
#
#
#
# Elastic Compliance Matrix: (Units=1/GPa)
#
#
# Indices 1 2 3 4 5 6 
#
# 1 0.036466 -0.010851 -0.010249 0.000000 0.000000 0.000000
# 2 -0.010851 0.017691 0.000618 0.000000 0.000000 0.000000
# 3 -0.010249 0.000618 0.013357 0.000000 0.000000 0.000000
# 4 0.000000 0.000000 0.000000 0.023939 0.000000 0.000000
# 5 0.000000 0.000000 0.000000 0.000000 0.049659 0.000000
# 6 0.000000 0.000000 0.000000 0.000000 0.000000 0.071695
#
#
# Mechanical properties :
#
#
# Convention : Reuss Voigt Hill
#
# Bulk Modulus (GPa) = 37.66307 40.78749 39.22528
# Shear Modulus (GPa) = 19.03901 24.50699 21.77300
#
# Velocity S-wave (km/s) = 3.19591 3.62591 3.41768
# Velocity P-wave (km/s) = 5.81579 6.27780 6.05121
#
# Compressibility (1/GPa) = 0.02655121
#
# Stress axis : x y z
#
# Youngs Moduli (GPa) = 27.42309 56.52641 74.86849
#
# Poissons Ratio (x) = 0.61334 0.76733
# Poissons Ratio (y) = 0.29755 -0.04631
# Poissons Ratio (z) = 0.28106 -0.03496
#
# Static dielectric constant tensor:
#      x y z
#    x 3.191930 0.000000 0.000000 
#    y 0.000000 3.436740 0.000000 
#    z 0.000000 0.000000 3.737050 
# 
# 
# High freq. dielectric constant tensor:
#      x y z
#    x 1.691470 0.000000 0.000000 
#    y 0.000000 1.717440 0.000000 
#    z 0.000000 0.000000 1.749980 
# 
# From -- ./inp_files/33289.got.cif
#   From: 2010.03.12/outbox.cif.g09.slc.cpg/sg64_17_cif.got.tgz:33289.got - 2010.04.10 20:19:32.
