data_PCOD8264038
_publ_section_title
;
Structure prediction by ZEFSAII (Michael W. Deem and Ramdas Pophale) SiO2 
 PCOD8264038
Probable space group: C M C A
;
_chemical_formula_sum "Si O2"
_cell_formula_units_Z 80
_cell_length_a 13.727458
_cell_length_b 22.663410
_cell_length_c 12.419520
_cell_angle_alpha 90.000000
_cell_angle_beta 90.000000
_cell_angle_gamma 90.000000
_cell_volume 3863.849397
_symmetry_space_group_name_H-M "C M C A"
_symmetry_group_IT_number 64
_symmetry_cell_setting 'orthorhombic'
loop_
_space_group_symop_operation_xyz
x,y,z
-x,1/2-y,1/2+z
x,-y,-z
-x,1/2+y,1/2-z
-x,-y,-z
x,1/2+y,1/2-z
-x,y,z
x,1/2-y,1/2+z
1/2+x,1/2+y,z
1/2-x,-y,1/2+z
1/2+x,1/2-y,-z
1/2-x,y,1/2-z
1/2-x,1/2-y,-z
1/2+x,y,1/2-z
1/2-x,1/2+y,z
1/2+x,-y,1/2+z
loop_
_atom_site_type_symbol
_atom_site_label
_atom_site_fract_x
_atom_site_fract_y
_atom_site_fract_z
Si Si1 0.888059 0.710153 0.210062
Si Si2 0.774480 0.155083 0.091429
Si Si3 0.109916 0.164273 0.871314
Si Si4 0.780953 0.520487 0.107091
Si Si5 0.110661 0.036661 0.803861
O O1 0.848738 0.681858 0.320423
O O2 0.829040 0.687975 0.104884
O O3 0.873803 0.780957 0.209310
O O4 0.000000 0.691628 0.196196
O O5 0.748684 0.088007 0.118464
O O6 0.815930 0.164153 0.971927
O O7 0.123129 0.107307 0.794405
O O8 0.000000 0.165343 0.919391
O O9 0.851114 0.499448 0.201624
O O10 0.679530 0.483873 0.099354
O O11 0.838088 0.500000 0.000000
O O12 0.000000 0.018224 0.826935
#
# Coordination Sequence:
#
# PCOD8264038 Si02
#       5
#    16  16  16  16  16
#     4  10  22  39  61  92 126 159 208 262 309 369
#     4  11  22  39  63  90 122 170 204 255 315 368
#     4  10  21  40  64  92 122 164 214 254 308 377
#     4  11  23  40  62  92 125 159 209 258 303 375
#     4  10  22  40  64  90 123 164 206 256 310 367
#
# _framework density 20.704740000000001
#
# number of rings (size 3 to 8) (size 9 to 14) (size 15 to 20)
#    0.000    1.600    2.000    3.600    0.000    8.000 
#    3.600    0.000    0.000    0.000    0.000    0.000 
#    0.000    0.000    0.000    0.000    0.000    0.000 
#
# Total GULP energy -495650.792642 kJ/mol
# GULP energy per Si atom -12391.269816 kJ/mol
# Density = 2.065762 g / cm^3
# Si number density = 20.704740 Si / 1000 Ang^3
#
#
#
# Elastic Constant Matrix: (Units=GPa)
#
#
# Indices 1 2 3 4 5 6 
#
# 1 100.4429 25.4483 4.0342 0.0000 0.0000 0.0000
# 2 25.4483 141.5011 21.3001 0.0000 0.0000 0.0000
# 3 4.0342 21.3001 79.9693 0.0000 0.0000 0.0000
# 4 0.0000 0.0000 0.0000 33.3177 0.0000 0.0000
# 5 0.0000 0.0000 0.0000 0.0000 19.6381 0.0000
# 6 0.0000 0.0000 0.0000 0.0000 0.0000 27.0065
#
#
#
# Elastic Compliance Matrix: (Units=1/GPa)
#
#
# Indices 1 2 3 4 5 6 
#
# 1 0.010431 -0.001872 -0.000028 0.000000 0.000000 0.000000
# 2 -0.001872 0.007698 -0.001956 0.000000 0.000000 0.000000
# 3 -0.000028 -0.001956 0.013027 0.000000 0.000000 0.000000
# 4 0.000000 0.000000 0.000000 0.030014 0.000000 0.000000
# 5 0.000000 0.000000 0.000000 0.000000 0.050921 0.000000
# 6 0.000000 0.000000 0.000000 0.000000 0.000000 0.037028
#
#
# Mechanical properties :
#
#
# Convention : Reuss Voigt Hill
#
# Bulk Modulus (GPa) = 42.65191 47.05315 44.85253
# Shear Modulus (GPa) = 30.36811 34.06785 32.21798
#
# Velocity S-wave (km/s) = 3.83394 4.06077 3.94898
# Velocity P-wave (km/s) = 6.34378 6.69041 6.51940
#
# Compressibility (1/GPa) = 0.02344561
#
# Stress axis : x y z
#
# Youngs Moduli (GPa) = 95.86560 129.90116 76.76258
#
# Poissons Ratio (x) = 0.24316 0.00212
# Poissons Ratio (y) = 0.17945 0.15015
# Poissons Ratio (z) = 0.00265 0.25409
#
# Static dielectric constant tensor:
#      x y z
#    x 4.011940 0.000000 0.000000 
#    y 0.000000 4.065080 0.000000 
#    z 0.000000 0.000000 3.542400 
# 
# 
# High freq. dielectric constant tensor:
#      x y z
#    x 1.813970 0.000000 0.000000 
#    y 0.000000 1.831500 0.000000 
#    z 0.000000 0.000000 1.797380 
# 
# From -- ./inp_files/14447.got.cif
#   From: 2010.03.12/outbox.cif.g09.slc.cpg/sg64_8_cif.got.tgz:14447.got - 2010.04.10 20:19:32.
