data_PCOD8264821
_publ_section_title
;
Structure prediction by ZEFSAII (Michael W. Deem and Ramdas Pophale) SiO2 
 PCOD8264821
Probable space group: C M C A
;
_chemical_formula_sum "Si O2"
_cell_formula_units_Z 80
_cell_length_a 10.184477
_cell_length_b 22.619254
_cell_length_c 16.870396
_cell_angle_alpha 90.000000
_cell_angle_beta 90.000000
_cell_angle_gamma 90.000000
_cell_volume 3886.353365
_symmetry_space_group_name_H-M "C M C A"
_symmetry_group_IT_number 64
_symmetry_cell_setting 'orthorhombic'
loop_
_space_group_symop_operation_xyz
x,y,z
-x,1/2-y,1/2+z
x,-y,-z
-x,1/2+y,1/2-z
-x,-y,-z
x,1/2+y,1/2-z
-x,y,z
x,1/2-y,1/2+z
1/2+x,1/2+y,z
1/2-x,-y,1/2+z
1/2+x,1/2-y,-z
1/2-x,y,1/2-z
1/2-x,1/2-y,-z
1/2+x,y,1/2-z
1/2-x,1/2+y,z
1/2+x,-y,1/2+z
loop_
_atom_site_type_symbol
_atom_site_label
_atom_site_fract_x
_atom_site_fract_y
_atom_site_fract_z
Si Si1 0.846662 0.068657 0.415936
Si Si2 0.500000 0.882013 0.369881
Si Si3 0.276353 0.936455 0.095012
Si Si4 0.500000 0.370223 0.315524
Si Si5 0.000000 0.251356 0.419088
Si Si6 0.757236 0.686796 0.156739
Si Si7 0.500000 0.247227 0.400829
O O1 0.824964 0.082148 0.508219
O O2 0.778605 0.118200 0.362755
O O3 0.000000 0.067823 0.397231
O O4 0.784917 0.006392 0.391132
O O5 0.373980 0.919792 0.393497
O O6 0.500000 0.866665 0.278224
O O7 0.500000 0.821997 0.419988
O O8 0.368380 0.903291 0.157516
O O9 0.500000 0.303263 0.344098
O O10 0.872880 0.227415 0.375306
O O11 0.000000 0.228929 0.509378
O O12 0.750000 0.695789 0.250000
O O13 0.625144 0.706745 0.114477
#
# Coordination Sequence:
#
# PCOD8264821 Si02
#       7
#    16   8  16   8   8  16   8
#     4  11  22  45  72  91 129 180 226 266 321 403
#     4  12  26  38  64 104 142 162 214 288 330 370
#     4  11  23  43  69  97 128 180 225 266 319 395
#     4  12  22  42  66  94 138 178 216 262 334 398
#     4  12  24  47  66  95 136 177 221 263 327 406
#     4  12  25  42  68  99 135 170 220 278 333 386
#     4  12  26  43  70  99 128 181 223 269 323 398
#
# _framework density 20.584851
#
# number of rings (size 3 to 8) (size 9 to 14) (size 15 to 20)
#    0.000    0.400    3.000    7.200    0.000    4.000 
#    0.000    0.000    0.000    0.000    0.000    0.000 
#    0.000    0.000    0.000    0.000    0.000    0.000 
#
# Total GULP energy -496361.834839 kJ/mol
# GULP energy per Si atom -12409.045871 kJ/mol
# Density = 2.053800 g / cm^3
# Si number density = 20.584851 Si / 1000 Ang^3
#
#
#
# Elastic Constant Matrix: (Units=GPa)
#
#
# Indices 1 2 3 4 5 6 
#
# 1 167.1704 74.1998 17.5093 0.0000 0.0000 0.0000
# 2 74.1998 135.0757 40.7605 0.0000 0.0000 0.0000
# 3 17.5093 40.7605 71.4871 0.0000 0.0000 0.0000
# 4 0.0000 0.0000 0.0000 23.1653 0.0000 0.0000
# 5 0.0000 0.0000 0.0000 0.0000 1.9362 0.0000
# 6 0.0000 0.0000 0.0000 0.0000 0.0000 43.2806
#
#
#
# Elastic Compliance Matrix: (Units=1/GPa)
#
#
# Indices 1 2 3 4 5 6 
#
# 1 0.007936 -0.004557 0.000654 0.000000 0.000000 0.000000
# 2 -0.004557 0.011558 -0.005474 0.000000 0.000000 0.000000
# 3 0.000654 -0.005474 0.016950 0.000000 0.000000 0.000000
# 4 0.000000 0.000000 0.000000 0.043168 0.000000 0.000000
# 5 0.000000 0.000000 0.000000 0.000000 0.516469 0.000000
# 6 0.000000 0.000000 0.000000 0.000000 0.000000 0.023105
#
#
# Mechanical properties :
#
#
# Convention : Reuss Voigt Hill
#
# Bulk Modulus (GPa) = 56.52715 70.96361 63.74538
# Shear Modulus (GPa) = 7.76595 29.76065 18.76330
#
# Velocity S-wave (km/s) = 1.94444 3.80643 3.02240
# Velocity P-wave (km/s) = 5.70625 7.33942 6.57375
#
# Compressibility (1/GPa) = 0.01769061
#
# Stress axis : x y z
#
# Youngs Moduli (GPa) = 126.00829 86.51743 58.99867
#
# Poissons Ratio (x) = 0.39425 -0.03861
# Poissons Ratio (y) = 0.57421 0.32297
# Poissons Ratio (z) = -0.08247 0.47362
#
# Static dielectric constant tensor:
#      x y z
#    x 3.885440 0.000000 0.000000 
#    y 0.000000 3.881770 0.000000 
#    z 0.000000 0.000000 3.797690 
# 
# 
# High freq. dielectric constant tensor:
#      x y z
#    x 1.821880 0.000000 0.000000 
#    y 0.000000 1.821370 0.000000 
#    z 0.000000 0.000000 1.812720 
# 
# From -- ./inp_files/29879.got.cif
#   From: 2010.03.12/outbox.cif.g09.slc.cpg/sg64_15_cif.got.tgz:29879.got - 2010.04.10 20:19:32.
