data_PCOD8264600
_publ_section_title
;
Structure prediction by ZEFSAII (Michael W. Deem and Ramdas Pophale) SiO2 
 PCOD8264600
Probable space group: C M C A
;
_chemical_formula_sum "Si O2"
_cell_formula_units_Z 64
_cell_length_a 25.875186
_cell_length_b 9.949026
_cell_length_c 8.363204
_cell_angle_alpha 90.000000
_cell_angle_beta 90.000000
_cell_angle_gamma 90.000000
_cell_volume 2152.963845
_symmetry_space_group_name_H-M "C M C A"
_symmetry_group_IT_number 64
_symmetry_cell_setting 'orthorhombic'
loop_
_space_group_symop_operation_xyz
x,y,z
-x,1/2-y,1/2+z
x,-y,-z
-x,1/2+y,1/2-z
-x,-y,-z
x,1/2+y,1/2-z
-x,y,z
x,1/2-y,1/2+z
1/2+x,1/2+y,z
1/2-x,-y,1/2+z
1/2+x,1/2-y,-z
1/2-x,y,1/2-z
1/2-x,1/2-y,-z
1/2+x,y,1/2-z
1/2-x,1/2+y,z
1/2+x,-y,1/2+z
loop_
_atom_site_type_symbol
_atom_site_label
_atom_site_fract_x
_atom_site_fract_y
_atom_site_fract_z
Si Si1 0.442016 0.539077 0.333270
Si Si2 0.156988 0.638227 0.418169
Si Si3 0.707330 0.631170 0.392047
Si Si4 0.942459 0.170762 0.913933
O O1 0.413241 0.500000 0.500000
O O2 0.500000 0.475991 0.345209
O O3 0.418492 0.458684 0.181448
O O4 0.444774 0.698142 0.302885
O O5 0.173261 0.500000 0.500000
O O6 0.201091 0.740677 0.489219
O O7 0.156133 0.625286 0.222499
O O8 0.099331 0.693581 0.447248
O O9 0.714714 0.500000 0.500000
O O10 0.750000 0.642442 0.250000
O O11 0.000000 0.140831 0.986172
#
# Coordination Sequence:
#
# PCOD8264600 Si02
#       4
#    16  16  16  16
#     4   9  20  40  69 105 159 234 298 358 428 502
#     4  12  29  49  84 133 175 232 291 357 438 524
#     4  12  29  60  94 129 173 224 289 365 459 541
#     4  10  24  45  74 118 179 241 301 361 432 512
#
# _framework density 29.726464
#
# number of rings (size 3 to 8) (size 9 to 14) (size 15 to 20)
#    0.000    1.250    0.000    3.000    7.000    3.500 
#    0.000    0.000    0.000    5.250    0.000    0.000 
#    0.000    0.000    0.000    0.000    0.000    0.000 
#
# Total GULP energy -396710.215068 kJ/mol
# GULP energy per Si atom -12397.194221 kJ/mol
# Density = 2.965880 g / cm^3
# Si number density = 29.726464 Si / 1000 Ang^3
#
#
#
# Elastic Constant Matrix: (Units=GPa)
#
#
# Indices 1 2 3 4 5 6 
#
# 1 133.2595 25.2567 56.7960 0.0000 0.0000 0.0000
# 2 25.2567 208.6255 48.1429 0.0000 0.0000 0.0000
# 3 56.7960 48.1429 189.6249 0.0000 0.0000 0.0000
# 4 0.0000 0.0000 0.0000 63.4885 0.0000 0.0000
# 5 0.0000 0.0000 0.0000 0.0000 11.3883 0.0000
# 6 0.0000 0.0000 0.0000 0.0000 0.0000 15.7483
#
#
#
# Elastic Compliance Matrix: (Units=1/GPa)
#
#
# Indices 1 2 3 4 5 6 
#
# 1 0.008647 -0.000477 -0.002469 0.000000 0.000000 0.000000
# 2 -0.000477 0.005118 -0.001156 0.000000 0.000000 0.000000
# 3 -0.002469 -0.001156 0.006307 0.000000 0.000000 0.000000
# 4 0.000000 0.000000 0.000000 0.015751 0.000000 0.000000
# 5 0.000000 0.000000 0.000000 0.000000 0.087809 0.000000
# 6 0.000000 0.000000 0.000000 0.000000 0.000000 0.063499
#
#
# Mechanical properties :
#
#
# Convention : Reuss Voigt Hill
#
# Bulk Modulus (GPa) = 84.26949 87.98901 86.12925
# Shear Modulus (GPa) = 25.08901 44.87932 34.98417
#
# Velocity S-wave (km/s) = 2.90831 3.88976 3.43427
# Velocity P-wave (km/s) = 6.29981 7.05956 6.69048
#
# Compressibility (1/GPa) = 0.01186669
#
# Stress axis : x y z
#
# Youngs Moduli (GPa) = 115.65013 195.39249 158.56392
#
# Poissons Ratio (x) = 0.09322 0.39145
# Poissons Ratio (y) = 0.05518 0.18337
# Poissons Ratio (z) = 0.28551 0.22596
#
# Static dielectric constant tensor:
#      x y z
#    x 6.875360 0.000000 0.000000 
#    y 0.000000 5.345190 0.000000 
#    z 0.000000 0.000000 6.389590 
# 
# 
# High freq. dielectric constant tensor:
#      x y z
#    x 2.243020 0.000000 0.000000 
#    y 0.000000 2.216800 0.000000 
#    z 0.000000 0.000000 2.229950 
# 
# From -- ./inp_files/10869.got.cif
#   From: 2010.03.12/outbox.cif.g09.slc.cpg/sg64_6_cif.got.tgz:10869.got - 2010.04.10 20:19:32.
