data_PCOD8264641
_publ_section_title
;
Structure prediction by ZEFSAII (Michael W. Deem and Ramdas Pophale) SiO2 
 PCOD8264641
Probable space group: C M C A
;
_chemical_formula_sum "Si O2"
_cell_formula_units_Z 80
_cell_length_a 11.063432
_cell_length_b 19.787491
_cell_length_c 19.273739
_cell_angle_alpha 90.000000
_cell_angle_beta 90.000000
_cell_angle_gamma 90.000000
_cell_volume 4219.359936
_symmetry_space_group_name_H-M "C M C A"
_symmetry_group_IT_number 64
_symmetry_cell_setting 'orthorhombic'
loop_
_space_group_symop_operation_xyz
x,y,z
-x,1/2-y,1/2+z
x,-y,-z
-x,1/2+y,1/2-z
-x,-y,-z
x,1/2+y,1/2-z
-x,y,z
x,1/2-y,1/2+z
1/2+x,1/2+y,z
1/2-x,-y,1/2+z
1/2+x,1/2-y,-z
1/2-x,y,1/2-z
1/2-x,1/2-y,-z
1/2+x,y,1/2-z
1/2-x,1/2+y,z
1/2+x,-y,1/2+z
loop_
_atom_site_type_symbol
_atom_site_label
_atom_site_fract_x
_atom_site_fract_y
_atom_site_fract_z
Si Si1 0.756431 0.835417 0.448282
Si Si2 0.000000 0.472708 0.890036
Si Si3 0.143801 0.298600 0.590196
Si Si4 0.639366 0.969812 0.427151
Si Si5 0.500000 0.901153 0.030439
Si Si6 0.249986 0.576213 0.331860
O O1 0.781267 0.771329 0.398038
O O2 0.662326 0.820238 0.510190
O O3 0.705793 0.900059 0.406683
O O4 0.886437 0.852616 0.479295
O O5 0.000000 0.555407 0.896644
O O6 0.884842 0.442360 0.852464
O O7 0.000000 0.452657 0.968743
O O8 0.205725 0.350756 0.642741
O O9 0.000000 0.291978 0.605351
O O10 0.500000 0.953950 0.437093
O O11 0.692430 0.000000 0.500000
O O12 0.658378 0.021806 0.364705
O O13 0.250000 0.573687 0.250000
#
# Coordination Sequence:
#
# PCOD8264641 Si02
#       6
#    16   8  16  16   8  16
#     4  11  21  37  62  95 119 157 206 256 314 363
#     4  11  22  38  63  90 123 161 203 271 306 364
#     4  11  23  39  60  89 128 165 204 255 309 371
#     4  11  21  40  66  94 126 160 208 265 311 366
#     4  11  18  38  63  92 122 146 210 272 312 352
#     4  12  26  41  62  91 128 169 210 251 314 380
#
# _framework density 18.960222000000002
#
# number of rings (size 3 to 8) (size 9 to 14) (size 15 to 20)
#    0.000    0.800    7.000    1.200    2.800    0.000 
#    1.800    1.000    0.000    2.400    0.000    0.000 
#    0.000    0.000    0.000    0.000    0.000    0.000 
#
# Total GULP energy -495843.155291 kJ/mol
# GULP energy per Si atom -12396.078882 kJ/mol
# Density = 1.891707 g / cm^3
# Si number density = 18.960222 Si / 1000 Ang^3
#
#
#
# Elastic Constant Matrix: (Units=GPa)
#
#
# Indices 1 2 3 4 5 6 
#
# 1 98.8721 35.4488 24.7881 0.0000 0.0000 0.0000
# 2 35.4488 147.7793 53.2434 0.0000 0.0000 0.0000
# 3 24.7881 53.2434 100.1282 0.0000 0.0000 0.0000
# 4 0.0000 0.0000 0.0000 20.5937 0.0000 0.0000
# 5 0.0000 0.0000 0.0000 0.0000 34.7645 0.0000
# 6 0.0000 0.0000 0.0000 0.0000 0.0000 34.3860
#
#
#
# Elastic Compliance Matrix: (Units=1/GPa)
#
#
# Indices 1 2 3 4 5 6 
#
# 1 0.011289 -0.002104 -0.001676 0.000000 0.000000 0.000000
# 2 -0.002104 0.008763 -0.004139 0.000000 0.000000 0.000000
# 3 -0.001676 -0.004139 0.012603 0.000000 0.000000 0.000000
# 4 0.000000 0.000000 0.000000 0.048559 0.000000 0.000000
# 5 0.000000 0.000000 0.000000 0.000000 0.028765 0.000000
# 6 0.000000 0.000000 0.000000 0.000000 0.000000 0.029082
#
#
# Mechanical properties :
#
#
# Convention : Reuss Voigt Hill
#
# Bulk Modulus (GPa) = 59.46376 63.74891 61.60633
# Shear Modulus (GPa) = 31.15226 33.50214 32.32720
#
# Velocity S-wave (km/s) = 4.05783 4.20809 4.13365
# Velocity P-wave (km/s) = 7.30651 7.57008 7.43947
#
# Compressibility (1/GPa) = 0.01681697
#
# Stress axis : x y z
#
# Youngs Moduli (GPa) = 88.58499 114.12004 79.34733
#
# Poissons Ratio (x) = 0.24012 0.13297
# Poissons Ratio (y) = 0.18639 0.32839
# Poissons Ratio (z) = 0.14845 0.47231
#
# Static dielectric constant tensor:
#      x y z
#    x 3.615730 0.000000 0.000000 
#    y 0.000000 3.831340 0.000000 
#    z 0.000000 0.000000 2.290260 
# 
# 
# High freq. dielectric constant tensor:
#      x y z
#    x 1.757310 0.000000 0.000000 
#    y 0.000000 1.756620 0.000000 
#    z 0.000000 0.000000 1.683600 
# 
# From -- ./inp_files/30860.got.cif
#   From: 2010.03.12/outbox.cif.g09.slc.cpg/sg64_16_cif.got.tgz:30860.got - 2010.04.10 20:19:32.
