data_PCOD8264402
_publ_section_title
;
Structure prediction by ZEFSAII (Michael W. Deem and Ramdas Pophale) SiO2 
 PCOD8264402
Probable space group: C M C A
;
_chemical_formula_sum "Si O2"
_cell_formula_units_Z 88
_cell_length_a 27.840430
_cell_length_b 8.709148
_cell_length_c 16.975157
_cell_angle_alpha 90.000000
_cell_angle_beta 90.000000
_cell_angle_gamma 90.000000
_cell_volume 4115.905636
_symmetry_space_group_name_H-M "C M C A"
_symmetry_group_IT_number 64
_symmetry_cell_setting 'orthorhombic'
loop_
_space_group_symop_operation_xyz
x,y,z
-x,1/2-y,1/2+z
x,-y,-z
-x,1/2+y,1/2-z
-x,-y,-z
x,1/2+y,1/2-z
-x,y,z
x,1/2-y,1/2+z
1/2+x,1/2+y,z
1/2-x,-y,1/2+z
1/2+x,1/2-y,-z
1/2-x,y,1/2-z
1/2-x,1/2-y,-z
1/2+x,y,1/2-z
1/2-x,1/2+y,z
1/2+x,-y,1/2+z
loop_
_atom_site_type_symbol
_atom_site_label
_atom_site_fract_x
_atom_site_fract_y
_atom_site_fract_z
Si Si1 0.590066 0.743525 0.038046
Si Si2 0.191216 0.378313 0.300947
Si Si3 0.000000 0.830010 0.365474
Si Si4 0.280970 0.450525 0.655352
Si Si5 0.408298 0.071608 0.620181
Si Si6 0.000000 0.494422 0.714598
Si Si7 0.664570 0.500000 0.500000
O O1 0.545481 0.831985 0.076829
O O2 0.604579 0.599323 0.091654
O O3 0.576616 0.682804 0.951311
O O4 0.633742 0.860679 0.034037
O O5 0.225133 0.498052 0.348495
O O6 0.188741 0.430525 0.209618
O O7 0.138148 0.363992 0.335917
O O8 0.216299 0.214273 0.304309
O O9 0.000000 0.684835 0.306447
O O10 0.000000 0.980282 0.309277
O O11 0.301531 0.437857 0.568275
O O12 0.452764 0.074344 0.679497
#
# Coordination Sequence:
#
# PCOD8264402 Si02
#       7
#    16  16   8  16  16   8   8
#     4  10  23  42  63  97 131 181 217 281 337 394
#     4  11  24  45  69  96 136 184 221 285 336 403
#     4  10  23  42  66  96 140 173 224 279 334 400
#     4  11  26  43  67 101 134 175 231 278 340 402
#     4  10  22  43  69  92 135 181 226 266 342 401
#     4  10  23  39  66 106 124 178 226 270 323 414
#     4  12  26  41  66 104 134 171 234 282 332 408
#
# _framework density 21.380469999999999
#
# number of rings (size 3 to 8) (size 9 to 14) (size 15 to 20)
#    0.000    1.455    1.818    2.727    7.636    7.636 
#    0.000    0.000    0.000    0.000    0.000    0.000 
#    0.000    0.000    0.000    0.000    0.000    0.000 
#
# Total GULP energy -545667.042977 kJ/mol
# GULP energy per Si atom -12401.523704 kJ/mol
# Density = 2.133181 g / cm^3
# Si number density = 21.380470 Si / 1000 Ang^3
#
#
#
# Elastic Constant Matrix: (Units=GPa)
#
#
# Indices 1 2 3 4 5 6 
#
# 1 126.6703 31.9700 60.1885 0.0000 0.0000 0.0000
# 2 31.9700 86.9958 24.6067 0.0000 0.0000 0.0000
# 3 60.1885 24.6067 112.1639 0.0000 0.0000 0.0000
# 4 0.0000 0.0000 0.0000 31.0179 0.0000 0.0000
# 5 0.0000 0.0000 0.0000 0.0000 47.6658 0.0000
# 6 0.0000 0.0000 0.0000 0.0000 0.0000 -393.2124
#
#
#
# Elastic Compliance Matrix: (Units=1/GPa)
#
#
# Indices 1 2 3 4 5 6 
#
# 1 0.011104 -0.002554 -0.005398 0.000000 0.000000 0.000000
# 2 -0.002554 0.012843 -0.001447 0.000000 0.000000 0.000000
# 3 -0.005398 -0.001447 0.012130 0.000000 0.000000 0.000000
# 4 0.000000 0.000000 0.000000 0.032239 0.000000 0.000000
# 5 0.000000 0.000000 0.000000 0.000000 0.020979 0.000000
# 6 0.000000 0.000000 0.000000 0.000000 0.000000 -0.002543
#
#
# Mechanical properties :
#
#
# Convention : Reuss Voigt Hill
#
# Bulk Modulus (GPa) = 57.87640 62.15116 60.01378
# Shear Modulus (GPa) = 44.91959 -48.96812 -2.02426
#
# Velocity S-wave (km/s) = 4.58860 -4.79092 -0.97408
# Velocity P-wave (km/s) = 7.42982 1.21312 5.18317
#
# Compressibility (1/GPa) = 0.01727820
#
# Stress axis : x y z
#
# Youngs Moduli (GPa) = 90.05663 77.86599 82.44147
#
# Poissons Ratio (x) = 0.19885 0.44505
# Poissons Ratio (y) = 0.22998 0.11930
# Poissons Ratio (z) = 0.48616 0.11268
#
# Static dielectric constant tensor:
#      x y z
#    x 3.761980 0.000000 0.000000 
#    y 0.000000 3.859660 0.000000 
#    z 0.000000 0.000000 3.828590 
# 
# 
# High freq. dielectric constant tensor:
#      x y z
#    x 1.840420 0.000000 0.000000 
#    y 0.000000 1.842570 0.000000 
#    z 0.000000 0.000000 1.842620 
# 
# From -- ./inp_files/35734.got.cif
#   From: 2010.03.12/outbox.cif.g09.slc.cpg/sg64_18_cif.got.tgz:35734.got - 2010.04.10 20:19:32.
