data_PCOD8264241
_publ_section_title
;
Structure prediction by ZEFSAII (Michael W. Deem and Ramdas Pophale) SiO2 
 PCOD8264241
Probable space group: C M C A
;
_chemical_formula_sum "Si O2"
_cell_formula_units_Z 72
_cell_length_a 10.298784
_cell_length_b 14.408061
_cell_length_c 23.368378
_cell_angle_alpha 90.000000
_cell_angle_beta 90.000000
_cell_angle_gamma 90.000000
_cell_volume 3467.528643
_symmetry_space_group_name_H-M "C M C A"
_symmetry_group_IT_number 64
_symmetry_cell_setting 'orthorhombic'
loop_
_space_group_symop_operation_xyz
x,y,z
-x,1/2-y,1/2+z
x,-y,-z
-x,1/2+y,1/2-z
-x,-y,-z
x,1/2+y,1/2-z
-x,y,z
x,1/2-y,1/2+z
1/2+x,1/2+y,z
1/2-x,-y,1/2+z
1/2+x,1/2-y,-z
1/2-x,y,1/2-z
1/2-x,1/2-y,-z
1/2+x,y,1/2-z
1/2-x,1/2+y,z
1/2+x,-y,1/2+z
loop_
_atom_site_type_symbol
_atom_site_label
_atom_site_fract_x
_atom_site_fract_y
_atom_site_fract_z
Si Si1 0.500000 0.471265 0.351528
Si Si2 0.500000 0.670891 0.316735
Si Si3 0.351212 0.379225 0.962947
Si Si4 0.000000 0.773272 0.302882
Si Si5 0.243260 0.941964 0.080903
Si Si6 0.247133 0.749712 0.626697
O O1 0.500000 0.559507 0.308488
O O2 0.500000 0.384968 0.307455
O O3 0.616675 0.471214 0.396554
O O4 0.500000 0.734374 0.260904
O O5 0.628036 0.690188 0.352607
O O6 0.500000 0.364448 0.982950
O O7 0.347041 0.466009 0.917611
O O8 0.295274 0.286052 0.934892
O O9 0.257818 0.403256 0.015994
O O10 0.869253 0.735577 0.331564
O O11 0.197676 0.856864 0.121617
#
# Coordination Sequence:
#
# PCOD8264241 Si02
#       6
#     8   8  16   8  16  16
#     4  10  22  44  66  89 128 163 209 272 315 370
#     4  12  24  43  68  97 116 165 227 264 322 369
#     4  11  22  39  62  93 133 176 204 249 317 385
#     4  10  24  48  63  87 127 167 208 271 326 372
#     4  10  22  39  61  93 130 169 206 253 314 382
#     4  11  23  42  65  91 131 162 213 265 314 374
#
# _framework density 20.764068999999999
#
# number of rings (size 3 to 8) (size 9 to 14) (size 15 to 20)
#    0.000    1.333    3.333    2.667    3.111    2.667 
#    4.000    2.222    0.000    0.000    0.000    0.000 
#    0.000    0.000    0.000    0.000    0.000    0.000 
#
# Total GULP energy -446128.516743 kJ/mol
# GULP energy per Si atom -12392.458798 kJ/mol
# Density = 2.071681 g / cm^3
# Si number density = 20.764069 Si / 1000 Ang^3
#
#
#
# Elastic Constant Matrix: (Units=GPa)
#
#
# Indices 1 2 3 4 5 6 
#
# 1 105.7541 41.7390 36.9916 0.0000 0.0000 0.0000
# 2 41.7390 102.9300 30.3921 0.0000 0.0000 0.0000
# 3 36.9916 30.3921 81.5620 0.0000 0.0000 0.0000
# 4 0.0000 0.0000 0.0000 33.4977 0.0000 0.0000
# 5 0.0000 0.0000 0.0000 0.0000 19.9260 0.0000
# 6 0.0000 0.0000 0.0000 0.0000 0.0000 46.1951
#
#
#
# Elastic Compliance Matrix: (Units=1/GPa)
#
#
# Indices 1 2 3 4 5 6 
#
# 1 0.012431 -0.003793 -0.004224 0.000000 0.000000 0.000000
# 2 -0.003793 0.012074 -0.002779 0.000000 0.000000 0.000000
# 3 -0.004224 -0.002779 0.015212 0.000000 0.000000 0.000000
# 4 0.000000 0.000000 0.000000 0.029853 0.000000 0.000000
# 5 0.000000 0.000000 0.000000 0.000000 0.050186 0.000000
# 6 0.000000 0.000000 0.000000 0.000000 0.000000 0.021647
#
#
# Mechanical properties :
#
#
# Convention : Reuss Voigt Hill
#
# Bulk Modulus (GPa) = 55.17569 56.49906 55.83738
# Shear Modulus (GPa) = 29.57941 31.99865 30.78903
#
# Velocity S-wave (km/s) = 3.77841 3.92989 3.85490
# Velocity P-wave (km/s) = 6.75763 6.91817 6.83837
#
# Compressibility (1/GPa) = 0.01812392
#
# Stress axis : x y z
#
# Youngs Moduli (GPa) = 80.44598 82.82212 65.73813
#
# Poissons Ratio (x) = 0.31418 0.27770
# Poissons Ratio (y) = 0.30517 0.18266
# Poissons Ratio (z) = 0.33983 0.23013
#
# Static dielectric constant tensor:
#      x y z
#    x 3.708030 0.000000 0.000000 
#    y 0.000000 4.151550 0.000000 
#    z 0.000000 0.000000 3.449000 
# 
# 
# High freq. dielectric constant tensor:
#      x y z
#    x 1.814190 0.000000 0.000000 
#    y 0.000000 1.835760 0.000000 
#    z 0.000000 0.000000 1.785150 
# 
# From -- ./inp_files/47649.got.cif
#   From: 2010.03.12/outbox.cif.g09.slc.cpg/sg64_24_cif.got.tgz:47649.got - 2010.04.10 20:19:32.
