data_PCOD8264607
_publ_section_title
;
Structure prediction by ZEFSAII (Michael W. Deem and Ramdas Pophale) SiO2 
 PCOD8264607
Probable space group: C M C A
;
_chemical_formula_sum "Si O2"
_cell_formula_units_Z 48
_cell_length_a 10.581769
_cell_length_b 22.066246
_cell_length_c 8.483276
_cell_angle_alpha 90.000000
_cell_angle_beta 90.000000
_cell_angle_gamma 90.000000
_cell_volume 1980.844249
_symmetry_space_group_name_H-M "C M C A"
_symmetry_group_IT_number 64
_symmetry_cell_setting 'orthorhombic'
loop_
_space_group_symop_operation_xyz
x,y,z
-x,1/2-y,1/2+z
x,-y,-z
-x,1/2+y,1/2-z
-x,-y,-z
x,1/2+y,1/2-z
-x,y,z
x,1/2-y,1/2+z
1/2+x,1/2+y,z
1/2-x,-y,1/2+z
1/2+x,1/2-y,-z
1/2-x,y,1/2-z
1/2-x,1/2-y,-z
1/2+x,y,1/2-z
1/2-x,1/2+y,z
1/2+x,-y,1/2+z
loop_
_atom_site_type_symbol
_atom_site_label
_atom_site_fract_x
_atom_site_fract_y
_atom_site_fract_z
Si Si1 0.000000 0.660824 0.079165
Si Si2 0.708259 0.440391 0.575921
Si Si3 0.500000 0.220165 0.416234
Si Si4 0.361498 0.362213 0.129688
O O1 0.121022 0.618429 0.074722
O O2 0.000000 0.703845 0.232628
O O3 0.000000 0.706698 0.929734
O O4 0.642695 0.500000 0.500000
O O5 0.750000 0.457531 0.750000
O O6 0.827871 0.423412 0.466379
O O7 0.624459 0.192330 0.502318
O O8 0.500000 0.374154 0.212000
O O9 0.250000 0.344845 0.250000
#
# Coordination Sequence:
#
# PCOD8264607 Si02
#       4
#     8  16   8  16
#     4  12  27  50  78 120 158 208 257 320 401 467
#     4  12  26  50  77 112 159 211 262 323 385 470
#     4  10  26  48  76 114 159 205 259 329 378 480
#     4  10  24  48  74 117 152 206 258 320 389 462
#
# _framework density 24.232092000000002
#
# number of rings (size 3 to 8) (size 9 to 14) (size 15 to 20)
#    1.000    0.000    3.333    1.500    7.000    3.333 
#    6.000    0.000    0.000    0.000    0.000    0.000 
#    0.000    0.000    0.000    0.000    0.000    0.000 
#
# Total GULP energy -297479.841333 kJ/mol
# GULP energy per Si atom -12394.993389 kJ/mol
# Density = 2.417694 g / cm^3
# Si number density = 24.232092 Si / 1000 Ang^3
#
#
#
# Elastic Constant Matrix: (Units=GPa)
#
#
# Indices 1 2 3 4 5 6 
#
# 1 140.1483 42.9799 53.5548 0.0000 0.0000 0.0000
# 2 42.9799 177.1336 84.1513 0.0000 0.0000 0.0000
# 3 53.5548 84.1513 93.2464 0.0000 0.0000 0.0000
# 4 0.0000 0.0000 0.0000 57.8581 0.0000 0.0000
# 5 0.0000 0.0000 0.0000 0.0000 11.4260 0.0000
# 6 0.0000 0.0000 0.0000 0.0000 0.0000 204.9328
#
#
#
# Elastic Compliance Matrix: (Units=1/GPa)
#
#
# Indices 1 2 3 4 5 6 
#
# 1 0.009165 0.000485 -0.005701 0.000000 0.000000 0.000000
# 2 0.000485 0.009908 -0.009220 0.000000 0.000000 0.000000
# 3 -0.005701 -0.009220 0.022319 0.000000 0.000000 0.000000
# 4 0.000000 0.000000 0.000000 0.017284 0.000000 0.000000
# 5 0.000000 0.000000 0.000000 0.000000 0.087520 0.000000
# 6 0.000000 0.000000 0.000000 0.000000 0.000000 0.004880
#
#
# Mechanical properties :
#
#
# Convention : Reuss Voigt Hill
#
# Bulk Modulus (GPa) = 79.87574 85.76669 82.82122
# Shear Modulus (GPa) = 27.15587 70.16621 48.66104
#
# Velocity S-wave (km/s) = 3.35125 5.38691 4.48607
# Velocity P-wave (km/s) = 6.92884 8.61176 7.81573
#
# Compressibility (1/GPa) = 0.01251945
#
# Stress axis : x y z
#
# Youngs Moduli (GPa) = 109.10674 100.92839 44.80387
#
# Poissons Ratio (x) = -0.04892 0.25545
# Poissons Ratio (y) = -0.05288 0.41309
# Poissons Ratio (z) = 0.62206 0.93056
#
# Static dielectric constant tensor:
#      x y z
#    x 4.270460 0.000000 0.000000 
#    y 0.000000 4.224260 0.000000 
#    z 0.000000 0.000000 4.477740 
# 
# 
# High freq. dielectric constant tensor:
#      x y z
#    x 1.948460 0.000000 0.000000 
#    y 0.000000 1.964810 0.000000 
#    z 0.000000 0.000000 1.977140 
# 
# From -- ./inp_files/4353.got.cif
#   From: 2010.03.12/outbox.cif.g09.slc.cpg/sg64_3_cif.got.tgz:4353.got - 2010.04.10 20:19:32.
