data_PCOD8264272
_publ_section_title
;
Structure prediction by ZEFSAII (Michael W. Deem and Ramdas Pophale) SiO2 
 PCOD8264272
Probable space group: C M C A
;
_chemical_formula_sum "Si O2"
_cell_formula_units_Z 112
_cell_length_a 17.623692
_cell_length_b 25.467977
_cell_length_c 12.597841
_cell_angle_alpha 90.000000
_cell_angle_beta 90.000000
_cell_angle_gamma 90.000000
_cell_volume 5654.412215
_symmetry_space_group_name_H-M "C M C A"
_symmetry_group_IT_number 64
_symmetry_cell_setting 'orthorhombic'
loop_
_space_group_symop_operation_xyz
x,y,z
-x,1/2-y,1/2+z
x,-y,-z
-x,1/2+y,1/2-z
-x,-y,-z
x,1/2+y,1/2-z
-x,y,z
x,1/2-y,1/2+z
1/2+x,1/2+y,z
1/2-x,-y,1/2+z
1/2+x,1/2-y,-z
1/2-x,y,1/2-z
1/2-x,1/2-y,-z
1/2+x,y,1/2-z
1/2-x,1/2+y,z
1/2+x,-y,1/2+z
loop_
_atom_site_type_symbol
_atom_site_label
_atom_site_fract_x
_atom_site_fract_y
_atom_site_fract_z
Si Si1 0.673762 0.258541 0.305809
Si Si2 0.589137 0.730815 0.387363
Si Si3 0.089712 0.041155 0.592363
Si Si4 0.156535 0.346086 0.046894
Si Si5 0.177781 0.818167 0.990941
Si Si6 0.910202 0.079780 0.027746
Si Si7 0.089657 0.985771 0.171595
O O1 0.750000 0.277980 0.250000
O O2 0.612425 0.227285 0.235718
O O3 0.630886 0.309274 0.354716
O O4 0.703833 0.219480 0.396373
O O5 0.500000 0.736550 0.402347
O O6 0.617209 0.677236 0.441838
O O7 0.629377 0.783983 0.426795
O O8 0.131025 0.094836 0.563466
O O9 0.000000 0.050934 0.595857
O O10 0.111260 0.000000 0.500000
O O11 0.120767 0.022054 0.708039
O O12 0.247568 0.343232 0.042362
O O13 0.125761 0.864500 0.946578
O O14 0.000000 0.084256 0.034175
O O15 0.885848 0.060921 0.908913
O O16 0.880403 0.039863 0.119050
O O17 0.000000 0.988171 0.178023
#
# Coordination Sequence:
#
# PCOD8264272 Si02
#       7
#    16  16  16  16  16  16  16
#     4  11  21  41  62  86 120 167 201 242 314 366
#     4  11  23  39  62  94 123 156 209 256 296 365
#     4  10  22  40  61  88 122 160 208 256 303 362
#     4  11  23  40  63  87 124 167 200 247 310 371
#     4  11  22  38  62  88 128 162 197 251 312 369
#     4   9  18  35  60  88 117 155 207 256 306 360
#     4   8  17  36  59  84 116 156 201 259 310 353
#
# _framework density 19.807541000000001
#
# number of rings (size 3 to 8) (size 9 to 14) (size 15 to 20)
#    0.000    1.857    2.857    2.571    2.000    4.571 
#    2.571    1.429    0.000    0.000    0.000    0.000 
#    0.000    0.000    0.000    0.000    0.000    0.000 
#
# Total GULP energy -694265.365266 kJ/mol
# GULP energy per Si atom -12397.595808 kJ/mol
# Density = 1.976246 g / cm^3
# Si number density = 19.807541 Si / 1000 Ang^3
#
#
#
# Elastic Constant Matrix: (Units=GPa)
#
#
# Indices 1 2 3 4 5 6 
#
# 1 71.8294 28.3289 31.7058 0.0000 0.0000 0.0000
# 2 28.3289 124.8226 56.4709 0.0000 0.0000 0.0000
# 3 31.7058 56.4709 131.6336 0.0000 0.0000 0.0000
# 4 0.0000 0.0000 0.0000 17.5541 0.0000 0.0000
# 5 0.0000 0.0000 0.0000 0.0000 22.0006 0.0000
# 6 0.0000 0.0000 0.0000 0.0000 0.0000 31.3760
#
#
#
# Elastic Compliance Matrix: (Units=1/GPa)
#
#
# Indices 1 2 3 4 5 6 
#
# 1 0.016120 -0.002360 -0.002870 0.000000 0.000000 0.000000
# 2 -0.002360 0.010286 -0.003844 0.000000 0.000000 0.000000
# 3 -0.002870 -0.003844 0.009937 0.000000 0.000000 0.000000
# 4 0.000000 0.000000 0.000000 0.056967 0.000000 0.000000
# 5 0.000000 0.000000 0.000000 0.000000 0.045453 0.000000
# 6 0.000000 0.000000 0.000000 0.000000 0.000000 0.031871
#
#
# Mechanical properties :
#
#
# Convention : Reuss Voigt Hill
#
# Bulk Modulus (GPa) = 54.96262 62.36632 58.66447
# Shear Modulus (GPa) = 25.66098 28.30481 26.98289
#
# Velocity S-wave (km/s) = 3.60323 3.78430 3.69488
# Velocity P-wave (km/s) = 6.71711 7.11682 6.91985
#
# Compressibility (1/GPa) = 0.01819418
#
# Stress axis : x y z
#
# Youngs Moduli (GPa) = 62.03663 97.21789 100.62980
#
# Poissons Ratio (x) = 0.22942 0.28883
# Poissons Ratio (y) = 0.14640 0.38686
# Poissons Ratio (z) = 0.17806 0.37374
#
# Static dielectric constant tensor:
#      x y z
#    x 3.348900 0.000000 0.000000 
#    y 0.000000 3.616310 0.000000 
#    z 0.000000 0.000000 4.071260 
# 
# 
# High freq. dielectric constant tensor:
#      x y z
#    x 1.755380 0.000000 0.000000 
#    y 0.000000 1.768880 0.000000 
#    z 0.000000 0.000000 1.781610 
# 
# From -- ./inp_files/17569.got.cif
#   From: 2010.03.12/outbox.cif.g09.slc.cpg/sg64_9_cif.got.tgz:17569.got - 2010.04.10 20:19:32.
