data_PCOD8264305
_publ_section_title
;
Structure prediction by ZEFSAII (Michael W. Deem and Ramdas Pophale) SiO2 
 PCOD8264305
Probable space group: C M C A
;
_chemical_formula_sum "Si O2"
_cell_formula_units_Z 88
_cell_length_a 27.543404
_cell_length_b 4.950470
_cell_length_c 30.286438
_cell_angle_alpha 90.000000
_cell_angle_beta 90.000000
_cell_angle_gamma 90.000000
_cell_volume 4129.640478
_symmetry_space_group_name_H-M "C M C A"
_symmetry_group_IT_number 64
_symmetry_cell_setting 'orthorhombic'
loop_
_space_group_symop_operation_xyz
x,y,z
-x,1/2-y,1/2+z
x,-y,-z
-x,1/2+y,1/2-z
-x,-y,-z
x,1/2+y,1/2-z
-x,y,z
x,1/2-y,1/2+z
1/2+x,1/2+y,z
1/2-x,-y,1/2+z
1/2+x,1/2-y,-z
1/2-x,y,1/2-z
1/2-x,1/2-y,-z
1/2+x,y,1/2-z
1/2-x,1/2+y,z
1/2+x,-y,1/2+z
loop_
_atom_site_type_symbol
_atom_site_label
_atom_site_fract_x
_atom_site_fract_y
_atom_site_fract_z
Si Si1 0.279204 0.029554 0.373855
Si Si2 0.188291 0.343810 0.721041
Si Si3 0.555041 0.741859 0.969800
Si Si4 0.116399 0.189024 0.884414
Si Si5 0.000000 0.665553 0.779072
Si Si6 0.403979 0.293766 0.329361
O O1 0.237411 0.823924 0.390391
O O2 0.281047 0.055190 0.320736
O O3 0.330584 0.938310 0.393886
O O4 0.200362 0.044832 0.738628
O O5 0.131456 0.335487 0.707429
O O6 0.500000 0.688900 0.952822
O O7 0.590842 0.784230 0.928955
O O8 0.574148 0.500000 0.000000
O O9 0.557211 0.000000 0.000000
O O10 0.121857 0.450305 0.852819
O O11 0.084020 0.948773 0.863378
O O12 0.953281 0.599528 0.808288
O O13 0.000000 0.475427 0.736179
#
# Coordination Sequence:
#
# PCOD8264305 Si02
#       6
#    16  16  16  16   8  16
#     4  11  23  39  59  86 117 158 209 255 310 361
#     4  11  21  36  55  78 115 153 201 260 309 351
#     4  10  22  40  66  98 128 158 193 243 305 372
#     4  11  23  41  64  89 125 161 200 251 308 369
#     4  12  24  38  56  82 120 164 212 256 296 350
#     4  11  23  37  58  86 117 166 208 251 301 367
#
# _framework density 21.309360000000002
#
# number of rings (size 3 to 8) (size 9 to 14) (size 15 to 20)
#    0.000    1.091    0.000    8.727    2.545    2.182 
#    0.000    0.000    0.000    3.273    0.000    0.000 
#    0.000    0.000    0.000    0.000    0.000    0.000 
#
# Total GULP energy -545620.810004 kJ/mol
# GULP energy per Si atom -12400.472955 kJ/mol
# Density = 2.126086 g / cm^3
# Si number density = 21.309360 Si / 1000 Ang^3
#
#
#
# Elastic Constant Matrix: (Units=GPa)
#
#
# Indices 1 2 3 4 5 6 
#
# 1 98.3275 16.5950 30.7840 0.0000 0.0000 0.0000
# 2 16.5950 117.8373 15.7681 0.0000 0.0000 0.0000
# 3 30.7840 15.7681 58.0649 0.0000 0.0000 0.0000
# 4 0.0000 0.0000 0.0000 25.5830 0.0000 0.0000
# 5 0.0000 0.0000 0.0000 0.0000 34.4977 0.0000
# 6 0.0000 0.0000 0.0000 0.0000 0.0000 30.6395
#
#
#
# Elastic Compliance Matrix: (Units=1/GPa)
#
#
# Indices 1 2 3 4 5 6 
#
# 1 0.012284 -0.000891 -0.006270 0.000000 0.000000 0.000000
# 2 -0.000891 0.008871 -0.001937 0.000000 0.000000 0.000000
# 3 -0.006270 -0.001937 0.021072 0.000000 0.000000 0.000000
# 4 0.000000 0.000000 0.000000 0.039088 0.000000 0.000000
# 5 0.000000 0.000000 0.000000 0.000000 0.028987 0.000000
# 6 0.000000 0.000000 0.000000 0.000000 0.000000 0.032638
#
#
# Mechanical properties :
#
#
# Convention : Reuss Voigt Hill
#
# Bulk Modulus (GPa) = 41.61292 44.50265 43.05779
# Shear Modulus (GPa) = 29.56019 32.21622 30.88820
#
# Velocity S-wave (km/s) = 3.72854 3.89245 3.81138
# Velocity P-wave (km/s) = 6.17304 6.41334 6.29434
#
# Compressibility (1/GPa) = 0.02403100
#
# Stress axis : x y z
#
# Youngs Moduli (GPa) = 81.40971 112.72835 47.45546
#
# Poissons Ratio (x) = 0.10042 0.29756
# Poissons Ratio (y) = 0.07252 0.09191
# Poissons Ratio (z) = 0.51047 0.21832
#
# Static dielectric constant tensor:
#      x y z
#    x 3.845290 0.000000 0.000000 
#    y 0.000000 4.023040 0.000000 
#    z 0.000000 0.000000 3.475720 
# 
# 
# High freq. dielectric constant tensor:
#      x y z
#    x 1.839540 0.000000 0.000000 
#    y 0.000000 1.861720 0.000000 
#    z 0.000000 0.000000 1.794340 
# 
# From -- ./inp_files/53870.got.cif
#   From: 2010.03.12/outbox.cif.g09.slc.cpg/sg64_27_cif.got.tgz:53870.got - 2010.04.10 20:19:32.
