data_PCOD8264734
_publ_section_title
;
Structure prediction by ZEFSAII (Michael W. Deem and Ramdas Pophale) SiO2 
 PCOD8264734
Probable space group: C M C A
;
_chemical_formula_sum "Si O2"
_cell_formula_units_Z 88
_cell_length_a 17.261346
_cell_length_b 21.913918
_cell_length_c 8.831712
_cell_angle_alpha 90.000000
_cell_angle_beta 90.000000
_cell_angle_gamma 90.000000
_cell_volume 3340.716242
_symmetry_space_group_name_H-M "C M C A"
_symmetry_group_IT_number 64
_symmetry_cell_setting 'orthorhombic'
loop_
_space_group_symop_operation_xyz
x,y,z
-x,1/2-y,1/2+z
x,-y,-z
-x,1/2+y,1/2-z
-x,-y,-z
x,1/2+y,1/2-z
-x,y,z
x,1/2-y,1/2+z
1/2+x,1/2+y,z
1/2-x,-y,1/2+z
1/2+x,1/2-y,-z
1/2-x,y,1/2-z
1/2-x,1/2-y,-z
1/2+x,y,1/2-z
1/2-x,1/2+y,z
1/2+x,-y,1/2+z
loop_
_atom_site_type_symbol
_atom_site_label
_atom_site_fract_x
_atom_site_fract_y
_atom_site_fract_z
Si Si1 0.912196 0.162764 0.961720
Si Si2 0.250000 0.056360 0.250000
Si Si3 0.500000 0.432463 0.561714
Si Si4 0.088383 0.226464 0.646430
Si Si5 0.837883 0.556876 0.685373
Si Si6 0.000000 0.508581 0.677087
Si Si7 0.162397 0.618220 0.986633
O O1 0.894613 0.201491 0.114248
O O2 0.903664 0.210604 0.823022
O O3 0.846143 0.108943 0.947051
O O4 0.000000 0.135381 0.964153
O O5 0.205731 0.101649 0.360636
O O6 0.195755 0.010699 0.147986
O O7 0.500000 0.500000 0.500000
O O8 0.500000 0.440994 0.745372
O O9 0.426393 0.397920 0.502199
O O10 0.155516 0.189511 0.554503
O O11 0.000000 0.213363 0.590345
O O12 0.926742 0.547252 0.734140
O O13 0.797180 0.581399 0.844039
O O14 0.000000 0.500000 0.500000
#
# Coordination Sequence:
#
# PCOD8264734 Si02
#       7
#    16   8   8  16  16   8  16
#     4   9  18  36  64  91 121 157 204 257 316 376
#     4  12  24  36  60  94 120 162 224 264 292 372
#     4  12  18  38  67  86 116 164 217 253 312 385
#     4   9  18  35  61  94 120 154 205 260 313 373
#     4  11  22  42  63  86 129 173 204 253 327 380
#     4  12  24  38  59  96 128 158 211 267 312 371
#     4  11  21  39  66  89 120 169 216 257 308 386
#
# _framework density 26.341656
#
# number of rings (size 3 to 8) (size 9 to 14) (size 15 to 20)
#    0.000    1.455    5.455    0.545    0.000    1.455 
#    3.273    0.909    0.000    4.364    0.000    0.000 
#    0.000    0.000    0.000    0.000    0.000    0.000 
#
# Total GULP energy -545192.937435 kJ/mol
# GULP energy per Si atom -12390.748578 kJ/mol
# Density = 2.628170 g / cm^3
# Si number density = 26.341656 Si / 1000 Ang^3
#
#
#
# Elastic Constant Matrix: (Units=GPa)
#
#
# Indices 1 2 3 4 5 6 
#
# 1 44.7530 3.7357 7.7994 0.0000 0.0000 0.0000
# 2 3.7357 49.2876 1.5006 0.0000 0.0000 0.0000
# 3 7.7994 1.5006 69.6875 0.0000 0.0000 0.0000
# 4 0.0000 0.0000 0.0000 40.4790 0.0000 0.0000
# 5 0.0000 0.0000 0.0000 0.0000 12.2814 0.0000
# 6 0.0000 0.0000 0.0000 0.0000 0.0000 30.1650
#
#
#
# Elastic Compliance Matrix: (Units=1/GPa)
#
#
# Indices 1 2 3 4 5 6 
#
# 1 0.022924 -0.001661 -0.002530 0.000000 0.000000 0.000000
# 2 -0.001661 0.020423 -0.000254 0.000000 0.000000 0.000000
# 3 -0.002530 -0.000254 0.014638 0.000000 0.000000 0.000000
# 4 0.000000 0.000000 0.000000 0.024704 0.000000 0.000000
# 5 0.000000 0.000000 0.000000 0.000000 0.081424 0.000000
# 6 0.000000 0.000000 0.000000 0.000000 0.000000 0.033151
#
#
# Mechanical properties :
#
#
# Convention : Reuss Voigt Hill
#
# Bulk Modulus (GPa) = 20.36798 21.08885 20.72841
# Shear Modulus (GPa) = 22.46999 26.63124 24.55062
#
# Velocity S-wave (km/s) = 2.92382 3.18306 3.05619
# Velocity P-wave (km/s) = 4.37577 4.64031 4.50998
#
# Compressibility (1/GPa) = 0.04909667
#
# Stress axis : x y z
#
# Youngs Moduli (GPa) = 43.62170 48.96524 68.31346
#
# Poissons Ratio (x) = 0.08131 0.17283
# Poissons Ratio (y) = 0.07243 0.01735
# Poissons Ratio (z) = 0.11036 0.01243
#
# Static dielectric constant tensor:
#      x y z
#    x 5.923870 0.000000 0.000000 
#    y 0.000000 4.874950 0.000000 
#    z 0.000000 0.000000 4.920210 
# 
# 
# High freq. dielectric constant tensor:
#      x y z
#    x 2.063680 0.000000 0.000000 
#    y 0.000000 2.045450 0.000000 
#    z 0.000000 0.000000 2.051440 
# 
# From -- ./inp_files/8299.got.cif
#   From: 2010.03.12/outbox.cif.g09.slc.cpg/sg64_5_cif.got.tgz:8299.got - 2010.04.10 20:19:32.
