data_PCOD8264580
_publ_section_title
;
Structure prediction by ZEFSAII (Michael W. Deem and Ramdas Pophale) SiO2 
 PCOD8264580
Probable space group: C M C A
;
_chemical_formula_sum "Si O2"
_cell_formula_units_Z 72
_cell_length_a 9.929932
_cell_length_b 21.526531
_cell_length_c 14.284310
_cell_angle_alpha 90.000000
_cell_angle_beta 90.000000
_cell_angle_gamma 90.000000
_cell_volume 3053.371096
_symmetry_space_group_name_H-M "C M C A"
_symmetry_group_IT_number 64
_symmetry_cell_setting 'orthorhombic'
loop_
_space_group_symop_operation_xyz
x,y,z
-x,1/2-y,1/2+z
x,-y,-z
-x,1/2+y,1/2-z
-x,-y,-z
x,1/2+y,1/2-z
-x,y,z
x,1/2-y,1/2+z
1/2+x,1/2+y,z
1/2-x,-y,1/2+z
1/2+x,1/2-y,-z
1/2-x,y,1/2-z
1/2-x,1/2-y,-z
1/2+x,y,1/2-z
1/2-x,1/2+y,z
1/2+x,-y,1/2+z
loop_
_atom_site_type_symbol
_atom_site_label
_atom_site_fract_x
_atom_site_fract_y
_atom_site_fract_z
Si Si1 0.000000 0.195694 0.277660
Si Si2 0.651609 0.492236 0.111256
Si Si3 0.000000 0.284337 0.115553
Si Si4 0.764381 0.133680 0.575146
Si Si5 0.354710 0.405664 0.626912
Si Si6 0.500000 0.289166 0.065059
O O1 0.000000 0.218092 0.170141
O O2 0.866750 0.154702 0.304122
O O3 0.000000 0.261167 0.331468
O O4 0.500000 0.494466 0.151987
O O5 0.724267 0.427279 0.135362
O O6 0.735051 0.548367 0.159308
O O7 0.649221 0.500000 0.000000
O O8 0.866105 0.324753 0.137707
O O9 0.000000 0.268178 0.006117
O O10 0.835680 0.116417 0.478856
O O11 0.630095 0.169617 0.547894
O O12 0.500000 0.441185 0.629246
#
# Coordination Sequence:
#
# PCOD8264580 Si02
#       6
#     8  16   8  16  16   8
#     4  10  24  43  62 104 139 183 241 284 339 427
#     4   9  18  33  63 107 135 174 226 288 359 415
#     4  12  24  39  70  96 143 197 228 278 360 405
#     4  11  21  39  66 104 135 184 230 287 346 422
#     4   9  19  38  63 100 141 171 230 289 337 421
#     4  12  24  44  63  99 146 178 235 286 339 426
#
# _framework density 23.580493000000001
#
# number of rings (size 3 to 8) (size 9 to 14) (size 15 to 20)
#    0.667    1.111    4.444    0.667    3.111    2.222 
#    0.000    0.000    2.444    0.000   52.000    0.000 
#    0.000    0.000    0.000    0.000    0.000    0.000 
#
# Total GULP energy -446289.450918 kJ/mol
# GULP energy per Si atom -12396.929192 kJ/mol
# Density = 2.352682 g / cm^3
# Si number density = 23.580493 Si / 1000 Ang^3
#
#
#
# Elastic Constant Matrix: (Units=GPa)
#
#
# Indices 1 2 3 4 5 6 
#
# 1 186.5803 77.6235 26.7712 0.0000 0.0000 0.0000
# 2 77.6235 148.4623 24.6917 0.0000 0.0000 0.0000
# 3 26.7712 24.6917 39.2116 0.0000 0.0000 0.0000
# 4 0.0000 0.0000 0.0000 31.7101 0.0000 0.0000
# 5 0.0000 0.0000 0.0000 0.0000 3.9109 0.0000
# 6 0.0000 0.0000 0.0000 0.0000 0.0000 50.5558
#
#
#
# Elastic Compliance Matrix: (Units=1/GPa)
#
#
# Indices 1 2 3 4 5 6 
#
# 1 0.007116 -0.003253 -0.002810 0.000000 0.000000 0.000000
# 2 -0.003253 0.009011 -0.003453 0.000000 0.000000 0.000000
# 3 -0.002810 -0.003453 0.029595 0.000000 0.000000 0.000000
# 4 0.000000 0.000000 0.000000 0.031536 0.000000 0.000000
# 5 0.000000 0.000000 0.000000 0.000000 0.255693 0.000000
# 6 0.000000 0.000000 0.000000 0.000000 0.000000 0.019780
#
#
# Mechanical properties :
#
#
# Convention : Reuss Voigt Hill
#
# Bulk Modulus (GPa) = 37.46706 70.26968 53.86837
# Shear Modulus (GPa) = 13.13503 33.57989 23.35746
#
# Velocity S-wave (km/s) = 2.36271 3.77776 3.15070
# Velocity P-wave (km/s) = 4.83391 6.99237 6.01082
#
# Compressibility (1/GPa) = 0.02669011
#
# Stress axis : x y z
#
# Youngs Moduli (GPa) = 140.52182 110.97451 33.78894
#
# Poissons Ratio (x) = 0.36105 0.09494
# Poissons Ratio (y) = 0.45718 0.11668
# Poissons Ratio (z) = 0.39485 0.38320
#
# Static dielectric constant tensor:
#      x y z
#    x 4.374790 0.000000 0.000000 
#    y 0.000000 4.352140 0.000000 
#    z 0.000000 0.000000 3.602480 
# 
# 
# High freq. dielectric constant tensor:
#      x y z
#    x 1.943670 0.000000 0.000000 
#    y 0.000000 1.937140 0.000000 
#    z 0.000000 0.000000 1.901660 
# 
# From -- ./inp_files/29558.got.cif
#   From: 2010.03.12/outbox.cif.g09.slc.cpg/sg64_15_cif.got.tgz:29558.got - 2010.04.10 20:19:32.
