data_PCOD8264082
_publ_section_title
;
Structure prediction by ZEFSAII (Michael W. Deem and Ramdas Pophale) SiO2 
 PCOD8264082
Probable space group: C M C A
;
_chemical_formula_sum "Si O2"
_cell_formula_units_Z 56
_cell_length_a 21.034193
_cell_length_b 11.465238
_cell_length_c 12.013704
_cell_angle_alpha 90.000000
_cell_angle_beta 90.000000
_cell_angle_gamma 90.000000
_cell_volume 2897.249231
_symmetry_space_group_name_H-M "C M C A"
_symmetry_group_IT_number 64
_symmetry_cell_setting 'orthorhombic'
loop_
_space_group_symop_operation_xyz
x,y,z
-x,1/2-y,1/2+z
x,-y,-z
-x,1/2+y,1/2-z
-x,-y,-z
x,1/2+y,1/2-z
-x,y,z
x,1/2-y,1/2+z
1/2+x,1/2+y,z
1/2-x,-y,1/2+z
1/2+x,1/2-y,-z
1/2-x,y,1/2-z
1/2-x,1/2-y,-z
1/2+x,y,1/2-z
1/2-x,1/2+y,z
1/2+x,-y,1/2+z
loop_
_atom_site_type_symbol
_atom_site_label
_atom_site_fract_x
_atom_site_fract_y
_atom_site_fract_z
Si Si1 0.572791 0.954726 0.671674
Si Si2 0.625356 0.655471 0.962323
Si Si3 0.760328 0.500000 0.500000
Si Si4 0.861374 0.578822 0.097436
O O1 0.500000 0.923390 0.696378
O O2 0.603346 0.856870 0.590812
O O3 0.611731 0.958940 0.784974
O O4 0.577176 0.081900 0.614723
O O5 0.622835 0.787446 0.925288
O O6 0.696158 0.602059 0.947802
O O7 0.714989 0.444268 0.595880
O O8 0.893592 0.500000 0.000000
#
# Coordination Sequence:
#
# PCOD8264082 Si02
#       4
#    16  16   8  16
#     4  10  23  41  61  86 119 163 200 240 298 352
#     4  10  21  41  64  86 120 159 197 243 299 356
#     4   8  20  40  60  92 118 156 194 244 298 356
#     4  10  23  38  60  95 117 151 201 247 297 347
#
# _framework density 19.328678
#
# number of rings (size 3 to 8) (size 9 to 14) (size 15 to 20)
#    0.857    1.714    0.000    2.571    4.000    7.429 
#    0.000    5.714    0.000    0.000    0.000    0.000 
#    0.000    0.000    0.000    0.000    0.000    0.000 
#
# Total GULP energy -347060.240172 kJ/mol
# GULP energy per Si atom -12395.008578 kJ/mol
# Density = 1.928469 g / cm^3
# Si number density = 19.328678 Si / 1000 Ang^3
#
#
#
# Elastic Constant Matrix: (Units=GPa)
#
#
# Indices 1 2 3 4 5 6 
#
# 1 101.6250 7.2388 28.0053 0.0000 0.0000 0.0000
# 2 7.2388 96.5905 23.7336 0.0000 0.0000 0.0000
# 3 28.0053 23.7336 122.3130 0.0000 0.0000 0.0000
# 4 0.0000 0.0000 0.0000 16.3116 0.0000 0.0000
# 5 0.0000 0.0000 0.0000 0.0000 3.8258 0.0000
# 6 0.0000 0.0000 0.0000 0.0000 0.0000 6.6675
#
#
#
# Elastic Compliance Matrix: (Units=1/GPa)
#
#
# Indices 1 2 3 4 5 6 
#
# 1 0.010507 -0.000206 -0.002366 0.000000 0.000000 0.000000
# 2 -0.000206 0.010875 -0.002063 0.000000 0.000000 0.000000
# 3 -0.002366 -0.002063 0.009118 0.000000 0.000000 0.000000
# 4 0.000000 0.000000 0.000000 0.061306 0.000000 0.000000
# 5 0.000000 0.000000 0.000000 0.000000 0.261383 0.000000
# 6 0.000000 0.000000 0.000000 0.000000 0.000000 0.149981
#
#
# Mechanical properties :
#
#
# Convention : Reuss Voigt Hill
#
# Bulk Modulus (GPa) = 47.10300 48.72043 47.91172
# Shear Modulus (GPa) = 9.62433 22.79770 16.21101
#
# Velocity S-wave (km/s) = 2.23386 3.43807 2.89918
# Velocity P-wave (km/s) = 5.57457 6.40480 6.00406
#
# Compressibility (1/GPa) = 0.02123007
#
# Stress axis : x y z
#
# Youngs Moduli (GPa) = 95.17744 91.95101 109.67668
#
# Poissons Ratio (x) = 0.01895 0.25946
# Poissons Ratio (y) = 0.01962 0.22627
# Poissons Ratio (z) = 0.22516 0.18970
#
# Static dielectric constant tensor:
#      x y z
#    x 3.491370 0.000000 0.000000 
#    y 0.000000 3.379270 0.000000 
#    z 0.000000 0.000000 3.439590 
# 
# 
# High freq. dielectric constant tensor:
#      x y z
#    x 1.753710 0.000000 0.000000 
#    y 0.000000 1.744950 0.000000 
#    z 0.000000 0.000000 1.746220 
# 
# From -- ./inp_files/16689.got.cif
#   From: 2010.03.12/outbox.cif.g09.slc.cpg/sg64_9_cif.got.tgz:16689.got - 2010.04.10 20:19:32.
