data_PCOD8264592
_publ_section_title
;
Structure prediction by ZEFSAII (Michael W. Deem and Ramdas Pophale) SiO2 
 PCOD8264592
Probable space group: C M C A
;
_chemical_formula_sum "Si O2"
_cell_formula_units_Z 72
_cell_length_a 13.181586
_cell_length_b 8.568312
_cell_length_c 30.371691
_cell_angle_alpha 90.000000
_cell_angle_beta 90.000000
_cell_angle_gamma 90.000000
_cell_volume 3430.298492
_symmetry_space_group_name_H-M "C M C A"
_symmetry_group_IT_number 64
_symmetry_cell_setting 'orthorhombic'
loop_
_space_group_symop_operation_xyz
x,y,z
-x,1/2-y,1/2+z
x,-y,-z
-x,1/2+y,1/2-z
-x,-y,-z
x,1/2+y,1/2-z
-x,y,z
x,1/2-y,1/2+z
1/2+x,1/2+y,z
1/2-x,-y,1/2+z
1/2+x,1/2-y,-z
1/2-x,y,1/2-z
1/2-x,1/2-y,-z
1/2+x,y,1/2-z
1/2-x,1/2+y,z
1/2+x,-y,1/2+z
loop_
_atom_site_type_symbol
_atom_site_label
_atom_site_fract_x
_atom_site_fract_y
_atom_site_fract_z
Si Si1 0.683191 0.454004 0.455548
Si Si2 0.000000 0.550206 0.566943
Si Si3 0.672312 0.256127 0.098924
Si Si4 0.000000 0.748068 0.979902
Si Si5 0.250000 0.031596 0.750000
Si Si6 0.624577 0.717789 0.302178
O O1 0.751616 0.500000 0.500000
O O2 0.643213 0.604508 0.429403
O O3 0.725534 0.330458 0.420379
O O4 0.594636 0.364358 0.480142
O O5 0.903587 0.598970 0.595144
O O6 0.000000 0.643161 0.521855
O O7 0.000000 0.363782 0.562220
O O8 0.672712 0.205884 0.149336
O O9 0.326371 0.130132 0.719728
O O10 0.330815 0.932666 0.777853
O O11 0.500000 0.720359 0.301617
#
# Coordination Sequence:
#
# PCOD8264592 Si02
#       6
#    16   8  16   8   8  16
#     4  12  24  40  60  90 128 176 219 270 315 382
#     4  11  23  40  59  88 122 170 219 274 311 377
#     4  12  24  40  64  91 128 165 216 267 323 380
#     4  11  24  39  60  85 123 175 230 261 320 376
#     4  10  24  44  72 102 130 166 214 264 338 414
#     4  11  23  45  71  99 133 170 212 271 334 401
#
# _framework density 20.989428
#
# number of rings (size 3 to 8) (size 9 to 14) (size 15 to 20)
#    0.000    0.667    3.333    5.000    3.111    0.000 
#    0.000    0.000    2.444    0.000    0.000    0.000 
#    0.000    0.000    0.000    0.000    0.000    0.000 
#
# Total GULP energy -445998.936488 kJ/mol
# GULP energy per Si atom -12388.859347 kJ/mol
# Density = 2.094165 g / cm^3
# Si number density = 20.989428 Si / 1000 Ang^3
#
#
#
# Elastic Constant Matrix: (Units=GPa)
#
#
# Indices 1 2 3 4 5 6 
#
# 1 99.6419 26.6233 40.2295 0.0000 0.0000 0.0000
# 2 26.6233 122.1384 53.5350 0.0000 0.0000 0.0000
# 3 40.2295 53.5350 158.0854 0.0000 0.0000 0.0000
# 4 0.0000 0.0000 0.0000 451.4333 0.0000 0.0000
# 5 0.0000 0.0000 0.0000 0.0000 29.5527 0.0000
# 6 0.0000 0.0000 0.0000 0.0000 0.0000 29.8077
#
#
#
# Elastic Compliance Matrix: (Units=1/GPa)
#
#
# Indices 1 2 3 4 5 6 
#
# 1 0.011392 -0.001424 -0.002417 0.000000 0.000000 0.000000
# 2 -0.001424 0.009793 -0.002954 0.000000 0.000000 0.000000
# 3 -0.002417 -0.002954 0.007941 0.000000 0.000000 0.000000
# 4 0.000000 0.000000 0.000000 0.002215 0.000000 0.000000
# 5 0.000000 0.000000 0.000000 0.000000 0.033838 0.000000
# 6 0.000000 0.000000 0.000000 0.000000 0.000000 0.033548
#
#
# Mechanical properties :
#
#
# Convention : Reuss Voigt Hill
#
# Bulk Modulus (GPa) = 64.36444 68.96015 66.66230
# Shear Modulus (GPa) = 42.55494 119.45727 81.00611
#
# Velocity S-wave (km/s) = 4.50760 7.55226 6.21913
# Velocity P-wave (km/s) = 7.60415 10.43910 9.13230
#
# Compressibility (1/GPa) = 0.01553653
#
# Stress axis : x y z
#
# Youngs Moduli (GPa) = 87.77950 102.11881 125.92784
#
# Poissons Ratio (x) = 0.14540 0.30435
# Poissons Ratio (y) = 0.12499 0.37197
# Poissons Ratio (z) = 0.21215 0.30164
#
# Static dielectric constant tensor:
#      x y z
#    x 3.354570 0.000000 0.000000 
#    y 0.000000 4.169260 0.000000 
#    z 0.000000 0.000000 3.925810 
# 
# 
# High freq. dielectric constant tensor:
#      x y z
#    x 1.817210 0.000000 0.000000 
#    y 0.000000 1.846090 0.000000 
#    z 0.000000 0.000000 1.824810 
# 
# From -- ./inp_files/49854.got.cif
#   From: 2010.03.12/outbox.cif.g09.slc.cpg/sg64_25_cif.got.tgz:49854.got - 2010.04.10 20:19:32.
