data_PCOD8264382
_publ_section_title
;
Structure prediction by ZEFSAII (Michael W. Deem and Ramdas Pophale) SiO2 
 PCOD8264382
Probable space group: C M C A
;
_chemical_formula_sum "Si O2"
_cell_formula_units_Z 64
_cell_length_a 19.766333
_cell_length_b 11.450596
_cell_length_c 10.996754
_cell_angle_alpha 90.000000
_cell_angle_beta 90.000000
_cell_angle_gamma 90.000000
_cell_volume 2488.964542
_symmetry_space_group_name_H-M "C M C A"
_symmetry_group_IT_number 64
_symmetry_cell_setting 'orthorhombic'
loop_
_space_group_symop_operation_xyz
x,y,z
-x,1/2-y,1/2+z
x,-y,-z
-x,1/2+y,1/2-z
-x,-y,-z
x,1/2+y,1/2-z
-x,y,z
x,1/2-y,1/2+z
1/2+x,1/2+y,z
1/2-x,-y,1/2+z
1/2+x,1/2-y,-z
1/2-x,y,1/2-z
1/2-x,1/2-y,-z
1/2+x,y,1/2-z
1/2-x,1/2+y,z
1/2+x,-y,1/2+z
loop_
_atom_site_type_symbol
_atom_site_label
_atom_site_fract_x
_atom_site_fract_y
_atom_site_fract_z
Si Si1 0.575755 0.980790 0.651621
Si Si2 0.426363 0.731359 0.921774
Si Si3 0.323885 0.795744 0.718032
Si Si4 0.879195 0.407369 0.100687
O O1 0.500000 0.926247 0.639526
O O2 0.635836 0.886671 0.631977
O O3 0.584274 0.090543 0.556021
O O4 0.581873 0.031709 0.789035
O O5 0.500000 0.745405 0.858012
O O6 0.366967 0.782802 0.840306
O O7 0.428351 0.808023 0.044332
O O8 0.250000 0.845730 0.750000
O O9 0.315753 0.669345 0.651725
O O10 0.854323 0.500000 0.000000
#
# Coordination Sequence:
#
# PCOD8264382 Si02
#       4
#    16  16  16  16
#     4  10  22  42  68  98 136 177 225 290 344 399
#     4  10  22  42  68 100 132 174 231 285 338 397
#     4  11  25  43  67  97 141 179 221 282 344 410
#     4  11  23  43  69 100 127 180 232 280 338 404
#
# _framework density 25.713505000000001
#
# number of rings (size 3 to 8) (size 9 to 14) (size 15 to 20)
#    0.000    1.500    2.500    1.500    0.000   10.000 
#    0.000    2.500    0.000    0.000    0.000    0.000 
#    0.000    0.000    0.000    0.000    0.000    0.000 
#
# Total GULP energy -396580.730244 kJ/mol
# GULP energy per Si atom -12393.147820 kJ/mol
# Density = 2.565498 g / cm^3
# Si number density = 25.713505 Si / 1000 Ang^3
#
#
#
# Elastic Constant Matrix: (Units=GPa)
#
#
# Indices 1 2 3 4 5 6 
#
# 1 181.9912 56.5018 33.7801 0.0000 0.0000 0.0000
# 2 56.5018 154.2018 44.3143 0.0000 0.0000 0.0000
# 3 33.7801 44.3143 75.7232 0.0000 0.0000 0.0000
# 4 0.0000 0.0000 0.0000 67.1223 0.0000 0.0000
# 5 0.0000 0.0000 0.0000 0.0000 23.4974 0.0000
# 6 0.0000 0.0000 0.0000 0.0000 0.0000 26.1536
#
#
#
# Elastic Compliance Matrix: (Units=1/GPa)
#
#
# Indices 1 2 3 4 5 6 
#
# 1 0.006394 -0.001831 -0.001781 0.000000 0.000000 0.000000
# 2 -0.001831 0.008321 -0.004052 0.000000 0.000000 0.000000
# 3 -0.001781 -0.004052 0.016372 0.000000 0.000000 0.000000
# 4 0.000000 0.000000 0.000000 0.014898 0.000000 0.000000
# 5 0.000000 0.000000 0.000000 0.000000 0.042558 0.000000
# 6 0.000000 0.000000 0.000000 0.000000 0.000000 0.038236
#
#
# Mechanical properties :
#
#
# Convention : Reuss Voigt Hill
#
# Bulk Modulus (GPa) = 63.46064 75.67873 69.56969
# Shear Modulus (GPa) = 33.93077 41.84267 37.88672
#
# Velocity S-wave (km/s) = 3.63653 4.03831 3.84268
# Velocity P-wave (km/s) = 6.50891 7.15817 6.84125
#
# Compressibility (1/GPa) = 0.01575780
#
# Stress axis : x y z
#
# Youngs Moduli (GPa) = 156.40233 120.18488 61.08018
#
# Poissons Ratio (x) = 0.22006 0.10877
# Poissons Ratio (y) = 0.28638 0.24753
# Poissons Ratio (z) = 0.27851 0.48704
#
# Static dielectric constant tensor:
#      x y z
#    x 4.027450 0.000000 0.000000 
#    y 0.000000 5.261360 0.000000 
#    z 0.000000 0.000000 4.988970 
# 
# 
# High freq. dielectric constant tensor:
#      x y z
#    x 1.981510 0.000000 0.000000 
#    y 0.000000 2.056990 0.000000 
#    z 0.000000 0.000000 2.056940 
# 
# From -- ./inp_files/16781.got.cif
#   From: 2010.03.12/outbox.cif.g09.slc.cpg/sg64_9_cif.got.tgz:16781.got - 2010.04.10 20:19:32.
