data_PCOD8264410
_publ_section_title
;
Structure prediction by ZEFSAII (Michael W. Deem and Ramdas Pophale) SiO2 
 PCOD8264410
Probable space group: C M C A
;
_chemical_formula_sum "Si O2"
_cell_formula_units_Z 96
_cell_length_a 25.916799
_cell_length_b 9.800954
_cell_length_c 20.532155
_cell_angle_alpha 90.000000
_cell_angle_beta 90.000000
_cell_angle_gamma 90.000000
_cell_volume 5215.359445
_symmetry_space_group_name_H-M "C M C A"
_symmetry_group_IT_number 64
_symmetry_cell_setting 'orthorhombic'
loop_
_space_group_symop_operation_xyz
x,y,z
-x,1/2-y,1/2+z
x,-y,-z
-x,1/2+y,1/2-z
-x,-y,-z
x,1/2+y,1/2-z
-x,y,z
x,1/2-y,1/2+z
1/2+x,1/2+y,z
1/2-x,-y,1/2+z
1/2+x,1/2-y,-z
1/2-x,y,1/2-z
1/2-x,1/2-y,-z
1/2+x,y,1/2-z
1/2-x,1/2+y,z
1/2+x,-y,1/2+z
loop_
_atom_site_type_symbol
_atom_site_label
_atom_site_fract_x
_atom_site_fract_y
_atom_site_fract_z
Si Si1 0.121261 0.351149 0.014763
Si Si2 0.355958 0.528467 0.156834
Si Si3 0.298516 0.290349 0.382139
Si Si4 0.303729 0.022031 0.214837
Si Si5 0.560235 0.899577 0.558617
Si Si6 0.684251 0.248304 0.107285
O O1 0.163686 0.372577 0.070537
O O2 0.074993 0.254028 0.038330
O O3 0.097388 0.500000 0.000000
O O4 0.149209 0.284257 0.953804
O O5 0.315987 0.633752 0.124363
O O6 0.352019 0.540010 0.235377
O O7 0.412287 0.558845 0.126653
O O8 0.340668 0.375147 0.142965
O O9 0.299704 0.367180 0.312304
O O10 0.241956 0.289462 0.414168
O O11 0.250000 0.059704 0.250000
O O12 0.313734 0.121721 0.155494
O O13 0.500000 0.908344 0.572633
O O14 0.577095 0.000000 0.500000
#
# Coordination Sequence:
#
# PCOD8264410 Si02
#       6
#    16  16  16  16  16  16
#     4  11  23  39  58  91 118 155 202 254 305 351
#     4  11  23  35  60  88 117 155 207 238 292 355
#     4  11  22  36  55  83 127 167 199 232 286 355
#     4  12  22  36  56  83 127 171 197 230 283 363
#     4  10  22  44  68  86 108 149 203 260 307 348
#     4  12  21  37  55  86 127 166 194 242 287 358
#
# _framework density 18.407169
#
# number of rings (size 3 to 8) (size 9 to 14) (size 15 to 20)
#    0.000    0.833    6.667    1.500    0.000    0.333 
#    0.000    0.000    0.000   10.000    0.000    0.000 
#    0.000    0.000    0.000    0.000    0.000    0.000 
#
# Total GULP energy -595223.450255 kJ/mol
# GULP energy per Si atom -12400.488547 kJ/mol
# Density = 1.836527 g / cm^3
# Si number density = 18.407169 Si / 1000 Ang^3
#
#
#
# Elastic Constant Matrix: (Units=GPa)
#
#
# Indices 1 2 3 4 5 6 
#
# 1 82.3725 19.9003 28.4778 0.0000 0.0000 0.0000
# 2 19.9003 76.6086 2.0261 0.0000 0.0000 0.0000
# 3 28.4778 2.0261 71.0513 0.0000 0.0000 0.0000
# 4 0.0000 0.0000 0.0000 -11.7498 0.0000 0.0000
# 5 0.0000 0.0000 0.0000 0.0000 17.0717 0.0000
# 6 0.0000 0.0000 0.0000 0.0000 0.0000 17.7082
#
#
#
# Elastic Compliance Matrix: (Units=1/GPa)
#
#
# Indices 1 2 3 4 5 6 
#
# 1 0.015106 -0.003767 -0.005947 0.000000 0.000000 0.000000
# 2 -0.003767 0.014002 0.001110 0.000000 0.000000 0.000000
# 3 -0.005947 0.001110 0.016426 0.000000 0.000000 0.000000
# 4 0.000000 0.000000 0.000000 -0.085108 0.000000 0.000000
# 5 0.000000 0.000000 0.000000 0.000000 0.058576 0.000000
# 6 0.000000 0.000000 0.000000 0.000000 0.000000 0.056471
#
#
# Mechanical properties :
#
#
# Convention : Reuss Voigt Hill
#
# Bulk Modulus (GPa) = 35.30091 36.76009 36.03050
# Shear Modulus (GPa) = 48.96022 16.58125 32.77073
#
# Velocity S-wave (km/s) = 5.16296 3.00460 4.22397
# Velocity P-wave (km/s) = 7.40007 5.66133 6.58831
#
# Compressibility (1/GPa) = 0.02832788
#
# Stress axis : x y z
#
# Youngs Moduli (GPa) = 66.19872 71.41602 60.87777
#
# Poissons Ratio (x) = 0.26901 0.36205
# Poissons Ratio (y) = 0.24935 -0.06760
# Poissons Ratio (z) = 0.39370 -0.07930
#
# Static dielectric constant tensor:
#      x y z
#    x 3.132990 0.000000 0.000000 
#    y 0.000000 3.547690 0.000000 
#    z 0.000000 0.000000 3.823670 
# 
# 
# High freq. dielectric constant tensor:
#      x y z
#    x 1.678890 0.000000 0.000000 
#    y 0.000000 1.736690 0.000000 
#    z 0.000000 0.000000 1.717560 
# 
# From -- ./inp_files/41782.got.cif
#   From: 2010.03.12/outbox.cif.g09.slc.cpg/sg64_21_cif.got.tgz:41782.got - 2010.04.10 20:19:32.
