data_PCOD8264289
_publ_section_title
;
Structure prediction by ZEFSAII (Michael W. Deem and Ramdas Pophale) SiO2 
 PCOD8264289
Probable space group: C M C A
;
_chemical_formula_sum "Si O2"
_cell_formula_units_Z 40
_cell_length_a 23.558334
_cell_length_b 4.992876
_cell_length_c 15.271810
_cell_angle_alpha 90.000000
_cell_angle_beta 90.000000
_cell_angle_gamma 90.000000
_cell_volume 1796.328942
_symmetry_space_group_name_H-M "C M C A"
_symmetry_group_IT_number 64
_symmetry_cell_setting 'orthorhombic'
loop_
_space_group_symop_operation_xyz
x,y,z
-x,1/2-y,1/2+z
x,-y,-z
-x,1/2+y,1/2-z
-x,-y,-z
x,1/2+y,1/2-z
-x,y,z
x,1/2-y,1/2+z
1/2+x,1/2+y,z
1/2-x,-y,1/2+z
1/2+x,1/2-y,-z
1/2-x,y,1/2-z
1/2-x,1/2-y,-z
1/2+x,y,1/2-z
1/2-x,1/2+y,z
1/2+x,-y,1/2+z
loop_
_atom_site_type_symbol
_atom_site_label
_atom_site_fract_x
_atom_site_fract_y
_atom_site_fract_z
Si Si1 0.901260 0.378146 0.306828
Si Si2 0.500000 0.255139 0.062185
Si Si3 0.714673 0.014121 0.602185
O O1 0.911114 0.682442 0.275951
O O2 0.943980 0.273493 0.379768
O O3 0.838253 0.370061 0.345077
O O4 0.500000 0.500000 0.000000
O O5 0.500000 0.000000 0.000000
O O6 0.766449 0.213888 0.627012
O O7 0.699163 0.000000 0.500000
#
# Coordination Sequence:
#
# PCOD8264289 Si02
#       3
#    16   8  16
#     4  12  25  42  66  97 132 165 211 271 327 379
#     4  12  26  46  70  92 124 170 218 262 320 392
#     4  10  22  40  63  92 129 172 215 256 307 378
#
# _framework density 22.267638000000002
#
# number of rings (size 3 to 8) (size 9 to 14) (size 15 to 20)
#    0.000    0.800    0.000    7.200    0.000    9.600 
#    0.000    0.000    0.000    0.000    0.000    0.000 
#    0.000    0.000    0.000    0.000    0.000    0.000 
#
# Total GULP energy -247971.615620 kJ/mol
# GULP energy per Si atom -12398.580781 kJ/mol
# Density = 2.221696 g / cm^3
# Si number density = 22.267638 Si / 1000 Ang^3
#
#
#
# Elastic Constant Matrix: (Units=GPa)
#
#
# Indices 1 2 3 4 5 6 
#
# 1 108.5148 29.2389 60.9245 0.0000 0.0000 0.0000
# 2 29.2389 138.2532 45.5677 0.0000 0.0000 0.0000
# 3 60.9245 45.5677 96.4985 0.0000 0.0000 0.0000
# 4 0.0000 0.0000 0.0000 58.8220 0.0000 0.0000
# 5 0.0000 0.0000 0.0000 0.0000 38.3242 0.0000
# 6 0.0000 0.0000 0.0000 0.0000 0.0000 33.9633
#
#
#
# Elastic Compliance Matrix: (Units=1/GPa)
#
#
# Indices 1 2 3 4 5 6 
#
# 1 0.014276 -0.000057 -0.008986 0.000000 0.000000 0.000000
# 2 -0.000057 0.008567 -0.004009 0.000000 0.000000 0.000000
# 3 -0.008986 -0.004009 0.017929 0.000000 0.000000 0.000000
# 4 0.000000 0.000000 0.000000 0.017000 0.000000 0.000000
# 5 0.000000 0.000000 0.000000 0.000000 0.026093 0.000000
# 6 0.000000 0.000000 0.000000 0.000000 0.000000 0.029444
#
#
# Mechanical properties :
#
#
# Convention : Reuss Voigt Hill
#
# Bulk Modulus (GPa) = 68.18054 68.30318 68.24186
# Shear Modulus (GPa) = 34.64937 40.05758 37.35347
#
# Velocity S-wave (km/s) = 3.94895 4.24596 4.10015
# Velocity P-wave (km/s) = 7.17478 7.40121 7.28887
#
# Compressibility (1/GPa) = 0.01466694
#
# Stress axis : x y z
#
# Youngs Moduli (GPa) = 70.04816 116.73241 55.77473
#
# Poissons Ratio (x) = 0.00670 0.50119
# Poissons Ratio (y) = 0.00402 0.22360
# Poissons Ratio (z) = 0.62945 0.46798
#
# Static dielectric constant tensor:
#      x y z
#    x 3.881480 0.000000 0.000000 
#    y 0.000000 4.269740 0.000000 
#    z 0.000000 0.000000 4.216810 
# 
# 
# High freq. dielectric constant tensor:
#      x y z
#    x 1.879880 0.000000 0.000000 
#    y 0.000000 1.896840 0.000000 
#    z 0.000000 0.000000 1.886440 
# 
# From -- ./inp_files/26823.got.cif
#   From: 2010.03.12/outbox.cif.g09.slc.cpg/sg64_14_cif.got.tgz:26823.got - 2010.04.10 20:19:32.
