data_PCOD8264057
_publ_section_title
;
Structure prediction by ZEFSAII (Michael W. Deem and Ramdas Pophale) SiO2 
 PCOD8264057
Probable space group: C M C A
;
_chemical_formula_sum "Si O2"
_cell_formula_units_Z 72
_cell_length_a 14.706932
_cell_length_b 13.940201
_cell_length_c 16.031451
_cell_angle_alpha 90.000000
_cell_angle_beta 90.000000
_cell_angle_gamma 90.000000
_cell_volume 3286.729419
_symmetry_space_group_name_H-M "C M C A"
_symmetry_group_IT_number 64
_symmetry_cell_setting 'orthorhombic'
loop_
_space_group_symop_operation_xyz
x,y,z
-x,1/2-y,1/2+z
x,-y,-z
-x,1/2+y,1/2-z
-x,-y,-z
x,1/2+y,1/2-z
-x,y,z
x,1/2-y,1/2+z
1/2+x,1/2+y,z
1/2-x,-y,1/2+z
1/2+x,1/2-y,-z
1/2-x,y,1/2-z
1/2-x,1/2-y,-z
1/2+x,y,1/2-z
1/2-x,1/2+y,z
1/2+x,-y,1/2+z
loop_
_atom_site_type_symbol
_atom_site_label
_atom_site_fract_x
_atom_site_fract_y
_atom_site_fract_z
Si Si1 0.000000 0.187169 0.459172
Si Si2 0.808186 0.364509 0.574617
Si Si3 0.821576 0.483059 0.814755
Si Si4 0.000000 0.357278 0.590519
Si Si5 0.832175 0.854251 0.442644
Si Si6 0.000000 0.129050 0.275353
O O1 0.000000 0.283952 0.512730
O O2 0.908550 0.130540 0.485289
O O3 0.000000 0.197997 0.357820
O O4 0.734890 0.399396 0.640212
O O5 0.906410 0.418731 0.579958
O O6 0.831344 0.252881 0.594557
O O7 0.766793 0.376934 0.482026
O O8 0.750000 0.528602 0.750000
O O9 0.854568 0.569753 0.872122
O O10 0.910844 0.437876 0.773835
O O11 0.000000 0.313921 0.686526
#
# Coordination Sequence:
#
# PCOD8264057 Si02
#       6
#     8  16  16   8  16   8
#     4  10  21  40  67  97 127 170 216 277 317 387
#     4  10  21  41  65  90 130 169 212 275 322 385
#     4  12  24  40  64  96 131 171 215 273 328 388
#     4  10  22  42  62  96 134 170 218 265 333 393
#     4  10  22  40  65  99 122 167 228 262 331 393
#     4  12  23  40  68  96 130 174 219 270 331 383
#
# _framework density 21.906275000000001
#
# number of rings (size 3 to 8) (size 9 to 14) (size 15 to 20)
#    0.000    1.333    4.444    1.333    0.000    1.778 
#    0.000    3.333    0.000    0.000    0.000    0.000 
#    0.000    0.000    0.000    0.000    0.000    0.000 
#
# Total GULP energy -446003.606726 kJ/mol
# GULP energy per Si atom -12388.989076 kJ/mol
# Density = 2.185642 g / cm^3
# Si number density = 21.906275 Si / 1000 Ang^3
#
#
#
# Elastic Constant Matrix: (Units=GPa)
#
#
# Indices 1 2 3 4 5 6 
#
# 1 150.5737 4.4261 3.7422 0.0000 0.0000 0.0000
# 2 4.4261 34.9627 4.6289 0.0000 0.0000 0.0000
# 3 3.7422 4.6289 84.1804 0.0000 0.0000 0.0000
# 4 0.0000 0.0000 0.0000 21.7468 0.0000 0.0000
# 5 0.0000 0.0000 0.0000 0.0000 41.3518 0.0000
# 6 0.0000 0.0000 0.0000 0.0000 0.0000 9.5208
#
#
#
# Elastic Compliance Matrix: (Units=1/GPa)
#
#
# Indices 1 2 3 4 5 6 
#
# 1 0.006671 -0.000811 -0.000252 0.000000 0.000000 0.000000
# 2 -0.000811 0.028910 -0.001554 0.000000 0.000000 0.000000
# 3 -0.000252 -0.001554 0.011976 0.000000 0.000000 0.000000
# 4 0.000000 0.000000 0.000000 0.045984 0.000000 0.000000
# 5 0.000000 0.000000 0.000000 0.000000 0.024183 0.000000
# 6 0.000000 0.000000 0.000000 0.000000 0.000000 0.105033
#
#
# Mechanical properties :
#
#
# Convention : Reuss Voigt Hill
#
# Bulk Modulus (GPa) = 23.62733 32.81236 28.21985
# Shear Modulus (GPa) = 20.65273 31.65185 26.15229
#
# Velocity S-wave (km/s) = 3.07380 3.80528 3.45893
# Velocity P-wave (km/s) = 4.83805 5.85815 5.37236
#
# Compressibility (1/GPa) = 0.04232386
#
# Stress axis : x y z
#
# Youngs Moduli (GPa) = 149.89420 34.58979 83.50110
#
# Poissons Ratio (x) = 0.02806 0.02104
# Poissons Ratio (y) = 0.12160 0.12973
# Poissons Ratio (z) = 0.03777 0.05374
#
# Static dielectric constant tensor:
#      x y z
#    x 4.960050 0.000000 0.000000 
#    y 0.000000 3.462900 0.000000 
#    z 0.000000 0.000000 4.041740 
# 
# 
# High freq. dielectric constant tensor:
#      x y z
#    x 1.900990 0.000000 0.000000 
#    y 0.000000 1.810840 0.000000 
#    z 0.000000 0.000000 1.859790 
# 
# From -- ./inp_files/23553.got.cif
#   From: 2010.03.12/outbox.cif.g09.slc.cpg/sg64_12_cif.got.tgz:23553.got - 2010.04.10 20:19:32.
