data_PCOD8264717
_publ_section_title
;
Structure prediction by ZEFSAII (Michael W. Deem and Ramdas Pophale) SiO2 
 PCOD8264717
Probable space group: C M C A
;
_chemical_formula_sum "Si O2"
_cell_formula_units_Z 96
_cell_length_a 13.982527
_cell_length_b 20.389473
_cell_length_c 15.756842
_cell_angle_alpha 90.000000
_cell_angle_beta 90.000000
_cell_angle_gamma 90.000000
_cell_volume 4492.218248
_symmetry_space_group_name_H-M "C M C A"
_symmetry_group_IT_number 64
_symmetry_cell_setting 'orthorhombic'
loop_
_space_group_symop_operation_xyz
x,y,z
-x,1/2-y,1/2+z
x,-y,-z
-x,1/2+y,1/2-z
-x,-y,-z
x,1/2+y,1/2-z
-x,y,z
x,1/2-y,1/2+z
1/2+x,1/2+y,z
1/2-x,-y,1/2+z
1/2+x,1/2-y,-z
1/2-x,y,1/2-z
1/2-x,1/2-y,-z
1/2+x,y,1/2-z
1/2-x,1/2+y,z
1/2+x,-y,1/2+z
loop_
_atom_site_type_symbol
_atom_site_label
_atom_site_fract_x
_atom_site_fract_y
_atom_site_fract_z
Si Si1 0.696326 0.151772 0.510884
Si Si2 0.274389 0.938443 0.340005
Si Si3 0.104519 0.931044 0.861616
Si Si4 0.894568 0.488075 0.901187
Si Si5 0.848302 0.864741 0.701069
Si Si6 0.890484 0.211198 0.454066
O O1 0.675827 0.111561 0.596319
O O2 0.665396 0.108995 0.430237
O O3 0.808807 0.169610 0.502979
O O4 0.627198 0.213990 0.519914
O O5 0.250000 0.905525 0.250000
O O6 0.338871 0.003862 0.332943
O O7 0.168015 0.952098 0.370979
O O8 0.083249 0.887404 0.777478
O O9 0.000000 0.949348 0.899244
O O10 0.844012 0.420140 0.873026
O O11 0.000000 0.490315 0.859914
O O12 0.901478 0.500000 0.000000
O O13 0.750000 0.852236 0.750000
O O14 0.880488 0.799787 0.648731
O O15 0.000000 0.191443 0.480893
#
# Coordination Sequence:
#
# PCOD8264717 Si02
#       6
#    16  16  16  16  16  16
#     4  11  26  44  67  98 132 170 222 280 333 395
#     4  12  24  41  63  95 136 172 208 265 330 396
#     4  12  23  41  68  97 132 175 222 269 331 403
#     4  11  21  36  63  96 128 165 211 266 325 387
#     4  12  21  40  67  97 131 173 221 271 325 393
#     4  11  24  46  70  93 127 173 225 277 331 396
#
# _framework density 21.370287999999999
#
# number of rings (size 3 to 8) (size 9 to 14) (size 15 to 20)
#    0.000    0.500    5.000    4.500    0.000    4.667 
#    0.000    0.000    0.000    0.000    0.000    0.000 
#    0.000    0.000    0.000    0.000    0.000    0.000 
#
# Total GULP energy -594643.320581 kJ/mol
# GULP energy per Si atom -12388.402512 kJ/mol
# Density = 2.132165 g / cm^3
# Si number density = 21.370288 Si / 1000 Ang^3
#
#
#
# Elastic Constant Matrix: (Units=GPa)
#
#
# Indices 1 2 3 4 5 6 
#
# 1 135.8112 14.7348 19.5755 0.0000 0.0000 0.0000
# 2 14.7348 54.4186 36.3235 0.0000 0.0000 0.0000
# 3 19.5755 36.3235 106.5223 0.0000 0.0000 0.0000
# 4 0.0000 0.0000 0.0000 32.3419 0.0000 0.0000
# 5 0.0000 0.0000 0.0000 0.0000 23.7356 0.0000
# 6 0.0000 0.0000 0.0000 0.0000 0.0000 17.2374
#
#
#
# Elastic Compliance Matrix: (Units=1/GPa)
#
#
# Indices 1 2 3 4 5 6 
#
# 1 0.007653 -0.001467 -0.000906 0.000000 0.000000 0.000000
# 2 -0.001467 0.024073 -0.007939 0.000000 0.000000 0.000000
# 3 -0.000906 -0.007939 0.012261 0.000000 0.000000 0.000000
# 4 0.000000 0.000000 0.000000 0.030920 0.000000 0.000000
# 5 0.000000 0.000000 0.000000 0.000000 0.042131 0.000000
# 6 0.000000 0.000000 0.000000 0.000000 0.000000 0.058013
#
#
# Mechanical properties :
#
#
# Convention : Reuss Voigt Hill
#
# Bulk Modulus (GPa) = 42.80438 48.66886 45.73662
# Shear Modulus (GPa) = 24.57452 29.73753 27.15603
#
# Velocity S-wave (km/s) = 3.39475 3.73438 3.56861
# Velocity P-wave (km/s) = 5.95308 6.43565 6.19906
#
# Compressibility (1/GPa) = 0.02336210
#
# Stress axis : x y z
#
# Youngs Moduli (GPa) = 130.66841 41.54115 81.55727
#
# Poissons Ratio (x) = 0.06096 0.07389
# Poissons Ratio (y) = 0.19175 0.64748
# Poissons Ratio (z) = 0.11838 0.32979
#
# Static dielectric constant tensor:
#      x y z
#    x 4.496520 0.000000 0.000000 
#    y 0.000000 3.772550 0.000000 
#    z 0.000000 0.000000 3.843020 
# 
# 
# High freq. dielectric constant tensor:
#      x y z
#    x 1.858010 0.000000 0.000000 
#    y 0.000000 1.809790 0.000000 
#    z 0.000000 0.000000 1.844350 
# 
# From -- ./inp_files/23953.got.cif
#   From: 2010.03.12/outbox.cif.g09.slc.cpg/sg64_12_cif.got.tgz:23953.got - 2010.04.10 20:19:32.
