data_PCOD8264418
_publ_section_title
;
Structure prediction by ZEFSAII (Michael W. Deem and Ramdas Pophale) SiO2 
 PCOD8264418
Probable space group: C M C A
;
_chemical_formula_sum "Si O2"
_cell_formula_units_Z 112
_cell_length_a 13.886238
_cell_length_b 23.150191
_cell_length_c 15.870678
_cell_angle_alpha 90.000000
_cell_angle_beta 90.000000
_cell_angle_gamma 90.000000
_cell_volume 5101.931970
_symmetry_space_group_name_H-M "C M C A"
_symmetry_group_IT_number 64
_symmetry_cell_setting 'orthorhombic'
loop_
_space_group_symop_operation_xyz
x,y,z
-x,1/2-y,1/2+z
x,-y,-z
-x,1/2+y,1/2-z
-x,-y,-z
x,1/2+y,1/2-z
-x,y,z
x,1/2-y,1/2+z
1/2+x,1/2+y,z
1/2-x,-y,1/2+z
1/2+x,1/2-y,-z
1/2-x,y,1/2-z
1/2-x,1/2-y,-z
1/2+x,y,1/2-z
1/2-x,1/2+y,z
1/2+x,-y,1/2+z
loop_
_atom_site_type_symbol
_atom_site_label
_atom_site_fract_x
_atom_site_fract_y
_atom_site_fract_z
Si Si1 0.894116 0.998862 0.098946
Si Si2 0.111476 0.293428 0.372805
Si Si3 0.885722 0.154793 0.547960
Si Si4 0.384765 0.883892 0.684455
Si Si5 0.888484 0.784324 0.934503
Si Si6 0.267081 0.398579 0.159353
Si Si7 0.614190 0.835900 0.859320
O O1 0.848425 0.056389 0.142513
O O2 0.000000 0.989064 0.139414
O O3 0.828263 0.944085 0.109274
O O4 0.905628 0.000000 0.000000
O O5 0.125945 0.307770 0.471429
O O6 0.174139 0.339793 0.322961
O O7 0.151158 0.229899 0.349696
O O8 0.000000 0.299768 0.346785
O O9 0.847039 0.219200 0.571780
O O10 0.832672 0.110432 0.609313
O O11 0.855426 0.140086 0.451242
O O12 0.000000 0.149022 0.560342
O O13 0.500000 0.881569 0.678881
O O14 0.339853 0.830048 0.630459
O O15 0.348377 0.876251 0.781880
O O16 0.000000 0.779738 0.911854
O O17 0.250000 0.426573 0.250000
O O18 0.500000 0.832949 0.856671
#
# Coordination Sequence:
#
# PCOD8264418 Si02
#       7
#    16  16  16  16  16  16  16
#     4  10  22  44  70  91 119 162 210 265 318 359
#     4   9  18  35  59  87 125 163 194 246 312 370
#     4   9  20  39  60  87 129 170 199 243 307 376
#     4   9  16  30  61  95 118 149 202 256 301 362
#     4   8  15  30  59  95 123 154 199 245 303 366
#     4  12  26  39  58  91 128 161 212 252 301 373
#     4   8  16  32  58  93 123 157 202 245 307 377
#
# _framework density 21.952468
#
# number of rings (size 3 to 8) (size 9 to 14) (size 15 to 20)
#    0.000    2.714    0.000    3.000    2.000    5.714 
#    2.571    0.000    0.000    0.429    0.000    0.000 
#    0.000    0.000    0.000    0.000    0.000    0.000 
#
# Total GULP energy -694150.115422 kJ/mol
# GULP energy per Si atom -12395.537775 kJ/mol
# Density = 2.190250 g / cm^3
# Si number density = 21.952468 Si / 1000 Ang^3
#
#
#
# Elastic Constant Matrix: (Units=GPa)
#
#
# Indices 1 2 3 4 5 6 
#
# 1 48.9489 35.8764 27.7550 0.0000 0.0000 0.0000
# 2 35.8764 99.8873 49.6056 0.0000 0.0000 0.0000
# 3 27.7550 49.6056 104.8876 0.0000 0.0000 0.0000
# 4 0.0000 0.0000 0.0000 37.4026 0.0000 0.0000
# 5 0.0000 0.0000 0.0000 0.0000 18.1350 0.0000
# 6 0.0000 0.0000 0.0000 0.0000 0.0000 17.5056
#
#
#
# Elastic Compliance Matrix: (Units=1/GPa)
#
#
# Indices 1 2 3 4 5 6 
#
# 1 0.028709 -0.008546 -0.003555 0.000000 0.000000 0.000000
# 2 -0.008546 0.015628 -0.005130 0.000000 0.000000 0.000000
# 3 -0.003555 -0.005130 0.012901 0.000000 0.000000 0.000000
# 4 0.000000 0.000000 0.000000 0.026736 0.000000 0.000000
# 5 0.000000 0.000000 0.000000 0.000000 0.055142 0.000000
# 6 0.000000 0.000000 0.000000 0.000000 0.000000 0.057124
#
#
# Mechanical properties :
#
#
# Convention : Reuss Voigt Hill
#
# Bulk Modulus (GPa) = 43.90530 53.35533 48.63032
# Shear Modulus (GPa) = 20.98245 23.97441 22.47843
#
# Velocity S-wave (km/s) = 3.09498 3.30829 3.20341
# Velocity P-wave (km/s) = 5.72847 6.24105 5.99025
#
# Compressibility (1/GPa) = 0.02277629
#
# Stress axis : x y z
#
# Youngs Moduli (GPa) = 34.83252 63.98675 77.51387
#
# Poissons Ratio (x) = 0.54681 0.27558
# Poissons Ratio (y) = 0.29767 0.39764
# Poissons Ratio (z) = 0.12384 0.32824
#
# Static dielectric constant tensor:
#      x y z
#    x 3.755660 0.000000 0.000000 
#    y 0.000000 3.825050 0.000000 
#    z 0.000000 0.000000 4.115360 
# 
# 
# High freq. dielectric constant tensor:
#      x y z
#    x 1.860490 0.000000 0.000000 
#    y 0.000000 1.837870 0.000000 
#    z 0.000000 0.000000 1.862250 
# 
# From -- ./inp_files/24231.got.cif
#   From: 2010.03.12/outbox.cif.g09.slc.cpg/sg64_13_cif.got.tgz:24231.got - 2010.04.10 20:19:32.
