data_PCOD8264237
_publ_section_title
;
Structure prediction by ZEFSAII (Michael W. Deem and Ramdas Pophale) SiO2 
 PCOD8264237
Probable space group: C M C A
;
_chemical_formula_sum "Si O2"
_cell_formula_units_Z 64
_cell_length_a 11.552981
_cell_length_b 13.080270
_cell_length_c 20.692705
_cell_angle_alpha 90.000000
_cell_angle_beta 90.000000
_cell_angle_gamma 90.000000
_cell_volume 3127.001101
_symmetry_space_group_name_H-M "C M C A"
_symmetry_group_IT_number 64
_symmetry_cell_setting 'orthorhombic'
loop_
_space_group_symop_operation_xyz
x,y,z
-x,1/2-y,1/2+z
x,-y,-z
-x,1/2+y,1/2-z
-x,-y,-z
x,1/2+y,1/2-z
-x,y,z
x,1/2-y,1/2+z
1/2+x,1/2+y,z
1/2-x,-y,1/2+z
1/2+x,1/2-y,-z
1/2-x,y,1/2-z
1/2-x,1/2-y,-z
1/2+x,y,1/2-z
1/2-x,1/2+y,z
1/2+x,-y,1/2+z
loop_
_atom_site_type_symbol
_atom_site_label
_atom_site_fract_x
_atom_site_fract_y
_atom_site_fract_z
Si Si1 0.250000 0.912756 0.750000
Si Si2 0.500000 0.331300 0.596093
Si Si3 0.170717 0.000000 0.000000
Si Si4 0.816580 0.001616 0.620449
Si Si5 0.000000 0.670036 0.858086
Si Si6 0.000000 0.200568 0.262750
Si Si7 0.000000 0.321758 0.524166
O O1 0.376137 0.856710 0.750694
O O2 0.256598 0.979397 0.684937
O O3 0.388104 0.403623 0.596190
O O4 0.500000 0.264496 0.662115
O O5 0.500000 0.260035 0.533727
O O6 0.238456 0.962669 0.062032
O O7 0.107483 0.103048 0.020909
O O8 0.888544 0.102267 0.633201
O O9 0.000000 0.703546 0.783779
O O10 0.000000 0.765155 0.907091
#
# Coordination Sequence:
#
# PCOD8264237 Si02
#       7
#     8   8   8  16   8   8   8
#     4  10  22  42  64  90 128 166 206 256 306 366
#     4   9  21  41  60  85 119 157 199 250 308 367
#     4  11  24  39  58  86 118 157 204 257 310 366
#     4  10  22  39  61  88 121 159 201 251 309 368
#     4  11  23  39  62  91 123 161 205 254 310 371
#     4  10  22  40  64  92 126 166 208 253 306 365
#     4  11  24  39  58  86 120 157 204 257 310 368
#
# _framework density 20.466894
#
# number of rings (size 3 to 8) (size 9 to 14) (size 15 to 20)
#    0.000    1.750    0.000    3.750    0.000   14.000 
#    0.000    2.500    0.000    0.000    0.000    0.000 
#    0.000    0.000    0.000    0.000    0.000    0.000 
#
# Total GULP energy -396430.878561 kJ/mol
# GULP energy per Si atom -12388.464955 kJ/mol
# Density = 2.042031 g / cm^3
# Si number density = 20.466894 Si / 1000 Ang^3
#
#
#
# Elastic Constant Matrix: (Units=GPa)
#
#
# Indices 1 2 3 4 5 6 
#
# 1 110.7463 18.8422 23.9073 0.0000 0.0000 0.0000
# 2 18.8422 91.5679 25.9828 0.0000 0.0000 0.0000
# 3 23.9073 25.9828 105.7898 0.0000 0.0000 0.0000
# 4 0.0000 0.0000 0.0000 46.1559 0.0000 0.0000
# 5 0.0000 0.0000 0.0000 0.0000 26.7379 0.0000
# 6 0.0000 0.0000 0.0000 0.0000 0.0000 -204.6026
#
#
#
# Elastic Compliance Matrix: (Units=1/GPa)
#
#
# Indices 1 2 3 4 5 6 
#
# 1 0.009674 -0.001473 -0.001824 0.000000 0.000000 0.000000
# 2 -0.001473 0.011963 -0.002605 0.000000 0.000000 0.000000
# 3 -0.001824 -0.002605 0.010505 0.000000 0.000000 0.000000
# 4 0.000000 0.000000 0.000000 0.021666 0.000000 0.000000
# 5 0.000000 0.000000 0.000000 0.000000 0.037400 0.000000
# 6 0.000000 0.000000 0.000000 0.000000 0.000000 -0.004888
#
#
# Mechanical properties :
#
#
# Convention : Reuss Voigt Hill
#
# Bulk Modulus (GPa) = 49.17238 49.50763 49.34000
# Shear Modulus (GPa) = 47.66213 -10.38366 18.63923
#
# Velocity S-wave (km/s) = 4.83094 -2.25486 3.02106
# Velocity P-wave (km/s) = 7.42932 4.17881 6.02732
#
# Compressibility (1/GPa) = 0.02033662
#
# Stress axis : x y z
#
# Youngs Moduli (GPa) = 103.36866 83.58927 95.19342
#
# Poissons Ratio (x) = 0.12312 0.17368
# Poissons Ratio (y) = 0.15226 0.24802
# Poissons Ratio (z) = 0.18859 0.21778
#
# Static dielectric constant tensor:
#      x y z
#    x 3.902150 0.000000 0.000000 
#    y 0.000000 3.577160 0.000000 
#    z 0.000000 0.000000 4.013370 
# 
# 
# High freq. dielectric constant tensor:
#      x y z
#    x 1.811990 0.000000 0.000000 
#    y 0.000000 1.791350 0.000000 
#    z 0.000000 0.000000 1.826040 
# 
# From -- ./inp_files/30534.got.cif
#   From: 2010.03.12/outbox.cif.g09.slc.cpg/sg64_16_cif.got.tgz:30534.got - 2010.04.10 20:19:32.
