data_PCOD8264853
_publ_section_title
;
Structure prediction by ZEFSAII (Michael W. Deem and Ramdas Pophale) SiO2 
 PCOD8264853
Probable space group: C M C A
;
_chemical_formula_sum "Si O2"
_cell_formula_units_Z 64
_cell_length_a 16.661938
_cell_length_b 10.023427
_cell_length_c 16.298002
_cell_angle_alpha 90.000000
_cell_angle_beta 90.000000
_cell_angle_gamma 90.000000
_cell_volume 2721.924738
_symmetry_space_group_name_H-M "C M C A"
_symmetry_group_IT_number 64
_symmetry_cell_setting 'orthorhombic'
loop_
_space_group_symop_operation_xyz
x,y,z
-x,1/2-y,1/2+z
x,-y,-z
-x,1/2+y,1/2-z
-x,-y,-z
x,1/2+y,1/2-z
-x,y,z
x,1/2-y,1/2+z
1/2+x,1/2+y,z
1/2-x,-y,1/2+z
1/2+x,1/2-y,-z
1/2-x,y,1/2-z
1/2-x,1/2-y,-z
1/2+x,y,1/2-z
1/2-x,1/2+y,z
1/2+x,-y,1/2+z
loop_
_atom_site_type_symbol
_atom_site_label
_atom_site_fract_x
_atom_site_fract_y
_atom_site_fract_z
Si Si1 0.406922 0.388749 0.609633
Si Si2 0.091191 0.538719 0.408200
Si Si3 0.701367 0.829866 0.333082
Si Si4 0.357619 0.828424 0.074707
O O1 0.500000 0.352867 0.619646
O O2 0.354754 0.301464 0.672922
O O3 0.376473 0.346199 0.520291
O O4 0.392999 0.545519 0.625182
O O5 0.118026 0.500000 0.500000
O O6 0.147015 0.460708 0.344402
O O7 0.099566 0.695941 0.392132
O O8 0.000000 0.494306 0.392463
O O9 0.750000 0.845025 0.250000
O O10 0.762344 0.818348 0.409966
#
# Coordination Sequence:
#
# PCOD8264853 Si02
#       4
#    16  16  16  16
#     4  11  23  44  71 102 139 183 239 296 352 422
#     4  11  23  43  73 106 140 185 242 299 356 421
#     4  12  27  45  67 103 147 192 234 291 365 434
#     4  11  23  41  72 107 137 183 240 295 353 421
#
# _framework density 23.512774
#
# number of rings (size 3 to 8) (size 9 to 14) (size 15 to 20)
#    0.000    0.750    2.500    6.000    3.500    4.000 
#    0.000   10.000    0.000    0.000    0.000    0.000 
#    0.000    0.000    0.000    0.000    0.000    0.000 
#
# Total GULP energy -396963.238402 kJ/mol
# GULP energy per Si atom -12405.101200 kJ/mol
# Density = 2.345926 g / cm^3
# Si number density = 23.512774 Si / 1000 Ang^3
#
#
#
# Elastic Constant Matrix: (Units=GPa)
#
#
# Indices 1 2 3 4 5 6 
#
# 1 179.5237 69.3172 62.1592 0.0000 0.0000 0.0000
# 2 69.3172 197.9138 63.1196 0.0000 0.0000 0.0000
# 3 62.1592 63.1196 80.2885 0.0000 0.0000 0.0000
# 4 0.0000 0.0000 0.0000 24.9886 0.0000 0.0000
# 5 0.0000 0.0000 0.0000 0.0000 23.2462 0.0000
# 6 0.0000 0.0000 0.0000 0.0000 0.0000 38.2773
#
#
#
# Elastic Compliance Matrix: (Units=1/GPa)
#
#
# Indices 1 2 3 4 5 6 
#
# 1 0.007777 -0.001073 -0.005178 0.000000 0.000000 0.000000
# 2 -0.001073 0.006891 -0.004587 0.000000 0.000000 0.000000
# 3 -0.005178 -0.004587 0.020070 0.000000 0.000000 0.000000
# 4 0.000000 0.000000 0.000000 0.040018 0.000000 0.000000
# 5 0.000000 0.000000 0.000000 0.000000 0.043018 0.000000
# 6 0.000000 0.000000 0.000000 0.000000 0.000000 0.026125
#
#
# Mechanical properties :
#
#
# Convention : Reuss Voigt Hill
#
# Bulk Modulus (GPa) = 76.55112 94.10202 85.32657
# Shear Modulus (GPa) = 29.42384 34.84441 32.13412
#
# Velocity S-wave (km/s) = 3.54135 3.85377 3.70086
# Velocity P-wave (km/s) = 7.02492 7.74019 7.39121
#
# Compressibility (1/GPa) = 0.01306317
#
# Stress axis : x y z
#
# Youngs Moduli (GPa) = 128.57995 145.10900 49.82495
#
# Poissons Ratio (x) = 0.15563 0.25799
# Poissons Ratio (y) = 0.13790 0.22857
# Poissons Ratio (z) = 0.66578 0.66567
#
# Static dielectric constant tensor:
#      x y z
#    x 4.410460 0.000000 0.000000 
#    y 0.000000 4.702400 0.000000 
#    z 0.000000 0.000000 3.813030 
# 
# 
# High freq. dielectric constant tensor:
#      x y z
#    x 1.946850 0.000000 0.000000 
#    y 0.000000 1.952010 0.000000 
#    z 0.000000 0.000000 1.896200 
# 
# From -- ./inp_files/31660.got.cif
#   From: 2010.03.12/outbox.cif.g09.slc.cpg/sg64_16_cif.got.tgz:31660.got - 2010.04.10 20:19:32.
