data_PCOD8264420
_publ_section_title
;
Structure prediction by ZEFSAII (Michael W. Deem and Ramdas Pophale) SiO2 
 PCOD8264420
Probable space group: C M C A
;
_chemical_formula_sum "Si O2"
_cell_formula_units_Z 80
_cell_length_a 24.964227
_cell_length_b 13.849485
_cell_length_c 11.626505
_cell_angle_alpha 90.000000
_cell_angle_beta 90.000000
_cell_angle_gamma 90.000000
_cell_volume 4019.767457
_symmetry_space_group_name_H-M "C M C A"
_symmetry_group_IT_number 64
_symmetry_cell_setting 'orthorhombic'
loop_
_space_group_symop_operation_xyz
x,y,z
-x,1/2-y,1/2+z
x,-y,-z
-x,1/2+y,1/2-z
-x,-y,-z
x,1/2+y,1/2-z
-x,y,z
x,1/2-y,1/2+z
1/2+x,1/2+y,z
1/2-x,-y,1/2+z
1/2+x,1/2-y,-z
1/2-x,y,1/2-z
1/2-x,1/2-y,-z
1/2+x,y,1/2-z
1/2-x,1/2+y,z
1/2+x,-y,1/2+z
loop_
_atom_site_type_symbol
_atom_site_label
_atom_site_fract_x
_atom_site_fract_y
_atom_site_fract_z
Si Si1 0.866441 0.680241 0.716531
Si Si2 0.817665 0.963931 0.385952
Si Si3 0.653149 0.608525 0.205668
Si Si4 0.219699 0.348705 0.477330
Si Si5 0.060185 0.972739 0.132572
O O1 0.851054 0.623452 0.832346
O O2 0.871063 0.791340 0.749766
O O3 0.820005 0.667677 0.625940
O O4 0.920889 0.637551 0.659658
O O5 0.759712 0.929824 0.431182
O O6 0.849483 0.000000 0.500000
O O7 0.809475 0.055384 0.300203
O O8 0.600634 0.543143 0.196494
O O9 0.687158 0.616518 0.089288
O O10 0.250000 0.250000 0.500000
O O11 0.000000 0.985009 0.180340
O O12 0.062210 0.000000 0.000000
#
# Coordination Sequence:
#
# PCOD8264420 Si02
#       5
#    16  16  16  16  16
#     4  11  24  43  61  96 129 169 215 273 315 392
#     4  11  26  37  61  92 133 174 217 253 319 385
#     4  11  25  43  65  93 134 172 219 271 326 393
#     4  12  24  40  60  92 134 178 219 250 314 390
#     4  10  22  44  71  94 122 165 222 280 333 385
#
# _framework density 19.90165
#
# number of rings (size 3 to 8) (size 9 to 14) (size 15 to 20)
#    0.000    1.000    4.000    1.800    8.400    2.400 
#    0.000    0.000    0.000    9.600    0.000    0.000 
#    0.000    0.000    0.000    0.000    0.000    0.000 
#
# Total GULP energy -495863.404366 kJ/mol
# GULP energy per Si atom -12396.585109 kJ/mol
# Density = 1.985635 g / cm^3
# Si number density = 19.901650 Si / 1000 Ang^3
#
#
#
# Elastic Constant Matrix: (Units=GPa)
#
#
# Indices 1 2 3 4 5 6 
#
# 1 125.5884 60.2078 47.5517 0.0000 0.0000 0.0000
# 2 60.2078 145.0000 49.8153 0.0000 0.0000 0.0000
# 3 47.5517 49.8153 108.5180 0.0000 0.0000 0.0000
# 4 0.0000 0.0000 0.0000 31.7528 0.0000 0.0000
# 5 0.0000 0.0000 0.0000 0.0000 7.9250 0.0000
# 6 0.0000 0.0000 0.0000 0.0000 0.0000 -82.3691
#
#
#
# Elastic Compliance Matrix: (Units=1/GPa)
#
#
# Indices 1 2 3 4 5 6 
#
# 1 0.010789 -0.003390 -0.003171 0.000000 0.000000 0.000000
# 2 -0.003390 0.009253 -0.002762 0.000000 0.000000 0.000000
# 3 -0.003171 -0.002762 0.011873 0.000000 0.000000 0.000000
# 4 0.000000 0.000000 0.000000 0.031493 0.000000 0.000000
# 5 0.000000 0.000000 0.000000 0.000000 0.126183 0.000000
# 6 0.000000 0.000000 0.000000 0.000000 0.000000 -0.012140
#
#
# Mechanical properties :
#
#
# Convention : Reuss Voigt Hill
#
# Bulk Modulus (GPa) = 75.37325 77.13957 76.25641
# Shear Modulus (GPa) = 24.93527 6.23051 15.58289
#
# Velocity S-wave (km/s) = 3.54351 1.77128 2.80124
# Velocity P-wave (km/s) = 7.39574 6.55956 6.99016
#
# Compressibility (1/GPa) = 0.01326731
#
# Stress axis : x y z
#
# Youngs Moduli (GPa) = 92.69125 108.07081 84.22762
#
# Poissons Ratio (x) = 0.36638 0.26710
# Poissons Ratio (y) = 0.31424 0.23265
# Poissons Ratio (z) = 0.29394 0.29851
#
# Static dielectric constant tensor:
#      x y z
#    x 3.585280 0.000000 0.000000 
#    y 0.000000 3.864920 0.000000 
#    z 0.000000 0.000000 0.911180 
# 
# 
# High freq. dielectric constant tensor:
#      x y z
#    x 1.749650 0.000000 0.000000 
#    y 0.000000 1.795520 0.000000 
#    z 0.000000 0.000000 1.794090 
# 
# From -- ./inp_files/18043.got.cif
#   From: 2010.03.12/outbox.cif.g09.slc.cpg/sg64_10_cif.got.tgz:18043.got - 2010.04.10 20:19:32.
