data_PCOD8264392
_publ_section_title
;
Structure prediction by ZEFSAII (Michael W. Deem and Ramdas Pophale) SiO2 
 PCOD8264392
Probable space group: C M C A
;
_chemical_formula_sum "Si O2"
_cell_formula_units_Z 56
_cell_length_a 10.198186
_cell_length_b 17.141380
_cell_length_c 15.287000
_cell_angle_alpha 90.000000
_cell_angle_beta 90.000000
_cell_angle_gamma 90.000000
_cell_volume 2672.335475
_symmetry_space_group_name_H-M "C M C A"
_symmetry_group_IT_number 64
_symmetry_cell_setting 'orthorhombic'
loop_
_space_group_symop_operation_xyz
x,y,z
-x,1/2-y,1/2+z
x,-y,-z
-x,1/2+y,1/2-z
-x,-y,-z
x,1/2+y,1/2-z
-x,y,z
x,1/2-y,1/2+z
1/2+x,1/2+y,z
1/2-x,-y,1/2+z
1/2+x,1/2-y,-z
1/2-x,y,1/2-z
1/2-x,1/2-y,-z
1/2+x,y,1/2-z
1/2-x,1/2+y,z
1/2+x,-y,1/2+z
loop_
_atom_site_type_symbol
_atom_site_label
_atom_site_fract_x
_atom_site_fract_y
_atom_site_fract_z
Si Si1 0.000000 0.072556 0.931651
Si Si2 0.742216 0.657695 0.000170
Si Si3 0.854345 0.644594 0.310118
Si Si4 0.500000 0.006196 0.249082
Si Si5 0.000000 0.426593 0.061831
O O1 0.125551 0.127144 0.940784
O O2 0.000000 0.049346 0.831799
O O3 0.000000 0.000000 0.000000
O O4 0.874908 0.625335 0.959567
O O5 0.750000 0.750000 0.000000
O O6 0.713628 0.627418 0.097683
O O7 0.750000 0.693704 0.250000
O O8 0.000000 0.685162 0.321660
O O9 0.873105 0.562821 0.257653
O O10 0.500000 0.954763 0.161954
O O11 0.000000 0.500000 0.000000
#
# Coordination Sequence:
#
# PCOD8264392 Si02
#       5
#     8  16  16   8   8
#     4  12  21  45  77  96 137 191 238 287 350 415
#     4  12  26  47  67 102 149 189 226 290 366 431
#     4  10  22  42  70  99 138 180 233 286 355 406
#     4  10  24  41  74 103 136 167 250 295 342 396
#     4  12  27  42  75 107 137 180 245 294 342 418
#
# _framework density 20.955454
#
# number of rings (size 3 to 8) (size 9 to 14) (size 15 to 20)
#    0.857    0.000    4.286    3.429    6.000    0.000 
#    5.143    0.000    0.000    0.000    0.000    0.000 
#    0.000    0.000    0.000    0.000    0.000    0.000 
#
# Total GULP energy -346901.631054 kJ/mol
# GULP energy per Si atom -12389.343966 kJ/mol
# Density = 2.090776 g / cm^3
# Si number density = 20.955454 Si / 1000 Ang^3
#
#
#
# Elastic Constant Matrix: (Units=GPa)
#
#
# Indices 1 2 3 4 5 6 
#
# 1 175.7622 57.9662 64.9739 0.0000 0.0000 0.0000
# 2 57.9662 126.6285 37.2185 0.0000 0.0000 0.0000
# 3 64.9739 37.2185 164.9459 0.0000 0.0000 0.0000
# 4 0.0000 0.0000 0.0000 15.8246 0.0000 0.0000
# 5 0.0000 0.0000 0.0000 0.0000 39.3568 0.0000
# 6 0.0000 0.0000 0.0000 0.0000 0.0000 39.3125
#
#
#
# Elastic Compliance Matrix: (Units=1/GPa)
#
#
# Indices 1 2 3 4 5 6 
#
# 1 0.007446 -0.002727 -0.002318 0.000000 0.000000 0.000000
# 2 -0.002727 0.009457 -0.001060 0.000000 0.000000 0.000000
# 3 -0.002318 -0.001060 0.007215 0.000000 0.000000 0.000000
# 4 0.000000 0.000000 0.000000 0.063193 0.000000 0.000000
# 5 0.000000 0.000000 0.000000 0.000000 0.025409 0.000000
# 6 0.000000 0.000000 0.000000 0.000000 0.000000 0.025437
#
#
# Mechanical properties :
#
#
# Convention : Reuss Voigt Hill
#
# Bulk Modulus (GPa) = 83.97358 87.51709 85.74533
# Shear Modulus (GPa) = 32.39725 39.37731 35.88728
#
# Velocity S-wave (km/s) = 3.93619 4.33956 4.14279
# Velocity P-wave (km/s) = 7.79856 8.18310 7.99314
#
# Compressibility (1/GPa) = 0.01190851
#
# Stress axis : x y z
#
# Youngs Moduli (GPa) = 134.30636 105.74207 138.60788
#
# Poissons Ratio (x) = 0.28838 0.32123
# Poissons Ratio (y) = 0.36628 0.14687
# Poissons Ratio (z) = 0.31126 0.11205
#
# Static dielectric constant tensor:
#      x y z
#    x 4.214930 0.000000 0.000000 
#    y 0.000000 3.541590 0.000000 
#    z 0.000000 0.000000 1.510910 
# 
# 
# High freq. dielectric constant tensor:
#      x y z
#    x 1.849040 0.000000 0.000000 
#    y 0.000000 1.790870 0.000000 
#    z 0.000000 0.000000 1.831610 
# 
# From -- ./inp_files/21764.got.cif
#   From: 2010.03.12/outbox.cif.g09.slc.cpg/sg64_11_cif.got.tgz:21764.got - 2010.04.10 20:19:32.
