data_PCOD8264184
_publ_section_title
;
Structure prediction by ZEFSAII (Michael W. Deem and Ramdas Pophale) SiO2 
 PCOD8264184
Probable space group: C M C A
;
_chemical_formula_sum "Si O2"
_cell_formula_units_Z 96
_cell_length_a 21.547535
_cell_length_b 18.068876
_cell_length_c 13.610788
_cell_angle_alpha 90.000000
_cell_angle_beta 90.000000
_cell_angle_gamma 90.000000
_cell_volume 5299.220634
_symmetry_space_group_name_H-M "C M C A"
_symmetry_group_IT_number 64
_symmetry_cell_setting 'orthorhombic'
loop_
_space_group_symop_operation_xyz
x,y,z
-x,1/2-y,1/2+z
x,-y,-z
-x,1/2+y,1/2-z
-x,-y,-z
x,1/2+y,1/2-z
-x,y,z
x,1/2-y,1/2+z
1/2+x,1/2+y,z
1/2-x,-y,1/2+z
1/2+x,1/2-y,-z
1/2-x,y,1/2-z
1/2-x,1/2-y,-z
1/2+x,y,1/2-z
1/2-x,1/2+y,z
1/2+x,-y,1/2+z
loop_
_atom_site_type_symbol
_atom_site_label
_atom_site_fract_x
_atom_site_fract_y
_atom_site_fract_z
Si Si1 0.146724 0.557048 0.919263
Si Si2 0.429926 0.955317 0.785806
Si Si3 0.731869 0.188290 0.862213
Si Si4 0.929619 0.660435 0.052775
Si Si5 0.844475 0.790467 0.996750
Si Si6 0.928063 0.427728 0.561680
O O1 0.117775 0.514825 0.827316
O O2 0.199907 0.608779 0.875428
O O3 0.175079 0.500000 0.000000
O O4 0.091579 0.602839 0.969815
O O5 0.500000 0.985516 0.798302
O O6 0.423187 0.876743 0.840468
O O7 0.412595 0.944455 0.673660
O O8 0.750000 0.203837 0.750000
O O9 0.686556 0.253997 0.899728
O O10 0.792914 0.183935 0.927342
O O11 0.000000 0.683582 0.029682
O O12 0.887261 0.732357 0.053656
O O13 0.885536 0.860092 0.969284
O O14 0.910230 0.500000 0.500000
O O15 0.000000 0.406099 0.545968
#
# Coordination Sequence:
#
# PCOD8264184 Si02
#       6
#    16  16  16  16  16  16
#     4   9  18  35  57  83 116 142 184 232 274 325
#     4   9  18  33  57  88 115 144 178 224 283 337
#     4  10  23  39  57  81 109 153 193 232 269 318
#     4   9  17  33  61  88 110 139 178 228 284 333
#     4  10  22  39  59  78 114 146 189 232 275 327
#     4  10  22  38  57  84 117 147 180 225 285 344
#
# _framework density 18.115870999999999
#
# number of rings (size 3 to 8) (size 9 to 14) (size 15 to 20)
#    0.000    2.500    0.000    1.000    4.667    2.667 
#    0.000    0.000    0.000    0.000    0.000    0.000 
#    0.000    0.000    0.000    0.000    0.000    0.000 
#
# Total GULP energy -595253.630645 kJ/mol
# GULP energy per Si atom -12401.117305 kJ/mol
# Density = 1.807464 g / cm^3
# Si number density = 18.115871 Si / 1000 Ang^3
#
#
#
# Elastic Constant Matrix: (Units=GPa)
#
#
# Indices 1 2 3 4 5 6 
#
# 1 112.3056 78.1319 62.3989 0.0000 0.0000 0.0000
# 2 78.1319 131.8528 71.2011 0.0000 0.0000 0.0000
# 3 62.3989 71.2011 136.8515 0.0000 0.0000 0.0000
# 4 0.0000 0.0000 0.0000 16.1575 0.0000 0.0000
# 5 0.0000 0.0000 0.0000 0.0000 24.5390 0.0000
# 6 0.0000 0.0000 0.0000 0.0000 0.000033004.0628
#
#
#
# Elastic Compliance Matrix: (Units=1/GPa)
#
#
# Indices 1 2 3 4 5 6 
#
# 1 0.016166 -0.007787 -0.003320 0.000000 0.000000 0.000000
# 2 -0.007787 0.014298 -0.003889 0.000000 0.000000 0.000000
# 3 -0.003320 -0.003889 0.010844 0.000000 0.000000 0.000000
# 4 0.000000 0.000000 0.000000 0.061891 0.000000 0.000000
# 5 0.000000 0.000000 0.000000 0.000000 0.040751 0.000000
# 6 0.000000 0.000000 0.000000 0.000000 0.000000 0.000030
#
#
# Mechanical properties :
#
#
# Convention : Reuss Voigt Hill
#
# Bulk Modulus (GPa) = 88.35485 89.38598 88.87041
# Shear Modulus (GPa) = 28.13028 6620.23706 3324.18367
#
# Velocity S-wave (km/s) = 3.94483 60.51709 42.88287
# Velocity P-wave (km/s) = 8.34427 70.23204 50.01083
#
# Compressibility (1/GPa) = 0.01131800
#
# Stress axis : x y z
#
# Youngs Moduli (GPa) = 61.85741 69.93803 92.21625
#
# Poissons Ratio (x) = 0.54460 0.30614
# Poissons Ratio (y) = 0.48168 0.35860
# Poissons Ratio (z) = 0.20535 0.27196
#
# Static dielectric constant tensor:
#      x y z
#    x 3.383250 0.000000 0.000000 
#    y 0.000000 3.392060 0.000000 
#    z 0.000000 0.000000 3.375560 
# 
# 
# High freq. dielectric constant tensor:
#      x y z
#    x 1.706110 0.000000 0.000000 
#    y 0.000000 1.703320 0.000000 
#    z 0.000000 0.000000 1.702860 
# 
# From -- ./inp_files/18347.got.cif
#   From: 2010.03.12/outbox.cif.g09.slc.cpg/sg64_10_cif.got.tgz:18347.got - 2010.04.10 20:19:32.
