data_PCOD8264482
_publ_section_title
;
Structure prediction by ZEFSAII (Michael W. Deem and Ramdas Pophale) SiO2 
 PCOD8264482
Probable space group: C M C A
;
_chemical_formula_sum "Si O2"
_cell_formula_units_Z 96
_cell_length_a 16.139783
_cell_length_b 11.804948
_cell_length_c 23.208525
_cell_angle_alpha 90.000000
_cell_angle_beta 90.000000
_cell_angle_gamma 90.000000
_cell_volume 4421.904000
_symmetry_space_group_name_H-M "C M C A"
_symmetry_group_IT_number 64
_symmetry_cell_setting 'orthorhombic'
loop_
_space_group_symop_operation_xyz
x,y,z
-x,1/2-y,1/2+z
x,-y,-z
-x,1/2+y,1/2-z
-x,-y,-z
x,1/2+y,1/2-z
-x,y,z
x,1/2-y,1/2+z
1/2+x,1/2+y,z
1/2-x,-y,1/2+z
1/2+x,1/2-y,-z
1/2-x,y,1/2-z
1/2-x,1/2-y,-z
1/2+x,y,1/2-z
1/2-x,1/2+y,z
1/2+x,-y,1/2+z
loop_
_atom_site_type_symbol
_atom_site_label
_atom_site_fract_x
_atom_site_fract_y
_atom_site_fract_z
Si Si1 0.094010 0.091080 0.653329
Si Si2 0.333493 0.726759 0.073936
Si Si3 0.907410 0.338927 0.841816
Si Si4 0.646870 0.215096 0.554905
Si Si5 0.400680 0.002281 0.622270
Si Si6 0.342218 0.140266 0.728411
O O1 0.146350 0.157006 0.606044
O O2 0.098867 0.147509 0.716135
O O3 0.000000 0.088812 0.631857
O O4 0.130928 0.964257 0.657117
O O5 0.235592 0.726126 0.065153
O O6 0.365096 0.622859 0.112567
O O7 0.378719 0.722272 0.011893
O O8 0.915500 0.288987 0.906424
O O9 0.846525 0.260696 0.804041
O O10 0.000000 0.339714 0.815029
O O11 0.641052 0.084162 0.574641
O O12 0.500000 0.003494 0.616810
O O13 0.374025 0.041088 0.686226
O O14 0.250000 0.114907 0.750000
#
# Coordination Sequence:
#
# PCOD8264482 Si02
#       6
#    16  16  16  16  16  16
#     4  11  24  40  62  97 133 171 219 271 330 398
#     4  11  25  41  67 101 131 174 223 276 330 399
#     4  10  23  42  65  91 131 174 215 270 333 396
#     4  10  23  43  67  96 135 172 221 278 333 391
#     4  11  24  45  71  99 134 179 230 280 334 399
#     4  11  24  42  67  94 129 174 219 277 332 397
#
# _framework density 21.710104999999999
#
# number of rings (size 3 to 8) (size 9 to 14) (size 15 to 20)
#    0.000    1.333    0.000    6.000    7.000    4.667 
#    0.000    1.667    0.000    0.000    0.000    0.000 
#    0.000    0.000    0.000    0.000    0.000    0.000 
#
# Total GULP energy -595334.844700 kJ/mol
# GULP energy per Si atom -12402.809265 kJ/mol
# Density = 2.166069 g / cm^3
# Si number density = 21.710105 Si / 1000 Ang^3
#
#
#
# Elastic Constant Matrix: (Units=GPa)
#
#
# Indices 1 2 3 4 5 6 
#
# 1 83.1301 35.1188 28.3948 0.0000 0.0000 0.0000
# 2 35.1188 126.3777 35.4842 0.0000 0.0000 0.0000
# 3 28.3948 35.4842 104.7674 0.0000 0.0000 0.0000
# 4 0.0000 0.0000 0.0000 24.1809 0.0000 0.0000
# 5 0.0000 0.0000 0.0000 0.0000 32.4827 0.0000
# 6 0.0000 0.0000 0.0000 0.0000 0.0000 33.6294
#
#
#
# Elastic Compliance Matrix: (Units=1/GPa)
#
#
# Indices 1 2 3 4 5 6 
#
# 1 0.014337 -0.003197 -0.002803 0.000000 0.000000 0.000000
# 2 -0.003197 0.009457 -0.002337 0.000000 0.000000 0.000000
# 3 -0.002803 -0.002337 0.011096 0.000000 0.000000 0.000000
# 4 0.000000 0.000000 0.000000 0.041355 0.000000 0.000000
# 5 0.000000 0.000000 0.000000 0.000000 0.030786 0.000000
# 6 0.000000 0.000000 0.000000 0.000000 0.000000 0.029736
#
#
# Mechanical properties :
#
#
# Convention : Reuss Voigt Hill
#
# Bulk Modulus (GPa) = 54.89303 56.91897 55.90600
# Shear Modulus (GPa) = 31.34537 32.41042 31.87790
#
# Velocity S-wave (km/s) = 3.80388 3.86796 3.83605
# Velocity P-wave (km/s) = 6.68073 6.79874 6.73999
#
# Compressibility (1/GPa) = 0.01821725
#
# Stress axis : x y z
#
# Youngs Moduli (GPa) = 69.74763 105.73827 90.12228
#
# Poissons Ratio (x) = 0.33806 0.25261
# Poissons Ratio (y) = 0.22300 0.21058
# Poissons Ratio (z) = 0.19550 0.24707
#
# Static dielectric constant tensor:
#      x y z
#    x 3.835250 0.000000 0.000000 
#    y 0.000000 3.917790 0.000000 
#    z 0.000000 0.000000 4.094550 
# 
# 
# High freq. dielectric constant tensor:
#      x y z
#    x 1.853570 0.000000 0.000000 
#    y 0.000000 1.855840 0.000000 
#    z 0.000000 0.000000 1.859230 
# 
# From -- ./inp_files/45744.got.cif
#   From: 2010.03.12/outbox.cif.g09.slc.cpg/sg64_23_cif.got.tgz:45744.got - 2010.04.10 20:19:32.
