data_PCOD8264840
_publ_section_title
;
Structure prediction by ZEFSAII (Michael W. Deem and Ramdas Pophale) SiO2 
 PCOD8264840
Probable space group: C M C A
;
_chemical_formula_sum "Si O2"
_cell_formula_units_Z 96
_cell_length_a 8.407284
_cell_length_b 28.710305
_cell_length_c 20.250717
_cell_angle_alpha 90.000000
_cell_angle_beta 90.000000
_cell_angle_gamma 90.000000
_cell_volume 4888.030746
_symmetry_space_group_name_H-M "C M C A"
_symmetry_group_IT_number 64
_symmetry_cell_setting 'orthorhombic'
loop_
_space_group_symop_operation_xyz
x,y,z
-x,1/2-y,1/2+z
x,-y,-z
-x,1/2+y,1/2-z
-x,-y,-z
x,1/2+y,1/2-z
-x,y,z
x,1/2-y,1/2+z
1/2+x,1/2+y,z
1/2-x,-y,1/2+z
1/2+x,1/2-y,-z
1/2-x,y,1/2-z
1/2-x,1/2-y,-z
1/2+x,y,1/2-z
1/2-x,1/2+y,z
1/2+x,-y,1/2+z
loop_
_atom_site_type_symbol
_atom_site_label
_atom_site_fract_x
_atom_site_fract_y
_atom_site_fract_z
Si Si1 0.683141 0.624713 0.483385
Si Si2 0.685988 0.783918 0.180087
Si Si3 0.185809 0.718879 0.440999
Si Si4 0.315163 0.527796 0.678028
Si Si5 0.182903 0.878887 0.126986
Si Si6 0.685095 0.968557 0.561142
O O1 0.500000 0.626794 0.504635
O O2 0.725911 0.669501 0.439671
O O3 0.788387 0.624178 0.549099
O O4 0.716985 0.579350 0.439489
O O5 0.500000 0.795429 0.182258
O O6 0.750000 0.765613 0.250000
O O7 0.724346 0.743622 0.127941
O O8 0.779829 0.830278 0.161231
O O9 0.250000 0.750000 0.500000
O O10 0.000000 0.710802 0.451324
O O11 0.500000 0.515603 0.673573
O O12 0.250000 0.516558 0.750000
O O13 0.290818 0.581752 0.660195
O O14 0.218208 0.495264 0.628491
O O15 0.000000 0.892116 0.139396
O O16 0.500000 0.956794 0.554837
O O17 0.743251 0.000000 0.500000
#
# Coordination Sequence:
#
# PCOD8264840 Si02
#       6
#    16  16  16  16  16  16
#     4  12  24  39  63  95 127 161 208 259 312 368
#     4  11  24  41  62  91 126 165 207 254 311 371
#     4  11  23  40  64  91 124 164 209 257 308 368
#     4  12  25  42  64  92 129 167 209 256 313 374
#     4  12  23  38  62  92 128 165 205 256 313 370
#     4  11  23  41  66  93 125 164 209 257 310 368
#
# _framework density 19.639810000000001
#
# number of rings (size 3 to 8) (size 9 to 14) (size 15 to 20)
#    0.000    0.500    3.333    6.500    0.000    2.667 
#    0.000    0.833    0.000    2.000    0.000    0.000 
#    0.000    0.000    0.000    0.000    0.000    0.000 
#
# Total GULP energy -595638.238964 kJ/mol
# GULP energy per Si atom -12409.129978 kJ/mol
# Density = 1.959511 g / cm^3
# Si number density = 19.639810 Si / 1000 Ang^3
#
#
#
# Elastic Constant Matrix: (Units=GPa)
#
#
# Indices 1 2 3 4 5 6 
#
# 1 84.4850 29.7429 25.4936 0.0000 0.0000 0.0000
# 2 29.7429 128.6871 50.4082 0.0000 0.0000 0.0000
# 3 25.4936 50.4082 133.0909 0.0000 0.0000 0.0000
# 4 0.0000 0.0000 0.0000 48.9041 0.0000 0.0000
# 5 0.0000 0.0000 0.0000 0.0000 29.0714 0.0000
# 6 0.0000 0.0000 0.0000 0.0000 0.0000 34.5983
#
#
#
# Elastic Compliance Matrix: (Units=1/GPa)
#
#
# Indices 1 2 3 4 5 6 
#
# 1 0.013172 -0.002414 -0.001609 0.000000 0.000000 0.000000
# 2 -0.002414 0.009567 -0.003161 0.000000 0.000000 0.000000
# 3 -0.001609 -0.003161 0.009019 0.000000 0.000000 0.000000
# 4 0.000000 0.000000 0.000000 0.020448 0.000000 0.000000
# 5 0.000000 0.000000 0.000000 0.000000 0.034398 0.000000
# 6 0.000000 0.000000 0.000000 0.000000 0.000000 0.028903
#
#
# Mechanical properties :
#
#
# Convention : Reuss Voigt Hill
#
# Bulk Modulus (GPa) = 57.50450 61.95027 59.72738
# Shear Modulus (GPa) = 36.85366 38.55598 37.70482
#
# Velocity S-wave (km/s) = 4.33653 4.43556 4.38632
# Velocity P-wave (km/s) = 7.37680 7.60552 7.49203
#
# Compressibility (1/GPa) = 0.01738994
#
# Stress axis : x y z
#
# Youngs Moduli (GPa) = 75.91999 104.52613 110.87632
#
# Poissons Ratio (x) = 0.25235 0.17837
# Poissons Ratio (y) = 0.18329 0.35049
# Poissons Ratio (z) = 0.12213 0.33041
#
# Static dielectric constant tensor:
#      x y z
#    x 3.699900 0.000000 0.000000 
#    y 0.000000 3.771800 0.000000 
#    z 0.000000 0.000000 3.644960 
# 
# 
# High freq. dielectric constant tensor:
#      x y z
#    x 1.783120 0.000000 0.000000 
#    y 0.000000 1.767100 0.000000 
#    z 0.000000 0.000000 1.763950 
# 
# From -- ./inp_files/36996.got.cif
#   From: 2010.03.12/outbox.cif.g09.slc.cpg/sg64_19_cif.got.tgz:36996.got - 2010.04.10 20:19:32.
