data_PCOD8264056
_publ_section_title
;
Structure prediction by ZEFSAII (Michael W. Deem and Ramdas Pophale) SiO2 
 PCOD8264056
Probable space group: C M C A
;
_chemical_formula_sum "Si O2"
_cell_formula_units_Z 112
_cell_length_a 28.159470
_cell_length_b 14.269201
_cell_length_c 13.854705
_cell_angle_alpha 90.000000
_cell_angle_beta 90.000000
_cell_angle_gamma 90.000000
_cell_volume 5567.002485
_symmetry_space_group_name_H-M "C M C A"
_symmetry_group_IT_number 64
_symmetry_cell_setting 'orthorhombic'
loop_
_space_group_symop_operation_xyz
x,y,z
-x,1/2-y,1/2+z
x,-y,-z
-x,1/2+y,1/2-z
-x,-y,-z
x,1/2+y,1/2-z
-x,y,z
x,1/2-y,1/2+z
1/2+x,1/2+y,z
1/2-x,-y,1/2+z
1/2+x,1/2-y,-z
1/2-x,y,1/2-z
1/2-x,1/2-y,-z
1/2+x,y,1/2-z
1/2-x,1/2+y,z
1/2+x,-y,1/2+z
loop_
_atom_site_type_symbol
_atom_site_label
_atom_site_fract_x
_atom_site_fract_y
_atom_site_fract_z
Si Si1 0.893415 0.191153 0.291132
Si Si2 0.210638 0.462056 0.892213
Si Si3 0.554577 0.393089 0.525880
Si Si4 0.946177 0.348985 0.185138
Si Si5 0.627699 0.996254 0.250723
Si Si6 0.801047 0.943225 0.098173
Si Si7 0.210320 0.245504 0.334250
O O1 0.910139 0.153106 0.396153
O O2 0.932429 0.257329 0.244513
O O3 0.888481 0.101019 0.221804
O O4 0.843069 0.245239 0.290978
O O5 0.165327 0.498484 0.835807
O O6 0.258485 0.504585 0.844594
O O7 0.216879 0.349981 0.893731
O O8 0.206236 0.500000 0.000000
O O9 0.569239 0.500000 0.500000
O O10 0.500000 0.390822 0.563302
O O11 0.560555 0.331126 0.429061
O O12 0.917613 0.439453 0.217823
O O13 0.000000 0.373791 0.209732
O O14 0.650155 0.948130 0.343730
O O15 0.786538 0.833098 0.090865
O O16 0.808926 0.000000 0.000000
O O17 0.250000 0.254985 0.250000
#
# Coordination Sequence:
#
# PCOD8264056 Si02
#       7
#    16  16  16  16  16  16  16
#     4  11  23  39  68  95 130 174 215 270 338 398
#     4  10  23  39  64  97 129 166 215 267 327 394
#     4  10  21  40  67  96 127 164 219 280 328 389
#     4  11  24  40  65  99 128 170 220 277 338 393
#     4  11  22  41  64  92 129 173 215 275 324 400
#     4  11  24  43  63  92 132 175 219 270 328 393
#     4  11  23  41  66  95 131 176 221 271 325 394
#
# _framework density 20.118547
#
# number of rings (size 3 to 8) (size 9 to 14) (size 15 to 20)
#    0.000    1.286    2.857    3.429    4.000    4.000 
#    0.000    0.000    0.000    0.429    0.000    0.000 
#    0.000    0.000    0.000    0.000    0.000    0.000 
#
# Total GULP energy -694172.399828 kJ/mol
# GULP energy per Si atom -12395.935711 kJ/mol
# Density = 2.007276 g / cm^3
# Si number density = 20.118547 Si / 1000 Ang^3
#
#
#
# Elastic Constant Matrix: (Units=GPa)
#
#
# Indices 1 2 3 4 5 6 
#
# 1 135.5297 46.3553 45.5271 0.0000 0.0000 0.0000
# 2 46.3553 127.8453 52.8417 0.0000 0.0000 0.0000
# 3 45.5271 52.8417 89.9269 0.0000 0.0000 0.0000
# 4 0.0000 0.0000 0.0000 36.9045 0.0000 0.0000
# 5 0.0000 0.0000 0.0000 0.0000 17.7470 0.0000
# 6 0.0000 0.0000 0.0000 0.0000 0.0000 35.2166
#
#
#
# Elastic Compliance Matrix: (Units=1/GPa)
#
#
# Indices 1 2 3 4 5 6 
#
# 1 0.009216 -0.001866 -0.003569 0.000000 0.000000 0.000000
# 2 -0.001866 0.010709 -0.005348 0.000000 0.000000 0.000000
# 3 -0.003569 -0.005348 0.016069 0.000000 0.000000 0.000000
# 4 0.000000 0.000000 0.000000 0.027097 0.000000 0.000000
# 5 0.000000 0.000000 0.000000 0.000000 0.056348 0.000000
# 6 0.000000 0.000000 0.000000 0.000000 0.000000 0.028396
#
#
# Mechanical properties :
#
#
# Convention : Reuss Voigt Hill
#
# Bulk Modulus (GPa) = 69.31019 71.41670 70.36345
# Shear Modulus (GPa) = 28.70101 31.87881 30.28991
#
# Velocity S-wave (km/s) = 3.78113 3.98496 3.88438
# Velocity P-wave (km/s) = 7.32040 7.53314 7.42753
#
# Compressibility (1/GPa) = 0.01442789
#
# Stress axis : x y z
#
# Youngs Moduli (GPa) = 108.51065 93.37861 62.23008
#
# Poissons Ratio (x) = 0.17428 0.22209
# Poissons Ratio (y) = 0.20252 0.33280
# Poissons Ratio (z) = 0.38726 0.49937
#
# Static dielectric constant tensor:
#      x y z
#    x 3.913570 0.000000 0.000000 
#    y 0.000000 3.840150 0.000000 
#    z 0.000000 0.000000 3.491060 
# 
# 
# High freq. dielectric constant tensor:
#      x y z
#    x 1.798750 0.000000 0.000000 
#    y 0.000000 1.797040 0.000000 
#    z 0.000000 0.000000 1.766590 
# 
# From -- ./inp_files/28076.got.cif
#   From: 2010.03.12/outbox.cif.g09.slc.cpg/sg64_15_cif.got.tgz:28076.got - 2010.04.10 20:19:32.
