data_PCOD8264687
_publ_section_title
;
Structure prediction by ZEFSAII (Michael W. Deem and Ramdas Pophale) SiO2 
 PCOD8264687
Probable space group: C M C A
;
_chemical_formula_sum "Si O2"
_cell_formula_units_Z 80
_cell_length_a 10.848477
_cell_length_b 19.884724
_cell_length_c 18.704214
_cell_angle_alpha 90.000000
_cell_angle_beta 90.000000
_cell_angle_gamma 90.000000
_cell_volume 4034.853797
_symmetry_space_group_name_H-M "C M C A"
_symmetry_group_IT_number 64
_symmetry_cell_setting 'orthorhombic'
loop_
_space_group_symop_operation_xyz
x,y,z
-x,1/2-y,1/2+z
x,-y,-z
-x,1/2+y,1/2-z
-x,-y,-z
x,1/2+y,1/2-z
-x,y,z
x,1/2-y,1/2+z
1/2+x,1/2+y,z
1/2-x,-y,1/2+z
1/2+x,1/2-y,-z
1/2-x,y,1/2-z
1/2-x,1/2-y,-z
1/2+x,y,1/2-z
1/2-x,1/2+y,z
1/2+x,-y,1/2+z
loop_
_atom_site_type_symbol
_atom_site_label
_atom_site_fract_x
_atom_site_fract_y
_atom_site_fract_z
Si Si1 0.144854 0.750900 0.311297
Si Si2 0.254698 0.185388 0.450170
Si Si3 0.140112 0.433415 0.465212
Si Si4 0.500000 0.611955 0.461568
Si Si5 0.789054 0.100949 0.669448
Si Si6 0.500000 0.028966 0.893414
O O1 0.250000 0.742609 0.250000
O O2 0.185231 0.700455 0.373559
O O3 0.150442 0.826108 0.342718
O O4 0.000000 0.737332 0.287268
O O5 0.250000 0.250000 0.500000
O O6 0.342675 0.129023 0.482692
O O7 0.116794 0.157668 0.444106
O O8 0.208392 0.500000 0.500000
O O9 0.180085 0.411288 0.386298
O O10 0.000000 0.453053 0.456732
O O11 0.500000 0.548668 0.410340
O O12 0.500000 0.582808 0.541712
O O13 0.750000 0.092437 0.750000
O O14 0.883053 0.041352 0.655425
#
# Coordination Sequence:
#
# PCOD8264687 Si02
#       6
#    16  16  16   8  16   8
#     4  11  25  44  68 101 138 176 225 282 337 399
#     4  12  24  40  69  98 131 172 229 275 341 401
#     4  11  24  42  65  95 132 173 221 279 335 399
#     4  11  24  38  69  98 127 180 219 286 340 401
#     4  11  23  39  67  97 129 172 220 272 337 400
#     4  11  20  44  65  92 135 166 229 276 334 409
#
# _framework density 19.827237
#
# number of rings (size 3 to 8) (size 9 to 14) (size 15 to 20)
#    0.000    0.800    5.000    1.800    5.600    0.800 
#    0.000    4.000    0.000    0.000    0.000    0.000 
#    0.000    0.000    0.000    0.000    0.000    0.000 
#
# Total GULP energy -495777.163688 kJ/mol
# GULP energy per Si atom -12394.429092 kJ/mol
# Density = 1.978211 g / cm^3
# Si number density = 19.827237 Si / 1000 Ang^3
#
#
#
# Elastic Constant Matrix: (Units=GPa)
#
#
# Indices 1 2 3 4 5 6 
#
# 1 140.8661 48.1870 52.8145 0.0000 0.0000 0.0000
# 2 48.1870 128.0784 68.7459 0.0000 0.0000 0.0000
# 3 52.8145 68.7459 127.2470 0.0000 0.0000 0.0000
# 4 0.0000 0.0000 0.0000 31.4149 0.0000 0.0000
# 5 0.0000 0.0000 0.0000 0.0000 34.7140 0.0000
# 6 0.0000 0.0000 0.0000 0.0000 0.0000 38.4703
#
#
#
# Elastic Compliance Matrix: (Units=1/GPa)
#
#
# Indices 1 2 3 4 5 6 
#
# 1 0.008719 -0.001884 -0.002601 0.000000 0.000000 0.000000
# 2 -0.001884 0.011404 -0.005379 0.000000 0.000000 0.000000
# 3 -0.002601 -0.005379 0.011844 0.000000 0.000000 0.000000
# 4 0.000000 0.000000 0.000000 0.031832 0.000000 0.000000
# 5 0.000000 0.000000 0.000000 0.000000 0.028807 0.000000
# 6 0.000000 0.000000 0.000000 0.000000 0.000000 0.025994
#
#
# Mechanical properties :
#
#
# Convention : Reuss Voigt Hill
#
# Bulk Modulus (GPa) = 81.70750 81.74292 81.72521
# Shear Modulus (GPa) = 35.11073 36.01612 35.56342
#
# Velocity S-wave (km/s) = 4.21269 4.26666 4.23976
# Velocity P-wave (km/s) = 8.05987 8.09874 8.07933
#
# Compressibility (1/GPa) = 0.01223878
#
# Stress axis : x y z
#
# Youngs Moduli (GPa) = 114.69760 87.69052 84.43002
#
# Poissons Ratio (x) = 0.16523 0.21958
# Poissons Ratio (y) = 0.21612 0.45414
# Poissons Ratio (z) = 0.29829 0.47168
#
# Static dielectric constant tensor:
#      x y z
#    x 3.757970 0.000000 0.000000 
#    y 0.000000 3.832830 0.000000 
#    z 0.000000 0.000000 3.647080 
# 
# 
# High freq. dielectric constant tensor:
#      x y z
#    x 1.787620 0.000000 0.000000 
#    y 0.000000 1.780490 0.000000 
#    z 0.000000 0.000000 1.771190 
# 
# From -- ./inp_files/30859.got.cif
#   From: 2010.03.12/outbox.cif.g09.slc.cpg/sg64_16_cif.got.tgz:30859.got - 2010.04.10 20:19:32.
