data_PCOD8264974
_publ_section_title
;
Structure prediction by ZEFSAII (Michael W. Deem and Ramdas Pophale) SiO2 
 PCOD8264974
Probable space group: C M C A
;
_chemical_formula_sum "Si O2"
_cell_formula_units_Z 120
_cell_length_a 28.431732
_cell_length_b 10.304904
_cell_length_c 26.119075
_cell_angle_alpha 90.000000
_cell_angle_beta 90.000000
_cell_angle_gamma 90.000000
_cell_volume 7652.530329
_symmetry_space_group_name_H-M "C M C A"
_symmetry_group_IT_number 64
_symmetry_cell_setting 'orthorhombic'
loop_
_space_group_symop_operation_xyz
x,y,z
-x,1/2-y,1/2+z
x,-y,-z
-x,1/2+y,1/2-z
-x,-y,-z
x,1/2+y,1/2-z
-x,y,z
x,1/2-y,1/2+z
1/2+x,1/2+y,z
1/2-x,-y,1/2+z
1/2+x,1/2-y,-z
1/2-x,y,1/2-z
1/2-x,1/2-y,-z
1/2+x,y,1/2-z
1/2-x,1/2+y,z
1/2+x,-y,1/2+z
loop_
_atom_site_type_symbol
_atom_site_label
_atom_site_fract_x
_atom_site_fract_y
_atom_site_fract_z
Si Si1 0.943624 0.437078 0.699001
Si Si2 0.385671 0.500000 0.000000
Si Si3 0.945125 0.159356 0.728751
Si Si4 0.361693 0.968059 0.940021
Si Si5 0.553533 0.124723 0.413135
Si Si6 0.778316 0.614761 0.958944
Si Si7 0.317738 0.707078 0.959149
Si Si8 0.947177 0.918654 0.384666
O O1 0.924209 0.306058 0.727579
O O2 0.923379 0.566081 0.726998
O O3 0.926889 0.437593 0.639851
O O4 0.000000 0.430272 0.700161
O O5 0.417174 0.417387 0.961823
O O6 0.354309 0.592173 0.965221
O O7 0.935577 0.088943 0.675103
O O8 0.000000 0.170369 0.739375
O O9 0.344313 0.821719 0.929215
O O10 0.319229 0.062964 0.920320
O O11 0.410070 0.984061 0.909892
O O12 0.370106 0.000000 0.000000
O O13 0.500000 0.080217 0.421434
O O14 0.557247 0.279288 0.410762
O O15 0.729438 0.652317 0.930231
O O16 0.768180 0.500000 0.000000
O O17 0.799118 0.743517 0.985812
O O18 0.000000 0.973823 0.393128
#
# Coordination Sequence:
#
# PCOD8264974 Si02
#       8
#    16   8  16  16  16  16  16  16
#     4   8  14  27  44  62  81 111 151 192 227 262
#     4  12  19  28  42  62  92 124 147 176 230 264
#     4   8  14  26  46  64  82 110 148 190 232 261
#     4   9  17  28  42  62  86 115 149 186 212 260
#     4   9  18  30  43  59  88 126 159 179 209 267
#     4   8  14  28  44  58  78 112 146 183 226 260
#     4   9  17  26  41  61  84 113 144 184 223 263
#     4   9  17  31  46  62  86 124 158 181 214 267
#
# _framework density 15.681088000000001
#
# number of rings (size 3 to 8) (size 9 to 14) (size 15 to 20)
#    0.000    3.467    0.667    3.400    0.000    0.267 
#    2.400    1.333    0.000    0.000    0.000    0.000 
#    0.000    1.067    5.333    0.000    0.000    0.000 
#
# Total GULP energy -743288.351737 kJ/mol
# GULP energy per Si atom -12388.139196 kJ/mol
# Density = 1.564540 g / cm^3
# Si number density = 15.681088 Si / 1000 Ang^3
#
#
#
# Elastic Constant Matrix: (Units=GPa)
#
#
# Indices 1 2 3 4 5 6 
#
# 1 69.4350 20.2900 20.2096 0.0000 0.0000 0.0000
# 2 20.2900 41.2117 9.5632 0.0000 0.0000 0.0000
# 3 20.2096 9.5632 36.7552 0.0000 0.0000 0.0000
# 4 0.0000 0.0000 0.0000 20.3443 0.0000 0.0000
# 5 0.0000 0.0000 0.0000 0.0000 0.8666 0.0000
# 6 0.0000 0.0000 0.0000 0.0000 0.0000 25.9644
#
#
#
# Elastic Compliance Matrix: (Units=1/GPa)
#
#
# Indices 1 2 3 4 5 6 
#
# 1 0.019052 -0.007396 -0.008551 0.000000 0.000000 0.000000
# 2 -0.007396 0.028695 -0.003400 0.000000 0.000000 0.000000
# 3 -0.008551 -0.003400 0.032793 0.000000 0.000000 0.000000
# 4 0.000000 0.000000 0.000000 0.049154 0.000000 0.000000
# 5 0.000000 0.000000 0.000000 0.000000 1.153890 0.000000
# 6 0.000000 0.000000 0.000000 0.000000 0.000000 0.038514
#
#
# Mechanical properties :
#
#
# Convention : Reuss Voigt Hill
#
# Bulk Modulus (GPa) = 23.89642 27.50304 25.69973
# Shear Modulus (GPa) = 3.63705 15.92436 9.78070
#
# Velocity S-wave (km/s) = 1.52461 3.19017 2.50016
# Velocity P-wave (km/s) = 4.28618 5.58092 4.97584
#
# Compressibility (1/GPa) = 0.04184727
#
# Stress axis : x y z
#
# Youngs Moduli (GPa) = 52.48784 34.84932 30.49387
#
# Poissons Ratio (x) = 0.25773 0.26077
# Poissons Ratio (y) = 0.38818 0.10367
# Poissons Ratio (z) = 0.44884 0.11847
#
# Static dielectric constant tensor:
#      x y z
#    x 2.981820 0.000000 0.000000 
#    y 0.000000 3.178110 0.000000 
#    z 0.000000 0.000000 2.670610 
# 
# 
# High freq. dielectric constant tensor:
#      x y z
#    x 1.581970 0.000000 0.000000 
#    y 0.000000 1.610950 0.000000 
#    z 0.000000 0.000000 1.551210 
# 
# From -- ./inp_files/46986.got.cif
#   From: 2010.03.12/outbox.cif.g09.slc.cpg/sg64_24_cif.got.tgz:46986.got - 2010.04.10 20:19:32.
