data_PCOD8264310
_publ_section_title
;
Structure prediction by ZEFSAII (Michael W. Deem and Ramdas Pophale) SiO2 
 PCOD8264310
Probable space group: C M C A
;
_chemical_formula_sum "Si O2"
_cell_formula_units_Z 88
_cell_length_a 28.534847
_cell_length_b 8.212717
_cell_length_c 18.320866
_cell_angle_alpha 90.000000
_cell_angle_beta 90.000000
_cell_angle_gamma 90.000000
_cell_volume 4293.469720
_symmetry_space_group_name_H-M "C M C A"
_symmetry_group_IT_number 64
_symmetry_cell_setting 'orthorhombic'
loop_
_space_group_symop_operation_xyz
x,y,z
-x,1/2-y,1/2+z
x,-y,-z
-x,1/2+y,1/2-z
-x,-y,-z
x,1/2+y,1/2-z
-x,y,z
x,1/2-y,1/2+z
1/2+x,1/2+y,z
1/2-x,-y,1/2+z
1/2+x,1/2-y,-z
1/2-x,y,1/2-z
1/2-x,1/2-y,-z
1/2+x,y,1/2-z
1/2-x,1/2+y,z
1/2+x,-y,1/2+z
loop_
_atom_site_type_symbol
_atom_site_label
_atom_site_fract_x
_atom_site_fract_y
_atom_site_fract_z
Si Si1 0.750000 0.491435 0.250000
Si Si2 0.446497 0.151645 0.450828
Si Si3 0.314416 0.769377 0.685095
Si Si4 0.867300 0.098643 0.568427
Si Si5 0.947408 0.049396 0.810382
Si Si6 0.893046 0.134857 0.301663
O O1 0.727765 0.600035 0.184531
O O2 0.706846 0.396494 0.284007
O O3 0.500000 0.197820 0.472597
O O4 0.414562 0.312371 0.460223
O O5 0.429018 0.000000 0.500000
O O6 0.442901 0.097360 0.367267
O O7 0.333123 0.737942 0.602605
O O8 0.355157 0.828052 0.739208
O O9 0.845266 0.000000 0.500000
O O10 0.873200 0.965675 0.631307
O O11 0.913724 0.197521 0.833076
O O12 0.000000 0.117800 0.806552
O O13 0.933966 0.975977 0.732258
#
# Coordination Sequence:
#
# PCOD8264310 Si02
#       6
#     8  16  16  16  16  16
#     4  10  22  40  74  94 124 160 212 268 330 406
#     4  10  22  41  60  88 133 181 224 266 321 378
#     4  11  21  42  67  97 121 165 212 262 327 400
#     4  12  25  41  64  98 134 172 219 271 328 383
#     4  11  21  34  58  91 125 169 220 269 314 372
#     4  12  21  39  63  90 131 166 215 268 317 390
#
# _framework density 20.496244000000001
#
# number of rings (size 3 to 8) (size 9 to 14) (size 15 to 20)
#    0.000    0.909    5.455    1.636    0.000    3.273 
#    0.000    0.909    0.000    0.000    0.000    0.000 
#    0.000    0.000    0.000    0.000    0.000    0.000 
#
# Total GULP energy -545512.417085 kJ/mol
# GULP energy per Si atom -12398.009479 kJ/mol
# Density = 2.044959 g / cm^3
# Si number density = 20.496244 Si / 1000 Ang^3
#
#
#
# Elastic Constant Matrix: (Units=GPa)
#
#
# Indices 1 2 3 4 5 6 
#
# 1 73.5645 29.5634 23.7626 0.0000 0.0000 0.0000
# 2 29.5634 84.7839 19.9349 0.0000 0.0000 0.0000
# 3 23.7626 19.9349 101.9589 0.0000 0.0000 0.0000
# 4 0.0000 0.0000 0.0000 40.3990 0.0000 0.0000
# 5 0.0000 0.0000 0.0000 0.0000 21.6184 0.0000
# 6 0.0000 0.0000 0.0000 0.0000 0.0000 32.9593
#
#
#
# Elastic Compliance Matrix: (Units=1/GPa)
#
#
# Indices 1 2 3 4 5 6 
#
# 1 0.016570 -0.005104 -0.002864 0.000000 0.000000 0.000000
# 2 -0.005104 0.013935 -0.001535 0.000000 0.000000 0.000000
# 3 -0.002864 -0.001535 0.010775 0.000000 0.000000 0.000000
# 4 0.000000 0.000000 0.000000 0.024753 0.000000 0.000000
# 5 0.000000 0.000000 0.000000 0.000000 0.046257 0.000000
# 6 0.000000 0.000000 0.000000 0.000000 0.000000 0.030340
#
#
# Mechanical properties :
#
#
# Convention : Reuss Voigt Hill
#
# Bulk Modulus (GPa) = 44.89464 45.20322 45.04893
# Shear Modulus (GPa) = 29.57486 31.46510 30.51998
#
# Velocity S-wave (km/s) = 3.80273 3.92237 3.86301
# Velocity P-wave (km/s) = 6.42124 6.52806 6.47487
#
# Compressibility (1/GPa) = 0.02227438
#
# Stress axis : x y z
#
# Youngs Moduli (GPa) = 60.35048 71.75923 92.80371
#
# Poissons Ratio (x) = 0.36629 0.26577
# Poissons Ratio (y) = 0.30805 0.14245
# Poissons Ratio (z) = 0.17283 0.11015
#
# Static dielectric constant tensor:
#      x y z
#    x 3.769630 0.000000 0.000000 
#    y 0.000000 3.875860 0.000000 
#    z 0.000000 0.000000 3.653840 
# 
# 
# High freq. dielectric constant tensor:
#      x y z
#    x 1.796840 0.000000 0.000000 
#    y 0.000000 1.815290 0.000000 
#    z 0.000000 0.000000 1.781020 
# 
# From -- ./inp_files/35693.got.cif
#   From: 2010.03.12/outbox.cif.g09.slc.cpg/sg64_18_cif.got.tgz:35693.got - 2010.04.10 20:19:32.
