data_PCOD8264903
_publ_section_title
;
Structure prediction by ZEFSAII (Michael W. Deem and Ramdas Pophale) SiO2 
 PCOD8264903
Probable space group: C M C A
;
_chemical_formula_sum "Si O2"
_cell_formula_units_Z 56
_cell_length_a 13.956954
_cell_length_b 18.495364
_cell_length_c 9.686552
_cell_angle_alpha 90.000000
_cell_angle_beta 90.000000
_cell_angle_gamma 90.000000
_cell_volume 2500.476310
_symmetry_space_group_name_H-M "C M C A"
_symmetry_group_IT_number 64
_symmetry_cell_setting 'orthorhombic'
loop_
_space_group_symop_operation_xyz
x,y,z
-x,1/2-y,1/2+z
x,-y,-z
-x,1/2+y,1/2-z
-x,-y,-z
x,1/2+y,1/2-z
-x,y,z
x,1/2-y,1/2+z
1/2+x,1/2+y,z
1/2-x,-y,1/2+z
1/2+x,1/2-y,-z
1/2-x,y,1/2-z
1/2-x,1/2-y,-z
1/2+x,y,1/2-z
1/2-x,1/2+y,z
1/2+x,-y,1/2+z
loop_
_atom_site_type_symbol
_atom_site_label
_atom_site_fract_x
_atom_site_fract_y
_atom_site_fract_z
Si Si1 0.108873 0.401612 0.768124
Si Si2 0.250000 0.018547 0.750000
Si Si3 0.606369 0.106231 0.557678
Si Si4 0.182461 0.750100 0.129232
O O1 0.174059 0.466245 0.828872
O O2 0.129377 0.396403 0.604600
O O3 0.135016 0.327003 0.842452
O O4 0.000000 0.420199 0.801990
O O5 0.309447 0.064853 0.638512
O O6 0.500000 0.072659 0.586665
O O7 0.601007 0.189492 0.606562
O O8 0.250000 0.777170 0.250000
O O9 0.250000 0.750000 0.000000
#
# Coordination Sequence:
#
# PCOD8264903 Si02
#       4
#    16   8  16  16
#     4  11  24  44  70 101 136 178 230 285 340 407
#     4  12  22  40  66  96 136 182 230 280 340 408
#     4  11  24  42  68  99 135 181 230 281 342 410
#     4  12  22  43  72  99 133 179 223 280 342 398
#
# _framework density 22.395731000000001
#
# number of rings (size 3 to 8) (size 9 to 14) (size 15 to 20)
#    0.000    0.571    5.714    2.571    0.000    2.286 
#    0.000    0.000    0.000    8.571    0.000    0.000 
#    0.000    0.000    0.000    0.000    0.000    0.000 
#
# Total GULP energy -347062.983630 kJ/mol
# GULP energy per Si atom -12395.106558 kJ/mol
# Density = 2.234476 g / cm^3
# Si number density = 22.395731 Si / 1000 Ang^3
#
#
#
# Elastic Constant Matrix: (Units=GPa)
#
#
# Indices 1 2 3 4 5 6 
#
# 1 177.0442 76.2701 61.5710 0.0000 0.0000 0.0000
# 2 76.2701 160.2540 43.2751 0.0000 0.0000 0.0000
# 3 61.5710 43.2751 106.3113 0.0000 0.0000 0.0000
# 4 0.0000 0.0000 0.0000 17.1147 0.0000 0.0000
# 5 0.0000 0.0000 0.0000 0.0000 37.4486 0.0000
# 6 0.0000 0.0000 0.0000 0.0000 0.0000 27.9611
#
#
#
# Elastic Compliance Matrix: (Units=1/GPa)
#
#
# Indices 1 2 3 4 5 6 
#
# 1 0.008130 -0.002919 -0.003520 0.000000 0.000000 0.000000
# 2 -0.002919 0.008059 -0.001590 0.000000 0.000000 0.000000
# 3 -0.003520 -0.001590 0.012092 0.000000 0.000000 0.000000
# 4 0.000000 0.000000 0.000000 0.058429 0.000000 0.000000
# 5 0.000000 0.000000 0.000000 0.000000 0.026703 0.000000
# 6 0.000000 0.000000 0.000000 0.000000 0.000000 0.035764
#
#
# Mechanical properties :
#
#
# Convention : Reuss Voigt Hill
#
# Bulk Modulus (GPa) = 81.81421 89.53799 85.67610
# Shear Modulus (GPa) = 29.53164 34.00443 31.76804
#
# Velocity S-wave (km/s) = 3.63523 3.90082 3.77037
# Velocity P-wave (km/s) = 7.36413 7.76887 7.56920
#
# Compressibility (1/GPa) = 0.01222282
#
# Stress axis : x y z
#
# Youngs Moduli (GPa) = 123.00164 124.09220 82.69631
#
# Poissons Ratio (x) = 0.36218 0.29113
# Poissons Ratio (y) = 0.35900 0.13148
# Poissons Ratio (z) = 0.43302 0.19730
#
# Static dielectric constant tensor:
#      x y z
#    x 4.616120 0.000000 0.000000 
#    y 0.000000 4.664680 0.000000 
#    z 0.000000 0.000000 9.661770 
# 
# 
# High freq. dielectric constant tensor:
#      x y z
#    x 1.899070 0.000000 0.000000 
#    y 0.000000 1.902340 0.000000 
#    z 0.000000 0.000000 1.866750 
# 
# From -- ./inp_files/5336.got.cif
#   From: 2010.03.12/outbox.cif.g09.slc.cpg/sg64_3_cif.got.tgz:5336.got - 2010.04.10 20:19:32.
