data_PCOD8264449
_publ_section_title
;
Structure prediction by ZEFSAII (Michael W. Deem and Ramdas Pophale) SiO2 
 PCOD8264449
Probable space group: C M C A
;
_chemical_formula_sum "Si O2"
_cell_formula_units_Z 112
_cell_length_a 25.626118
_cell_length_b 14.083228
_cell_length_c 14.476031
_cell_angle_alpha 90.000000
_cell_angle_beta 90.000000
_cell_angle_gamma 90.000000
_cell_volume 5224.377332
_symmetry_space_group_name_H-M "C M C A"
_symmetry_group_IT_number 64
_symmetry_cell_setting 'orthorhombic'
loop_
_space_group_symop_operation_xyz
x,y,z
-x,1/2-y,1/2+z
x,-y,-z
-x,1/2+y,1/2-z
-x,-y,-z
x,1/2+y,1/2-z
-x,y,z
x,1/2-y,1/2+z
1/2+x,1/2+y,z
1/2-x,-y,1/2+z
1/2+x,1/2-y,-z
1/2-x,y,1/2-z
1/2-x,1/2-y,-z
1/2+x,y,1/2-z
1/2-x,1/2+y,z
1/2+x,-y,1/2+z
loop_
_atom_site_type_symbol
_atom_site_label
_atom_site_fract_x
_atom_site_fract_y
_atom_site_fract_z
Si Si1 0.107354 0.698965 0.363229
Si Si2 0.597437 0.622306 0.762393
Si Si3 0.364747 0.083169 0.068657
Si Si4 0.559178 0.926435 0.780811
Si Si5 0.561346 0.104457 0.533339
Si Si6 0.701698 0.046710 0.810016
Si Si7 0.701038 0.210729 0.945275
O O1 0.085583 0.786353 0.301718
O O2 0.096226 0.605063 0.303755
O O3 0.076052 0.685100 0.458744
O O4 0.169667 0.710703 0.384393
O O5 0.560524 0.540519 0.720115
O O6 0.586679 0.638159 0.870264
O O7 0.657989 0.594335 0.753945
O O8 0.416467 0.114182 0.124393
O O9 0.320176 0.045520 0.138021
O O10 0.343126 0.173935 0.015735
O O11 0.381851 0.000000 0.000000
O O12 0.500000 0.889455 0.770032
O O13 0.500000 0.100156 0.548189
O O14 0.581499 0.000000 0.500000
O O15 0.750000 0.011216 0.750000
O O16 0.722111 0.124737 0.883177
O O17 0.750000 0.250000 0.000000
#
# Coordination Sequence:
#
# PCOD8264449 Si02
#       7
#    16  16  16  16  16  16  16
#     4  11  25  42  63  99 132 172 225 274 330 403
#     4  10  23  43  64  93 136 169 217 277 328 402
#     4   9  21  43  61  90 128 161 218 273 320 394
#     4  11  23  42  67  92 130 175 219 272 333 392
#     4  11  23  42  67  95 133 175 220 278 331 393
#     4   9  20  39  65  92 124 170 215 275 334 396
#     4  10  23  40  63  93 130 170 216 275 332 402
#
# _framework density 21.437961999999999
#
# number of rings (size 3 to 8) (size 9 to 14) (size 15 to 20)
#    0.000    1.857    1.429    1.714    4.000    6.000 
#    0.000    0.714    0.000    0.000    0.000    0.000 
#    0.000    0.000    0.000    0.000    0.000    0.000 
#
# Total GULP energy -694310.780560 kJ/mol
# GULP energy per Si atom -12398.406796 kJ/mol
# Density = 2.138917 g / cm^3
# Si number density = 21.437962 Si / 1000 Ang^3
#
#
#
# Elastic Constant Matrix: (Units=GPa)
#
#
# Indices 1 2 3 4 5 6 
#
# 1 101.3286 26.2353 47.4930 0.0000 0.0000 0.0000
# 2 26.2353 66.6750 31.7909 0.0000 0.0000 0.0000
# 3 47.4930 31.7909 140.2479 0.0000 0.0000 0.0000
# 4 0.0000 0.0000 0.0000 33.7486 0.0000 0.0000
# 5 0.0000 0.0000 0.0000 0.0000 37.0139 0.0000
# 6 0.0000 0.0000 0.0000 0.0000 0.0000 8.3253
#
#
#
# Elastic Compliance Matrix: (Units=1/GPa)
#
#
# Indices 1 2 3 4 5 6 
#
# 1 0.012312 -0.003203 -0.003443 0.000000 0.000000 0.000000
# 2 -0.003203 0.017649 -0.002916 0.000000 0.000000 0.000000
# 3 -0.003443 -0.002916 0.008957 0.000000 0.000000 0.000000
# 4 0.000000 0.000000 0.000000 0.029631 0.000000 0.000000
# 5 0.000000 0.000000 0.000000 0.000000 0.027017 0.000000
# 6 0.000000 0.000000 0.000000 0.000000 0.000000 0.120115
#
#
# Mechanical properties :
#
#
# Convention : Reuss Voigt Hill
#
# Bulk Modulus (GPa) = 50.52065 57.69886 54.10976
# Shear Modulus (GPa) = 20.71227 29.33305 25.02266
#
# Velocity S-wave (km/s) = 3.11167 3.70303 3.42016
# Velocity P-wave (km/s) = 6.04376 6.72726 6.39465
#
# Compressibility (1/GPa) = 0.01979389
#
# Stress axis : x y z
#
# Youngs Moduli (GPa) = 81.22154 56.66139 111.64154
#
# Poissons Ratio (x) = 0.18147 0.38442
# Poissons Ratio (y) = 0.26013 0.32554
# Poissons Ratio (z) = 0.27967 0.16522
#
# Static dielectric constant tensor:
#      x y z
#    x 3.634230 0.000000 0.000000 
#    y 0.000000 3.760440 0.000000 
#    z 0.000000 0.000000 4.124260 
# 
# 
# High freq. dielectric constant tensor:
#      x y z
#    x 1.825060 0.000000 0.000000 
#    y 0.000000 1.834740 0.000000 
#    z 0.000000 0.000000 1.857890 
# 
# From -- ./inp_files/27454.got.cif
#   From: 2010.03.12/outbox.cif.g09.slc.cpg/sg64_14_cif.got.tgz:27454.got - 2010.04.10 20:19:32.
