data_PCOD8264941
_publ_section_title
;
Structure prediction by ZEFSAII (Michael W. Deem and Ramdas Pophale) SiO2 
 PCOD8264941
Probable space group: C M C A
;
_chemical_formula_sum "Si O2"
_cell_formula_units_Z 56
_cell_length_a 24.406269
_cell_length_b 11.337177
_cell_length_c 9.202641
_cell_angle_alpha 90.000000
_cell_angle_beta 90.000000
_cell_angle_gamma 90.000000
_cell_volume 2546.354122
_symmetry_space_group_name_H-M "C M C A"
_symmetry_group_IT_number 64
_symmetry_cell_setting 'orthorhombic'
loop_
_space_group_symop_operation_xyz
x,y,z
-x,1/2-y,1/2+z
x,-y,-z
-x,1/2+y,1/2-z
-x,-y,-z
x,1/2+y,1/2-z
-x,y,z
x,1/2-y,1/2+z
1/2+x,1/2+y,z
1/2-x,-y,1/2+z
1/2+x,1/2-y,-z
1/2-x,y,1/2-z
1/2-x,1/2-y,-z
1/2+x,y,1/2-z
1/2-x,1/2+y,z
1/2+x,-y,1/2+z
loop_
_atom_site_type_symbol
_atom_site_label
_atom_site_fract_x
_atom_site_fract_y
_atom_site_fract_z
Si Si1 0.211406 0.704603 0.627771
Si Si2 0.639107 0.000000 0.500000
Si Si3 0.062529 0.365706 0.010116
Si Si4 0.387532 0.685209 0.222544
O O1 0.250000 0.649939 0.750000
O O2 0.250000 0.750000 0.500000
O O3 0.174624 0.600737 0.570689
O O4 0.172718 0.805765 0.701655
O O5 0.604467 0.935058 0.627357
O O6 0.102650 0.298282 0.120233
O O7 0.000000 0.354856 0.063479
O O8 0.082768 0.500000 0.000000
O O9 0.067076 0.312122 0.848498
#
# Coordination Sequence:
#
# PCOD8264941 Si02
#       4
#    16   8  16  16
#     4  12  25  44  65  99 137 181 226 272 332 405
#     4  12  26  42  73  96 138 182 223 278 344 396
#     4  11  25  46  72 100 135 180 229 288 347 409
#     4  12  24  48  68 105 137 179 230 285 346 409
#
# _framework density 21.992228000000001
#
# number of rings (size 3 to 8) (size 9 to 14) (size 15 to 20)
#    0.000    0.286    5.714    2.571    4.000    0.000 
#    2.571    1.429    0.000    0.000    0.000    0.000 
#    0.000    0.000    0.000    0.000    0.000    0.000 
#
# Total GULP energy -347156.995724 kJ/mol
# GULP energy per Si atom -12398.464133 kJ/mol
# Density = 2.194217 g / cm^3
# Si number density = 21.992228 Si / 1000 Ang^3
#
#
#
# Elastic Constant Matrix: (Units=GPa)
#
#
# Indices 1 2 3 4 5 6 
#
# 1 76.2359 26.6764 37.9848 0.0000 0.0000 0.0000
# 2 26.6764 112.3984 50.4289 0.0000 0.0000 0.0000
# 3 37.9848 50.4289 149.5826 0.0000 0.0000 0.0000
# 4 0.0000 0.0000 0.0000 49.2283 0.0000 0.0000
# 5 0.0000 0.0000 0.0000 0.0000 47.5100 0.0000
# 6 0.0000 0.0000 0.0000 0.0000 0.0000 -7.0091
#
#
#
# Elastic Compliance Matrix: (Units=1/GPa)
#
#
# Indices 1 2 3 4 5 6 
#
# 1 0.015486 -0.002252 -0.003173 0.000000 0.000000 0.000000
# 2 -0.002252 0.010810 -0.003073 0.000000 0.000000 0.000000
# 3 -0.003173 -0.003073 0.008527 0.000000 0.000000 0.000000
# 4 0.000000 0.000000 0.000000 0.020314 0.000000 0.000000
# 5 0.000000 0.000000 0.000000 0.000000 0.021048 0.000000
# 6 0.000000 0.000000 0.000000 0.000000 0.000000 -0.142672
#
#
# Mechanical properties :
#
#
# Convention : Reuss Voigt Hill
#
# Bulk Modulus (GPa) = 56.09229 63.15523 59.62376
# Shear Modulus (GPa) = -114.81179 32.82099 -40.99540
#
# Velocity S-wave (km/s) = -7.23318 3.86734 -4.32219
# Velocity P-wave (km/s) = 6.64814 6.98005 1.50390
#
# Compressibility (1/GPa) = 0.01782776
#
# Stress axis : x y z
#
# Youngs Moduli (GPa) = 64.57340 92.50809 117.27479
#
# Poissons Ratio (x) = 0.20830 0.37217
# Poissons Ratio (y) = 0.14540 0.36033
# Poissons Ratio (z) = 0.20492 0.28424
#
# Static dielectric constant tensor:
#      x y z
#    x 3.755870 0.000000 0.000000 
#    y 0.000000 4.106650 0.000000 
#    z 0.000000 0.000000 4.310060 
# 
# 
# High freq. dielectric constant tensor:
#      x y z
#    x 1.854090 0.000000 0.000000 
#    y 0.000000 1.858130 0.000000 
#    z 0.000000 0.000000 1.896950 
# 
# From -- ./inp_files/9888.got.cif
#   From: 2010.03.12/outbox.cif.g09.slc.cpg/sg64_5_cif.got.tgz:9888.got - 2010.04.10 20:19:32.
