data_PCOD8264610
_publ_section_title
;
Structure prediction by ZEFSAII (Michael W. Deem and Ramdas Pophale) SiO2 
 PCOD8264610
Probable space group: C M C A
;
_chemical_formula_sum "Si O2"
_cell_formula_units_Z 64
_cell_length_a 10.069505
_cell_length_b 8.967881
_cell_length_c 31.222617
_cell_angle_alpha 90.000000
_cell_angle_beta 90.000000
_cell_angle_gamma 90.000000
_cell_volume 2819.468587
_symmetry_space_group_name_H-M "C M C A"
_symmetry_group_IT_number 64
_symmetry_cell_setting 'orthorhombic'
loop_
_space_group_symop_operation_xyz
x,y,z
-x,1/2-y,1/2+z
x,-y,-z
-x,1/2+y,1/2-z
-x,-y,-z
x,1/2+y,1/2-z
-x,y,z
x,1/2-y,1/2+z
1/2+x,1/2+y,z
1/2-x,-y,1/2+z
1/2+x,1/2-y,-z
1/2-x,y,1/2-z
1/2-x,1/2-y,-z
1/2+x,y,1/2-z
1/2-x,1/2+y,z
1/2+x,-y,1/2+z
loop_
_atom_site_type_symbol
_atom_site_label
_atom_site_fract_x
_atom_site_fract_y
_atom_site_fract_z
Si Si1 0.500000 0.870755 0.939499
Si Si2 0.354683 0.319213 0.712222
Si Si3 0.758497 0.569717 0.654267
Si Si4 0.000000 0.713794 0.966143
Si Si5 0.290373 0.678201 0.095073
O O1 0.631401 0.829559 0.912644
O O2 0.500000 0.044110 0.950883
O O3 0.500000 0.773139 0.982835
O O4 0.500000 0.332258 0.733123
O O5 0.250000 0.319526 0.750000
O O6 0.335590 0.459171 0.680897
O O7 0.350758 0.163423 0.686384
O O8 0.671418 0.685561 0.626565
O O9 0.840516 0.470809 0.619662
O O10 0.130551 0.800536 0.949100
#
# Coordination Sequence:
#
# PCOD8264610 Si02
#       5
#     8  16  16   8  16
#     4  11  24  45  65 103 144 175 227 293 333 393
#     4  11  26  48  70 101 137 176 222 279 339 407
#     4  10  25  41  70  98 137 175 221 279 330 399
#     4  11  24  43  71  97 140 187 223 279 349 397
#     4  11  23  44  69 102 135 182 229 276 338 397
#
# _framework density 22.699313
#
# number of rings (size 3 to 8) (size 9 to 14) (size 15 to 20)
#    0.000    1.250    2.500    1.500   10.500    4.000 
#    4.500    1.250    0.000    0.000    0.000    0.000 
#    0.000    0.000    0.000    0.000    0.000    0.000 
#
# Total GULP energy -396697.633435 kJ/mol
# GULP energy per Si atom -12396.801045 kJ/mol
# Density = 2.264765 g / cm^3
# Si number density = 22.699313 Si / 1000 Ang^3
#
#
#
# Elastic Constant Matrix: (Units=GPa)
#
#
# Indices 1 2 3 4 5 6 
#
# 1 146.0806 29.2166 46.5340 0.0000 0.0000 0.0000
# 2 29.2166 132.5439 40.4415 0.0000 0.0000 0.0000
# 3 46.5340 40.4415 119.1542 0.0000 0.0000 0.0000
# 4 0.0000 0.0000 0.0000 28.5904 0.0000 0.0000
# 5 0.0000 0.0000 0.0000 0.0000 28.9571 0.0000
# 6 0.0000 0.0000 0.0000 0.0000 0.0000 8.4329
#
#
#
# Elastic Compliance Matrix: (Units=1/GPa)
#
#
# Indices 1 2 3 4 5 6 
#
# 1 0.007912 -0.000894 -0.002787 0.000000 0.000000 0.000000
# 2 -0.000894 0.008517 -0.002542 0.000000 0.000000 0.000000
# 3 -0.002787 -0.002542 0.010343 0.000000 0.000000 0.000000
# 4 0.000000 0.000000 0.000000 0.034977 0.000000 0.000000
# 5 0.000000 0.000000 0.000000 0.000000 0.034534 0.000000
# 6 0.000000 0.000000 0.000000 0.000000 0.000000 0.118583
#
#
# Mechanical properties :
#
#
# Convention : Reuss Voigt Hill
#
# Bulk Modulus (GPa) = 69.79127 70.01810 69.90468
# Shear Modulus (GPa) = 21.54370 31.96852 26.75611
#
# Velocity S-wave (km/s) = 3.08407 3.75687 3.43697
# Velocity P-wave (km/s) = 6.59505 7.05206 6.82738
#
# Compressibility (1/GPa) = 0.01432844
#
# Stress axis : x y z
#
# Youngs Moduli (GPa) = 126.39105 117.40931 96.67999
#
# Poissons Ratio (x) = 0.10494 0.26940
# Poissons Ratio (y) = 0.11297 0.24573
# Poissons Ratio (z) = 0.35219 0.29842
#
# Static dielectric constant tensor:
#      x y z
#    x 3.670980 0.000000 0.000000 
#    y 0.000000 4.395350 0.000000 
#    z 0.000000 0.000000 4.252330 
# 
# 
# High freq. dielectric constant tensor:
#      x y z
#    x 1.870610 0.000000 0.000000 
#    y 0.000000 1.911850 0.000000 
#    z 0.000000 0.000000 1.906770 
# 
# From -- ./inp_files/52482.got.cif
#   From: 2010.03.12/outbox.cif.g09.slc.cpg/sg64_27_cif.got.tgz:52482.got - 2010.04.10 20:19:32.
