data_PCOD8264046
_publ_section_title
;
Structure prediction by ZEFSAII (Michael W. Deem and Ramdas Pophale) SiO2 
 PCOD8264046
Probable space group: C M C A
;
_chemical_formula_sum "Si O2"
_cell_formula_units_Z 112
_cell_length_a 15.766714
_cell_length_b 28.265522
_cell_length_c 12.078695
_cell_angle_alpha 90.000000
_cell_angle_beta 90.000000
_cell_angle_gamma 90.000000
_cell_volume 5382.923590
_symmetry_space_group_name_H-M "C M C A"
_symmetry_group_IT_number 64
_symmetry_cell_setting 'orthorhombic'
loop_
_space_group_symop_operation_xyz
x,y,z
-x,1/2-y,1/2+z
x,-y,-z
-x,1/2+y,1/2-z
-x,-y,-z
x,1/2+y,1/2-z
-x,y,z
x,1/2-y,1/2+z
1/2+x,1/2+y,z
1/2-x,-y,1/2+z
1/2+x,1/2-y,-z
1/2-x,y,1/2-z
1/2-x,1/2-y,-z
1/2+x,y,1/2-z
1/2-x,1/2+y,z
1/2+x,-y,1/2+z
loop_
_atom_site_type_symbol
_atom_site_label
_atom_site_fract_x
_atom_site_fract_y
_atom_site_fract_z
Si Si1 0.683823 0.742580 0.344811
Si Si2 0.093790 0.479321 0.120759
Si Si3 0.750389 0.407287 0.372269
Si Si4 0.906567 0.445164 0.492229
Si Si5 0.653500 0.564748 0.236120
Si Si6 0.203282 0.819574 0.993645
Si Si7 0.902771 0.662944 0.279898
O O1 0.750000 0.756287 0.250000
O O2 0.722933 0.710914 0.440939
O O3 0.655299 0.791077 0.406014
O O4 0.609440 0.711573 0.288990
O O5 0.168790 0.441256 0.123986
O O6 0.101112 0.522943 0.206720
O O7 0.000000 0.456498 0.142479
O O8 0.097925 0.500000 0.000000
O O9 0.750000 0.385382 0.250000
O O10 0.839214 0.434890 0.394292
O O11 0.747020 0.365204 0.460252
O O12 0.918673 0.500000 0.500000
O O13 0.871265 0.427275 0.608867
O O14 0.000000 0.422447 0.466798
O O15 0.750000 0.549571 0.250000
O O16 0.638327 0.617817 0.285863
O O17 0.134037 0.833010 0.903293
O O18 0.000000 0.651995 0.293490
#
# Coordination Sequence:
#
# PCOD8264046 Si02
#       7
#    16  16  16  16  16  16  16
#     4   9  20  40  65  92 120 165 209 269 329 403
#     4  11  25  41  60  92 134 175 221 281 338 399
#     4  12  24  39  62  92 125 173 217 274 338 407
#     4  11  23  39  61  90 126 171 221 275 331 396
#     4  12  22  39  65  93 130 177 231 277 333 401
#     4  10  21  40  65  91 127 163 216 269 334 409
#     4  11  23  38  64 100 129 171 224 276 337 404
#
# _framework density 20.806538
#
# number of rings (size 3 to 8) (size 9 to 14) (size 15 to 20)
#    0.000    1.143    1.429    6.429    2.000    2.286 
#    0.000    0.000    0.000    8.571    0.000    0.000 
#    0.000    0.000    0.000    0.000    0.000    0.000 
#
# Total GULP energy -693973.982715 kJ/mol
# GULP energy per Si atom -12392.392548 kJ/mol
# Density = 2.075918 g / cm^3
# Si number density = 20.806538 Si / 1000 Ang^3
#
#
#
# Elastic Constant Matrix: (Units=GPa)
#
#
# Indices 1 2 3 4 5 6 
#
# 1 133.4529 35.0543 40.1918 0.0000 0.0000 0.0000
# 2 35.0543 106.3675 41.1432 0.0000 0.0000 0.0000
# 3 40.1918 41.1432 100.2535 0.0000 0.0000 0.0000
# 4 0.0000 0.0000 0.0000 64.6872 0.0000 0.0000
# 5 0.0000 0.0000 0.0000 0.0000 102.6606 0.0000
# 6 0.0000 0.0000 0.0000 0.0000 0.0000 -0.3525
#
#
#
# Elastic Compliance Matrix: (Units=1/GPa)
#
#
# Indices 1 2 3 4 5 6 
#
# 1 0.008811 -0.001828 -0.002782 0.000000 0.000000 0.000000
# 2 -0.001828 0.011554 -0.004009 0.000000 0.000000 0.000000
# 3 -0.002782 -0.004009 0.012736 0.000000 0.000000 0.000000
# 4 0.000000 0.000000 0.000000 0.015459 0.000000 0.000000
# 5 0.000000 0.000000 0.000000 0.000000 0.009741 0.000000
# 6 0.000000 0.000000 0.000000 0.000000 0.000000 -2.836753
#
#
# Mechanical properties :
#
#
# Convention : Reuss Voigt Hill
#
# Bulk Modulus (GPa) = 63.04023 63.65028 63.34525
# Shear Modulus (GPa) = -1.81427 48.31137 23.24855
#
# Velocity S-wave (km/s) = -0.93481 4.82387 3.34633
# Velocity P-wave (km/s) = 5.40360 7.85393 6.74103
#
# Compressibility (1/GPa) = 0.01586289
#
# Stress axis : x y z
#
# Youngs Moduli (GPa) = 113.49040 86.54703 78.52057
#
# Poissons Ratio (x) = 0.15817 0.21848
# Poissons Ratio (y) = 0.20741 0.31480
# Poissons Ratio (z) = 0.31578 0.34698
#
# Static dielectric constant tensor:
#      x y z
#    x 4.023410 0.000000 0.000000 
#    y 0.000000 4.190230 0.000000 
#    z 0.000000 0.000000 3.768870 
# 
# 
# High freq. dielectric constant tensor:
#      x y z
#    x 1.803020 0.000000 0.000000 
#    y 0.000000 1.819860 0.000000 
#    z 0.000000 0.000000 1.822350 
# 
# From -- ./inp_files/14949.got.cif
#   From: 2010.03.12/outbox.cif.g09.slc.cpg/sg64_8_cif.got.tgz:14949.got - 2010.04.10 20:19:32.
