data_PCOD8264799
_publ_section_title
;
Structure prediction by ZEFSAII (Michael W. Deem and Ramdas Pophale) SiO2 
 PCOD8264799
Probable space group: C M C A
;
_chemical_formula_sum "Si O2"
_cell_formula_units_Z 96
_cell_length_a 16.637382
_cell_length_b 14.084012
_cell_length_c 19.177247
_cell_angle_alpha 90.000000
_cell_angle_beta 90.000000
_cell_angle_gamma 90.000000
_cell_volume 4493.633377
_symmetry_space_group_name_H-M "C M C A"
_symmetry_group_IT_number 64
_symmetry_cell_setting 'orthorhombic'
loop_
_space_group_symop_operation_xyz
x,y,z
-x,1/2-y,1/2+z
x,-y,-z
-x,1/2+y,1/2-z
-x,-y,-z
x,1/2+y,1/2-z
-x,y,z
x,1/2-y,1/2+z
1/2+x,1/2+y,z
1/2-x,-y,1/2+z
1/2+x,1/2-y,-z
1/2-x,y,1/2-z
1/2-x,1/2-y,-z
1/2+x,y,1/2-z
1/2-x,1/2+y,z
1/2+x,-y,1/2+z
loop_
_atom_site_type_symbol
_atom_site_label
_atom_site_fract_x
_atom_site_fract_y
_atom_site_fract_z
Si Si1 0.657635 0.534311 0.229158
Si Si2 0.092001 0.216691 0.455709
Si Si3 0.339515 0.841726 0.347104
Si Si4 0.592027 0.025808 0.120238
Si Si5 0.337421 0.163464 0.905184
Si Si6 0.907636 0.233792 0.217913
O O1 0.750000 0.538294 0.250000
O O2 0.644409 0.451025 0.172668
O O3 0.604271 0.515488 0.297189
O O4 0.628476 0.632175 0.194921
O O5 0.102503 0.312998 0.411054
O O6 0.150270 0.220093 0.522750
O O7 0.000000 0.207514 0.480403
O O8 0.118467 0.129528 0.405860
O O9 0.249742 0.821058 0.372886
O O10 0.355003 0.775555 0.280633
O O11 0.500000 0.006723 0.101314
O O12 0.645471 0.947653 0.080121
O O13 0.402719 0.198910 0.849069
O O14 0.000000 0.224524 0.242406
#
# Coordination Sequence:
#
# PCOD8264799 Si02
#       6
#    16  16  16  16  16  16
#     4  12  23  42  66  98 132 170 219 272 331 392
#     4  11  25  44  68  98 134 174 221 274 331 395
#     4  12  24  43  66  98 131 175 219 271 333 395
#     4  11  22  40  69  99 132 172 219 275 329 383
#     4  12  24  43  66  98 135 174 222 273 331 393
#     4  12  25  41  68  97 132 176 221 277 332 393
#
# _framework density 21.363558999999999
#
# number of rings (size 3 to 8) (size 9 to 14) (size 15 to 20)
#    0.000    0.333    5.000    5.000    0.000    3.333 
#    0.000    0.833    0.000    2.000    0.000    0.000 
#    0.000    0.000    0.000    0.000    0.000    0.000 
#
# Total GULP energy -595454.586356 kJ/mol
# GULP energy per Si atom -12405.303882 kJ/mol
# Density = 2.131493 g / cm^3
# Si number density = 21.363559 Si / 1000 Ang^3
#
#
#
# Elastic Constant Matrix: (Units=GPa)
#
#
# Indices 1 2 3 4 5 6 
#
# 1 101.1440 58.1252 45.7747 0.0000 0.0000 0.0000
# 2 58.1252 113.1795 34.7101 0.0000 0.0000 0.0000
# 3 45.7747 34.7101 110.4691 0.0000 0.0000 0.0000
# 4 0.0000 0.0000 0.0000 30.6901 0.0000 0.0000
# 5 0.0000 0.0000 0.0000 0.0000 32.0662 0.0000
# 6 0.0000 0.0000 0.0000 0.0000 0.0000 33.9202
#
#
#
# Elastic Compliance Matrix: (Units=1/GPa)
#
#
# Indices 1 2 3 4 5 6 
#
# 1 0.015756 -0.006739 -0.004411 0.000000 0.000000 0.000000
# 2 -0.006739 0.012660 -0.001185 0.000000 0.000000 0.000000
# 3 -0.004411 -0.001185 0.011253 0.000000 0.000000 0.000000
# 4 0.000000 0.000000 0.000000 0.032584 0.000000 0.000000
# 5 0.000000 0.000000 0.000000 0.000000 0.031185 0.000000
# 6 0.000000 0.000000 0.000000 0.000000 0.000000 0.029481
#
#
# Mechanical properties :
#
#
# Convention : Reuss Voigt Hill
#
# Bulk Modulus (GPa) = 66.67892 66.89029 66.78460
# Shear Modulus (GPa) = 30.75231 31.74748 31.24989
#
# Velocity S-wave (km/s) = 3.79816 3.85912 3.82876
# Velocity P-wave (km/s) = 7.10732 7.15790 7.13265
#
# Compressibility (1/GPa) = 0.01499724
#
# Stress axis : x y z
#
# Youngs Moduli (GPa) = 63.46779 78.98928 88.86751
#
# Poissons Ratio (x) = 0.53230 0.39203
# Poissons Ratio (y) = 0.42770 0.10535
# Poissons Ratio (z) = 0.27998 0.09364
#
# Static dielectric constant tensor:
#      x y z
#    x 3.813780 0.000000 0.000000 
#    y 0.000000 4.056050 0.000000 
#    z 0.000000 0.000000 3.825810 
# 
# 
# High freq. dielectric constant tensor:
#      x y z
#    x 1.840330 0.000000 0.000000 
#    y 0.000000 1.842360 0.000000 
#    z 0.000000 0.000000 1.832760 
# 
# From -- ./inp_files/39222.got.cif
#   From: 2010.03.12/outbox.cif.g09.slc.cpg/sg64_20_cif.got.tgz:39222.got - 2010.04.10 20:19:32.
