data_PCOD8264042
_publ_section_title
;
Structure prediction by ZEFSAII (Michael W. Deem and Ramdas Pophale) SiO2 
 PCOD8264042
Probable space group: C M C A
;
_chemical_formula_sum "Si O2"
_cell_formula_units_Z 112
_cell_length_a 14.281728
_cell_length_b 17.357174
_cell_length_c 21.991933
_cell_angle_alpha 90.000000
_cell_angle_beta 90.000000
_cell_angle_gamma 90.000000
_cell_volume 5451.589902
_symmetry_space_group_name_H-M "C M C A"
_symmetry_group_IT_number 64
_symmetry_cell_setting 'orthorhombic'
loop_
_space_group_symop_operation_xyz
x,y,z
-x,1/2-y,1/2+z
x,-y,-z
-x,1/2+y,1/2-z
-x,-y,-z
x,1/2+y,1/2-z
-x,y,z
x,1/2-y,1/2+z
1/2+x,1/2+y,z
1/2-x,-y,1/2+z
1/2+x,1/2-y,-z
1/2-x,y,1/2-z
1/2-x,1/2-y,-z
1/2+x,y,1/2-z
1/2-x,1/2+y,z
1/2+x,-y,1/2+z
loop_
_atom_site_type_symbol
_atom_site_label
_atom_site_fract_x
_atom_site_fract_y
_atom_site_fract_z
Si Si1 0.603721 0.316679 0.855795
Si Si2 0.890649 0.048161 0.687760
Si Si3 0.726875 0.292111 0.438638
Si Si4 0.105065 0.137201 0.865262
Si Si5 0.147084 0.794871 0.259785
Si Si6 0.389088 0.477955 0.809908
Si Si7 0.390302 0.056049 0.947221
O O1 0.500000 0.324533 0.886295
O O2 0.676437 0.270348 0.896518
O O3 0.587838 0.271159 0.792711
O O4 0.649424 0.400166 0.840736
O O5 0.840589 0.130775 0.695873
O O6 0.870001 0.018077 0.619400
O O7 0.000000 0.064046 0.697905
O O8 0.853522 0.988778 0.739570
O O9 0.750000 0.250000 0.500000
O O10 0.824510 0.321559 0.410843
O O11 0.658964 0.362355 0.453441
O O12 0.096147 0.183671 0.802441
O O13 0.000000 0.134634 0.893802
O O14 0.143023 0.050895 0.850611
O O15 0.250000 0.760926 0.250000
O O16 0.500000 0.472586 0.808392
O O17 0.500000 0.071013 0.956051
O O18 0.351704 0.000000 0.000000
#
# Coordination Sequence:
#
# PCOD8264042 Si02
#       7
#    16  16  16  16  16  16  16
#     4  11  21  39  64  93 128 159 199 254 314 378
#     4   9  16  33  60  89 119 159 202 245 306 375
#     4  12  26  42  62  88 124 170 217 260 308 372
#     4  10  21  41  65  90 123 162 205 257 313 369
#     4  11  18  33  61  95 125 157 196 244 313 380
#     4   8  18  35  62  95 121 151 197 253 315 376
#     4  10  21  40  65  89 121 168 217 259 306 371
#
# _framework density 20.544464999999999
#
# number of rings (size 3 to 8) (size 9 to 14) (size 15 to 20)
#    0.000    1.857    2.857    2.571    0.000    2.286 
#    2.571    4.286    0.000    3.000    0.000    0.000 
#    0.000    0.000    0.000    0.000    0.000    0.000 
#
# Total GULP energy -694214.507643 kJ/mol
# GULP energy per Si atom -12396.687636 kJ/mol
# Density = 2.049770 g / cm^3
# Si number density = 20.544465 Si / 1000 Ang^3
#
#
#
# Elastic Constant Matrix: (Units=GPa)
#
#
# Indices 1 2 3 4 5 6 
#
# 1 72.5286 44.8226 47.7431 0.0000 0.0000 0.0000
# 2 44.8226 145.9514 86.5245 0.0000 0.0000 0.0000
# 3 47.7431 86.5245 136.2664 0.0000 0.0000 0.0000
# 4 0.0000 0.0000 0.0000 35.5665 0.0000 0.0000
# 5 0.0000 0.0000 0.0000 0.0000 20.9310 0.0000
# 6 0.0000 0.0000 0.0000 0.0000 0.0000 22.7682
#
#
#
# Elastic Compliance Matrix: (Units=1/GPa)
#
#
# Indices 1 2 3 4 5 6 
#
# 1 0.018696 -0.002980 -0.004658 0.000000 0.000000 0.000000
# 2 -0.002980 0.011463 -0.006234 0.000000 0.000000 0.000000
# 3 -0.004658 -0.006234 0.012929 0.000000 0.000000 0.000000
# 4 0.000000 0.000000 0.000000 0.028116 0.000000 0.000000
# 5 0.000000 0.000000 0.000000 0.000000 0.047776 0.000000
# 6 0.000000 0.000000 0.000000 0.000000 0.000000 0.043921
#
#
# Mechanical properties :
#
#
# Convention : Reuss Voigt Hill
#
# Bulk Modulus (GPa) = 65.17815 79.21409 72.19612
# Shear Modulus (GPa) = 25.54154 27.56357 26.55255
#
# Velocity S-wave (km/s) = 3.52977 3.66683 3.59896
# Velocity P-wave (km/s) = 6.95749 7.52121 7.24484
#
# Compressibility (1/GPa) = 0.01534256
#
# Stress axis : x y z
#
# Youngs Moduli (GPa) = 53.48857 87.23961 77.34468
#
# Poissons Ratio (x) = 0.25998 0.36027
# Poissons Ratio (y) = 0.15940 0.48219
# Poissons Ratio (z) = 0.24915 0.54388
#
# Static dielectric constant tensor:
#      x y z
#    x 3.701410 0.000000 0.000000 
#    y 0.000000 3.887050 0.000000 
#    z 0.000000 0.000000 3.782450 
# 
# 
# High freq. dielectric constant tensor:
#      x y z
#    x 1.809040 0.000000 0.000000 
#    y 0.000000 1.791580 0.000000 
#    z 0.000000 0.000000 1.789600 
# 
# From -- ./inp_files/45263.got.cif
#   From: 2010.03.12/outbox.cif.g09.slc.cpg/sg64_23_cif.got.tgz:45263.got - 2010.04.10 20:19:32.
