data_PCOD8264301
_publ_section_title
;
Structure prediction by ZEFSAII (Michael W. Deem and Ramdas Pophale) SiO2 
 PCOD8264301
Probable space group: C M C A
;
_chemical_formula_sum "Si O2"
_cell_formula_units_Z 96
_cell_length_a 15.716799
_cell_length_b 19.478583
_cell_length_c 15.231910
_cell_angle_alpha 90.000000
_cell_angle_beta 90.000000
_cell_angle_gamma 90.000000
_cell_volume 4663.111760
_symmetry_space_group_name_H-M "C M C A"
_symmetry_group_IT_number 64
_symmetry_cell_setting 'orthorhombic'
loop_
_space_group_symop_operation_xyz
x,y,z
-x,1/2-y,1/2+z
x,-y,-z
-x,1/2+y,1/2-z
-x,-y,-z
x,1/2+y,1/2-z
-x,y,z
x,1/2-y,1/2+z
1/2+x,1/2+y,z
1/2-x,-y,1/2+z
1/2+x,1/2-y,-z
1/2-x,y,1/2-z
1/2-x,1/2-y,-z
1/2+x,y,1/2-z
1/2-x,1/2+y,z
1/2+x,-y,1/2+z
loop_
_atom_site_type_symbol
_atom_site_label
_atom_site_fract_x
_atom_site_fract_y
_atom_site_fract_z
Si Si1 0.843304 0.795638 0.724997
Si Si2 0.403238 0.479501 0.335043
Si Si3 0.907644 0.422012 0.682057
Si Si4 0.596848 0.677269 0.654279
Si Si5 0.746631 0.943821 0.935000
Si Si6 0.322895 0.302136 0.522922
O O1 0.750000 0.823723 0.750000
O O2 0.907902 0.854743 0.755617
O O3 0.853098 0.723958 0.776115
O O4 0.858058 0.785901 0.620409
O O5 0.500000 0.485377 0.374880
O O6 0.403244 0.507416 0.236264
O O7 0.371515 0.401029 0.335120
O O8 0.335814 0.525869 0.386530
O O9 0.826130 0.418826 0.621114
O O10 0.000000 0.420453 0.632640
O O11 0.500000 0.683056 0.681932
O O12 0.606693 0.704062 0.553889
O O13 0.713935 0.878217 0.986787
O O14 0.784694 0.000000 0.000000
O O15 0.250000 0.250000 0.500000
#
# Coordination Sequence:
#
# PCOD8264301 Si02
#       6
#    16  16  16  16  16  16
#     4  12  22  41  69  92 129 180 227 271 341 404
#     4  10  22  40  65  95 128 169 224 280 333 392
#     4  11  23  41  65  94 131 175 228 277 330 408
#     4  11  25  42  63 100 137 168 218 287 341 397
#     4  12  23  40  66  97 131 176 222 272 345 404
#     4  12  24  41  65 100 131 176 226 277 334 408
#
# _framework density 20.587111
#
# number of rings (size 3 to 8) (size 9 to 14) (size 15 to 20)
#    0.000    0.667    6.667    1.000    0.000    5.333 
#    0.000    0.000    0.000    4.000    0.000    0.000 
#    0.000    0.000    0.000    0.000    0.000    0.000 
#
# Total GULP energy -594996.177935 kJ/mol
# GULP energy per Si atom -12395.753707 kJ/mol
# Density = 2.054025 g / cm^3
# Si number density = 20.587111 Si / 1000 Ang^3
#
#
#
# Elastic Constant Matrix: (Units=GPa)
#
#
# Indices 1 2 3 4 5 6 
#
# 1 90.6434 28.1443 17.4185 0.0000 0.0000 0.0000
# 2 28.1443 115.0919 36.0988 0.0000 0.0000 0.0000
# 3 17.4185 36.0988 92.2591 0.0000 0.0000 0.0000
# 4 0.0000 0.0000 0.0000 37.8728 0.0000 0.0000
# 5 0.0000 0.0000 0.0000 0.0000 13.1072 0.0000
# 6 0.0000 0.0000 0.0000 0.0000 0.0000 27.8025
#
#
#
# Elastic Compliance Matrix: (Units=1/GPa)
#
#
# Indices 1 2 3 4 5 6 
#
# 1 0.012070 -0.002550 -0.001281 0.000000 0.000000 0.000000
# 2 -0.002550 0.010443 -0.003605 0.000000 0.000000 0.000000
# 3 -0.001281 -0.003605 0.012491 0.000000 0.000000 0.000000
# 4 0.000000 0.000000 0.000000 0.026404 0.000000 0.000000
# 5 0.000000 0.000000 0.000000 0.000000 0.076294 0.000000
# 6 0.000000 0.000000 0.000000 0.000000 0.000000 0.035968
#
#
# Mechanical properties :
#
#
# Convention : Reuss Voigt Hill
#
# Bulk Modulus (GPa) = 49.66934 51.25750 50.46342
# Shear Modulus (GPa) = 25.60784 30.17870 27.89327
#
# Velocity S-wave (km/s) = 3.53069 3.83286 3.68488
# Velocity P-wave (km/s) = 6.38747 6.67381 6.53221
#
# Compressibility (1/GPa) = 0.02013315
#
# Stress axis : x y z
#
# Youngs Moduli (GPa) = 82.84914 95.75966 80.05554
#
# Poissons Ratio (x) = 0.24416 0.10257
# Poissons Ratio (y) = 0.21124 0.28857
# Poissons Ratio (z) = 0.10615 0.34518
#
# Static dielectric constant tensor:
#      x y z
#    x 3.752930 0.000000 0.000000 
#    y 0.000000 4.084680 0.000000 
#    z 0.000000 0.000000 3.475980 
# 
# 
# High freq. dielectric constant tensor:
#      x y z
#    x 1.808260 0.000000 0.000000 
#    y 0.000000 1.822690 0.000000 
#    z 0.000000 0.000000 1.791220 
# 
# From -- ./inp_files/23924.got.cif
#   From: 2010.03.12/outbox.cif.g09.slc.cpg/sg64_12_cif.got.tgz:23924.got - 2010.04.10 20:19:32.
