data_PCOD8264904
_publ_section_title
;
Structure prediction by ZEFSAII (Michael W. Deem and Ramdas Pophale) SiO2 
 PCOD8264904
Probable space group: C M C A
;
_chemical_formula_sum "Si O2"
_cell_formula_units_Z 80
_cell_length_a 27.868042
_cell_length_b 14.413131
_cell_length_c 8.501887
_cell_angle_alpha 90.000000
_cell_angle_beta 90.000000
_cell_angle_gamma 90.000000
_cell_volume 3414.916734
_symmetry_space_group_name_H-M "C M C A"
_symmetry_group_IT_number 64
_symmetry_cell_setting 'orthorhombic'
loop_
_space_group_symop_operation_xyz
x,y,z
-x,1/2-y,1/2+z
x,-y,-z
-x,1/2+y,1/2-z
-x,-y,-z
x,1/2+y,1/2-z
-x,y,z
x,1/2-y,1/2+z
1/2+x,1/2+y,z
1/2-x,-y,1/2+z
1/2+x,1/2-y,-z
1/2-x,y,1/2-z
1/2-x,1/2-y,-z
1/2+x,y,1/2-z
1/2-x,1/2+y,z
1/2+x,-y,1/2+z
loop_
_atom_site_type_symbol
_atom_site_label
_atom_site_fract_x
_atom_site_fract_y
_atom_site_fract_z
Si Si1 0.298570 0.410844 0.681822
Si Si2 0.796122 0.370562 0.158020
Si Si3 0.895377 0.045291 0.172126
Si Si4 0.054966 0.692601 0.145779
Si Si5 0.099467 0.354483 0.182151
O O1 0.250000 0.367946 0.750000
O O2 0.302715 0.347689 0.526014
O O3 0.291667 0.519394 0.656535
O O4 0.344443 0.402358 0.798059
O O5 0.750000 0.327677 0.250000
O O6 0.845352 0.331895 0.234158
O O7 0.934959 0.124848 0.204615
O O8 0.907243 0.964597 0.296917
O O9 0.897690 0.000000 0.000000
O O10 0.065190 0.797435 0.201598
O O11 0.000000 0.684707 0.092959
O O12 0.088735 0.666248 0.999966
#
# Coordination Sequence:
#
# PCOD8264904 Si02
#       5
#    16  16  16  16  16
#     4   9  18  32  60  97 134 173 218 265 325 402
#     4   9  18  35  61  94 134 175 216 266 331 400
#     4  11  24  42  69 103 138 179 227 282 339 412
#     4  12  26  46  71  97 131 180 233 296 356 406
#     4  11  24  45  67  99 138 172 229 285 347 412
#
# _framework density 23.426632999999999
#
# number of rings (size 3 to 8) (size 9 to 14) (size 15 to 20)
#    0.000    1.600    2.000    2.400    8.400    2.800 
#    0.000    2.000    0.000    0.000    0.000    0.000 
#    0.000    0.000    0.000    0.000    0.000    0.000 
#
# Total GULP energy -495632.707837 kJ/mol
# GULP energy per Si atom -12390.817696 kJ/mol
# Density = 2.337331 g / cm^3
# Si number density = 23.426633 Si / 1000 Ang^3
#
#
#
# Elastic Constant Matrix: (Units=GPa)
#
#
# Indices 1 2 3 4 5 6 
#
# 1 155.9073 30.5533 29.6816 0.0000 0.0000 0.0000
# 2 30.5533 57.6255 8.7896 0.0000 0.0000 0.0000
# 3 29.6816 8.7896 97.8281 0.0000 0.0000 0.0000
# 4 0.0000 0.0000 0.0000 24.3587 0.0000 0.0000
# 5 0.0000 0.0000 0.0000 0.0000 35.5004 0.0000
# 6 0.0000 0.0000 0.0000 0.0000 0.0000 -337.4286
#
#
#
# Elastic Compliance Matrix: (Units=1/GPa)
#
#
# Indices 1 2 3 4 5 6 
#
# 1 0.007506 -0.003683 -0.001947 0.000000 0.000000 0.000000
# 2 -0.003683 0.019402 -0.000626 0.000000 0.000000 0.000000
# 3 -0.001947 -0.000626 0.010869 0.000000 0.000000 0.000000
# 4 0.000000 0.000000 0.000000 0.041053 0.000000 0.000000
# 5 0.000000 0.000000 0.000000 0.000000 0.028169 0.000000
# 6 0.000000 0.000000 0.000000 0.000000 0.000000 -0.002964
#
#
# Mechanical properties :
#
#
# Convention : Reuss Voigt Hill
#
# Bulk Modulus (GPa) = 39.57857 49.93443 44.75650
# Shear Modulus (GPa) = 40.01030 -39.35813 0.32608
#
# Velocity S-wave (km/s) = 4.13716 -4.10330 0.37349
# Velocity P-wave (km/s) = 6.30498 1.04303 4.39687
#
# Compressibility (1/GPa) = 0.02526620
#
# Stress axis : x y z
#
# Youngs Moduli (GPa) = 133.21922 51.54204 92.00616
#
# Poissons Ratio (x) = 0.18983 0.17910
# Poissons Ratio (y) = 0.49065 0.05757
# Poissons Ratio (z) = 0.25932 0.03225
#
# Static dielectric constant tensor:
#      x y z
#    x 4.270500 0.000000 0.000000 
#    y 0.000000 3.987680 0.000000 
#    z 0.000000 0.000000 4.261930 
# 
# 
# High freq. dielectric constant tensor:
#      x y z
#    x 1.925720 0.000000 0.000000 
#    y 0.000000 1.912970 0.000000 
#    z 0.000000 0.000000 1.923650 
# 
# From -- ./inp_files/10200.got.cif
#   From: 2010.03.12/outbox.cif.g09.slc.cpg/sg64_6_cif.got.tgz:10200.got - 2010.04.10 20:19:32.
