data_PCOD8264007
_publ_section_title
;
Structure prediction by ZEFSAII (Michael W. Deem and Ramdas Pophale) SiO2 
 PCOD8264007
Probable space group: C M C A
;
_chemical_formula_sum "Si O2"
_cell_formula_units_Z 56
_cell_length_a 14.059756
_cell_length_b 15.169404
_cell_length_c 11.322311
_cell_angle_alpha 90.000000
_cell_angle_beta 90.000000
_cell_angle_gamma 90.000000
_cell_volume 2414.801192
_symmetry_space_group_name_H-M "C M C A"
_symmetry_group_IT_number 64
_symmetry_cell_setting 'orthorhombic'
loop_
_space_group_symop_operation_xyz
x,y,z
-x,1/2-y,1/2+z
x,-y,-z
-x,1/2+y,1/2-z
-x,-y,-z
x,1/2+y,1/2-z
-x,y,z
x,1/2-y,1/2+z
1/2+x,1/2+y,z
1/2-x,-y,1/2+z
1/2+x,1/2-y,-z
1/2-x,y,1/2-z
1/2-x,1/2-y,-z
1/2+x,y,1/2-z
1/2-x,1/2+y,z
1/2+x,-y,1/2+z
loop_
_atom_site_type_symbol
_atom_site_label
_atom_site_fract_x
_atom_site_fract_y
_atom_site_fract_z
Si Si1 0.844636 0.171534 0.554352
Si Si2 0.000000 0.421446 0.683287
Si Si3 0.299558 0.355533 0.870458
Si Si4 0.000000 0.720472 0.122545
Si Si5 0.000000 0.108741 0.715690
O O1 0.762580 0.116787 0.485755
O O2 0.802220 0.248783 0.636503
O O3 0.906722 0.223729 0.457047
O O4 0.906648 0.104405 0.632388
O O5 0.095004 0.395363 0.611803
O O6 0.000000 0.372102 0.808259
O O7 0.000000 0.526321 0.698287
O O8 0.250000 0.390296 0.750000
O O9 0.000000 0.800595 0.213300
#
# Coordination Sequence:
#
# PCOD8264007 Si02
#       5
#    16   8  16   8   8
#     4  10  21  39  74  93 129 183 224 267 346 406
#     4  12  23  41  68  95 141 167 216 289 334 390
#     4  11  21  42  66  97 133 175 220 282 327 398
#     4  11  20  44  68  92 135 166 230 281 332 409
#     4  11  23  42  69 103 128 181 219 278 346 397
#
# _framework density 23.190315999999999
#
# number of rings (size 3 to 8) (size 9 to 14) (size 15 to 20)
#    0.000    1.143    5.714    0.857    0.000    2.286 
#    0.000   12.857    0.000    0.000    0.000    0.000 
#    0.000    0.000    0.000    0.000    0.000    0.000 
#
# Total GULP energy -347221.734531 kJ/mol
# GULP energy per Si atom -12400.776233 kJ/mol
# Density = 2.313753 g / cm^3
# Si number density = 23.190316 Si / 1000 Ang^3
#
#
#
# Elastic Constant Matrix: (Units=GPa)
#
#
# Indices 1 2 3 4 5 6 
#
# 1 178.5854 23.8942 51.4460 0.0000 0.0000 0.0000
# 2 23.8942 54.9887 19.0193 0.0000 0.0000 0.0000
# 3 51.4460 19.0193 72.4407 0.0000 0.0000 0.0000
# 4 0.0000 0.0000 0.0000 20.3519 0.0000 0.0000
# 5 0.0000 0.0000 0.0000 0.0000 37.3115 0.0000
# 6 0.0000 0.0000 0.0000 0.0000 0.0000 14.7705
#
#
#
# Elastic Compliance Matrix: (Units=1/GPa)
#
#
# Indices 1 2 3 4 5 6 
#
# 1 0.007148 -0.001485 -0.004687 0.000000 0.000000 0.000000
# 2 -0.001485 0.020310 -0.004278 0.000000 0.000000 0.000000
# 3 -0.004687 -0.004278 0.018256 0.000000 0.000000 0.000000
# 4 0.000000 0.000000 0.000000 0.049136 0.000000 0.000000
# 5 0.000000 0.000000 0.000000 0.000000 0.026801 0.000000
# 6 0.000000 0.000000 0.000000 0.000000 0.000000 0.067703
#
#
# Mechanical properties :
#
#
# Convention : Reuss Voigt Hill
#
# Bulk Modulus (GPa) = 40.29741 54.97043 47.63392
# Shear Modulus (GPa) = 22.88062 28.59712 25.73887
#
# Velocity S-wave (km/s) = 3.14450 3.51543 3.33513
# Velocity P-wave (km/s) = 5.53158 6.34296 5.95112
#
# Compressibility (1/GPa) = 0.02481549
#
# Stress axis : x y z
#
# Youngs Moduli (GPa) = 139.89138 49.23566 54.77667
#
# Poissons Ratio (x) = 0.07312 0.25672
# Poissons Ratio (y) = 0.20776 0.23432
# Poissons Ratio (z) = 0.65563 0.21062
#
# Static dielectric constant tensor:
#      x y z
#    x 4.584320 0.000000 0.000000 
#    y 0.000000 3.534850 0.000000 
#    z 0.000000 0.000000 4.093490 
# 
# 
# High freq. dielectric constant tensor:
#      x y z
#    x 1.940090 0.000000 0.000000 
#    y 0.000000 1.870550 0.000000 
#    z 0.000000 0.000000 1.915170 
# 
# From -- ./inp_files/13786.got.cif
#   From: 2010.03.12/outbox.cif.g09.slc.cpg/sg64_7_cif.got.tgz:13786.got - 2010.04.10 20:19:32.
