data_PCOD8264992
_publ_section_title
;
Structure prediction by ZEFSAII (Michael W. Deem and Ramdas Pophale) SiO2 
 PCOD8264992
Probable space group: C M C A
;
_chemical_formula_sum "Si O2"
_cell_formula_units_Z 80
_cell_length_a 10.317005
_cell_length_b 25.750162
_cell_length_c 15.433646
_cell_angle_alpha 90.000000
_cell_angle_beta 90.000000
_cell_angle_gamma 90.000000
_cell_volume 4100.172621
_symmetry_space_group_name_H-M "C M C A"
_symmetry_group_IT_number 64
_symmetry_cell_setting 'orthorhombic'
loop_
_space_group_symop_operation_xyz
x,y,z
-x,1/2-y,1/2+z
x,-y,-z
-x,1/2+y,1/2-z
-x,-y,-z
x,1/2+y,1/2-z
-x,y,z
x,1/2-y,1/2+z
1/2+x,1/2+y,z
1/2-x,-y,1/2+z
1/2+x,1/2-y,-z
1/2-x,y,1/2-z
1/2-x,1/2-y,-z
1/2+x,y,1/2-z
1/2-x,1/2+y,z
1/2+x,-y,1/2+z
loop_
_atom_site_type_symbol
_atom_site_label
_atom_site_fract_x
_atom_site_fract_y
_atom_site_fract_z
Si Si1 0.750000 0.874498 0.250000
Si Si2 0.851041 0.936264 0.907369
Si Si3 0.000000 0.696194 0.750715
Si Si4 0.500000 0.224907 0.407275
Si Si5 0.649052 0.446233 0.108235
Si Si6 0.748908 0.333162 0.850012
Si Si7 0.000000 0.224931 0.405645
O O1 0.874237 0.838773 0.257463
O O2 0.742458 0.910697 0.334498
O O3 0.758023 0.895627 0.858187
O O4 0.000000 0.926661 0.880628
O O5 0.808481 0.993974 0.879596
O O6 0.833952 0.928765 0.009710
O O7 0.000000 0.734153 0.831031
O O8 0.000000 0.727299 0.660771
O O9 0.373872 0.189291 0.400703
O O10 0.500000 0.252968 0.498582
O O11 0.500000 0.438790 0.137348
O O12 0.750000 0.316076 0.750000
O O13 0.876581 0.311709 0.894788
#
# Coordination Sequence:
#
# PCOD8264992 Si02
#       7
#     8  16   8   8  16  16   8
#     4  12  24  38  66  90 130 160 208 254 316 370
#     4   9  20  39  69  89 125 165 211 251 305 382
#     4  12  26  44  60  94 126 168 210 270 310 370
#     4  12  26  46  67  88 124 174 221 260 315 381
#     4   9  20  41  61  97 123 163 211 251 300 385
#     4  12  23  43  65  96 127 165 213 265 323 375
#     4  12  28  44  65  92 130 170 215 270 317 379
#
# _framework density 19.511375000000001
#
# number of rings (size 3 to 8) (size 9 to 14) (size 15 to 20)
#    0.000    1.200    4.000    3.000    7.000    0.000 
#    0.000    1.000    0.000    2.400    0.000    0.000 
#    0.000    0.000    0.000    0.000    0.000    0.000 
#
# Total GULP energy -496173.921780 kJ/mol
# GULP energy per Si atom -12404.348045 kJ/mol
# Density = 1.946697 g / cm^3
# Si number density = 19.511375 Si / 1000 Ang^3
#
#
#
# Elastic Constant Matrix: (Units=GPa)
#
#
# Indices 1 2 3 4 5 6 
#
# 1 144.2908 84.2069 58.6845 0.0000 0.0000 0.0000
# 2 84.2069 156.6294 87.9984 0.0000 0.0000 0.0000
# 3 58.6845 87.9984 150.8487 0.0000 0.0000 0.0000
# 4 0.0000 0.0000 0.0000 35.2246 0.0000 0.0000
# 5 0.0000 0.0000 0.0000 0.0000 126.2048 0.0000
# 6 0.0000 0.0000 0.0000 0.0000 0.0000 60.6855
#
#
#
# Elastic Compliance Matrix: (Units=1/GPa)
#
#
# Indices 1 2 3 4 5 6 
#
# 1 0.010231 -0.004856 -0.001148 0.000000 0.000000 0.000000
# 2 -0.004856 0.011802 -0.004996 0.000000 0.000000 0.000000
# 3 -0.001148 -0.004996 0.009990 0.000000 0.000000 0.000000
# 4 0.000000 0.000000 0.000000 0.028389 0.000000 0.000000
# 5 0.000000 0.000000 0.000000 0.000000 0.007924 0.000000
# 6 0.000000 0.000000 0.000000 0.000000 0.000000 0.016478
#
#
# Mechanical properties :
#
#
# Convention : Reuss Voigt Hill
#
# Bulk Modulus (GPa) = 99.75249 101.50540 100.62894
# Shear Modulus (GPa) = 45.39165 59.14826 52.26995
#
# Velocity S-wave (km/s) = 4.82853 5.51186 5.18147
# Velocity P-wave (km/s) = 9.07318 9.62518 9.35325
#
# Compressibility (1/GPa) = 0.01002481
#
# Stress axis : x y z
#
# Youngs Moduli (GPa) = 97.74366 84.73455 100.10227
#
# Poissons Ratio (x) = 0.41143 0.11488
# Poissons Ratio (y) = 0.47460 0.50007
# Poissons Ratio (z) = 0.11217 0.42330
#
# Static dielectric constant tensor:
#      x y z
#    x 3.501800 0.000000 0.000000 
#    y 0.000000 3.777590 0.000000 
#    z 0.000000 0.000000 3.497400 
# 
# 
# High freq. dielectric constant tensor:
#      x y z
#    x 1.751170 0.000000 0.000000 
#    y 0.000000 1.779920 0.000000 
#    z 0.000000 0.000000 1.761980 
# 
# From -- ./inp_files/29893.got.cif
#   From: 2010.03.12/outbox.cif.g09.slc.cpg/sg64_15_cif.got.tgz:29893.got - 2010.04.10 20:19:32.
