data_PCOD8264714
_publ_section_title
;
Structure prediction by ZEFSAII (Michael W. Deem and Ramdas Pophale) SiO2 
 PCOD8264714
Probable space group: C M C A
;
_chemical_formula_sum "Si O2"
_cell_formula_units_Z 48
_cell_length_a 8.314788
_cell_length_b 20.416100
_cell_length_c 11.559646
_cell_angle_alpha 90.000000
_cell_angle_beta 90.000000
_cell_angle_gamma 90.000000
_cell_volume 1962.313987
_symmetry_space_group_name_H-M "C M C A"
_symmetry_group_IT_number 64
_symmetry_cell_setting 'orthorhombic'
loop_
_space_group_symop_operation_xyz
x,y,z
-x,1/2-y,1/2+z
x,-y,-z
-x,1/2+y,1/2-z
-x,-y,-z
x,1/2+y,1/2-z
-x,y,z
x,1/2-y,1/2+z
1/2+x,1/2+y,z
1/2-x,-y,1/2+z
1/2+x,1/2-y,-z
1/2-x,y,1/2-z
1/2-x,1/2-y,-z
1/2+x,y,1/2-z
1/2-x,1/2+y,z
1/2+x,-y,1/2+z
loop_
_atom_site_type_symbol
_atom_site_label
_atom_site_fract_x
_atom_site_fract_y
_atom_site_fract_z
Si Si1 0.185301 0.447011 0.865743
Si Si2 0.185114 0.414026 0.402991
Si Si3 0.188425 0.773597 0.372251
O O1 0.250000 0.413649 0.750000
O O2 0.208164 0.525415 0.857962
O O3 0.000000 0.430238 0.890381
O O4 0.300506 0.413510 0.958824
O O5 0.259630 0.348403 0.353193
O O6 0.000000 0.422176 0.366007
O O7 0.250000 0.739048 0.250000
O O8 0.250000 0.750000 0.500000
O O9 0.000000 0.764739 0.376488
#
# Coordination Sequence:
#
# PCOD8264714 Si02
#       3
#    16  16  16
#     4  11  21  36  58  89 125 165 208 259 316 380
#     4  11  22  39  61  90 124 164 209 260 317 382
#     4  12  26  47  71  99 131 172 220 273 329 390
#
# _framework density 24.460916999999998
#
# number of rings (size 3 to 8) (size 9 to 14) (size 15 to 20)
#    0.000    0.667    0.000   12.000    0.000    1.333 
#    0.000    6.667    0.000    0.000    0.000    0.000 
#    0.000    0.000    0.000    0.000    0.000    0.000 
#
# Total GULP energy -297323.104778 kJ/mol
# GULP energy per Si atom -12388.462699 kJ/mol
# Density = 2.440524 g / cm^3
# Si number density = 24.460917 Si / 1000 Ang^3
#
#
#
# Elastic Constant Matrix: (Units=GPa)
#
#
# Indices 1 2 3 4 5 6 
#
# 1 183.6388 18.2999 42.5066 0.0000 0.0000 0.0000
# 2 18.2999 48.2150 8.4869 0.0000 0.0000 0.0000
# 3 42.5066 8.4869 211.0881 0.0000 0.0000 0.0000
# 4 0.0000 0.0000 0.0000 -164.0626 0.0000 0.0000
# 5 0.0000 0.0000 0.0000 0.0000 46.6699 0.0000
# 6 0.0000 0.0000 0.0000 0.0000 0.0000 31.8839
#
#
#
# Elastic Compliance Matrix: (Units=1/GPa)
#
#
# Indices 1 2 3 4 5 6 
#
# 1 0.005906 -0.002047 -0.001107 0.000000 0.000000 0.000000
# 2 -0.002047 0.021598 -0.000456 0.000000 0.000000 0.000000
# 3 -0.001107 -0.000456 0.004979 0.000000 0.000000 0.000000
# 4 0.000000 0.000000 0.000000 -0.006095 0.000000 0.000000
# 5 0.000000 0.000000 0.000000 0.000000 0.021427 0.000000
# 6 0.000000 0.000000 0.000000 0.000000 0.000000 0.031364
#
#
# Mechanical properties :
#
#
# Convention : Reuss Voigt Hill
#
# Bulk Modulus (GPa) = 39.58478 64.61431 52.09955
# Shear Modulus (GPa) = 52.73277 7.80814 30.27046
#
# Velocity S-wave (km/s) = 4.64809 1.78858 3.52163
# Velocity P-wave (km/s) = 6.71002 5.54419 6.15477
#
# Compressibility (1/GPa) = 0.02526223
#
# Stress axis : x y z
#
# Youngs Moduli (GPa) = 169.32962 46.30157 200.85967
#
# Poissons Ratio (x) = 0.09476 0.22234
# Poissons Ratio (y) = 0.34656 0.09164
# Poissons Ratio (z) = 0.18744 0.02112
#
# Static dielectric constant tensor:
#      x y z
#    x 4.026850 0.000000 0.000000 
#    y 0.000000 4.173370 0.000000 
#    z 0.000000 0.000000 -1.501180 
# 
# 
# High freq. dielectric constant tensor:
#      x y z
#    x 1.974750 0.000000 0.000000 
#    y 0.000000 1.939960 0.000000 
#    z 0.000000 0.000000 2.020950 
# 
# From -- ./inp_files/11793.got.cif
#   From: 2010.03.12/outbox.cif.g09.slc.cpg/sg64_6_cif.got.tgz:11793.got - 2010.04.10 20:19:32.
