data_PCOD8264018
_publ_section_title
;
Structure prediction by ZEFSAII (Michael W. Deem and Ramdas Pophale) SiO2 
 PCOD8264018
Probable space group: C M C A
;
_chemical_formula_sum "Si O2"
_cell_formula_units_Z 80
_cell_length_a 22.476677
_cell_length_b 18.776343
_cell_length_c 9.672411
_cell_angle_alpha 90.000000
_cell_angle_beta 90.000000
_cell_angle_gamma 90.000000
_cell_volume 4082.045649
_symmetry_space_group_name_H-M "C M C A"
_symmetry_group_IT_number 64
_symmetry_cell_setting 'orthorhombic'
loop_
_space_group_symop_operation_xyz
x,y,z
-x,1/2-y,1/2+z
x,-y,-z
-x,1/2+y,1/2-z
-x,-y,-z
x,1/2+y,1/2-z
-x,y,z
x,1/2-y,1/2+z
1/2+x,1/2+y,z
1/2-x,-y,1/2+z
1/2+x,1/2-y,-z
1/2-x,y,1/2-z
1/2-x,1/2-y,-z
1/2+x,y,1/2-z
1/2-x,1/2+y,z
1/2+x,-y,1/2+z
loop_
_atom_site_type_symbol
_atom_site_label
_atom_site_fract_x
_atom_site_fract_y
_atom_site_fract_z
Si Si1 0.690787 0.794849 0.513355
Si Si2 0.872982 0.308143 0.222243
Si Si3 0.756037 0.932543 0.597431
Si Si4 0.000000 0.764779 0.310398
Si Si5 0.118785 0.583245 0.000894
Si Si6 0.000000 0.660906 0.087861
O O1 0.750000 0.750000 0.500000
O O2 0.645627 0.755042 0.616291
O O3 0.663942 0.803655 0.361419
O O4 0.706052 0.873083 0.569892
O O5 0.866266 0.385654 0.151370
O O6 0.942397 0.301404 0.256740
O O7 0.750000 0.963170 0.750000
O O8 0.822008 0.898204 0.587322
O O9 0.747147 0.000000 0.500000
O O10 0.000000 0.772830 0.477555
O O11 0.000000 0.684672 0.248552
O O12 0.107187 0.500000 0.000000
O O13 0.060015 0.616858 0.066388
#
# Coordination Sequence:
#
# PCOD8264018 Si02
#       6
#    16  16  16   8  16   8
#     4  12  24  38  64  91 128 161 209 250 318 375
#     4  11  23  41  63  93 122 168 206 267 308 377
#     4  11  26  41  63  92 127 166 208 255 314 375
#     4  10  22  38  62  88 122 152 208 256 316 350
#     4  10  22  39  65  87 124 162 215 251 315 371
#     4  10  21  40  62  92 117 164 204 266 307 380
#
# _framework density 19.598016000000001
#
# number of rings (size 3 to 8) (size 9 to 14) (size 15 to 20)
#    0.000    1.200    2.000    4.500    8.400    0.000 
#    0.000    0.000    0.000    0.000    0.000    6.300 
#    0.000    0.000    0.000    0.000    0.000    0.000 
#
# Total GULP energy -495800.213214 kJ/mol
# GULP energy per Si atom -12395.005330 kJ/mol
# Density = 1.955341 g / cm^3
# Si number density = 19.598016 Si / 1000 Ang^3
#
#
#
# Elastic Constant Matrix: (Units=GPa)
#
#
# Indices 1 2 3 4 5 6 
#
# 1 127.1458 49.2591 59.0434 0.0000 0.0000 0.0000
# 2 49.2591 132.8037 75.7006 0.0000 0.0000 0.0000
# 3 59.0434 75.7006 141.4153 0.0000 0.0000 0.0000
# 4 0.0000 0.0000 0.0000 32.1748 0.0000 0.0000
# 5 0.0000 0.0000 0.0000 0.0000 31.8269 0.0000
# 6 0.0000 0.0000 0.0000 0.0000 0.0000 10.7776
#
#
#
# Elastic Compliance Matrix: (Units=1/GPa)
#
#
# Indices 1 2 3 4 5 6 
#
# 1 0.010089 -0.001930 -0.003179 0.000000 0.000000 0.000000
# 2 -0.001930 0.011206 -0.005193 0.000000 0.000000 0.000000
# 3 -0.003179 -0.005193 0.011178 0.000000 0.000000 0.000000
# 4 0.000000 0.000000 0.000000 0.031080 0.000000 0.000000
# 5 0.000000 0.000000 0.000000 0.000000 0.031420 0.000000
# 6 0.000000 0.000000 0.000000 0.000000 0.000000 0.092785
#
#
# Mechanical properties :
#
#
# Convention : Reuss Voigt Hill
#
# Bulk Modulus (GPa) = 84.25023 85.48565 84.86794
# Shear Modulus (GPa) = 23.54950 29.44663 26.49807
#
# Velocity S-wave (km/s) = 3.47021 3.88046 3.68105
# Velocity P-wave (km/s) = 7.69019 7.98696 7.83998
#
# Compressibility (1/GPa) = 0.01186940
#
# Stress axis : x y z
#
# Youngs Moduli (GPa) = 99.11725 89.24027 89.45797
#
# Poissons Ratio (x) = 0.17223 0.28441
# Poissons Ratio (y) = 0.19129 0.46453
# Poissons Ratio (z) = 0.31512 0.46340
#
# Static dielectric constant tensor:
#      x y z
#    x 3.933000 0.000000 0.000000 
#    y 0.000000 3.619060 0.000000 
#    z 0.000000 0.000000 3.864510 
# 
# 
# High freq. dielectric constant tensor:
#      x y z
#    x 1.785760 0.000000 0.000000 
#    y 0.000000 1.757610 0.000000 
#    z 0.000000 0.000000 1.761850 
# 
# From -- ./inp_files/9261.got.cif
#   From: 2010.03.12/outbox.cif.g09.slc.cpg/sg64_5_cif.got.tgz:9261.got - 2010.04.10 20:19:32.
