data_PCOD8264070
_publ_section_title
;
Structure prediction by ZEFSAII (Michael W. Deem and Ramdas Pophale) SiO2 
 PCOD8264070
Probable space group: C M C A
;
_chemical_formula_sum "Si O2"
_cell_formula_units_Z 64
_cell_length_a 18.594174
_cell_length_b 19.190223
_cell_length_c 8.596122
_cell_angle_alpha 90.000000
_cell_angle_beta 90.000000
_cell_angle_gamma 90.000000
_cell_volume 3067.322799
_symmetry_space_group_name_H-M "C M C A"
_symmetry_group_IT_number 64
_symmetry_cell_setting 'orthorhombic'
loop_
_space_group_symop_operation_xyz
x,y,z
-x,1/2-y,1/2+z
x,-y,-z
-x,1/2+y,1/2-z
-x,-y,-z
x,1/2+y,1/2-z
-x,y,z
x,1/2-y,1/2+z
1/2+x,1/2+y,z
1/2-x,-y,1/2+z
1/2+x,1/2-y,-z
1/2-x,y,1/2-z
1/2-x,1/2-y,-z
1/2+x,y,1/2-z
1/2-x,1/2+y,z
1/2+x,-y,1/2+z
loop_
_atom_site_type_symbol
_atom_site_label
_atom_site_fract_x
_atom_site_fract_y
_atom_site_fract_z
Si Si1 0.316488 0.041102 0.144577
Si Si2 0.662188 0.680965 0.891550
Si Si3 0.675337 0.175484 0.974340
Si Si4 0.421272 0.548712 0.856439
O O1 0.250000 0.063909 0.250000
O O2 0.371429 0.988234 0.227760
O O3 0.355040 0.110367 0.075075
O O4 0.281769 0.000000 0.000000
O O5 0.657065 0.674825 0.705997
O O6 0.738127 0.671660 0.979066
O O7 0.610794 0.618005 0.939826
O O8 0.637683 0.757682 0.945059
O O9 0.500000 0.564891 0.781556
O O10 0.432895 0.500000 0.000000
#
# Coordination Sequence:
#
# PCOD8264070 Si02
#       4
#    16  16  16  16
#     4  12  23  39  65  97 123 165 211 264 316 378
#     4  10  21  41  58  94 126 164 204 261 316 370
#     4  10  22  36  65  93 127 157 209 263 313 371
#     4  11  25  44  64  89 129 170 212 263 320 383
#
# _framework density 20.865100999999999
#
# number of rings (size 3 to 8) (size 9 to 14) (size 15 to 20)
#    0.000    1.250    2.500    3.750   10.500    0.500 
#    0.000    2.500    0.000    0.000    0.000    0.000 
#    0.000    0.000    0.000    0.000    0.000    0.000 
#
# Total GULP energy -396459.627135 kJ/mol
# GULP energy per Si atom -12389.363348 kJ/mol
# Density = 2.081761 g / cm^3
# Si number density = 20.865101 Si / 1000 Ang^3
#
#
#
# Elastic Constant Matrix: (Units=GPa)
#
#
# Indices 1 2 3 4 5 6 
#
# 1 72.1803 37.8047 23.8094 0.0000 0.0000 0.0000
# 2 37.8047 177.0951 42.7302 0.0000 0.0000 0.0000
# 3 23.8094 42.7302 81.9001 0.0000 0.0000 0.0000
# 4 0.0000 0.0000 0.0000 45.5634 0.0000 0.0000
# 5 0.0000 0.0000 0.0000 0.0000 7.6007 0.0000
# 6 0.0000 0.0000 0.0000 0.0000 0.0000 343.2153
#
#
#
# Elastic Compliance Matrix: (Units=1/GPa)
#
#
# Indices 1 2 3 4 5 6 
#
# 1 0.016368 -0.002684 -0.003358 0.000000 0.000000 0.000000
# 2 -0.002684 0.006900 -0.002820 0.000000 0.000000 0.000000
# 3 -0.003358 -0.002820 0.014657 0.000000 0.000000 0.000000
# 4 0.000000 0.000000 0.000000 0.021947 0.000000 0.000000
# 5 0.000000 0.000000 0.000000 0.000000 0.131567 0.000000
# 6 0.000000 0.000000 0.000000 0.000000 0.000000 0.002914
#
#
# Mechanical properties :
#
#
# Convention : Reuss Voigt Hill
#
# Bulk Modulus (GPa) = 49.50064 59.98491 54.74277
# Shear Modulus (GPa) = 22.85085 94.39796 58.62441
#
# Velocity S-wave (km/s) = 3.31293 6.73352 5.30640
# Velocity P-wave (km/s) = 6.19755 9.44802 7.98983
#
# Compressibility (1/GPa) = 0.02020176
#
# Stress axis : x y z
#
# Youngs Moduli (GPa) = 61.09668 144.92868 68.22498
#
# Poissons Ratio (x) = 0.38895 0.22910
# Poissons Ratio (y) = 0.16397 0.19238
# Poissons Ratio (z) = 0.20517 0.40866
#
# Static dielectric constant tensor:
#      x y z
#    x 3.684330 0.000000 0.000000 
#    y 0.000000 4.541940 0.000000 
#    z 0.000000 0.000000 3.964490 
# 
# 
# High freq. dielectric constant tensor:
#      x y z
#    x 1.765060 0.000000 0.000000 
#    y 0.000000 1.842050 0.000000 
#    z 0.000000 0.000000 1.827790 
# 
# From -- ./inp_files/6579.got.cif
#   From: 2010.03.12/outbox.cif.g09.slc.cpg/sg64_4_cif.got.tgz:6579.got - 2010.04.10 20:19:32.
