data_PCOD8264479
_publ_section_title
;
Structure prediction by ZEFSAII (Michael W. Deem and Ramdas Pophale) SiO2 
 PCOD8264479
Probable space group: C M C A
;
_chemical_formula_sum "Si O2"
_cell_formula_units_Z 96
_cell_length_a 20.884002
_cell_length_b 14.644166
_cell_length_c 15.172881
_cell_angle_alpha 90.000000
_cell_angle_beta 90.000000
_cell_angle_gamma 90.000000
_cell_volume 4640.303868
_symmetry_space_group_name_H-M "C M C A"
_symmetry_group_IT_number 64
_symmetry_cell_setting 'orthorhombic'
loop_
_space_group_symop_operation_xyz
x,y,z
-x,1/2-y,1/2+z
x,-y,-z
-x,1/2+y,1/2-z
-x,-y,-z
x,1/2+y,1/2-z
-x,y,z
x,1/2-y,1/2+z
1/2+x,1/2+y,z
1/2-x,-y,1/2+z
1/2+x,1/2-y,-z
1/2-x,y,1/2-z
1/2-x,1/2-y,-z
1/2+x,y,1/2-z
1/2-x,1/2+y,z
1/2+x,-y,1/2+z
loop_
_atom_site_type_symbol
_atom_site_label
_atom_site_fract_x
_atom_site_fract_y
_atom_site_fract_z
Si Si1 0.070239 0.253973 0.982002
Si Si2 0.423130 0.993278 0.752023
Si Si3 0.887669 0.190080 0.161906
Si Si4 0.365958 0.821564 0.317805
Si Si5 0.359906 0.574021 0.430225
Si Si6 0.755648 0.304899 0.844128
O O1 0.108583 0.187228 0.917088
O O2 0.093656 0.357647 0.980950
O O3 0.000000 0.252740 0.942520
O O4 0.067160 0.220726 0.082785
O O5 0.500000 0.012286 0.752816
O O6 0.405642 0.913455 0.684107
O O7 0.398087 0.969758 0.849033
O O8 0.381232 0.078850 0.718640
O O9 0.898534 0.248259 0.251100
O O10 0.816391 0.206318 0.120438
O O11 0.290532 0.793811 0.326619
O O12 0.336927 0.500000 0.500000
O O13 0.296129 0.629005 0.405539
O O14 0.750000 0.356013 0.750000
#
# Coordination Sequence:
#
# PCOD8264479 Si02
#       6
#    16  16  16  16  16  16
#     4  11  23  41  65  91 134 176 218 272 332 398
#     4  12  24  41  68  99 133 174 222 272 337 401
#     4  11  23  45  67  97 130 182 223 276 335 392
#     4  10  23  42  64  95 130 179 216 274 331 392
#     4  11  23  40  64 102 130 173 217 280 335 391
#     4   9  19  46  64  88 133 169 221 268 327 391
#
# _framework density 20.688299000000001
#
# number of rings (size 3 to 8) (size 9 to 14) (size 15 to 20)
#    0.000    1.333    5.000    2.500    0.000    8.000 
#   15.000    1.667    0.000    0.000    0.000    0.000 
#    0.000    0.000    0.000    0.000    0.000    0.000 
#
# Total GULP energy -594896.865509 kJ/mol
# GULP energy per Si atom -12393.684698 kJ/mol
# Density = 2.064121 g / cm^3
# Si number density = 20.688299 Si / 1000 Ang^3
#
#
#
# Elastic Constant Matrix: (Units=GPa)
#
#
# Indices 1 2 3 4 5 6 
#
# 1 100.2578 31.4765 18.6116 0.0000 0.0000 0.0000
# 2 31.4765 138.8398 37.4426 0.0000 0.0000 0.0000
# 3 18.6116 37.4426 90.3271 0.0000 0.0000 0.0000
# 4 0.0000 0.0000 0.0000 35.0511 0.0000 0.0000
# 5 0.0000 0.0000 0.0000 0.0000 23.5392 0.0000
# 6 0.0000 0.0000 0.0000 0.0000 0.0000 16.0370
#
#
#
# Elastic Compliance Matrix: (Units=1/GPa)
#
#
# Indices 1 2 3 4 5 6 
#
# 1 0.010888 -0.002098 -0.001374 0.000000 0.000000 0.000000
# 2 -0.002098 0.008513 -0.003097 0.000000 0.000000 0.000000
# 3 -0.001374 -0.003097 0.012638 0.000000 0.000000 0.000000
# 4 0.000000 0.000000 0.000000 0.028530 0.000000 0.000000
# 5 0.000000 0.000000 0.000000 0.000000 0.042482 0.000000
# 6 0.000000 0.000000 0.000000 0.000000 0.000000 0.062356
#
#
# Mechanical properties :
#
#
# Convention : Reuss Voigt Hill
#
# Bulk Modulus (GPa) = 52.90436 56.05402 54.47919
# Shear Modulus (GPa) = 27.04980 31.05173 29.05077
#
# Velocity S-wave (km/s) = 3.61985 3.87839 3.75135
# Velocity P-wave (km/s) = 6.56496 6.87090 6.71967
#
# Compressibility (1/GPa) = 0.01890203
#
# Stress axis : x y z
#
# Youngs Moduli (GPa) = 91.84445 117.46337 79.12908
#
# Poissons Ratio (x) = 0.24643 0.10871
# Poissons Ratio (y) = 0.19268 0.24504
# Poissons Ratio (z) = 0.12618 0.36375
#
# Static dielectric constant tensor:
#      x y z
#    x 4.033940 0.000000 0.000000 
#    y 0.000000 3.670900 0.000000 
#    z 0.000000 0.000000 3.702110 
# 
# 
# High freq. dielectric constant tensor:
#      x y z
#    x 1.816310 0.000000 0.000000 
#    y 0.000000 1.797340 0.000000 
#    z 0.000000 0.000000 1.818840 
# 
# From -- ./inp_files/26322.got.cif
#   From: 2010.03.12/outbox.cif.g09.slc.cpg/sg64_14_cif.got.tgz:26322.got - 2010.04.10 20:19:32.
