data_PCOD8264556
_publ_section_title
;
Structure prediction by ZEFSAII (Michael W. Deem and Ramdas Pophale) SiO2 
 PCOD8264556
Probable space group: C M C A
;
_chemical_formula_sum "Si O2"
_cell_formula_units_Z 96
_cell_length_a 22.233871
_cell_length_b 11.182769
_cell_length_c 18.657792
_cell_angle_alpha 90.000000
_cell_angle_beta 90.000000
_cell_angle_gamma 90.000000
_cell_volume 4639.003312
_symmetry_space_group_name_H-M "C M C A"
_symmetry_group_IT_number 64
_symmetry_cell_setting 'orthorhombic'
loop_
_space_group_symop_operation_xyz
x,y,z
-x,1/2-y,1/2+z
x,-y,-z
-x,1/2+y,1/2-z
-x,-y,-z
x,1/2+y,1/2-z
-x,y,z
x,1/2-y,1/2+z
1/2+x,1/2+y,z
1/2-x,-y,1/2+z
1/2+x,1/2-y,-z
1/2-x,y,1/2-z
1/2-x,1/2-y,-z
1/2+x,y,1/2-z
1/2-x,1/2+y,z
1/2+x,-y,1/2+z
loop_
_atom_site_type_symbol
_atom_site_label
_atom_site_fract_x
_atom_site_fract_y
_atom_site_fract_z
Si Si1 0.069907 0.387006 0.334636
Si Si2 0.245884 0.125368 0.043905
Si Si3 0.132533 0.339350 0.890865
Si Si4 0.386201 0.916572 0.567688
Si Si5 0.068002 0.332187 0.035472
Si Si6 0.570190 0.959426 0.178431
O O1 0.114683 0.297645 0.375782
O O2 0.083746 0.519150 0.364277
O O3 0.085720 0.387197 0.250402
O O4 0.000000 0.352563 0.348102
O O5 0.296279 0.137975 0.105658
O O6 0.181879 0.125590 0.084476
O O7 0.250000 0.250000 0.000000
O O8 0.254790 0.000000 0.000000
O O9 0.104967 0.414737 0.825239
O O10 0.106294 0.379733 0.968300
O O11 0.429108 0.809329 0.544607
O O12 0.383333 0.000000 0.500000
O O13 0.092776 0.385224 0.109897
O O14 0.000000 0.371977 0.020708
O O15 0.500000 0.988472 0.176175
#
# Coordination Sequence:
#
# PCOD8264556 Si02
#       6
#    16  16  16  16  16  16
#     4  11  24  42  64  93 132 173 214 269 338 399
#     4  11  22  41  67  97 132 174 223 276 333 391
#     4  12  22  40  67  93 125 169 217 274 325 392
#     4  11  22  39  63  94 126 167 216 266 321 387
#     4  11  21  36  63  95 122 157 213 271 321 379
#     4  10  24  40  60  91 129 169 208 261 334 398
#
# _framework density 20.694099999999999
#
# number of rings (size 3 to 8) (size 9 to 14) (size 15 to 20)
#    0.000    1.000    3.333    4.500    2.333    2.000 
#    0.000    0.833    0.000    0.000    0.000    0.000 
#    0.000    0.000    0.000    0.000    0.000    0.000 
#
# Total GULP energy -595181.141026 kJ/mol
# GULP energy per Si atom -12399.607105 kJ/mol
# Density = 2.064700 g / cm^3
# Si number density = 20.694100 Si / 1000 Ang^3
#
#
#
# Elastic Constant Matrix: (Units=GPa)
#
#
# Indices 1 2 3 4 5 6 
#
# 1 66.2089 20.4672 32.3668 0.0000 0.0000 0.0000
# 2 20.4672 82.6319 12.9416 0.0000 0.0000 0.0000
# 3 32.3668 12.9416 90.6521 0.0000 0.0000 0.0000
# 4 0.0000 0.0000 0.0000 34.9135 0.0000 0.0000
# 5 0.0000 0.0000 0.0000 0.0000 16.6933 0.0000
# 6 0.0000 0.0000 0.0000 0.0000 0.0000 33.6468
#
#
#
# Elastic Compliance Matrix: (Units=1/GPa)
#
#
# Indices 1 2 3 4 5 6 
#
# 1 0.019401 -0.003806 -0.006384 0.000000 0.000000 0.000000
# 2 -0.003806 0.013125 -0.000515 0.000000 0.000000 0.000000
# 3 -0.006384 -0.000515 0.013384 0.000000 0.000000 0.000000
# 4 0.000000 0.000000 0.000000 0.028642 0.000000 0.000000
# 5 0.000000 0.000000 0.000000 0.000000 0.059904 0.000000
# 6 0.000000 0.000000 0.000000 0.000000 0.000000 0.029721
#
#
# Mechanical properties :
#
#
# Convention : Reuss Voigt Hill
#
# Bulk Modulus (GPa) = 40.81399 41.22711 41.02055
# Shear Modulus (GPa) = 25.80613 28.63189 27.21901
#
# Velocity S-wave (km/s) = 3.53516 3.72368 3.63064
# Velocity P-wave (km/s) = 6.03560 6.20106 6.11889
#
# Compressibility (1/GPa) = 0.02450140
#
# Stress axis : x y z
#
# Youngs Moduli (GPa) = 51.54407 76.18966 74.71635
#
# Poissons Ratio (x) = 0.28995 0.47696
# Poissons Ratio (y) = 0.19616 0.03848
# Poissons Ratio (z) = 0.32904 0.03924
#
# Static dielectric constant tensor:
#      x y z
#    x 3.970490 0.000000 0.000000 
#    y 0.000000 4.529260 0.000000 
#    z 0.000000 0.000000 3.717390 
# 
# 
# High freq. dielectric constant tensor:
#      x y z
#    x 1.806680 0.000000 0.000000 
#    y 0.000000 1.825740 0.000000 
#    z 0.000000 0.000000 1.790610 
# 
# From -- ./inp_files/34956.got.cif
#   From: 2010.03.12/outbox.cif.g09.slc.cpg/sg64_18_cif.got.tgz:34956.got - 2010.04.10 20:19:32.
