data_PCOD8264786
_publ_section_title
;
Structure prediction by ZEFSAII (Michael W. Deem and Ramdas Pophale) SiO2 
 PCOD8264786
Probable space group: C M C A
;
_chemical_formula_sum "Si O2"
_cell_formula_units_Z 88
_cell_length_a 14.435501
_cell_length_b 15.181163
_cell_length_c 20.039473
_cell_angle_alpha 90.000000
_cell_angle_beta 90.000000
_cell_angle_gamma 90.000000
_cell_volume 4391.604290
_symmetry_space_group_name_H-M "C M C A"
_symmetry_group_IT_number 64
_symmetry_cell_setting 'orthorhombic'
loop_
_space_group_symop_operation_xyz
x,y,z
-x,1/2-y,1/2+z
x,-y,-z
-x,1/2+y,1/2-z
-x,-y,-z
x,1/2+y,1/2-z
-x,y,z
x,1/2-y,1/2+z
1/2+x,1/2+y,z
1/2-x,-y,1/2+z
1/2+x,1/2-y,-z
1/2-x,y,1/2-z
1/2-x,1/2-y,-z
1/2+x,y,1/2-z
1/2-x,1/2+y,z
1/2+x,-y,1/2+z
loop_
_atom_site_type_symbol
_atom_site_label
_atom_site_fract_x
_atom_site_fract_y
_atom_site_fract_z
Si Si1 0.500000 0.688487 0.345856
Si Si2 0.201371 0.885042 0.817742
Si Si3 0.817171 0.682921 0.805220
Si Si4 0.394405 0.098955 0.931025
Si Si5 0.650874 0.905007 0.922770
Si Si6 0.000000 0.435953 0.716398
Si Si7 0.000000 0.146470 0.767240
O O1 0.406733 0.670875 0.386257
O O2 0.500000 0.622102 0.282972
O O3 0.500000 0.794335 0.334161
O O4 0.250000 0.923413 0.750000
O O5 0.216544 0.781056 0.818572
O O6 0.251358 0.919853 0.884982
O O7 0.093743 0.912912 0.823701
O O8 0.750000 0.636688 0.750000
O O9 0.822912 0.633164 0.875348
O O10 0.917315 0.683321 0.775218
O O11 0.500000 0.138619 0.928848
O O12 0.406824 0.995093 0.920431
O O13 0.340697 0.122509 0.999702
O O14 0.000000 0.541458 0.726484
#
# Coordination Sequence:
#
# PCOD8264786 Si02
#       7
#     8  16  16  16  16   8   8
#     4  12  18  40  65  94 128 160 208 272 311 371
#     4  11  23  40  62  91 128 169 205 263 321 371
#     4  11  23  40  62  94 126 160 210 258 316 385
#     4  11  22  40  68  96 123 165 213 268 315 374
#     4  11  22  39  64  94 128 162 213 263 321 371
#     4  12  24  38  61  95 130 164 208 267 324 367
#     4  12  24  37  62  97 126 165 209 259 318 380
#
# _framework density 20.038236000000001
#
# number of rings (size 3 to 8) (size 9 to 14) (size 15 to 20)
#    0.000    0.727    6.364    2.727    2.545    0.727 
#    0.000    0.000    0.000    3.273    0.000    0.000 
#    0.000    0.000    0.000    0.000    0.000    0.000 
#
# Total GULP energy -545308.460710 kJ/mol
# GULP energy per Si atom -12393.374107 kJ/mol
# Density = 1.999263 g / cm^3
# Si number density = 20.038236 Si / 1000 Ang^3
#
#
#
# Elastic Constant Matrix: (Units=GPa)
#
#
# Indices 1 2 3 4 5 6 
#
# 1 132.5757 2.0634 72.0157 0.0000 0.0000 0.0000
# 2 2.0634 71.1526 36.7072 0.0000 0.0000 0.0000
# 3 72.0157 36.7072 160.8910 0.0000 0.0000 0.0000
# 4 0.0000 0.0000 0.0000 23.1318 0.0000 0.0000
# 5 0.0000 0.0000 0.0000 0.0000 37.8572 0.0000
# 6 0.0000 0.0000 0.0000 0.0000 0.0000 20.5869
#
#
#
# Elastic Compliance Matrix: (Units=1/GPa)
#
#
# Indices 1 2 3 4 5 6 
#
# 1 0.010304 0.002358 -0.005150 0.000000 0.000000 0.000000
# 2 0.002358 0.016469 -0.004813 0.000000 0.000000 0.000000
# 3 -0.005150 -0.004813 0.009619 0.000000 0.000000 0.000000
# 4 0.000000 0.000000 0.000000 0.043230 0.000000 0.000000
# 5 0.000000 0.000000 0.000000 0.000000 0.026415 0.000000
# 6 0.000000 0.000000 0.000000 0.000000 0.000000 0.048575
#
#
# Mechanical properties :
#
#
# Convention : Reuss Voigt Hill
#
# Bulk Modulus (GPa) = 47.21088 65.13243 56.17165
# Shear Modulus (GPa) = 28.26758 33.23739 30.75249
#
# Velocity S-wave (km/s) = 3.75998 4.07713 3.92176
# Velocity P-wave (km/s) = 6.51625 7.39856 6.97137
#
# Compressibility (1/GPa) = 0.02118156
#
# Stress axis : x y z
#
# Youngs Moduli (GPa) = 97.05320 60.72078 103.96555
#
# Poissons Ratio (x) = -0.14318 0.53542
# Poissons Ratio (y) = -0.22885 0.50037
# Poissons Ratio (z) = 0.49982 0.29224
#
# Static dielectric constant tensor:
#      x y z
#    x 3.744720 0.000000 0.000000 
#    y 0.000000 3.643250 0.000000 
#    z 0.000000 0.000000 3.883030 
# 
# 
# High freq. dielectric constant tensor:
#      x y z
#    x 1.787110 0.000000 0.000000 
#    y 0.000000 1.769390 0.000000 
#    z 0.000000 0.000000 1.774770 
# 
# From -- ./inp_files/39102.got.cif
#   From: 2010.03.12/outbox.cif.g09.slc.cpg/sg64_20_cif.got.tgz:39102.got - 2010.04.10 20:19:32.
