data_PCOD8264434
_publ_section_title
;
Structure prediction by ZEFSAII (Michael W. Deem and Ramdas Pophale) SiO2 
 PCOD8264434
Probable space group: C M C A
;
_chemical_formula_sum "Si O2"
_cell_formula_units_Z 48
_cell_length_a 15.406191
_cell_length_b 18.197037
_cell_length_c 8.832458
_cell_angle_alpha 90.000000
_cell_angle_beta 90.000000
_cell_angle_gamma 90.000000
_cell_volume 2476.153347
_symmetry_space_group_name_H-M "C M C A"
_symmetry_group_IT_number 64
_symmetry_cell_setting 'orthorhombic'
loop_
_space_group_symop_operation_xyz
x,y,z
-x,1/2-y,1/2+z
x,-y,-z
-x,1/2+y,1/2-z
-x,-y,-z
x,1/2+y,1/2-z
-x,y,z
x,1/2-y,1/2+z
1/2+x,1/2+y,z
1/2-x,-y,1/2+z
1/2+x,1/2-y,-z
1/2-x,y,1/2-z
1/2-x,1/2-y,-z
1/2+x,y,1/2-z
1/2-x,1/2+y,z
1/2+x,-y,1/2+z
loop_
_atom_site_type_symbol
_atom_site_label
_atom_site_fract_x
_atom_site_fract_y
_atom_site_fract_z
Si Si1 0.903688 0.080967 0.129200
Si Si2 0.000000 0.843530 0.337465
Si Si3 0.500000 0.689891 0.313608
Si Si4 0.155452 0.925651 0.197231
O O1 0.000000 0.051381 0.087699
O O2 0.913320 0.150342 0.243738
O O3 0.851231 0.014296 0.205766
O O4 0.857723 0.104800 0.973155
O O5 0.000000 0.815333 0.507567
O O6 0.085365 0.891777 0.310997
O O7 0.000000 0.775222 0.223778
O O8 0.250000 0.900430 0.250000
#
# Coordination Sequence:
#
# PCOD8264434 Si02
#       4
#    16   8   8  16
#     4   9  19  42  59  84 120 161 190 239 298 340
#     4  12  21  42  57  91 117 157 207 238 301 352
#     4  10  23  36  69  77 119 169 191 248 297 356
#     4  11  21  36  66  90 120 155 194 246 297 350
#
# _framework density 19.384906999999998
#
# number of rings (size 3 to 8) (size 9 to 14) (size 15 to 20)
#    1.000    0.667    3.333    3.000    0.000    8.000 
#    0.000    8.333    0.000    0.000    0.000    0.000 
#    0.000    0.000    0.000    0.000    0.000    0.000 
#
# Total GULP energy -297496.973563 kJ/mol
# GULP energy per Si atom -12395.707232 kJ/mol
# Density = 1.934079 g / cm^3
# Si number density = 19.384907 Si / 1000 Ang^3
#
#
#
# Elastic Constant Matrix: (Units=GPa)
#
#
# Indices 1 2 3 4 5 6 
#
# 1 132.5047 21.0618 47.5879 0.0000 0.0000 0.0000
# 2 21.0618 44.9684 22.8037 0.0000 0.0000 0.0000
# 3 47.5879 22.8037 121.5553 0.0000 0.0000 0.0000
# 4 0.0000 0.0000 0.0000 37.4618 0.0000 0.0000
# 5 0.0000 0.0000 0.0000 0.0000 -23.0814 0.0000
# 6 0.0000 0.0000 0.0000 0.0000 0.0000 -4.4839
#
#
#
# Elastic Compliance Matrix: (Units=1/GPa)
#
#
# Indices 1 2 3 4 5 6 
#
# 1 0.009070 -0.002705 -0.003043 0.000000 0.000000 0.000000
# 2 -0.002705 0.025382 -0.003703 0.000000 0.000000 0.000000
# 3 -0.003043 -0.003703 0.010113 0.000000 0.000000 0.000000
# 4 0.000000 0.000000 0.000000 0.026694 0.000000 0.000000
# 5 0.000000 0.000000 0.000000 0.000000 -0.043325 0.000000
# 6 0.000000 0.000000 0.000000 0.000000 0.000000 -0.223018
#
#
# Mechanical properties :
#
#
# Convention : Reuss Voigt Hill
#
# Bulk Modulus (GPa) = 38.96634 53.54834 46.25734
# Shear Modulus (GPa) = -29.82801 15.81762 -7.00520
#
# Velocity S-wave (km/s) = -3.92691 2.85963 -1.90305
# Velocity P-wave (km/s) = 0.64485 6.21184 4.36870
#
# Compressibility (1/GPa) = 0.02566318
#
# Stress axis : x y z
#
# Youngs Moduli (GPa) = 110.25591 39.39741 98.88450
#
# Poissons Ratio (x) = 0.10656 0.30094
# Poissons Ratio (y) = 0.29821 0.36615
# Poissons Ratio (z) = 0.33555 0.14588
#
# Static dielectric constant tensor:
#      x y z
#    x 3.289060 0.000000 0.000000 
#    y 0.000000 3.354500 0.000000 
#    z 0.000000 0.000000 3.416770 
# 
# 
# High freq. dielectric constant tensor:
#      x y z
#    x 1.732560 0.000000 0.000000 
#    y 0.000000 1.745250 0.000000 
#    z 0.000000 0.000000 1.759120 
# 
# From -- ./inp_files/5213.got.cif
#   From: 2010.03.12/outbox.cif.g09.slc.cpg/sg64_3_cif.got.tgz:5213.got - 2010.04.10 20:19:32.
