data_PCOD8264661
_publ_section_title
;
Structure prediction by ZEFSAII (Michael W. Deem and Ramdas Pophale) SiO2 
 PCOD8264661
Probable space group: C M C A
;
_chemical_formula_sum "Si O2"
_cell_formula_units_Z 80
_cell_length_a 8.747326
_cell_length_b 25.226880
_cell_length_c 19.984453
_cell_angle_alpha 90.000000
_cell_angle_beta 90.000000
_cell_angle_gamma 90.000000
_cell_volume 4409.924145
_symmetry_space_group_name_H-M "C M C A"
_symmetry_group_IT_number 64
_symmetry_cell_setting 'orthorhombic'
loop_
_space_group_symop_operation_xyz
x,y,z
-x,1/2-y,1/2+z
x,-y,-z
-x,1/2+y,1/2-z
-x,-y,-z
x,1/2+y,1/2-z
-x,y,z
x,1/2-y,1/2+z
1/2+x,1/2+y,z
1/2-x,-y,1/2+z
1/2+x,1/2-y,-z
1/2-x,y,1/2-z
1/2-x,1/2-y,-z
1/2+x,y,1/2-z
1/2-x,1/2+y,z
1/2+x,-y,1/2+z
loop_
_atom_site_type_symbol
_atom_site_label
_atom_site_fract_x
_atom_site_fract_y
_atom_site_fract_z
Si Si1 0.177971 0.597835 0.099841
Si Si2 0.168951 0.992790 0.079124
Si Si3 0.176921 0.382510 0.459253
Si Si4 0.819393 0.309851 0.678491
Si Si5 0.177693 0.265405 0.429923
O O1 0.218151 0.535801 0.111777
O O2 0.265860 0.632331 0.154680
O O3 0.000000 0.606178 0.110788
O O4 0.222332 0.618068 0.026211
O O5 0.224030 0.931655 0.089764
O O6 0.000000 0.001703 0.109669
O O7 0.165603 0.000000 0.000000
O O8 0.200175 0.328344 0.418600
O O9 0.000000 0.389548 0.481777
O O10 0.750000 0.296430 0.750000
O O11 0.764944 0.264285 0.628525
O O12 0.000000 0.309052 0.682812
O O13 0.250000 0.250000 0.500000
O O14 0.000000 0.249266 0.429402
#
# Coordination Sequence:
#
# PCOD8264661 Si02
#       5
#    16  16  16  16  16
#     4  11  20  31  51  79 110 142 180 226 277 332
#     4   8  15  29  48  73 106 143 177 215 266 320
#     4   9  18  32  52  78 111 147 182 223 274 326
#     4  12  25  41  58  79 110 148 189 235 286 343
#     4  11  21  35  57  85 114 149 189 232 280 333
#
# _framework density 18.140900999999999
#
# number of rings (size 3 to 8) (size 9 to 14) (size 15 to 20)
#    0.000    1.800    2.000    5.400    0.000    4.400 
#    0.000    0.000    0.000    1.200    0.000    5.600 
#    0.000    0.000    0.000    0.000    0.000    0.000 
#
# Total GULP energy -495926.053632 kJ/mol
# GULP energy per Si atom -12398.151341 kJ/mol
# Density = 1.809961 g / cm^3
# Si number density = 18.140901 Si / 1000 Ang^3
#
#
#
# Elastic Constant Matrix: (Units=GPa)
#
#
# Indices 1 2 3 4 5 6 
#
# 1 142.8776 57.3932 50.6948 0.0000 0.0000 0.0000
# 2 57.3932 149.3233 51.9780 0.0000 0.0000 0.0000
# 3 50.6948 51.9780 90.6014 0.0000 0.0000 0.0000
# 4 0.0000 0.0000 0.0000 17.2467 0.0000 0.0000
# 5 0.0000 0.0000 0.0000 0.0000 24.8483 0.0000
# 6 0.0000 0.0000 0.0000 0.0000 0.0000 27.7360
#
#
#
# Elastic Compliance Matrix: (Units=1/GPa)
#
#
# Indices 1 2 3 4 5 6 
#
# 1 0.009276 -0.002197 -0.003930 0.000000 0.000000 0.000000
# 2 -0.002197 0.008889 -0.003870 0.000000 0.000000 0.000000
# 3 -0.003930 -0.003870 0.015456 0.000000 0.000000 0.000000
# 4 0.000000 0.000000 0.000000 0.057982 0.000000 0.000000
# 5 0.000000 0.000000 0.000000 0.000000 0.040244 0.000000
# 6 0.000000 0.000000 0.000000 0.000000 0.000000 0.036054
#
#
# Mechanical properties :
#
#
# Convention : Reuss Voigt Hill
#
# Bulk Modulus (GPa) = 73.38332 78.10381 75.74357
# Shear Modulus (GPa) = 25.98251 28.81528 27.39890
#
# Velocity S-wave (km/s) = 3.78863 3.98982 3.89052
# Velocity P-wave (km/s) = 7.72515 8.02324 7.87560
#
# Compressibility (1/GPa) = 0.01362707
#
# Stress axis : x y z
#
# Youngs Moduli (GPa) = 107.80558 112.50489 64.69894
#
# Poissons Ratio (x) = 0.24722 0.25424
# Poissons Ratio (y) = 0.23689 0.25037
# Poissons Ratio (z) = 0.42363 0.43537
#
# Static dielectric constant tensor:
#      x y z
#    x 3.420180 0.000000 0.000000 
#    y 0.000000 4.147400 0.000000 
#    z 0.000000 0.000000 2.963540 
# 
# 
# High freq. dielectric constant tensor:
#      x y z
#    x 1.710140 0.000000 0.000000 
#    y 0.000000 1.728150 0.000000 
#    z 0.000000 0.000000 1.646740 
# 
# From -- ./inp_files/29728.got.cif
#   From: 2010.03.12/outbox.cif.g09.slc.cpg/sg64_15_cif.got.tgz:29728.got - 2010.04.10 20:19:32.
