data_PCOD8264277
_publ_section_title
;
Structure prediction by ZEFSAII (Michael W. Deem and Ramdas Pophale) SiO2 
 PCOD8264277
Probable space group: C M C A
;
_chemical_formula_sum "Si O2"
_cell_formula_units_Z 80
_cell_length_a 17.255226
_cell_length_b 25.170986
_cell_length_c 8.871259
_cell_angle_alpha 90.000000
_cell_angle_beta 90.000000
_cell_angle_gamma 90.000000
_cell_volume 3853.063255
_symmetry_space_group_name_H-M "C M C A"
_symmetry_group_IT_number 64
_symmetry_cell_setting 'orthorhombic'
loop_
_space_group_symop_operation_xyz
x,y,z
-x,1/2-y,1/2+z
x,-y,-z
-x,1/2+y,1/2-z
-x,-y,-z
x,1/2+y,1/2-z
-x,y,z
x,1/2-y,1/2+z
1/2+x,1/2+y,z
1/2-x,-y,1/2+z
1/2+x,1/2-y,-z
1/2-x,y,1/2-z
1/2-x,1/2-y,-z
1/2+x,y,1/2-z
1/2-x,1/2+y,z
1/2+x,-y,1/2+z
loop_
_atom_site_type_symbol
_atom_site_label
_atom_site_fract_x
_atom_site_fract_y
_atom_site_fract_z
Si Si1 0.089277 0.007949 0.172911
Si Si2 0.163188 0.704760 0.789549
Si Si3 0.911003 0.791687 0.602238
Si Si4 0.329305 0.585317 0.679017
Si Si5 0.330050 0.894407 0.825927
O O1 0.139615 0.055793 0.234401
O O2 0.000000 0.023238 0.188422
O O3 0.103469 0.955022 0.271845
O O4 0.113550 0.000000 0.000000
O O5 0.250000 0.723640 0.750000
O O6 0.099911 0.739417 0.702265
O O7 0.151267 0.642818 0.748711
O O8 0.148522 0.713508 0.965208
O O9 0.889329 0.845229 0.693021
O O10 0.000000 0.795193 0.548815
O O11 0.250000 0.563108 0.750000
O O12 0.320809 0.588775 0.499637
O O13 0.250000 0.876086 0.750000
#
# Coordination Sequence:
#
# PCOD8264277 Si02
#       5
#    16  16  16  16  16
#     4  11  24  40  60  88 121 156 197 247 304 362
#     4  10  22  40  62  88 120 162 206 248 301 366
#     4  11  23  39  61  91 124 158 201 253 308 361
#     4  10  22  40  62  87 116 155 201 247 296 357
#     4  11  23  40  63  87 120 160 202 248 299 363
#
# _framework density 20.762702000000001
#
# number of rings (size 3 to 8) (size 9 to 14) (size 15 to 20)
#    0.000    1.400    0.000    4.800    0.000   10.400 
#    0.000    2.000    0.000    0.000    0.000    0.000 
#    0.000    0.000    0.000    0.000    0.000    0.000 
#
# Total GULP energy -496196.262241 kJ/mol
# GULP energy per Si atom -12404.906556 kJ/mol
# Density = 2.071545 g / cm^3
# Si number density = 20.762702 Si / 1000 Ang^3
#
#
#
# Elastic Constant Matrix: (Units=GPa)
#
#
# Indices 1 2 3 4 5 6 
#
# 1 103.0496 46.4795 44.4474 0.0000 0.0000 0.0000
# 2 46.4795 106.5305 41.3934 0.0000 0.0000 0.0000
# 3 44.4474 41.3934 96.6922 0.0000 0.0000 0.0000
# 4 0.0000 0.0000 0.0000 34.7169 0.0000 0.0000
# 5 0.0000 0.0000 0.0000 0.0000 34.7864 0.0000
# 6 0.0000 0.0000 0.0000 0.0000 0.0000 29.7613
#
#
#
# Elastic Compliance Matrix: (Units=1/GPa)
#
#
# Indices 1 2 3 4 5 6 
#
# 1 0.013489 -0.004170 -0.004416 0.000000 0.000000 0.000000
# 2 -0.004170 0.012549 -0.003455 0.000000 0.000000 0.000000
# 3 -0.004416 -0.003455 0.013851 0.000000 0.000000 0.000000
# 4 0.000000 0.000000 0.000000 0.028804 0.000000 0.000000
# 5 0.000000 0.000000 0.000000 0.000000 0.028747 0.000000
# 6 0.000000 0.000000 0.000000 0.000000 0.000000 0.033601
#
#
# Mechanical properties :
#
#
# Convention : Reuss Voigt Hill
#
# Bulk Modulus (GPa) = 63.26015 63.43477 63.34746
# Shear Modulus (GPa) = 31.17359 31.44972 31.31166
#
# Velocity S-wave (km/s) = 3.87902 3.89617 3.88760
# Velocity P-wave (km/s) = 7.11314 7.13153 7.12234
#
# Compressibility (1/GPa) = 0.01580774
#
# Stress axis : x y z
#
# Youngs Moduli (GPa) = 74.13253 79.68862 72.19616
#
# Poissons Ratio (x) = 0.33227 0.31880
# Poissons Ratio (y) = 0.30911 0.24947
# Poissons Ratio (z) = 0.32735 0.27535
#
# Static dielectric constant tensor:
#      x y z
#    x 3.686060 0.000000 0.000000 
#    y 0.000000 3.925420 0.000000 
#    z 0.000000 0.000000 3.763280 
# 
# 
# High freq. dielectric constant tensor:
#      x y z
#    x 1.812370 0.000000 0.000000 
#    y 0.000000 1.826100 0.000000 
#    z 0.000000 0.000000 1.815530 
# 
# From -- ./inp_files/7071.got.cif
#   From: 2010.03.12/outbox.cif.g09.slc.cpg/sg64_4_cif.got.tgz:7071.got - 2010.04.10 20:19:32.
