data_PCOD8264649
_publ_section_title
;
Structure prediction by ZEFSAII (Michael W. Deem and Ramdas Pophale) SiO2 
 PCOD8264649
Probable space group: C M C A
;
_chemical_formula_sum "Si O2"
_cell_formula_units_Z 88
_cell_length_a 18.393668
_cell_length_b 20.852391
_cell_length_c 11.983140
_cell_angle_alpha 90.000000
_cell_angle_beta 90.000000
_cell_angle_gamma 90.000000
_cell_volume 4596.156799
_symmetry_space_group_name_H-M "C M C A"
_symmetry_group_IT_number 64
_symmetry_cell_setting 'orthorhombic'
loop_
_space_group_symop_operation_xyz
x,y,z
-x,1/2-y,1/2+z
x,-y,-z
-x,1/2+y,1/2-z
-x,-y,-z
x,1/2+y,1/2-z
-x,y,z
x,1/2-y,1/2+z
1/2+x,1/2+y,z
1/2-x,-y,1/2+z
1/2+x,1/2-y,-z
1/2-x,y,1/2-z
1/2-x,1/2-y,-z
1/2+x,y,1/2-z
1/2-x,1/2+y,z
1/2+x,-y,1/2+z
loop_
_atom_site_type_symbol
_atom_site_label
_atom_site_fract_x
_atom_site_fract_y
_atom_site_fract_z
Si Si1 0.000000 0.763209 0.403309
Si Si2 0.500000 0.654716 0.273589
Si Si3 0.000000 0.379669 0.270555
Si Si4 0.378902 0.789366 0.925127
Si Si5 0.203602 0.622714 0.918170
Si Si6 0.000000 0.479723 0.832595
Si Si7 0.151548 0.342166 0.323804
Si Si8 0.876610 0.000000 0.500000
O O1 0.000000 0.697789 0.334959
O O2 0.000000 0.827294 0.328300
O O3 0.927770 0.760697 0.476355
O O4 0.571895 0.667775 0.345228
O O5 0.500000 0.578649 0.243081
O O6 0.070729 0.369286 0.348069
O O7 0.000000 0.450873 0.222370
O O8 0.342653 0.732581 0.854234
O O9 0.314171 0.831755 0.977035
O O10 0.166256 0.650811 0.807487
O O11 0.290472 0.618970 0.898846
O O12 0.174719 0.551989 0.941998
O O13 0.071803 0.468967 0.906794
#
# Coordination Sequence:
#
# PCOD8264649 Si02
#       8
#     8   8   8  16  16   8  16   8
#     4  11  20  35  58  87 123 161 208 248 308 364
#     4  11  20  33  58  96 120 152 203 268 299 348
#     4  12  19  40  59  88 120 163 205 245 304 377
#     4  11  19  36  59  88 125 161 205 254 309 368
#     4  11  22  38  61  92 123 159 206 260 311 367
#     4  11  21  32  62  92 116 151 201 263 305 351
#     4  11  23  37  61  89 123 162 202 254 314 367
#     4  11  20  38  62  89 118 152 210 259 302 368
#
# _framework density 19.146431
#
# number of rings (size 3 to 8) (size 9 to 14) (size 15 to 20)
#    0.000    0.909    7.273    1.091    2.545    0.000 
#    0.000    1.818    0.000    6.000    0.000    0.000 
#    0.000    0.000    0.000    0.000    0.000    0.000 
#
# Total GULP energy -545601.048503 kJ/mol
# GULP energy per Si atom -12400.023830 kJ/mol
# Density = 1.910285 g / cm^3
# Si number density = 19.146431 Si / 1000 Ang^3
#
#
#
# Elastic Constant Matrix: (Units=GPa)
#
#
# Indices 1 2 3 4 5 6 
#
# 1 127.3455 29.5401 25.4894 0.0000 0.0000 0.0000
# 2 29.5401 137.2874 41.8250 0.0000 0.0000 0.0000
# 3 25.4894 41.8250 55.8441 0.0000 0.0000 0.0000
# 4 0.0000 0.0000 0.0000 30.9020 0.0000 0.0000
# 5 0.0000 0.0000 0.0000 0.0000 14.6384 0.0000
# 6 0.0000 0.0000 0.0000 0.0000 0.0000 32.2183
#
#
#
# Elastic Compliance Matrix: (Units=1/GPa)
#
#
# Indices 1 2 3 4 5 6 
#
# 1 0.008720 -0.000860 -0.003336 0.000000 0.000000 0.000000
# 2 -0.000860 0.009522 -0.006739 0.000000 0.000000 0.000000
# 3 -0.003336 -0.006739 0.024477 0.000000 0.000000 0.000000
# 4 0.000000 0.000000 0.000000 0.032360 0.000000 0.000000
# 5 0.000000 0.000000 0.000000 0.000000 0.068313 0.000000
# 6 0.000000 0.000000 0.000000 0.000000 0.000000 0.031038
#
#
# Mechanical properties :
#
#
# Convention : Reuss Voigt Hill
#
# Bulk Modulus (GPa) = 47.96445 57.13179 52.54812
# Shear Modulus (GPa) = 24.60014 30.45991 27.53003
#
# Velocity S-wave (km/s) = 3.58836 3.99293 3.79604
# Velocity P-wave (km/s) = 6.50186 7.15277 6.83507
#
# Compressibility (1/GPa) = 0.02084877
#
# Stress axis : x y z
#
# Youngs Moduli (GPa) = 114.68072 105.01840 40.85454
#
# Poissons Ratio (x) = 0.09031 0.13629
# Poissons Ratio (y) = 0.09862 0.27533
# Poissons Ratio (z) = 0.38258 0.70774
#
# Static dielectric constant tensor:
#      x y z
#    x 3.787910 0.000000 0.000000 
#    y 0.000000 3.409340 0.000000 
#    z 0.000000 0.000000 3.395010 
# 
# 
# High freq. dielectric constant tensor:
#      x y z
#    x 1.750670 0.000000 0.000000 
#    y 0.000000 1.743720 0.000000 
#    z 0.000000 0.000000 1.724170 
# 
# From -- ./inp_files/16101.got.cif
#   From: 2010.03.12/outbox.cif.g09.slc.cpg/sg64_9_cif.got.tgz:16101.got - 2010.04.10 20:19:32.
