data_PCOD8264020
_publ_section_title
;
Structure prediction by ZEFSAII (Michael W. Deem and Ramdas Pophale) SiO2 
 PCOD8264020
Probable space group: C M C A
;
_chemical_formula_sum "Si O2"
_cell_formula_units_Z 80
_cell_length_a 8.837544
_cell_length_b 19.043522
_cell_length_c 25.631078
_cell_angle_alpha 90.000000
_cell_angle_beta 90.000000
_cell_angle_gamma 90.000000
_cell_volume 4313.658232
_symmetry_space_group_name_H-M "C M C A"
_symmetry_group_IT_number 64
_symmetry_cell_setting 'orthorhombic'
loop_
_space_group_symop_operation_xyz
x,y,z
-x,1/2-y,1/2+z
x,-y,-z
-x,1/2+y,1/2-z
-x,-y,-z
x,1/2+y,1/2-z
-x,y,z
x,1/2-y,1/2+z
1/2+x,1/2+y,z
1/2-x,-y,1/2+z
1/2+x,1/2-y,-z
1/2-x,y,1/2-z
1/2-x,1/2-y,-z
1/2+x,y,1/2-z
1/2-x,1/2+y,z
1/2+x,-y,1/2+z
loop_
_atom_site_type_symbol
_atom_site_label
_atom_site_fract_x
_atom_site_fract_y
_atom_site_fract_z
Si Si1 0.322985 0.120469 0.586467
Si Si2 0.826994 0.738698 0.389682
Si Si3 0.178482 0.980246 0.614913
Si Si4 0.176809 0.382899 0.533586
Si Si5 0.324504 0.377025 0.805549
O O1 0.500000 0.106289 0.592490
O O2 0.282227 0.194637 0.612351
O O3 0.273083 0.121574 0.526105
O O4 0.231718 0.060634 0.616772
O O5 0.782509 0.690848 0.439293
O O6 0.800248 0.694834 0.337153
O O7 0.000000 0.764077 0.394375
O O8 0.233282 0.946039 0.560724
O O9 0.247987 0.941636 0.664765
O O10 0.000000 0.975838 0.618631
O O11 0.000000 0.399890 0.540676
O O12 0.500000 0.395077 0.799314
O O13 0.250000 0.366028 0.750000
#
# Coordination Sequence:
#
# PCOD8264020 Si02
#       5
#    16  16  16  16  16
#     4  11  21  33  52  79 113 148 181 222 269 314
#     4   9  19  35  54  79 110 141 177 220 265 318
#     4  11  22  35  54  80 109 143 184 224 264 317
#     4   9  19  35  53  76 110 149 184 221 266 315
#     4  10  21  40  63  83 105 135 174 221 271 323
#
# _framework density 18.545743000000002
#
# number of rings (size 3 to 8) (size 9 to 14) (size 15 to 20)
#    0.000    2.000    0.000    5.400    0.000    8.000 
#    0.000    1.000    0.000    2.400    0.000    0.000 
#    0.000    0.000    0.000    0.000    0.000    0.000 
#
# Total GULP energy -496206.246482 kJ/mol
# GULP energy per Si atom -12405.156162 kJ/mol
# Density = 1.850353 g / cm^3
# Si number density = 18.545743 Si / 1000 Ang^3
#
#
#
# Elastic Constant Matrix: (Units=GPa)
#
#
# Indices 1 2 3 4 5 6 
#
# 1 110.2800 54.8743 46.0308 0.0000 0.0000 0.0000
# 2 54.8743 118.5153 40.2409 0.0000 0.0000 0.0000
# 3 46.0308 40.2409 96.3311 0.0000 0.0000 0.0000
# 4 0.0000 0.0000 0.0000 12.2881 0.0000 0.0000
# 5 0.0000 0.0000 0.0000 0.0000 30.7658 0.0000
# 6 0.0000 0.0000 0.0000 0.0000 0.0000 36.8433
#
#
#
# Elastic Compliance Matrix: (Units=1/GPa)
#
#
# Indices 1 2 3 4 5 6 
#
# 1 0.013194 -0.004624 -0.004373 0.000000 0.000000 0.000000
# 2 -0.004624 0.011453 -0.002575 0.000000 0.000000 0.000000
# 3 -0.004373 -0.002575 0.013546 0.000000 0.000000 0.000000
# 4 0.000000 0.000000 0.000000 0.081379 0.000000 0.000000
# 5 0.000000 0.000000 0.000000 0.000000 0.032504 0.000000
# 6 0.000000 0.000000 0.000000 0.000000 0.000000 0.027142
#
#
# Mechanical properties :
#
#
# Convention : Reuss Voigt Hill
#
# Bulk Modulus (GPa) = 66.44819 67.49095 66.96957
# Shear Modulus (GPa) = 24.11052 28.24479 26.17766
#
# Velocity S-wave (km/s) = 3.60954 3.90677 3.76109
# Velocity P-wave (km/s) = 7.29924 7.53798 7.41957
#
# Compressibility (1/GPa) = 0.01504932
#
# Stress axis : x y z
#
# Youngs Moduli (GPa) = 75.79160 87.31302 73.82268
#
# Poissons Ratio (x) = 0.40376 0.32282
# Poissons Ratio (y) = 0.35048 0.19007
# Poissons Ratio (z) = 0.33143 0.22480
#
# Static dielectric constant tensor:
#      x y z
#    x 3.400920 0.000000 0.000000 
#    y 0.000000 3.365260 0.000000 
#    z 0.000000 0.000000 3.338090 
# 
# 
# High freq. dielectric constant tensor:
#      x y z
#    x 1.725860 0.000000 0.000000 
#    y 0.000000 1.723150 0.000000 
#    z 0.000000 0.000000 1.706330 
# 
# From -- ./inp_files/47791.got.cif
#   From: 2010.03.12/outbox.cif.g09.slc.cpg/sg64_24_cif.got.tgz:47791.got - 2010.04.10 20:19:32.
