data_PCOD8264985
_publ_section_title
;
Structure prediction by ZEFSAII (Michael W. Deem and Ramdas Pophale) SiO2 
 PCOD8264985
Probable space group: C M C A
;
_chemical_formula_sum "Si O2"
_cell_formula_units_Z 64
_cell_length_a 9.875398
_cell_length_b 27.998792
_cell_length_c 11.400437
_cell_angle_alpha 90.000000
_cell_angle_beta 90.000000
_cell_angle_gamma 90.000000
_cell_volume 3152.211876
_symmetry_space_group_name_H-M "C M C A"
_symmetry_group_IT_number 64
_symmetry_cell_setting 'orthorhombic'
loop_
_space_group_symop_operation_xyz
x,y,z
-x,1/2-y,1/2+z
x,-y,-z
-x,1/2+y,1/2-z
-x,-y,-z
x,1/2+y,1/2-z
-x,y,z
x,1/2-y,1/2+z
1/2+x,1/2+y,z
1/2-x,-y,1/2+z
1/2+x,1/2-y,-z
1/2-x,y,1/2-z
1/2-x,1/2-y,-z
1/2+x,y,1/2-z
1/2-x,1/2+y,z
1/2+x,-y,1/2+z
loop_
_atom_site_type_symbol
_atom_site_label
_atom_site_fract_x
_atom_site_fract_y
_atom_site_fract_z
Si Si1 0.250000 0.160838 0.250000
Si Si2 0.754656 0.607963 0.889593
Si Si3 0.000000 0.401154 0.735717
Si Si4 0.340087 0.703595 0.483603
Si Si5 0.000000 0.556535 0.001692
Si Si6 0.500000 0.556210 0.002152
O O1 0.367754 0.128244 0.301473
O O2 0.323540 0.192354 0.152686
O O3 0.750000 0.610930 0.750000
O O4 0.779098 0.661420 0.937090
O O5 0.872870 0.573508 0.929409
O O6 0.623697 0.582882 0.941365
O O7 0.000000 0.443180 0.643146
O O8 0.000000 0.420194 0.868610
O O9 0.500000 0.711803 0.512271
O O10 0.250000 0.750000 0.500000
O O11 0.000000 0.500000 0.000000
O O12 0.500000 0.500000 0.000000
#
# Coordination Sequence:
#
# PCOD8264985 Si02
#       6
#     8  16   8  16   8   8
#     4  12  22  48  70 100 140 182 238 298 350 416
#     4  12  26  48  69 102 151 185 230 292 355 424
#     4  12  22  44  76  96 140 188 240 296 340 414
#     4  12  28  48  73 106 138 188 237 292 365 425
#     4  12  25  48  73 102 141 196 235 291 358 414
#     4  12  27  44  71 112 137 186 243 287 344 412
#
# _framework density 20.303203
#
# number of rings (size 3 to 8) (size 9 to 14) (size 15 to 20)
#    0.000    0.000    7.500    1.500    8.750    0.000 
#    0.000    0.000    0.000    0.000    0.000    0.000 
#    0.000    0.000    0.000    0.000    0.000    0.000 
#
# Total GULP energy -396614.126609 kJ/mol
# GULP energy per Si atom -12394.191457 kJ/mol
# Density = 2.025699 g / cm^3
# Si number density = 20.303203 Si / 1000 Ang^3
#
#
#
# Elastic Constant Matrix: (Units=GPa)
#
#
# Indices 1 2 3 4 5 6 
#
# 1 192.5185 87.9598 48.6206 0.0000 0.0000 0.0000
# 2 87.9598 182.9525 55.8839 0.0000 0.0000 0.0000
# 3 48.6206 55.8839 153.8003 0.0000 0.0000 0.0000
# 4 0.0000 0.0000 0.0000 24.6571 0.0000 0.0000
# 5 0.0000 0.0000 0.0000 0.0000 34.2849 0.0000
# 6 0.0000 0.0000 0.0000 0.0000 0.0000 39.7538
#
#
#
# Elastic Compliance Matrix: (Units=1/GPa)
#
#
# Indices 1 2 3 4 5 6 
#
# 1 0.006813 -0.002945 -0.001084 0.000000 0.000000 0.000000
# 2 -0.002945 0.007421 -0.001766 0.000000 0.000000 0.000000
# 3 -0.001084 -0.001766 0.007486 0.000000 0.000000 0.000000
# 4 0.000000 0.000000 0.000000 0.040556 0.000000 0.000000
# 5 0.000000 0.000000 0.000000 0.000000 0.029167 0.000000
# 6 0.000000 0.000000 0.000000 0.000000 0.000000 0.025155
#
#
# Mechanical properties :
#
#
# Convention : Reuss Voigt Hill
#
# Bulk Modulus (GPa) = 98.69549 101.57776 100.13663
# Shear Modulus (GPa) = 38.00413 42.19297 40.09855
#
# Velocity S-wave (km/s) = 4.33116 4.56361 4.44890
# Velocity P-wave (km/s) = 8.58651 8.82654 8.70735
#
# Compressibility (1/GPa) = 0.01013218
#
# Stress axis : x y z
#
# Youngs Moduli (GPa) = 146.76861 134.75418 133.58051
#
# Poissons Ratio (x) = 0.39680 0.14480
# Poissons Ratio (y) = 0.43218 0.23584
# Poissons Ratio (z) = 0.15909 0.23791
#
# Static dielectric constant tensor:
#      x y z
#    x 4.135910 0.000000 0.000000 
#    y 0.000000 3.811180 0.000000 
#    z 0.000000 0.000000 3.656530 
# 
# 
# High freq. dielectric constant tensor:
#      x y z
#    x 1.819610 0.000000 0.000000 
#    y 0.000000 1.801400 0.000000 
#    z 0.000000 0.000000 1.809770 
# 
# From -- ./inp_files/12199.got.cif
#   From: 2010.03.12/outbox.cif.g09.slc.cpg/sg64_7_cif.got.tgz:12199.got - 2010.04.10 20:19:32.
