data_PCOD8264816
_publ_section_title
;
Structure prediction by ZEFSAII (Michael W. Deem and Ramdas Pophale) SiO2 
 PCOD8264816
Probable space group: C M C A
;
_chemical_formula_sum "Si O2"
_cell_formula_units_Z 64
_cell_length_a 9.854657
_cell_length_b 21.950166
_cell_length_c 13.057259
_cell_angle_alpha 90.000000
_cell_angle_beta 90.000000
_cell_angle_gamma 90.000000
_cell_volume 2824.433413
_symmetry_space_group_name_H-M "C M C A"
_symmetry_group_IT_number 64
_symmetry_cell_setting 'orthorhombic'
loop_
_space_group_symop_operation_xyz
x,y,z
-x,1/2-y,1/2+z
x,-y,-z
-x,1/2+y,1/2-z
-x,-y,-z
x,1/2+y,1/2-z
-x,y,z
x,1/2-y,1/2+z
1/2+x,1/2+y,z
1/2-x,-y,1/2+z
1/2+x,1/2-y,-z
1/2-x,y,1/2-z
1/2-x,1/2-y,-z
1/2+x,y,1/2-z
1/2-x,1/2+y,z
1/2+x,-y,1/2+z
loop_
_atom_site_type_symbol
_atom_site_label
_atom_site_fract_x
_atom_site_fract_y
_atom_site_fract_z
Si Si1 0.500000 0.142307 0.073685
Si Si2 0.000000 0.652442 0.300598
Si Si3 0.224967 0.427139 0.604540
Si Si4 0.250000 0.659805 0.750000
Si Si5 0.351543 0.945606 0.383425
Si Si6 0.000000 0.782997 0.363065
O O1 0.500000 0.177261 0.183035
O O2 0.631452 0.099761 0.070877
O O3 0.500000 0.187917 0.976861
O O4 0.137961 0.613087 0.315135
O O5 0.000000 0.709866 0.377561
O O6 0.244111 0.496535 0.646983
O O7 0.133548 0.434742 0.504260
O O8 0.296286 0.617450 0.841822
O O9 0.368272 0.701185 0.703564
O O10 0.500000 0.958788 0.337178
#
# Coordination Sequence:
#
# PCOD8264816 Si02
#       6
#     8   8  16   8  16   8
#     4  12  28  46  67 115 141 179 244 299 350 416
#     4  12  28  48  74 101 144 196 239 288 357 423
#     4  11  24  45  72 106 142 184 237 296 361 413
#     4  12  26  46  72 104 142 198 232 288 364 430
#     4  11  22  43  74 105 145 186 237 298 359 431
#     4  12  30  50  70 104 148 194 240 288 347 430
#
# _framework density 22.659412
#
# number of rings (size 3 to 8) (size 9 to 14) (size 15 to 20)
#    0.000    0.500    6.250    1.500    7.000    6.000 
#    0.000    0.000    0.000    0.000    0.000    0.000 
#    0.000    0.000    0.000    0.000    0.000    0.000 
#
# Total GULP energy -396699.800092 kJ/mol
# GULP energy per Si atom -12396.868753 kJ/mol
# Density = 2.260784 g / cm^3
# Si number density = 22.659412 Si / 1000 Ang^3
#
#
#
# Elastic Constant Matrix: (Units=GPa)
#
#
# Indices 1 2 3 4 5 6 
#
# 1 139.7450 37.1018 22.1971 0.0000 0.0000 0.0000
# 2 37.1018 108.3520 22.3419 0.0000 0.0000 0.0000
# 3 22.1971 22.3419 105.4333 0.0000 0.0000 0.0000
# 4 0.0000 0.0000 0.0000 15.9878 0.0000 0.0000
# 5 0.0000 0.0000 0.0000 0.0000 35.3936 0.0000
# 6 0.0000 0.0000 0.0000 0.0000 0.0000 -84.3453
#
#
#
# Elastic Compliance Matrix: (Units=1/GPa)
#
#
# Indices 1 2 3 4 5 6 
#
# 1 0.008004 -0.002503 -0.001155 0.000000 0.000000 0.000000
# 2 -0.002503 0.010433 -0.001684 0.000000 0.000000 0.000000
# 3 -0.001155 -0.001684 0.010085 0.000000 0.000000 0.000000
# 4 0.000000 0.000000 0.000000 0.062548 0.000000 0.000000
# 5 0.000000 0.000000 0.000000 0.000000 0.028254 0.000000
# 6 0.000000 0.000000 0.000000 0.000000 0.000000 -0.011856
#
#
# Mechanical properties :
#
#
# Convention : Reuss Voigt Hill
#
# Bulk Modulus (GPa) = 56.05657 57.42354 56.74005
# Shear Modulus (GPa) = 40.29135 11.53318 25.91226
#
# Velocity S-wave (km/s) = 4.22136 2.25850 3.38532
# Velocity P-wave (km/s) = 6.96795 5.67434 6.35415
#
# Compressibility (1/GPa) = 0.01783912
#
# Stress axis : x y z
#
# Youngs Moduli (GPa) = 124.94192 95.84665 99.16079
#
# Poissons Ratio (x) = 0.23986 0.11451
# Poissons Ratio (y) = 0.31267 0.16699
# Poissons Ratio (z) = 0.14428 0.16141
#
# Static dielectric constant tensor:
#      x y z
#    x 4.042000 0.000000 0.000000 
#    y 0.000000 3.979050 0.000000 
#    z 0.000000 0.000000 4.138610 
# 
# 
# High freq. dielectric constant tensor:
#      x y z
#    x 1.901570 0.000000 0.000000 
#    y 0.000000 1.891310 0.000000 
#    z 0.000000 0.000000 1.904380 
# 
# From -- ./inp_files/20964.got.cif
#   From: 2010.03.12/outbox.cif.g09.slc.cpg/sg64_11_cif.got.tgz:20964.got - 2010.04.10 20:19:32.
