data_PCOD8264304
_publ_section_title
;
Structure prediction by ZEFSAII (Michael W. Deem and Ramdas Pophale) SiO2 
 PCOD8264304
Probable space group: C M C A
;
_chemical_formula_sum "Si O2"
_cell_formula_units_Z 80
_cell_length_a 27.384090
_cell_length_b 9.890031
_cell_length_c 13.237499
_cell_angle_alpha 90.000000
_cell_angle_beta 90.000000
_cell_angle_gamma 90.000000
_cell_volume 3585.105222
_symmetry_space_group_name_H-M "C M C A"
_symmetry_group_IT_number 64
_symmetry_cell_setting 'orthorhombic'
loop_
_space_group_symop_operation_xyz
x,y,z
-x,1/2-y,1/2+z
x,-y,-z
-x,1/2+y,1/2-z
-x,-y,-z
x,1/2+y,1/2-z
-x,y,z
x,1/2-y,1/2+z
1/2+x,1/2+y,z
1/2-x,-y,1/2+z
1/2+x,1/2-y,-z
1/2-x,y,1/2-z
1/2-x,1/2-y,-z
1/2+x,y,1/2-z
1/2-x,1/2+y,z
1/2+x,-y,1/2+z
loop_
_atom_site_type_symbol
_atom_site_label
_atom_site_fract_x
_atom_site_fract_y
_atom_site_fract_z
Si Si1 0.767492 0.630483 0.569156
Si Si2 0.864589 0.767659 0.572509
Si Si3 0.132384 0.541942 0.252412
Si Si4 0.054113 0.437991 0.390819
Si Si5 0.171837 0.203256 0.651733
O O1 0.767773 0.500000 0.500000
O O2 0.750000 0.750000 0.500000
O O3 0.821734 0.663035 0.610175
O O4 0.725904 0.634014 0.655500
O O5 0.867832 0.902809 0.638455
O O6 0.916434 0.699126 0.591281
O O7 0.854542 0.809206 0.456903
O O8 0.081258 0.541694 0.313585
O O9 0.170760 0.637030 0.315575
O O10 0.144287 0.382883 0.237865
O O11 0.049311 0.500000 0.500000
O O12 0.000000 0.407147 0.347063
#
# Coordination Sequence:
#
# PCOD8264304 Si02
#       5
#    16  16  16  16  16
#     4  10  22  40  66  97 141 189 227 276 340 413
#     4  11  23  45  69  98 141 182 235 286 348 414
#     4  12  24  44  68 103 138 179 231 289 339 423
#     4  11  24  45  72  99 135 182 228 289 357 415
#     4  11  24  43  68 102 143 187 227 284 351 414
#
# _framework density 22.314547999999998
#
# number of rings (size 3 to 8) (size 9 to 14) (size 15 to 20)
#    0.000    1.000    4.000    3.600    2.800    1.600 
#    3.600    1.000    0.000    2.400    0.000    0.000 
#    0.000    0.000    0.000    0.000    0.000    0.000 
#
# Total GULP energy -495559.448954 kJ/mol
# GULP energy per Si atom -12388.986224 kJ/mol
# Density = 2.226376 g / cm^3
# Si number density = 22.314548 Si / 1000 Ang^3
#
#
#
# Elastic Constant Matrix: (Units=GPa)
#
#
# Indices 1 2 3 4 5 6 
#
# 1 164.8043 42.2922 44.0451 0.0000 0.0000 0.0000
# 2 42.2922 91.4730 28.9877 0.0000 0.0000 0.0000
# 3 44.0451 28.9877 123.2732 0.0000 0.0000 0.0000
# 4 0.0000 0.0000 0.0000 48.2565 0.0000 0.0000
# 5 0.0000 0.0000 0.0000 0.0000 -34.3175 0.0000
# 6 0.0000 0.0000 0.0000 0.0000 0.0000 21.9852
#
#
#
# Elastic Compliance Matrix: (Units=1/GPa)
#
#
# Indices 1 2 3 4 5 6 
#
# 1 0.007298 -0.002753 -0.001960 0.000000 0.000000 0.000000
# 2 -0.002753 0.012851 -0.002038 0.000000 0.000000 0.000000
# 3 -0.001960 -0.002038 0.009292 0.000000 0.000000 0.000000
# 4 0.000000 0.000000 0.000000 0.020723 0.000000 0.000000
# 5 0.000000 0.000000 0.000000 0.000000 -0.029140 0.000000
# 6 0.000000 0.000000 0.000000 0.000000 0.000000 0.045485
#
#
# Mechanical properties :
#
#
# Convention : Reuss Voigt Hill
#
# Bulk Modulus (GPa) = 62.74395 67.80006 65.27201
# Shear Modulus (GPa) = 58.59969 24.79987 41.69978
#
# Velocity S-wave (km/s) = 5.13008 3.33735 4.32757
# Velocity P-wave (km/s) = 7.95420 6.73055 7.36782
#
# Compressibility (1/GPa) = 0.01593779
#
# Stress axis : x y z
#
# Youngs Moduli (GPa) = 137.02030 77.81498 107.62243
#
# Poissons Ratio (x) = 0.21423 0.21096
# Poissons Ratio (y) = 0.37723 0.21936
# Poissons Ratio (z) = 0.26859 0.15861
#
# Static dielectric constant tensor:
#      x y z
#    x 3.786200 0.000000 0.000000 
#    y 0.000000 3.744190 0.000000 
#    z 0.000000 0.000000 4.403410 
# 
# 
# High freq. dielectric constant tensor:
#      x y z
#    x 1.856990 0.000000 0.000000 
#    y 0.000000 1.880080 0.000000 
#    z 0.000000 0.000000 1.906370 
# 
# From -- ./inp_files/27909.got.cif
#   From: 2010.03.12/outbox.cif.g09.slc.cpg/sg64_14_cif.got.tgz:27909.got - 2010.04.10 20:19:32.
