data_PCOD8264563
_publ_section_title
;
Structure prediction by ZEFSAII (Michael W. Deem and Ramdas Pophale) SiO2 
 PCOD8264563
Probable space group: C M C A
;
_chemical_formula_sum "Si O2"
_cell_formula_units_Z 112
_cell_length_a 14.120216
_cell_length_b 15.430045
_cell_length_c 22.363663
_cell_angle_alpha 90.000000
_cell_angle_beta 90.000000
_cell_angle_gamma 90.000000
_cell_volume 4872.495785
_symmetry_space_group_name_H-M "C M C A"
_symmetry_group_IT_number 64
_symmetry_cell_setting 'orthorhombic'
loop_
_space_group_symop_operation_xyz
x,y,z
-x,1/2-y,1/2+z
x,-y,-z
-x,1/2+y,1/2-z
-x,-y,-z
x,1/2+y,1/2-z
-x,y,z
x,1/2-y,1/2+z
1/2+x,1/2+y,z
1/2-x,-y,1/2+z
1/2+x,1/2-y,-z
1/2-x,y,1/2-z
1/2-x,1/2-y,-z
1/2+x,y,1/2-z
1/2-x,1/2+y,z
1/2+x,-y,1/2+z
loop_
_atom_site_type_symbol
_atom_site_label
_atom_site_fract_x
_atom_site_fract_y
_atom_site_fract_z
Si Si1 0.140072 0.267345 0.752974
Si Si2 0.386471 0.074018 0.897472
Si Si3 0.895510 0.930999 0.265040
Si Si4 0.742011 0.426380 0.565388
Si Si5 0.608676 0.567486 0.171461
Si Si6 0.607068 0.720589 0.388010
Si Si7 0.737608 0.327986 0.044324
O O1 0.250000 0.254131 0.750000
O O2 0.097000 0.172008 0.744626
O O3 0.109543 0.338414 0.704029
O O4 0.106242 0.298503 0.817615
O O5 0.500000 0.077132 0.906157
O O6 0.352364 0.052762 0.830232
O O7 0.337078 0.163506 0.918718
O O8 0.333502 0.003658 0.937516
O O9 0.000000 0.970105 0.266410
O O10 0.846258 0.990819 0.214156
O O11 0.827629 0.434499 0.612299
O O12 0.676108 0.345744 0.580780
O O13 0.784777 0.411674 0.498208
O O14 0.500000 0.547472 0.153047
O O15 0.500000 0.712740 0.412230
O O16 0.651355 0.814117 0.407980
O O17 0.750000 0.250000 0.000000
#
# Coordination Sequence:
#
# PCOD8264563 Si02
#       7
#    16  16  16  16  16  16  16
#     4  12  23  40  68  99 141 182 232 297 356 422
#     4  11  24  44  72 101 136 178 230 295 352 408
#     4  10  24  41  64 102 138 177 232 283 351 433
#     4  11  24  44  68 100 140 180 236 292 344 427
#     4  11  25  44  68 104 147 189 232 291 364 434
#     4  11  23  42  67  96 134 182 234 290 351 415
#     4  10  25  44  63  98 135 176 236 286 340 414
#
# _framework density 22.986166999999998
#
# number of rings (size 3 to 8) (size 9 to 14) (size 15 to 20)
#    0.000    1.143    1.429    3.857    6.000    5.143 
#    0.000    0.000    0.000    1.714    0.000    0.000 
#    0.000    0.000    0.000    0.000    0.000    0.000 
#
# Total GULP energy -693741.632751 kJ/mol
# GULP energy per Si atom -12388.243442 kJ/mol
# Density = 2.293385 g / cm^3
# Si number density = 22.986167 Si / 1000 Ang^3
#
#
#
# Elastic Constant Matrix: (Units=GPa)
#
#
# Indices 1 2 3 4 5 6 
#
# 1 143.8987 16.6143 47.9300 0.0000 0.0000 0.0000
# 2 16.6143 66.6212 -1.4865 0.0000 0.0000 0.0000
# 3 47.9300 -1.4865 81.7927 0.0000 0.0000 0.0000
# 4 0.0000 0.0000 0.0000 36.5557 0.0000 0.0000
# 5 0.0000 0.0000 0.0000 0.0000 30.5108 0.0000
# 6 0.0000 0.0000 0.0000 0.0000 0.0000 -55.2225
#
#
#
# Elastic Compliance Matrix: (Units=1/GPa)
#
#
# Indices 1 2 3 4 5 6 
#
# 1 0.008991 -0.002361 -0.005312 0.000000 0.000000 0.000000
# 2 -0.002361 0.015636 0.001668 0.000000 0.000000 0.000000
# 3 -0.005312 0.001668 0.015369 0.000000 0.000000 0.000000
# 4 0.000000 0.000000 0.000000 0.027356 0.000000 0.000000
# 5 0.000000 0.000000 0.000000 0.000000 0.032775 0.000000
# 6 0.000000 0.000000 0.000000 0.000000 0.000000 -0.018109
#
#
# Mechanical properties :
#
#
# Convention : Reuss Voigt Hill
#
# Bulk Modulus (GPa) = 35.73145 46.49202 41.11174
# Shear Modulus (GPa) = 48.37606 17.65247 33.01426
#
# Velocity S-wave (km/s) = 4.59254 2.77422 3.79392
# Velocity P-wave (km/s) = 6.61063 5.52555 6.09229
#
# Compressibility (1/GPa) = 0.02798655
#
# Stress axis : x y z
#
# Youngs Moduli (GPa) = 111.22102 63.95423 65.06642
#
# Poissons Ratio (x) = 0.15098 0.34561
# Poissons Ratio (y) = 0.26257 -0.10850
# Poissons Ratio (z) = 0.59077 -0.10665
#
# Static dielectric constant tensor:
#      x y z
#    x 4.167490 0.000000 0.000000 
#    y 0.000000 4.522880 0.000000 
#    z 0.000000 0.000000 4.639640 
# 
# 
# High freq. dielectric constant tensor:
#      x y z
#    x 1.906660 0.000000 0.000000 
#    y 0.000000 1.914420 0.000000 
#    z 0.000000 0.000000 1.919900 
# 
# From -- ./inp_files/45309.got.cif
#   From: 2010.03.12/outbox.cif.g09.slc.cpg/sg64_23_cif.got.tgz:45309.got - 2010.04.10 20:19:32.
