data_PCOD8264074
_publ_section_title
;
Structure prediction by ZEFSAII (Michael W. Deem and Ramdas Pophale) SiO2 
 PCOD8264074
Probable space group: C M C A
;
_chemical_formula_sum "Si O2"
_cell_formula_units_Z 72
_cell_length_a 10.194520
_cell_length_b 14.683389
_cell_length_c 24.399040
_cell_angle_alpha 90.000000
_cell_angle_beta 90.000000
_cell_angle_gamma 90.000000
_cell_volume 3652.294807
_symmetry_space_group_name_H-M "C M C A"
_symmetry_group_IT_number 64
_symmetry_cell_setting 'orthorhombic'
loop_
_space_group_symop_operation_xyz
x,y,z
-x,1/2-y,1/2+z
x,-y,-z
-x,1/2+y,1/2-z
-x,-y,-z
x,1/2+y,1/2-z
-x,y,z
x,1/2-y,1/2+z
1/2+x,1/2+y,z
1/2-x,-y,1/2+z
1/2+x,1/2-y,-z
1/2-x,y,1/2-z
1/2-x,1/2-y,-z
1/2+x,y,1/2-z
1/2-x,1/2+y,z
1/2+x,-y,1/2+z
loop_
_atom_site_type_symbol
_atom_site_label
_atom_site_fract_x
_atom_site_fract_y
_atom_site_fract_z
Si Si1 0.500000 0.187680 0.429683
Si Si2 0.752521 0.724911 0.612922
Si Si3 0.351891 0.134194 0.200816
Si Si4 0.500000 0.351609 0.053415
Si Si5 0.000000 0.490766 0.634492
Si Si6 0.741414 0.443541 0.311532
O O1 0.629448 0.248718 0.424369
O O2 0.500000 0.139027 0.488294
O O3 0.500000 0.114727 0.380865
O O4 0.801725 0.807746 0.649829
O O5 0.704259 0.639324 0.649074
O O6 0.870719 0.700990 0.572631
O O7 0.500000 0.165311 0.217213
O O8 0.250000 0.149552 0.250000
O O9 0.360461 0.027340 0.184235
O O10 0.500000 0.452422 0.078344
O O11 0.879524 0.513058 0.673021
O O12 0.750000 0.403990 0.250000
#
# Coordination Sequence:
#
# PCOD8264074 Si02
#       6
#     8  16  16   8   8  16
#     4  12  23  39  66  92 114 160 221 255 303 359
#     4  11  23  41  63  90 125 158 204 257 309 358
#     4  11  24  40  62  89 127 163 200 243 305 372
#     4  10  23  44  62  85 123 166 202 263 310 357
#     4  10  21  41  62  89 121 164 204 252 295 362
#     4  10  23  38  60  89 127 161 194 241 307 367
#
# _framework density 19.713633000000002
#
# number of rings (size 3 to 8) (size 9 to 14) (size 15 to 20)
#    0.000    1.333    3.333    1.667    9.333    0.000 
#    0.000    0.000    0.000    1.333    0.000    0.000 
#    0.000    0.000    0.000    0.000    0.000    0.000 
#
# Total GULP energy -446435.043854 kJ/mol
# GULP energy per Si atom -12400.973440 kJ/mol
# Density = 1.966876 g / cm^3
# Si number density = 19.713633 Si / 1000 Ang^3
#
#
#
# Elastic Constant Matrix: (Units=GPa)
#
#
# Indices 1 2 3 4 5 6 
#
# 1 125.1659 12.8968 31.4166 0.0000 0.0000 0.0000
# 2 12.8968 63.8789 16.5859 0.0000 0.0000 0.0000
# 3 31.4166 16.5859 92.4653 0.0000 0.0000 0.0000
# 4 0.0000 0.0000 0.0000 24.7779 0.0000 0.0000
# 5 0.0000 0.0000 0.0000 0.0000 11.5529 0.0000
# 6 0.0000 0.0000 0.0000 0.0000 0.0000 33.5742
#
#
#
# Elastic Compliance Matrix: (Units=1/GPa)
#
#
# Indices 1 2 3 4 5 6 
#
# 1 0.008801 -0.001049 -0.002802 0.000000 0.000000 0.000000
# 2 -0.001049 0.016544 -0.002611 0.000000 0.000000 0.000000
# 3 -0.002802 -0.002611 0.012235 0.000000 0.000000 0.000000
# 4 0.000000 0.000000 0.000000 0.040358 0.000000 0.000000
# 5 0.000000 0.000000 0.000000 0.000000 0.086558 0.000000
# 6 0.000000 0.000000 0.000000 0.000000 0.000000 0.029785
#
#
# Mechanical properties :
#
#
# Convention : Reuss Voigt Hill
#
# Bulk Modulus (GPa) = 40.55869 44.81209 42.68539
# Shear Modulus (GPa) = 23.20989 28.68839 25.94914
#
# Velocity S-wave (km/s) = 3.43498 3.81892 3.63203
# Velocity P-wave (km/s) = 6.02915 6.49819 6.26806
#
# Compressibility (1/GPa) = 0.02465563
#
# Stress axis : x y z
#
# Youngs Moduli (GPa) = 113.62579 60.44330 81.73097
#
# Poissons Ratio (x) = 0.06342 0.22901
# Poissons Ratio (y) = 0.11923 0.21341
# Poissons Ratio (z) = 0.31838 0.15783
#
# Static dielectric constant tensor:
#      x y z
#    x 3.638730 0.000000 0.000000 
#    y 0.000000 3.739370 0.000000 
#    z 0.000000 0.000000 3.428390 
# 
# 
# High freq. dielectric constant tensor:
#      x y z
#    x 1.778430 0.000000 0.000000 
#    y 0.000000 1.775130 0.000000 
#    z 0.000000 0.000000 1.762660 
# 
# From -- ./inp_files/42673.got.cif
#   From: 2010.03.12/outbox.cif.g09.slc.cpg/sg64_22_cif.got.tgz:42673.got - 2010.04.10 20:19:32.
