data_PCOD8264732
_publ_section_title
;
Structure prediction by ZEFSAII (Michael W. Deem and Ramdas Pophale) SiO2 
 PCOD8264732
Probable space group: C M C A
;
_chemical_formula_sum "Si O2"
_cell_formula_units_Z 64
_cell_length_a 21.824049
_cell_length_b 8.209629
_cell_length_c 18.601858
_cell_angle_alpha 90.000000
_cell_angle_beta 90.000000
_cell_angle_gamma 90.000000
_cell_volume 3332.845520
_symmetry_space_group_name_H-M "C M C A"
_symmetry_group_IT_number 64
_symmetry_cell_setting 'orthorhombic'
loop_
_space_group_symop_operation_xyz
x,y,z
-x,1/2-y,1/2+z
x,-y,-z
-x,1/2+y,1/2-z
-x,-y,-z
x,1/2+y,1/2-z
-x,y,z
x,1/2-y,1/2+z
1/2+x,1/2+y,z
1/2-x,-y,1/2+z
1/2+x,1/2-y,-z
1/2-x,y,1/2-z
1/2-x,1/2-y,-z
1/2+x,y,1/2-z
1/2-x,1/2+y,z
1/2+x,-y,1/2+z
loop_
_atom_site_type_symbol
_atom_site_label
_atom_site_fract_x
_atom_site_fract_y
_atom_site_fract_z
Si Si1 0.070586 0.655822 0.402595
Si Si2 0.200365 0.327636 0.840812
Si Si3 0.370127 0.358688 0.043098
Si Si4 0.827349 0.800779 0.309394
O O1 0.089534 0.731840 0.480992
O O2 0.084465 0.460186 0.403335
O O3 0.107682 0.743180 0.339062
O O4 0.000000 0.689182 0.386384
O O5 0.172201 0.268538 0.916024
O O6 0.183463 0.513211 0.829168
O O7 0.173379 0.216756 0.776728
O O8 0.273827 0.310382 0.844239
O O9 0.330437 0.500000 0.000000
#
# Coordination Sequence:
#
# PCOD8264732 Si02
#       4
#    16  16  16  16
#     4   9  19  39  59  84 115 153 188 232 285 340
#     4  11  21  39  58  90 111 153 194 240 301 333
#     4   8  19  37  62  84 115 151 187 237 287 341
#     4  11  22  36  63  81 121 149 193 247 284 350
#
# _framework density 19.202809999999999
#
# number of rings (size 3 to 8) (size 9 to 14) (size 15 to 20)
#    1.500    0.500    0.000    7.500    0.000    2.000 
#    0.000   10.000    0.000    0.000    0.000    0.000 
#    0.000    0.000    0.000    0.000    0.000    0.000 
#
# Total GULP energy -396432.704503 kJ/mol
# GULP energy per Si atom -12388.522016 kJ/mol
# Density = 1.915910 g / cm^3
# Si number density = 19.202810 Si / 1000 Ang^3
#
#
#
# Elastic Constant Matrix: (Units=GPa)
#
#
# Indices 1 2 3 4 5 6 
#
# 1 118.6293 15.8937 45.3177 0.0000 0.0000 0.0000
# 2 15.8937 51.6043 14.3919 0.0000 0.0000 0.0000
# 3 45.3177 14.3919 55.4349 0.0000 0.0000 0.0000
# 4 0.0000 0.0000 0.0000 29.8191 0.0000 0.0000
# 5 0.0000 0.0000 0.0000 0.0000 26.8815 0.0000
# 6 0.0000 0.0000 0.0000 0.0000 0.0000 18.9130
#
#
#
# Elastic Compliance Matrix: (Units=1/GPa)
#
#
# Indices 1 2 3 4 5 6 
#
# 1 0.012311 -0.001062 -0.009789 0.000000 0.000000 0.000000
# 2 -0.001062 0.020982 -0.004579 0.000000 0.000000 0.000000
# 3 -0.009789 -0.004579 0.027230 0.000000 0.000000 0.000000
# 4 0.000000 0.000000 0.000000 0.033536 0.000000 0.000000
# 5 0.000000 0.000000 0.000000 0.000000 0.037200 0.000000
# 6 0.000000 0.000000 0.000000 0.000000 0.000000 0.052874
#
#
# Mechanical properties :
#
#
# Convention : Reuss Voigt Hill
#
# Bulk Modulus (GPa) = 33.71075 41.87501 37.79288
# Shear Modulus (GPa) = 22.23393 25.12706 23.68050
#
# Velocity S-wave (km/s) = 3.40641 3.62126 3.51547
# Velocity P-wave (km/s) = 5.75019 6.27206 6.01679
#
# Compressibility (1/GPa) = 0.02966413
#
# Stress axis : x y z
#
# Youngs Moduli (GPa) = 81.22631 47.65898 36.72377
#
# Poissons Ratio (x) = 0.05060 0.35948
# Poissons Ratio (y) = 0.08625 0.16817
# Poissons Ratio (z) = 0.79510 0.21825
#
# Static dielectric constant tensor:
#      x y z
#    x 3.217710 0.000000 0.000000 
#    y 0.000000 3.271150 0.000000 
#    z 0.000000 0.000000 3.532950 
# 
# 
# High freq. dielectric constant tensor:
#      x y z
#    x 1.721220 0.000000 0.000000 
#    y 0.000000 1.732550 0.000000 
#    z 0.000000 0.000000 1.747100 
# 
# From -- ./inp_files/40681.got.cif
#   From: 2010.03.12/outbox.cif.g09.slc.cpg/sg64_21_cif.got.tgz:40681.got - 2010.04.10 20:19:32.
