data_PCOD8264116
_publ_section_title
;
Structure prediction by ZEFSAII (Michael W. Deem and Ramdas Pophale) SiO2 
 PCOD8264116
Probable space group: C M C A
;
_chemical_formula_sum "Si O2"
_cell_formula_units_Z 72
_cell_length_a 14.247525
_cell_length_b 27.192374
_cell_length_c 9.583797
_cell_angle_alpha 90.000000
_cell_angle_beta 90.000000
_cell_angle_gamma 90.000000
_cell_volume 3712.993241
_symmetry_space_group_name_H-M "C M C A"
_symmetry_group_IT_number 64
_symmetry_cell_setting 'orthorhombic'
loop_
_space_group_symop_operation_xyz
x,y,z
-x,1/2-y,1/2+z
x,-y,-z
-x,1/2+y,1/2-z
-x,-y,-z
x,1/2+y,1/2-z
-x,y,z
x,1/2-y,1/2+z
1/2+x,1/2+y,z
1/2-x,-y,1/2+z
1/2+x,1/2-y,-z
1/2-x,y,1/2-z
1/2-x,1/2-y,-z
1/2+x,y,1/2-z
1/2-x,1/2+y,z
1/2+x,-y,1/2+z
loop_
_atom_site_type_symbol
_atom_site_label
_atom_site_fract_x
_atom_site_fract_y
_atom_site_fract_z
Si Si1 0.246642 0.807253 0.972352
Si Si2 0.110903 0.656047 0.244804
Si Si3 0.250000 0.130470 0.750000
Si Si4 0.110380 0.554794 0.666760
Si Si5 0.890313 0.553081 0.353819
O O1 0.154086 0.818125 0.881161
O O2 0.341945 0.822975 0.893906
O O3 0.250000 0.750000 0.000000
O O4 0.240367 0.835080 0.117258
O O5 0.135839 0.597740 0.251039
O O6 0.000000 0.666150 0.241741
O O7 0.159643 0.094930 0.734728
O O8 0.141104 0.499201 0.712032
O O9 0.149786 0.562613 0.509094
O O10 0.000000 0.563390 0.682586
O O11 0.000000 0.549627 0.379649
#
# Coordination Sequence:
#
# PCOD8264116 Si02
#       5
#    16  16   8  16  16
#     4  11  25  42  59  86 121 150 198 261 299 339
#     4  10  21  42  66  84 112 161 201 234 295 362
#     4  12  22  36  60  90 118 156 196 242 306 354
#     4   9  18  33  56  89 124 154 191 239 289 351
#     4   8  15  34  60  84 115 156 196 234 283 350
#
# _framework density 19.391363999999999
#
# number of rings (size 3 to 8) (size 9 to 14) (size 15 to 20)
#    0.000    2.222    2.222    2.667    0.000    3.556 
#    0.000    2.222    0.000    4.000    0.000    0.000 
#    0.000    0.000    0.000    0.000    0.000    0.000 
#
# Total GULP energy -446246.082284 kJ/mol
# GULP energy per Si atom -12395.724508 kJ/mol
# Density = 1.934723 g / cm^3
# Si number density = 19.391364 Si / 1000 Ang^3
#
#
#
# Elastic Constant Matrix: (Units=GPa)
#
#
# Indices 1 2 3 4 5 6 
#
# 1 110.2211 54.8518 36.6381 0.0000 0.0000 0.0000
# 2 54.8518 172.2808 50.1243 0.0000 0.0000 0.0000
# 3 36.6381 50.1243 77.0041 0.0000 0.0000 0.0000
# 4 0.0000 0.0000 0.0000 27.5052 0.0000 0.0000
# 5 0.0000 0.0000 0.0000 0.0000 28.3769 0.0000
# 6 0.0000 0.0000 0.0000 0.0000 0.0000 25.3651
#
#
#
# Elastic Compliance Matrix: (Units=1/GPa)
#
#
# Indices 1 2 3 4 5 6 
#
# 1 0.011641 -0.002584 -0.003856 0.000000 0.000000 0.000000
# 2 -0.002584 0.007734 -0.003805 0.000000 0.000000 0.000000
# 3 -0.003856 -0.003805 0.017298 0.000000 0.000000 0.000000
# 4 0.000000 0.000000 0.000000 0.036357 0.000000 0.000000
# 5 0.000000 0.000000 0.000000 0.000000 0.035240 0.000000
# 6 0.000000 0.000000 0.000000 0.000000 0.000000 0.039424
#
#
# Mechanical properties :
#
#
# Convention : Reuss Voigt Hill
#
# Bulk Modulus (GPa) = 61.79804 71.41492 66.60648
# Shear Modulus (GPa) = 28.80538 30.77556 29.79047
#
# Velocity S-wave (km/s) = 3.85837 3.98813 3.92379
# Velocity P-wave (km/s) = 7.19634 7.62333 7.41291
#
# Compressibility (1/GPa) = 0.01618174
#
# Stress axis : x y z
#
# Youngs Moduli (GPa) = 85.90629 129.29456 57.81045
#
# Poissons Ratio (x) = 0.33412 0.22294
# Poissons Ratio (y) = 0.22200 0.21996
# Poissons Ratio (z) = 0.33129 0.49196
#
# Static dielectric constant tensor:
#      x y z
#    x 3.466930 0.000000 0.000000 
#    y 0.000000 3.875430 0.000000 
#    z 0.000000 0.000000 3.338840 
# 
# 
# High freq. dielectric constant tensor:
#      x y z
#    x 1.747250 0.000000 0.000000 
#    y 0.000000 1.772230 0.000000 
#    z 0.000000 0.000000 1.734850 
# 
# From -- ./inp_files/5830.got.cif
#   From: 2010.03.12/outbox.cif.g09.slc.cpg/sg64_3_cif.got.tgz:5830.got - 2010.04.10 20:19:32.
