data_PCOD8264383
_publ_section_title
;
Structure prediction by ZEFSAII (Michael W. Deem and Ramdas Pophale) SiO2 
 PCOD8264383
Probable space group: C M C A
;
_chemical_formula_sum "Si O2"
_cell_formula_units_Z 64
_cell_length_a 9.467611
_cell_length_b 16.307623
_cell_length_c 16.788951
_cell_angle_alpha 90.000000
_cell_angle_beta 90.000000
_cell_angle_gamma 90.000000
_cell_volume 2592.117177
_symmetry_space_group_name_H-M "C M C A"
_symmetry_group_IT_number 64
_symmetry_cell_setting 'orthorhombic'
loop_
_space_group_symop_operation_xyz
x,y,z
-x,1/2-y,1/2+z
x,-y,-z
-x,1/2+y,1/2-z
-x,-y,-z
x,1/2+y,1/2-z
-x,y,z
x,1/2-y,1/2+z
1/2+x,1/2+y,z
1/2-x,-y,1/2+z
1/2+x,1/2-y,-z
1/2-x,y,1/2-z
1/2-x,1/2-y,-z
1/2+x,y,1/2-z
1/2-x,1/2+y,z
1/2+x,-y,1/2+z
loop_
_atom_site_type_symbol
_atom_site_label
_atom_site_fract_x
_atom_site_fract_y
_atom_site_fract_z
Si Si1 0.000000 0.700590 0.970246
Si Si2 0.500000 0.788218 0.848059
Si Si3 0.500000 0.017285 0.186679
Si Si4 0.790682 0.562817 0.928053
Si Si5 0.500000 0.355626 0.857539
Si Si6 0.000000 0.529176 0.628468
Si Si7 0.750000 0.304286 0.750000
O O1 0.859697 0.648219 0.954357
O O2 0.000000 0.613990 0.167867
O O3 0.000000 0.733896 0.059871
O O4 0.357403 0.750867 0.805959
O O5 0.500000 0.723509 0.088364
O O6 0.500000 0.992891 0.278631
O O7 0.362680 0.976760 0.148567
O O8 0.631485 0.581947 0.901849
O O9 0.805210 0.500000 0.000000
O O10 0.500000 0.437674 0.912152
O O11 0.644554 0.358830 0.804762
#
# Coordination Sequence:
#
# PCOD8264383 Si02
#       7
#     8   8   8  16   8   8   8
#     4  11  25  46  68  98 150 181 214 277 374 401
#     4  11  20  40  71  98 133 178 229 282 329 404
#     4  11  19  37  69  91 122 187 236 265 320 409
#     4  11  23  43  66  99 140 181 220 279 346 410
#     4  11  25  44  71 102 133 179 228 292 329 408
#     4  12  24  40  73 103 130 172 251 280 319 402
#     4  10  22  42  68 102 136 172 238 280 334 398
#
# _framework density 24.690241
#
# number of rings (size 3 to 8) (size 9 to 14) (size 15 to 20)
#    0.000    1.000    5.000    3.375    0.000    1.000 
#    9.000    1.250    0.000    0.000    0.000    0.000 
#    0.000    0.000    0.000    0.000    0.000    0.000 
#
# Total GULP energy -396623.390265 kJ/mol
# GULP energy per Si atom -12394.480946 kJ/mol
# Density = 2.463404 g / cm^3
# Si number density = 24.690241 Si / 1000 Ang^3
#
#
#
# Elastic Constant Matrix: (Units=GPa)
#
#
# Indices 1 2 3 4 5 6 
#
# 1 222.3712 32.5435 63.4735 0.0000 0.0000 0.0000
# 2 32.5435 62.4346 45.9986 0.0000 0.0000 0.0000
# 3 63.4735 45.9986 109.2710 0.0000 0.0000 0.0000
# 4 0.0000 0.0000 0.0000 15.2760 0.0000 0.0000
# 5 0.0000 0.0000 0.0000 0.0000 53.6939 0.0000
# 6 0.0000 0.0000 0.0000 0.0000 0.0000 5.7356
#
#
#
# Elastic Compliance Matrix: (Units=1/GPa)
#
#
# Indices 1 2 3 4 5 6 
#
# 1 0.005414 -0.000732 -0.002837 0.000000 0.000000 0.000000
# 2 -0.000732 0.023316 -0.009390 0.000000 0.000000 0.000000
# 3 -0.002837 -0.009390 0.014752 0.000000 0.000000 0.000000
# 4 0.000000 0.000000 0.000000 0.065462 0.000000 0.000000
# 5 0.000000 0.000000 0.000000 0.000000 0.018624 0.000000
# 6 0.000000 0.000000 0.000000 0.000000 0.000000 0.174348
#
#
# Mechanical properties :
#
#
# Convention : Reuss Voigt Hill
#
# Bulk Modulus (GPa) = 56.93150 75.34533 66.13842
# Shear Modulus (GPa) = 14.98401 31.74521 23.36461
#
# Velocity S-wave (km/s) = 2.46617 3.58961 3.07955
# Velocity P-wave (km/s) = 5.58728 6.91107 6.28413
#
# Compressibility (1/GPa) = 0.01756497
#
# Stress axis : x y z
#
# Youngs Moduli (GPa) = 184.71323 42.88832 67.78696
#
# Poissons Ratio (x) = 0.03140 0.19229
# Poissons Ratio (y) = 0.13521 0.63652
# Poissons Ratio (z) = 0.52396 0.40272
#
# Static dielectric constant tensor:
#      x y z
#    x 4.975010 0.000000 0.000000 
#    y 0.000000 4.060680 0.000000 
#    z 0.000000 0.000000 4.803200 
# 
# 
# High freq. dielectric constant tensor:
#      x y z
#    x 2.005190 0.000000 0.000000 
#    y 0.000000 1.946840 0.000000 
#    z 0.000000 0.000000 1.999550 
# 
# From -- ./inp_files/20969.got.cif
#   From: 2010.03.12/outbox.cif.g09.slc.cpg/sg64_11_cif.got.tgz:20969.got - 2010.04.10 20:19:32.
