data_PCOD8264874
_publ_section_title
;
Structure prediction by ZEFSAII (Michael W. Deem and Ramdas Pophale) SiO2 
 PCOD8264874
Probable space group: C M C A
;
_chemical_formula_sum "Si O2"
_cell_formula_units_Z 88
_cell_length_a 21.233895
_cell_length_b 12.280730
_cell_length_c 15.340260
_cell_angle_alpha 90.000000
_cell_angle_beta 90.000000
_cell_angle_gamma 90.000000
_cell_volume 4000.244798
_symmetry_space_group_name_H-M "C M C A"
_symmetry_group_IT_number 64
_symmetry_cell_setting 'orthorhombic'
loop_
_space_group_symop_operation_xyz
x,y,z
-x,1/2-y,1/2+z
x,-y,-z
-x,1/2+y,1/2-z
-x,-y,-z
x,1/2+y,1/2-z
-x,y,z
x,1/2-y,1/2+z
1/2+x,1/2+y,z
1/2-x,-y,1/2+z
1/2+x,1/2-y,-z
1/2-x,y,1/2-z
1/2-x,1/2-y,-z
1/2+x,y,1/2-z
1/2-x,1/2+y,z
1/2+x,-y,1/2+z
loop_
_atom_site_type_symbol
_atom_site_label
_atom_site_fract_x
_atom_site_fract_y
_atom_site_fract_z
Si Si1 0.393992 0.962686 0.788997
Si Si2 0.000000 0.617587 0.853562
Si Si3 0.864678 0.824285 0.011718
Si Si4 0.500000 0.320530 0.735118
Si Si5 0.812117 0.899410 0.561068
Si Si6 0.000000 0.763222 0.538695
Si Si7 0.177483 0.524545 0.378283
O O1 0.438896 0.885119 0.732063
O O2 0.362933 0.889848 0.863039
O O3 0.340067 0.003341 0.721883
O O4 0.434724 0.055662 0.836591
O O5 0.000000 0.704021 0.776457
O O6 0.000000 0.659887 0.953028
O O7 0.821722 0.714555 0.009202
O O8 0.936993 0.809498 0.040286
O O9 0.827123 0.908844 0.073281
O O10 0.868647 0.882173 0.917194
O O11 0.500000 0.329343 0.628912
O O12 0.745776 0.921584 0.607591
O O13 0.829633 0.000000 0.500000
#
# Coordination Sequence:
#
# PCOD8264874 Si02
#       7
#    16   8  16   8  16   8  16
#     4  11  25  41  69  99 140 178 237 283 353 409
#     4  11  25  44  68 103 143 177 236 296 347 422
#     4  11  24  45  71 101 140 181 242 284 355 418
#     4  11  23  44  64 102 138 178 234 296 339 423
#     4  12  24  45  69 100 141 182 237 285 344 428
#     4  12  22  42  76  99 139 186 229 293 366 403
#     4  11  25  45  67 102 139 190 227 290 349 415
#
# _framework density 21.998653000000001
#
# number of rings (size 3 to 8) (size 9 to 14) (size 15 to 20)
#    0.000    0.727    3.636    4.364    0.000    3.636 
#    0.000    1.818    0.000    0.000    0.000    0.000 
#    0.000    0.000    0.000    0.000    0.000    0.000 
#
# Total GULP energy -545217.160868 kJ/mol
# GULP energy per Si atom -12391.299111 kJ/mol
# Density = 2.194858 g / cm^3
# Si number density = 21.998653 Si / 1000 Ang^3
#
#
#
# Elastic Constant Matrix: (Units=GPa)
#
#
# Indices 1 2 3 4 5 6 
#
# 1 113.3159 32.0843 3.3902 0.0000 0.0000 0.0000
# 2 32.0843 132.2471 27.9622 0.0000 0.0000 0.0000
# 3 3.3902 27.9622 97.6047 0.0000 0.0000 0.0000
# 4 0.0000 0.0000 0.0000 23.7494 0.0000 0.0000
# 5 0.0000 0.0000 0.0000 0.0000 30.4187 0.0000
# 6 0.0000 0.0000 0.0000 0.0000 0.0000 20.0783
#
#
#
# Elastic Compliance Matrix: (Units=1/GPa)
#
#
# Indices 1 2 3 4 5 6 
#
# 1 0.009487 -0.002376 0.000351 0.000000 0.000000 0.000000
# 2 -0.002376 0.008644 -0.002394 0.000000 0.000000 0.000000
# 3 0.000351 -0.002394 0.010919 0.000000 0.000000 0.000000
# 4 0.000000 0.000000 0.000000 0.042106 0.000000 0.000000
# 5 0.000000 0.000000 0.000000 0.000000 0.032875 0.000000
# 6 0.000000 0.000000 0.000000 0.000000 0.000000 0.049805
#
#
# Mechanical properties :
#
#
# Convention : Reuss Voigt Hill
#
# Bulk Modulus (GPa) = 49.47313 52.22676 50.84995
# Shear Modulus (GPa) = 29.51400 33.49801 31.50601
#
# Velocity S-wave (km/s) = 3.66680 3.90645 3.78852
# Velocity P-wave (km/s) = 6.36123 6.64376 6.50403
#
# Compressibility (1/GPa) = 0.02021299
#
# Stress axis : x y z
#
# Youngs Moduli (GPa) = 105.40636 115.68483 91.58323
#
# Poissons Ratio (x) = 0.27485 -0.03216
# Poissons Ratio (y) = 0.25043 0.21924
# Poissons Ratio (z) = -0.03701 0.27694
#
# Static dielectric constant tensor:
#      x y z
#    x 4.180110 0.000000 0.000000 
#    y 0.000000 3.892820 0.000000 
#    z 0.000000 0.000000 3.963170 
# 
# 
# High freq. dielectric constant tensor:
#      x y z
#    x 1.883660 0.000000 0.000000 
#    y 0.000000 1.863670 0.000000 
#    z 0.000000 0.000000 1.864520 
# 
# From -- ./inp_files/27228.got.cif
#   From: 2010.03.12/outbox.cif.g09.slc.cpg/sg64_14_cif.got.tgz:27228.got - 2010.04.10 20:19:32.
