data_PCOD8264810
_publ_section_title
;
Structure prediction by ZEFSAII (Michael W. Deem and Ramdas Pophale) SiO2 
 PCOD8264810
Probable space group: C M C A
;
_chemical_formula_sum "Si O2"
_cell_formula_units_Z 112
_cell_length_a 15.511860
_cell_length_b 11.005526
_cell_length_c 29.703905
_cell_angle_alpha 90.000000
_cell_angle_beta 90.000000
_cell_angle_gamma 90.000000
_cell_volume 5070.937149
_symmetry_space_group_name_H-M "C M C A"
_symmetry_group_IT_number 64
_symmetry_cell_setting 'orthorhombic'
loop_
_space_group_symop_operation_xyz
x,y,z
-x,1/2-y,1/2+z
x,-y,-z
-x,1/2+y,1/2-z
-x,-y,-z
x,1/2+y,1/2-z
-x,y,z
x,1/2-y,1/2+z
1/2+x,1/2+y,z
1/2-x,-y,1/2+z
1/2+x,1/2-y,-z
1/2-x,y,1/2-z
1/2-x,1/2-y,-z
1/2+x,y,1/2-z
1/2-x,1/2+y,z
1/2+x,-y,1/2+z
loop_
_atom_site_type_symbol
_atom_site_label
_atom_site_fract_x
_atom_site_fract_y
_atom_site_fract_z
Si Si1 0.403291 0.879654 0.897865
Si Si2 0.176650 0.269464 0.665891
Si Si3 0.903666 0.028752 0.683883
Si Si4 0.666284 0.504475 0.226714
Si Si5 0.754745 0.375689 0.972673
Si Si6 0.100740 0.918213 0.910171
Si Si7 0.647146 0.649439 0.856886
O O1 0.500000 0.919655 0.914861
O O2 0.358262 0.967000 0.859705
O O3 0.334762 0.868187 0.937980
O O4 0.419768 0.752110 0.871957
O O5 0.199226 0.376169 0.700756
O O6 0.109870 0.317281 0.628581
O O7 0.259922 0.214151 0.641632
O O8 0.129953 0.163529 0.693316
O O9 0.897157 0.959792 0.732165
O O10 0.000000 0.028633 0.667450
O O11 0.750000 0.443946 0.250000
O O12 0.624971 0.406626 0.192346
O O13 0.659035 0.380515 0.952076
O O14 0.771135 0.500000 0.000000
O O15 0.750000 0.250000 0.000000
O O16 0.000000 0.929273 0.923788
O O17 0.141138 0.044486 0.893715
#
# Coordination Sequence:
#
# PCOD8264810 Si02
#       7
#    16  16  16  16  16  16  16
#     4  11  25  46  72 102 139 186 232 288 363 432
#     4  11  23  41  67  94 138 185 236 288 346 420
#     4  11  25  40  62  95 136 181 234 293 345 413
#     4  11  24  37  62  97 132 185 240 286 342 400
#     4  12  28  48  77 109 143 183 236 302 370 447
#     4  11  25  46  75 106 141 183 229 287 362 435
#     4  11  22  42  71 100 140 183 237 287 342 426
#
# _framework density 22.086648
#
# number of rings (size 3 to 8) (size 9 to 14) (size 15 to 20)
#    0.000    0.857    2.857    3.429    6.000    4.571 
#    0.000    0.000    0.000    0.000    0.000    0.000 
#    0.000    0.000    0.000    0.000    0.000    0.000 
#
# Total GULP energy -693925.522409 kJ/mol
# GULP energy per Si atom -12391.527186 kJ/mol
# Density = 2.203638 g / cm^3
# Si number density = 22.086648 Si / 1000 Ang^3
#
#
#
# Elastic Constant Matrix: (Units=GPa)
#
#
# Indices 1 2 3 4 5 6 
#
# 1 125.2842 37.6594 57.6724 0.0000 0.0000 0.0000
# 2 37.6594 124.5113 60.2088 0.0000 0.0000 0.0000
# 3 57.6724 60.2088 127.8192 0.0000 0.0000 0.0000
# 4 0.0000 0.0000 0.0000 34.2219 0.0000 0.0000
# 5 0.0000 0.0000 0.0000 0.0000 26.6909 0.0000
# 6 0.0000 0.0000 0.0000 0.0000 0.0000 25.0835
#
#
#
# Elastic Compliance Matrix: (Units=1/GPa)
#
#
# Indices 1 2 3 4 5 6 
#
# 1 0.010192 -0.001112 -0.004075 0.000000 0.000000 0.000000
# 2 -0.001112 0.010522 -0.004454 0.000000 0.000000 0.000000
# 3 -0.004075 -0.004454 0.011760 0.000000 0.000000 0.000000
# 4 0.000000 0.000000 0.000000 0.029221 0.000000 0.000000
# 5 0.000000 0.000000 0.000000 0.000000 0.037466 0.000000
# 6 0.000000 0.000000 0.000000 0.000000 0.000000 0.039867
#
#
# Mechanical properties :
#
#
# Convention : Reuss Voigt Hill
#
# Bulk Modulus (GPa) = 75.80760 76.52175 76.16467
# Shear Modulus (GPa) = 30.72996 32.00420 31.36708
#
# Velocity S-wave (km/s) = 3.73411 3.81074 3.77262
# Velocity P-wave (km/s) = 7.27934 7.35416 7.31685
#
# Compressibility (1/GPa) = 0.01319129
#
# Stress axis : x y z
#
# Youngs Moduli (GPa) = 98.11716 95.04092 85.03191
#
# Poissons Ratio (x) = 0.10571 0.34648
# Poissons Ratio (y) = 0.10913 0.37877
# Poissons Ratio (z) = 0.39980 0.42335
#
# Static dielectric constant tensor:
#      x y z
#    x 4.069560 0.000000 0.000000 
#    y 0.000000 4.359250 0.000000 
#    z 0.000000 0.000000 4.113600 
# 
# 
# High freq. dielectric constant tensor:
#      x y z
#    x 1.867500 0.000000 0.000000 
#    y 0.000000 1.879640 0.000000 
#    z 0.000000 0.000000 1.865850 
# 
# From -- ./inp_files/53241.got.cif
#   From: 2010.03.12/outbox.cif.g09.slc.cpg/sg64_27_cif.got.tgz:53241.got - 2010.04.10 20:19:32.
