data_PCOD8264654
_publ_section_title
;
Structure prediction by ZEFSAII (Michael W. Deem and Ramdas Pophale) SiO2 
 PCOD8264654
Probable space group: C M C A
;
_chemical_formula_sum "Si O2"
_cell_formula_units_Z 80
_cell_length_a 9.723653
_cell_length_b 23.246133
_cell_length_c 16.689365
_cell_angle_alpha 90.000000
_cell_angle_beta 90.000000
_cell_angle_gamma 90.000000
_cell_volume 3772.419519
_symmetry_space_group_name_H-M "C M C A"
_symmetry_group_IT_number 64
_symmetry_cell_setting 'orthorhombic'
loop_
_space_group_symop_operation_xyz
x,y,z
-x,1/2-y,1/2+z
x,-y,-z
-x,1/2+y,1/2-z
-x,-y,-z
x,1/2+y,1/2-z
-x,y,z
x,1/2-y,1/2+z
1/2+x,1/2+y,z
1/2-x,-y,1/2+z
1/2+x,1/2-y,-z
1/2-x,y,1/2-z
1/2-x,1/2-y,-z
1/2+x,y,1/2-z
1/2-x,1/2+y,z
1/2+x,-y,1/2+z
loop_
_atom_site_type_symbol
_atom_site_label
_atom_site_fract_x
_atom_site_fract_y
_atom_site_fract_z
Si Si1 0.500000 0.459690 0.850978
Si Si2 0.000000 0.324978 0.667838
Si Si3 0.500000 0.849915 0.117561
Si Si4 0.719525 0.745778 0.594154
Si Si5 0.000000 0.773601 0.656253
Si Si6 0.206358 0.524153 0.085920
Si Si7 0.500000 0.384198 0.557352
Si Si8 0.000000 0.463921 0.195361
O O1 0.500000 0.393799 0.821011
O O2 0.368574 0.470453 0.905777
O O3 0.500000 0.507748 0.782364
O O4 0.136150 0.303146 0.620965
O O5 0.000000 0.300283 0.756631
O O6 0.365394 0.810440 0.118213
O O7 0.500000 0.893752 0.193711
O O8 0.500000 0.889028 0.038415
O O9 0.750000 0.750000 0.500000
O O10 0.861090 0.737343 0.643440
O O11 0.000000 0.818839 0.583790
O O12 0.141039 0.483237 0.152864
O O13 0.136232 0.586562 0.093952
O O14 0.166790 0.500000 0.000000
#
# Coordination Sequence:
#
# PCOD8264654 Si02
#       8
#     8   8   8  16   8  16   8   8
#     4  12  26  41  65 105 136 165 230 304 353 386
#     4  11  25  42  65  97 139 174 213 290 358 407
#     4  11  22  43  69  96 131 184 231 273 344 423
#     4  11  23  42  68 101 134 177 234 279 339 427
#     4  12  22  40  67  99 135 167 222 285 336 394
#     4  11  22  40  65  95 128 173 229 281 339 411
#     4  11  19  39  74  93 126 181 220 270 340 426
#     4  11  23  44  66  91 135 187 227 267 352 437
#
# _framework density 21.20655
#
# number of rings (size 3 to 8) (size 9 to 14) (size 15 to 20)
#    0.000    0.800    4.000    5.100    0.000    1.600 
#    0.000    9.000    0.000    0.000    0.000    0.000 
#    0.000    0.000    0.000    0.000    0.000    0.000 
#
# Total GULP energy -496026.106265 kJ/mol
# GULP energy per Si atom -12400.652657 kJ/mol
# Density = 2.115828 g / cm^3
# Si number density = 21.206550 Si / 1000 Ang^3
#
#
#
# Elastic Constant Matrix: (Units=GPa)
#
#
# Indices 1 2 3 4 5 6 
#
# 1 171.2634 43.3117 17.7161 0.0000 0.0000 0.0000
# 2 43.3117 126.1171 25.8159 0.0000 0.0000 0.0000
# 3 17.7161 25.8159 79.8161 0.0000 0.0000 0.0000
# 4 0.0000 0.0000 0.0000 39.1264 0.0000 0.0000
# 5 0.0000 0.0000 0.0000 0.0000 36.3513 0.0000
# 6 0.0000 0.0000 0.0000 0.0000 0.0000 12.8701
#
#
#
# Elastic Compliance Matrix: (Units=1/GPa)
#
#
# Indices 1 2 3 4 5 6 
#
# 1 0.006438 -0.002054 -0.000764 0.000000 0.000000 0.000000
# 2 -0.002054 0.009147 -0.002503 0.000000 0.000000 0.000000
# 3 -0.000764 -0.002503 0.013508 0.000000 0.000000 0.000000
# 4 0.000000 0.000000 0.000000 0.025558 0.000000 0.000000
# 5 0.000000 0.000000 0.000000 0.000000 0.027509 0.000000
# 6 0.000000 0.000000 0.000000 0.000000 0.000000 0.077699
#
#
# Mechanical properties :
#
#
# Convention : Reuss Voigt Hill
#
# Bulk Modulus (GPa) = 54.20113 61.20934 57.70523
# Shear Modulus (GPa) = 28.30428 37.02641 32.66535
#
# Velocity S-wave (km/s) = 3.65731 4.18304 3.92898
# Velocity P-wave (km/s) = 6.59156 7.22886 6.91756
#
# Compressibility (1/GPa) = 0.01844980
#
# Stress axis : x y z
#
# Youngs Moduli (GPa) = 155.33811 109.32656 74.03078
#
# Poissons Ratio (x) = 0.22459 0.05659
# Poissons Ratio (y) = 0.31912 0.18526
# Poissons Ratio (z) = 0.11875 0.27359
#
# Static dielectric constant tensor:
#      x y z
#    x 4.161680 0.000000 0.000000 
#    y 0.000000 3.860410 0.000000 
#    z 0.000000 0.000000 3.742050 
# 
# 
# High freq. dielectric constant tensor:
#      x y z
#    x 1.847600 0.000000 0.000000 
#    y 0.000000 1.824770 0.000000 
#    z 0.000000 0.000000 1.828590 
# 
# From -- ./inp_files/29903.got.cif
#   From: 2010.03.12/outbox.cif.g09.slc.cpg/sg64_15_cif.got.tgz:29903.got - 2010.04.10 20:19:32.
