data_PCOD8264051
_publ_section_title
;
Structure prediction by ZEFSAII (Michael W. Deem and Ramdas Pophale) SiO2 
 PCOD8264051
Probable space group: C M C A
;
_chemical_formula_sum "Si O2"
_cell_formula_units_Z 72
_cell_length_a 13.938354
_cell_length_b 18.756863
_cell_length_c 13.457922
_cell_angle_alpha 90.000000
_cell_angle_beta 90.000000
_cell_angle_gamma 90.000000
_cell_volume 3518.436388
_symmetry_space_group_name_H-M "C M C A"
_symmetry_group_IT_number 64
_symmetry_cell_setting 'orthorhombic'
loop_
_space_group_symop_operation_xyz
x,y,z
-x,1/2-y,1/2+z
x,-y,-z
-x,1/2+y,1/2-z
-x,-y,-z
x,1/2+y,1/2-z
-x,y,z
x,1/2-y,1/2+z
1/2+x,1/2+y,z
1/2-x,-y,1/2+z
1/2+x,1/2-y,-z
1/2-x,y,1/2-z
1/2-x,1/2-y,-z
1/2+x,y,1/2-z
1/2-x,1/2+y,z
1/2+x,-y,1/2+z
loop_
_atom_site_type_symbol
_atom_site_label
_atom_site_fract_x
_atom_site_fract_y
_atom_site_fract_z
Si Si1 0.789954 0.030508 0.398922
Si Si2 0.111006 0.165569 0.307466
Si Si3 0.611484 0.819972 0.378655
Si Si4 0.610084 0.116883 0.408841
Si Si5 0.750000 0.917135 0.250000
O O1 0.836883 0.104330 0.368354
O O2 0.675792 0.046137 0.411534
O O3 0.834350 0.000000 0.500000
O O4 0.811693 0.968937 0.320113
O O5 0.145285 0.240345 0.352692
O O6 0.135370 0.162815 0.189934
O O7 0.000000 0.153861 0.326555
O O8 0.500000 0.831541 0.350798
O O9 0.629923 0.833649 0.495340
O O10 0.675177 0.871914 0.312707
O O11 0.500000 0.090565 0.406398
#
# Coordination Sequence:
#
# PCOD8264051 Si02
#       5
#    16  16  16  16   8
#     4  12  24  40  61  98 128 165 211 258 323 375
#     4  10  23  43  66  91 129 171 208 258 319 379
#     4  10  24  43  66  96 124 166 218 261 311 375
#     4  10  21  40  66  90 124 170 216 257 304 377
#     4  12  24  38  64  98 128 158 208 272 312 362
#
# _framework density 20.463636000000001
#
# number of rings (size 3 to 8) (size 9 to 14) (size 15 to 20)
#    0.000    1.333    4.444    0.000    3.111    5.333 
#    0.000    2.222    0.000    0.000    0.000    0.000 
#    0.000    0.000    0.000    0.000    0.000    0.000 
#
# Total GULP energy -446435.537793 kJ/mol
# GULP energy per Si atom -12400.987161 kJ/mol
# Density = 2.041706 g / cm^3
# Si number density = 20.463636 Si / 1000 Ang^3
#
#
#
# Elastic Constant Matrix: (Units=GPa)
#
#
# Indices 1 2 3 4 5 6 
#
# 1 32.1441 44.2777 29.5907 0.0000 0.0000 0.0000
# 2 44.2777 147.2906 71.7527 0.0000 0.0000 0.0000
# 3 29.5907 71.7527 156.6891 0.0000 0.0000 0.0000
# 4 0.0000 0.0000 0.0000 41.3274 0.0000 0.0000
# 5 0.0000 0.0000 0.0000 0.0000 29.8891 0.0000
# 6 0.0000 0.0000 0.0000 0.0000 0.0000 20.5891
#
#
#
# Elastic Compliance Matrix: (Units=1/GPa)
#
#
# Indices 1 2 3 4 5 6 
#
# 1 0.054630 -0.014669 -0.003599 0.000000 0.000000 0.000000
# 2 -0.014669 0.012678 -0.003035 0.000000 0.000000 0.000000
# 3 -0.003599 -0.003035 0.008452 0.000000 0.000000 0.000000
# 4 0.000000 0.000000 0.000000 0.024197 0.000000 0.000000
# 5 0.000000 0.000000 0.000000 0.000000 0.033457 0.000000
# 6 0.000000 0.000000 0.000000 0.000000 0.000000 0.048569
#
#
# Mechanical properties :
#
#
# Convention : Reuss Voigt Hill
#
# Bulk Modulus (GPa) = 30.16441 69.70733 49.93587
# Shear Modulus (GPa) = 21.21880 31.06130 26.14005
#
# Velocity S-wave (km/s) = 3.22359 3.90022 3.57794
# Velocity P-wave (km/s) = 5.35050 7.37701 6.44392
#
# Compressibility (1/GPa) = 0.03315165
#
# Stress axis : x y z
#
# Youngs Moduli (GPa) = 18.30511 78.87906 118.31888
#
# Poissons Ratio (x) = 1.15708 0.42588
# Poissons Ratio (y) = 0.26852 0.35913
# Poissons Ratio (z) = 0.06589 0.23942
#
# Static dielectric constant tensor:
#      x y z
#    x 3.764070 0.000000 0.000000 
#    y 0.000000 3.698840 0.000000 
#    z 0.000000 0.000000 3.993550 
# 
# 
# High freq. dielectric constant tensor:
#      x y z
#    x 1.797240 0.000000 0.000000 
#    y 0.000000 1.800410 0.000000 
#    z 0.000000 0.000000 1.817370 
# 
# From -- ./inp_files/23497.got.cif
#   From: 2010.03.12/outbox.cif.g09.slc.cpg/sg64_12_cif.got.tgz:23497.got - 2010.04.10 20:19:32.
