data_PCOD8264395
_publ_section_title
;
Structure prediction by ZEFSAII (Michael W. Deem and Ramdas Pophale) SiO2 
 PCOD8264395
Probable space group: C M C A
;
_chemical_formula_sum "Si O2"
_cell_formula_units_Z 96
_cell_length_a 20.568128
_cell_length_b 23.861409
_cell_length_c 9.252660
_cell_angle_alpha 90.000000
_cell_angle_beta 90.000000
_cell_angle_gamma 90.000000
_cell_volume 4541.062247
_symmetry_space_group_name_H-M "C M C A"
_symmetry_group_IT_number 64
_symmetry_cell_setting 'orthorhombic'
loop_
_space_group_symop_operation_xyz
x,y,z
-x,1/2-y,1/2+z
x,-y,-z
-x,1/2+y,1/2-z
-x,-y,-z
x,1/2+y,1/2-z
-x,y,z
x,1/2-y,1/2+z
1/2+x,1/2+y,z
1/2-x,-y,1/2+z
1/2+x,1/2-y,-z
1/2-x,y,1/2-z
1/2-x,1/2-y,-z
1/2+x,y,1/2-z
1/2-x,1/2+y,z
1/2+x,-y,1/2+z
loop_
_atom_site_type_symbol
_atom_site_label
_atom_site_fract_x
_atom_site_fract_y
_atom_site_fract_z
Si Si1 0.176134 0.556983 0.078009
Si Si2 0.571815 0.867078 0.070418
Si Si3 0.183067 0.907609 0.891847
Si Si4 0.572686 0.130577 0.596042
Si Si5 0.686698 0.219598 0.320517
Si Si6 0.606289 0.244994 0.058723
O O1 0.168023 0.553074 0.252448
O O2 0.250633 0.570746 0.032480
O O3 0.154742 0.500000 0.000000
O O4 0.126667 0.604376 0.025488
O O5 0.500000 0.894646 0.051606
O O6 0.593896 0.870889 0.236963
O O7 0.563839 0.803112 0.016425
O O8 0.197999 0.846128 0.834657
O O9 0.123157 0.907619 0.004806
O O10 0.500000 0.106141 0.573523
O O11 0.570910 0.195098 0.543884
O O12 0.750000 0.247833 0.250000
O O13 0.622480 0.230046 0.223498
O O14 0.674976 0.249915 0.473077
#
# Coordination Sequence:
#
# PCOD8264395 Si02
#       6
#    16  16  16  16  16  16
#     4  11  24  44  69  92 119 158 216 274 325 380
#     4  11  23  41  61  90 128 165 214 261 310 377
#     4  10  22  43  65  92 127 160 205 263 323 376
#     4  10  23  40  61  95 133 171 209 247 308 386
#     4  11  19  34  57  89 131 164 203 247 305 378
#     4  11  20  36  56  90 129 171 205 248 301 374
#
# _framework density 21.140428
#
# number of rings (size 3 to 8) (size 9 to 14) (size 15 to 20)
#    0.000    1.333    5.000    1.000    0.000    5.667 
#    0.000    0.000    0.000    2.500    0.000    0.000 
#    0.000    0.000    0.000    0.000    0.000    0.000 
#
# Total GULP energy -595062.559569 kJ/mol
# GULP energy per Si atom -12397.136658 kJ/mol
# Density = 2.109231 g / cm^3
# Si number density = 21.140428 Si / 1000 Ang^3
#
#
#
# Elastic Constant Matrix: (Units=GPa)
#
#
# Indices 1 2 3 4 5 6 
#
# 1 110.9616 10.1843 45.4464 0.0000 0.0000 0.0000
# 2 10.1843 55.9985 17.2494 0.0000 0.0000 0.0000
# 3 45.4464 17.2494 96.2519 0.0000 0.0000 0.0000
# 4 0.0000 0.0000 0.0000 25.5226 0.0000 0.0000
# 5 0.0000 0.0000 0.0000 0.0000 28.5819 0.0000
# 6 0.0000 0.0000 0.0000 0.0000 0.0000 14.6961
#
#
#
# Elastic Compliance Matrix: (Units=1/GPa)
#
#
# Indices 1 2 3 4 5 6 
#
# 1 0.011183 -0.000431 -0.005203 0.000000 0.000000 0.000000
# 2 -0.000431 0.018918 -0.003187 0.000000 0.000000 0.000000
# 3 -0.005203 -0.003187 0.013417 0.000000 0.000000 0.000000
# 4 0.000000 0.000000 0.000000 0.039181 0.000000 0.000000
# 5 0.000000 0.000000 0.000000 0.000000 0.034987 0.000000
# 6 0.000000 0.000000 0.000000 0.000000 0.000000 0.068045
#
#
# Mechanical properties :
#
#
# Convention : Reuss Voigt Hill
#
# Bulk Modulus (GPa) = 38.64563 45.44137 42.04350
# Shear Modulus (GPa) = 23.58521 26.44890 25.01705
#
# Velocity S-wave (km/s) = 3.34375 3.54093 3.44375
# Velocity P-wave (km/s) = 5.76435 6.18541 5.97859
#
# Compressibility (1/GPa) = 0.02587615
#
# Stress axis : x y z
#
# Youngs Moduli (GPa) = 89.42495 52.86074 74.53221
#
# Poissons Ratio (x) = 0.02279 0.38777
# Poissons Ratio (y) = 0.03855 0.23751
# Poissons Ratio (z) = 0.46525 0.16845
#
# Static dielectric constant tensor:
#      x y z
#    x 3.719950 0.000000 0.000000 
#    y 0.000000 3.465200 0.000000 
#    z 0.000000 0.000000 3.878740 
# 
# 
# High freq. dielectric constant tensor:
#      x y z
#    x 1.830790 0.000000 0.000000 
#    y 0.000000 1.796070 0.000000 
#    z 0.000000 0.000000 1.838230 
# 
# From -- ./inp_files/8413.got.cif
#   From: 2010.03.12/outbox.cif.g09.slc.cpg/sg64_5_cif.got.tgz:8413.got - 2010.04.10 20:19:32.
