data_PCOD8264247
_publ_section_title
;
Structure prediction by ZEFSAII (Michael W. Deem and Ramdas Pophale) SiO2 
 PCOD8264247
Probable space group: C M C A
;
_chemical_formula_sum "Si O2"
_cell_formula_units_Z 112
_cell_length_a 15.700417
_cell_length_b 16.742352
_cell_length_c 20.877065
_cell_angle_alpha 90.000000
_cell_angle_beta 90.000000
_cell_angle_gamma 90.000000
_cell_volume 5487.785139
_symmetry_space_group_name_H-M "C M C A"
_symmetry_group_IT_number 64
_symmetry_cell_setting 'orthorhombic'
loop_
_space_group_symop_operation_xyz
x,y,z
-x,1/2-y,1/2+z
x,-y,-z
-x,1/2+y,1/2-z
-x,-y,-z
x,1/2+y,1/2-z
-x,y,z
x,1/2-y,1/2+z
1/2+x,1/2+y,z
1/2-x,-y,1/2+z
1/2+x,1/2-y,-z
1/2-x,y,1/2-z
1/2-x,1/2-y,-z
1/2+x,y,1/2-z
1/2-x,1/2+y,z
1/2+x,-y,1/2+z
loop_
_atom_site_type_symbol
_atom_site_label
_atom_site_fract_x
_atom_site_fract_y
_atom_site_fract_z
Si Si1 0.593702 0.185616 0.112821
Si Si2 0.594413 0.038745 0.203638
Si Si3 0.672387 0.039144 0.436392
Si Si4 0.201683 0.334846 0.999067
Si Si5 0.256889 0.248206 0.820928
Si Si6 0.597209 0.131576 0.329675
Si Si7 0.210106 0.916302 0.368238
O O1 0.500000 0.226262 0.121459
O O2 0.593508 0.100574 0.146034
O O3 0.611793 0.175104 0.037297
O O4 0.670145 0.237618 0.140620
O O5 0.500000 0.008338 0.220498
O O6 0.631670 0.080513 0.268316
O O7 0.644295 0.963558 0.176056
O O8 0.743100 0.102605 0.458041
O O9 0.598205 0.077984 0.393846
O O10 0.631148 0.000000 0.500000
O O11 0.713812 0.973034 0.390141
O O12 0.250000 0.250000 0.000000
O O13 0.176051 0.370004 0.068260
O O14 0.250000 0.281527 0.750000
O O15 0.340893 0.294018 0.846861
O O16 0.262862 0.153180 0.820181
O O17 0.500000 0.160933 0.316879
#
# Coordination Sequence:
#
# PCOD8264247 Si02
#       7
#    16  16  16  16  16  16  16
#     4  11  22  41  67  96 130 173 217 267 327 391
#     4  10  22  39  62  95 131 166 214 271 326 386
#     4  10  22  39  63  94 128 165 209 263 321 382
#     4  11  20  40  65  94 128 172 218 263 319 389
#     4  12  24  40  67  95 126 173 215 268 331 384
#     4  11  23  42  66  91 128 173 218 264 319 389
#     4  11  23  38  65  93 130 167 215 266 326 387
#
# _framework density 20.408963
#
# number of rings (size 3 to 8) (size 9 to 14) (size 15 to 20)
#    0.000    1.143    5.714    0.000    2.000    1.429 
#    0.000    4.286    0.000    0.000    0.000    0.000 
#    0.000    0.000    0.000    0.000    0.000    0.000 
#
# Total GULP energy -693867.313001 kJ/mol
# GULP energy per Si atom -12390.487732 kJ/mol
# Density = 2.036251 g / cm^3
# Si number density = 20.408963 Si / 1000 Ang^3
#
#
#
# Elastic Constant Matrix: (Units=GPa)
#
#
# Indices 1 2 3 4 5 6 
#
# 1 102.3936 45.8680 32.4270 0.0000 0.0000 0.0000
# 2 45.8680 112.3416 21.6718 0.0000 0.0000 0.0000
# 3 32.4270 21.6718 80.1257 0.0000 0.0000 0.0000
# 4 0.0000 0.0000 0.0000 39.2814 0.0000 0.0000
# 5 0.0000 0.0000 0.0000 0.0000 26.4476 0.0000
# 6 0.0000 0.0000 0.0000 0.0000 0.0000 13.5750
#
#
#
# Elastic Compliance Matrix: (Units=1/GPa)
#
#
# Indices 1 2 3 4 5 6 
#
# 1 0.013098 -0.004563 -0.004067 0.000000 0.000000 0.000000
# 2 -0.004563 0.010981 -0.001123 0.000000 0.000000 0.000000
# 3 -0.004067 -0.001123 0.014430 0.000000 0.000000 0.000000
# 4 0.000000 0.000000 0.000000 0.025457 0.000000 0.000000
# 5 0.000000 0.000000 0.000000 0.000000 0.037811 0.000000
# 6 0.000000 0.000000 0.000000 0.000000 0.000000 0.073665
#
#
# Mechanical properties :
#
#
# Convention : Reuss Voigt Hill
#
# Bulk Modulus (GPa) = 52.62361 54.97717 53.80039
# Shear Modulus (GPa) = 24.84058 28.85375 26.84717
#
# Velocity S-wave (km/s) = 3.49254 3.76410 3.63086
# Velocity P-wave (km/s) = 6.48878 6.77403 6.63294
#
# Compressibility (1/GPa) = 0.01900288
#
# Stress axis : x y z
#
# Youngs Moduli (GPa) = 76.34573 91.06372 69.30014
#
# Poissons Ratio (x) = 0.41556 0.28182
# Poissons Ratio (y) = 0.34840 0.07785
# Poissons Ratio (z) = 0.31047 0.10229
#
# Static dielectric constant tensor:
#      x y z
#    x -10.457440 0.000000 0.000000 
#    y 0.000000 3.711420 0.000000 
#    z 0.000000 0.000000 3.765850 
# 
# 
# High freq. dielectric constant tensor:
#      x y z
#    x 1.772930 0.000000 0.000000 
#    y 0.000000 1.795770 0.000000 
#    z 0.000000 0.000000 1.818970 
# 
# From -- ./inp_files/45247.got.cif
#   From: 2010.03.12/outbox.cif.g09.slc.cpg/sg64_23_cif.got.tgz:45247.got - 2010.04.10 20:19:32.
