data_PCOD8264327
_publ_section_title
;
Structure prediction by ZEFSAII (Michael W. Deem and Ramdas Pophale) SiO2 
 PCOD8264327
Probable space group: C M C A
;
_chemical_formula_sum "Si O2"
_cell_formula_units_Z 96
_cell_length_a 14.141960
_cell_length_b 13.613254
_cell_length_c 22.836026
_cell_angle_alpha 90.000000
_cell_angle_beta 90.000000
_cell_angle_gamma 90.000000
_cell_volume 4396.348190
_symmetry_space_group_name_H-M "C M C A"
_symmetry_group_IT_number 64
_symmetry_cell_setting 'orthorhombic'
loop_
_space_group_symop_operation_xyz
x,y,z
-x,1/2-y,1/2+z
x,-y,-z
-x,1/2+y,1/2-z
-x,-y,-z
x,1/2+y,1/2-z
-x,y,z
x,1/2-y,1/2+z
1/2+x,1/2+y,z
1/2-x,-y,1/2+z
1/2+x,1/2-y,-z
1/2-x,y,1/2-z
1/2-x,1/2-y,-z
1/2+x,y,1/2-z
1/2-x,1/2+y,z
1/2+x,-y,1/2+z
loop_
_atom_site_type_symbol
_atom_site_label
_atom_site_fract_x
_atom_site_fract_y
_atom_site_fract_z
Si Si1 0.649002 0.793176 0.728784
Si Si2 0.608867 0.116747 0.850377
Si Si3 0.792966 0.395254 0.027987
Si Si4 0.602174 0.308630 0.163104
Si Si5 0.888373 0.221190 0.963889
Si Si6 0.111696 0.986983 0.232841
O O1 0.750000 0.755738 0.750000
O O2 0.616258 0.729265 0.673263
O O3 0.585855 0.773357 0.786398
O O4 0.650301 0.907800 0.712637
O O5 0.500000 0.098856 0.869775
O O6 0.681057 0.100756 0.903425
O O7 0.639554 0.040216 0.799429
O O8 0.683247 0.365233 0.015212
O O9 0.811249 0.500000 0.000000
O O10 0.866187 0.320329 0.998199
O O11 0.500000 0.346752 0.142967
O O12 0.644959 0.262348 0.103997
O O13 0.656661 0.404388 0.189332
O O14 0.000000 0.194777 0.973306
O O15 0.000000 0.984333 0.227360
#
# Coordination Sequence:
#
# PCOD8264327 Si02
#       6
#    16  16  16  16  16  16
#     4  11  21  33  57  90 127 164 202 260 321 377
#     4  10  22  41  63  90 129 167 211 269 320 379
#     4  11  25  44  68  99 129 167 224 274 320 387
#     4   9  19  38  60  84 118 160 209 256 309 383
#     4  10  23  45  68  93 131 173 214 269 329 386
#     4   9  19  36  59  90 121 162 209 252 315 384
#
# _framework density 21.836303999999998
#
# number of rings (size 3 to 8) (size 9 to 14) (size 15 to 20)
#    0.000    2.000    0.000    4.000    2.333    5.667 
#    6.000    0.000    0.000    0.000    0.000    0.000 
#    0.000    0.000    0.000    0.000    0.000    0.000 
#
# Total GULP energy -594692.043943 kJ/mol
# GULP energy per Si atom -12389.417582 kJ/mol
# Density = 2.178660 g / cm^3
# Si number density = 21.836304 Si / 1000 Ang^3
#
#
#
# Elastic Constant Matrix: (Units=GPa)
#
#
# Indices 1 2 3 4 5 6 
#
# 1 87.2056 1.3461 14.7561 0.0000 0.0000 0.0000
# 2 1.3461 100.5000 33.5692 0.0000 0.0000 0.0000
# 3 14.7561 33.5692 109.3693 0.0000 0.0000 0.0000
# 4 0.0000 0.0000 0.0000 21.3893 0.0000 0.0000
# 5 0.0000 0.0000 0.0000 0.0000 21.3736 0.0000
# 6 0.0000 0.0000 0.0000 0.0000 0.0000 18.7147
#
#
#
# Elastic Compliance Matrix: (Units=1/GPa)
#
#
# Indices 1 2 3 4 5 6 
#
# 1 0.011751 0.000415 -0.001713 0.000000 0.000000 0.000000
# 2 0.000415 0.011102 -0.003463 0.000000 0.000000 0.000000
# 3 -0.001713 -0.003463 0.010437 0.000000 0.000000 0.000000
# 4 0.000000 0.000000 0.000000 0.046752 0.000000 0.000000
# 5 0.000000 0.000000 0.000000 0.000000 0.046787 0.000000
# 6 0.000000 0.000000 0.000000 0.000000 0.000000 0.053434
#
#
# Mechanical properties :
#
#
# Convention : Reuss Voigt Hill
#
# Bulk Modulus (GPa) = 42.07550 44.04639 43.06095
# Shear Modulus (GPa) = 25.28987 28.78908 27.03948
#
# Velocity S-wave (km/s) = 3.40686 3.63492 3.52274
# Velocity P-wave (km/s) = 5.89797 6.15076 6.02569
#
# Compressibility (1/GPa) = 0.02376680
#
# Stress axis : x y z
#
# Youngs Moduli (GPa) = 85.10236 90.07753 95.80892
#
# Poissons Ratio (x) = -0.03735 0.16409
# Poissons Ratio (y) = -0.03529 0.33182
# Poissons Ratio (z) = 0.14575 0.31197
#
# Static dielectric constant tensor:
#      x y z
#    x 3.642990 0.000000 0.000000 
#    y 0.000000 3.926890 0.000000 
#    z 0.000000 0.000000 4.007730 
# 
# 
# High freq. dielectric constant tensor:
#      x y z
#    x 1.872490 0.000000 0.000000 
#    y 0.000000 1.842500 0.000000 
#    z 0.000000 0.000000 1.849780 
# 
# From -- ./inp_files/39206.got.cif
#   From: 2010.03.12/outbox.cif.g09.slc.cpg/sg64_20_cif.got.tgz:39206.got - 2010.04.10 20:19:32.
