data_PCOD8264689
_publ_section_title
;
Structure prediction by ZEFSAII (Michael W. Deem and Ramdas Pophale) SiO2 
 PCOD8264689
Probable space group: C M C A
;
_chemical_formula_sum "Si O2"
_cell_formula_units_Z 80
_cell_length_a 9.077103
_cell_length_b 27.553296
_cell_length_c 18.231480
_cell_angle_alpha 90.000000
_cell_angle_beta 90.000000
_cell_angle_gamma 90.000000
_cell_volume 4559.768002
_symmetry_space_group_name_H-M "C M C A"
_symmetry_group_IT_number 64
_symmetry_cell_setting 'orthorhombic'
loop_
_space_group_symop_operation_xyz
x,y,z
-x,1/2-y,1/2+z
x,-y,-z
-x,1/2+y,1/2-z
-x,-y,-z
x,1/2+y,1/2-z
-x,y,z
x,1/2-y,1/2+z
1/2+x,1/2+y,z
1/2-x,-y,1/2+z
1/2+x,1/2-y,-z
1/2-x,y,1/2-z
1/2-x,1/2-y,-z
1/2+x,y,1/2-z
1/2-x,1/2+y,z
1/2+x,-y,1/2+z
loop_
_atom_site_type_symbol
_atom_site_label
_atom_site_fract_x
_atom_site_fract_y
_atom_site_fract_z
Si Si1 0.332061 0.091592 0.677438
Si Si2 0.669635 0.196024 0.613645
Si Si3 0.823983 0.448625 0.473973
Si Si4 0.325462 0.349546 0.963919
Si Si5 0.175063 0.288881 0.674041
O O1 0.500000 0.077327 0.688963
O O2 0.250000 0.074687 0.750000
O O3 0.314313 0.148725 0.663883
O O4 0.267549 0.061791 0.608323
O O5 0.500000 0.214058 0.612918
O O6 0.728170 0.184288 0.531492
O O7 0.774076 0.235950 0.649202
O O8 0.757319 0.500000 0.500000
O O9 0.767043 0.404860 0.526732
O O10 0.000000 0.449618 0.475162
O O11 0.500000 0.350331 0.968875
O O12 0.271446 0.327788 0.886840
O O13 0.250000 0.304371 0.750000
O O14 0.000000 0.288640 0.683699
#
# Coordination Sequence:
#
# PCOD8264689 Si02
#       5
#    16  16  16  16  16
#     4   9  17  28  45  70  95 116 142 184 230 268
#     4   9  17  31  49  68  91 118 152 190 227 268
#     4   8  14  28  50  70  87 114 153 189 222 265
#     4   8  16  30  47  67  90 117 151 191 228 266
#     4  11  21  31  44  65  95 127 156 185 220 263
#
# _framework density 17.544753
#
# number of rings (size 3 to 8) (size 9 to 14) (size 15 to 20)
#    0.000    3.000    0.000    4.200    0.000    2.400 
#    0.000    2.000    0.000    3.000    0.000    0.000 
#    0.000    0.000    0.000    0.000    0.000    0.000 
#
# Total GULP energy -495812.471799 kJ/mol
# GULP energy per Si atom -12395.311795 kJ/mol
# Density = 1.750482 g / cm^3
# Si number density = 17.544753 Si / 1000 Ang^3
#
#
#
# Elastic Constant Matrix: (Units=GPa)
#
#
# Indices 1 2 3 4 5 6 
#
# 1 37.9019 22.0015 33.7792 0.0000 0.0000 0.0000
# 2 22.0015 95.8316 65.6487 0.0000 0.0000 0.0000
# 3 33.7792 65.6487 147.0982 0.0000 0.0000 0.0000
# 4 0.0000 0.0000 0.0000 19.9578 0.0000 0.0000
# 5 0.0000 0.0000 0.0000 0.0000 24.5710 0.0000
# 6 0.0000 0.0000 0.0000 0.0000 0.0000 13.2262
#
#
#
# Elastic Compliance Matrix: (Units=1/GPa)
#
#
# Indices 1 2 3 4 5 6 
#
# 1 0.033986 -0.003538 -0.006225 0.000000 0.000000 0.000000
# 2 -0.003538 0.015398 -0.006060 0.000000 0.000000 0.000000
# 3 -0.006225 -0.006060 0.010932 0.000000 0.000000 0.000000
# 4 0.000000 0.000000 0.000000 0.050106 0.000000 0.000000
# 5 0.000000 0.000000 0.000000 0.000000 0.040698 0.000000
# 6 0.000000 0.000000 0.000000 0.000000 0.000000 0.075608
#
#
# Mechanical properties :
#
#
# Convention : Reuss Voigt Hill
#
# Bulk Modulus (GPa) = 34.87943 58.18784 46.53364
# Shear Modulus (GPa) = 18.66150 22.17782 20.41966
#
# Velocity S-wave (km/s) = 3.26491 3.55924 3.41524
# Velocity P-wave (km/s) = 5.84262 7.08013 6.49094
#
# Compressibility (1/GPa) = 0.02867019
#
# Stress axis : x y z
#
# Youngs Moduli (GPa) = 29.42396 64.94173 91.47305
#
# Poissons Ratio (x) = 0.22976 0.56946
# Poissons Ratio (y) = 0.10410 0.55430
# Poissons Ratio (z) = 0.18318 0.39353
#
# Static dielectric constant tensor:
#      x y z
#    x 2.875920 0.000000 0.000000 
#    y 0.000000 3.408610 0.000000 
#    z 0.000000 0.000000 3.494630 
# 
# 
# High freq. dielectric constant tensor:
#      x y z
#    x 1.638530 0.000000 0.000000 
#    y 0.000000 1.666040 0.000000 
#    z 0.000000 0.000000 1.686920 
# 
# From -- ./inp_files/29742.got.cif
#   From: 2010.03.12/outbox.cif.g09.slc.cpg/sg64_15_cif.got.tgz:29742.got - 2010.04.10 20:19:32.
