data_PCOD8264012
_publ_section_title
;
Structure prediction by ZEFSAII (Michael W. Deem and Ramdas Pophale) SiO2 
 PCOD8264012
Probable space group: C M C A
;
_chemical_formula_sum "Si O2"
_cell_formula_units_Z 96
_cell_length_a 8.755776
_cell_length_b 24.223521
_cell_length_c 21.664203
_cell_angle_alpha 90.000000
_cell_angle_beta 90.000000
_cell_angle_gamma 90.000000
_cell_volume 4594.884816
_symmetry_space_group_name_H-M "C M C A"
_symmetry_group_IT_number 64
_symmetry_cell_setting 'orthorhombic'
loop_
_space_group_symop_operation_xyz
x,y,z
-x,1/2-y,1/2+z
x,-y,-z
-x,1/2+y,1/2-z
-x,-y,-z
x,1/2+y,1/2-z
-x,y,z
x,1/2-y,1/2+z
1/2+x,1/2+y,z
1/2-x,-y,1/2+z
1/2+x,1/2-y,-z
1/2-x,y,1/2-z
1/2-x,1/2-y,-z
1/2+x,y,1/2-z
1/2-x,1/2+y,z
1/2+x,-y,1/2+z
loop_
_atom_site_type_symbol
_atom_site_label
_atom_site_fract_x
_atom_site_fract_y
_atom_site_fract_z
Si Si1 0.679452 0.453674 0.311324
Si Si2 0.321943 0.924997 0.844809
Si Si3 0.325606 0.745529 0.567464
Si Si4 0.675560 0.880181 0.076672
Si Si5 0.680231 0.687811 0.186426
Si Si6 0.324466 0.940504 0.528270
O O1 0.500000 0.449448 0.308119
O O2 0.750000 0.427509 0.250000
O O3 0.733770 0.517035 0.316481
O O4 0.740164 0.416997 0.367544
O O5 0.500000 0.913257 0.833024
O O6 0.222899 0.876712 0.814452
O O7 0.291666 0.929002 0.917106
O O8 0.500000 0.762842 0.557235
O O9 0.250000 0.750000 0.500000
O O10 0.309963 0.683801 0.593452
O O11 0.255546 0.783697 0.622874
O O12 0.500000 0.895856 0.060830
O O13 0.787415 0.892604 0.020140
O O14 0.500000 0.696009 0.189616
O O15 0.750000 0.713556 0.250000
O O16 0.500000 0.935616 0.550011
O O17 0.287899 0.000000 0.500000
#
# Coordination Sequence:
#
# PCOD8264012 Si02
#       6
#    16  16  16  16  16  16
#     4  10  22  37  56  82 114 150 192 236 288 349
#     4  11  22  38  61  88 119 161 202 246 301 363
#     4  10  23  42  65  90 121 158 205 259 310 366
#     4  10  21  40  61  84 115 155 197 241 295 361
#     4  11  24  42  63  92 126 164 212 263 314 374
#     4  11  22  35  56  89 124 156 192 243 300 360
#
# _framework density 20.892799
#
# number of rings (size 3 to 8) (size 9 to 14) (size 15 to 20)
#    0.000    1.500    1.667    3.000    0.000    9.333 
#    0.000    0.000    0.000    0.000    0.000    0.000 
#    0.000    0.000    0.000    0.000    0.000    0.000 
#
# Total GULP energy -595200.482950 kJ/mol
# GULP energy per Si atom -12400.010061 kJ/mol
# Density = 2.084525 g / cm^3
# Si number density = 20.892799 Si / 1000 Ang^3
#
#
#
# Elastic Constant Matrix: (Units=GPa)
#
#
# Indices 1 2 3 4 5 6 
#
# 1 43.4971 24.1004 33.6851 0.0000 0.0000 0.0000
# 2 24.1004 72.6595 28.0587 0.0000 0.0000 0.0000
# 3 33.6851 28.0587 146.2500 0.0000 0.0000 0.0000
# 4 0.0000 0.0000 0.0000 16.1155 0.0000 0.0000
# 5 0.0000 0.0000 0.0000 0.0000 39.2280 0.0000
# 6 0.0000 0.0000 0.0000 0.0000 0.0000 38.0370
#
#
#
# Elastic Compliance Matrix: (Units=1/GPa)
#
#
# Indices 1 2 3 4 5 6 
#
# 1 0.032139 -0.008426 -0.005786 0.000000 0.000000 0.000000
# 2 -0.008426 0.017073 -0.001335 0.000000 0.000000 0.000000
# 3 -0.005786 -0.001335 0.008426 0.000000 0.000000 0.000000
# 4 0.000000 0.000000 0.000000 0.062052 0.000000 0.000000
# 5 0.000000 0.000000 0.000000 0.000000 0.025492 0.000000
# 6 0.000000 0.000000 0.000000 0.000000 0.000000 0.026290
#
#
# Mechanical properties :
#
#
# Convention : Reuss Voigt Hill
#
# Bulk Modulus (GPa) = 37.67143 48.23280 42.95212
# Shear Modulus (GPa) = 23.65013 30.44691 27.04852
#
# Velocity S-wave (km/s) = 3.36813 3.82159 3.60201
# Velocity P-wave (km/s) = 5.76157 6.52753 6.15648
#
# Compressibility (1/GPa) = 0.02654532
#
# Stress axis : x y z
#
# Youngs Moduli (GPa) = 31.11443 58.57168 118.67521
#
# Poissons Ratio (x) = 0.49352 0.68665
# Poissons Ratio (y) = 0.26217 0.15841
# Poissons Ratio (z) = 0.18003 0.07818
#
# Static dielectric constant tensor:
#      x y z
#    x 3.602460 0.000000 0.000000 
#    y 0.000000 3.918650 0.000000 
#    z 0.000000 0.000000 4.047890 
# 
# 
# High freq. dielectric constant tensor:
#      x y z
#    x 1.806360 0.000000 0.000000 
#    y 0.000000 1.817460 0.000000 
#    z 0.000000 0.000000 1.832220 
# 
# From -- ./inp_files/37010.got.cif
#   From: 2010.03.12/outbox.cif.g09.slc.cpg/sg64_19_cif.got.tgz:37010.got - 2010.04.10 20:19:32.
