data_PCOD8264708
_publ_section_title
;
Structure prediction by ZEFSAII (Michael W. Deem and Ramdas Pophale) SiO2 
 PCOD8264708
Probable space group: C M C A
;
_chemical_formula_sum "Si O2"
_cell_formula_units_Z 80
_cell_length_a 8.665333
_cell_length_b 15.569319
_cell_length_c 29.132007
_cell_angle_alpha 90.000000
_cell_angle_beta 90.000000
_cell_angle_gamma 90.000000
_cell_volume 3930.296182
_symmetry_space_group_name_H-M "C M C A"
_symmetry_group_IT_number 64
_symmetry_cell_setting 'orthorhombic'
loop_
_space_group_symop_operation_xyz
x,y,z
-x,1/2-y,1/2+z
x,-y,-z
-x,1/2+y,1/2-z
-x,-y,-z
x,1/2+y,1/2-z
-x,y,z
x,1/2-y,1/2+z
1/2+x,1/2+y,z
1/2-x,-y,1/2+z
1/2+x,1/2-y,-z
1/2-x,y,1/2-z
1/2-x,1/2-y,-z
1/2+x,y,1/2-z
1/2-x,1/2+y,z
1/2+x,-y,1/2+z
loop_
_atom_site_type_symbol
_atom_site_label
_atom_site_fract_x
_atom_site_fract_y
_atom_site_fract_z
Si Si1 0.679833 0.226236 0.859127
Si Si2 0.676309 0.026741 0.048046
Si Si3 0.681860 0.534535 0.642963
Si Si4 0.181464 0.124453 0.299708
Si Si5 0.323195 0.772592 0.951741
O O1 0.500000 0.247996 0.853867
O O2 0.717760 0.130761 0.839601
O O3 0.778890 0.294544 0.831311
O O4 0.725828 0.225237 0.912499
O O5 0.500000 0.995398 0.044433
O O6 0.689256 0.126957 0.057221
O O7 0.754669 0.980370 0.092037
O O8 0.759781 0.000000 0.000000
O O9 0.500000 0.518337 0.638697
O O10 0.749368 0.463897 0.678461
O O11 0.250000 0.139365 0.250000
O O12 0.000000 0.118794 0.294909
O O13 0.500000 0.741481 0.950297
O O14 0.250000 0.750000 0.000000
#
# Coordination Sequence:
#
# PCOD8264708 Si02
#       5
#    16  16  16  16  16
#     4  11  22  39  64  93 124 160 203 253 310 369
#     4   9  16  30  55  83 113 156 202 242 291 355
#     4   9  19  37  61  88 120 160 203 247 300 367
#     4  11  23  43  66  90 122 160 205 254 307 363
#     4  11  21  35  57  86 124 166 208 253 305 363
#
# _framework density 20.354700000000001
#
# number of rings (size 3 to 8) (size 9 to 14) (size 15 to 20)
#    0.000    1.800    2.000    3.000    0.000    4.000 
#    0.000    6.000    0.000    2.400    0.000    0.000 
#    0.000    0.000    0.000    0.000    0.000    0.000 
#
# Total GULP energy -495957.948803 kJ/mol
# GULP energy per Si atom -12398.948720 kJ/mol
# Density = 2.030837 g / cm^3
# Si number density = 20.354700 Si / 1000 Ang^3
#
#
#
# Elastic Constant Matrix: (Units=GPa)
#
#
# Indices 1 2 3 4 5 6 
#
# 1 46.5642 23.0532 15.3306 0.0000 0.0000 0.0000
# 2 23.0532 107.5784 42.8719 0.0000 0.0000 0.0000
# 3 15.3306 42.8719 123.5245 0.0000 0.0000 0.0000
# 4 0.0000 0.0000 0.0000 27.2926 0.0000 0.0000
# 5 0.0000 0.0000 0.0000 0.0000 27.9116 0.0000
# 6 0.0000 0.0000 0.0000 0.0000 0.0000 23.4022
#
#
#
# Elastic Compliance Matrix: (Units=1/GPa)
#
#
# Indices 1 2 3 4 5 6 
#
# 1 0.024231 -0.004635 -0.001399 0.000000 0.000000 0.000000
# 2 -0.004635 0.011674 -0.003477 0.000000 0.000000 0.000000
# 3 -0.001399 -0.003477 0.009476 0.000000 0.000000 0.000000
# 4 0.000000 0.000000 0.000000 0.036640 0.000000 0.000000
# 5 0.000000 0.000000 0.000000 0.000000 0.035827 0.000000
# 6 0.000000 0.000000 0.000000 0.000000 0.000000 0.042731
#
#
# Mechanical properties :
#
#
# Convention : Reuss Voigt Hill
#
# Bulk Modulus (GPa) = 37.93562 48.90874 43.42218
# Shear Modulus (GPa) = 26.54115 28.81538 27.67826
#
# Velocity S-wave (km/s) = 3.61492 3.76661 3.69154
# Velocity P-wave (km/s) = 6.00843 6.55720 6.28880
#
# Compressibility (1/GPa) = 0.02636045
#
# Stress axis : x y z
#
# Youngs Moduli (GPa) = 41.26953 85.65829 105.53255
#
# Poissons Ratio (x) = 0.39704 0.14759
# Poissons Ratio (y) = 0.19129 0.36689
# Poissons Ratio (z) = 0.05772 0.29780
#
# Static dielectric constant tensor:
#      x y z
#    x 3.434080 0.000000 0.000000 
#    y 0.000000 3.656150 0.000000 
#    z 0.000000 0.000000 3.728600 
# 
# 
# High freq. dielectric constant tensor:
#      x y z
#    x 1.759140 0.000000 0.000000 
#    y 0.000000 1.807530 0.000000 
#    z 0.000000 0.000000 1.802890 
# 
# From -- ./inp_files/51767.got.cif
#   From: 2010.03.12/outbox.cif.g09.slc.cpg/sg64_26_cif.got.tgz:51767.got - 2010.04.10 20:19:32.
