data_PCOD8264672
_publ_section_title
;
Structure prediction by ZEFSAII (Michael W. Deem and Ramdas Pophale) SiO2 
 PCOD8264672
Probable space group: C M C A
;
_chemical_formula_sum "Si O2"
_cell_formula_units_Z 128
_cell_length_a 18.045526
_cell_length_b 22.256753
_cell_length_c 17.068055
_cell_angle_alpha 90.000000
_cell_angle_beta 90.000000
_cell_angle_gamma 90.000000
_cell_volume 6855.125111
_symmetry_space_group_name_H-M "C M C A"
_symmetry_group_IT_number 64
_symmetry_cell_setting 'orthorhombic'
loop_
_space_group_symop_operation_xyz
x,y,z
-x,1/2-y,1/2+z
x,-y,-z
-x,1/2+y,1/2-z
-x,-y,-z
x,1/2+y,1/2-z
-x,y,z
x,1/2-y,1/2+z
1/2+x,1/2+y,z
1/2-x,-y,1/2+z
1/2+x,1/2-y,-z
1/2-x,y,1/2-z
1/2-x,1/2-y,-z
1/2+x,y,1/2-z
1/2-x,1/2+y,z
1/2+x,-y,1/2+z
loop_
_atom_site_type_symbol
_atom_site_label
_atom_site_fract_x
_atom_site_fract_y
_atom_site_fract_z
Si Si1 0.298738 0.766305 0.926548
Si Si2 0.682058 0.134874 0.592189
Si Si3 0.082976 0.649338 0.006007
Si Si4 0.087768 0.428977 0.291291
Si Si5 0.666170 0.049374 0.275586
Si Si6 0.339113 0.413194 0.371331
Si Si7 0.713678 0.621798 0.086206
Si Si8 0.856785 0.448502 0.894803
O O1 0.311131 0.704500 0.879679
O O2 0.377085 0.795882 0.949933
O O3 0.251097 0.816869 0.880806
O O4 0.250000 0.750000 0.000000
O O5 0.607484 0.110708 0.632647
O O6 0.750703 0.095942 0.625383
O O7 0.672883 0.130288 0.497462
O O8 0.081843 0.586965 0.055367
O O9 0.000000 0.670045 0.989021
O O10 0.124524 0.638056 0.924442
O O11 0.118482 0.494983 0.309319
O O12 0.129788 0.402867 0.215438
O O13 0.000000 0.429505 0.277485
O O14 0.750000 0.029425 0.250000
O O15 0.661024 0.099813 0.343279
O O16 0.629904 0.072694 0.195043
O O17 0.362188 0.479466 0.402649
O O18 0.776896 0.571801 0.071786
#
# Coordination Sequence:
#
# PCOD8264672 Si02
#       8
#    16  16  16  16  16  16  16  16
#     4   9  18  37  57  80 108 141 186 234 271 325
#     4  11  20  36  62  80 111 146 198 235 274 324
#     4  11  21  33  57  87 115 145 179 228 290 339
#     4  11  24  37  51  81 119 152 182 228 285 336
#     4   9  18  35  57  81 112 150 186 225 276 328
#     4  11  20  36  58  83 112 147 185 230 280 341
#     4   9  17  33  58  84 104 139 191 236 264 321
#     4   9  18  31  51  83 119 141 175 226 283 336
#
# _framework density 18.672162
#
# number of rings (size 3 to 8) (size 9 to 14) (size 15 to 20)
#    0.000    2.000    3.750    3.375    0.000    5.000 
#    0.000    7.500    0.000    0.750    0.000    0.000 
#    0.000    0.000    0.000    0.000    0.000    0.000 
#
# Total GULP energy -793177.904189 kJ/mol
# GULP energy per Si atom -12393.404753 kJ/mol
# Density = 1.862966 g / cm^3
# Si number density = 18.672162 Si / 1000 Ang^3
#
#
#
# Elastic Constant Matrix: (Units=GPa)
#
#
# Indices 1 2 3 4 5 6 
#
# 1 63.9435 22.0974 16.8600 0.0000 0.0000 0.0000
# 2 22.0974 85.9998 37.8427 0.0000 0.0000 0.0000
# 3 16.8600 37.8427 79.2965 0.0000 0.0000 0.0000
# 4 0.0000 0.0000 0.0000 19.2193 0.0000 0.0000
# 5 0.0000 0.0000 0.0000 0.0000 17.0506 0.0000
# 6 0.0000 0.0000 0.0000 0.0000 0.0000 15.2316
#
#
#
# Elastic Compliance Matrix: (Units=1/GPa)
#
#
# Indices 1 2 3 4 5 6 
#
# 1 0.017406 -0.003600 -0.001983 0.000000 0.000000 0.000000
# 2 -0.003600 0.015463 -0.006614 0.000000 0.000000 0.000000
# 3 -0.001983 -0.006614 0.016189 0.000000 0.000000 0.000000
# 4 0.000000 0.000000 0.000000 0.052031 0.000000 0.000000
# 5 0.000000 0.000000 0.000000 0.000000 0.058649 0.000000
# 6 0.000000 0.000000 0.000000 0.000000 0.000000 0.065653
#
#
# Mechanical properties :
#
#
# Convention : Reuss Voigt Hill
#
# Bulk Modulus (GPa) = 40.54447 42.53779 41.54113
# Shear Modulus (GPa) = 19.37939 20.46294 19.92117
#
# Velocity S-wave (km/s) = 3.22510 3.31404 3.26987
# Velocity P-wave (km/s) = 5.96904 6.12166 6.04583
#
# Compressibility (1/GPa) = 0.02466427
#
# Stress axis : x y z
#
# Youngs Moduli (GPa) = 57.45260 64.66894 61.77039
#
# Poissons Ratio (x) = 0.23280 0.12248
# Poissons Ratio (y) = 0.20682 0.40856
# Poissons Ratio (z) = 0.11392 0.42773
#
# Static dielectric constant tensor:
#      x y z
#    x 3.180970 0.000000 0.000000 
#    y 0.000000 4.012600 0.000000 
#    z 0.000000 0.000000 3.574820 
# 
# 
# High freq. dielectric constant tensor:
#      x y z
#    x 1.694050 0.000000 0.000000 
#    y 0.000000 1.722070 0.000000 
#    z 0.000000 0.000000 1.721890 
# 
# From -- ./inp_files/34677.got.cif
#   From: 2010.03.12/outbox.cif.g09.slc.cpg/sg64_18_cif.got.tgz:34677.got - 2010.04.10 20:19:32.
