data_PCOD8264538
_publ_section_title
;
Structure prediction by ZEFSAII (Michael W. Deem and Ramdas Pophale) SiO2 
 PCOD8264538
Probable space group: C M C A
;
_chemical_formula_sum "Si O2"
_cell_formula_units_Z 112
_cell_length_a 14.945380
_cell_length_b 14.256879
_cell_length_c 24.744164
_cell_angle_alpha 90.000000
_cell_angle_beta 90.000000
_cell_angle_gamma 90.000000
_cell_volume 5272.349736
_symmetry_space_group_name_H-M "C M C A"
_symmetry_group_IT_number 64
_symmetry_cell_setting 'orthorhombic'
loop_
_space_group_symop_operation_xyz
x,y,z
-x,1/2-y,1/2+z
x,-y,-z
-x,1/2+y,1/2-z
-x,-y,-z
x,1/2+y,1/2-z
-x,y,z
x,1/2-y,1/2+z
1/2+x,1/2+y,z
1/2-x,-y,1/2+z
1/2+x,1/2-y,-z
1/2-x,y,1/2-z
1/2-x,1/2-y,-z
1/2+x,y,1/2-z
1/2-x,1/2+y,z
1/2+x,-y,1/2+z
loop_
_atom_site_type_symbol
_atom_site_label
_atom_site_fract_x
_atom_site_fract_y
_atom_site_fract_z
Si Si1 0.661912 0.899390 0.412771
Si Si2 0.259868 0.400850 0.688472
Si Si3 0.249959 0.817711 0.188680
Si Si4 0.604563 0.277478 0.990370
Si Si5 0.150286 0.576567 0.957857
Si Si6 0.599068 0.556117 0.654792
Si Si7 0.599205 0.411312 0.893260
O O1 0.678220 0.867871 0.350486
O O2 0.629107 0.815010 0.450344
O O3 0.751699 0.946530 0.435486
O O4 0.589085 0.982183 0.414832
O O5 0.250000 0.433828 0.750000
O O6 0.277951 0.290414 0.685233
O O7 0.341999 0.462546 0.665723
O O8 0.167534 0.415747 0.656539
O O9 0.250000 0.854965 0.250000
O O10 0.350477 0.846448 0.170536
O O11 0.500000 0.259942 0.986864
O O12 0.654796 0.179364 0.984161
O O13 0.635902 0.346055 0.941855
O O14 0.080898 0.567289 0.908863
O O15 0.118489 0.500000 0.000000
O O16 0.500000 0.549100 0.682366
O O17 0.500000 0.377962 0.874479
#
# Coordination Sequence:
#
# PCOD8264538 Si02
#       7
#    16  16  16  16  16  16  16
#     4  11  22  38  65  94 123 169 219 267 334 396
#     4  11  24  44  68  96 134 173 226 281 340 401
#     4  10  23  45  69  93 131 175 223 280 338 406
#     4  11  24  39  60  95 133 169 219 275 329 407
#     4  11  23  39  62  87 128 174 214 258 334 396
#     4  11  24  43  68  97 132 175 224 277 335 402
#     4  11  22  40  67  96 129 171 219 274 337 405
#
# _framework density 21.242901
#
# number of rings (size 3 to 8) (size 9 to 14) (size 15 to 20)
#    0.000    1.143    2.857    4.714    2.000    4.571 
#    0.000    3.571    0.000    0.000    0.000    0.000 
#    0.000    0.000    0.000    0.000    0.000    0.000 
#
# Total GULP energy -694074.279443 kJ/mol
# GULP energy per Si atom -12394.183561 kJ/mol
# Density = 2.119455 g / cm^3
# Si number density = 21.242901 Si / 1000 Ang^3
#
#
#
# Elastic Constant Matrix: (Units=GPa)
#
#
# Indices 1 2 3 4 5 6 
#
# 1 68.9210 9.9017 18.4374 0.0000 0.0000 0.0000
# 2 9.9017 126.4468 45.3418 0.0000 0.0000 0.0000
# 3 18.4374 45.3418 147.0988 0.0000 0.0000 0.0000
# 4 0.0000 0.0000 0.0000 14.6423 0.0000 0.0000
# 5 0.0000 0.0000 0.0000 0.0000 19.9587 0.0000
# 6 0.0000 0.0000 0.0000 0.0000 0.0000 7.4389
#
#
#
# Elastic Compliance Matrix: (Units=1/GPa)
#
#
# Indices 1 2 3 4 5 6 
#
# 1 0.015048 -0.000564 -0.001712 0.000000 0.000000 0.000000
# 2 -0.000564 0.008912 -0.002676 0.000000 0.000000 0.000000
# 3 -0.001712 -0.002676 0.007838 0.000000 0.000000 0.000000
# 4 0.000000 0.000000 0.000000 0.068295 0.000000 0.000000
# 5 0.000000 0.000000 0.000000 0.000000 0.050103 0.000000
# 6 0.000000 0.000000 0.000000 0.000000 0.000000 0.134429
#
#
# Mechanical properties :
#
#
# Convention : Reuss Voigt Hill
#
# Bulk Modulus (GPa) = 45.67769 54.42536 50.05152
# Shear Modulus (GPa) = 16.56564 26.32703 21.44633
#
# Velocity S-wave (km/s) = 2.79556 3.52424 3.18083
# Velocity P-wave (km/s) = 5.65415 6.49896 6.09122
#
# Compressibility (1/GPa) = 0.02189253
#
# Stress axis : x y z
#
# Youngs Moduli (GPa) = 66.45183 112.20346 127.58780
#
# Poissons Ratio (x) = 0.06333 0.21846
# Poissons Ratio (y) = 0.03751 0.34148
# Poissons Ratio (z) = 0.11378 0.30030
#
# Static dielectric constant tensor:
#      x y z
#    x 3.691630 0.000000 0.000000 
#    y 0.000000 3.924760 0.000000 
#    z 0.000000 0.000000 4.052660 
# 
# 
# High freq. dielectric constant tensor:
#      x y z
#    x 1.822630 0.000000 0.000000 
#    y 0.000000 1.844400 0.000000 
#    z 0.000000 0.000000 1.838130 
# 
# From -- ./inp_files/45289.got.cif
#   From: 2010.03.12/outbox.cif.g09.slc.cpg/sg64_23_cif.got.tgz:45289.got - 2010.04.10 20:19:32.
