data_PCOD8264611
_publ_section_title
;
Structure prediction by ZEFSAII (Michael W. Deem and Ramdas Pophale) SiO2 
 PCOD8264611
Probable space group: C M C A
;
_chemical_formula_sum "Si O2"
_cell_formula_units_Z 56
_cell_length_a 23.971267
_cell_length_b 11.131516
_cell_length_c 9.487445
_cell_angle_alpha 90.000000
_cell_angle_beta 90.000000
_cell_angle_gamma 90.000000
_cell_volume 2531.597018
_symmetry_space_group_name_H-M "C M C A"
_symmetry_group_IT_number 64
_symmetry_cell_setting 'orthorhombic'
loop_
_space_group_symop_operation_xyz
x,y,z
-x,1/2-y,1/2+z
x,-y,-z
-x,1/2+y,1/2-z
-x,-y,-z
x,1/2+y,1/2-z
-x,y,z
x,1/2-y,1/2+z
1/2+x,1/2+y,z
1/2-x,-y,1/2+z
1/2+x,1/2-y,-z
1/2-x,y,1/2-z
1/2-x,1/2-y,-z
1/2+x,y,1/2-z
1/2-x,1/2+y,z
1/2+x,-y,1/2+z
loop_
_atom_site_type_symbol
_atom_site_label
_atom_site_fract_x
_atom_site_fract_y
_atom_site_fract_z
Si Si1 0.563245 0.328647 0.660541
Si Si2 0.140537 0.500000 0.000000
Si Si3 0.790760 0.214988 0.619158
Si Si4 0.106545 0.137249 0.048147
O O1 0.500000 0.338514 0.605290
O O2 0.600127 0.440781 0.613954
O O3 0.561101 0.331603 0.831282
O O4 0.591981 0.209788 0.594532
O O5 0.178664 0.410113 0.089045
O O6 0.750000 0.202562 0.750000
O O7 0.750000 0.250000 0.500000
O O8 0.835919 0.322368 0.624698
O O9 0.109018 0.000000 0.000000
#
# Coordination Sequence:
#
# PCOD8264611 Si02
#       4
#    16   8  16  16
#     4  11  25  46  72 103 141 186 235 290 358 417
#     4  10  25  42  72 104 142 180 239 290 346 426
#     4  11  25  45  70 102 137 185 230 287 354 413
#     4  11  27  48  71 107 144 182 240 295 347 429
#
# _framework density 22.120422999999999
#
# number of rings (size 3 to 8) (size 9 to 14) (size 15 to 20)
#    0.000    1.143    0.000    4.714   14.000    3.429 
#    0.000    0.000    0.000    0.000    0.000    0.000 
#    0.000    0.000    0.000    0.000    0.000    0.000 
#
# Total GULP energy -347081.767329 kJ/mol
# GULP energy per Si atom -12395.777405 kJ/mol
# Density = 2.207008 g / cm^3
# Si number density = 22.120423 Si / 1000 Ang^3
#
#
#
# Elastic Constant Matrix: (Units=GPa)
#
#
# Indices 1 2 3 4 5 6 
#
# 1 156.2440 68.6825 41.7362 0.0000 0.0000 0.0000
# 2 68.6825 175.7112 68.9415 0.0000 0.0000 0.0000
# 3 41.7362 68.9415 131.8226 0.0000 0.0000 0.0000
# 4 0.0000 0.0000 0.0000 30.2546 0.0000 0.0000
# 5 0.0000 0.0000 0.0000 0.0000 40.9801 0.0000
# 6 0.0000 0.0000 0.0000 0.0000 0.0000 17.7314
#
#
#
# Elastic Compliance Matrix: (Units=1/GPa)
#
#
# Indices 1 2 3 4 5 6 
#
# 1 0.007855 -0.002635 -0.001109 0.000000 0.000000 0.000000
# 2 -0.002635 0.008045 -0.003373 0.000000 0.000000 0.000000
# 3 -0.001109 -0.003373 0.009701 0.000000 0.000000 0.000000
# 4 0.000000 0.000000 0.000000 0.033053 0.000000 0.000000
# 5 0.000000 0.000000 0.000000 0.000000 0.024402 0.000000
# 6 0.000000 0.000000 0.000000 0.000000 0.000000 0.056397
#
#
# Mechanical properties :
#
#
# Convention : Reuss Voigt Hill
#
# Bulk Modulus (GPa) = 87.97650 91.38870 89.68260
# Shear Modulus (GPa) = 31.75109 36.75442 34.25275
#
# Velocity S-wave (km/s) = 3.79274 4.08065 3.93933
# Velocity P-wave (km/s) = 7.68361 7.97534 7.83083
#
# Compressibility (1/GPa) = 0.01136667
#
# Stress axis : x y z
#
# Youngs Moduli (GPa) = 127.30995 124.30651 103.08288
#
# Poissons Ratio (x) = 0.32759 0.11428
# Poissons Ratio (y) = 0.33550 0.34768
# Poissons Ratio (z) = 0.14114 0.41927
#
# Static dielectric constant tensor:
#      x y z
#    x 4.147220 0.000000 0.000000 
#    y 0.000000 3.934940 0.000000 
#    z 0.000000 0.000000 3.911240 
# 
# 
# High freq. dielectric constant tensor:
#      x y z
#    x 1.889590 0.000000 0.000000 
#    y 0.000000 1.871970 0.000000 
#    z 0.000000 0.000000 1.883140 
# 
# From -- ./inp_files/9883.got.cif
#   From: 2010.03.12/outbox.cif.g09.slc.cpg/sg64_5_cif.got.tgz:9883.got - 2010.04.10 20:19:32.
