data_PCOD8264597
_publ_section_title
;
Structure prediction by ZEFSAII (Michael W. Deem and Ramdas Pophale) SiO2 
 PCOD8264597
Probable space group: C M C A
;
_chemical_formula_sum "Si O2"
_cell_formula_units_Z 40
_cell_length_a 19.851999
_cell_length_b 17.236274
_cell_length_c 5.007732
_cell_angle_alpha 90.000000
_cell_angle_beta 90.000000
_cell_angle_gamma 90.000000
_cell_volume 1713.518164
_symmetry_space_group_name_H-M "C M C A"
_symmetry_group_IT_number 64
_symmetry_cell_setting 'orthorhombic'
loop_
_space_group_symop_operation_xyz
x,y,z
-x,1/2-y,1/2+z
x,-y,-z
-x,1/2+y,1/2-z
-x,-y,-z
x,1/2+y,1/2-z
-x,y,z
x,1/2-y,1/2+z
1/2+x,1/2+y,z
1/2-x,-y,1/2+z
1/2+x,1/2-y,-z
1/2-x,y,1/2-z
1/2-x,1/2-y,-z
1/2+x,y,1/2-z
1/2-x,1/2+y,z
1/2+x,-y,1/2+z
loop_
_atom_site_type_symbol
_atom_site_label
_atom_site_fract_x
_atom_site_fract_y
_atom_site_fract_z
Si Si1 0.179776 0.915315 0.911822
Si Si2 0.422622 0.301469 0.683914
Si Si3 0.750000 0.306473 0.250000
O O1 0.250000 0.918460 0.750000
O O2 0.123048 0.877255 0.724488
O O3 0.187927 0.864404 0.183761
O O4 0.155388 0.000000 0.000000
O O5 0.500000 0.327785 0.708059
O O6 0.405362 0.265523 0.397297
O O7 0.750000 0.250000 0.500000
#
# Coordination Sequence:
#
# PCOD8264597 Si02
#       3
#    16  16   8
#     4  12  26  42  67 103 145 176 222 283 347 407
#     4  10  24  45  69  97 131 179 234 279 330 404
#     4  12  24  40  64  94 126 178 224 270 328 392
#
# _framework density 23.343786000000001
#
# number of rings (size 3 to 8) (size 9 to 14) (size 15 to 20)
#    0.000    0.800    4.000    2.400    5.600    0.800 
#    0.000    0.000    0.000    8.400    0.000    0.000 
#    0.000    0.000    0.000    0.000    0.000    0.000 
#
# Total GULP energy -247837.084398 kJ/mol
# GULP energy per Si atom -12391.854220 kJ/mol
# Density = 2.329065 g / cm^3
# Si number density = 23.343786 Si / 1000 Ang^3
#
#
#
# Elastic Constant Matrix: (Units=GPa)
#
#
# Indices 1 2 3 4 5 6 
#
# 1 89.9160 40.6125 5.9644 0.0000 0.0000 0.0000
# 2 40.6125 149.3615 30.1748 0.0000 0.0000 0.0000
# 3 5.9644 30.1748 109.6152 0.0000 0.0000 0.0000
# 4 0.0000 0.0000 0.0000 27.5457 0.0000 0.0000
# 5 0.0000 0.0000 0.0000 0.0000 32.8978 0.0000
# 6 0.0000 0.0000 0.0000 0.0000 0.0000 32.8368
#
#
#
# Elastic Compliance Matrix: (Units=1/GPa)
#
#
# Indices 1 2 3 4 5 6 
#
# 1 0.012686 -0.003505 0.000275 0.000000 0.000000 0.000000
# 2 -0.003505 0.008058 -0.002027 0.000000 0.000000 0.000000
# 3 0.000275 -0.002027 0.009666 0.000000 0.000000 0.000000
# 4 0.000000 0.000000 0.000000 0.036303 0.000000 0.000000
# 5 0.000000 0.000000 0.000000 0.000000 0.030397 0.000000
# 6 0.000000 0.000000 0.000000 0.000000 0.000000 0.030454
#
#
# Mechanical properties :
#
#
# Convention : Reuss Voigt Hill
#
# Bulk Modulus (GPa) = 50.26530 55.82179 53.04355
# Shear Modulus (GPa) = 34.55148 36.79877 35.67513
#
# Velocity S-wave (km/s) = 3.85140 3.97468 3.91352
# Velocity P-wave (km/s) = 6.43095 6.71036 6.57214
#
# Compressibility (1/GPa) = 0.01989444
#
# Stress axis : x y z
#
# Youngs Moduli (GPa) = 78.82471 124.10355 103.45552
#
# Poissons Ratio (x) = 0.43498 -0.02840
# Poissons Ratio (y) = 0.27628 0.20975
# Poissons Ratio (z) = -0.02164 0.25161
#
# Static dielectric constant tensor:
#      x y z
#    x 4.466960 0.000000 0.000000 
#    y 0.000000 4.568190 0.000000 
#    z 0.000000 0.000000 17.354310 
# 
# 
# High freq. dielectric constant tensor:
#      x y z
#    x 1.914570 0.000000 0.000000 
#    y 0.000000 1.924090 0.000000 
#    z 0.000000 0.000000 1.942860 
# 
# From -- ./inp_files/2024.got.cif
#   From: 2010.03.12/outbox.cif.g09.slc.cpg/sg64_2_cif.got.tgz:2024.got - 2010.04.10 20:19:32.
