data_PCOD8264182
_publ_section_title
;
Structure prediction by ZEFSAII (Michael W. Deem and Ramdas Pophale) SiO2 
 PCOD8264182
Probable space group: C M C A
;
_chemical_formula_sum "Si O2"
_cell_formula_units_Z 104
_cell_length_a 28.687590
_cell_length_b 19.148758
_cell_length_c 9.372635
_cell_angle_alpha 90.000000
_cell_angle_beta 90.000000
_cell_angle_gamma 90.000000
_cell_volume 5148.685692
_symmetry_space_group_name_H-M "C M C A"
_symmetry_group_IT_number 64
_symmetry_cell_setting 'orthorhombic'
loop_
_space_group_symop_operation_xyz
x,y,z
-x,1/2-y,1/2+z
x,-y,-z
-x,1/2+y,1/2-z
-x,-y,-z
x,1/2+y,1/2-z
-x,y,z
x,1/2-y,1/2+z
1/2+x,1/2+y,z
1/2-x,-y,1/2+z
1/2+x,1/2-y,-z
1/2-x,y,1/2-z
1/2-x,1/2-y,-z
1/2+x,y,1/2-z
1/2-x,1/2+y,z
1/2+x,-y,1/2+z
loop_
_atom_site_type_symbol
_atom_site_label
_atom_site_fract_x
_atom_site_fract_y
_atom_site_fract_z
Si Si1 0.550640 0.332418 0.449550
Si Si2 0.699493 0.388942 0.212028
Si Si3 0.948643 0.797405 0.764295
Si Si4 0.855773 0.378926 0.692188
Si Si5 0.647809 0.373008 0.488289
Si Si6 0.671666 0.000000 0.500000
Si Si7 0.804426 0.725875 0.495638
O O1 0.500000 0.370430 0.434076
O O2 0.559294 0.280192 0.320244
O O3 0.552478 0.288187 0.594786
O O4 0.593238 0.386748 0.452867
O O5 0.750000 0.362983 0.250000
O O6 0.673984 0.411071 0.358662
O O7 0.703346 0.455705 0.108624
O O8 0.679155 0.320163 0.132927
O O9 0.907699 0.848043 0.816676
O O10 0.000000 0.825872 0.813440
O O11 0.859428 0.447075 0.592481
O O12 0.815846 0.323893 0.640815
O O13 0.841388 0.402410 0.853529
O O14 0.661309 0.291369 0.488685
O O15 0.750000 0.750000 0.500000
#
# Coordination Sequence:
#
# PCOD8264182 Si02
#       7
#    16  16  16  16  16   8  16
#     4   9  18  31  52  87 122 146 175 225 290 358
#     4  11  24  41  59  84 114 158 194 241 278 344
#     4   9  17  31  53  81 113 146 182 228 288 345
#     4  10  22  38  57  81 113 155 188 240 279 343
#     4  11  21  34  62  89 115 148 188 236 294 342
#     4  10  26  44  55  74 114 154 205 240 282 328
#     4  11  21  37  57  87 121 146 184 229 291 339
#
# _framework density 20.199328999999999
#
# number of rings (size 3 to 8) (size 9 to 14) (size 15 to 20)
#    0.000    1.846    3.077    0.923    2.154    1.846 
#    0.000    0.385    0.000    0.923    0.000    4.308 
#    0.000    0.000    0.000    0.000    0.000    0.000 
#
# Total GULP energy -644248.173551 kJ/mol
# GULP energy per Si atom -12389.387953 kJ/mol
# Density = 2.015335 g / cm^3
# Si number density = 20.199329 Si / 1000 Ang^3
#
#
#
# Elastic Constant Matrix: (Units=GPa)
#
#
# Indices 1 2 3 4 5 6 
#
# 1 101.9380 8.3695 37.2672 0.0000 0.0000 0.0000
# 2 8.3695 54.4900 24.7729 0.0000 0.0000 0.0000
# 3 37.2672 24.7729 121.2482 0.0000 0.0000 0.0000
# 4 0.0000 0.0000 0.0000 27.2590 0.0000 0.0000
# 5 0.0000 0.0000 0.0000 0.0000 29.1490 0.0000
# 6 0.0000 0.0000 0.0000 0.0000 0.0000 8.5456
#
#
#
# Elastic Compliance Matrix: (Units=1/GPa)
#
#
# Indices 1 2 3 4 5 6 
#
# 1 0.011053 -0.000169 -0.003363 0.000000 0.000000 0.000000
# 2 -0.000169 0.020234 -0.004082 0.000000 0.000000 0.000000
# 3 -0.003363 -0.004082 0.010115 0.000000 0.000000 0.000000
# 4 0.000000 0.000000 0.000000 0.036685 0.000000 0.000000
# 5 0.000000 0.000000 0.000000 0.000000 0.034306 0.000000
# 6 0.000000 0.000000 0.000000 0.000000 0.000000 0.117019
#
#
# Mechanical properties :
#
#
# Convention : Reuss Voigt Hill
#
# Bulk Modulus (GPa) = 38.20529 46.49950 42.35239
# Shear Modulus (GPa) = 19.73432 26.80849 23.27140
#
# Velocity S-wave (km/s) = 3.12906 3.64702 3.39792
# Velocity P-wave (km/s) = 5.65773 6.38785 6.03384
#
# Compressibility (1/GPa) = 0.02617439
#
# Stress axis : x y z
#
# Youngs Moduli (GPa) = 90.47189 49.42223 98.86110
#
# Poissons Ratio (x) = 0.00835 0.33245
# Poissons Ratio (y) = 0.01528 0.40357
# Poissons Ratio (z) = 0.30424 0.20175
#
# Static dielectric constant tensor:
#      x y z
#    x 3.932390 0.000000 0.000000 
#    y 0.000000 3.262090 0.000000 
#    z 0.000000 0.000000 4.070280 
# 
# 
# High freq. dielectric constant tensor:
#      x y z
#    x 1.790840 0.000000 0.000000 
#    y 0.000000 1.743400 0.000000 
#    z 0.000000 0.000000 1.810090 
# 
# From -- ./inp_files/11188.got.cif
#   From: 2010.03.12/outbox.cif.g09.slc.cpg/sg64_6_cif.got.tgz:11188.got - 2010.04.10 20:19:32.
