data_PCOD8264373
_publ_section_title
;
Structure prediction by ZEFSAII (Michael W. Deem and Ramdas Pophale) SiO2 
 PCOD8264373
Probable space group: C M C A
;
_chemical_formula_sum "Si O2"
_cell_formula_units_Z 112
_cell_length_a 14.810142
_cell_length_b 10.959555
_cell_length_c 32.923054
_cell_angle_alpha 90.000000
_cell_angle_beta 90.000000
_cell_angle_gamma 90.000000
_cell_volume 5343.825369
_symmetry_space_group_name_H-M "C M C A"
_symmetry_group_IT_number 64
_symmetry_cell_setting 'orthorhombic'
loop_
_space_group_symop_operation_xyz
x,y,z
-x,1/2-y,1/2+z
x,-y,-z
-x,1/2+y,1/2-z
-x,-y,-z
x,1/2+y,1/2-z
-x,y,z
x,1/2-y,1/2+z
1/2+x,1/2+y,z
1/2-x,-y,1/2+z
1/2+x,1/2-y,-z
1/2-x,y,1/2-z
1/2-x,1/2-y,-z
1/2+x,y,1/2-z
1/2-x,1/2+y,z
1/2+x,-y,1/2+z
loop_
_atom_site_type_symbol
_atom_site_label
_atom_site_fract_x
_atom_site_fract_y
_atom_site_fract_z
Si Si1 0.600792 0.134961 0.906950
Si Si2 0.603302 0.293410 0.172504
Si Si3 0.400280 0.512780 0.334055
Si Si4 0.603502 0.866027 0.644147
Si Si5 0.751382 0.124760 0.525204
Si Si6 0.897506 0.091485 0.909891
Si Si7 0.776651 0.987897 0.205441
O O1 0.500000 0.163013 0.922948
O O2 0.629197 0.232741 0.872274
O O3 0.663773 0.133221 0.945386
O O4 0.604947 0.005375 0.882997
O O5 0.500000 0.337429 0.176380
O O6 0.614274 0.151395 0.179464
O O7 0.637785 0.324601 0.127148
O O8 0.659737 0.368149 0.206148
O O9 0.500000 0.467667 0.319034
O O10 0.317581 0.441682 0.313972
O O11 0.500000 0.871050 0.660648
O O12 0.672625 0.905086 0.679972
O O13 0.613805 0.952478 0.604776
O O14 0.750000 0.250000 0.500000
O O15 0.659218 0.117242 0.550071
O O16 0.761951 0.000000 0.500000
O O17 0.000000 0.122772 0.921640
O O18 0.750000 0.035722 0.250000
#
# Coordination Sequence:
#
# PCOD8264373 Si02
#       7
#    16  16  16  16  16  16  16
#     4  10  22  42  66  88 123 169 215 262 314 385
#     4   9  20  41  65  88 117 164 218 260 306 373
#     4  10  23  40  61  91 123 165 215 257 308 377
#     4   9  19  39  67  95 119 164 223 268 312 375
#     4  12  27  40  59  96 133 165 205 266 340 400
#     4   9  19  38  65  86 112 161 213 259 307 375
#     4  11  23  36  63  94 132 162 205 259 329 376
#
# _framework density 20.958770000000001
#
# number of rings (size 3 to 8) (size 9 to 14) (size 15 to 20)
#    0.000    2.000    0.000    3.857    6.000    2.857 
#    0.000    0.000    0.000    0.000    0.000    0.000 
#    0.000    0.000    0.000    0.000    0.000    0.000 
#
# Total GULP energy -694096.963729 kJ/mol
# GULP energy per Si atom -12394.588638 kJ/mol
# Density = 2.091107 g / cm^3
# Si number density = 20.958770 Si / 1000 Ang^3
#
#
#
# Elastic Constant Matrix: (Units=GPa)
#
#
# Indices 1 2 3 4 5 6 
#
# 1 141.0699 35.6750 76.4187 0.0000 0.0000 0.0000
# 2 35.6750 77.7934 35.9482 0.0000 0.0000 0.0000
# 3 76.4187 35.9482 120.2075 0.0000 0.0000 0.0000
# 4 0.0000 0.0000 0.0000 21.1888 0.0000 0.0000
# 5 0.0000 0.0000 0.0000 0.0000 23.4412 0.0000
# 6 0.0000 0.0000 0.0000 0.0000 0.0000 21.0394
#
#
#
# Elastic Compliance Matrix: (Units=1/GPa)
#
#
# Indices 1 2 3 4 5 6 
#
# 1 0.011107 -0.002124 -0.006425 0.000000 0.000000 0.000000
# 2 -0.002124 0.015322 -0.003232 0.000000 0.000000 0.000000
# 3 -0.006425 -0.003232 0.013370 0.000000 0.000000 0.000000
# 4 0.000000 0.000000 0.000000 0.047195 0.000000 0.000000
# 5 0.000000 0.000000 0.000000 0.000000 0.042660 0.000000
# 6 0.000000 0.000000 0.000000 0.000000 0.000000 0.047530
#
#
# Mechanical properties :
#
#
# Convention : Reuss Voigt Hill
#
# Bulk Modulus (GPa) = 61.59084 70.57273 66.08178
# Shear Modulus (GPa) = 24.25322 25.86914 25.06118
#
# Velocity S-wave (km/s) = 3.40544 3.51705 3.46169
# Velocity P-wave (km/s) = 6.70173 7.08789 6.89751
#
# Compressibility (1/GPa) = 0.01623618
#
# Stress axis : x y z
#
# Youngs Moduli (GPa) = 90.03658 65.26556 74.79310
#
# Poissons Ratio (x) = 0.13863 0.48058
# Poissons Ratio (y) = 0.19125 0.24171
# Poissons Ratio (z) = 0.57853 0.21092
#
# Static dielectric constant tensor:
#      x y z
#    x 4.051740 0.000000 0.000000 
#    y 0.000000 3.887300 0.000000 
#    z 0.000000 0.000000 3.506810 
# 
# 
# High freq. dielectric constant tensor:
#      x y z
#    x 1.843450 0.000000 0.000000 
#    y 0.000000 1.821440 0.000000 
#    z 0.000000 0.000000 1.791600 
# 
# From -- ./inp_files/53268.got.cif
#   From: 2010.03.12/outbox.cif.g09.slc.cpg/sg64_27_cif.got.tgz:53268.got - 2010.04.10 20:19:32.
