data_PCOD8264590
_publ_section_title
;
Structure prediction by ZEFSAII (Michael W. Deem and Ramdas Pophale) SiO2 
 PCOD8264590
Probable space group: C M C A
;
_chemical_formula_sum "Si O2"
_cell_formula_units_Z 96
_cell_length_a 25.288403
_cell_length_b 19.106716
_cell_length_c 9.475290
_cell_angle_alpha 90.000000
_cell_angle_beta 90.000000
_cell_angle_gamma 90.000000
_cell_volume 4578.254838
_symmetry_space_group_name_H-M "C M C A"
_symmetry_group_IT_number 64
_symmetry_cell_setting 'orthorhombic'
loop_
_space_group_symop_operation_xyz
x,y,z
-x,1/2-y,1/2+z
x,-y,-z
-x,1/2+y,1/2-z
-x,-y,-z
x,1/2+y,1/2-z
-x,y,z
x,1/2-y,1/2+z
1/2+x,1/2+y,z
1/2-x,-y,1/2+z
1/2+x,1/2-y,-z
1/2-x,y,1/2-z
1/2-x,1/2-y,-z
1/2+x,y,1/2-z
1/2-x,1/2+y,z
1/2+x,-y,1/2+z
loop_
_atom_site_type_symbol
_atom_site_label
_atom_site_fract_x
_atom_site_fract_y
_atom_site_fract_z
Si Si1 0.439066 0.993108 0.838738
Si Si2 0.439245 0.875630 0.352241
Si Si3 0.767738 0.932345 0.904974
Si Si4 0.866679 0.755456 0.258215
Si Si5 0.702518 0.303200 0.508370
Si Si6 0.385646 0.387911 0.866186
O O1 0.500000 0.968794 0.826641
O O2 0.402114 0.935708 0.765487
O O3 0.430373 0.068696 0.770945
O O4 0.420882 0.000000 0.000000
O O5 0.500000 0.854786 0.368360
O O6 0.407715 0.805473 0.318722
O O7 0.419015 0.910788 0.497024
O O8 0.750000 0.955947 0.750000
O O9 0.823666 0.893167 0.899098
O O10 0.724447 0.881431 0.974164
O O11 0.773477 0.000000 0.000000
O O12 0.831762 0.800957 0.366051
O O13 0.898510 0.693714 0.337294
O O14 0.830897 0.716436 0.144636
O O15 0.750000 0.250000 0.500000
#
# Coordination Sequence:
#
# PCOD8264590 Si02
#       6
#    16  16  16  16  16  16
#     4  10  24  44  69  99 135 177 223 283 347 403
#     4  11  25  45  69 102 135 177 228 276 342 410
#     4  12  26  43  66 103 136 178 231 280 335 404
#     4  12  25  44  69 101 133 179 226 277 337 403
#     4  12  23  46  69  93 139 180 225 275 339 399
#     4  12  24  44  70  98 137 181 227 280 337 405
#
# _framework density 20.968689000000001
#
# number of rings (size 3 to 8) (size 9 to 14) (size 15 to 20)
#    0.000    0.500    5.000    2.500    2.333    7.333 
#    0.000    0.000    0.000    0.000    0.000    0.000 
#    0.000    0.000    0.000    0.000    0.000    0.000 
#
# Total GULP energy -595567.254439 kJ/mol
# GULP energy per Si atom -12407.651134 kJ/mol
# Density = 2.092096 g / cm^3
# Si number density = 20.968689 Si / 1000 Ang^3
#
#
#
# Elastic Constant Matrix: (Units=GPa)
#
#
# Indices 1 2 3 4 5 6 
#
# 1 68.7526 42.5133 74.5575 0.0000 0.0000 0.0000
# 2 42.5133 106.5688 45.1555 0.0000 0.0000 0.0000
# 3 74.5575 45.1555 116.3672 0.0000 0.0000 0.0000
# 4 0.0000 0.0000 0.0000 32.3425 0.0000 0.0000
# 5 0.0000 0.0000 0.0000 0.0000 38.0624 0.0000
# 6 0.0000 0.0000 0.0000 0.0000 0.0000 31.3089
#
#
#
# Elastic Compliance Matrix: (Units=1/GPa)
#
#
# Indices 1 2 3 4 5 6 
#
# 1 0.052878 -0.008065 -0.030750 0.000000 0.000000 0.000000
# 2 -0.008065 0.012460 0.000332 0.000000 0.000000 0.000000
# 3 -0.030750 0.000332 0.028166 0.000000 0.000000 0.000000
# 4 0.000000 0.000000 0.000000 0.030919 0.000000 0.000000
# 5 0.000000 0.000000 0.000000 0.000000 0.026273 0.000000
# 6 0.000000 0.000000 0.000000 0.000000 0.000000 0.031940
#
#
# Mechanical properties :
#
#
# Convention : Reuss Voigt Hill
#
# Bulk Modulus (GPa) = 60.46254 68.46016 64.46135
# Shear Modulus (GPa) = 18.85975 28.97358 23.91666
#
# Velocity S-wave (km/s) = 3.00229 3.72123 3.38093
# Velocity P-wave (km/s) = 6.39653 7.15423 6.78597
#
# Compressibility (1/GPa) = 0.01653916
#
# Stress axis : x y z
#
# Youngs Moduli (GPa) = 18.91136 80.25535 35.50342
#
# Poissons Ratio (x) = 0.64728 1.09173
# Poissons Ratio (y) = 0.15252 -0.01180
# Poissons Ratio (z) = 0.58152 -0.02667
#
# Static dielectric constant tensor:
#      x y z
#    x 3.906080 0.000000 0.000000 
#    y 0.000000 3.686400 0.000000 
#    z 0.000000 0.000000 4.074130 
# 
# 
# High freq. dielectric constant tensor:
#      x y z
#    x 1.824650 0.000000 0.000000 
#    y 0.000000 1.826020 0.000000 
#    z 0.000000 0.000000 1.840380 
# 
# From -- ./inp_files/10385.got.cif
#   From: 2010.03.12/outbox.cif.g09.slc.cpg/sg64_6_cif.got.tgz:10385.got - 2010.04.10 20:19:32.
