data_PCOD8264658
_publ_section_title
;
Structure prediction by ZEFSAII (Michael W. Deem and Ramdas Pophale) SiO2 
 PCOD8264658
Probable space group: C M C A
;
_chemical_formula_sum "Si O2"
_cell_formula_units_Z 96
_cell_length_a 8.902319
_cell_length_b 23.676653
_cell_length_c 26.120358
_cell_angle_alpha 90.000000
_cell_angle_beta 90.000000
_cell_angle_gamma 90.000000
_cell_volume 5505.573777
_symmetry_space_group_name_H-M "C M C A"
_symmetry_group_IT_number 64
_symmetry_cell_setting 'orthorhombic'
loop_
_space_group_symop_operation_xyz
x,y,z
-x,1/2-y,1/2+z
x,-y,-z
-x,1/2+y,1/2-z
-x,-y,-z
x,1/2+y,1/2-z
-x,y,z
x,1/2-y,1/2+z
1/2+x,1/2+y,z
1/2-x,-y,1/2+z
1/2+x,1/2-y,-z
1/2-x,y,1/2-z
1/2-x,1/2-y,-z
1/2+x,y,1/2-z
1/2-x,1/2+y,z
1/2+x,-y,1/2+z
loop_
_atom_site_type_symbol
_atom_site_label
_atom_site_fract_x
_atom_site_fract_y
_atom_site_fract_z
Si Si1 0.329744 0.921733 0.611794
Si Si2 0.177345 0.833327 0.804913
Si Si3 0.820951 0.261285 0.117942
Si Si4 0.179117 0.861685 0.072349
Si Si5 0.330605 0.822315 0.534300
Si Si6 0.323314 0.980697 0.056688
O O1 0.500000 0.943740 0.620436
O O2 0.271006 0.887313 0.661410
O O3 0.325118 0.881495 0.563069
O O4 0.219415 0.973376 0.599688
O O5 0.250000 0.837720 0.750000
O O6 0.226106 0.774484 0.831868
O O7 0.000000 0.834752 0.799665
O O8 0.741802 0.322751 0.118856
O O9 0.755586 0.226832 0.068513
O O10 0.000000 0.267596 0.115689
O O11 0.242031 0.924365 0.075585
O O12 0.000000 0.864651 0.073762
O O13 0.245945 0.832303 0.020722
O O14 0.500000 0.803394 0.524606
O O15 0.500000 0.970490 0.056670
O O16 0.268329 0.000000 0.000000
#
# Coordination Sequence:
#
# PCOD8264658 Si02
#       6
#    16  16  16  16  16  16
#     4   9  17  33  53  74 101 136 174 211 251 300
#     4   9  19  35  58  81 103 131 165 211 266 311
#     4   9  18  33  49  71 103 134 165 208 255 301
#     4  11  20  30  48  72 100 140 177 206 244 296
#     4   8  15  28  47  69  98 134 169 202 243 292
#     4  11  22  33  47  72 105 141 177 213 252 297
#
# _framework density 17.436874
#
# number of rings (size 3 to 8) (size 9 to 14) (size 15 to 20)
#    0.000    2.500    1.667    3.500    0.000    2.000 
#    0.000    3.333    0.000    1.000    0.000    7.000 
#    0.000    0.000    0.000    0.000    0.000    0.000 
#
# Total GULP energy -594881.607641 kJ/mol
# GULP energy per Si atom -12393.366826 kJ/mol
# Density = 1.739719 g / cm^3
# Si number density = 17.436874 Si / 1000 Ang^3
#
#
#
# Elastic Constant Matrix: (Units=GPa)
#
#
# Indices 1 2 3 4 5 6 
#
# 1 51.0818 43.0931 31.4124 0.0000 0.0000 0.0000
# 2 43.0931 121.9487 57.0548 0.0000 0.0000 0.0000
# 3 31.4124 57.0548 99.2604 0.0000 0.0000 0.0000
# 4 0.0000 0.0000 0.0000 10.8307 0.0000 0.0000
# 5 0.0000 0.0000 0.0000 0.0000 23.7148 0.0000
# 6 0.0000 0.0000 0.0000 0.0000 0.0000 26.9675
#
#
#
# Elastic Compliance Matrix: (Units=1/GPa)
#
#
# Indices 1 2 3 4 5 6 
#
# 1 0.029317 -0.008233 -0.004545 0.000000 0.000000 0.000000
# 2 -0.008233 0.013529 -0.005171 0.000000 0.000000 0.000000
# 3 -0.004545 -0.005171 0.014485 0.000000 0.000000 0.000000
# 4 0.000000 0.000000 0.000000 0.092330 0.000000 0.000000
# 5 0.000000 0.000000 0.000000 0.000000 0.042168 0.000000
# 6 0.000000 0.000000 0.000000 0.000000 0.000000 0.037082
#
#
# Mechanical properties :
#
#
# Convention : Reuss Voigt Hill
#
# Bulk Modulus (GPa) = 46.65867 59.49017 53.07442
# Shear Modulus (GPa) = 18.38549 21.68465 20.03507
#
# Velocity S-wave (km/s) = 3.25068 3.53031 3.39338
# Velocity P-wave (km/s) = 6.39578 7.12804 6.77181
#
# Compressibility (1/GPa) = 0.02143224
#
# Stress axis : x y z
#
# Youngs Moduli (GPa) = 34.10964 73.91668 69.03626
#
# Poissons Ratio (x) = 0.60857 0.31380
# Poissons Ratio (y) = 0.28083 0.35697
# Poissons Ratio (z) = 0.15504 0.38221
#
# Static dielectric constant tensor:
#      x y z
#    x 3.022880 0.000000 0.000000 
#    y 0.000000 3.292410 0.000000 
#    z 0.000000 0.000000 4.814410 
# 
# 
# High freq. dielectric constant tensor:
#      x y z
#    x 1.658570 0.000000 0.000000 
#    y 0.000000 1.677920 0.000000 
#    z 0.000000 0.000000 1.643690 
# 
# From -- ./inp_files/43073.got.cif
#   From: 2010.03.12/outbox.cif.g09.slc.cpg/sg64_22_cif.got.tgz:43073.got - 2010.04.10 20:19:32.
