data_PCOD8264003
_publ_section_title
;
Structure prediction by ZEFSAII (Michael W. Deem and Ramdas Pophale) SiO2 
 PCOD8264003
Probable space group: C M C A
;
_chemical_formula_sum "Si O2"
_cell_formula_units_Z 112
_cell_length_a 13.900814
_cell_length_b 14.472569
_cell_length_c 25.717126
_cell_angle_alpha 90.000000
_cell_angle_beta 90.000000
_cell_angle_gamma 90.000000
_cell_volume 5173.784004
_symmetry_space_group_name_H-M "C M C A"
_symmetry_group_IT_number 64
_symmetry_cell_setting 'orthorhombic'
loop_
_space_group_symop_operation_xyz
x,y,z
-x,1/2-y,1/2+z
x,-y,-z
-x,1/2+y,1/2-z
-x,-y,-z
x,1/2+y,1/2-z
-x,y,z
x,1/2-y,1/2+z
1/2+x,1/2+y,z
1/2-x,-y,1/2+z
1/2+x,1/2-y,-z
1/2-x,y,1/2-z
1/2-x,1/2-y,-z
1/2+x,y,1/2-z
1/2-x,1/2+y,z
1/2+x,-y,1/2+z
loop_
_atom_site_type_symbol
_atom_site_label
_atom_site_fract_x
_atom_site_fract_y
_atom_site_fract_z
Si Si1 0.893827 0.020339 0.788546
Si Si2 0.614546 0.662273 0.263630
Si Si3 0.254276 0.576659 0.872420
Si Si4 0.209744 0.779058 0.444316
Si Si5 0.000000 0.365832 0.047580
Si Si6 0.106726 0.662371 0.800450
Si Si7 0.500000 0.427134 0.569509
Si Si8 0.809801 0.129582 0.376823
O O1 0.851017 0.919406 0.775528
O O2 0.000000 0.010609 0.811629
O O3 0.839093 0.082208 0.830622
O O4 0.892979 0.070044 0.733343
O O5 0.500000 0.656662 0.274181
O O6 0.647311 0.754875 0.234638
O O7 0.671791 0.658509 0.317436
O O8 0.272606 0.629808 0.926883
O O9 0.166644 0.639391 0.851276
O O10 0.235166 0.470909 0.882278
O O11 0.250000 0.750000 0.500000
O O12 0.232634 0.698105 0.402900
O O13 0.095431 0.802865 0.444691
O O14 0.000000 0.461388 0.082685
O O15 0.000000 0.408666 0.990883
O O16 0.000000 0.687874 0.820162
O O17 0.409665 0.373333 0.593058
#
# Coordination Sequence:
#
# PCOD8264003 Si02
#       8
#    16  16  16  16   8  16   8  16
#     4  10  22  43  63  93 142 186 230 283 346 427
#     4  10  21  39  68 101 138 184 235 282 348 431
#     4  12  26  43  68  99 141 185 239 294 358 435
#     4  12  28  48  72 108 141 181 242 310 371 430
#     4  11  24  50  76 103 144 183 242 315 367 424
#     4  10  22  39  63  96 135 179 227 285 342 413
#     4  11  22  44  84 104 133 192 243 303 360 428
#     4  12  24  42  76 109 139 185 241 294 360 436
#
# _framework density 21.647600000000001
#
# number of rings (size 3 to 8) (size 9 to 14) (size 15 to 20)
#    0.000    1.000    5.000    1.286    4.000    0.571 
#    3.857    0.000    0.000    0.857    0.000    0.000 
#    0.000    0.000    0.000    0.000    0.000    0.000 
#
# Total GULP energy -694204.063366 kJ/mol
# GULP energy per Si atom -12396.501132 kJ/mol
# Density = 2.159833 g / cm^3
# Si number density = 21.647600 Si / 1000 Ang^3
#
#
#
# Elastic Constant Matrix: (Units=GPa)
#
#
# Indices 1 2 3 4 5 6 
#
# 1 106.1308 43.5101 45.2417 0.0000 0.0000 0.0000
# 2 43.5101 147.7465 41.1287 0.0000 0.0000 0.0000
# 3 45.2417 41.1287 76.5885 0.0000 0.0000 0.0000
# 4 0.0000 0.0000 0.0000 41.5768 0.0000 0.0000
# 5 0.0000 0.0000 0.0000 0.0000 26.3768 0.0000
# 6 0.0000 0.0000 0.0000 0.0000 0.0000 37.0099
#
#
#
# Elastic Compliance Matrix: (Units=1/GPa)
#
#
# Indices 1 2 3 4 5 6 
#
# 1 0.013077 -0.002000 -0.006651 0.000000 0.000000 0.000000
# 2 -0.002000 0.008264 -0.003256 0.000000 0.000000 0.000000
# 3 -0.006651 -0.003256 0.018734 0.000000 0.000000 0.000000
# 4 0.000000 0.000000 0.000000 0.024052 0.000000 0.000000
# 5 0.000000 0.000000 0.000000 0.000000 0.037912 0.000000
# 6 0.000000 0.000000 0.000000 0.000000 0.000000 0.027020
#
#
# Mechanical properties :
#
#
# Convention : Reuss Voigt Hill
#
# Bulk Modulus (GPa) = 61.49670 65.58076 63.53873
# Shear Modulus (GPa) = 31.58672 34.36504 32.97588
#
# Velocity S-wave (km/s) = 3.82400 3.98864 3.90719
# Velocity P-wave (km/s) = 6.92583 7.18142 7.05478
#
# Compressibility (1/GPa) = 0.01626103
#
# Stress axis : x y z
#
# Youngs Moduli (GPa) = 76.46786 121.01031 53.37761
#
# Poissons Ratio (x) = 0.24198 0.35502
# Poissons Ratio (y) = 0.15291 0.17382
# Poissons Ratio (z) = 0.50860 0.39407
#
# Static dielectric constant tensor:
#      x y z
#    x 4.238630 0.000000 0.000000 
#    y 0.000000 4.097640 0.000000 
#    z 0.000000 0.000000 3.976650 
# 
# 
# High freq. dielectric constant tensor:
#      x y z
#    x 1.850260 0.000000 0.000000 
#    y 0.000000 1.862520 0.000000 
#    z 0.000000 0.000000 1.849850 
# 
# From -- ./inp_files/50105.got.cif
#   From: 2010.03.12/outbox.cif.g09.slc.cpg/sg64_26_cif.got.tgz:50105.got - 2010.04.10 20:19:32.
