data_PCOD8264606
_publ_section_title
;
Structure prediction by ZEFSAII (Michael W. Deem and Ramdas Pophale) SiO2 
 PCOD8264606
Probable space group: C M C A
;
_chemical_formula_sum "Si O2"
_cell_formula_units_Z 80
_cell_length_a 15.719565
_cell_length_b 9.402242
_cell_length_c 26.651570
_cell_angle_alpha 90.000000
_cell_angle_beta 90.000000
_cell_angle_gamma 90.000000
_cell_volume 3939.079506
_symmetry_space_group_name_H-M "C M C A"
_symmetry_group_IT_number 64
_symmetry_cell_setting 'orthorhombic'
loop_
_space_group_symop_operation_xyz
x,y,z
-x,1/2-y,1/2+z
x,-y,-z
-x,1/2+y,1/2-z
-x,-y,-z
x,1/2+y,1/2-z
-x,y,z
x,1/2-y,1/2+z
1/2+x,1/2+y,z
1/2-x,-y,1/2+z
1/2+x,1/2-y,-z
1/2-x,y,1/2-z
1/2-x,1/2-y,-z
1/2+x,y,1/2-z
1/2-x,1/2+y,z
1/2+x,-y,1/2+z
loop_
_atom_site_type_symbol
_atom_site_label
_atom_site_fract_x
_atom_site_fract_y
_atom_site_fract_z
Si Si1 0.000000 0.035012 0.203269
Si Si2 0.405651 0.384540 0.960906
Si Si3 0.331658 0.546599 0.141684
Si Si4 0.331010 0.788402 0.865213
Si Si5 0.000000 0.796681 0.694684
Si Si6 0.170602 0.158682 0.481772
O O1 0.000000 0.866805 0.211038
O O2 0.085313 0.084267 0.174353
O O3 0.000000 0.105773 0.256966
O O4 0.500000 0.425654 0.942382
O O5 0.343063 0.389644 0.913878
O O6 0.370799 0.500000 0.000000
O O7 0.407993 0.231244 0.988365
O O8 0.314160 0.379127 0.139879
O O9 0.247337 0.627669 0.161471
O O10 0.416875 0.833951 0.837393
O O11 0.343588 0.834332 0.922538
O O12 0.250000 0.250000 0.500000
O O13 0.180636 0.000000 0.500000
#
# Coordination Sequence:
#
# PCOD8264606 Si02
#       6
#     8  16  16  16   8  16
#     4  10  24  48  70  89 122 161 218 270 333 386
#     4  11  22  37  62  92 130 176 214 255 312 384
#     4  11  22  41  67  96 125 168 217 263 320 393
#     4  11  24  41  64  97 132 170 212 264 322 383
#     4  10  26  48  68  92 126 165 214 279 329 386
#     4  12  23  37  58  91 135 172 210 253 311 383
#
# _framework density 20.309315000000002
#
# number of rings (size 3 to 8) (size 9 to 14) (size 15 to 20)
#    0.000    1.000    5.000    1.800    1.400    2.800 
#    0.000    4.000    0.000    0.000    0.000    0.000 
#    0.000    0.000    0.000    0.000    0.000    0.000 
#
# Total GULP energy -496025.442307 kJ/mol
# GULP energy per Si atom -12400.636058 kJ/mol
# Density = 2.026309 g / cm^3
# Si number density = 20.309315 Si / 1000 Ang^3
#
#
#
# Elastic Constant Matrix: (Units=GPa)
#
#
# Indices 1 2 3 4 5 6 
#
# 1 161.6794 65.7870 74.9019 0.0000 0.0000 0.0000
# 2 65.7870 130.0591 63.1843 0.0000 0.0000 0.0000
# 3 74.9019 63.1843 134.1931 0.0000 0.0000 0.0000
# 4 0.0000 0.0000 0.0000 35.6301 0.0000 0.0000
# 5 0.0000 0.0000 0.0000 0.0000 20.6165 0.0000
# 6 0.0000 0.0000 0.0000 0.0000 0.0000 34.4567
#
#
#
# Elastic Compliance Matrix: (Units=1/GPa)
#
#
# Indices 1 2 3 4 5 6 
#
# 1 0.009043 -0.002751 -0.003752 0.000000 0.000000 0.000000
# 2 -0.002751 0.010806 -0.003552 0.000000 0.000000 0.000000
# 3 -0.003752 -0.003552 0.011219 0.000000 0.000000 0.000000
# 4 0.000000 0.000000 0.000000 0.028066 0.000000 0.000000
# 5 0.000000 0.000000 0.000000 0.000000 0.048505 0.000000
# 6 0.000000 0.000000 0.000000 0.000000 0.000000 0.029022
#
#
# Mechanical properties :
#
#
# Convention : Reuss Voigt Hill
#
# Bulk Modulus (GPa) = 91.26960 92.63089 91.95024
# Shear Modulus (GPa) = 31.16740 32.94457 32.05598
#
# Velocity S-wave (km/s) = 3.92169 4.03195 3.97720
# Velocity P-wave (km/s) = 8.09590 8.20881 8.15255
#
# Compressibility (1/GPa) = 0.01095655
#
# Stress axis : x y z
#
# Youngs Moduli (GPa) = 110.58596 92.53857 89.13632
#
# Poissons Ratio (x) = 0.25460 0.33443
# Poissons Ratio (y) = 0.30426 0.31665
# Poissons Ratio (z) = 0.41491 0.32874
#
# Static dielectric constant tensor:
#      x y z
#    x 4.022960 0.000000 0.000000 
#    y 0.000000 3.710530 0.000000 
#    z 0.000000 0.000000 3.109600 
# 
# 
# High freq. dielectric constant tensor:
#      x y z
#    x 1.812520 0.000000 0.000000 
#    y 0.000000 1.794500 0.000000 
#    z 0.000000 0.000000 1.784040 
# 
# From -- ./inp_files/50338.got.cif
#   From: 2010.03.12/outbox.cif.g09.slc.cpg/sg64_26_cif.got.tgz:50338.got - 2010.04.10 20:19:32.
