data_PCOD8264122
_publ_section_title
;
Structure prediction by ZEFSAII (Michael W. Deem and Ramdas Pophale) SiO2 
 PCOD8264122
Probable space group: C M C A
;
_chemical_formula_sum "Si O2"
_cell_formula_units_Z 64
_cell_length_a 13.316495
_cell_length_b 12.461670
_cell_length_c 14.785751
_cell_angle_alpha 90.000000
_cell_angle_beta 90.000000
_cell_angle_gamma 90.000000
_cell_volume 2453.632779
_symmetry_space_group_name_H-M "C M C A"
_symmetry_group_IT_number 64
_symmetry_cell_setting 'orthorhombic'
loop_
_space_group_symop_operation_xyz
x,y,z
-x,1/2-y,1/2+z
x,-y,-z
-x,1/2+y,1/2-z
-x,-y,-z
x,1/2+y,1/2-z
-x,y,z
x,1/2-y,1/2+z
1/2+x,1/2+y,z
1/2-x,-y,1/2+z
1/2+x,1/2-y,-z
1/2-x,y,1/2-z
1/2-x,1/2-y,-z
1/2+x,y,1/2-z
1/2-x,1/2+y,z
1/2+x,-y,1/2+z
loop_
_atom_site_type_symbol
_atom_site_label
_atom_site_fract_x
_atom_site_fract_y
_atom_site_fract_z
Si Si1 0.618243 0.677557 0.209540
Si Si2 0.610071 0.472334 0.103554
Si Si3 0.118179 0.389534 0.901708
Si Si4 0.308335 0.130228 0.907360
O O1 0.500000 0.664447 0.215423
O O2 0.657691 0.576505 0.151815
O O3 0.662445 0.669792 0.311781
O O4 0.643637 0.789282 0.163374
O O5 0.500000 0.437368 0.142205
O O6 0.689431 0.376305 0.115126
O O7 0.598233 0.500000 0.000000
O O8 0.137205 0.516281 0.894136
O O9 0.000000 0.368827 0.913276
O O10 0.174693 0.335925 0.987660
#
# Coordination Sequence:
#
# PCOD8264122 Si02
#       4
#    16  16  16  16
#     4  10  23  44  72 106 148 194 241 299 374 450
#     4  10  22  45  71 103 149 191 241 307 372 431
#     4  10  21  42  71 111 149 187 243 306 372 438
#     4  11  21  45  76 105 142 197 250 303 362 444
#
# _framework density 26.083772
#
# number of rings (size 3 to 8) (size 9 to 14) (size 15 to 20)
#    0.000    1.750    2.500    3.000    0.000    2.000 
#    4.500    2.500    0.000    7.500    0.000    0.000 
#    0.000    0.000    0.000    0.000    0.000    0.000 
#
# Total GULP energy -396903.377959 kJ/mol
# GULP energy per Si atom -12403.230561 kJ/mol
# Density = 2.602440 g / cm^3
# Si number density = 26.083772 Si / 1000 Ang^3
#
#
#
# Elastic Constant Matrix: (Units=GPa)
#
#
# Indices 1 2 3 4 5 6 
#
# 1 73.6309 28.7168 43.4576 0.0000 0.0000 0.0000
# 2 28.7168 78.1828 93.3756 0.0000 0.0000 0.0000
# 3 43.4576 93.3756 198.2845 0.0000 0.0000 0.0000
# 4 0.0000 0.0000 0.0000 41.4064 0.0000 0.0000
# 5 0.0000 0.0000 0.0000 0.0000 818.0055 0.0000
# 6 0.0000 0.0000 0.0000 0.0000 0.0000 32.9303
#
#
#
# Elastic Compliance Matrix: (Units=1/GPa)
#
#
# Indices 1 2 3 4 5 6 
#
# 1 0.016099 -0.003883 -0.001700 0.000000 0.000000 0.000000
# 2 -0.003883 0.030167 -0.013355 0.000000 0.000000 0.000000
# 3 -0.001700 -0.013355 0.011705 0.000000 0.000000 0.000000
# 4 0.000000 0.000000 0.000000 0.024151 0.000000 0.000000
# 5 0.000000 0.000000 0.000000 0.000000 0.001222 0.000000
# 6 0.000000 0.000000 0.000000 0.000000 0.000000 0.030367
#
#
# Mechanical properties :
#
#
# Convention : Reuss Voigt Hill
#
# Bulk Modulus (GPa) = 49.76365 75.68867 62.72616
# Shear Modulus (GPa) = 31.58832 190.77167 111.18000
#
# Velocity S-wave (km/s) = 3.48377 8.56136 6.53580
# Velocity P-wave (km/s) = 5.94155 11.26098 9.00310
#
# Compressibility (1/GPa) = 0.02009499
#
# Stress axis : x y z
#
# Youngs Moduli (GPa) = 62.11597 33.14843 85.43355
#
# Poissons Ratio (x) = 0.12872 0.14521
# Poissons Ratio (y) = 0.24121 1.14099
# Poissons Ratio (z) = 0.10558 0.44271
#
# Static dielectric constant tensor:
#      x y z
#    x 5.405790 0.000000 0.000000 
#    y 0.000000 4.334210 0.000000 
#    z 0.000000 0.000000 5.166660 
# 
# 
# High freq. dielectric constant tensor:
#      x y z
#    x 2.072780 0.000000 0.000000 
#    y 0.000000 2.030790 0.000000 
#    z 0.000000 0.000000 2.053780 
# 
# From -- ./inp_files/23248.got.cif
#   From: 2010.03.12/outbox.cif.g09.slc.cpg/sg64_12_cif.got.tgz:23248.got - 2010.04.10 20:19:32.
