data_PCOD8264331
_publ_section_title
;
Structure prediction by ZEFSAII (Michael W. Deem and Ramdas Pophale) SiO2 
 PCOD8264331
Probable space group: C M C A
;
_chemical_formula_sum "Si O2"
_cell_formula_units_Z 48
_cell_length_a 16.737998
_cell_length_b 26.144021
_cell_length_c 4.900523
_cell_angle_alpha 90.000000
_cell_angle_beta 90.000000
_cell_angle_gamma 90.000000
_cell_volume 2144.461863
_symmetry_space_group_name_H-M "C M C A"
_symmetry_group_IT_number 64
_symmetry_cell_setting 'orthorhombic'
loop_
_space_group_symop_operation_xyz
x,y,z
-x,1/2-y,1/2+z
x,-y,-z
-x,1/2+y,1/2-z
-x,-y,-z
x,1/2+y,1/2-z
-x,y,z
x,1/2-y,1/2+z
1/2+x,1/2+y,z
1/2-x,-y,1/2+z
1/2+x,1/2-y,-z
1/2-x,y,1/2-z
1/2-x,1/2-y,-z
1/2+x,y,1/2-z
1/2-x,1/2+y,z
1/2+x,-y,1/2+z
loop_
_atom_site_type_symbol
_atom_site_label
_atom_site_fract_x
_atom_site_fract_y
_atom_site_fract_z
Si Si1 0.087948 0.965022 0.745700
Si Si2 0.591897 0.783733 0.450465
Si Si3 0.801722 0.622162 0.492519
O O1 0.149529 0.921573 0.833728
O O2 0.000000 0.942387 0.658762
O O3 0.123428 0.000000 0.500000
O O4 0.073064 0.000000 0.000000
O O5 0.500000 0.799941 0.420733
O O6 0.613050 0.737641 0.247219
O O7 0.641696 0.834324 0.383198
O O8 0.750000 0.647131 0.250000
O O9 0.750000 0.600796 0.750000
#
# Coordination Sequence:
#
# PCOD8264331 Si02
#       3
#    16  16  16
#     4  10  22  42  66  89 118 161 212 262 311 372
#     4  10  22  41  64  89 122 167 215 260 306 367
#     4  12  25  39  61  94 130 165 203 257 324 385
#
# _framework density 22.383239
#
# number of rings (size 3 to 8) (size 9 to 14) (size 15 to 20)
#    0.000    1.333    0.000    5.000    0.000    6.667 
#    0.000   13.333    0.000    0.000    0.000    0.000 
#    0.000    0.000    0.000    0.000    0.000    0.000 
#
# Total GULP energy -297523.780317 kJ/mol
# GULP energy per Si atom -12396.824180 kJ/mol
# Density = 2.233229 g / cm^3
# Si number density = 22.383239 Si / 1000 Ang^3
#
#
#
# Elastic Constant Matrix: (Units=GPa)
#
#
# Indices 1 2 3 4 5 6 
#
# 1 110.6708 73.8419 51.7462 0.0000 0.0000 0.0000
# 2 73.8419 108.5445 33.4173 0.0000 0.0000 0.0000
# 3 51.7462 33.4173 128.4263 0.0000 0.0000 0.0000
# 4 0.0000 0.0000 0.0000 9.4045 0.0000 0.0000
# 5 0.0000 0.0000 0.0000 0.0000 39.3113 0.0000
# 6 0.0000 0.0000 0.0000 0.0000 0.0000 -27.1535
#
#
#
# Elastic Compliance Matrix: (Units=1/GPa)
#
#
# Indices 1 2 3 4 5 6 
#
# 1 0.018758 -0.011342 -0.004607 0.000000 0.000000 0.000000
# 2 -0.011342 0.016874 0.000180 0.000000 0.000000 0.000000
# 3 -0.004607 0.000180 0.009596 0.000000 0.000000 0.000000
# 4 0.000000 0.000000 0.000000 0.106332 0.000000 0.000000
# 5 0.000000 0.000000 0.000000 0.000000 0.025438 0.000000
# 6 0.000000 0.000000 0.000000 0.000000 0.000000 -0.036828
#
#
# Mechanical properties :
#
#
# Convention : Reuss Voigt Hill
#
# Bulk Modulus (GPa) = 73.05492 73.96137 73.50814
# Shear Modulus (GPa) = 28.36541 16.88820 22.62680
#
# Velocity S-wave (km/s) = 3.56372 2.74980 3.18289
# Velocity P-wave (km/s) = 7.04575 6.57243 6.81320
#
# Compressibility (1/GPa) = 0.01368833
#
# Stress axis : x y z
#
# Youngs Moduli (GPa) = 53.31177 59.26387 104.21060
#
# Poissons Ratio (x) = 0.67220 0.48005
# Poissons Ratio (y) = 0.60468 -0.01871
# Poissons Ratio (z) = 0.24558 -0.01064
#
# Static dielectric constant tensor:
#      x y z
#    x 4.329290 0.000000 0.000000 
#    y 0.000000 3.566940 0.000000 
#    z 0.000000 0.000000 4.150460 
# 
# 
# High freq. dielectric constant tensor:
#      x y z
#    x 1.891460 0.000000 0.000000 
#    y 0.000000 1.862540 0.000000 
#    z 0.000000 0.000000 1.901490 
# 
# From -- ./inp_files/650.got.cif
#   From: 2010.03.12/outbox.cif.g09.slc.cpg/sg64_1_cif.got.tgz:650.got - 2010.04.10 20:19:32.
