data_PCOD8264400
_publ_section_title
;
Structure prediction by ZEFSAII (Michael W. Deem and Ramdas Pophale) SiO2 
 PCOD8264400
Probable space group: C M C A
;
_chemical_formula_sum "Si O2"
_cell_formula_units_Z 80
_cell_length_a 15.525533
_cell_length_b 26.602522
_cell_length_c 9.046563
_cell_angle_alpha 90.000000
_cell_angle_beta 90.000000
_cell_angle_gamma 90.000000
_cell_volume 3736.396371
_symmetry_space_group_name_H-M "C M C A"
_symmetry_group_IT_number 64
_symmetry_cell_setting 'orthorhombic'
loop_
_space_group_symop_operation_xyz
x,y,z
-x,1/2-y,1/2+z
x,-y,-z
-x,1/2+y,1/2-z
-x,-y,-z
x,1/2+y,1/2-z
-x,y,z
x,1/2-y,1/2+z
1/2+x,1/2+y,z
1/2-x,-y,1/2+z
1/2+x,1/2-y,-z
1/2-x,y,1/2-z
1/2-x,1/2-y,-z
1/2+x,y,1/2-z
1/2-x,1/2+y,z
1/2+x,-y,1/2+z
loop_
_atom_site_type_symbol
_atom_site_label
_atom_site_fract_x
_atom_site_fract_y
_atom_site_fract_z
Si Si1 0.749076 0.106841 0.589533
Si Si2 0.902593 0.554287 0.432217
Si Si3 0.098211 0.791142 0.781636
Si Si4 0.315516 0.714379 0.923306
Si Si5 0.099114 0.104028 0.367238
O O1 0.750000 0.079529 0.750000
O O2 0.664549 0.092009 0.501434
O O3 0.738280 0.165588 0.621041
O O4 0.837033 0.092629 0.503385
O O5 0.882285 0.500000 0.500000
O O6 0.891884 0.559081 0.254030
O O7 0.000000 0.570731 0.474526
O O8 0.149108 0.742429 0.722180
O O9 0.128530 0.842869 0.703421
O O10 0.000000 0.781443 0.743830
O O11 0.109383 0.797091 0.957596
O O12 0.250000 0.750000 0.000000
O O13 0.000000 0.106277 0.424543
#
# Coordination Sequence:
#
# PCOD8264400 Si02
#       5
#    16  16  16  16  16
#     4  12  25  40  64  99 137 184 224 277 336 402
#     4  10  23  45  73 100 128 169 226 288 346 406
#     4  11  23  39  60  88 127 177 227 276 332 394
#     4  12  23  38  58  90 131 174 223 278 327 392
#     4  10  22  43  68  95 132 179 227 279 340 402
#
# _framework density 21.411003999999998
#
# number of rings (size 3 to 8) (size 9 to 14) (size 15 to 20)
#    0.000    1.000    4.000    3.000    0.000    3.200 
#    0.000    0.000    0.000    4.200    0.000    0.000 
#    0.000    0.000    0.000    0.000    0.000    0.000 
#
# Total GULP energy -495847.329272 kJ/mol
# GULP energy per Si atom -12396.183232 kJ/mol
# Density = 2.136227 g / cm^3
# Si number density = 21.411004 Si / 1000 Ang^3
#
#
#
# Elastic Constant Matrix: (Units=GPa)
#
#
# Indices 1 2 3 4 5 6 
#
# 1 102.0863 40.9127 54.9636 0.0000 0.0000 0.0000
# 2 40.9127 75.6209 28.8120 0.0000 0.0000 0.0000
# 3 54.9636 28.8120 138.5982 0.0000 0.0000 0.0000
# 4 0.0000 0.0000 0.0000 32.8767 0.0000 0.0000
# 5 0.0000 0.0000 0.0000 0.0000 36.3379 0.0000
# 6 0.0000 0.0000 0.0000 0.0000 0.0000 22.9438
#
#
#
# Elastic Compliance Matrix: (Units=1/GPa)
#
#
# Indices 1 2 3 4 5 6 
#
# 1 0.014749 -0.006246 -0.004551 0.000000 0.000000 0.000000
# 2 -0.006246 0.017006 -0.001058 0.000000 0.000000 0.000000
# 3 -0.004551 -0.001058 0.009240 0.000000 0.000000 0.000000
# 4 0.000000 0.000000 0.000000 0.030417 0.000000 0.000000
# 5 0.000000 0.000000 0.000000 0.000000 0.027519 0.000000
# 6 0.000000 0.000000 0.000000 0.000000 0.000000 0.043585
#
#
# Mechanical properties :
#
#
# Convention : Reuss Voigt Hill
#
# Bulk Modulus (GPa) = 57.85225 62.85354 60.35290
# Shear Modulus (GPa) = 29.07207 31.20615 30.13911
#
# Velocity S-wave (km/s) = 3.68884 3.82184 3.75593
# Velocity P-wave (km/s) = 6.72473 6.99248 6.85991
#
# Compressibility (1/GPa) = 0.01728541
#
# Stress axis : x y z
#
# Youngs Moduli (GPa) = 67.80276 58.80223 108.22839
#
# Poissons Ratio (x) = 0.36726 0.49249
# Poissons Ratio (y) = 0.42347 0.11455
# Poissons Ratio (z) = 0.30854 0.06224
#
# Static dielectric constant tensor:
#      x y z
#    x 3.777790 0.000000 0.000000 
#    y 0.000000 3.704050 0.000000 
#    z 0.000000 0.000000 4.856230 
# 
# 
# High freq. dielectric constant tensor:
#      x y z
#    x 1.850440 0.000000 0.000000 
#    y 0.000000 1.824690 0.000000 
#    z 0.000000 0.000000 1.843180 
# 
# From -- ./inp_files/7108.got.cif
#   From: 2010.03.12/outbox.cif.g09.slc.cpg/sg64_4_cif.got.tgz:7108.got - 2010.04.10 20:19:32.
