data_PCOD8264114
_publ_section_title
;
Structure prediction by ZEFSAII (Michael W. Deem and Ramdas Pophale) SiO2 
 PCOD8264114
Probable space group: C M C A
;
_chemical_formula_sum "Si O2"
_cell_formula_units_Z 88
_cell_length_a 26.085265
_cell_length_b 16.701324
_cell_length_c 9.816906
_cell_angle_alpha 90.000000
_cell_angle_beta 90.000000
_cell_angle_gamma 90.000000
_cell_volume 4276.818173
_symmetry_space_group_name_H-M "C M C A"
_symmetry_group_IT_number 64
_symmetry_cell_setting 'orthorhombic'
loop_
_space_group_symop_operation_xyz
x,y,z
-x,1/2-y,1/2+z
x,-y,-z
-x,1/2+y,1/2-z
-x,-y,-z
x,1/2+y,1/2-z
-x,y,z
x,1/2-y,1/2+z
1/2+x,1/2+y,z
1/2-x,-y,1/2+z
1/2+x,1/2-y,-z
1/2-x,y,1/2-z
1/2-x,1/2-y,-z
1/2+x,y,1/2-z
1/2-x,1/2+y,z
1/2+x,-y,1/2+z
loop_
_atom_site_type_symbol
_atom_site_label
_atom_site_fract_x
_atom_site_fract_y
_atom_site_fract_z
Si Si1 0.894504 0.928832 0.905888
Si Si2 0.691482 0.301077 0.242447
Si Si3 0.373844 0.500000 0.500000
Si Si4 0.628568 0.244456 0.504892
Si Si5 0.692097 0.986611 0.263598
Si Si6 0.439765 0.374035 0.618927
O O1 0.926378 0.909646 0.768405
O O2 0.836929 0.959903 0.875172
O O3 0.890606 0.846018 0.985911
O O4 0.920404 0.000000 0.000000
O O5 0.750000 0.272269 0.250000
O O6 0.654393 0.284119 0.371604
O O7 0.672290 0.248568 0.117461
O O8 0.689698 0.393573 0.198845
O O9 0.336171 0.499892 0.624292
O O10 0.411556 0.424703 0.502181
O O11 0.579534 0.285974 0.577442
O O12 0.750000 0.017987 0.250000
O O13 0.500000 0.377048 0.599818
#
# Coordination Sequence:
#
# PCOD8264114 Si02
#       6
#    16  16   8  16  16  16
#     4  11  24  43  68  96 137 173 226 283 330 402
#     4  11  23  40  65  98 139 184 225 274 344 409
#     4  10  21  42  64  94 130 166 227 276 326 408
#     4  12  23  44  65 101 138 174 227 285 336 411
#     4  10  22  37  64  96 134 180 219 265 328 405
#     4  11  25  45  69  95 126 176 230 287 348 398
#
# _framework density 20.576044
#
# number of rings (size 3 to 8) (size 9 to 14) (size 15 to 20)
#    0.000    1.091    5.455    0.818    1.273    1.818 
#    0.000    0.000    0.000    0.000    0.000    0.000 
#    0.000    0.000    0.000    0.000    0.000    0.000 
#
# Total GULP energy -545193.320019 kJ/mol
# GULP energy per Si atom -12390.757273 kJ/mol
# Density = 2.052921 g / cm^3
# Si number density = 20.576044 Si / 1000 Ang^3
#
#
#
# Elastic Constant Matrix: (Units=GPa)
#
#
# Indices 1 2 3 4 5 6 
#
# 1 146.2998 51.6327 40.8555 0.0000 0.0000 0.0000
# 2 51.6327 111.3269 49.0583 0.0000 0.0000 0.0000
# 3 40.8555 49.0583 81.2492 0.0000 0.0000 0.0000
# 4 0.0000 0.0000 0.0000 32.4002 0.0000 0.0000
# 5 0.0000 0.0000 0.0000 0.0000-1388.1285 0.0000
# 6 0.0000 0.0000 0.0000 0.0000 0.0000 -128.3775
#
#
#
# Elastic Compliance Matrix: (Units=1/GPa)
#
#
# Indices 1 2 3 4 5 6 
#
# 1 0.008557 -0.002824 -0.002598 0.000000 0.000000 0.000000
# 2 -0.002824 0.013171 -0.006533 0.000000 0.000000 0.000000
# 3 -0.002598 -0.006533 0.017559 0.000000 0.000000 0.000000
# 4 0.000000 0.000000 0.000000 0.030864 0.000000 0.000000
# 5 0.000000 0.000000 0.000000 0.000000 -0.000720 0.000000
# 6 0.000000 0.000000 0.000000 0.000000 0.000000 -0.007790
#
#
# Mechanical properties :
#
#
# Convention : Reuss Voigt Hill
#
# Bulk Modulus (GPa) = 65.02840 69.10767 67.06803
# Shear Modulus (GPa) = 55.14123 -283.66588 -114.26232
#
# Velocity S-wave (km/s) = 5.18237 -11.75421 -7.46005
# Velocity P-wave (km/s) = 8.21473 12.27012 6.44493
#
# Compressibility (1/GPa) = 0.01537790
#
# Stress axis : x y z
#
# Youngs Moduli (GPa) = 116.85734 75.92391 56.95238
#
# Poissons Ratio (x) = 0.21442 0.14795
# Poissons Ratio (y) = 0.33002 0.37205
# Poissons Ratio (z) = 0.30358 0.49598
#
# Static dielectric constant tensor:
#      x y z
#    x 3.699040 0.000000 0.000000 
#    y 0.000000 3.814550 0.000000 
#    z 0.000000 0.000000 4.141850 
# 
# 
# High freq. dielectric constant tensor:
#      x y z
#    x 1.793070 0.000000 0.000000 
#    y 0.000000 1.814900 0.000000 
#    z 0.000000 0.000000 1.816300 
# 
# From -- ./inp_files/18222.got.cif
#   From: 2010.03.12/outbox.cif.g09.slc.cpg/sg64_10_cif.got.tgz:18222.got - 2010.04.10 20:19:32.
