data_PCOD8264192
_publ_section_title
;
Structure prediction by ZEFSAII (Michael W. Deem and Ramdas Pophale) SiO2 
 PCOD8264192
Probable space group: C M C A
;
_chemical_formula_sum "Si O2"
_cell_formula_units_Z 96
_cell_length_a 16.964186
_cell_length_b 24.568726
_cell_length_c 11.855720
_cell_angle_alpha 90.000000
_cell_angle_beta 90.000000
_cell_angle_gamma 90.000000
_cell_volume 4941.327016
_symmetry_space_group_name_H-M "C M C A"
_symmetry_group_IT_number 64
_symmetry_cell_setting 'orthorhombic'
loop_
_space_group_symop_operation_xyz
x,y,z
-x,1/2-y,1/2+z
x,-y,-z
-x,1/2+y,1/2-z
-x,-y,-z
x,1/2+y,1/2-z
-x,y,z
x,1/2-y,1/2+z
1/2+x,1/2+y,z
1/2-x,-y,1/2+z
1/2+x,1/2-y,-z
1/2-x,y,1/2-z
1/2-x,1/2-y,-z
1/2+x,y,1/2-z
1/2-x,1/2+y,z
1/2+x,-y,1/2+z
loop_
_atom_site_type_symbol
_atom_site_label
_atom_site_fract_x
_atom_site_fract_y
_atom_site_fract_z
Si Si1 0.589534 0.824219 0.361337
Si Si2 0.086608 0.288854 0.750115
Si Si3 0.406854 0.395955 0.347187
Si Si4 0.346340 0.124891 0.093264
Si Si5 0.795977 0.801755 0.948132
Si Si6 0.587048 0.013945 0.129429
O O1 0.500000 0.842139 0.392440
O O2 0.593751 0.760796 0.335706
O O3 0.621486 0.858141 0.254767
O O4 0.648707 0.834028 0.464299
O O5 0.094549 0.341902 0.827412
O O6 0.151227 0.280456 0.654116
O O7 0.000000 0.289688 0.692770
O O8 0.500000 0.393429 0.364675
O O9 0.369486 0.373290 0.461987
O O10 0.380943 0.457922 0.314556
O O11 0.350223 0.063144 0.142430
O O12 0.260747 0.152066 0.103421
O O13 0.750000 0.750000 0.000000
O O14 0.500000 0.030305 0.177740
O O15 0.575437 0.000000 0.000000
#
# Coordination Sequence:
#
# PCOD8264192 Si02
#       6
#    16  16  16  16  16  16
#     4  10  22  38  59  84 114 157 198 232 282 351
#     4  11  23  38  58  84 114 152 198 238 282 346
#     4   9  18  35  61  89 116 149 195 244 287 337
#     4  11  20  33  60  87 117 150 186 239 297 339
#     4  12  24  38  55  81 124 156 188 232 294 349
#     4   8  15  31  57  87 113 144 192 242 286 333
#
# _framework density 19.427980000000002
#
# number of rings (size 3 to 8) (size 9 to 14) (size 15 to 20)
#    0.000    1.833    1.667    4.500    0.000    2.000 
#    0.000    0.000   22.000    0.000    0.000    4.667 
#    0.000    0.000    0.000    0.000    0.000    0.000 
#
# Total GULP energy -594978.208972 kJ/mol
# GULP energy per Si atom -12395.379354 kJ/mol
# Density = 1.938376 g / cm^3
# Si number density = 19.427980 Si / 1000 Ang^3
#
#
#
# Elastic Constant Matrix: (Units=GPa)
#
#
# Indices 1 2 3 4 5 6 
#
# 1 95.6503 28.9024 27.0090 0.0000 0.0000 0.0000
# 2 28.9024 103.6960 18.5811 0.0000 0.0000 0.0000
# 3 27.0090 18.5811 51.0396 0.0000 0.0000 0.0000
# 4 0.0000 0.0000 0.0000 26.1623 0.0000 0.0000
# 5 0.0000 0.0000 0.0000 0.0000 38.2206 0.0000
# 6 0.0000 0.0000 0.0000 0.0000 0.0000 24.1947
#
#
#
# Elastic Compliance Matrix: (Units=1/GPa)
#
#
# Indices 1 2 3 4 5 6 
#
# 1 0.012886 -0.002535 -0.005896 0.000000 0.000000 0.000000
# 2 -0.002535 0.010815 -0.002596 0.000000 0.000000 0.000000
# 3 -0.005896 -0.002596 0.023658 0.000000 0.000000 0.000000
# 4 0.000000 0.000000 0.000000 0.038223 0.000000 0.000000
# 5 0.000000 0.000000 0.000000 0.000000 0.026164 0.000000
# 6 0.000000 0.000000 0.000000 0.000000 0.000000 0.041331
#
#
# Mechanical properties :
#
#
# Convention : Reuss Voigt Hill
#
# Bulk Modulus (GPa) = 39.51792 44.37456 41.94624
# Shear Modulus (GPa) = 27.23827 29.44175 28.34001
#
# Velocity S-wave (km/s) = 3.74841 3.89708 3.82346
# Velocity P-wave (km/s) = 6.25452 6.56808 6.41322
#
# Compressibility (1/GPa) = 0.02530497
#
# Stress axis : x y z
#
# Youngs Moduli (GPa) = 77.60611 92.46172 42.26971
#
# Poissons Ratio (x) = 0.23439 0.24922
# Poissons Ratio (y) = 0.19673 0.10973
# Poissons Ratio (z) = 0.45756 0.24002
#
# Static dielectric constant tensor:
#      x y z
#    x 3.605590 0.000000 0.000000 
#    y 0.000000 4.097670 0.000000 
#    z 0.000000 0.000000 3.383530 
# 
# 
# High freq. dielectric constant tensor:
#      x y z
#    x 1.749750 0.000000 0.000000 
#    y 0.000000 1.758780 0.000000 
#    z 0.000000 0.000000 1.737050 
# 
# From -- ./inp_files/16209.got.cif
#   From: 2010.03.12/outbox.cif.g09.slc.cpg/sg64_9_cif.got.tgz:16209.got - 2010.04.10 20:19:32.
