data_PCOD8264188
_publ_section_title
;
Structure prediction by ZEFSAII (Michael W. Deem and Ramdas Pophale) SiO2 
 PCOD8264188
Probable space group: C M C A
;
_chemical_formula_sum "Si O2"
_cell_formula_units_Z 80
_cell_length_a 13.903100
_cell_length_b 13.124776
_cell_length_c 21.423676
_cell_angle_alpha 90.000000
_cell_angle_beta 90.000000
_cell_angle_gamma 90.000000
_cell_volume 3909.286846
_symmetry_space_group_name_H-M "C M C A"
_symmetry_group_IT_number 64
_symmetry_cell_setting 'orthorhombic'
loop_
_space_group_symop_operation_xyz
x,y,z
-x,1/2-y,1/2+z
x,-y,-z
-x,1/2+y,1/2-z
-x,-y,-z
x,1/2+y,1/2-z
-x,y,z
x,1/2-y,1/2+z
1/2+x,1/2+y,z
1/2-x,-y,1/2+z
1/2+x,1/2-y,-z
1/2-x,y,1/2-z
1/2-x,1/2-y,-z
1/2+x,y,1/2-z
1/2-x,1/2+y,z
1/2+x,-y,1/2+z
loop_
_atom_site_type_symbol
_atom_site_label
_atom_site_fract_x
_atom_site_fract_y
_atom_site_fract_z
Si Si1 0.250000 0.237625 0.750000
Si Si2 0.608185 0.414965 0.238598
Si Si3 0.892273 0.848825 0.556756
Si Si4 0.388417 0.884491 0.407217
Si Si5 0.392833 0.382070 0.692917
Si Si6 0.745680 0.500000 0.000000
O O1 0.328832 0.161974 0.781292
O O2 0.307451 0.301118 0.698829
O O3 0.500000 0.388106 0.254629
O O4 0.633596 0.398885 0.166006
O O5 0.632434 0.528924 0.259163
O O6 0.865908 0.730882 0.570609
O O7 0.892466 0.914497 0.620872
O O8 0.000000 0.855314 0.526877
O O9 0.812691 0.901700 0.513605
O O10 0.500000 0.910580 0.420215
O O11 0.322608 0.966529 0.443017
O O12 0.500000 0.336570 0.708509
#
# Coordination Sequence:
#
# PCOD8264188 Si02
#       6
#     8  16  16  16  16   8
#     4  12  20  32  64  86 116 146 196 222 290 348
#     4  10  22  38  58  87 121 153 186 231 290 350
#     4  10  22  42  61  83 120 156 189 240 299 342
#     4  10  22  42  61  83 120 156 189 240 299 342
#     4  10  22  38  58  87 121 153 186 231 290 350
#     4  12  24  36  66  88 108 148 216 246 272 340
#
# _framework density 20.464092000000001
#
# number of rings (size 3 to 8) (size 9 to 14) (size 15 to 20)
#    0.000    1.600    2.000    2.400    5.600    0.000 
#    0.000    0.000    0.000    0.000    0.000    0.000 
#    0.000    0.000    0.000    0.000    0.000    0.000 
#
# Total GULP energy -495585.334660 kJ/mol
# GULP energy per Si atom -12389.633367 kJ/mol
# Density = 2.041751 g / cm^3
# Si number density = 20.464092 Si / 1000 Ang^3
#
#
#
# Elastic Constant Matrix: (Units=GPa)
#
#
# Indices 1 2 3 4 5 6 
#
# 1 133.2701 62.5443 41.3560 0.0000 0.0000 0.0000
# 2 62.5443 89.2653 31.7514 0.0000 0.0000 0.0000
# 3 41.3560 31.7514 45.3150 0.0000 0.0000 0.0000
# 4 0.0000 0.0000 0.0000 42.8727 0.0000 0.0000
# 5 0.0000 0.0000 0.0000 0.0000 25.5811 0.0000
# 6 0.0000 0.0000 0.0000 0.0000 0.0000 47.0735
#
#
#
# Elastic Compliance Matrix: (Units=1/GPa)
#
#
# Indices 1 2 3 4 5 6 
#
# 1 0.012704 -0.006363 -0.007136 0.000000 0.000000 0.000000
# 2 -0.006363 0.018108 -0.006881 0.000000 0.000000 0.000000
# 3 -0.007136 -0.006881 0.033402 0.000000 0.000000 0.000000
# 4 0.000000 0.000000 0.000000 0.023325 0.000000 0.000000
# 5 0.000000 0.000000 0.000000 0.000000 0.039091 0.000000
# 6 0.000000 0.000000 0.000000 0.000000 0.000000 0.021243
#
#
# Mechanical properties :
#
#
# Convention : Reuss Voigt Hill
#
# Bulk Modulus (GPa) = 42.63611 59.90596 51.27104
# Shear Modulus (GPa) = 25.45155 31.91870 28.68512
#
# Velocity S-wave (km/s) = 3.53046 3.95364 3.74803
# Velocity P-wave (km/s) = 6.12362 7.08371 6.62109
#
# Compressibility (1/GPa) = 0.02345430
#
# Stress axis : x y z
#
# Youngs Moduli (GPa) = 78.71468 55.22273 29.93870
#
# Poissons Ratio (x) = 0.35139 0.21363
# Poissons Ratio (y) = 0.50087 0.20601
# Poissons Ratio (z) = 0.56169 0.38000
#
# Static dielectric constant tensor:
#      x y z
#    x 3.986910 0.000000 0.000000 
#    y 0.000000 3.782610 0.000000 
#    z 0.000000 0.000000 3.219500 
# 
# 
# High freq. dielectric constant tensor:
#      x y z
#    x 1.825110 0.000000 0.000000 
#    y 0.000000 1.803170 0.000000 
#    z 0.000000 0.000000 1.764830 
# 
# From -- ./inp_files/44982.got.cif
#   From: 2010.03.12/outbox.cif.g09.slc.cpg/sg64_23_cif.got.tgz:44982.got - 2010.04.10 20:19:32.
