data_PCOD8264561
_publ_section_title
;
Structure prediction by ZEFSAII (Michael W. Deem and Ramdas Pophale) SiO2 
 PCOD8264561
Probable space group: C M C A
;
_chemical_formula_sum "Si O2"
_cell_formula_units_Z 96
_cell_length_a 14.392549
_cell_length_b 15.399948
_cell_length_c 21.924479
_cell_angle_alpha 90.000000
_cell_angle_beta 90.000000
_cell_angle_gamma 90.000000
_cell_volume 4859.440321
_symmetry_space_group_name_H-M "C M C A"
_symmetry_group_IT_number 64
_symmetry_cell_setting 'orthorhombic'
loop_
_space_group_symop_operation_xyz
x,y,z
-x,1/2-y,1/2+z
x,-y,-z
-x,1/2+y,1/2-z
-x,-y,-z
x,1/2+y,1/2-z
-x,y,z
x,1/2-y,1/2+z
1/2+x,1/2+y,z
1/2-x,-y,1/2+z
1/2+x,1/2-y,-z
1/2-x,y,1/2-z
1/2-x,1/2-y,-z
1/2+x,y,1/2-z
1/2-x,1/2+y,z
1/2+x,-y,1/2+z
loop_
_atom_site_type_symbol
_atom_site_label
_atom_site_fract_x
_atom_site_fract_y
_atom_site_fract_z
Si Si1 0.753029 0.862435 0.884853
Si Si2 0.837947 0.526275 0.292025
Si Si3 0.395549 0.899144 0.988492
Si Si4 0.902040 0.173084 0.288997
Si Si5 0.643221 0.648871 0.740779
Si Si6 0.393893 0.295660 0.389990
O O1 0.805674 0.951263 0.861861
O O2 0.687479 0.875822 0.942596
O O3 0.687754 0.833049 0.829940
O O4 0.828099 0.787959 0.895205
O O5 0.750000 0.508617 0.250000
O O6 0.895705 0.608514 0.268696
O O7 0.891954 0.434745 0.281201
O O8 0.500000 0.872386 0.965287
O O9 0.371510 0.852946 0.051381
O O10 0.393404 0.000000 0.000000
O O11 0.914531 0.269419 0.263751
O O12 0.000000 0.151101 0.323168
O O13 0.750000 0.670669 0.750000
O O14 0.624290 0.641199 0.668056
O O15 0.500000 0.262717 0.390161
#
# Coordination Sequence:
#
# PCOD8264561 Si02
#       6
#    16  16  16  16  16  16
#     4  11  21  41  61  88 123 162 205 258 303 368
#     4   9  21  34  56  84 117 162 197 239 303 359
#     4  10  24  41  62  93 120 157 210 259 314 369
#     4  11  21  35  57  88 125 161 197 246 305 369
#     4  11  20  37  58  86 124 161 199 247 305 371
#     4  11  23  40  62  86 119 163 206 253 308 367
#
# _framework density 19.755361000000001
#
# number of rings (size 3 to 8) (size 9 to 14) (size 15 to 20)
#    0.000    1.500    3.333    2.000    7.000    1.333 
#    0.000    0.000    0.000    0.500    0.000    0.000 
#    0.000    0.000    0.000    0.000    0.000    0.000 
#
# Total GULP energy -594670.383360 kJ/mol
# GULP energy per Si atom -12388.966320 kJ/mol
# Density = 1.971040 g / cm^3
# Si number density = 19.755361 Si / 1000 Ang^3
#
#
#
# Elastic Constant Matrix: (Units=GPa)
#
#
# Indices 1 2 3 4 5 6 
#
# 1 110.0693 35.3509 41.5766 0.0000 0.0000 0.0000
# 2 35.3509 117.8211 36.9283 0.0000 0.0000 0.0000
# 3 41.5766 36.9283 114.5305 0.0000 0.0000 0.0000
# 4 0.0000 0.0000 0.0000 28.5628 0.0000 0.0000
# 5 0.0000 0.0000 0.0000 0.0000 39.2303 0.0000
# 6 0.0000 0.0000 0.0000 0.0000 0.0000 1.0297
#
#
#
# Elastic Compliance Matrix: (Units=1/GPa)
#
#
# Indices 1 2 3 4 5 6 
#
# 1 0.011058 -0.002291 -0.003276 0.000000 0.000000 0.000000
# 2 -0.002291 0.009916 -0.002366 0.000000 0.000000 0.000000
# 3 -0.003276 -0.002366 0.010683 0.000000 0.000000 0.000000
# 4 0.000000 0.000000 0.000000 0.035011 0.000000 0.000000
# 5 0.000000 0.000000 0.000000 0.000000 0.025490 0.000000
# 6 0.000000 0.000000 0.000000 0.000000 0.000000 0.971132
#
#
# Mechanical properties :
#
#
# Convention : Reuss Voigt Hill
#
# Bulk Modulus (GPa) = 63.31942 63.34808 63.33375
# Shear Modulus (GPa) = 4.61076 29.00224 16.80650
#
# Velocity S-wave (km/s) = 1.52938 3.83570 2.91989
# Velocity P-wave (km/s) = 5.93633 7.19393 6.59517
#
# Compressibility (1/GPa) = 0.01579294
#
# Stress axis : x y z
#
# Youngs Moduli (GPa) = 90.42925 100.84351 93.60547
#
# Poissons Ratio (x) = 0.23106 0.30661
# Poissons Ratio (y) = 0.20720 0.22143
# Poissons Ratio (z) = 0.29621 0.23855
#
# Static dielectric constant tensor:
#      x y z
#    x 3.735120 0.000000 0.000000 
#    y 0.000000 3.939370 0.000000 
#    z 0.000000 0.000000 3.625170 
# 
# 
# High freq. dielectric constant tensor:
#      x y z
#    x 1.783030 0.000000 0.000000 
#    y 0.000000 1.774090 0.000000 
#    z 0.000000 0.000000 1.747420 
# 
# From -- ./inp_files/39172.got.cif
#   From: 2010.03.12/outbox.cif.g09.slc.cpg/sg64_20_cif.got.tgz:39172.got - 2010.04.10 20:19:32.
