data_PCOD8264915
_publ_section_title
;
Structure prediction by ZEFSAII (Michael W. Deem and Ramdas Pophale) SiO2 
 PCOD8264915
Probable space group: C M C A
;
_chemical_formula_sum "Si O2"
_cell_formula_units_Z 48
_cell_length_a 14.701597
_cell_length_b 8.597456
_cell_length_c 15.856777
_cell_angle_alpha 90.000000
_cell_angle_beta 90.000000
_cell_angle_gamma 90.000000
_cell_volume 2004.238471
_symmetry_space_group_name_H-M "C M C A"
_symmetry_group_IT_number 64
_symmetry_cell_setting 'orthorhombic'
loop_
_space_group_symop_operation_xyz
x,y,z
-x,1/2-y,1/2+z
x,-y,-z
-x,1/2+y,1/2-z
-x,-y,-z
x,1/2+y,1/2-z
-x,y,z
x,1/2-y,1/2+z
1/2+x,1/2+y,z
1/2-x,-y,1/2+z
1/2+x,1/2-y,-z
1/2-x,y,1/2-z
1/2-x,1/2-y,-z
1/2+x,y,1/2-z
1/2-x,1/2+y,z
1/2+x,-y,1/2+z
loop_
_atom_site_type_symbol
_atom_site_label
_atom_site_fract_x
_atom_site_fract_y
_atom_site_fract_z
Si Si1 0.500000 0.218357 0.930756
Si Si2 0.172176 0.082466 0.088420
Si Si3 0.314652 0.265747 0.170960
Si Si4 0.500000 0.865325 0.876731
O O1 0.587592 0.305343 0.894865
O O2 0.500000 0.048503 0.890805
O O3 0.500000 0.220734 0.032637
O O4 0.263988 0.185746 0.090970
O O5 0.174238 0.949985 0.160152
O O6 0.162687 0.000000 0.000000
O O7 0.250000 0.229054 0.250000
O O8 0.413058 0.185517 0.178437
#
# Coordination Sequence:
#
# PCOD8264915 Si02
#       4
#     8  16  16   8
#     4  11  24  44  79 115 144 187 253 311 363 437
#     4  12  24  45  74 112 147 198 247 306 361 441
#     4  12  27  46  73 109 154 198 244 306 377 445
#     4  11  25  47  76 112 149 190 249 309 373 441
#
# _framework density 23.949245000000001
#
# number of rings (size 3 to 8) (size 9 to 14) (size 15 to 20)
#    0.000    0.333    3.333    5.500    4.667    1.333 
#    0.000    6.667    0.000    0.000    0.000    0.000 
#    0.000    0.000    0.000    0.000    0.000    0.000 
#
# Total GULP energy -297757.151620 kJ/mol
# GULP energy per Si atom -12406.547984 kJ/mol
# Density = 2.389474 g / cm^3
# Si number density = 23.949245 Si / 1000 Ang^3
#
#
#
# Elastic Constant Matrix: (Units=GPa)
#
#
# Indices 1 2 3 4 5 6 
#
# 1 231.1054 87.9184 45.5378 0.0000 0.0000 0.0000
# 2 87.9184 164.3252 39.4901 0.0000 0.0000 0.0000
# 3 45.5378 39.4901 61.9433 0.0000 0.0000 0.0000
# 4 0.0000 0.0000 0.0000 29.8070 0.0000 0.0000
# 5 0.0000 0.0000 0.0000 0.0000 40.6110 0.0000
# 6 0.0000 0.0000 0.0000 0.0000 0.0000 50.6318
#
#
#
# Elastic Compliance Matrix: (Units=1/GPa)
#
#
# Indices 1 2 3 4 5 6 
#
# 1 0.005790 -0.002450 -0.002694 0.000000 0.000000 0.000000
# 2 -0.002450 0.008223 -0.003441 0.000000 0.000000 0.000000
# 3 -0.002694 -0.003441 0.020319 0.000000 0.000000 0.000000
# 4 0.000000 0.000000 0.000000 0.033549 0.000000 0.000000
# 5 0.000000 0.000000 0.000000 0.000000 0.024624 0.000000
# 6 0.000000 0.000000 0.000000 0.000000 0.000000 0.019750
#
#
# Mechanical properties :
#
#
# Convention : Reuss Voigt Hill
#
# Bulk Modulus (GPa) = 58.27518 89.25183 73.76351
# Shear Modulus (GPa) = 36.99654 43.17181 40.08417
#
# Velocity S-wave (km/s) = 3.93464 4.25035 4.09554
# Velocity P-wave (km/s) = 6.71025 7.83807 7.29599
#
# Compressibility (1/GPa) = 0.01715996
#
# Stress axis : x y z
#
# Youngs Moduli (GPa) = 172.70748 121.60288 49.21617
#
# Poissons Ratio (x) = 0.29797 0.13261
# Poissons Ratio (y) = 0.42319 0.16937
# Poissons Ratio (z) = 0.46536 0.41847
#
# Static dielectric constant tensor:
#      x y z
#    x 4.458250 0.000000 0.000000 
#    y 0.000000 4.638400 0.000000 
#    z 0.000000 0.000000 4.066130 
# 
# 
# High freq. dielectric constant tensor:
#      x y z
#    x 1.963540 0.000000 0.000000 
#    y 0.000000 1.974350 0.000000 
#    z 0.000000 0.000000 1.936270 
# 
# From -- ./inp_files/31457.got.cif
#   From: 2010.03.12/outbox.cif.g09.slc.cpg/sg64_16_cif.got.tgz:31457.got - 2010.04.10 20:19:32.
