data_PCOD8264652
_publ_section_title
;
Structure prediction by ZEFSAII (Michael W. Deem and Ramdas Pophale) SiO2 
 PCOD8264652
Probable space group: C M C A
;
_chemical_formula_sum "Si O2"
_cell_formula_units_Z 80
_cell_length_a 12.595823
_cell_length_b 21.722427
_cell_length_c 13.432356
_cell_angle_alpha 90.000000
_cell_angle_beta 90.000000
_cell_angle_gamma 90.000000
_cell_volume 3675.251716
_symmetry_space_group_name_H-M "C M C A"
_symmetry_group_IT_number 64
_symmetry_cell_setting 'orthorhombic'
loop_
_space_group_symop_operation_xyz
x,y,z
-x,1/2-y,1/2+z
x,-y,-z
-x,1/2+y,1/2-z
-x,-y,-z
x,1/2+y,1/2-z
-x,y,z
x,1/2-y,1/2+z
1/2+x,1/2+y,z
1/2-x,-y,1/2+z
1/2+x,1/2-y,-z
1/2-x,y,1/2-z
1/2-x,1/2-y,-z
1/2+x,y,1/2-z
1/2-x,1/2+y,z
1/2+x,-y,1/2+z
loop_
_atom_site_type_symbol
_atom_site_label
_atom_site_fract_x
_atom_site_fract_y
_atom_site_fract_z
Si Si1 0.000000 0.968672 0.805428
Si Si2 0.500000 0.401929 0.075593
Si Si3 0.500000 0.550087 0.622495
Si Si4 0.000000 0.819035 0.389807
Si Si5 0.822788 0.000000 0.500000
Si Si6 0.822102 0.405924 0.587499
Si Si7 0.672681 0.295566 0.553096
Si Si8 0.000000 0.727672 0.679777
O O1 0.898766 0.923790 0.820696
O O2 0.000000 0.030116 0.874446
O O3 0.000000 0.990849 0.692839
O O4 0.500000 0.344195 0.149788
O O5 0.606047 0.395545 0.010206
O O6 0.500000 0.616899 0.673217
O O7 0.395119 0.549529 0.555637
O O8 0.100787 0.818273 0.461856
O O9 0.000000 0.767716 0.301620
O O10 0.750821 0.034541 0.420950
O O11 0.744786 0.347975 0.605743
O O12 0.750000 0.250000 0.500000
O O13 0.604288 0.262284 0.639006
#
# Coordination Sequence:
#
# PCOD8264652 Si02
#       8
#     8   8   8   8   8  16  16   8
#     4  11  23  39  68 108 134 166 228 293 334 401
#     4  11  19  38  69 101 130 164 222 288 334 388
#     4  11  24  40  66 102 137 169 229 280 339 411
#     4  11  24  43  72  99 131 183 236 294 336 409
#     4  11  22  41  64  96 136 177 216 275 348 416
#     4  11  21  41  67  95 137 181 212 272 357 410
#     4  11  24  44  68  96 137 190 225 280 355 407
#     4  11  24  42  69 104 134 170 245 292 321 409
#
# _framework density 21.767216000000001
#
# number of rings (size 3 to 8) (size 9 to 14) (size 15 to 20)
#    0.000    1.000    7.000    0.600    0.000    1.600 
#    0.000   10.000    0.000    0.000    0.000    0.000 
#    0.000    0.000    0.000    0.000    0.000    0.000 
#
# Total GULP energy -495664.889006 kJ/mol
# GULP energy per Si atom -12391.622225 kJ/mol
# Density = 2.171767 g / cm^3
# Si number density = 21.767216 Si / 1000 Ang^3
#
#
#
# Elastic Constant Matrix: (Units=GPa)
#
#
# Indices 1 2 3 4 5 6 
#
# 1 149.5974 58.8151 36.7427 0.0000 0.0000 0.0000
# 2 58.8151 123.2034 30.5143 0.0000 0.0000 0.0000
# 3 36.7427 30.5143 93.2018 0.0000 0.0000 0.0000
# 4 0.0000 0.0000 0.0000 34.1029 0.0000 0.0000
# 5 0.0000 0.0000 0.0000 0.0000 50.5011 0.0000
# 6 0.0000 0.0000 0.0000 0.0000 0.0000 124.7319
#
#
#
# Elastic Compliance Matrix: (Units=1/GPa)
#
#
# Indices 1 2 3 4 5 6 
#
# 1 0.008637 -0.003569 -0.002236 0.000000 0.000000 0.000000
# 2 -0.003569 0.010308 -0.001968 0.000000 0.000000 0.000000
# 3 -0.002236 -0.001968 0.012255 0.000000 0.000000 0.000000
# 4 0.000000 0.000000 0.000000 0.029323 0.000000 0.000000
# 5 0.000000 0.000000 0.000000 0.000000 0.019802 0.000000
# 6 0.000000 0.000000 0.000000 0.000000 0.000000 0.008017
#
#
# Mechanical properties :
#
#
# Convention : Reuss Voigt Hill
#
# Bulk Modulus (GPa) = 63.88336 68.68297 66.28317
# Shear Modulus (GPa) = 45.82661 57.86256 51.84458
#
# Velocity S-wave (km/s) = 4.59334 5.16141 4.88564
# Velocity P-wave (km/s) = 7.58576 8.19403 7.89575
#
# Compressibility (1/GPa) = 0.01565353
#
# Stress axis : x y z
#
# Youngs Moduli (GPa) = 115.77818 97.01251 81.59748
#
# Poissons Ratio (x) = 0.34627 0.18249
# Poissons Ratio (y) = 0.41325 0.16056
# Poissons Ratio (z) = 0.25893 0.19089
#
# Static dielectric constant tensor:
#      x y z
#    x 3.926460 0.000000 0.000000 
#    y 0.000000 3.699800 0.000000 
#    z 0.000000 0.000000 3.593930 
# 
# 
# High freq. dielectric constant tensor:
#      x y z
#    x 1.874860 0.000000 0.000000 
#    y 0.000000 1.866410 0.000000 
#    z 0.000000 0.000000 1.833480 
# 
# From -- ./inp_files/22417.got.cif
#   From: 2010.03.12/outbox.cif.g09.slc.cpg/sg64_12_cif.got.tgz:22417.got - 2010.04.10 20:19:32.
