data_PCOD8264847
_publ_section_title
;
Structure prediction by ZEFSAII (Michael W. Deem and Ramdas Pophale) SiO2 
 PCOD8264847
Probable space group: C M C A
;
_chemical_formula_sum "Si O2"
_cell_formula_units_Z 96
_cell_length_a 22.255041
_cell_length_b 24.892008
_cell_length_c 8.925309
_cell_angle_alpha 90.000000
_cell_angle_beta 90.000000
_cell_angle_gamma 90.000000
_cell_volume 4944.377156
_symmetry_space_group_name_H-M "C M C A"
_symmetry_group_IT_number 64
_symmetry_cell_setting 'orthorhombic'
loop_
_space_group_symop_operation_xyz
x,y,z
-x,1/2-y,1/2+z
x,-y,-z
-x,1/2+y,1/2-z
-x,-y,-z
x,1/2+y,1/2-z
-x,y,z
x,1/2-y,1/2+z
1/2+x,1/2+y,z
1/2-x,-y,1/2+z
1/2+x,1/2-y,-z
1/2-x,y,1/2-z
1/2-x,1/2-y,-z
1/2+x,y,1/2-z
1/2-x,1/2+y,z
1/2+x,-y,1/2+z
loop_
_atom_site_type_symbol
_atom_site_label
_atom_site_fract_x
_atom_site_fract_y
_atom_site_fract_z
Si Si1 0.000000 0.291076 0.005284
Si Si2 0.796223 0.241665 0.873734
Si Si3 0.827525 0.553246 0.085568
Si Si4 0.115182 0.162253 0.342627
Si Si5 0.116153 0.847670 0.003853
Si Si6 0.192342 0.553960 0.435218
Si Si7 0.000000 0.320533 0.352854
O O1 0.000000 0.299478 0.183471
O O2 0.059901 0.315763 0.936573
O O3 0.000000 0.228188 0.971782
O O4 0.750000 0.218987 0.750000
O O5 0.827112 0.298623 0.835206
O O6 0.750000 0.250000 0.000000
O O7 0.848987 0.202572 0.925629
O O8 0.868640 0.606499 0.071006
O O9 0.819085 0.546414 0.261172
O O10 0.761557 0.563232 0.017627
O O11 0.855062 0.500000 0.000000
O O12 0.095781 0.157302 0.169376
O O13 0.158173 0.898688 0.017991
O O14 0.058291 0.856271 0.109687
O O15 0.165301 0.500000 0.500000
#
# Coordination Sequence:
#
# PCOD8264847 Si02
#       7
#     8  16  16  16  16  16   8
#     4  12  26  42  61  88 119 164 209 253 303 365
#     4  12  24  37  58  93 127 159 198 249 308 368
#     4   9  19  37  62  90 122 160 199 249 309 364
#     4  11  23  41  64  86 126 163 204 253 305 364
#     4  11  23  42  62  88 124 165 205 250 308 361
#     4   9  19  38  60  90 125 158 199 251 307 363
#     4  12  26  42  61  86 121 162 211 251 303 367
#
# _framework density 19.415994999999999
#
# number of rings (size 3 to 8) (size 9 to 14) (size 15 to 20)
#    0.000    1.333    3.333    2.500    4.667    1.333 
#    6.000    0.833    0.000    0.000    0.000    0.000 
#    0.000    0.000    0.000    0.000    0.000    0.000 
#
# Total GULP energy -594757.767317 kJ/mol
# GULP energy per Si atom -12390.786819 kJ/mol
# Density = 1.937180 g / cm^3
# Si number density = 19.415995 Si / 1000 Ang^3
#
#
#
# Elastic Constant Matrix: (Units=GPa)
#
#
# Indices 1 2 3 4 5 6 
#
# 1 95.6291 26.4459 28.8013 0.0000 0.0000 0.0000
# 2 26.4459 97.6941 17.7887 0.0000 0.0000 0.0000
# 3 28.8013 17.7887 74.3474 0.0000 0.0000 0.0000
# 4 0.0000 0.0000 0.0000 34.5181 0.0000 0.0000
# 5 0.0000 0.0000 0.0000 0.0000 34.1520 0.0000
# 6 0.0000 0.0000 0.0000 0.0000 0.0000 14.8632
#
#
#
# Elastic Compliance Matrix: (Units=1/GPa)
#
#
# Indices 1 2 3 4 5 6 
#
# 1 0.012441 -0.002604 -0.004197 0.000000 0.000000 0.000000
# 2 -0.002604 0.011247 -0.001682 0.000000 0.000000 0.000000
# 3 -0.004197 -0.001682 0.015479 0.000000 0.000000 0.000000
# 4 0.000000 0.000000 0.000000 0.028970 0.000000 0.000000
# 5 0.000000 0.000000 0.000000 0.000000 0.029281 0.000000
# 6 0.000000 0.000000 0.000000 0.000000 0.000000 0.067280
#
#
# Mechanical properties :
#
#
# Convention : Reuss Voigt Hill
#
# Bulk Modulus (GPa) = 45.04191 45.97138 45.50664
# Shear Modulus (GPa) = 26.44611 29.68232 28.06421
#
# Velocity S-wave (km/s) = 3.69464 3.91417 3.80599
# Velocity P-wave (km/s) = 6.43810 6.64501 6.54237
#
# Compressibility (1/GPa) = 0.02220155
#
# Stress axis : x y z
#
# Youngs Moduli (GPa) = 80.37936 88.91112 64.60534
#
# Poissons Ratio (x) = 0.23149 0.27112
# Poissons Ratio (y) = 0.20928 0.10869
# Poissons Ratio (z) = 0.33731 0.14959
#
# Static dielectric constant tensor:
#      x y z
#    x 3.638420 0.000000 0.000000 
#    y 0.000000 3.426860 0.000000 
#    z 0.000000 0.000000 3.576910 
# 
# 
# High freq. dielectric constant tensor:
#      x y z
#    x 1.757140 0.000000 0.000000 
#    y 0.000000 1.750010 0.000000 
#    z 0.000000 0.000000 1.764270 
# 
# From -- ./inp_files/9516.got.cif
#   From: 2010.03.12/outbox.cif.g09.slc.cpg/sg64_5_cif.got.tgz:9516.got - 2010.04.10 20:19:32.
