data_PCOD8264465
_publ_section_title
;
Structure prediction by ZEFSAII (Michael W. Deem and Ramdas Pophale) SiO2 
 PCOD8264465
Probable space group: C M C A
;
_chemical_formula_sum "Si O2"
_cell_formula_units_Z 88
_cell_length_a 22.336749
_cell_length_b 8.269296
_cell_length_c 22.744655
_cell_angle_alpha 90.000000
_cell_angle_beta 90.000000
_cell_angle_gamma 90.000000
_cell_volume 4201.146783
_symmetry_space_group_name_H-M "C M C A"
_symmetry_group_IT_number 64
_symmetry_cell_setting 'orthorhombic'
loop_
_space_group_symop_operation_xyz
x,y,z
-x,1/2-y,1/2+z
x,-y,-z
-x,1/2+y,1/2-z
-x,-y,-z
x,1/2+y,1/2-z
-x,y,z
x,1/2-y,1/2+z
1/2+x,1/2+y,z
1/2-x,-y,1/2+z
1/2+x,1/2-y,-z
1/2-x,y,1/2-z
1/2-x,1/2-y,-z
1/2+x,y,1/2-z
1/2-x,1/2+y,z
1/2+x,-y,1/2+z
loop_
_atom_site_type_symbol
_atom_site_label
_atom_site_fract_x
_atom_site_fract_y
_atom_site_fract_z
Si Si1 0.284068 0.407895 0.060067
Si Si2 0.067670 0.945371 0.662742
Si Si3 0.336741 0.056474 0.060878
Si Si4 0.250000 0.721794 0.750000
Si Si5 0.322711 0.529539 0.181011
Si Si6 0.067960 0.216294 0.221997
O O1 0.300446 0.221667 0.051550
O O2 0.213542 0.422653 0.077073
O O3 0.321589 0.485517 0.112796
O O4 0.299852 0.500000 0.000000
O O5 0.112762 0.926468 0.609375
O O6 0.076687 0.794215 0.707021
O O7 0.000000 0.951469 0.637899
O O8 0.083156 0.104939 0.700093
O O9 0.367999 0.000000 0.000000
O O10 0.304973 0.620382 0.776920
O O11 0.276059 0.827204 0.696392
O O12 0.390381 0.584154 0.191351
O O13 0.000000 0.166866 0.206090
#
# Coordination Sequence:
#
# PCOD8264465 Si02
#       6
#    16  16  16   8  16  16
#     4  11  25  42  64  96 126 172 211 260 318 377
#     4  10  24  44  67  94 127 169 213 259 315 377
#     4  11  25  43  67  93 128 168 214 263 314 380
#     4  10  24  36  58 100 126 164 192 266 318 374
#     4  11  23  39  62  91 131 159 210 252 318 380
#     4  10  23  41  64  91 127 168 207 256 313 376
#
# _framework density 20.946660000000001
#
# number of rings (size 3 to 8) (size 9 to 14) (size 15 to 20)
#    0.000    1.455    0.000    4.364   17.818    0.364 
#    0.000    0.000    0.000    1.091    0.000    0.000 
#    0.000    0.000    0.000    0.000    0.000    0.000 
#
# Total GULP energy -545640.323833 kJ/mol
# GULP energy per Si atom -12400.916451 kJ/mol
# Density = 2.089898 g / cm^3
# Si number density = 20.946660 Si / 1000 Ang^3
#
#
#
# Elastic Constant Matrix: (Units=GPa)
#
#
# Indices 1 2 3 4 5 6 
#
# 1 86.3606 31.5534 40.2700 0.0000 0.0000 0.0000
# 2 31.5534 95.3749 29.5731 0.0000 0.0000 0.0000
# 3 40.2700 29.5731 111.6940 0.0000 0.0000 0.0000
# 4 0.0000 0.0000 0.0000 32.5616 0.0000 0.0000
# 5 0.0000 0.0000 0.0000 0.0000 37.9003 0.0000
# 6 0.0000 0.0000 0.0000 0.0000 0.0000 17.5061
#
#
#
# Elastic Compliance Matrix: (Units=1/GPa)
#
#
# Indices 1 2 3 4 5 6 
#
# 1 0.014957 -0.003569 -0.004448 0.000000 0.000000 0.000000
# 2 -0.003569 0.012274 -0.001963 0.000000 0.000000 0.000000
# 3 -0.004448 -0.001963 0.011076 0.000000 0.000000 0.000000
# 4 0.000000 0.000000 0.000000 0.030711 0.000000 0.000000
# 5 0.000000 0.000000 0.000000 0.000000 0.026385 0.000000
# 6 0.000000 0.000000 0.000000 0.000000 0.000000 0.057123
#
#
# Mechanical properties :
#
#
# Convention : Reuss Voigt Hill
#
# Bulk Modulus (GPa) = 54.50134 55.13583 54.81858
# Shear Modulus (GPa) = 27.99502 30.39581 29.19541
#
# Velocity S-wave (km/s) = 3.65977 3.81347 3.73741
# Velocity P-wave (km/s) = 6.62828 6.76530 6.69714
#
# Compressibility (1/GPa) = 0.01834817
#
# Stress axis : x y z
#
# Youngs Moduli (GPa) = 66.85644 81.46989 90.28259
#
# Poissons Ratio (x) = 0.29079 0.40155
# Poissons Ratio (y) = 0.23863 0.17723
# Poissons Ratio (z) = 0.29736 0.15993
#
# Static dielectric constant tensor:
#      x y z
#    x 3.764590 0.000000 0.000000 
#    y 0.000000 3.989950 0.000000 
#    z 0.000000 0.000000 3.794110 
# 
# 
# High freq. dielectric constant tensor:
#      x y z
#    x 1.815400 0.000000 0.000000 
#    y 0.000000 1.833230 0.000000 
#    z 0.000000 0.000000 1.817580 
# 
# From -- ./inp_files/41352.got.cif
#   From: 2010.03.12/outbox.cif.g09.slc.cpg/sg64_21_cif.got.tgz:41352.got - 2010.04.10 20:19:32.
