data_PCOD8264507
_publ_section_title
;
Structure prediction by ZEFSAII (Michael W. Deem and Ramdas Pophale) SiO2 
 PCOD8264507
Probable space group: C M C A
;
_chemical_formula_sum "Si O2"
_cell_formula_units_Z 96
_cell_length_a 18.311930
_cell_length_b 21.884529
_cell_length_c 11.446481
_cell_angle_alpha 90.000000
_cell_angle_beta 90.000000
_cell_angle_gamma 90.000000
_cell_volume 4587.153946
_symmetry_space_group_name_H-M "C M C A"
_symmetry_group_IT_number 64
_symmetry_cell_setting 'orthorhombic'
loop_
_space_group_symop_operation_xyz
x,y,z
-x,1/2-y,1/2+z
x,-y,-z
-x,1/2+y,1/2-z
-x,-y,-z
x,1/2+y,1/2-z
-x,y,z
x,1/2-y,1/2+z
1/2+x,1/2+y,z
1/2-x,-y,1/2+z
1/2+x,1/2-y,-z
1/2-x,y,1/2-z
1/2-x,1/2-y,-z
1/2+x,y,1/2-z
1/2-x,1/2+y,z
1/2+x,-y,1/2+z
loop_
_atom_site_type_symbol
_atom_site_label
_atom_site_fract_x
_atom_site_fract_y
_atom_site_fract_z
Si Si1 0.083202 0.341152 0.840530
Si Si2 0.168986 0.143487 0.574222
Si Si3 0.173983 0.624478 0.513216
Si Si4 0.318906 0.774627 0.673728
Si Si5 0.082979 0.551942 0.332149
Si Si6 0.915154 0.087693 0.775933
O O1 0.108451 0.290117 0.747314
O O2 0.092940 0.408364 0.784806
O O3 0.000000 0.327205 0.873111
O O4 0.130794 0.336278 0.955758
O O5 0.243542 0.106437 0.548838
O O6 0.187263 0.203292 0.649691
O O7 0.115544 0.100021 0.647000
O O8 0.177385 0.689918 0.449436
O O9 0.139673 0.572624 0.430767
O O10 0.125009 0.630423 0.629264
O O11 0.250000 0.797389 0.750000
O O12 0.100919 0.482625 0.302984
O O13 0.000000 0.559275 0.380370
O O14 0.000000 0.103778 0.778123
#
# Coordination Sequence:
#
# PCOD8264507 Si02
#       6
#    16  16  16  16  16  16
#     4  10  23  43  66  94 126 169 220 260 318 387
#     4  12  25  41  63  99 134 170 209 267 330 381
#     4  11  22  41  66  95 123 169 221 263 316 384
#     4  11  23  43  67  88 129 174 209 265 326 382
#     4   9  21  44  68  90 127 175 216 264 321 378
#     4  11  24  43  65  95 134 172 215 265 321 378
#
# _framework density 20.92801
#
# number of rings (size 3 to 8) (size 9 to 14) (size 15 to 20)
#    0.000    1.333    1.667    3.500    2.333    4.000 
#    9.000    2.500    0.000    0.000    0.000    0.000 
#    0.000    0.000    0.000    0.000    0.000    0.000 
#
# Total GULP energy -595475.119250 kJ/mol
# GULP energy per Si atom -12405.731651 kJ/mol
# Density = 2.088038 g / cm^3
# Si number density = 20.928010 Si / 1000 Ang^3
#
#
#
# Elastic Constant Matrix: (Units=GPa)
#
#
# Indices 1 2 3 4 5 6 
#
# 1 153.1715 42.4001 59.0764 0.0000 0.0000 0.0000
# 2 42.4001 80.2318 30.2282 0.0000 0.0000 0.0000
# 3 59.0764 30.2282 102.3150 0.0000 0.0000 0.0000
# 4 0.0000 0.0000 0.0000 21.2131 0.0000 0.0000
# 5 0.0000 0.0000 0.0000 0.0000 49.2351 0.0000
# 6 0.0000 0.0000 0.0000 0.0000 0.0000 23.5881
#
#
#
# Elastic Compliance Matrix: (Units=1/GPa)
#
#
# Indices 1 2 3 4 5 6 
#
# 1 0.009063 -0.003171 -0.004296 0.000000 0.000000 0.000000
# 2 -0.003171 0.015135 -0.002640 0.000000 0.000000 0.000000
# 3 -0.004296 -0.002640 0.013035 0.000000 0.000000 0.000000
# 4 0.000000 0.000000 0.000000 0.047141 0.000000 0.000000
# 5 0.000000 0.000000 0.000000 0.000000 0.020311 0.000000
# 6 0.000000 0.000000 0.000000 0.000000 0.000000 0.042394
#
#
# Mechanical properties :
#
#
# Convention : Reuss Voigt Hill
#
# Bulk Modulus (GPa) = 58.76532 66.56973 62.66753
# Shear Modulus (GPa) = 28.90739 32.40817 30.65778
#
# Velocity S-wave (km/s) = 3.72059 3.93944 3.83157
# Velocity P-wave (km/s) = 6.82625 7.25053 7.04159
#
# Compressibility (1/GPa) = 0.01701684
#
# Stress axis : x y z
#
# Youngs Moduli (GPa) = 110.33284 66.07416 76.71928
#
# Poissons Ratio (x) = 0.20953 0.32961
# Poissons Ratio (y) = 0.34987 0.20257
# Poissons Ratio (z) = 0.47403 0.17446
#
# Static dielectric constant tensor:
#      x y z
#    x 3.960930 0.000000 0.000000 
#    y 0.000000 3.564990 0.000000 
#    z 0.000000 0.000000 3.886270 
# 
# 
# High freq. dielectric constant tensor:
#      x y z
#    x 1.831440 0.000000 0.000000 
#    y 0.000000 1.806410 0.000000 
#    z 0.000000 0.000000 1.833340 
# 
# From -- ./inp_files/16171.got.cif
#   From: 2010.03.12/outbox.cif.g09.slc.cpg/sg64_9_cif.got.tgz:16171.got - 2010.04.10 20:19:32.
