data_PCOD8264954
_publ_section_title
;
Structure prediction by ZEFSAII (Michael W. Deem and Ramdas Pophale) SiO2 
 PCOD8264954
Probable space group: C M C A
;
_chemical_formula_sum "Si O2"
_cell_formula_units_Z 88
_cell_length_a 23.118814
_cell_length_b 15.512572
_cell_length_c 11.160251
_cell_angle_alpha 90.000000
_cell_angle_beta 90.000000
_cell_angle_gamma 90.000000
_cell_volume 4002.426113
_symmetry_space_group_name_H-M "C M C A"
_symmetry_group_IT_number 64
_symmetry_cell_setting 'orthorhombic'
loop_
_space_group_symop_operation_xyz
x,y,z
-x,1/2-y,1/2+z
x,-y,-z
-x,1/2+y,1/2-z
-x,-y,-z
x,1/2+y,1/2-z
-x,y,z
x,1/2-y,1/2+z
1/2+x,1/2+y,z
1/2-x,-y,1/2+z
1/2+x,1/2-y,-z
1/2-x,y,1/2-z
1/2-x,1/2-y,-z
1/2+x,y,1/2-z
1/2-x,1/2+y,z
1/2+x,-y,1/2+z
loop_
_atom_site_type_symbol
_atom_site_label
_atom_site_fract_x
_atom_site_fract_y
_atom_site_fract_z
Si Si1 0.000000 0.195493 0.103063
Si Si2 0.847509 0.517304 0.668066
Si Si3 0.500000 0.180231 0.128908
Si Si4 0.750000 0.622661 0.750000
Si Si5 0.385163 0.132145 0.480092
Si Si6 0.613757 0.569405 0.406433
Si Si7 0.809149 0.204574 0.537098
O O1 0.054087 0.132411 0.087363
O O2 0.000000 0.232129 0.241519
O O3 0.000000 0.263916 0.993201
O O4 0.784980 0.562493 0.658984
O O5 0.891844 0.589502 0.612645
O O6 0.841951 0.430823 0.590473
O O7 0.864703 0.491452 0.800354
O O8 0.441208 0.125815 0.130985
O O9 0.797561 0.677365 0.825000
O O10 0.361089 0.228305 0.475983
O O11 0.590726 0.500000 0.500000
O O12 0.668767 0.625016 0.455132
O O13 0.750000 0.250000 0.500000
#
# Coordination Sequence:
#
# PCOD8264954 Si02
#       7
#     8  16   8   8  16  16  16
#     4  12  26  48  81 110 156 191 258 314 385 451
#     4  11  26  44  72 107 148 193 254 299 376 441
#     4  12  27  49  78 115 148 203 246 319 383 457
#     4  12  26  44  74 108 152 198 244 314 374 452
#     4  11  26  47  73 107 149 198 247 309 374 453
#     4  12  26  48  74 107 149 194 252 309 375 451
#     4  12  27  44  72 106 146 194 245 303 375 448
#
# _framework density 21.986664999999999
#
# number of rings (size 3 to 8) (size 9 to 14) (size 15 to 20)
#    0.000    0.364    7.273    0.273    5.091    5.091 
#    0.000    0.000    0.000    0.000    0.000    0.000 
#    0.000    0.000    0.000    0.000    0.000    0.000 
#
# Total GULP energy -545195.474251 kJ/mol
# GULP energy per Si atom -12390.806233 kJ/mol
# Density = 2.193662 g / cm^3
# Si number density = 21.986665 Si / 1000 Ang^3
#
#
#
# Elastic Constant Matrix: (Units=GPa)
#
#
# Indices 1 2 3 4 5 6 
#
# 1 96.4146 33.1461 36.8819 0.0000 0.0000 0.0000
# 2 33.1461 108.4853 66.8156 0.0000 0.0000 0.0000
# 3 36.8819 66.8156 164.4946 0.0000 0.0000 0.0000
# 4 0.0000 0.0000 0.0000 47.7567 0.0000 0.0000
# 5 0.0000 0.0000 0.0000 0.0000 31.5432 0.0000
# 6 0.0000 0.0000 0.0000 0.0000 0.0000 23.2315
#
#
#
# Elastic Compliance Matrix: (Units=1/GPa)
#
#
# Indices 1 2 3 4 5 6 
#
# 1 0.011892 -0.002656 -0.001588 0.000000 0.000000 0.000000
# 2 -0.002656 0.012886 -0.004639 0.000000 0.000000 0.000000
# 3 -0.001588 -0.004639 0.008319 0.000000 0.000000 0.000000
# 4 0.000000 0.000000 0.000000 0.020939 0.000000 0.000000
# 5 0.000000 0.000000 0.000000 0.000000 0.031703 0.000000
# 6 0.000000 0.000000 0.000000 0.000000 0.000000 0.043045
#
#
# Mechanical properties :
#
#
# Convention : Reuss Voigt Hill
#
# Bulk Modulus (GPa) = 65.21626 71.45355 68.33490
# Shear Modulus (GPa) = 32.96839 36.00965 34.48902
#
# Velocity S-wave (km/s) = 3.87650 4.05136 3.96489
# Velocity P-wave (km/s) = 7.05425 7.37928 7.21860
#
# Compressibility (1/GPa) = 0.01533360
#
# Stress axis : x y z
#
# Youngs Moduli (GPa) = 84.08874 77.60210 120.20041
#
# Poissons Ratio (x) = 0.20608 0.19084
# Poissons Ratio (y) = 0.22331 0.55759
# Poissons Ratio (z) = 0.13351 0.35998
#
# Static dielectric constant tensor:
#      x y z
#    x 4.120150 0.000000 0.000000 
#    y 0.000000 4.181680 0.000000 
#    z 0.000000 0.000000 4.545520 
# 
# 
# High freq. dielectric constant tensor:
#      x y z
#    x 1.864170 0.000000 0.000000 
#    y 0.000000 1.871050 0.000000 
#    z 0.000000 0.000000 1.879440 
# 
# From -- ./inp_files/19100.got.cif
#   From: 2010.03.12/outbox.cif.g09.slc.cpg/sg64_10_cif.got.tgz:19100.got - 2010.04.10 20:19:32.
