data_PCOD8264757
_publ_section_title
;
Structure prediction by ZEFSAII (Michael W. Deem and Ramdas Pophale) SiO2 
 PCOD8264757
Probable space group: C M C A
;
_chemical_formula_sum "Si O2"
_cell_formula_units_Z 80
_cell_length_a 9.092479
_cell_length_b 24.946162
_cell_length_c 19.886856
_cell_angle_alpha 90.000000
_cell_angle_beta 90.000000
_cell_angle_gamma 90.000000
_cell_volume 4510.785483
_symmetry_space_group_name_H-M "C M C A"
_symmetry_group_IT_number 64
_symmetry_cell_setting 'orthorhombic'
loop_
_space_group_symop_operation_xyz
x,y,z
-x,1/2-y,1/2+z
x,-y,-z
-x,1/2+y,1/2-z
-x,-y,-z
x,1/2+y,1/2-z
-x,y,z
x,1/2-y,1/2+z
1/2+x,1/2+y,z
1/2-x,-y,1/2+z
1/2+x,1/2-y,-z
1/2-x,y,1/2-z
1/2-x,1/2-y,-z
1/2+x,y,1/2-z
1/2-x,1/2+y,z
1/2+x,-y,1/2+z
loop_
_atom_site_type_symbol
_atom_site_label
_atom_site_fract_x
_atom_site_fract_y
_atom_site_fract_z
Si Si1 0.329789 0.158653 0.103078
Si Si2 0.326727 0.053314 0.179940
Si Si3 0.331482 0.373225 0.452426
Si Si4 0.669140 0.756305 0.069839
Si Si5 0.328928 0.521743 0.925910
O O1 0.500000 0.173834 0.103762
O O2 0.289990 0.114078 0.158146
O O3 0.240809 0.213300 0.121308
O O4 0.284376 0.136755 0.029666
O O5 0.500000 0.044088 0.186374
O O6 0.250000 0.040991 0.250000
O O7 0.264735 0.012837 0.125342
O O8 0.500000 0.393571 0.449958
O O9 0.313591 0.318570 0.408268
O O10 0.224420 0.417015 0.420300
O O11 0.500000 0.741247 0.060195
O O12 0.750000 0.750000 0.000000
O O13 0.500000 0.518436 0.907061
O O14 0.296785 0.500000 0.000000
#
# Coordination Sequence:
#
# PCOD8264757 Si02
#       5
#    16  16  16  16  16
#     4   9  18  32  51  75 105 140 175 216 270 322
#     4  11  23  39  57  78 109 146 184 226 276 333
#     4   9  17  31  50  76 107 141 176 216 274 323
#     4   9  17  28  46  74 106 137 171 212 260 314
#     4  11  22  34  53  82 110 141 185 231 275 324
#
# _framework density 17.735271000000001
#
# number of rings (size 3 to 8) (size 9 to 14) (size 15 to 20)
#    0.000    2.200    2.000    3.000    0.000    6.400 
#    0.000    0.000    0.000    1.200    0.000    2.800 
#    0.000    0.000    0.000    0.000    0.000    0.000 
#
# Total GULP energy -495905.252972 kJ/mol
# GULP energy per Si atom -12397.631324 kJ/mol
# Density = 1.769490 g / cm^3
# Si number density = 17.735271 Si / 1000 Ang^3
#
#
#
# Elastic Constant Matrix: (Units=GPa)
#
#
# Indices 1 2 3 4 5 6 
#
# 1 102.9093 73.6491 43.3483 0.0000 0.0000 0.0000
# 2 73.6491 120.8394 37.5495 0.0000 0.0000 0.0000
# 3 43.3483 37.5495 65.6760 0.0000 0.0000 0.0000
# 4 0.0000 0.0000 0.0000 14.9354 0.0000 0.0000
# 5 0.0000 0.0000 0.0000 0.0000 23.0780 0.0000
# 6 0.0000 0.0000 0.0000 0.0000 0.0000 37.6082
#
#
#
# Elastic Compliance Matrix: (Units=1/GPa)
#
#
# Indices 1 2 3 4 5 6 
#
# 1 0.019893 -0.009782 -0.007537 0.000000 0.000000 0.000000
# 2 -0.009782 0.014874 -0.002047 0.000000 0.000000 0.000000
# 3 -0.007537 -0.002047 0.021371 0.000000 0.000000 0.000000
# 4 0.000000 0.000000 0.000000 0.066955 0.000000 0.000000
# 5 0.000000 0.000000 0.000000 0.000000 0.043331 0.000000
# 6 0.000000 0.000000 0.000000 0.000000 0.000000 0.026590
#
#
# Mechanical properties :
#
#
# Convention : Reuss Voigt Hill
#
# Bulk Modulus (GPa) = 57.45509 66.50206 61.97858
# Shear Modulus (GPa) = 21.04822 24.11616 22.58219
#
# Velocity S-wave (km/s) = 3.44873 3.69153 3.57219
# Velocity P-wave (km/s) = 6.95159 7.46648 7.21363
#
# Compressibility (1/GPa) = 0.01740490
#
# Stress axis : x y z
#
# Youngs Moduli (GPa) = 50.26880 67.23270 46.79132
#
# Poissons Ratio (x) = 0.65769 0.35267
# Poissons Ratio (y) = 0.49175 0.09579
# Poissons Ratio (z) = 0.37888 0.13764
#
# Static dielectric constant tensor:
#      x y z
#    x 3.429110 0.000000 0.000000 
#    y 0.000000 4.457930 0.000000 
#    z 0.000000 0.000000 2.962800 
# 
# 
# High freq. dielectric constant tensor:
#      x y z
#    x 1.698030 0.000000 0.000000 
#    y 0.000000 1.701530 0.000000 
#    z 0.000000 0.000000 1.633160 
# 
# From -- ./inp_files/29989.got.cif
#   From: 2010.03.12/outbox.cif.g09.slc.cpg/sg64_15_cif.got.tgz:29989.got - 2010.04.10 20:19:32.
