data_PCOD8264220
_publ_section_title
;
Structure prediction by ZEFSAII (Michael W. Deem and Ramdas Pophale) SiO2 
 PCOD8264220
Probable space group: C M C A
;
_chemical_formula_sum "Si O2"
_cell_formula_units_Z 96
_cell_length_a 9.428267
_cell_length_b 22.187778
_cell_length_c 23.252255
_cell_angle_alpha 90.000000
_cell_angle_beta 90.000000
_cell_angle_gamma 90.000000
_cell_volume 4864.192590
_symmetry_space_group_name_H-M "C M C A"
_symmetry_group_IT_number 64
_symmetry_cell_setting 'orthorhombic'
loop_
_space_group_symop_operation_xyz
x,y,z
-x,1/2-y,1/2+z
x,-y,-z
-x,1/2+y,1/2-z
-x,-y,-z
x,1/2+y,1/2-z
-x,y,z
x,1/2-y,1/2+z
1/2+x,1/2+y,z
1/2-x,-y,1/2+z
1/2+x,1/2-y,-z
1/2-x,y,1/2-z
1/2-x,1/2-y,-z
1/2+x,y,1/2-z
1/2-x,1/2+y,z
1/2+x,-y,1/2+z
loop_
_atom_site_type_symbol
_atom_site_label
_atom_site_fract_x
_atom_site_fract_y
_atom_site_fract_z
Si Si1 0.334401 0.601786 0.918801
Si Si2 0.342190 0.984818 0.916866
Si Si3 0.668650 0.800015 0.865655
Si Si4 0.165773 0.323450 0.308626
Si Si5 0.835802 0.859665 0.520254
Si Si6 0.340123 0.083681 0.197498
O O1 0.500000 0.602228 0.932945
O O2 0.273641 0.535398 0.929181
O O3 0.306163 0.622361 0.853175
O O4 0.258288 0.648177 0.962884
O O5 0.500000 0.010487 0.930247
O O6 0.312151 0.927322 0.956398
O O7 0.333094 0.967171 0.850574
O O8 0.500000 0.804480 0.866828
O O9 0.722654 0.737043 0.840003
O O10 0.719028 0.811828 0.931526
O O11 0.726898 0.853452 0.825096
O O12 0.250000 0.335911 0.250000
O O13 0.000000 0.317329 0.293523
O O14 0.000000 0.848295 0.505176
O O15 0.500000 0.094185 0.218517
O O16 0.250000 0.058592 0.250000
#
# Coordination Sequence:
#
# PCOD8264220 Si02
#       6
#    16  16  16  16  16  16
#     4  11  23  35  50  77 110 139 169 211 257 299
#     4   9  19  35  53  74 102 138 177 212 252 308
#     4   8  16  34  57  78 102 132 168 213 260 305
#     4  10  22  39  56  76 105 140 176 212 252 301
#     4   9  18  35  59  81 101 132 172 211 257 312
#     4   9  17  30  51  77 101 129 169 216 263 307
#
# _framework density 19.736059999999998
#
# number of rings (size 3 to 8) (size 9 to 14) (size 15 to 20)
#    0.000    2.667    0.000    3.500    0.000    6.000 
#    0.000    6.667    0.000    0.000    0.000    0.000 
#    0.000    0.000    0.000    0.000    0.000    0.000 
#
# Total GULP energy -595073.926557 kJ/mol
# GULP energy per Si atom -12397.373470 kJ/mol
# Density = 1.969114 g / cm^3
# Si number density = 19.736060 Si / 1000 Ang^3
#
#
#
# Elastic Constant Matrix: (Units=GPa)
#
#
# Indices 1 2 3 4 5 6 
#
# 1 78.6403 16.4763 56.6284 0.0000 0.0000 0.0000
# 2 16.4763 36.0068 12.2145 0.0000 0.0000 0.0000
# 3 56.6284 12.2145 119.6418 0.0000 0.0000 0.0000
# 4 0.0000 0.0000 0.0000 13.5496 0.0000 0.0000
# 5 0.0000 0.0000 0.0000 0.0000 35.5091 0.0000
# 6 0.0000 0.0000 0.0000 0.0000 0.0000 19.3897
#
#
#
# Elastic Compliance Matrix: (Units=1/GPa)
#
#
# Indices 1 2 3 4 5 6 
#
# 1 0.020599 -0.006338 -0.009103 0.000000 0.000000 0.000000
# 2 -0.006338 0.030719 -0.000136 0.000000 0.000000 0.000000
# 3 -0.009103 -0.000136 0.012681 0.000000 0.000000 0.000000
# 4 0.000000 0.000000 0.000000 0.073803 0.000000 0.000000
# 5 0.000000 0.000000 0.000000 0.000000 0.028162 0.000000
# 6 0.000000 0.000000 0.000000 0.000000 0.000000 0.051574
#
#
# Mechanical properties :
#
#
# Convention : Reuss Voigt Hill
#
# Bulk Modulus (GPa) = 30.44649 44.99193 37.71921
# Shear Modulus (GPa) = 19.25752 23.62100 21.43926
#
# Velocity S-wave (km/s) = 3.12709 3.46330 3.29948
# Velocity P-wave (km/s) = 5.33841 6.23208 5.80248
#
# Compressibility (1/GPa) = 0.03284451
#
# Stress axis : x y z
#
# Youngs Moduli (GPa) = 48.54654 32.55324 78.86026
#
# Poissons Ratio (x) = 0.20632 0.71784
# Poissons Ratio (y) = 0.30768 0.01075
# Poissons Ratio (z) = 0.44190 0.00444
#
# Static dielectric constant tensor:
#      x y z
#    x 3.317680 0.000000 0.000000 
#    y 0.000000 3.503640 0.000000 
#    z 0.000000 0.000000 3.722920 
# 
# 
# High freq. dielectric constant tensor:
#      x y z
#    x 1.743160 0.000000 0.000000 
#    y 0.000000 1.757490 0.000000 
#    z 0.000000 0.000000 1.782120 
# 
# From -- ./inp_files/42961.got.cif
#   From: 2010.03.12/outbox.cif.g09.slc.cpg/sg64_22_cif.got.tgz:42961.got - 2010.04.10 20:19:32.
