data_PCOD8264324
_publ_section_title
;
Structure prediction by ZEFSAII (Michael W. Deem and Ramdas Pophale) SiO2 
 PCOD8264324
Probable space group: C M C A
;
_chemical_formula_sum "Si O2"
_cell_formula_units_Z 64
_cell_length_a 19.013233
_cell_length_b 8.665009
_cell_length_c 17.121373
_cell_angle_alpha 90.000000
_cell_angle_beta 90.000000
_cell_angle_gamma 90.000000
_cell_volume 2820.743378
_symmetry_space_group_name_H-M "C M C A"
_symmetry_group_IT_number 64
_symmetry_cell_setting 'orthorhombic'
loop_
_space_group_symop_operation_xyz
x,y,z
-x,1/2-y,1/2+z
x,-y,-z
-x,1/2+y,1/2-z
-x,-y,-z
x,1/2+y,1/2-z
-x,y,z
x,1/2-y,1/2+z
1/2+x,1/2+y,z
1/2-x,-y,1/2+z
1/2+x,1/2-y,-z
1/2-x,y,1/2-z
1/2-x,1/2-y,-z
1/2+x,y,1/2-z
1/2-x,1/2+y,z
1/2+x,-y,1/2+z
loop_
_atom_site_type_symbol
_atom_site_label
_atom_site_fract_x
_atom_site_fract_y
_atom_site_fract_z
Si Si1 0.865294 0.851957 0.052747
Si Si2 0.000000 0.694573 0.080621
Si Si3 0.000000 0.643196 0.897384
Si Si4 0.344570 0.697555 0.601241
Si Si5 0.259994 0.514554 0.159400
O O1 0.808856 0.884896 0.119310
O O2 0.932494 0.796562 0.101663
O O3 0.838534 0.720631 0.992303
O O4 0.884419 0.000000 0.000000
O O5 0.000000 0.535711 0.129074
O O6 0.000000 0.656233 0.989700
O O7 0.074037 0.718939 0.868291
O O8 0.316594 0.523272 0.620122
O O9 0.293062 0.817947 0.645227
O O10 0.250000 0.482646 0.250000
#
# Coordination Sequence:
#
# PCOD8264324 Si02
#       5
#    16   8   8  16  16
#     4   9  19  36  62  98 128 165 208 263 317 381
#     4   9  17  34  63  95 129 157 207 262 320 364
#     4   9  20  38  61  91 126 160 207 266 309 371
#     4  10  22  41  63  89 127 165 210 261 319 379
#     4  11  23  39  62  90 126 165 211 261 317 377
#
# _framework density 22.689053999999999
#
# number of rings (size 3 to 8) (size 9 to 14) (size 15 to 20)
#    0.000    2.250    0.000    1.875    3.500    3.000 
#    9.000    2.500    0.000    0.000    0.000    0.000 
#    0.000    0.000    0.000    0.000    0.000    0.000 
#
# Total GULP energy -396436.447102 kJ/mol
# GULP energy per Si atom -12388.638972 kJ/mol
# Density = 2.263741 g / cm^3
# Si number density = 22.689054 Si / 1000 Ang^3
#
#
#
# Elastic Constant Matrix: (Units=GPa)
#
#
# Indices 1 2 3 4 5 6 
#
# 1 159.7976 67.0080 40.3059 0.0000 0.0000 0.0000
# 2 67.0080 71.2044 30.9202 0.0000 0.0000 0.0000
# 3 40.3059 30.9202 87.3428 0.0000 0.0000 0.0000
# 4 0.0000 0.0000 0.0000 10.7104 0.0000 0.0000
# 5 0.0000 0.0000 0.0000 0.0000 5.6942 0.0000
# 6 0.0000 0.0000 0.0000 0.0000 0.0000 32.0905
#
#
#
# Elastic Compliance Matrix: (Units=1/GPa)
#
#
# Indices 1 2 3 4 5 6 
#
# 1 0.010522 -0.009209 -0.001595 0.000000 0.000000 0.000000
# 2 -0.009209 0.024655 -0.004478 0.000000 0.000000 0.000000
# 3 -0.001595 -0.004478 0.013771 0.000000 0.000000 0.000000
# 4 0.000000 0.000000 0.000000 0.093367 0.000000 0.000000
# 5 0.000000 0.000000 0.000000 0.000000 0.175617 0.000000
# 6 0.000000 0.000000 0.000000 0.000000 0.000000 0.031162
#
#
# Mechanical properties :
#
#
# Convention : Reuss Voigt Hill
#
# Bulk Modulus (GPa) = 54.40114 66.09033 60.24573
# Shear Modulus (GPa) = 12.96053 21.70641 17.33347
#
# Velocity S-wave (km/s) = 2.39262 3.09640 2.76698
# Velocity P-wave (km/s) = 5.62688 6.47885 6.06784
#
# Compressibility (1/GPa) = 0.01838197
#
# Stress axis : x y z
#
# Youngs Moduli (GPa) = 95.03925 40.55947 72.61729
#
# Poissons Ratio (x) = 0.37351 0.11586
# Poissons Ratio (y) = 0.87522 0.32522
# Poissons Ratio (z) = 0.15163 0.18165
#
# Static dielectric constant tensor:
#      x y z
#    x 4.612230 0.000000 0.000000 
#    y 0.000000 4.231920 0.000000 
#    z 0.000000 0.000000 3.533590 
# 
# 
# High freq. dielectric constant tensor:
#      x y z
#    x 1.914020 0.000000 0.000000 
#    y 0.000000 1.898720 0.000000 
#    z 0.000000 0.000000 1.839200 
# 
# From -- ./inp_files/33902.got.cif
#   From: 2010.03.12/outbox.cif.g09.slc.cpg/sg64_17_cif.got.tgz:33902.got - 2010.04.10 20:19:32.
