data_PCOD8264958
_publ_section_title
;
Structure prediction by ZEFSAII (Michael W. Deem and Ramdas Pophale) SiO2 
 PCOD8264958
Probable space group: C M C A
;
_chemical_formula_sum "Si O2"
_cell_formula_units_Z 72
_cell_length_a 22.836854
_cell_length_b 9.363133
_cell_length_c 14.349451
_cell_angle_alpha 90.000000
_cell_angle_beta 90.000000
_cell_angle_gamma 90.000000
_cell_volume 3068.264204
_symmetry_space_group_name_H-M "C M C A"
_symmetry_group_IT_number 64
_symmetry_cell_setting 'orthorhombic'
loop_
_space_group_symop_operation_xyz
x,y,z
-x,1/2-y,1/2+z
x,-y,-z
-x,1/2+y,1/2-z
-x,-y,-z
x,1/2+y,1/2-z
-x,y,z
x,1/2-y,1/2+z
1/2+x,1/2+y,z
1/2-x,-y,1/2+z
1/2+x,1/2-y,-z
1/2-x,y,1/2-z
1/2-x,1/2-y,-z
1/2+x,y,1/2-z
1/2-x,1/2+y,z
1/2+x,-y,1/2+z
loop_
_atom_site_type_symbol
_atom_site_label
_atom_site_fract_x
_atom_site_fract_y
_atom_site_fract_z
Si Si1 0.653509 0.671367 0.657936
Si Si2 0.000000 0.104668 0.363771
Si Si3 0.594749 0.500000 0.500000
Si Si4 0.000000 0.926872 0.180283
Si Si5 0.762791 0.120538 0.934274
Si Si6 0.625237 0.495299 0.160391
O O1 0.631445 0.617578 0.557215
O O2 0.723666 0.640383 0.659052
O O3 0.624062 0.581124 0.739347
O O4 0.642685 0.839785 0.670593
O O5 0.943143 0.092460 0.428099
O O6 0.000000 0.256173 0.312285
O O7 0.000000 0.982086 0.286198
O O8 0.942007 0.982781 0.124883
O O9 0.830508 0.090282 0.907322
O O10 0.750000 0.250000 0.000000
O O11 0.737309 0.000000 0.000000
#
# Coordination Sequence:
#
# PCOD8264958 Si02
#       6
#    16   8   8   8  16  16
#     4  12  27  48  79 109 157 202 264 322 395 469
#     4  11  26  47  76 110 155 203 255 313 396 459
#     4  11  26  46  76 110 154 207 252 318 392 463
#     4  12  26  47  80 110 160 196 259 313 384 490
#     4  12  27  48  77 111 153 192 255 323 390 464
#     4  12  29  48  78 116 153 210 256 319 399 467
#
# _framework density 23.466035999999999
#
# number of rings (size 3 to 8) (size 9 to 14) (size 15 to 20)
#    0.000    0.222    5.556    2.000    6.222    2.667 
#    0.000    1.667    0.000    0.000    0.000    0.000 
#    0.000    0.000    0.000    0.000    0.000    0.000 
#
# Total GULP energy -446225.089185 kJ/mol
# GULP energy per Si atom -12395.141366 kJ/mol
# Density = 2.341263 g / cm^3
# Si number density = 23.466036 Si / 1000 Ang^3
#
#
#
# Elastic Constant Matrix: (Units=GPa)
#
#
# Indices 1 2 3 4 5 6 
#
# 1 181.7348 72.0363 40.9983 0.0000 0.0000 0.0000
# 2 72.0363 190.5289 74.0500 0.0000 0.0000 0.0000
# 3 40.9983 74.0500 88.6489 0.0000 0.0000 0.0000
# 4 0.0000 0.0000 0.0000 44.3726 0.0000 0.0000
# 5 0.0000 0.0000 0.0000 0.0000 41.6850 0.0000
# 6 0.0000 0.0000 0.0000 0.0000 0.0000 24.9117
#
#
#
# Elastic Compliance Matrix: (Units=1/GPa)
#
#
# Indices 1 2 3 4 5 6 
#
# 1 0.006593 -0.001936 -0.001432 0.000000 0.000000 0.000000
# 2 -0.001936 0.008340 -0.006071 0.000000 0.000000 0.000000
# 3 -0.001432 -0.006071 0.017014 0.000000 0.000000 0.000000
# 4 0.000000 0.000000 0.000000 0.022536 0.000000 0.000000
# 5 0.000000 0.000000 0.000000 0.000000 0.023989 0.000000
# 6 0.000000 0.000000 0.000000 0.000000 0.000000 0.040142
#
#
# Mechanical properties :
#
#
# Convention : Reuss Voigt Hill
#
# Bulk Modulus (GPa) = 76.51837 92.78686 84.65261
# Shear Modulus (GPa) = 35.24853 40.44905 37.84879
#
# Velocity S-wave (km/s) = 3.87991 4.15628 4.02047
# Velocity P-wave (km/s) = 7.26296 7.91579 7.59639
#
# Compressibility (1/GPa) = 0.01306876
#
# Stress axis : x y z
#
# Youngs Moduli (GPa) = 151.67561 119.90029 58.77493
#
# Poissons Ratio (x) = 0.23216 0.08415
# Poissons Ratio (y) = 0.29369 0.35684
# Poissons Ratio (z) = 0.21716 0.72795
#
# Static dielectric constant tensor:
#      x y z
#    x 2.354620 0.000000 0.000000 
#    y 0.000000 4.100440 0.000000 
#    z 0.000000 0.000000 4.190100 
# 
# 
# High freq. dielectric constant tensor:
#      x y z
#    x 1.953200 0.000000 0.000000 
#    y 0.000000 1.938640 0.000000 
#    z 0.000000 0.000000 1.921850 
# 
# From -- ./inp_files/27864.got.cif
#   From: 2010.03.12/outbox.cif.g09.slc.cpg/sg64_14_cif.got.tgz:27864.got - 2010.04.10 20:19:32.
