data_PCOD8264415
_publ_section_title
;
Structure prediction by ZEFSAII (Michael W. Deem and Ramdas Pophale) SiO2 
 PCOD8264415
Probable space group: C M C A
;
_chemical_formula_sum "Si O2"
_cell_formula_units_Z 104
_cell_length_a 20.556555
_cell_length_b 26.826657
_cell_length_c 8.786125
_cell_angle_alpha 90.000000
_cell_angle_beta 90.000000
_cell_angle_gamma 90.000000
_cell_volume 4845.228563
_symmetry_space_group_name_H-M "C M C A"
_symmetry_group_IT_number 64
_symmetry_cell_setting 'orthorhombic'
loop_
_space_group_symop_operation_xyz
x,y,z
-x,1/2-y,1/2+z
x,-y,-z
-x,1/2+y,1/2-z
-x,-y,-z
x,1/2+y,1/2-z
-x,y,z
x,1/2-y,1/2+z
1/2+x,1/2+y,z
1/2-x,-y,1/2+z
1/2+x,1/2-y,-z
1/2-x,y,1/2-z
1/2-x,1/2-y,-z
1/2+x,y,1/2-z
1/2-x,1/2+y,z
1/2+x,-y,1/2+z
loop_
_atom_site_type_symbol
_atom_site_label
_atom_site_fract_x
_atom_site_fract_y
_atom_site_fract_z
Si Si1 0.750000 0.306570 0.250000
Si Si2 0.683610 0.359451 0.507309
Si Si3 0.426495 0.200763 0.531031
Si Si4 0.075148 0.117756 0.729827
Si Si5 0.309060 0.965065 0.855571
Si Si6 0.139682 0.274257 0.776626
Si Si7 0.925520 0.994806 0.177778
O O1 0.741916 0.342383 0.396207
O O2 0.813231 0.272859 0.262129
O O3 0.616465 0.367263 0.416923
O O4 0.705264 0.409188 0.592153
O O5 0.675141 0.317724 0.634238
O O6 0.500000 0.195278 0.473373
O O7 0.405641 0.152263 0.627450
O O8 0.421470 0.251421 0.631319
O O9 0.379731 0.204333 0.386299
O O10 0.090776 0.061285 0.773705
O O11 0.000000 0.125719 0.686170
O O12 0.250000 0.983639 0.750000
O O13 0.377786 0.967834 0.766556
O O14 0.313034 0.000000 0.000000
O O15 0.000000 0.009147 0.218446
O O16 0.912631 0.000000 0.000000
#
# Coordination Sequence:
#
# PCOD8264415 Si02
#       7
#     8  16  16  16  16  16  16
#     4  12  26  46  68  92 138 184 230 274 342 416
#     4  12  27  44  71  98 133 182 229 287 340 409
#     4  11  23  42  68 100 139 178 225 282 341 403
#     4  10  22  44  70 100 137 179 224 276 344 409
#     4  12  28  47  70 104 139 182 231 294 354 417
#     4  12  25  43  67 100 133 182 228 279 336 406
#     4  10  23  46  74 102 140 185 232 286 349 424
#
# _framework density 21.464417000000001
#
# number of rings (size 3 to 8) (size 9 to 14) (size 15 to 20)
#    0.000    0.769    4.615    1.385    4.308    4.615 
#    0.000    0.000    0.000    0.000    0.000    0.000 
#    0.000    0.000    0.000    0.000    0.000    0.000 
#
# Total GULP energy -645079.532208 kJ/mol
# GULP energy per Si atom -12405.375619 kJ/mol
# Density = 2.141556 g / cm^3
# Si number density = 21.464417 Si / 1000 Ang^3
#
#
#
# Elastic Constant Matrix: (Units=GPa)
#
#
# Indices 1 2 3 4 5 6 
#
# 1 91.2979 17.8891 42.1298 0.0000 0.0000 0.0000
# 2 17.8891 84.6633 22.1958 0.0000 0.0000 0.0000
# 3 42.1298 22.1958 106.7924 0.0000 0.0000 0.0000
# 4 0.0000 0.0000 0.0000 36.8666 0.0000 0.0000
# 5 0.0000 0.0000 0.0000 0.0000 24.7004 0.0000
# 6 0.0000 0.0000 0.0000 0.0000 0.0000 18.5889
#
#
#
# Elastic Compliance Matrix: (Units=1/GPa)
#
#
# Indices 1 2 3 4 5 6 
#
# 1 0.013580 -0.001549 -0.005035 0.000000 0.000000 0.000000
# 2 -0.001549 0.012669 -0.002022 0.000000 0.000000 0.000000
# 3 -0.005035 -0.002022 0.011771 0.000000 0.000000 0.000000
# 4 0.000000 0.000000 0.000000 0.027125 0.000000 0.000000
# 5 0.000000 0.000000 0.000000 0.000000 0.040485 0.000000
# 6 0.000000 0.000000 0.000000 0.000000 0.000000 0.053795
#
#
# Mechanical properties :
#
#
# Convention : Reuss Voigt Hill
#
# Bulk Modulus (GPa) = 48.06173 49.68697 48.87435
# Shear Modulus (GPa) = 27.23690 29.40044 28.31867
#
# Velocity S-wave (km/s) = 3.56607 3.70500 3.63620
# Velocity P-wave (km/s) = 6.27661 6.44216 6.35992
#
# Compressibility (1/GPa) = 0.02080658
#
# Stress axis : x y z
#
# Youngs Moduli (GPa) = 73.63569 78.93325 84.95677
#
# Poissons Ratio (x) = 0.12230 0.42780
# Poissons Ratio (y) = 0.11409 0.17177
# Poissons Ratio (z) = 0.37079 0.15959
#
# Static dielectric constant tensor:
#      x y z
#    x 4.004380 0.000000 0.000000 
#    y 0.000000 4.069580 0.000000 
#    z 0.000000 0.000000 3.976720 
# 
# 
# High freq. dielectric constant tensor:
#      x y z
#    x 1.848490 0.000000 0.000000 
#    y 0.000000 1.849520 0.000000 
#    z 0.000000 0.000000 1.852560 
# 
# From -- ./inp_files/8535.got.cif
#   From: 2010.03.12/outbox.cif.g09.slc.cpg/sg64_5_cif.got.tgz:8535.got - 2010.04.10 20:19:32.
