data_PCOD8264255
_publ_section_title
;
Structure prediction by ZEFSAII (Michael W. Deem and Ramdas Pophale) SiO2 
 PCOD8264255
Probable space group: C M C A
;
_chemical_formula_sum "Si O2"
_cell_formula_units_Z 64
_cell_length_a 10.563058
_cell_length_b 19.335472
_cell_length_c 14.315142
_cell_angle_alpha 90.000000
_cell_angle_beta 90.000000
_cell_angle_gamma 90.000000
_cell_volume 2923.749112
_symmetry_space_group_name_H-M "C M C A"
_symmetry_group_IT_number 64
_symmetry_cell_setting 'orthorhombic'
loop_
_space_group_symop_operation_xyz
x,y,z
-x,1/2-y,1/2+z
x,-y,-z
-x,1/2+y,1/2-z
-x,-y,-z
x,1/2+y,1/2-z
-x,y,z
x,1/2-y,1/2+z
1/2+x,1/2+y,z
1/2-x,-y,1/2+z
1/2+x,1/2-y,-z
1/2-x,y,1/2-z
1/2-x,1/2-y,-z
1/2+x,y,1/2-z
1/2-x,1/2+y,z
1/2+x,-y,1/2+z
loop_
_atom_site_type_symbol
_atom_site_label
_atom_site_fract_x
_atom_site_fract_y
_atom_site_fract_z
Si Si1 0.755044 0.197129 0.585997
Si Si2 0.355976 0.050772 0.914462
Si Si3 0.750000 0.465785 0.750000
Si Si4 0.500000 0.755013 0.607240
Si Si5 0.500000 0.626270 0.238941
Si Si6 0.000000 0.250553 0.383844
O O1 0.750000 0.250000 0.500000
O O2 0.781145 0.119267 0.552207
O O3 0.624258 0.204643 0.643523
O O4 0.873973 0.220020 0.650870
O O5 0.500000 0.067274 0.879890
O O6 0.268605 0.016102 0.836895
O O7 0.364932 0.000000 0.000000
O O8 0.625300 0.419442 0.759140
O O9 0.500000 0.834624 0.639206
O O10 0.500000 0.740574 0.496011
O O11 0.500000 0.677881 0.328508
#
# Coordination Sequence:
#
# PCOD8264255 Si02
#       6
#    16  16   8   8   8   8
#     4  10  22  42  71 100 138 181 242 296 362 423
#     4  11  26  47  77 105 151 201 245 301 376 456
#     4  12  28  46  74 108 150 196 254 298 384 444
#     4  10  22  39  70 100 141 181 245 301 360 429
#     4  12  26  44  72 108 148 194 244 316 376 442
#     4  10  24  39  68 104 143 181 243 301 368 431
#
# _framework density 21.889704999999999
#
# number of rings (size 3 to 8) (size 9 to 14) (size 15 to 20)
#    0.000    1.250    2.500    1.500   14.000    3.000 
#    0.000    1.250    0.000    0.000    0.000    0.000 
#    0.000    0.000    0.000    0.000    0.000    0.000 
#
# Total GULP energy -396507.139365 kJ/mol
# GULP energy per Si atom -12390.848105 kJ/mol
# Density = 2.183988 g / cm^3
# Si number density = 21.889705 Si / 1000 Ang^3
#
#
#
# Elastic Constant Matrix: (Units=GPa)
#
#
# Indices 1 2 3 4 5 6 
#
# 1 239.2927 88.5028 30.2601 0.0000 0.0000 0.0000
# 2 88.5028 178.6453 46.3764 0.0000 0.0000 0.0000
# 3 30.2601 46.3764 93.9093 0.0000 0.0000 0.0000
# 4 0.0000 0.0000 0.0000 46.3485 0.0000 0.0000
# 5 0.0000 0.0000 0.0000 0.0000 16.4441 0.0000
# 6 0.0000 0.0000 0.0000 0.0000 0.0000 36.9551
#
#
#
# Elastic Compliance Matrix: (Units=1/GPa)
#
#
# Indices 1 2 3 4 5 6 
#
# 1 0.005133 -0.002425 -0.000457 0.000000 0.000000 0.000000
# 2 -0.002425 0.007566 -0.002955 0.000000 0.000000 0.000000
# 3 -0.000457 -0.002955 0.012255 0.000000 0.000000 0.000000
# 4 0.000000 0.000000 0.000000 0.021576 0.000000 0.000000
# 5 0.000000 0.000000 0.000000 0.000000 0.060812 0.000000
# 6 0.000000 0.000000 0.000000 0.000000 0.000000 0.027060
#
#
# Mechanical properties :
#
#
# Convention : Reuss Voigt Hill
#
# Bulk Modulus (GPa) = 75.29224 93.56955 84.43089
# Shear Modulus (GPa) = 33.22208 43.06343 38.14275
#
# Velocity S-wave (km/s) = 3.90000 4.44023 4.17885
# Velocity P-wave (km/s) = 7.39938 8.31422 7.87010
#
# Compressibility (1/GPa) = 0.01328158
#
# Stress axis : x y z
#
# Youngs Moduli (GPa) = 194.79928 132.16993 81.59850
#
# Poissons Ratio (x) = 0.32046 0.03727
# Poissons Ratio (y) = 0.47231 0.24114
# Poissons Ratio (z) = 0.08898 0.39058
#
# Static dielectric constant tensor:
#      x y z
#    x 7.802810 0.000000 0.000000 
#    y 0.000000 4.006770 0.000000 
#    z 0.000000 0.000000 3.670660 
# 
# 
# High freq. dielectric constant tensor:
#      x y z
#    x 1.897420 0.000000 0.000000 
#    y 0.000000 1.864150 0.000000 
#    z 0.000000 0.000000 1.837700 
# 
# From -- ./inp_files/22048.got.cif
#   From: 2010.03.12/outbox.cif.g09.slc.cpg/sg64_12_cif.got.tgz:22048.got - 2010.04.10 20:19:32.
