data_PCOD8264341
_publ_section_title
;
Structure prediction by ZEFSAII (Michael W. Deem and Ramdas Pophale) SiO2 
 PCOD8264341
Probable space group: C M C A
;
_chemical_formula_sum "Si O2"
_cell_formula_units_Z 104
_cell_length_a 17.753868
_cell_length_b 14.239685
_cell_length_c 19.170075
_cell_angle_alpha 90.000000
_cell_angle_beta 90.000000
_cell_angle_gamma 90.000000
_cell_volume 4846.376843
_symmetry_space_group_name_H-M "C M C A"
_symmetry_group_IT_number 64
_symmetry_cell_setting 'orthorhombic'
loop_
_space_group_symop_operation_xyz
x,y,z
-x,1/2-y,1/2+z
x,-y,-z
-x,1/2+y,1/2-z
-x,-y,-z
x,1/2+y,1/2-z
-x,y,z
x,1/2-y,1/2+z
1/2+x,1/2+y,z
1/2-x,-y,1/2+z
1/2+x,1/2-y,-z
1/2-x,y,1/2-z
1/2-x,1/2-y,-z
1/2+x,y,1/2-z
1/2-x,1/2+y,z
1/2+x,-y,1/2+z
loop_
_atom_site_type_symbol
_atom_site_label
_atom_site_fract_x
_atom_site_fract_y
_atom_site_fract_z
Si Si1 0.765763 0.607397 0.326313
Si Si2 0.082572 0.190787 0.135533
Si Si3 0.584477 0.340281 0.253275
Si Si4 0.629398 0.500000 0.500000
Si Si5 0.082936 0.292884 0.995857
Si Si6 0.196976 0.424229 0.139672
Si Si7 0.319618 0.773517 0.376447
O O1 0.750000 0.650869 0.250000
O O2 0.850043 0.616508 0.358243
O O3 0.753370 0.496523 0.323602
O O4 0.702933 0.664282 0.369476
O O5 0.077918 0.240106 0.210030
O O6 0.000000 0.143364 0.120325
O O7 0.100661 0.270364 0.077009
O O8 0.500000 0.380920 0.239383
O O9 0.628310 0.410117 0.306063
O O10 0.627217 0.321374 0.181123
O O11 0.582625 0.405411 0.516732
O O12 0.677968 0.474179 0.432787
O O13 0.138425 0.227513 0.950553
O O14 0.000000 0.257934 0.975631
O O15 0.240224 0.327836 0.123161
#
# Coordination Sequence:
#
# PCOD8264341 Si02
#       7
#    16  16  16   8  16  16  16
#     4  12  22  41  66  96 128 170 222 273 329 400
#     4  10  22  41  66  92 126 171 216 269 338 397
#     4  11  22  43  67  93 132 177 219 272 338 400
#     4  12  23  40  64 104 131 172 222 282 339 406
#     4  11  24  42  66  97 134 176 220 277 339 402
#     4  12  26  41  67 100 135 174 223 277 337 396
#     4  12  23  43  66  96 135 174 225 278 332 403
#
# _framework density 21.459329
#
# number of rings (size 3 to 8) (size 9 to 14) (size 15 to 20)
#    0.000    0.615    6.154    2.077    2.154    1.846 
#    0.000    3.846    0.000    1.846    0.000    0.000 
#    0.000    0.000    0.000    0.000    0.000    0.000 
#
# Total GULP energy -644384.241769 kJ/mol
# GULP energy per Si atom -12392.004649 kJ/mol
# Density = 2.141049 g / cm^3
# Si number density = 21.459329 Si / 1000 Ang^3
#
#
#
# Elastic Constant Matrix: (Units=GPa)
#
#
# Indices 1 2 3 4 5 6 
#
# 1 141.9400 34.2333 38.5293 0.0000 0.0000 0.0000
# 2 34.2333 73.1595 7.5649 0.0000 0.0000 0.0000
# 3 38.5293 7.5649 97.4216 0.0000 0.0000 0.0000
# 4 0.0000 0.0000 0.0000 25.1495 0.0000 0.0000
# 5 0.0000 0.0000 0.0000 0.0000 35.1809 0.0000
# 6 0.0000 0.0000 0.0000 0.0000 0.0000 27.7822
#
#
#
# Elastic Compliance Matrix: (Units=1/GPa)
#
#
# Indices 1 2 3 4 5 6 
#
# 1 0.008830 -0.003801 -0.003197 0.000000 0.000000 0.000000
# 2 -0.003801 0.015416 0.000306 0.000000 0.000000 0.000000
# 3 -0.003197 0.000306 0.011505 0.000000 0.000000 0.000000
# 4 0.000000 0.000000 0.000000 0.039762 0.000000 0.000000
# 5 0.000000 0.000000 0.000000 0.000000 0.028425 0.000000
# 6 0.000000 0.000000 0.000000 0.000000 0.000000 0.035994
#
#
# Mechanical properties :
#
#
# Convention : Reuss Voigt Hill
#
# Bulk Modulus (GPa) = 44.70840 52.57513 48.64177
# Shear Modulus (GPa) = 31.10012 33.10209 32.10111
#
# Velocity S-wave (km/s) = 3.81104 3.93179 3.87189
# Velocity P-wave (km/s) = 6.34387 6.72050 6.53490
#
# Compressibility (1/GPa) = 0.02236716
#
# Stress axis : x y z
#
# Youngs Moduli (GPa) = 113.25298 64.86876 86.91689
#
# Poissons Ratio (x) = 0.24657 0.27787
# Poissons Ratio (y) = 0.43049 -0.02662
# Poissons Ratio (z) = 0.36206 -0.01987
#
# Static dielectric constant tensor:
#      x y z
#    x 4.083800 0.000000 0.000000 
#    y 0.000000 3.627400 0.000000 
#    z 0.000000 0.000000 3.885410 
# 
# 
# High freq. dielectric constant tensor:
#      x y z
#    x 1.854000 0.000000 0.000000 
#    y 0.000000 1.819460 0.000000 
#    z 0.000000 0.000000 1.848620 
# 
# From -- ./inp_files/40250.got.cif
#   From: 2010.03.12/outbox.cif.g09.slc.cpg/sg64_21_cif.got.tgz:40250.got - 2010.04.10 20:19:32.
