data_PCOD8264532
_publ_section_title
;
Structure prediction by ZEFSAII (Michael W. Deem and Ramdas Pophale) SiO2 
 PCOD8264532
Probable space group: C M C A
;
_chemical_formula_sum "Si O2"
_cell_formula_units_Z 64
_cell_length_a 15.839564
_cell_length_b 13.571982
_cell_length_c 12.828949
_cell_angle_alpha 90.000000
_cell_angle_beta 90.000000
_cell_angle_gamma 90.000000
_cell_volume 2757.894042
_symmetry_space_group_name_H-M "C M C A"
_symmetry_group_IT_number 64
_symmetry_cell_setting 'orthorhombic'
loop_
_space_group_symop_operation_xyz
x,y,z
-x,1/2-y,1/2+z
x,-y,-z
-x,1/2+y,1/2-z
-x,-y,-z
x,1/2+y,1/2-z
-x,y,z
x,1/2-y,1/2+z
1/2+x,1/2+y,z
1/2-x,-y,1/2+z
1/2+x,1/2-y,-z
1/2-x,y,1/2-z
1/2-x,1/2-y,-z
1/2+x,y,1/2-z
1/2-x,1/2+y,z
1/2+x,-y,1/2+z
loop_
_atom_site_type_symbol
_atom_site_label
_atom_site_fract_x
_atom_site_fract_y
_atom_site_fract_z
Si Si1 0.500000 0.088970 0.846374
Si Si2 0.318979 0.861440 0.167894
Si Si3 0.137837 0.657464 0.393451
Si Si4 0.500000 0.243184 0.021999
Si Si5 0.000000 0.626082 0.222002
Si Si6 0.250657 0.000000 0.000000
O O1 0.414937 0.127665 0.787911
O O2 0.500000 0.971289 0.849118
O O3 0.500000 0.139524 0.959989
O O4 0.250000 0.897454 0.250000
O O5 0.300956 0.747969 0.137771
O O6 0.311559 0.929900 0.066165
O O7 0.082262 0.627784 0.293955
O O8 0.192502 0.563696 0.423531
O O9 0.081650 0.691880 0.492012
O O10 0.500000 0.219922 0.144715
#
# Coordination Sequence:
#
# PCOD8264532 Si02
#       6
#     8  16  16   8   8   8
#     4  10  23  44  71 107 139 188 243 289 356 431
#     4  11  26  46  73 106 145 189 241 299 364 430
#     4  10  25  45  66 109 140 192 243 293 371 423
#     4   9  22  41  71 101 147 187 233 305 352 426
#     4  11  22  41  76 101 142 193 236 295 365 429
#     4  12  26  46  68 102 146 192 238 307 352 435
#
# _framework density 23.206112000000001
#
# number of rings (size 3 to 8) (size 9 to 14) (size 15 to 20)
#    0.000    1.500    0.000    3.375   10.500    5.000 
#    9.000    0.000    0.000    0.000    0.000    0.000 
#    0.000    0.000    0.000    0.000    0.000    0.000 
#
# Total GULP energy -396831.998652 kJ/mol
# GULP energy per Si atom -12400.999958 kJ/mol
# Density = 2.315329 g / cm^3
# Si number density = 23.206112 Si / 1000 Ang^3
#
#
#
# Elastic Constant Matrix: (Units=GPa)
#
#
# Indices 1 2 3 4 5 6 
#
# 1 134.3198 28.6054 46.5544 0.0000 0.0000 0.0000
# 2 28.6054 123.5814 22.1797 0.0000 0.0000 0.0000
# 3 46.5544 22.1797 70.0944 0.0000 0.0000 0.0000
# 4 0.0000 0.0000 0.0000 31.5641 0.0000 0.0000
# 5 0.0000 0.0000 0.0000 0.0000 10.7011 0.0000
# 6 0.0000 0.0000 0.0000 0.0000 0.0000 34.8599
#
#
#
# Elastic Compliance Matrix: (Units=1/GPa)
#
#
# Indices 1 2 3 4 5 6 
#
# 1 0.009828 -0.001170 -0.006157 0.000000 0.000000 0.000000
# 2 -0.001170 0.008718 -0.001982 0.000000 0.000000 0.000000
# 3 -0.006157 -0.001982 0.018983 0.000000 0.000000 0.000000
# 4 0.000000 0.000000 0.000000 0.031682 0.000000 0.000000
# 5 0.000000 0.000000 0.000000 0.000000 0.093448 0.000000
# 6 0.000000 0.000000 0.000000 0.000000 0.000000 0.028686
#
#
# Mechanical properties :
#
#
# Convention : Reuss Voigt Hill
#
# Bulk Modulus (GPa) = 52.87748 58.07495 55.47622
# Shear Modulus (GPa) = 23.11952 30.80208 26.96080
#
# Velocity S-wave (km/s) = 3.15980 3.64720 3.41221
# Velocity P-wave (km/s) = 6.01231 6.54340 6.28347
#
# Compressibility (1/GPa) = 0.01891164
#
# Stress axis : x y z
#
# Youngs Moduli (GPa) = 101.74850 114.70143 52.67852
#
# Poissons Ratio (x) = 0.13418 0.32436
# Poissons Ratio (y) = 0.11903 0.10439
# Poissons Ratio (z) = 0.62650 0.22731
#
# Static dielectric constant tensor:
#      x y z
#    x 4.228790 0.000000 0.000000 
#    y 0.000000 4.243490 0.000000 
#    z 0.000000 0.000000 3.827500 
# 
# 
# High freq. dielectric constant tensor:
#      x y z
#    x 1.921690 0.000000 0.000000 
#    y 0.000000 1.931390 0.000000 
#    z 0.000000 0.000000 1.899800 
# 
# From -- ./inp_files/15586.got.cif
#   From: 2010.03.12/outbox.cif.g09.slc.cpg/sg64_8_cif.got.tgz:15586.got - 2010.04.10 20:19:32.
