data_PCOD8264088
_publ_section_title
;
Structure prediction by ZEFSAII (Michael W. Deem and Ramdas Pophale) SiO2 
 PCOD8264088
Probable space group: C M C A
;
_chemical_formula_sum "Si O2"
_cell_formula_units_Z 104
_cell_length_a 20.213085
_cell_length_b 24.354231
_cell_length_c 10.101846
_cell_angle_alpha 90.000000
_cell_angle_beta 90.000000
_cell_angle_gamma 90.000000
_cell_volume 4972.877565
_symmetry_space_group_name_H-M "C M C A"
_symmetry_group_IT_number 64
_symmetry_cell_setting 'orthorhombic'
loop_
_space_group_symop_operation_xyz
x,y,z
-x,1/2-y,1/2+z
x,-y,-z
-x,1/2+y,1/2-z
-x,-y,-z
x,1/2+y,1/2-z
-x,y,z
x,1/2-y,1/2+z
1/2+x,1/2+y,z
1/2-x,-y,1/2+z
1/2+x,1/2-y,-z
1/2-x,y,1/2-z
1/2-x,1/2-y,-z
1/2+x,y,1/2-z
1/2-x,1/2+y,z
1/2+x,-y,1/2+z
loop_
_atom_site_type_symbol
_atom_site_label
_atom_site_fract_x
_atom_site_fract_y
_atom_site_fract_z
Si Si1 0.607287 0.801789 0.755983
Si Si2 0.750000 0.046554 0.750000
Si Si3 0.353241 0.971010 0.879259
Si Si4 0.833083 0.120873 0.937594
Si Si5 0.073986 0.580819 0.344382
Si Si6 0.782634 0.135017 0.376874
Si Si7 0.425346 0.283695 0.033656
O O1 0.573905 0.860900 0.732011
O O2 0.680897 0.810789 0.817392
O O3 0.606069 0.770635 0.612652
O O4 0.569235 0.768575 0.870082
O O5 0.805079 0.085375 0.818004
O O6 0.711859 0.008205 0.853557
O O7 0.401400 0.967152 0.753493
O O8 0.332738 0.910537 0.933008
O O9 0.392381 0.000000 0.000000
O O10 0.881507 0.170097 0.891028
O O11 0.875642 0.081244 0.032878
O O12 0.772490 0.150342 0.015437
O O13 0.000000 0.566678 0.392067
O O14 0.750000 0.104783 0.250000
O O15 0.500000 0.305895 0.010853
#
# Coordination Sequence:
#
# PCOD8264088 Si02
#       7
#    16   8  16  16  16  16  16
#     4  10  22  37  64  88 117 159 200 249 304 360
#     4  12  24  36  60  94 124 152 202 254 314 350
#     4  11  21  36  63  88 122 162 198 250 304 362
#     4  11  22  38  60  88 122 158 201 254 300 357
#     4  10  21  41  65  88 118 166 209 238 295 372
#     4  11  18  38  60  87 115 154 201 243 300 363
#     4  11  22  41  62  86 119 161 205 244 301 368
#
# _framework density 20.913444999999999
#
# number of rings (size 3 to 8) (size 9 to 14) (size 15 to 20)
#    0.000    1.231    6.923    2.769    0.000    2.154 
#    1.385    2.308    0.000    0.000    0.000    0.000 
#    0.000    0.000    0.000    0.000    0.000    0.000 
#
# Total GULP energy -644368.596454 kJ/mol
# GULP energy per Si atom -12391.703778 kJ/mol
# Density = 2.086585 g / cm^3
# Si number density = 20.913445 Si / 1000 Ang^3
#
#
#
# Elastic Constant Matrix: (Units=GPa)
#
#
# Indices 1 2 3 4 5 6 
#
# 1 120.6007 27.4864 36.5385 0.0000 0.0000 0.0000
# 2 27.4864 63.2202 49.7787 0.0000 0.0000 0.0000
# 3 36.5385 49.7787 102.1652 0.0000 0.0000 0.0000
# 4 0.0000 0.0000 0.0000 32.6006 0.0000 0.0000
# 5 0.0000 0.0000 0.0000 0.0000 19.8462 0.0000
# 6 0.0000 0.0000 0.0000 0.0000 0.0000 22.2439
#
#
#
# Elastic Compliance Matrix: (Units=1/GPa)
#
#
# Indices 1 2 3 4 5 6 
#
# 1 0.009512 -0.002364 -0.002250 0.000000 0.000000 0.000000
# 2 -0.002364 0.026251 -0.011945 0.000000 0.000000 0.000000
# 3 -0.002250 -0.011945 0.016413 0.000000 0.000000 0.000000
# 4 0.000000 0.000000 0.000000 0.030674 0.000000 0.000000
# 5 0.000000 0.000000 0.000000 0.000000 0.050388 0.000000
# 6 0.000000 0.000000 0.000000 0.000000 0.000000 0.044956
#
#
# Mechanical properties :
#
#
# Convention : Reuss Voigt Hill
#
# Bulk Modulus (GPa) = 52.47180 57.06591 54.76886
# Shear Modulus (GPa) = 22.97114 26.41698 24.69406
#
# Velocity S-wave (km/s) = 3.31779 3.55795 3.43997
# Velocity P-wave (km/s) = 6.31042 6.65016 6.48252
#
# Compressibility (1/GPa) = 0.01905786
#
# Stress axis : x y z
#
# Youngs Moduli (GPa) = 105.12657 38.09420 60.92792
#
# Poissons Ratio (x) = 0.09005 0.13710
# Poissons Ratio (y) = 0.24851 0.72778
# Poissons Ratio (z) = 0.23656 0.45503
#
# Static dielectric constant tensor:
#      x y z
#    x 3.864750 0.000000 0.000000 
#    y 0.000000 3.529960 0.000000 
#    z 0.000000 0.000000 3.688710 
# 
# 
# High freq. dielectric constant tensor:
#      x y z
#    x 1.818140 0.000000 0.000000 
#    y 0.000000 1.794470 0.000000 
#    z 0.000000 0.000000 1.809510 
# 
# From -- ./inp_files/8492.got.cif
#   From: 2010.03.12/outbox.cif.g09.slc.cpg/sg64_5_cif.got.tgz:8492.got - 2010.04.10 20:19:32.
