data_PCOD8264692
_publ_section_title
;
Structure prediction by ZEFSAII (Michael W. Deem and Ramdas Pophale) SiO2 
 PCOD8264692
Probable space group: C M C A
;
_chemical_formula_sum "Si O2"
_cell_formula_units_Z 128
_cell_length_a 16.814893
_cell_length_b 22.662494
_cell_length_c 17.332510
_cell_angle_alpha 90.000000
_cell_angle_beta 90.000000
_cell_angle_gamma 90.000000
_cell_volume 6604.854724
_symmetry_space_group_name_H-M "C M C A"
_symmetry_group_IT_number 64
_symmetry_cell_setting 'orthorhombic'
loop_
_space_group_symop_operation_xyz
x,y,z
-x,1/2-y,1/2+z
x,-y,-z
-x,1/2+y,1/2-z
-x,-y,-z
x,1/2+y,1/2-z
-x,y,z
x,1/2-y,1/2+z
1/2+x,1/2+y,z
1/2-x,-y,1/2+z
1/2+x,1/2-y,-z
1/2-x,y,1/2-z
1/2-x,1/2-y,-z
1/2+x,y,1/2-z
1/2-x,1/2+y,z
1/2+x,-y,1/2+z
loop_
_atom_site_type_symbol
_atom_site_label
_atom_site_fract_x
_atom_site_fract_y
_atom_site_fract_z
Si Si1 0.906094 0.934719 0.914499
Si Si2 0.904764 0.842495 0.791088
Si Si3 0.594015 0.932237 0.412878
Si Si4 0.340775 0.382836 0.234750
Si Si5 0.405229 0.896652 0.867620
Si Si6 0.905770 0.131507 0.534226
Si Si7 0.907194 0.715423 0.835830
Si Si8 0.093879 0.470078 0.148076
O O1 0.869886 0.890388 0.851187
O O2 0.000000 0.936153 0.906914
O O3 0.875413 0.000878 0.899650
O O4 0.883582 0.912542 0.000288
O O5 0.873939 0.859100 0.705334
O O6 0.869075 0.779062 0.816356
O O7 0.000000 0.842293 0.791955
O O8 0.500000 0.926641 0.397553
O O9 0.642283 0.889425 0.356094
O O10 0.250000 0.366877 0.250000
O O11 0.393527 0.328698 0.264950
O O12 0.364799 0.443790 0.276036
O O13 0.500000 0.897745 0.869224
O O14 0.373881 0.963810 0.863371
O O15 0.372008 0.867317 0.946849
O O16 0.871310 0.186069 0.585435
O O17 0.882528 0.069194 0.573792
O O18 0.000000 0.136846 0.532538
O O19 0.000000 0.724766 0.847173
O O20 0.000000 0.469277 0.162658
#
# Coordination Sequence:
#
# PCOD8264692 Si02
#       8
#    16  16  16  16  16  16  16  16
#     4   8  15  28  51  80 104 126 154 204 259 297
#     4   9  16  27  44  73 104 126 156 205 253 282
#     4   9  16  30  53  79 102 126 164 202 247 308
#     4  11  21  32  49  70  99 131 169 205 245 286
#     4   9  15  24  45  77 103 121 151 197 247 298
#     4   8  14  25  42  67  98 128 156 189 235 291
#     4   9  18  33  49  67  97 132 166 203 244 286
#     4   9  16  28  49  74 100 127 154 195 251 302
#
# _framework density 19.379684999999998
#
# number of rings (size 3 to 8) (size 9 to 14) (size 15 to 20)
#    0.000    3.000    0.000    3.750    0.000    3.500 
#    2.250    0.000   11.000    3.750    0.000    0.000 
#    0.000    0.000    0.000    0.000    0.000    0.000 
#
# Total GULP energy -793260.909734 kJ/mol
# GULP energy per Si atom -12394.701715 kJ/mol
# Density = 1.933558 g / cm^3
# Si number density = 19.379685 Si / 1000 Ang^3
#
#
#
# Elastic Constant Matrix: (Units=GPa)
#
#
# Indices 1 2 3 4 5 6 
#
# 1 10.1268 0.4534 5.9705 0.0000 0.0000 0.0000
# 2 0.4534 126.4589 74.2944 0.0000 0.0000 0.0000
# 3 5.9705 74.2944 161.2224 0.0000 0.0000 0.0000
# 4 0.0000 0.0000 0.0000 17.6171 0.0000 0.0000
# 5 0.0000 0.0000 0.0000 0.0000 8.3585 0.0000
# 6 0.0000 0.0000 0.0000 0.0000 0.0000 4.2626
#
#
#
# Elastic Compliance Matrix: (Units=1/GPa)
#
#
# Indices 1 2 3 4 5 6 
#
# 1 0.101539 0.002530 -0.004926 0.000000 0.000000 0.000000
# 2 0.002530 0.010906 -0.005120 0.000000 0.000000 0.000000
# 3 -0.004926 -0.005120 0.008744 0.000000 0.000000 0.000000
# 4 0.000000 0.000000 0.000000 0.056763 0.000000 0.000000
# 5 0.000000 0.000000 0.000000 0.000000 0.119638 0.000000
# 6 0.000000 0.000000 0.000000 0.000000 0.000000 0.234598
#
#
# Mechanical properties :
#
#
# Convention : Reuss Voigt Hill
#
# Bulk Modulus (GPa) = 9.41989 51.02720 30.22355
# Shear Modulus (GPa) = 8.58213 20.52030 14.55122
#
# Velocity S-wave (km/s) = 2.10666 3.25754 2.74313
# Velocity P-wave (km/s) = 3.28461 6.36680 5.06581
#
# Compressibility (1/GPa) = 0.10615831
#
# Stress axis : x y z
#
# Youngs Moduli (GPa) = 9.84843 91.68951 114.36100
#
# Poissons Ratio (x) = -0.23198 0.56337
# Poissons Ratio (y) = -0.02492 0.58548
# Poissons Ratio (z) = 0.04852 0.46941
#
# Static dielectric constant tensor:
#      x y z
#    x 2.848210 0.000000 0.000000 
#    y 0.000000 3.699510 0.000000 
#    z 0.000000 0.000000 3.899810 
# 
# 
# High freq. dielectric constant tensor:
#      x y z
#    x 1.686510 0.000000 0.000000 
#    y 0.000000 1.744380 0.000000 
#    z 0.000000 0.000000 1.766640 
# 
# From -- ./inp_files/34716.got.cif
#   From: 2010.03.12/outbox.cif.g09.slc.cpg/sg64_18_cif.got.tgz:34716.got - 2010.04.10 20:19:32.
