data_PCOD8264966
_publ_section_title
;
Structure prediction by ZEFSAII (Michael W. Deem and Ramdas Pophale) SiO2 
 PCOD8264966
Probable space group: C M C A
;
_chemical_formula_sum "Si O2"
_cell_formula_units_Z 40
_cell_length_a 9.401989
_cell_length_b 15.500273
_cell_length_c 11.062956
_cell_angle_alpha 90.000000
_cell_angle_beta 90.000000
_cell_angle_gamma 90.000000
_cell_volume 1612.242150
_symmetry_space_group_name_H-M "C M C A"
_symmetry_group_IT_number 64
_symmetry_cell_setting 'orthorhombic'
loop_
_space_group_symop_operation_xyz
x,y,z
-x,1/2-y,1/2+z
x,-y,-z
-x,1/2+y,1/2-z
-x,-y,-z
x,1/2+y,1/2-z
-x,y,z
x,1/2-y,1/2+z
1/2+x,1/2+y,z
1/2-x,-y,1/2+z
1/2+x,1/2-y,-z
1/2-x,y,1/2-z
1/2-x,1/2-y,-z
1/2+x,y,1/2-z
1/2-x,1/2+y,z
1/2+x,-y,1/2+z
loop_
_atom_site_type_symbol
_atom_site_label
_atom_site_fract_x
_atom_site_fract_y
_atom_site_fract_z
Si Si1 0.000000 0.602948 0.973414
Si Si2 0.277050 0.579221 0.117960
Si Si3 0.500000 0.561562 0.809530
Si Si4 0.000000 0.305973 0.496649
O O1 0.000000 0.569524 0.834780
O O2 0.865939 0.562149 0.043080
O O3 0.000000 0.704499 0.990764
O O4 0.250000 0.616652 0.250000
O O5 0.362996 0.488430 0.133818
O O6 0.360281 0.656941 0.057643
O O7 0.500000 0.659886 0.857920
#
# Coordination Sequence:
#
# PCOD8264966 Si02
#       4
#     8  16   8   8
#     4  12  28  50  84 115 155 210 258 321 402 451
#     4  11  26  49  79 111 159 205 265 314 386 467
#     4  11  29  47  81 113 159 204 263 319 380 472
#     4  11  27  51  73 118 162 196 265 328 383 457
#
# _framework density 24.810169999999999
#
# number of rings (size 3 to 8) (size 9 to 14) (size 15 to 20)
#    0.000    0.800    0.000    6.000   16.800    1.600 
#    0.000    0.000    0.000    0.000    0.000    0.000 
#    0.000    0.000    0.000    0.000    0.000    0.000 
#
# Total GULP energy -247887.086982 kJ/mol
# GULP energy per Si atom -12394.354349 kJ/mol
# Density = 2.475370 g / cm^3
# Si number density = 24.810170 Si / 1000 Ang^3
#
#
#
# Elastic Constant Matrix: (Units=GPa)
#
#
# Indices 1 2 3 4 5 6 
#
# 1 196.3917 55.3635 89.3492 0.0000 0.0000 0.0000
# 2 55.3635 212.6367 90.9009 0.0000 0.0000 0.0000
# 3 89.3492 90.9009 194.9799 0.0000 0.0000 0.0000
# 4 0.0000 0.0000 0.0000 29.6592 0.0000 0.0000
# 5 0.0000 0.0000 0.0000 0.0000 40.9390 0.0000
# 6 0.0000 0.0000 0.0000 0.0000 0.0000 29.8163
#
#
#
# Elastic Compliance Matrix: (Units=1/GPa)
#
#
# Indices 1 2 3 4 5 6 
#
# 1 0.006479 -0.000522 -0.002726 0.000000 0.000000 0.000000
# 2 -0.000522 0.005915 -0.002519 0.000000 0.000000 0.000000
# 3 -0.002726 -0.002519 0.007552 0.000000 0.000000 0.000000
# 4 0.000000 0.000000 0.000000 0.033716 0.000000 0.000000
# 5 0.000000 0.000000 0.000000 0.000000 0.024427 0.000000
# 6 0.000000 0.000000 0.000000 0.000000 0.000000 0.033539
#
#
# Mechanical properties :
#
#
# Convention : Reuss Voigt Hill
#
# Bulk Modulus (GPa) = 118.84806 119.47063 119.15935
# Shear Modulus (GPa) = 39.69345 44.64254 42.16800
#
# Velocity S-wave (km/s) = 4.00420 4.24649 4.12712
# Velocity P-wave (km/s) = 8.32977 8.50306 8.41686
#
# Compressibility (1/GPa) = 0.00841410
#
# Stress axis : x y z
#
# Youngs Moduli (GPa) = 154.34385 169.04916 132.41355
#
# Poissons Ratio (x) = 0.08819 0.36093
# Poissons Ratio (y) = 0.08051 0.33352
# Poissons Ratio (z) = 0.42071 0.42580
#
# Static dielectric constant tensor:
#      x y z
#    x 5.168490 0.000000 0.000000 
#    y 0.000000 4.285030 0.000000 
#    z 0.000000 0.000000 4.991630 
# 
# 
# High freq. dielectric constant tensor:
#      x y z
#    x 2.005640 0.000000 0.000000 
#    y 0.000000 1.991780 0.000000 
#    z 0.000000 0.000000 2.016500 
# 
# From -- ./inp_files/11679.got.cif
#   From: 2010.03.12/outbox.cif.g09.slc.cpg/sg64_6_cif.got.tgz:11679.got - 2010.04.10 20:19:32.
