data_PCOD8264108
_publ_section_title
;
Structure prediction by ZEFSAII (Michael W. Deem and Ramdas Pophale) SiO2 
 PCOD8264108
Probable space group: C M C A
;
_chemical_formula_sum "Si O2"
_cell_formula_units_Z 64
_cell_length_a 10.696546
_cell_length_b 24.109525
_cell_length_c 12.393808
_cell_angle_alpha 90.000000
_cell_angle_beta 90.000000
_cell_angle_gamma 90.000000
_cell_volume 3196.222329
_symmetry_space_group_name_H-M "C M C A"
_symmetry_group_IT_number 64
_symmetry_cell_setting 'orthorhombic'
loop_
_space_group_symop_operation_xyz
x,y,z
-x,1/2-y,1/2+z
x,-y,-z
-x,1/2+y,1/2-z
-x,-y,-z
x,1/2+y,1/2-z
-x,y,z
x,1/2-y,1/2+z
1/2+x,1/2+y,z
1/2-x,-y,1/2+z
1/2+x,1/2-y,-z
1/2-x,y,1/2-z
1/2-x,1/2-y,-z
1/2+x,y,1/2-z
1/2-x,1/2+y,z
1/2+x,-y,1/2+z
loop_
_atom_site_type_symbol
_atom_site_label
_atom_site_fract_x
_atom_site_fract_y
_atom_site_fract_z
Si Si1 0.772279 0.063429 0.481197
Si Si2 0.250000 0.386300 0.750000
Si Si3 0.135703 0.904851 0.178796
Si Si4 0.000000 0.821041 0.710262
Si Si5 0.500000 0.139491 0.975746
Si Si6 0.500000 0.192075 0.750811
O O1 0.750637 0.074400 0.354782
O O2 0.651899 0.079989 0.552774
O O3 0.880455 0.100672 0.530977
O O4 0.808099 0.000000 0.500000
O O5 0.374841 0.349156 0.757468
O O6 0.250000 0.929339 0.250000
O O7 0.000000 0.930798 0.215633
O O8 0.122416 0.837831 0.196699
O O9 0.000000 0.823846 0.582231
O O10 0.000000 0.756954 0.737288
O O11 0.500000 0.182258 0.878577
#
# Coordination Sequence:
#
# PCOD8264108 Si02
#       6
#    16   8  16   8   8   8
#     4  11  23  41  65  90 128 173 205 269 317 371
#     4  10  26  42  58  94 132 156 216 256 322 388
#     4  10  22  39  63  98 125 153 223 260 302 380
#     4  10  24  41  62  89 128 167 196 266 332 368
#     4  10  21  42  60  94 126 164 221 249 312 406
#     4  10  22  39  70  87 124 163 211 262 313 373
#
# _framework density 20.023637000000001
#
# number of rings (size 3 to 8) (size 9 to 14) (size 15 to 20)
#    0.750    1.000    2.500    0.375    5.250    2.500 
#    0.000    5.000    0.000    0.000    0.000    0.000 
#    0.000    0.000    0.000    0.000    0.000    0.000 
#
# Total GULP energy -396521.217483 kJ/mol
# GULP energy per Si atom -12391.288046 kJ/mol
# Density = 1.997806 g / cm^3
# Si number density = 20.023637 Si / 1000 Ang^3
#
#
#
# Elastic Constant Matrix: (Units=GPa)
#
#
# Indices 1 2 3 4 5 6 
#
# 1 135.0780 32.5549 42.4723 0.0000 0.0000 0.0000
# 2 32.5549 125.6117 66.5533 0.0000 0.0000 0.0000
# 3 42.4723 66.5533 118.7830 0.0000 0.0000 0.0000
# 4 0.0000 0.0000 0.0000 25.6798 0.0000 0.0000
# 5 0.0000 0.0000 0.0000 0.0000 55.4590 0.0000
# 6 0.0000 0.0000 0.0000 0.0000 0.0000 71.4766
#
#
#
# Elastic Compliance Matrix: (Units=1/GPa)
#
#
# Indices 1 2 3 4 5 6 
#
# 1 0.008402 -0.000833 -0.002537 0.000000 0.000000 0.000000
# 2 -0.000833 0.011405 -0.006092 0.000000 0.000000 0.000000
# 3 -0.002537 -0.006092 0.012739 0.000000 0.000000 0.000000
# 4 0.000000 0.000000 0.000000 0.038941 0.000000 0.000000
# 5 0.000000 0.000000 0.000000 0.000000 0.018031 0.000000
# 6 0.000000 0.000000 0.000000 0.000000 0.000000 0.013991
#
#
# Mechanical properties :
#
#
# Convention : Reuss Voigt Hill
#
# Bulk Modulus (GPa) = 73.41781 73.62596 73.52189
# Shear Modulus (GPa) = 39.37806 46.38257 42.88031
#
# Velocity S-wave (km/s) = 4.43942 4.81811 4.63264
# Velocity P-wave (km/s) = 7.93871 8.23417 8.08779
#
# Compressibility (1/GPa) = 0.01362067
#
# Stress axis : x y z
#
# Youngs Moduli (GPa) = 119.02309 87.68256 78.49689
#
# Poissons Ratio (x) = 0.07305 0.19917
# Poissons Ratio (y) = 0.09916 0.47821
# Poissons Ratio (z) = 0.30200 0.53417
#
# Static dielectric constant tensor:
#      x y z
#    x 3.628040 0.000000 0.000000 
#    y 0.000000 3.325380 0.000000 
#    z 0.000000 0.000000 3.793090 
# 
# 
# High freq. dielectric constant tensor:
#      x y z
#    x 1.790480 0.000000 0.000000 
#    y 0.000000 1.758940 0.000000 
#    z 0.000000 0.000000 1.795500 
# 
# From -- ./inp_files/12987.got.cif
#   From: 2010.03.12/outbox.cif.g09.slc.cpg/sg64_7_cif.got.tgz:12987.got - 2010.04.10 20:19:32.
