data_PCOD8264662
_publ_section_title
;
Structure prediction by ZEFSAII (Michael W. Deem and Ramdas Pophale) SiO2 
 PCOD8264662
Probable space group: C M C A
;
_chemical_formula_sum "Si O2"
_cell_formula_units_Z 96
_cell_length_a 21.638454
_cell_length_b 7.768653
_cell_length_c 24.827324
_cell_angle_alpha 90.000000
_cell_angle_beta 90.000000
_cell_angle_gamma 90.000000
_cell_volume 4173.513896
_symmetry_space_group_name_H-M "C M C A"
_symmetry_group_IT_number 64
_symmetry_cell_setting 'orthorhombic'
loop_
_space_group_symop_operation_xyz
x,y,z
-x,1/2-y,1/2+z
x,-y,-z
-x,1/2+y,1/2-z
-x,-y,-z
x,1/2+y,1/2-z
-x,y,z
x,1/2-y,1/2+z
1/2+x,1/2+y,z
1/2-x,-y,1/2+z
1/2+x,1/2-y,-z
1/2-x,y,1/2-z
1/2-x,1/2-y,-z
1/2+x,y,1/2-z
1/2-x,1/2+y,z
1/2+x,-y,1/2+z
loop_
_atom_site_type_symbol
_atom_site_label
_atom_site_fract_x
_atom_site_fract_y
_atom_site_fract_z
Si Si1 0.239177 0.279572 0.190799
Si Si2 0.572116 0.626041 0.728377
Si Si3 0.691208 0.060264 0.942200
Si Si4 0.652792 0.080752 0.155863
Si Si5 0.668338 0.957640 0.560088
Si Si6 0.630394 0.042849 0.323969
O O1 0.250000 0.348259 0.250000
O O2 0.309115 0.255060 0.168158
O O3 0.200341 0.417986 0.158902
O O4 0.201560 0.096240 0.189632
O O5 0.500000 0.607551 0.738043
O O6 0.594346 0.455873 0.694190
O O7 0.587270 0.795693 0.694082
O O8 0.607022 0.617579 0.786571
O O9 0.674876 0.255982 0.932613
O O10 0.644532 0.933331 0.908158
O O11 0.764826 0.043643 0.933222
O O12 0.671714 0.000000 0.000000
O O13 0.624468 0.009071 0.612080
O O14 0.640545 0.000000 0.500000
#
# Coordination Sequence:
#
# PCOD8264662 Si02
#       6
#    16  16  16  16  16  16
#     4  11  20  31  54  86 124 148 189 242 318 375
#     4  11  24  43  64  87 121 168 213 256 313 372
#     4  11  20  36  56  89 130 171 206 253 314 384
#     4  11  21  35  55  89 122 157 196 250 311 369
#     4  11  22  38  59  93 134 171 206 252 320 391
#     4  11  23  40  62  92 126 162 204 262 317 380
#
# _framework density 23.002199000000001
#
# number of rings (size 3 to 8) (size 9 to 14) (size 15 to 20)
#    0.000    1.000    6.667    3.000    2.333    0.000 
#    6.000    0.000    0.000    2.500    0.000    0.000 
#    0.000    0.000    0.000    0.000    0.000    0.000 
#
# Total GULP energy -594666.914133 kJ/mol
# GULP energy per Si atom -12388.894044 kJ/mol
# Density = 2.294985 g / cm^3
# Si number density = 23.002199 Si / 1000 Ang^3
#
#
#
# Elastic Constant Matrix: (Units=GPa)
#
#
# Indices 1 2 3 4 5 6 
#
# 1 97.7801 -0.7046 37.9066 0.0000 0.0000 0.0000
# 2 -0.7046 32.0932 0.7131 0.0000 0.0000 0.0000
# 3 37.9066 0.7131 189.1075 0.0000 0.0000 0.0000
# 4 0.0000 0.0000 0.0000 33.2461 0.0000 0.0000
# 5 0.0000 0.0000 0.0000 0.0000 14.4467 0.0000
# 6 0.0000 0.0000 0.0000 0.0000 0.0000 21.4781
#
#
#
# Elastic Compliance Matrix: (Units=1/GPa)
#
#
# Indices 1 2 3 4 5 6 
#
# 1 0.011091 0.000293 -0.002224 0.000000 0.000000 0.000000
# 2 0.000293 0.031170 -0.000176 0.000000 0.000000 0.000000
# 3 -0.002224 -0.000176 0.005735 0.000000 0.000000 0.000000
# 4 0.000000 0.000000 0.000000 0.030079 0.000000 0.000000
# 5 0.000000 0.000000 0.000000 0.000000 0.069220 0.000000
# 6 0.000000 0.000000 0.000000 0.000000 0.000000 0.046559
#
#
# Mechanical properties :
#
#
# Convention : Reuss Voigt Hill
#
# Bulk Modulus (GPa) = 22.84138 43.86789 33.35464
# Shear Modulus (GPa) = 23.51144 32.57187 28.04165
#
# Velocity S-wave (km/s) = 3.20056 3.76710 3.49533
# Velocity P-wave (km/s) = 4.85899 6.16717 5.55174
#
# Compressibility (1/GPa) = 0.04378019
#
# Stress axis : x y z
#
# Youngs Moduli (GPa) = 90.15937 32.08255 174.38182
#
# Poissons Ratio (x) = -0.00940 0.38789
# Poissons Ratio (y) = -0.02641 0.03074
# Poissons Ratio (z) = 0.20055 0.00565
#
# Static dielectric constant tensor:
#      x y z
#    x 3.747910 0.000000 0.000000 
#    y 0.000000 4.292640 0.000000 
#    z 0.000000 0.000000 3.577540 
# 
# 
# High freq. dielectric constant tensor:
#      x y z
#    x 1.829840 0.000000 0.000000 
#    y 0.000000 1.940760 0.000000 
#    z 0.000000 0.000000 1.932250 
# 
# From -- ./inp_files/50676.got.cif
#   From: 2010.03.12/outbox.cif.g09.slc.cpg/sg64_26_cif.got.tgz:50676.got - 2010.04.10 20:19:32.
