data_PCOD8264060
_publ_section_title
;
Structure prediction by ZEFSAII (Michael W. Deem and Ramdas Pophale) SiO2 
 PCOD8264060
Probable space group: C M C A
;
_chemical_formula_sum "Si O2"
_cell_formula_units_Z 40
_cell_length_a 14.046760
_cell_length_b 24.111870
_cell_length_c 4.894599
_cell_angle_alpha 90.000000
_cell_angle_beta 90.000000
_cell_angle_gamma 90.000000
_cell_volume 1657.769606
_symmetry_space_group_name_H-M "C M C A"
_symmetry_group_IT_number 64
_symmetry_cell_setting 'orthorhombic'
loop_
_space_group_symop_operation_xyz
x,y,z
-x,1/2-y,1/2+z
x,-y,-z
-x,1/2+y,1/2-z
-x,-y,-z
x,1/2+y,1/2-z
-x,y,z
x,1/2-y,1/2+z
1/2+x,1/2+y,z
1/2-x,-y,1/2+z
1/2+x,1/2-y,-z
1/2-x,y,1/2-z
1/2-x,1/2-y,-z
1/2+x,y,1/2-z
1/2-x,1/2+y,z
1/2+x,-y,1/2+z
loop_
_atom_site_type_symbol
_atom_site_label
_atom_site_fract_x
_atom_site_fract_y
_atom_site_fract_z
Si Si1 0.689074 0.353584 0.479496
Si Si2 0.500000 0.212990 0.001795
Si Si3 0.394722 0.537200 0.760544
O O1 0.750000 0.365417 0.750000
O O2 0.593372 0.322718 0.567845
O O3 0.666735 0.409589 0.312841
O O4 0.750000 0.318866 0.250000
O O5 0.500000 0.267671 0.188890
O O6 0.406766 0.500000 0.500000
O O7 0.500000 0.556433 0.862962
O O8 0.345330 0.500000 0.000000
#
# Coordination Sequence:
#
# PCOD8264060 Si02
#       3
#    16   8  16
#     4  12  26  45  73 108 144 189 242 296 364 437
#     4  12  28  50  74 102 143 186 245 314 370 422
#     4  10  21  40  68 101 141 185 230 282 346 424
#
# _framework density 24.128807999999999
#
# number of rings (size 3 to 8) (size 9 to 14) (size 15 to 20)
#    0.000    0.800    2.000    4.800    0.000    8.000 
#    0.000    0.000    0.000    0.000    0.000    0.000 
#    0.000    0.000    0.000    0.000    0.000    0.000 
#
# Total GULP energy -247980.186470 kJ/mol
# GULP energy per Si atom -12399.009324 kJ/mol
# Density = 2.407389 g / cm^3
# Si number density = 24.128808 Si / 1000 Ang^3
#
#
#
# Elastic Constant Matrix: (Units=GPa)
#
#
# Indices 1 2 3 4 5 6 
#
# 1 162.7577 59.4883 53.4271 0.0000 0.0000 0.0000
# 2 59.4883 89.5629 42.8510 0.0000 0.0000 0.0000
# 3 53.4271 42.8510 166.2388 0.0000 0.0000 0.0000
# 4 0.0000 0.0000 0.0000 39.8559 0.0000 0.0000
# 5 0.0000 0.0000 0.0000 0.0000 43.4658 0.0000
# 6 0.0000 0.0000 0.0000 0.0000 0.0000 -5.2700
#
#
#
# Elastic Compliance Matrix: (Units=1/GPa)
#
#
# Indices 1 2 3 4 5 6 
#
# 1 0.008406 -0.004894 -0.001440 0.000000 0.000000 0.000000
# 2 -0.004894 0.015586 -0.002445 0.000000 0.000000 0.000000
# 3 -0.001440 -0.002445 0.007108 0.000000 0.000000 0.000000
# 4 0.000000 0.000000 0.000000 0.025090 0.000000 0.000000
# 5 0.000000 0.000000 0.000000 0.000000 0.023007 0.000000
# 6 0.000000 0.000000 0.000000 0.000000 0.000000 -0.189753
#
#
# Mechanical properties :
#
#
# Convention : Reuss Voigt Hill
#
# Bulk Modulus (GPa) = 73.84227 81.12133 77.48180
# Shear Modulus (GPa) = -56.50661 33.12987 -11.68837
#
# Velocity S-wave (km/s) = -4.84454 3.70948 -2.20333
# Velocity P-wave (km/s) = 0.78928 7.21388 5.07036
#
# Compressibility (1/GPa) = 0.01354238
#
# Stress axis : x y z
#
# Youngs Moduli (GPa) = 118.96854 64.16164 140.67987
#
# Poissons Ratio (x) = 0.31402 0.20257
# Poissons Ratio (y) = 0.58225 0.34390
# Poissons Ratio (z) = 0.17130 0.15685
#
# Static dielectric constant tensor:
#      x y z
#    x 4.857770 0.000000 0.000000 
#    y 0.000000 3.904850 0.000000 
#    z 0.000000 0.000000 4.364030 
# 
# 
# High freq. dielectric constant tensor:
#      x y z
#    x 1.986650 0.000000 0.000000 
#    y 0.000000 1.932220 0.000000 
#    z 0.000000 0.000000 1.975870 
# 
# From -- ./inp_files/587.got.cif
#   From: 2010.03.12/outbox.cif.g09.slc.cpg/sg64_1_cif.got.tgz:587.got - 2010.04.10 20:19:32.
