data_PCOD8264380
_publ_section_title
;
Structure prediction by ZEFSAII (Michael W. Deem and Ramdas Pophale) SiO2 
 PCOD8264380
Probable space group: C M C A
;
_chemical_formula_sum "Si O2"
_cell_formula_units_Z 104
_cell_length_a 8.548988
_cell_length_b 26.185166
_cell_length_c 20.717494
_cell_angle_alpha 90.000000
_cell_angle_beta 90.000000
_cell_angle_gamma 90.000000
_cell_volume 4637.749216
_symmetry_space_group_name_H-M "C M C A"
_symmetry_group_IT_number 64
_symmetry_cell_setting 'orthorhombic'
loop_
_space_group_symop_operation_xyz
x,y,z
-x,1/2-y,1/2+z
x,-y,-z
-x,1/2+y,1/2-z
-x,-y,-z
x,1/2+y,1/2-z
-x,y,z
x,1/2-y,1/2+z
1/2+x,1/2+y,z
1/2-x,-y,1/2+z
1/2+x,1/2-y,-z
1/2-x,y,1/2-z
1/2-x,1/2-y,-z
1/2+x,y,1/2-z
1/2-x,1/2+y,z
1/2+x,-y,1/2+z
loop_
_atom_site_type_symbol
_atom_site_label
_atom_site_fract_x
_atom_site_fract_y
_atom_site_fract_z
Si Si1 0.685948 0.600044 0.944894
Si Si2 0.832376 0.964842 0.864130
Si Si3 0.213471 0.500000 0.500000
Si Si4 0.183362 0.436234 0.182167
Si Si5 0.816130 0.207797 0.547803
Si Si6 0.816634 0.741826 0.318742
Si Si7 0.315324 0.632029 0.319301
O O1 0.500000 0.590839 0.957356
O O2 0.792659 0.554427 0.978826
O O3 0.724933 0.598507 0.869206
O O4 0.735431 0.654765 0.972509
O O5 0.750148 0.909708 0.869441
O O6 0.000000 0.961448 0.827300
O O7 0.717256 0.003590 0.827501
O O8 0.878085 0.984706 0.935376
O O9 0.250000 0.417523 0.250000
O O10 0.000000 0.425480 0.177438
O O11 0.750000 0.250000 0.500000
O O12 0.776275 0.219910 0.622808
O O13 0.000000 0.203385 0.537353
O O14 0.750000 0.761938 0.250000
O O15 0.743566 0.687761 0.338816
O O16 0.000000 0.734130 0.309939
O O17 0.500000 0.631930 0.319619
O O18 0.250000 0.615470 0.250000
#
# Coordination Sequence:
#
# PCOD8264380 Si02
#       7
#    16  16   8  16  16  16  16
#     4  11  23  43  68  96 129 171 217 268 328 395
#     4  11  21  37  59  86 123 167 214 265 323 388
#     4  10  23  42  65  92 125 170 217 262 325 392
#     4  11  22  39  61  90 125 164 211 265 323 387
#     4  11  26  46  68  99 136 179 227 279 337 400
#     4  10  22  42  67  95 130 171 219 274 334 398
#     4  11  22  37  59  91 125 164 212 266 326 389
#
# _framework density 22.424672999999999
#
# number of rings (size 3 to 8) (size 9 to 14) (size 15 to 20)
#    0.000    1.231    0.000    8.308    2.154    3.077 
#    0.000   14.615    0.000    0.000    0.000    0.000 
#    0.000    0.000    0.000    0.000    0.000    0.000 
#
# Total GULP energy -644247.118122 kJ/mol
# GULP energy per Si atom -12389.367656 kJ/mol
# Density = 2.237363 g / cm^3
# Si number density = 22.424673 Si / 1000 Ang^3
#
#
#
# Elastic Constant Matrix: (Units=GPa)
#
#
# Indices 1 2 3 4 5 6 
#
# 1 129.3108 45.5447 32.9911 0.0000 0.0000 0.0000
# 2 45.5447 160.6262 50.1635 0.0000 0.0000 0.0000
# 3 32.9911 50.1635 92.8185 0.0000 0.0000 0.0000
# 4 0.0000 0.0000 0.0000 26.7653 0.0000 0.0000
# 5 0.0000 0.0000 0.0000 0.0000 16.0711 0.0000
# 6 0.0000 0.0000 0.0000 0.0000 0.0000 27.0815
#
#
#
# Elastic Compliance Matrix: (Units=1/GPa)
#
#
# Indices 1 2 3 4 5 6 
#
# 1 0.008942 -0.001856 -0.002175 0.000000 0.000000 0.000000
# 2 -0.001856 0.007875 -0.003596 0.000000 0.000000 0.000000
# 3 -0.002175 -0.003596 0.013490 0.000000 0.000000 0.000000
# 4 0.000000 0.000000 0.000000 0.037362 0.000000 0.000000
# 5 0.000000 0.000000 0.000000 0.000000 0.062224 0.000000
# 6 0.000000 0.000000 0.000000 0.000000 0.000000 0.036926
#
#
# Mechanical properties :
#
#
# Convention : Reuss Voigt Hill
#
# Bulk Modulus (GPa) = 66.43513 71.12824 68.78168
# Shear Modulus (GPa) = 26.72493 30.92066 28.82280
#
# Velocity S-wave (km/s) = 3.45594 3.71734 3.58902
# Velocity P-wave (km/s) = 6.75388 7.08607 6.92197
#
# Compressibility (1/GPa) = 0.01505228
#
# Stress axis : x y z
#
# Youngs Moduli (GPa) = 111.83168 126.98309 74.12649
#
# Poissons Ratio (x) = 0.23570 0.16124
# Poissons Ratio (y) = 0.20758 0.26658
# Poissons Ratio (z) = 0.24325 0.45667
#
# Static dielectric constant tensor:
#      x y z
#    x 3.873740 0.000000 0.000000 
#    y 0.000000 4.179930 0.000000 
#    z 0.000000 0.000000 4.202950 
# 
# 
# High freq. dielectric constant tensor:
#      x y z
#    x 1.877110 0.000000 0.000000 
#    y 0.000000 1.890170 0.000000 
#    z 0.000000 0.000000 1.887320 
# 
# From -- ./inp_files/37256.got.cif
#   From: 2010.03.12/outbox.cif.g09.slc.cpg/sg64_19_cif.got.tgz:37256.got - 2010.04.10 20:19:32.
