data_PCOD8264143
_publ_section_title
;
Structure prediction by ZEFSAII (Michael W. Deem and Ramdas Pophale) SiO2 
 PCOD8264143
Probable space group: C M C A
;
_chemical_formula_sum "Si O2"
_cell_formula_units_Z 96
_cell_length_a 8.404808
_cell_length_b 23.457259
_cell_length_c 25.157847
_cell_angle_alpha 90.000000
_cell_angle_beta 90.000000
_cell_angle_gamma 90.000000
_cell_volume 4959.964082
_symmetry_space_group_name_H-M "C M C A"
_symmetry_group_IT_number 64
_symmetry_cell_setting 'orthorhombic'
loop_
_space_group_symop_operation_xyz
x,y,z
-x,1/2-y,1/2+z
x,-y,-z
-x,1/2+y,1/2-z
-x,-y,-z
x,1/2+y,1/2-z
-x,y,z
x,1/2-y,1/2+z
1/2+x,1/2+y,z
1/2-x,-y,1/2+z
1/2+x,1/2-y,-z
1/2-x,y,1/2-z
1/2-x,1/2-y,-z
1/2+x,y,1/2-z
1/2-x,1/2+y,z
1/2+x,-y,1/2+z
loop_
_atom_site_type_symbol
_atom_site_label
_atom_site_fract_x
_atom_site_fract_y
_atom_site_fract_z
Si Si1 0.312331 0.313204 0.000436
Si Si2 0.187193 0.686638 0.809106
Si Si3 0.685883 0.807980 0.807432
Si Si4 0.686821 0.612644 0.901589
Si Si5 0.314563 0.996077 0.939084
Si Si6 0.314096 0.381259 0.898593
O O1 0.500000 0.312543 0.000344
O O2 0.247610 0.346308 0.949021
O O3 0.250000 0.250000 0.000000
O O4 0.249145 0.344898 0.052837
O O5 0.250000 0.677355 0.750000
O O6 0.228669 0.750574 0.828506
O O7 0.274947 0.640149 0.845019
O O8 0.000000 0.676914 0.812248
O O9 0.500000 0.795045 0.803383
O O10 0.750000 0.826237 0.750000
O O11 0.719921 0.859899 0.846994
O O12 0.500000 0.600690 0.907215
O O13 0.781160 0.553952 0.907589
O O14 0.500000 0.981174 0.937756
O O15 0.218486 0.947552 0.908053
O O16 0.253130 0.000000 0.000000
O O17 0.500000 0.371054 0.889374
#
# Coordination Sequence:
#
# PCOD8264143 Si02
#       6
#    16  16  16  16  16  16
#     4  10  22  35  54  83 117 152 190 236 293 350
#     4  11  22  39  62  90 121 158 199 245 298 356
#     4  11  22  39  62  90 121 158 199 245 298 356
#     4  11  22  39  60  86 118 158 200 245 296 353
#     4  11  23  39  60  87 118 159 203 246 294 352
#     4  11  22  39  60  86 118 158 200 245 296 353
#
# _framework density 19.354979
#
# number of rings (size 3 to 8) (size 9 to 14) (size 15 to 20)
#    0.000    1.167    1.667    6.500    0.000    6.000 
#    0.000    0.833    0.000    0.000    0.000    0.000 
#    0.000    0.000    0.000    0.000    0.000    0.000 
#
# Total GULP energy -595537.824137 kJ/mol
# GULP energy per Si atom -12407.038003 kJ/mol
# Density = 1.931093 g / cm^3
# Si number density = 19.354979 Si / 1000 Ang^3
#
#
#
# Elastic Constant Matrix: (Units=GPa)
#
#
# Indices 1 2 3 4 5 6 
#
# 1 62.6122 5.7517 17.7920 0.0000 0.0000 0.0000
# 2 5.7517 128.8209 56.9156 0.0000 0.0000 0.0000
# 3 17.7920 56.9156 101.3880 0.0000 0.0000 0.0000
# 4 0.0000 0.0000 0.0000 32.8068 0.0000 0.0000
# 5 0.0000 0.0000 0.0000 0.0000 28.1608 0.0000
# 6 0.0000 0.0000 0.0000 0.0000 0.0000 35.2773
#
#
#
# Elastic Compliance Matrix: (Units=1/GPa)
#
#
# Indices 1 2 3 4 5 6 
#
# 1 0.016862 0.000737 -0.003373 0.000000 0.000000 0.000000
# 2 0.000737 0.010355 -0.005943 0.000000 0.000000 0.000000
# 3 -0.003373 -0.005943 0.013791 0.000000 0.000000 0.000000
# 4 0.000000 0.000000 0.000000 0.030482 0.000000 0.000000
# 5 0.000000 0.000000 0.000000 0.000000 0.035510 0.000000
# 6 0.000000 0.000000 0.000000 0.000000 0.000000 0.028347
#
#
# Mechanical properties :
#
#
# Convention : Reuss Voigt Hill
#
# Bulk Modulus (GPa) = 41.92503 50.41552 46.17027
# Shear Modulus (GPa) = 31.16160 33.40642 32.28401
#
# Velocity S-wave (km/s) = 4.01684 4.15901 4.08854
# Velocity P-wave (km/s) = 6.57430 7.01195 6.79665
#
# Compressibility (1/GPa) = 0.02385210
#
# Stress axis : x y z
#
# Youngs Moduli (GPa) = 59.30469 96.56883 72.51148
#
# Poissons Ratio (x) = -0.07121 0.24458
# Poissons Ratio (y) = -0.04373 0.43090
# Poissons Ratio (z) = 0.20003 0.57386
#
# Static dielectric constant tensor:
#      x y z
#    x 3.737050 0.000000 0.000000 
#    y 0.000000 3.434270 0.000000 
#    z 0.000000 0.000000 3.376870 
# 
# 
# High freq. dielectric constant tensor:
#      x y z
#    x 1.762940 0.000000 0.000000 
#    y 0.000000 1.753580 0.000000 
#    z 0.000000 0.000000 1.755180 
# 
# From -- ./inp_files/42973.got.cif
#   From: 2010.03.12/outbox.cif.g09.slc.cpg/sg64_22_cif.got.tgz:42973.got - 2010.04.10 20:19:32.
