data_PCOD8264249
_publ_section_title
;
Structure prediction by ZEFSAII (Michael W. Deem and Ramdas Pophale) SiO2 
 PCOD8264249
Probable space group: C M C A
;
_chemical_formula_sum "Si O2"
_cell_formula_units_Z 104
_cell_length_a 26.258106
_cell_length_b 8.866263
_cell_length_c 19.664262
_cell_angle_alpha 90.000000
_cell_angle_beta 90.000000
_cell_angle_gamma 90.000000
_cell_volume 4578.061882
_symmetry_space_group_name_H-M "C M C A"
_symmetry_group_IT_number 64
_symmetry_cell_setting 'orthorhombic'
loop_
_space_group_symop_operation_xyz
x,y,z
-x,1/2-y,1/2+z
x,-y,-z
-x,1/2+y,1/2-z
-x,-y,-z
x,1/2+y,1/2-z
-x,y,z
x,1/2-y,1/2+z
1/2+x,1/2+y,z
1/2-x,-y,1/2+z
1/2+x,1/2-y,-z
1/2-x,y,1/2-z
1/2-x,1/2-y,-z
1/2+x,y,1/2-z
1/2-x,1/2+y,z
1/2+x,-y,1/2+z
loop_
_atom_site_type_symbol
_atom_site_label
_atom_site_fract_x
_atom_site_fract_y
_atom_site_fract_z
Si Si1 0.441802 0.175463 0.164728
Si Si2 0.806042 0.000000 0.500000
Si Si3 0.254677 0.904659 0.618067
Si Si4 0.397663 0.459601 0.224725
Si Si5 0.135257 0.088191 0.092690
Si Si6 0.709224 0.835212 0.300086
Si Si7 0.878181 0.232398 0.960566
O O1 0.500000 0.124141 0.159404
O O2 0.440090 0.337077 0.203023
O O3 0.420426 0.189621 0.087478
O O4 0.411445 0.043561 0.205131
O O5 0.768939 0.021014 0.564054
O O6 0.838454 0.147131 0.486489
O O7 0.269239 0.000726 0.683672
O O8 0.308763 0.833003 0.592363
O O9 0.210847 0.780725 0.635876
O O10 0.392622 0.590442 0.166210
O O11 0.346419 0.357891 0.232820
O O12 0.146314 0.907996 0.080703
O O13 0.100536 0.162104 0.032889
O O14 0.750000 0.758222 0.250000
#
# Coordination Sequence:
#
# PCOD8264249 Si02
#       7
#    16   8  16  16  16  16  16
#     4  11  24  46  70  95 125 170 227 285 345 397
#     4  12  22  34  61  92 128 174 217 264 318 382
#     4  11  22  37  59  92 133 179 221 254 306 394
#     4  10  24  41  68  95 133 173 218 277 331 399
#     4   9  20  41  61  92 132 177 217 265 323 396
#     4  11  25  38  62  96 139 174 217 254 321 391
#     4  10  22  39  63  91 127 167 222 276 332 387
#
# _framework density 22.717034999999999
#
# number of rings (size 3 to 8) (size 9 to 14) (size 15 to 20)
#    0.000    1.538    0.000    5.538    8.615    3.077 
#    0.000    7.308    0.000    0.000    0.000    0.000 
#    0.000    0.000    0.000    0.000    0.000    0.000 
#
# Total GULP energy -644246.457027 kJ/mol
# GULP energy per Si atom -12389.354943 kJ/mol
# Density = 2.266533 g / cm^3
# Si number density = 22.717035 Si / 1000 Ang^3
#
#
#
# Elastic Constant Matrix: (Units=GPa)
#
#
# Indices 1 2 3 4 5 6 
#
# 1 119.3896 36.2194 57.5279 0.0000 0.0000 0.0000
# 2 36.2194 66.2530 36.9908 0.0000 0.0000 0.0000
# 3 57.5279 36.9908 111.3438 0.0000 0.0000 0.0000
# 4 0.0000 0.0000 0.0000 39.1340 0.0000 0.0000
# 5 0.0000 0.0000 0.0000 0.0000 16.2662 0.0000
# 6 0.0000 0.0000 0.0000 0.0000 0.0000 27.4204
#
#
#
# Elastic Compliance Matrix: (Units=1/GPa)
#
#
# Indices 1 2 3 4 5 6 
#
# 1 0.011870 -0.003763 -0.004883 0.000000 0.000000 0.000000
# 2 -0.003763 0.019724 -0.004608 0.000000 0.000000 0.000000
# 3 -0.004883 -0.004608 0.013035 0.000000 0.000000 0.000000
# 4 0.000000 0.000000 0.000000 0.025553 0.000000 0.000000
# 5 0.000000 0.000000 0.000000 0.000000 0.061477 0.000000
# 6 0.000000 0.000000 0.000000 0.000000 0.000000 0.036469
#
#
# Mechanical properties :
#
#
# Convention : Reuss Voigt Hill
#
# Bulk Modulus (GPa) = 55.18610 62.05141 58.61875
# Shear Modulus (GPa) = 24.91555 27.64733 26.28144
#
# Velocity S-wave (km/s) = 3.31536 3.49238 3.40502
# Velocity P-wave (km/s) = 6.24508 6.60580 6.42797
#
# Compressibility (1/GPa) = 0.01812051
#
# Stress axis : x y z
#
# Youngs Moduli (GPa) = 84.24338 50.70001 76.71631
#
# Poissons Ratio (x) = 0.19079 0.37460
# Poissons Ratio (y) = 0.31702 0.35354
# Poissons Ratio (z) = 0.41135 0.23365
#
# Static dielectric constant tensor:
#      x y z
#    x 3.684480 0.000000 0.000000 
#    y 0.000000 3.901830 0.000000 
#    z 0.000000 0.000000 4.567460 
# 
# 
# High freq. dielectric constant tensor:
#      x y z
#    x 1.852540 0.000000 0.000000 
#    y 0.000000 1.896370 0.000000 
#    z 0.000000 0.000000 1.911220 
# 
# From -- ./inp_files/41878.got.cif
#   From: 2010.03.12/outbox.cif.g09.slc.cpg/sg64_21_cif.got.tgz:41878.got - 2010.04.10 20:19:32.
