data_PCOD8264838
_publ_section_title
;
Structure prediction by ZEFSAII (Michael W. Deem and Ramdas Pophale) SiO2 
 PCOD8264838
Probable space group: C M C A
;
_chemical_formula_sum "Si O2"
_cell_formula_units_Z 64
_cell_length_a 23.750257
_cell_length_b 4.852612
_cell_length_c 23.985971
_cell_angle_alpha 90.000000
_cell_angle_beta 90.000000
_cell_angle_gamma 90.000000
_cell_volume 2764.401918
_symmetry_space_group_name_H-M "C M C A"
_symmetry_group_IT_number 64
_symmetry_cell_setting 'orthorhombic'
loop_
_space_group_symop_operation_xyz
x,y,z
-x,1/2-y,1/2+z
x,-y,-z
-x,1/2+y,1/2-z
-x,-y,-z
x,1/2+y,1/2-z
-x,y,z
x,1/2-y,1/2+z
1/2+x,1/2+y,z
1/2-x,-y,1/2+z
1/2+x,1/2-y,-z
1/2-x,y,1/2-z
1/2-x,1/2-y,-z
1/2+x,y,1/2-z
1/2-x,1/2+y,z
1/2+x,-y,1/2+z
loop_
_atom_site_type_symbol
_atom_site_label
_atom_site_fract_x
_atom_site_fract_y
_atom_site_fract_z
Si Si1 0.288035 0.795450 0.845881
Si Si2 0.897692 0.317452 0.285808
Si Si3 0.436144 0.439027 0.899998
Si Si4 0.128457 0.086131 0.438842
O O1 0.267407 0.109125 0.840901
O O2 0.319156 0.779832 0.905830
O O3 0.330803 0.696886 0.797961
O O4 0.914054 0.510988 0.233624
O O5 0.931516 0.413619 0.339895
O O6 0.500000 0.348411 0.911467
O O7 0.396549 0.170749 0.903895
O O8 0.418116 0.671897 0.945023
O O9 0.148636 0.000000 0.500000
#
# Coordination Sequence:
#
# PCOD8264838 Si02
#       4
#    16  16  16  16
#     4  11  23  40  62  91 125 162 207 256 308 370
#     4  11  23  40  62  90 123 160 205 255 308 371
#     4  11  24  42  64  93 128 165 211 265 319 381
#     4  11  24  42  64  93 128 166 213 265 317 380
#
# _framework density 23.151481
#
# number of rings (size 3 to 8) (size 9 to 14) (size 15 to 20)
#    0.000    1.000    0.000    9.000    0.000    8.000 
#    0.000    0.000    0.000    0.000    0.000    0.000 
#    0.000    0.000    0.000    0.000    0.000    0.000 
#
# Total GULP energy -396785.516566 kJ/mol
# GULP energy per Si atom -12399.547393 kJ/mol
# Density = 2.309879 g / cm^3
# Si number density = 23.151481 Si / 1000 Ang^3
#
#
#
# Elastic Constant Matrix: (Units=GPa)
#
#
# Indices 1 2 3 4 5 6 
#
# 1 47.1679 20.8543 -17.2312 0.0000 0.0000 0.0000
# 2 20.8543 111.5901 14.2544 0.0000 0.0000 0.0000
# 3 -17.2312 14.2544 60.3254 0.0000 0.0000 0.0000
# 4 0.0000 0.0000 0.0000 42.0582 0.0000 0.0000
# 5 0.0000 0.0000 0.0000 0.0000 13.1820 0.0000
# 6 0.0000 0.0000 0.0000 0.0000 0.0000 33.0367
#
#
#
# Elastic Compliance Matrix: (Units=1/GPa)
#
#
# Indices 1 2 3 4 5 6 
#
# 1 0.027394 -0.006309 0.009315 0.000000 0.000000 0.000000
# 2 -0.006309 0.010693 -0.004329 0.000000 0.000000 0.000000
# 3 0.009315 -0.004329 0.020261 0.000000 0.000000 0.000000
# 4 0.000000 0.000000 0.000000 0.023777 0.000000 0.000000
# 5 0.000000 0.000000 0.000000 0.000000 0.075861 0.000000
# 6 0.000000 0.000000 0.000000 0.000000 0.000000 0.030269
#
#
# Mechanical properties :
#
#
# Convention : Reuss Voigt Hill
#
# Bulk Modulus (GPa) = 17.95273 28.31537 23.13405
# Shear Modulus (GPa) = 23.87006 31.06910 27.46958
#
# Velocity S-wave (km/s) = 3.21446 3.66729 3.44832
# Velocity P-wave (km/s) = 4.64202 5.49446 5.08613
#
# Compressibility (1/GPa) = 0.05570183
#
# Stress axis : x y z
#
# Youngs Moduli (GPa) = 36.50500 93.51513 49.35709
#
# Poissons Ratio (x) = 0.59002 -0.45978
# Poissons Ratio (y) = 0.23032 0.21367
# Poissons Ratio (z) = -0.34006 0.40482
#
# Static dielectric constant tensor:
#      x y z
#    x 3.907090 0.000000 0.000000 
#    y 0.000000 4.307440 0.000000 
#    z 0.000000 0.000000 4.032360 
# 
# 
# High freq. dielectric constant tensor:
#      x y z
#    x 1.897750 0.000000 0.000000 
#    y 0.000000 1.935930 0.000000 
#    z 0.000000 0.000000 1.909490 
# 
# From -- ./inp_files/46094.got.cif
#   From: 2010.03.12/outbox.cif.g09.slc.cpg/sg64_24_cif.got.tgz:46094.got - 2010.04.10 20:19:32.
