data_PCOD8264307
_publ_section_title
;
Structure prediction by ZEFSAII (Michael W. Deem and Ramdas Pophale) SiO2 
 PCOD8264307
Probable space group: C M C A
;
_chemical_formula_sum "Si O2"
_cell_formula_units_Z 64
_cell_length_a 27.930713
_cell_length_b 19.579443
_cell_length_c 5.208055
_cell_angle_alpha 90.000000
_cell_angle_beta 90.000000
_cell_angle_gamma 90.000000
_cell_volume 2848.117596
_symmetry_space_group_name_H-M "C M C A"
_symmetry_group_IT_number 64
_symmetry_cell_setting 'orthorhombic'
loop_
_space_group_symop_operation_xyz
x,y,z
-x,1/2-y,1/2+z
x,-y,-z
-x,1/2+y,1/2-z
-x,-y,-z
x,1/2+y,1/2-z
-x,y,z
x,1/2-y,1/2+z
1/2+x,1/2+y,z
1/2-x,-y,1/2+z
1/2+x,1/2-y,-z
1/2-x,y,1/2-z
1/2-x,1/2-y,-z
1/2+x,y,1/2-z
1/2-x,1/2+y,z
1/2+x,-y,1/2+z
loop_
_atom_site_type_symbol
_atom_site_label
_atom_site_fract_x
_atom_site_fract_y
_atom_site_fract_z
Si Si1 0.396574 0.711940 0.897189
Si Si2 0.352955 0.071883 0.650924
Si Si3 0.000000 0.832905 0.211251
Si Si4 0.750000 0.544691 0.750000
Si Si5 0.000000 0.420484 0.771820
Si Si6 0.918843 0.500000 0.000000
O O1 0.377857 0.737420 0.620249
O O2 0.375827 0.638115 0.982825
O O3 0.454062 0.712332 0.863374
O O4 0.297579 0.090228 0.711575
O O5 0.355716 0.000000 0.500000
O O6 0.385031 0.061209 0.902854
O O7 0.000000 0.862205 0.503195
O O8 0.000000 0.896179 0.018310
O O9 0.739772 0.500000 0.500000
O O10 0.047443 0.466714 0.784946
#
# Coordination Sequence:
#
# PCOD8264307 Si02
#       6
#    16  16   8   8   8   8
#     4  12  27  44  65  96 136 178 219 270 332 395
#     4  11  24  43  72  98 133 174 226 279 335 395
#     4  12  22  44  60  89 132 178 221 261 317 400
#     4  10  22  40  68 104 130 164 224 282 338 392
#     4  11  24  35  64  99 131 169 219 269 326 391
#     4  11  22  38  64 100 134 168 212 279 332 388
#
# _framework density 22.470980000000001
#
# number of rings (size 3 to 8) (size 9 to 14) (size 15 to 20)
#    0.000    0.750    3.750    3.750    3.500    1.000 
#    0.000    1.250    0.000    0.000    0.000    0.000 
#    0.000    0.000    0.000    0.000    0.000    0.000 
#
# Total GULP energy -396599.808175 kJ/mol
# GULP energy per Si atom -12393.744005 kJ/mol
# Density = 2.241984 g / cm^3
# Si number density = 22.470980 Si / 1000 Ang^3
#
#
#
# Elastic Constant Matrix: (Units=GPa)
#
#
# Indices 1 2 3 4 5 6 
#
# 1 127.9084 30.6674 13.8109 0.0000 0.0000 0.0000
# 2 30.6674 104.6813 30.0062 0.0000 0.0000 0.0000
# 3 13.8109 30.0062 90.5120 0.0000 0.0000 0.0000
# 4 0.0000 0.0000 0.0000 43.5035 0.0000 0.0000
# 5 0.0000 0.0000 0.0000 0.0000 12.1046 0.0000
# 6 0.0000 0.0000 0.0000 0.0000 0.0000 61.5202
#
#
#
# Elastic Compliance Matrix: (Units=1/GPa)
#
#
# Indices 1 2 3 4 5 6 
#
# 1 0.008431 -0.002322 -0.000517 0.000000 0.000000 0.000000
# 2 -0.002322 0.011195 -0.003357 0.000000 0.000000 0.000000
# 3 -0.000517 -0.003357 0.012240 0.000000 0.000000 0.000000
# 4 0.000000 0.000000 0.000000 0.022987 0.000000 0.000000
# 5 0.000000 0.000000 0.000000 0.000000 0.082613 0.000000
# 6 0.000000 0.000000 0.000000 0.000000 0.000000 0.016255
#
#
# Mechanical properties :
#
#
# Convention : Reuss Voigt Hill
#
# Bulk Modulus (GPa) = 51.34854 52.45230 51.90042
# Shear Modulus (GPa) = 28.96818 40.00015 34.48416
#
# Velocity S-wave (km/s) = 3.59435 4.22368 3.92166
# Velocity P-wave (km/s) = 6.33455 6.86869 6.60702
#
# Compressibility (1/GPa) = 0.01947475
#
# Stress axis : x y z
#
# Youngs Moduli (GPa) = 118.61640 89.32345 81.69904
#
# Poissons Ratio (x) = 0.20738 0.04221
# Poissons Ratio (y) = 0.27539 0.27428
# Poissons Ratio (z) = 0.06129 0.29987
#
# Static dielectric constant tensor:
#      x y z
#    x 4.301110 0.000000 0.000000 
#    y 0.000000 3.852150 0.000000 
#    z 0.000000 0.000000 4.025810 
# 
# 
# High freq. dielectric constant tensor:
#      x y z
#    x 1.882050 0.000000 0.000000 
#    y 0.000000 1.870150 0.000000 
#    z 0.000000 0.000000 1.889890 
# 
# From -- ./inp_files/2750.got.cif
#   From: 2010.03.12/outbox.cif.g09.slc.cpg/sg64_2_cif.got.tgz:2750.got - 2010.04.10 20:19:32.
