data_PCOD8264092
_publ_section_title
;
Structure prediction by ZEFSAII (Michael W. Deem and Ramdas Pophale) SiO2 
 PCOD8264092
Probable space group: C M C A
;
_chemical_formula_sum "Si O2"
_cell_formula_units_Z 96
_cell_length_a 17.661084
_cell_length_b 9.128625
_cell_length_c 28.943583
_cell_angle_alpha 90.000000
_cell_angle_beta 90.000000
_cell_angle_gamma 90.000000
_cell_volume 4666.325347
_symmetry_space_group_name_H-M "C M C A"
_symmetry_group_IT_number 64
_symmetry_cell_setting 'orthorhombic'
loop_
_space_group_symop_operation_xyz
x,y,z
-x,1/2-y,1/2+z
x,-y,-z
-x,1/2+y,1/2-z
-x,-y,-z
x,1/2+y,1/2-z
-x,y,z
x,1/2-y,1/2+z
1/2+x,1/2+y,z
1/2-x,-y,1/2+z
1/2+x,1/2-y,-z
1/2-x,y,1/2-z
1/2-x,1/2-y,-z
1/2+x,y,1/2-z
1/2-x,1/2+y,z
1/2+x,-y,1/2+z
loop_
_atom_site_type_symbol
_atom_site_label
_atom_site_fract_x
_atom_site_fract_y
_atom_site_fract_z
Si Si1 0.175013 0.953205 0.870482
Si Si2 0.415635 0.599843 0.039195
Si Si3 0.909578 0.214670 0.209140
Si Si4 0.833804 0.297560 0.880091
Si Si5 0.585093 0.137220 0.025832
Si Si6 0.588255 0.546466 0.299243
O O1 0.135488 0.896913 0.916346
O O2 0.127405 0.890952 0.828310
O O3 0.258540 0.888845 0.871072
O O4 0.177857 0.128589 0.866980
O O5 0.500000 0.539197 0.051977
O O6 0.377275 0.500000 0.000000
O O7 0.420764 0.757997 0.017762
O O8 0.877989 0.381004 0.203665
O O9 0.881362 0.150592 0.258229
O O10 0.000000 0.207499 0.203346
O O11 0.861660 0.306813 0.932972
O O12 0.895571 0.374163 0.847558
O O13 0.500000 0.105791 0.045076
O O14 0.622680 0.000000 0.000000
O O15 0.500000 0.528139 0.293261
#
# Coordination Sequence:
#
# PCOD8264092 Si02
#       6
#    16  16  16  16  16  16
#     4  12  26  41  62  91 128 170 208 255 311 371
#     4  10  21  41  65  91 121 161 210 258 309 364
#     4  10  22  42  69  98 125 160 204 255 309 367
#     4  12  26  42  61  91 129 168 210 255 311 371
#     4  10  23  41  65  92 122 162 209 260 310 364
#     4  10  22  42  69  97 126 159 204 256 308 368
#
# _framework density 20.572932999999999
#
# number of rings (size 3 to 8) (size 9 to 14) (size 15 to 20)
#    0.000    1.333    1.667    3.000    4.667    5.333 
#    0.000    3.333    0.000    0.000    0.000    0.000 
#    0.000    0.000    0.000    0.000    0.000    0.000 
#
# Total GULP energy -595110.623139 kJ/mol
# GULP energy per Si atom -12398.137982 kJ/mol
# Density = 2.052611 g / cm^3
# Si number density = 20.572933 Si / 1000 Ang^3
#
#
#
# Elastic Constant Matrix: (Units=GPa)
#
#
# Indices 1 2 3 4 5 6 
#
# 1 37.2867 25.9421 19.2358 0.0000 0.0000 0.0000
# 2 25.9421 167.9315 46.8362 0.0000 0.0000 0.0000
# 3 19.2358 46.8362 105.9608 0.0000 0.0000 0.0000
# 4 0.0000 0.0000 0.0000 40.3712 0.0000 0.0000
# 5 0.0000 0.0000 0.0000 0.0000 29.7120 0.0000
# 6 0.0000 0.0000 0.0000 0.0000 0.0000 31.4557
#
#
#
# Elastic Compliance Matrix: (Units=1/GPa)
#
#
# Indices 1 2 3 4 5 6 
#
# 1 0.031517 -0.003733 -0.004071 0.000000 0.000000 0.000000
# 2 -0.003733 0.007234 -0.002520 0.000000 0.000000 0.000000
# 3 -0.004071 -0.002520 0.011290 0.000000 0.000000 0.000000
# 4 0.000000 0.000000 0.000000 0.024770 0.000000 0.000000
# 5 0.000000 0.000000 0.000000 0.000000 0.033656 0.000000
# 6 0.000000 0.000000 0.000000 0.000000 0.000000 0.031791
#
#
# Mechanical properties :
#
#
# Convention : Reuss Voigt Hill
#
# Bulk Modulus (GPa) = 34.02217 55.02303 44.52260
# Shear Modulus (GPa) = 29.29018 34.91877 32.10448
#
# Velocity S-wave (km/s) = 3.77732 4.12432 3.95463
# Velocity P-wave (km/s) = 5.96636 7.03445 6.52230
#
# Compressibility (1/GPa) = 0.02939260
#
# Stress axis : x y z
#
# Youngs Moduli (GPa) = 31.72895 138.22971 88.57069
#
# Poissons Ratio (x) = 0.51604 0.36060
# Poissons Ratio (y) = 0.11845 0.22319
# Poissons Ratio (z) = 0.12918 0.34833
#
# Static dielectric constant tensor:
#      x y z
#    x 3.624450 0.000000 0.000000 
#    y 0.000000 3.847880 0.000000 
#    z 0.000000 0.000000 3.560070 
# 
# 
# High freq. dielectric constant tensor:
#      x y z
#    x 1.789480 0.000000 0.000000 
#    y 0.000000 1.827000 0.000000 
#    z 0.000000 0.000000 1.813200 
# 
# From -- ./inp_files/50681.got.cif
#   From: 2010.03.12/outbox.cif.g09.slc.cpg/sg64_26_cif.got.tgz:50681.got - 2010.04.10 20:19:32.
