data_PCOD8264765
_publ_section_title
;
Structure prediction by ZEFSAII (Michael W. Deem and Ramdas Pophale) SiO2 
 PCOD8264765
Probable space group: C M C A
;
_chemical_formula_sum "Si O2"
_cell_formula_units_Z 96
_cell_length_a 8.904880
_cell_length_b 21.838286
_cell_length_c 23.208816
_cell_angle_alpha 90.000000
_cell_angle_beta 90.000000
_cell_angle_gamma 90.000000
_cell_volume 4513.356161
_symmetry_space_group_name_H-M "C M C A"
_symmetry_group_IT_number 64
_symmetry_cell_setting 'orthorhombic'
loop_
_space_group_symop_operation_xyz
x,y,z
-x,1/2-y,1/2+z
x,-y,-z
-x,1/2+y,1/2-z
-x,-y,-z
x,1/2+y,1/2-z
-x,y,z
x,1/2-y,1/2+z
1/2+x,1/2+y,z
1/2-x,-y,1/2+z
1/2+x,1/2-y,-z
1/2-x,y,1/2-z
1/2-x,1/2-y,-z
1/2+x,y,1/2-z
1/2-x,1/2+y,z
1/2+x,-y,1/2+z
loop_
_atom_site_type_symbol
_atom_site_label
_atom_site_fract_x
_atom_site_fract_y
_atom_site_fract_z
Si Si1 0.322235 0.334473 0.812591
Si Si2 0.668952 0.532892 0.577057
Si Si3 0.676538 0.853512 0.475125
Si Si4 0.675240 0.394085 0.584417
Si Si5 0.331828 0.590174 0.693646
Si Si6 0.177447 0.707957 0.872332
O O1 0.500000 0.341368 0.806875
O O2 0.250000 0.339947 0.750000
O O3 0.256454 0.387154 0.853907
O O4 0.274814 0.270513 0.841958
O O5 0.500000 0.552167 0.557066
O O6 0.787597 0.578912 0.549300
O O7 0.702255 0.462921 0.560079
O O8 0.679087 0.536798 0.646313
O O9 0.500000 0.844577 0.481245
O O10 0.750490 0.847571 0.538485
O O11 0.742869 0.800120 0.434353
O O12 0.500000 0.379736 0.591756
O O13 0.500000 0.603969 0.712656
O O14 0.250000 0.566191 0.750000
O O15 0.263118 0.653326 0.668679
O O16 0.000000 0.702823 0.882822
#
# Coordination Sequence:
#
# PCOD8264765 Si02
#       6
#    16  16  16  16  16  16
#     4  11  24  42  63  87 117 154 196 239 284 338
#     4   9  20  38  57  80 114 156 195 234 288 349
#     4  11  22  36  60  92 119 145 186 242 296 345
#     4  11  23  40  61  83 115 159 198 235 284 343
#     4   9  17  31  52  79 108 140 184 233 282 335
#     4   9  20  39  60  82 113 152 191 234 286 347
#
# _framework density 21.270202999999999
#
# number of rings (size 3 to 8) (size 9 to 14) (size 15 to 20)
#    0.000    2.000    0.000    4.500    0.000    8.667 
#    0.000    1.667    0.000    0.000    0.000    0.000 
#    0.000    0.000    0.000    0.000    0.000    0.000 
#
# Total GULP energy -595260.798083 kJ/mol
# GULP energy per Si atom -12401.266627 kJ/mol
# Density = 2.122179 g / cm^3
# Si number density = 21.270203 Si / 1000 Ang^3
#
#
#
# Elastic Constant Matrix: (Units=GPa)
#
#
# Indices 1 2 3 4 5 6 
#
# 1 99.4230 15.2328 44.7918 0.0000 0.0000 0.0000
# 2 15.2328 27.6826 -1.3907 0.0000 0.0000 0.0000
# 3 44.7918 -1.3907 111.5210 0.0000 0.0000 0.0000
# 4 0.0000 0.0000 0.0000 28.3136 0.0000 0.0000
# 5 0.0000 0.0000 0.0000 0.0000 40.9820 0.0000
# 6 0.0000 0.0000 0.0000 0.0000 0.0000 24.9490
#
#
#
# Elastic Compliance Matrix: (Units=1/GPa)
#
#
# Indices 1 2 3 4 5 6 
#
# 1 0.013809 -0.007882 -0.005644 0.000000 0.000000 0.000000
# 2 -0.007882 0.040645 0.003673 0.000000 0.000000 0.000000
# 3 -0.005644 0.003673 0.011280 0.000000 0.000000 0.000000
# 4 0.000000 0.000000 0.000000 0.035319 0.000000 0.000000
# 5 0.000000 0.000000 0.000000 0.000000 0.024401 0.000000
# 6 0.000000 0.000000 0.000000 0.000000 0.000000 0.040082
#
#
# Mechanical properties :
#
#
# Convention : Reuss Voigt Hill
#
# Bulk Modulus (GPa) = 21.72678 39.54385 30.63531
# Shear Modulus (GPa) = 24.92711 30.84842 27.88777
#
# Velocity S-wave (km/s) = 3.42705 3.81243 3.62487
# Velocity P-wave (km/s) = 5.08885 6.16531 5.65276
#
# Compressibility (1/GPa) = 0.04602615
#
# Stress axis : x y z
#
# Youngs Moduli (GPa) = 72.41892 24.60304 88.65439
#
# Poissons Ratio (x) = 0.19392 0.50040
# Poissons Ratio (y) = 0.57080 -0.32559
# Poissons Ratio (z) = 0.40876 -0.09036
#
# Static dielectric constant tensor:
#      x y z
#    x 3.650830 0.000000 0.000000 
#    y 0.000000 3.687720 0.000000 
#    z 0.000000 0.000000 3.955490 
# 
# 
# High freq. dielectric constant tensor:
#      x y z
#    x 1.824050 0.000000 0.000000 
#    y 0.000000 1.821700 0.000000 
#    z 0.000000 0.000000 1.848630 
# 
# From -- ./inp_files/43062.got.cif
#   From: 2010.03.12/outbox.cif.g09.slc.cpg/sg64_22_cif.got.tgz:43062.got - 2010.04.10 20:19:32.
