data_PCOD8264872
_publ_section_title
;
Structure prediction by ZEFSAII (Michael W. Deem and Ramdas Pophale) SiO2 
 PCOD8264872
Probable space group: C M C A
;
_chemical_formula_sum "Si O2"
_cell_formula_units_Z 64
_cell_length_a 22.409780
_cell_length_b 8.488010
_cell_length_c 14.302513
_cell_angle_alpha 90.000000
_cell_angle_beta 90.000000
_cell_angle_gamma 90.000000
_cell_volume 2720.544454
_symmetry_space_group_name_H-M "C M C A"
_symmetry_group_IT_number 64
_symmetry_cell_setting 'orthorhombic'
loop_
_space_group_symop_operation_xyz
x,y,z
-x,1/2-y,1/2+z
x,-y,-z
-x,1/2+y,1/2-z
-x,-y,-z
x,1/2+y,1/2-z
-x,y,z
x,1/2-y,1/2+z
1/2+x,1/2+y,z
1/2-x,-y,1/2+z
1/2+x,1/2-y,-z
1/2-x,y,1/2-z
1/2-x,1/2-y,-z
1/2+x,y,1/2-z
1/2-x,1/2+y,z
1/2+x,-y,1/2+z
loop_
_atom_site_type_symbol
_atom_site_label
_atom_site_fract_x
_atom_site_fract_y
_atom_site_fract_z
Si Si1 0.685712 0.147425 0.295735
Si Si2 0.500000 0.085480 0.633937
Si Si3 0.126228 0.164440 0.848556
Si Si4 0.500000 0.757795 0.049997
Si Si5 0.871141 0.833229 0.460190
O O1 0.750000 0.169094 0.250000
O O2 0.640466 0.180531 0.210775
O O3 0.673794 0.273793 0.379230
O O4 0.675480 0.970717 0.331001
O O5 0.438224 0.105394 0.689723
O O6 0.500000 0.229350 0.560562
O O7 0.500000 0.911411 0.595716
O O8 0.127729 0.200967 0.958822
O O9 0.560507 0.851992 0.078345
O O10 0.847557 0.000000 0.500000
#
# Coordination Sequence:
#
# PCOD8264872 Si02
#       5
#    16   8  16   8  16
#     4  12  26  45  68  99 142 188 243 288 337 422
#     4   9  18  37  69 104 137 178 220 286 360 419
#     4  11  24  44  70 103 140 182 233 294 358 418
#     4   9  17  37  69 108 141 175 222 287 359 435
#     4  11  23  43  74 108 144 185 231 293 366 425
#
# _framework density 23.524702999999999
#
# number of rings (size 3 to 8) (size 9 to 14) (size 15 to 20)
#    0.000    1.250    2.500    3.375    0.000    3.000 
#    0.000    6.250    0.000    0.000    0.000    0.000 
#    0.000    0.000    0.000    0.000    0.000    0.000 
#
# Total GULP energy -396673.764877 kJ/mol
# GULP energy per Si atom -12396.055152 kJ/mol
# Density = 2.347116 g / cm^3
# Si number density = 23.524703 Si / 1000 Ang^3
#
#
#
# Elastic Constant Matrix: (Units=GPa)
#
#
# Indices 1 2 3 4 5 6 
#
# 1 150.8719 50.8955 71.1025 0.0000 0.0000 0.0000
# 2 50.8955 85.5795 17.9692 0.0000 0.0000 0.0000
# 3 71.1025 17.9692 91.3513 0.0000 0.0000 0.0000
# 4 0.0000 0.0000 0.0000 38.0304 0.0000 0.0000
# 5 0.0000 0.0000 0.0000 0.0000 33.3896 0.0000
# 6 0.0000 0.0000 0.0000 0.0000 0.0000 14.0596
#
#
#
# Elastic Compliance Matrix: (Units=1/GPa)
#
#
# Indices 1 2 3 4 5 6 
#
# 1 0.012670 -0.005700 -0.008741 0.000000 0.000000 0.000000
# 2 -0.005700 0.014753 0.001535 0.000000 0.000000 0.000000
# 3 -0.008741 0.001535 0.017448 0.000000 0.000000 0.000000
# 4 0.000000 0.000000 0.000000 0.026295 0.000000 0.000000
# 5 0.000000 0.000000 0.000000 0.000000 0.029949 0.000000
# 6 0.000000 0.000000 0.000000 0.000000 0.000000 0.071126
#
#
# Mechanical properties :
#
#
# Convention : Reuss Voigt Hill
#
# Bulk Modulus (GPa) = 52.46840 67.52636 59.99738
# Shear Modulus (GPa) = 24.46118 29.61828 27.03973
#
# Velocity S-wave (km/s) = 3.22810 3.55213 3.39399
# Velocity P-wave (km/s) = 6.02048 6.75206 6.39673
#
# Compressibility (1/GPa) = 0.01905909
#
# Stress axis : x y z
#
# Youngs Moduli (GPa) = 78.92552 67.78446 57.31310
#
# Poissons Ratio (x) = 0.38636 0.50095
# Poissons Ratio (y) = 0.44987 -0.08795
# Poissons Ratio (z) = 0.68985 -0.10402
#
# Static dielectric constant tensor:
#      x y z
#    x 4.357680 0.000000 0.000000 
#    y 0.000000 4.042020 0.000000 
#    z 0.000000 0.000000 4.214460 
# 
# 
# High freq. dielectric constant tensor:
#      x y z
#    x 1.932030 0.000000 0.000000 
#    y 0.000000 1.930860 0.000000 
#    z 0.000000 0.000000 1.918760 
# 
# From -- ./inp_files/26943.got.cif
#   From: 2010.03.12/outbox.cif.g09.slc.cpg/sg64_14_cif.got.tgz:26943.got - 2010.04.10 20:19:32.
