data_PCOD8264578
_publ_section_title
;
Structure prediction by ZEFSAII (Michael W. Deem and Ramdas Pophale) SiO2 
 PCOD8264578
Probable space group: C M C A
;
_chemical_formula_sum "Si O2"
_cell_formula_units_Z 80
_cell_length_a 24.374043
_cell_length_b 9.359985
_cell_length_c 17.261803
_cell_angle_alpha 90.000000
_cell_angle_beta 90.000000
_cell_angle_gamma 90.000000
_cell_volume 3938.119420
_symmetry_space_group_name_H-M "C M C A"
_symmetry_group_IT_number 64
_symmetry_cell_setting 'orthorhombic'
loop_
_space_group_symop_operation_xyz
x,y,z
-x,1/2-y,1/2+z
x,-y,-z
-x,1/2+y,1/2-z
-x,-y,-z
x,1/2+y,1/2-z
-x,y,z
x,1/2-y,1/2+z
1/2+x,1/2+y,z
1/2-x,-y,1/2+z
1/2+x,1/2-y,-z
1/2-x,y,1/2-z
1/2-x,1/2-y,-z
1/2+x,y,1/2-z
1/2-x,1/2+y,z
1/2+x,-y,1/2+z
loop_
_atom_site_type_symbol
_atom_site_label
_atom_site_fract_x
_atom_site_fract_y
_atom_site_fract_z
Si Si1 0.000000 0.405000 0.312184
Si Si2 0.250000 0.026322 0.750000
Si Si3 0.000000 0.181895 0.437626
Si Si4 0.678514 0.725162 0.308520
Si Si5 0.591086 0.663080 0.697080
Si Si6 0.882574 0.437463 0.922017
Si Si7 0.500000 0.183811 0.399528
O O1 0.946092 0.420535 0.259512
O O2 0.000000 0.252081 0.353020
O O3 0.000000 0.516857 0.381817
O O4 0.284633 0.130885 0.692447
O O5 0.287165 0.920919 0.800735
O O6 0.053414 0.083565 0.441366
O O7 0.000000 0.293531 0.508533
O O8 0.634223 0.733299 0.239230
O O9 0.647325 0.708395 0.392003
O O10 0.624950 0.548266 0.648152
O O11 0.554483 0.752662 0.638145
O O12 0.854410 0.500000 0.000000
#
# Coordination Sequence:
#
# PCOD8264578 Si02
#       7
#     8   8   8  16  16  16   8
#     4  11  23  34  56  94 121 168 224 258 291 382
#     4  10  24  42  70  96 120 152 224 280 330 368
#     4  12  22  39  57  89 143 175 203 253 313 377
#     4  11  22  43  69  94 121 165 213 276 322 382
#     4  11  22  37  64  91 125 170 211 260 307 387
#     4  12  23  40  63  95 133 171 212 252 320 385
#     4  11  23  36  55  92 139 171 209 249 311 378
#
# _framework density 20.314264999999999
#
# number of rings (size 3 to 8) (size 9 to 14) (size 15 to 20)
#    0.000    0.800    6.000    3.000    2.800    0.000 
#    0.000    1.000    0.000    0.000    0.000    0.000 
#    0.000    0.000    0.000    0.000    0.000    0.000 
#
# Total GULP energy -495923.289688 kJ/mol
# GULP energy per Si atom -12398.082242 kJ/mol
# Density = 2.026803 g / cm^3
# Si number density = 20.314265 Si / 1000 Ang^3
#
#
#
# Elastic Constant Matrix: (Units=GPa)
#
#
# Indices 1 2 3 4 5 6 
#
# 1 92.5749 28.5668 26.6881 0.0000 0.0000 0.0000
# 2 28.5668 91.3721 31.5159 0.0000 0.0000 0.0000
# 3 26.6881 31.5159 117.7774 0.0000 0.0000 0.0000
# 4 0.0000 0.0000 0.0000 41.1241 0.0000 0.0000
# 5 0.0000 0.0000 0.0000 0.0000 4.6449 0.0000
# 6 0.0000 0.0000 0.0000 0.0000 0.0000 34.0277
#
#
#
# Elastic Compliance Matrix: (Units=1/GPa)
#
#
# Indices 1 2 3 4 5 6 
#
# 1 0.012347 -0.003190 -0.001944 0.000000 0.000000 0.000000
# 2 -0.003190 0.012881 -0.002724 0.000000 0.000000 0.000000
# 3 -0.001944 -0.002724 0.009660 0.000000 0.000000 0.000000
# 4 0.000000 0.000000 0.000000 0.024317 0.000000 0.000000
# 5 0.000000 0.000000 0.000000 0.000000 0.215292 0.000000
# 6 0.000000 0.000000 0.000000 0.000000 0.000000 0.029388
#
#
# Mechanical properties :
#
#
# Convention : Reuss Voigt Hill
#
# Bulk Modulus (GPa) = 52.15894 52.80733 52.48314
# Shear Modulus (GPa) = 15.33786 30.28958 22.81372
#
# Velocity S-wave (km/s) = 2.75076 3.86560 3.35481
# Velocity P-wave (km/s) = 5.98504 6.78052 6.39516
#
# Compressibility (1/GPa) = 0.01917217
#
# Stress axis : x y z
#
# Youngs Moduli (GPa) = 80.99268 77.63357 103.51865
#
# Poissons Ratio (x) = 0.24761 0.20127
# Poissons Ratio (y) = 0.25833 0.28199
# Poissons Ratio (z) = 0.15747 0.21148
#
# Static dielectric constant tensor:
#      x y z
#    x 3.861510 0.000000 0.000000 
#    y 0.000000 3.692520 0.000000 
#    z 0.000000 0.000000 3.638850 
# 
# 
# High freq. dielectric constant tensor:
#      x y z
#    x 1.792260 0.000000 0.000000 
#    y 0.000000 1.794210 0.000000 
#    z 0.000000 0.000000 1.783490 
# 
# From -- ./inp_files/27932.got.cif
#   From: 2010.03.12/outbox.cif.g09.slc.cpg/sg64_14_cif.got.tgz:27932.got - 2010.04.10 20:19:32.
