data_PCOD8264084
_publ_section_title
;
Structure prediction by ZEFSAII (Michael W. Deem and Ramdas Pophale) SiO2 
 PCOD8264084
Probable space group: C M C A
;
_chemical_formula_sum "Si O2"
_cell_formula_units_Z 112
_cell_length_a 14.928912
_cell_length_b 14.621595
_cell_length_c 22.469154
_cell_angle_alpha 90.000000
_cell_angle_beta 90.000000
_cell_angle_gamma 90.000000
_cell_volume 4904.668160
_symmetry_space_group_name_H-M "C M C A"
_symmetry_group_IT_number 64
_symmetry_cell_setting 'orthorhombic'
loop_
_space_group_symop_operation_xyz
x,y,z
-x,1/2-y,1/2+z
x,-y,-z
-x,1/2+y,1/2-z
-x,-y,-z
x,1/2+y,1/2-z
-x,y,z
x,1/2-y,1/2+z
1/2+x,1/2+y,z
1/2-x,-y,1/2+z
1/2+x,1/2-y,-z
1/2-x,y,1/2-z
1/2-x,1/2-y,-z
1/2+x,y,1/2-z
1/2-x,1/2+y,z
1/2+x,-y,1/2+z
loop_
_atom_site_type_symbol
_atom_site_label
_atom_site_fract_x
_atom_site_fract_y
_atom_site_fract_z
Si Si1 0.899900 0.359112 0.278029
Si Si2 0.901470 0.667269 0.591172
Si Si3 0.797293 0.866306 0.410402
Si Si4 0.604339 0.764059 0.669557
Si Si5 0.151391 0.439895 0.735211
Si Si6 0.099547 0.974785 0.638098
Si Si7 0.899499 0.144708 0.469999
O O1 0.898458 0.301780 0.339626
O O2 0.861434 0.293148 0.227079
O O3 0.847661 0.454864 0.287391
O O4 0.000000 0.387545 0.259479
O O5 0.808713 0.612876 0.581588
O O6 0.896763 0.748645 0.544304
O O7 0.000000 0.616869 0.581201
O O8 0.829530 0.766537 0.384966
O O9 0.836451 0.937087 0.362128
O O10 0.837420 0.882501 0.475388
O O11 0.500000 0.744508 0.653134
O O12 0.612990 0.872194 0.684281
O O13 0.250000 0.406775 0.750000
O O14 0.096318 0.430271 0.796574
O O15 0.000000 0.006020 0.620718
O O16 0.136882 0.904941 0.588974
O O17 0.000000 0.114032 0.486046
#
# Coordination Sequence:
#
# PCOD8264084 Si02
#       7
#    16  16  16  16  16  16  16
#     4  10  21  41  64  88 127 172 213 261 323 387
#     4  10  23  42  64  91 127 173 214 259 322 393
#     4  12  23  39  67  99 129 164 218 274 324 381
#     4  11  24  39  62  94 132 171 211 269 332 384
#     4  12  25  38  62  96 134 172 219 264 321 396
#     4  11  22  41  68  98 131 166 212 275 334 377
#     4  10  22  41  68  98 128 166 215 269 327 383
#
# _framework density 22.835388999999999
#
# number of rings (size 3 to 8) (size 9 to 14) (size 15 to 20)
#    0.000    1.143    1.429    5.143    4.000    3.429 
#    0.000    0.000    0.000    1.714    0.000    0.000 
#    0.000    0.000    0.000    0.000    0.000    0.000 
#
# Total GULP energy -693958.437498 kJ/mol
# GULP energy per Si atom -12392.114955 kJ/mol
# Density = 2.278341 g / cm^3
# Si number density = 22.835389 Si / 1000 Ang^3
#
#
#
# Elastic Constant Matrix: (Units=GPa)
#
#
# Indices 1 2 3 4 5 6 
#
# 1 145.8583 16.9138 18.9131 0.0000 0.0000 0.0000
# 2 16.9138 64.5087 -1.0596 0.0000 0.0000 0.0000
# 3 18.9131 -1.0596 70.9416 0.0000 0.0000 0.0000
# 4 0.0000 0.0000 0.0000 37.9243 0.0000 0.0000
# 5 0.0000 0.0000 0.0000 0.0000 26.1546 0.0000
# 6 0.0000 0.0000 0.0000 0.0000 0.0000 10.4541
#
#
#
# Elastic Compliance Matrix: (Units=1/GPa)
#
#
# Indices 1 2 3 4 5 6 
#
# 1 0.007340 -0.001957 -0.001986 0.000000 0.000000 0.000000
# 2 -0.001957 0.016027 0.000761 0.000000 0.000000 0.000000
# 3 -0.001986 0.000761 0.014637 0.000000 0.000000 0.000000
# 4 0.000000 0.000000 0.000000 0.026368 0.000000 0.000000
# 5 0.000000 0.000000 0.000000 0.000000 0.038234 0.000000
# 6 0.000000 0.000000 0.000000 0.000000 0.000000 0.095656
#
#
# Mechanical properties :
#
#
# Convention : Reuss Voigt Hill
#
# Bulk Modulus (GPa) = 31.60517 38.98259 35.29388
# Shear Modulus (GPa) = 23.23692 31.34269 27.28980
#
# Velocity S-wave (km/s) = 3.19342 3.70881 3.46072
# Velocity P-wave (km/s) = 5.24097 5.95387 5.60876
#
# Compressibility (1/GPa) = 0.03164039
#
# Stress axis : x y z
#
# Youngs Moduli (GPa) = 136.23088 62.39290 68.31997
#
# Poissons Ratio (x) = 0.12212 0.13570
# Poissons Ratio (y) = 0.26664 -0.05200
# Poissons Ratio (z) = 0.27058 -0.04749
#
# Static dielectric constant tensor:
#      x y z
#    x 4.291180 0.000000 0.000000 
#    y 0.000000 3.836320 0.000000 
#    z 0.000000 0.000000 3.973000 
# 
# 
# High freq. dielectric constant tensor:
#      x y z
#    x 1.908530 0.000000 0.000000 
#    y 0.000000 1.872980 0.000000 
#    z 0.000000 0.000000 1.897230 
# 
# From -- ./inp_files/45255.got.cif
#   From: 2010.03.12/outbox.cif.g09.slc.cpg/sg64_23_cif.got.tgz:45255.got - 2010.04.10 20:19:32.
