data_PCOD8264067
_publ_section_title
;
Structure prediction by ZEFSAII (Michael W. Deem and Ramdas Pophale) SiO2 
 PCOD8264067
Probable space group: C M C A
;
_chemical_formula_sum "Si O2"
_cell_formula_units_Z 96
_cell_length_a 15.701401
_cell_length_b 15.895945
_cell_length_c 18.068139
_cell_angle_alpha 90.000000
_cell_angle_beta 90.000000
_cell_angle_gamma 90.000000
_cell_volume 4509.601639
_symmetry_space_group_name_H-M "C M C A"
_symmetry_group_IT_number 64
_symmetry_cell_setting 'orthorhombic'
loop_
_space_group_symop_operation_xyz
x,y,z
-x,1/2-y,1/2+z
x,-y,-z
-x,1/2+y,1/2-z
-x,-y,-z
x,1/2+y,1/2-z
-x,y,z
x,1/2-y,1/2+z
1/2+x,1/2+y,z
1/2-x,-y,1/2+z
1/2+x,1/2-y,-z
1/2-x,y,1/2-z
1/2-x,1/2-y,-z
1/2+x,y,1/2-z
1/2-x,1/2+y,z
1/2+x,-y,1/2+z
loop_
_atom_site_type_symbol
_atom_site_label
_atom_site_fract_x
_atom_site_fract_y
_atom_site_fract_z
Si Si1 0.405866 0.597127 0.989043
Si Si2 0.171968 0.680918 0.198585
Si Si3 0.401124 0.860459 0.324639
Si Si4 0.764868 0.161891 0.465818
Si Si5 0.906970 0.929090 0.442448
Si Si6 0.100362 0.500386 0.214044
O O1 0.500000 0.639918 0.004804
O O2 0.370277 0.623830 0.908363
O O3 0.421395 0.500000 0.000000
O O4 0.328487 0.619806 0.043806
O O5 0.250000 0.704640 0.250000
O O6 0.114438 0.764860 0.202246
O O7 0.194533 0.663131 0.114270
O O8 0.130030 0.595874 0.230875
O O9 0.500000 0.877557 0.321564
O O10 0.359264 0.932619 0.271926
O O11 0.750000 0.250000 0.500000
O O12 0.830855 0.124864 0.524841
O O13 0.000000 0.882106 0.429876
O O14 0.928231 0.000000 0.500000
O O15 0.871414 0.969436 0.366943
O O16 0.000000 0.502383 0.219919
#
# Coordination Sequence:
#
# PCOD8264067 Si02
#       6
#    16  16  16  16  16  16
#     4  10  23  43  68  95 128 176 226 275 334 395
#     4  12  27  42  63  98 136 177 217 271 337 398
#     4  10  23  45  68  93 132 175 221 277 330 398
#     4  12  25  42  65  99 133 171 218 278 332 397
#     4  10  21  40  69  99 126 163 219 278 330 388
#     4  10  23  44  69  97 129 176 223 273 336 395
#
# _framework density 21.28791
#
# number of rings (size 3 to 8) (size 9 to 14) (size 15 to 20)
#    0.000    1.333    3.333    1.000    4.667    2.000 
#    0.000    0.833    0.000    0.000    0.000    0.000 
#    0.000    0.000    0.000    0.000    0.000    0.000 
#
# Total GULP energy -594643.969908 kJ/mol
# GULP energy per Si atom -12388.416040 kJ/mol
# Density = 2.123946 g / cm^3
# Si number density = 21.287910 Si / 1000 Ang^3
#
#
#
# Elastic Constant Matrix: (Units=GPa)
#
#
# Indices 1 2 3 4 5 6 
#
# 1 72.4990 23.0479 -1.4031 0.0000 0.0000 0.0000
# 2 23.0479 129.7862 25.5931 0.0000 0.0000 0.0000
# 3 -1.4031 25.5931 53.8406 0.0000 0.0000 0.0000
# 4 0.0000 0.0000 0.0000 40.2480 0.0000 0.0000
# 5 0.0000 0.0000 0.0000 0.0000 -3.3379 0.0000
# 6 0.0000 0.0000 0.0000 0.0000 0.0000 49.2829
#
#
#
# Elastic Compliance Matrix: (Units=1/GPa)
#
#
# Indices 1 2 3 4 5 6 
#
# 1 0.014775 -0.002979 0.001801 0.000000 0.000000 0.000000
# 2 -0.002979 0.009103 -0.004405 0.000000 0.000000 0.000000
# 3 0.001801 -0.004405 0.020714 0.000000 0.000000 0.000000
# 4 0.000000 0.000000 0.000000 0.024846 0.000000 0.000000
# 5 0.000000 0.000000 0.000000 0.000000 -0.299586 0.000000
# 6 0.000000 0.000000 0.000000 0.000000 0.000000 0.020291
#
#
# Mechanical properties :
#
#
# Convention : Reuss Voigt Hill
#
# Bulk Modulus (GPa) = 29.91601 38.95572 34.43587
# Shear Modulus (GPa) = -26.65959 31.16447 2.25244
#
# Velocity S-wave (km/s) = -3.54267 3.83031 1.02975
# Velocity P-wave (km/s) = 1.62803 6.15637 4.19824
#
# Compressibility (1/GPa) = 0.03342692
#
# Stress axis : x y z
#
# Youngs Moduli (GPa) = 67.68099 109.85931 48.27656
#
# Poissons Ratio (x) = 0.32727 -0.08695
# Poissons Ratio (y) = 0.20162 0.21264
# Poissons Ratio (z) = -0.12190 0.48388
#
# Static dielectric constant tensor:
#      x y z
#    x 3.477330 0.000000 0.000000 
#    y 0.000000 4.003290 0.000000 
#    z 0.000000 0.000000 3.906830 
# 
# 
# High freq. dielectric constant tensor:
#      x y z
#    x 1.844550 0.000000 0.000000 
#    y 0.000000 1.835150 0.000000 
#    z 0.000000 0.000000 1.834920 
# 
# From -- ./inp_files/39197.got.cif
#   From: 2010.03.12/outbox.cif.g09.slc.cpg/sg64_20_cif.got.tgz:39197.got - 2010.04.10 20:19:32.
