data_PCOD8264355
_publ_section_title
;
Structure prediction by ZEFSAII (Michael W. Deem and Ramdas Pophale) SiO2 
 PCOD8264355
Probable space group: C M C A
;
_chemical_formula_sum "Si O2"
_cell_formula_units_Z 80
_cell_length_a 17.953054
_cell_length_b 9.393506
_cell_length_c 22.371424
_cell_angle_alpha 90.000000
_cell_angle_beta 90.000000
_cell_angle_gamma 90.000000
_cell_volume 3772.764381
_symmetry_space_group_name_H-M "C M C A"
_symmetry_group_IT_number 64
_symmetry_cell_setting 'orthorhombic'
loop_
_space_group_symop_operation_xyz
x,y,z
-x,1/2-y,1/2+z
x,-y,-z
-x,1/2+y,1/2-z
-x,-y,-z
x,1/2+y,1/2-z
-x,y,z
x,1/2-y,1/2+z
1/2+x,1/2+y,z
1/2-x,-y,1/2+z
1/2+x,1/2-y,-z
1/2-x,y,1/2-z
1/2-x,1/2-y,-z
1/2+x,y,1/2-z
1/2-x,1/2+y,z
1/2+x,-y,1/2+z
loop_
_atom_site_type_symbol
_atom_site_label
_atom_site_fract_x
_atom_site_fract_y
_atom_site_fract_z
Si Si1 0.212999 0.453630 0.637420
Si Si2 0.784591 0.277732 0.436042
Si Si3 0.585492 0.572666 0.437915
Si Si4 0.585967 0.152599 0.285263
Si Si5 0.635906 0.538109 0.683477
O O1 0.210178 0.555790 0.579370
O O2 0.232948 0.296432 0.614060
O O3 0.133517 0.447029 0.669975
O O4 0.275284 0.509997 0.683997
O O5 0.750000 0.250000 0.500000
O O6 0.867635 0.216247 0.431479
O O7 0.607864 0.500000 0.500000
O O8 0.500000 0.617326 0.436669
O O9 0.605393 0.463310 0.384601
O O10 0.500000 0.149444 0.305300
O O11 0.616756 0.312966 0.285263
O O12 0.594916 0.089394 0.218907
#
# Coordination Sequence:
#
# PCOD8264355 Si02
#       5
#    16  16  16  16  16
#     4  11  24  42  68  95 133 176 224 277 326 405
#     4  11  22  42  66  96 130 176 227 274 332 401
#     4  10  22  41  69  98 131 174 225 282 341 400
#     4  12  26  43  68 100 138 175 219 282 341 398
#     4  11  25  46  67  97 134 179 224 273 334 410
#
# _framework density 21.204609999999999
#
# number of rings (size 3 to 8) (size 9 to 14) (size 15 to 20)
#    0.000    1.000    2.000    5.400    5.600    2.400 
#    0.000    0.000    0.000    2.400    0.000    0.000 
#    0.000    0.000    0.000    0.000    0.000    0.000 
#
# Total GULP energy -496199.341948 kJ/mol
# GULP energy per Si atom -12404.983549 kJ/mol
# Density = 2.115635 g / cm^3
# Si number density = 21.204610 Si / 1000 Ang^3
#
#
#
# Elastic Constant Matrix: (Units=GPa)
#
#
# Indices 1 2 3 4 5 6 
#
# 1 138.6179 28.0669 34.8125 0.0000 0.0000 0.0000
# 2 28.0669 103.3837 43.6825 0.0000 0.0000 0.0000
# 3 34.8125 43.6825 117.1817 0.0000 0.0000 0.0000
# 4 0.0000 0.0000 0.0000 35.1333 0.0000 0.0000
# 5 0.0000 0.0000 0.0000 0.0000 34.1311 0.0000
# 6 0.0000 0.0000 0.0000 0.0000 0.0000 22.6585
#
#
#
# Elastic Compliance Matrix: (Units=1/GPa)
#
#
# Indices 1 2 3 4 5 6 
#
# 1 0.007958 -0.001379 -0.001850 0.000000 0.000000 0.000000
# 2 -0.001379 0.011720 -0.003959 0.000000 0.000000 0.000000
# 3 -0.001850 -0.003959 0.010559 0.000000 0.000000 0.000000
# 4 0.000000 0.000000 0.000000 0.028463 0.000000 0.000000
# 5 0.000000 0.000000 0.000000 0.000000 0.029299 0.000000
# 6 0.000000 0.000000 0.000000 0.000000 0.000000 0.044134
#
#
# Mechanical properties :
#
#
# Convention : Reuss Voigt Hill
#
# Bulk Modulus (GPa) = 63.04867 63.58969 63.31918
# Shear Modulus (GPa) = 32.93896 35.22600 34.08248
#
# Velocity S-wave (km/s) = 3.94558 4.08026 4.01348
# Velocity P-wave (km/s) = 7.11019 7.22853 7.16961
#
# Compressibility (1/GPa) = 0.01586076
#
# Stress axis : x y z
#
# Youngs Moduli (GPa) = 125.66159 85.32485 94.70277
#
# Poissons Ratio (x) = 0.11763 0.17522
# Poissons Ratio (y) = 0.17325 0.37496
# Poissons Ratio (z) = 0.23250 0.33783
#
# Static dielectric constant tensor:
#      x y z
#    x 3.937300 0.000000 0.000000 
#    y 0.000000 3.728830 0.000000 
#    z 0.000000 0.000000 3.877290 
# 
# 
# High freq. dielectric constant tensor:
#      x y z
#    x 1.838290 0.000000 0.000000 
#    y 0.000000 1.827990 0.000000 
#    z 0.000000 0.000000 1.836860 
# 
# From -- ./inp_files/50276.got.cif
#   From: 2010.03.12/outbox.cif.g09.slc.cpg/sg64_26_cif.got.tgz:50276.got - 2010.04.10 20:19:32.
