data_PCOD8264947
_publ_section_title
;
Structure prediction by ZEFSAII (Michael W. Deem and Ramdas Pophale) SiO2 
 PCOD8264947
Probable space group: C M C A
;
_chemical_formula_sum "Si O2"
_cell_formula_units_Z 48
_cell_length_a 18.010071
_cell_length_b 7.270784
_cell_length_c 15.739778
_cell_angle_alpha 90.000000
_cell_angle_beta 90.000000
_cell_angle_gamma 90.000000
_cell_volume 2061.081999
_symmetry_space_group_name_H-M "C M C A"
_symmetry_group_IT_number 64
_symmetry_cell_setting 'orthorhombic'
loop_
_space_group_symop_operation_xyz
x,y,z
-x,1/2-y,1/2+z
x,-y,-z
-x,1/2+y,1/2-z
-x,-y,-z
x,1/2+y,1/2-z
-x,y,z
x,1/2-y,1/2+z
1/2+x,1/2+y,z
1/2-x,-y,1/2+z
1/2+x,1/2-y,-z
1/2-x,y,1/2-z
1/2-x,1/2-y,-z
1/2+x,y,1/2-z
1/2-x,1/2+y,z
1/2+x,-y,1/2+z
loop_
_atom_site_type_symbol
_atom_site_label
_atom_site_fract_x
_atom_site_fract_y
_atom_site_fract_z
Si Si1 0.199297 0.720649 0.166846
Si Si2 0.085359 0.950677 0.402904
Si Si3 0.336104 0.086331 0.410452
O O1 0.250000 0.699918 0.250000
O O2 0.133882 0.570852 0.162722
O O3 0.255412 0.685407 0.087640
O O4 0.164356 0.423686 0.340224
O O5 0.101715 0.735809 0.385512
O O6 0.000000 0.992479 0.383108
O O7 0.105643 0.000000 0.500000
O O8 0.357507 0.000000 0.500000
#
# Coordination Sequence:
#
# PCOD8264947 Si02
#       3
#    16  16  16
#     4  12  25  42  72 105 145 192 247 306 362 431
#     4  11  25  46  73 110 148 187 240 304 371 441
#     4  12  23  41  73 106 140 191 247 296 355 432
#
# _framework density 23.288740000000001
#
# number of rings (size 3 to 8) (size 9 to 14) (size 15 to 20)
#    0.000    0.333    6.667    3.000    0.000    3.333 
#    0.000    1.667    0.000    0.000    0.000    0.000 
#    0.000    0.000    0.000    0.000    0.000    0.000 
#
# Total GULP energy -297622.436078 kJ/mol
# GULP energy per Si atom -12400.934837 kJ/mol
# Density = 2.323573 g / cm^3
# Si number density = 23.288740 Si / 1000 Ang^3
#
#
#
# Elastic Constant Matrix: (Units=GPa)
#
#
# Indices 1 2 3 4 5 6 
#
# 1 132.5582 62.2255 63.2672 0.0000 0.0000 0.0000
# 2 62.2255 192.1594 67.0089 0.0000 0.0000 0.0000
# 3 63.2672 67.0089 102.9663 0.0000 0.0000 0.0000
# 4 0.0000 0.0000 0.0000 31.4960 0.0000 0.0000
# 5 0.0000 0.0000 0.0000 0.0000 29.2001 0.0000
# 6 0.0000 0.0000 0.0000 0.0000 0.0000 43.9378
#
#
#
# Elastic Compliance Matrix: (Units=1/GPa)
#
#
# Indices 1 2 3 4 5 6 
#
# 1 0.011025 -0.001562 -0.005758 0.000000 0.000000 0.000000
# 2 -0.001562 0.006953 -0.003565 0.000000 0.000000 0.000000
# 3 -0.005758 -0.003565 0.015570 0.000000 0.000000 0.000000
# 4 0.000000 0.000000 0.000000 0.031750 0.000000 0.000000
# 5 0.000000 0.000000 0.000000 0.000000 0.034246 0.000000
# 6 0.000000 0.000000 0.000000 0.000000 0.000000 0.022759
#
#
# Mechanical properties :
#
#
# Convention : Reuss Voigt Hill
#
# Bulk Modulus (GPa) = 84.90374 90.29858 87.60116
# Shear Modulus (GPa) = 33.78377 36.60561 35.19469
#
# Velocity S-wave (km/s) = 3.81287 3.96891 3.89167
# Velocity P-wave (km/s) = 7.47797 7.73697 7.60857
#
# Compressibility (1/GPa) = 0.01177804
#
# Stress axis : x y z
#
# Youngs Moduli (GPa) = 90.70054 143.82030 64.22752
#
# Poissons Ratio (x) = 0.22472 0.36980
# Poissons Ratio (y) = 0.14172 0.22897
# Poissons Ratio (z) = 0.52222 0.51271
#
# Static dielectric constant tensor:
#      x y z
#    x 3.975290 0.000000 0.000000 
#    y 0.000000 4.563010 0.000000 
#    z 0.000000 0.000000 4.070850 
# 
# 
# High freq. dielectric constant tensor:
#      x y z
#    x 1.896920 0.000000 0.000000 
#    y 0.000000 1.946250 0.000000 
#    z 0.000000 0.000000 1.911500 
# 
# From -- ./inp_files/15215.got.cif
#   From: 2010.03.12/outbox.cif.g09.slc.cpg/sg64_8_cif.got.tgz:15215.got - 2010.04.10 20:19:32.
