data_PCOD8264656
_publ_section_title
;
Structure prediction by ZEFSAII (Michael W. Deem and Ramdas Pophale) SiO2 
 PCOD8264656
Probable space group: C M C A
;
_chemical_formula_sum "Si O2"
_cell_formula_units_Z 80
_cell_length_a 9.235147
_cell_length_b 19.151574
_cell_length_c 25.625708
_cell_angle_alpha 90.000000
_cell_angle_beta 90.000000
_cell_angle_gamma 90.000000
_cell_volume 4532.357502
_symmetry_space_group_name_H-M "C M C A"
_symmetry_group_IT_number 64
_symmetry_cell_setting 'orthorhombic'
loop_
_space_group_symop_operation_xyz
x,y,z
-x,1/2-y,1/2+z
x,-y,-z
-x,1/2+y,1/2-z
-x,-y,-z
x,1/2+y,1/2-z
-x,y,z
x,1/2-y,1/2+z
1/2+x,1/2+y,z
1/2-x,-y,1/2+z
1/2+x,1/2-y,-z
1/2-x,y,1/2-z
1/2-x,1/2-y,-z
1/2+x,y,1/2-z
1/2-x,1/2+y,z
1/2+x,-y,1/2+z
loop_
_atom_site_type_symbol
_atom_site_label
_atom_site_fract_x
_atom_site_fract_y
_atom_site_fract_z
Si Si1 0.171580 0.230406 0.605800
Si Si2 0.166469 0.383425 0.026497
Si Si3 0.329702 0.368050 0.304328
Si Si4 0.164574 0.510108 0.881049
Si Si5 0.328206 0.115506 0.420001
O O1 0.225144 0.186090 0.555696
O O2 0.228006 0.195697 0.659506
O O3 0.226140 0.309603 0.601404
O O4 0.000000 0.224244 0.606055
O O5 0.181875 0.448886 0.064817
O O6 0.000000 0.374888 0.008311
O O7 0.266441 0.397836 0.977244
O O8 0.500000 0.361908 0.294727
O O9 0.250000 0.363858 0.250000
O O10 0.291528 0.440864 0.332675
O O11 0.268990 0.443091 0.880569
O O12 0.000000 0.484214 0.874873
O O13 0.500000 0.111670 0.422149
#
# Coordination Sequence:
#
# PCOD8264656 Si02
#       5
#    16  16  16  16  16
#     4   8  17  33  50  70  97 129 160 192 237 288
#     4   9  17  32  51  67  93 136 172 191 222 281
#     4   9  18  36  58  73  89 119 161 203 241 285
#     4   9  19  34  50  69  96 131 164 192 232 289
#     4  11  20  29  46  74 105 129 155 199 242 274
#
# _framework density 17.650859000000001
#
# number of rings (size 3 to 8) (size 9 to 14) (size 15 to 20)
#    0.000    2.800    0.000    4.200    0.000    4.000 
#    0.000    7.000    0.000    4.800    0.000    0.000 
#    0.000    0.000    0.000    0.000    0.000    0.000 
#
# Total GULP energy -495937.720479 kJ/mol
# GULP energy per Si atom -12398.443012 kJ/mol
# Density = 1.761068 g / cm^3
# Si number density = 17.650859 Si / 1000 Ang^3
#
#
#
# Elastic Constant Matrix: (Units=GPa)
#
#
# Indices 1 2 3 4 5 6 
#
# 1 47.3955 33.8986 20.9841 0.0000 0.0000 0.0000
# 2 33.8986 104.5254 21.9190 0.0000 0.0000 0.0000
# 3 20.9841 21.9190 77.8999 0.0000 0.0000 0.0000
# 4 0.0000 0.0000 0.0000 11.4009 0.0000 0.0000
# 5 0.0000 0.0000 0.0000 0.0000 31.4634 0.0000
# 6 0.0000 0.0000 0.0000 0.0000 0.0000 27.8265
#
#
#
# Elastic Compliance Matrix: (Units=1/GPa)
#
#
# Indices 1 2 3 4 5 6 
#
# 1 0.029607 -0.008427 -0.005604 0.000000 0.000000 0.000000
# 2 -0.008427 0.012565 -0.001266 0.000000 0.000000 0.000000
# 3 -0.005604 -0.001266 0.014703 0.000000 0.000000 0.000000
# 4 0.000000 0.000000 0.000000 0.087713 0.000000 0.000000
# 5 0.000000 0.000000 0.000000 0.000000 0.031783 0.000000
# 6 0.000000 0.000000 0.000000 0.000000 0.000000 0.035937
#
#
# Mechanical properties :
#
#
# Convention : Reuss Voigt Hill
#
# Bulk Modulus (GPa) = 38.04876 42.60267 40.32571
# Shear Modulus (GPa) = 19.86792 24.33944 22.10368
#
# Velocity S-wave (km/s) = 3.35865 3.71743 3.54258
# Velocity P-wave (km/s) = 6.05341 6.52798 6.29517
#
# Compressibility (1/GPa) = 0.02628207
#
# Stress axis : x y z
#
# Youngs Moduli (GPa) = 33.77535 79.58412 68.01444
#
# Poissons Ratio (x) = 0.67063 0.38118
# Poissons Ratio (y) = 0.28462 0.08608
# Poissons Ratio (z) = 0.18929 0.10072
#
# Static dielectric constant tensor:
#      x y z
#    x 3.037420 0.000000 0.000000 
#    y 0.000000 3.529460 0.000000 
#    z 0.000000 0.000000 3.138530 
# 
# 
# High freq. dielectric constant tensor:
#      x y z
#    x 1.661880 0.000000 0.000000 
#    y 0.000000 1.691230 0.000000 
#    z 0.000000 0.000000 1.668190 
# 
# From -- ./inp_files/47788.got.cif
#   From: 2010.03.12/outbox.cif.g09.slc.cpg/sg64_24_cif.got.tgz:47788.got - 2010.04.10 20:19:32.
