data_PCOD8264505
_publ_section_title
;
Structure prediction by ZEFSAII (Michael W. Deem and Ramdas Pophale) SiO2 
 PCOD8264505
Probable space group: C M C A
;
_chemical_formula_sum "Si O2"
_cell_formula_units_Z 88
_cell_length_a 15.311911
_cell_length_b 8.481483
_cell_length_c 30.875633
_cell_angle_alpha 90.000000
_cell_angle_beta 90.000000
_cell_angle_gamma 90.000000
_cell_volume 4009.747840
_symmetry_space_group_name_H-M "C M C A"
_symmetry_group_IT_number 64
_symmetry_cell_setting 'orthorhombic'
loop_
_space_group_symop_operation_xyz
x,y,z
-x,1/2-y,1/2+z
x,-y,-z
-x,1/2+y,1/2-z
-x,-y,-z
x,1/2+y,1/2-z
-x,y,z
x,1/2-y,1/2+z
1/2+x,1/2+y,z
1/2-x,-y,1/2+z
1/2+x,1/2-y,-z
1/2-x,y,1/2-z
1/2-x,1/2-y,-z
1/2+x,y,1/2-z
1/2-x,1/2+y,z
1/2+x,-y,1/2+z
loop_
_atom_site_type_symbol
_atom_site_label
_atom_site_fract_x
_atom_site_fract_y
_atom_site_fract_z
Si Si1 0.098317 0.293487 0.217449
Si Si2 0.275444 0.787603 0.645548
Si Si3 0.734715 0.544239 0.916883
Si Si4 0.652599 0.500000 0.500000
Si Si5 0.902807 0.335967 0.474776
Si Si6 0.400397 0.151651 0.191846
O O1 0.164839 0.192898 0.187862
O O2 0.118250 0.266675 0.267766
O O3 0.112132 0.476261 0.209123
O O4 0.000000 0.237888 0.206121
O O5 0.289327 0.618007 0.623136
O O6 0.172172 0.809668 0.655867
O O7 0.310536 0.897089 0.606525
O O8 0.793164 0.486495 0.956372
O O9 0.662752 0.668945 0.934164
O O10 0.601852 0.330203 0.498121
O O11 0.878530 0.500000 0.500000
O O12 0.000000 0.351950 0.456781
O O13 0.500000 0.175989 0.173938
#
# Coordination Sequence:
#
# PCOD8264505 Si02
#       6
#    16  16  16   8  16  16
#     4  10  23  43  66  94 130 174 216 266 329 398
#     4  12  24  40  66 100 128 175 218 276 329 396
#     4  12  24  42  67  93 131 174 222 271 338 397
#     4  12  23  48  69  92 134 184 222 276 347 418
#     4  11  24  43  68  98 128 169 228 281 334 402
#     4  10  23  43  65  93 133 173 216 267 328 400
#
# _framework density 21.946518000000001
#
# number of rings (size 3 to 8) (size 9 to 14) (size 15 to 20)
#    0.000    0.909    4.545    2.455    2.545    2.909 
#    0.000    1.818    0.000    0.000    0.000    0.000 
#    0.000    0.000    0.000    0.000    0.000    0.000 
#
# Total GULP energy -545174.953319 kJ/mol
# GULP energy per Si atom -12390.339848 kJ/mol
# Density = 2.189657 g / cm^3
# Si number density = 21.946518 Si / 1000 Ang^3
#
#
#
# Elastic Constant Matrix: (Units=GPa)
#
#
# Indices 1 2 3 4 5 6 
#
# 1 71.3426 30.8941 20.5694 0.0000 0.0000 0.0000
# 2 30.8941 100.4419 35.3862 0.0000 0.0000 0.0000
# 3 20.5694 35.3862 76.4718 0.0000 0.0000 0.0000
# 4 0.0000 0.0000 0.0000 38.1440 0.0000 0.0000
# 5 0.0000 0.0000 0.0000 0.0000 15.3085 0.0000
# 6 0.0000 0.0000 0.0000 0.0000 0.0000 25.4344
#
#
#
# Elastic Compliance Matrix: (Units=1/GPa)
#
#
# Indices 1 2 3 4 5 6 
#
# 1 0.016563 -0.004212 -0.002506 0.000000 0.000000 0.000000
# 2 -0.004212 0.012966 -0.004867 0.000000 0.000000 0.000000
# 3 -0.002506 -0.004867 0.016003 0.000000 0.000000 0.000000
# 4 0.000000 0.000000 0.000000 0.026216 0.000000 0.000000
# 5 0.000000 0.000000 0.000000 0.000000 0.065323 0.000000
# 6 0.000000 0.000000 0.000000 0.000000 0.000000 0.039317
#
#
# Mechanical properties :
#
#
# Convention : Reuss Voigt Hill
#
# Bulk Modulus (GPa) = 44.71776 46.88396 45.80086
# Shear Modulus (GPa) = 24.15307 26.53781 25.34544
#
# Velocity S-wave (km/s) = 3.32104 3.48113 3.40203
# Velocity P-wave (km/s) = 5.92670 6.12919 6.02879
#
# Compressibility (1/GPa) = 0.02236248
#
# Stress axis : x y z
#
# Youngs Moduli (GPa) = 60.37453 77.12430 62.48820
#
# Poissons Ratio (x) = 0.32481 0.15662
# Poissons Ratio (y) = 0.25427 0.30413
# Poissons Ratio (z) = 0.15132 0.37537
#
# Static dielectric constant tensor:
#      x y z
#    x 3.987860 0.000000 0.000000 
#    y 0.000000 4.186260 0.000000 
#    z 0.000000 0.000000 3.869980 
# 
# 
# High freq. dielectric constant tensor:
#      x y z
#    x 1.849790 0.000000 0.000000 
#    y 0.000000 1.881530 0.000000 
#    z 0.000000 0.000000 1.858590 
# 
# From -- ./inp_files/53553.got.cif
#   From: 2010.03.12/outbox.cif.g09.slc.cpg/sg64_27_cif.got.tgz:53553.got - 2010.04.10 20:19:32.
