data_PCOD8264173
_publ_section_title
;
Structure prediction by ZEFSAII (Michael W. Deem and Ramdas Pophale) SiO2 
 PCOD8264173
Probable space group: C M C A
;
_chemical_formula_sum "Si O2"
_cell_formula_units_Z 88
_cell_length_a 20.413703
_cell_length_b 19.429987
_cell_length_c 11.185498
_cell_angle_alpha 90.000000
_cell_angle_beta 90.000000
_cell_angle_gamma 90.000000
_cell_volume 4436.593376
_symmetry_space_group_name_H-M "C M C A"
_symmetry_group_IT_number 64
_symmetry_cell_setting 'orthorhombic'
loop_
_space_group_symop_operation_xyz
x,y,z
-x,1/2-y,1/2+z
x,-y,-z
-x,1/2+y,1/2-z
-x,-y,-z
x,1/2+y,1/2-z
-x,y,z
x,1/2-y,1/2+z
1/2+x,1/2+y,z
1/2-x,-y,1/2+z
1/2+x,1/2-y,-z
1/2-x,y,1/2-z
1/2-x,1/2-y,-z
1/2+x,y,1/2-z
1/2-x,1/2+y,z
1/2+x,-y,1/2+z
loop_
_atom_site_type_symbol
_atom_site_label
_atom_site_fract_x
_atom_site_fract_y
_atom_site_fract_z
Si Si1 0.384714 0.111903 0.118482
Si Si2 0.372914 0.351839 0.872080
Si Si3 0.747284 0.051416 0.391724
Si Si4 0.500000 0.132132 0.739391
Si Si5 0.500000 0.486539 0.637924
Si Si6 0.000000 0.918109 0.979472
Si Si7 0.428721 0.213085 0.917546
O O1 0.371847 0.161409 0.230211
O O2 0.318392 0.077757 0.071810
O O3 0.434248 0.054552 0.168276
O O4 0.414605 0.154312 0.011674
O O5 0.305121 0.387544 0.907485
O O6 0.434450 0.399080 0.907944
O O7 0.375903 0.274227 0.924306
O O8 0.750000 0.024631 0.250000
O O9 0.727546 0.000000 0.500000
O O10 0.500000 0.128527 0.598038
O O11 0.435498 0.173345 0.789044
O O12 0.500000 0.054678 0.785385
O O13 0.500000 0.500000 0.500000
O O14 0.000000 0.000000 0.000000
O O15 0.500000 0.246239 0.948110
#
# Coordination Sequence:
#
# PCOD8264173 Si02
#       7
#    16  16  16   8   8   8  16
#     4  11  22  40  68  89 123 164 209 263 314 378
#     4  11  24  40  61  89 128 172 204 256 320 380
#     4  10  24  45  66  95 129 169 212 262 324 380
#     4  10  23  35  59 101 129 156 208 271 312 376
#     4  12  18  35  60  97 117 146 210 261 313 362
#     4  12  23  38  61  91 130 167 205 262 329 373
#     4  10  22  37  62  94 122 161 217 256 305 368
#
# _framework density 19.835038999999998
#
# number of rings (size 3 to 8) (size 9 to 14) (size 15 to 20)
#    0.545    0.727    3.636    2.727    2.545    2.182 
#    0.000    0.000    0.000    0.000    0.000    0.000 
#    0.000    0.000    0.000    0.000    0.000    0.000 
#
# Total GULP energy -545109.624373 kJ/mol
# GULP energy per Si atom -12388.855099 kJ/mol
# Density = 1.978989 g / cm^3
# Si number density = 19.835039 Si / 1000 Ang^3
#
#
#
# Elastic Constant Matrix: (Units=GPa)
#
#
# Indices 1 2 3 4 5 6 
#
# 1 120.7661 41.7222 15.7431 0.0000 0.0000 0.0000
# 2 41.7222 108.6499 32.9160 0.0000 0.0000 0.0000
# 3 15.7431 32.9160 106.3410 0.0000 0.0000 0.0000
# 4 0.0000 0.0000 0.0000 20.9263 0.0000 0.0000
# 5 0.0000 0.0000 0.0000 0.0000 28.6085 0.0000
# 6 0.0000 0.0000 0.0000 0.0000 0.0000 -62.7761
#
#
#
# Elastic Compliance Matrix: (Units=1/GPa)
#
#
# Indices 1 2 3 4 5 6 
#
# 1 0.009556 -0.003576 -0.000308 0.000000 0.000000 0.000000
# 2 -0.003576 0.011495 -0.003029 0.000000 0.000000 0.000000
# 3 -0.000308 -0.003029 0.010387 0.000000 0.000000 0.000000
# 4 0.000000 0.000000 0.000000 0.047787 0.000000 0.000000
# 5 0.000000 0.000000 0.000000 0.000000 0.034955 0.000000
# 6 0.000000 0.000000 0.000000 0.000000 0.000000 -0.015930
#
#
# Mechanical properties :
#
#
# Convention : Reuss Voigt Hill
#
# Bulk Modulus (GPa) = 56.77851 57.39108 57.08479
# Shear Modulus (GPa) = 42.39249 13.71012 28.05130
#
# Velocity S-wave (km/s) = 4.62806 2.63193 3.76470
# Velocity P-wave (km/s) = 7.56611 6.18329 6.90938
#
# Compressibility (1/GPa) = 0.01761230
#
# Stress axis : x y z
#
# Youngs Moduli (GPa) = 104.64462 86.99625 96.27697
#
# Poissons Ratio (x) = 0.31113 0.02963
# Poissons Ratio (y) = 0.37425 0.29158
# Poissons Ratio (z) = 0.03220 0.26347
#
# Static dielectric constant tensor:
#      x y z
#    x 3.587790 0.000000 0.000000 
#    y 0.000000 3.527020 0.000000 
#    z 0.000000 0.000000 3.671750 
# 
# 
# High freq. dielectric constant tensor:
#      x y z
#    x 1.763670 0.000000 0.000000 
#    y 0.000000 1.771470 0.000000 
#    z 0.000000 0.000000 1.784510 
# 
# From -- ./inp_files/17211.got.cif
#   From: 2010.03.12/outbox.cif.g09.slc.cpg/sg64_9_cif.got.tgz:17211.got - 2010.04.10 20:19:32.
