data_PCOD8264645
_publ_section_title
;
Structure prediction by ZEFSAII (Michael W. Deem and Ramdas Pophale) SiO2 
 PCOD8264645
Probable space group: C M C A
;
_chemical_formula_sum "Si O2"
_cell_formula_units_Z 112
_cell_length_a 27.794918
_cell_length_b 15.287479
_cell_length_c 14.627846
_cell_angle_alpha 90.000000
_cell_angle_beta 90.000000
_cell_angle_gamma 90.000000
_cell_volume 6215.579850
_symmetry_space_group_name_H-M "C M C A"
_symmetry_group_IT_number 64
_symmetry_cell_setting 'orthorhombic'
loop_
_space_group_symop_operation_xyz
x,y,z
-x,1/2-y,1/2+z
x,-y,-z
-x,1/2+y,1/2-z
-x,-y,-z
x,1/2+y,1/2-z
-x,y,z
x,1/2-y,1/2+z
1/2+x,1/2+y,z
1/2-x,-y,1/2+z
1/2+x,1/2-y,-z
1/2-x,y,1/2-z
1/2-x,1/2-y,-z
1/2+x,y,1/2-z
1/2-x,1/2+y,z
1/2+x,-y,1/2+z
loop_
_atom_site_type_symbol
_atom_site_label
_atom_site_fract_x
_atom_site_fract_y
_atom_site_fract_z
Si Si1 0.748337 0.206298 0.642000
Si Si2 0.052913 0.636341 0.529143
Si Si3 0.206027 0.476183 0.096498
Si Si4 0.207365 0.888932 0.896753
Si Si5 0.352650 0.992662 0.727721
Si Si6 0.655195 0.357098 0.077982
Si Si7 0.948176 0.537540 0.352269
O O1 0.750000 0.196593 0.750000
O O2 0.777260 0.288420 0.604960
O O3 0.692858 0.217402 0.609197
O O4 0.770438 0.120000 0.594637
O O5 0.101698 0.686318 0.562965
O O6 0.053958 0.546568 0.583760
O O7 0.058867 0.619829 0.420562
O O8 0.000000 0.682446 0.546910
O O9 0.247710 0.546622 0.110759
O O10 0.164413 0.480249 0.172069
O O11 0.181081 0.500000 0.000000
O O12 0.176309 0.907591 0.806109
O O13 0.174047 0.904522 0.985616
O O14 0.408927 0.966498 0.728301
O O15 0.343774 0.071029 0.657410
O O16 0.000000 0.544386 0.303154
#
# Coordination Sequence:
#
# PCOD8264645 Si02
#       7
#    16  16  16  16  16  16  16
#     4  12  23  37  51  75 112 150 185 219 256 317
#     4   8  14  25  45  77 108 131 162 209 272 333
#     4  12  23  37  50  72 107 146 185 221 256 308
#     4  12  22  34  53  79 108 143 179 214 264 324
#     4  11  19  34  54  76 109 142 175 218 271 321
#     4  11  19  32  53  77 109 144 165 213 272 318
#     4   8  14  25  47  77 104 129 166 215 270 326
#
# _framework density 18.019237
#
# number of rings (size 3 to 8) (size 9 to 14) (size 15 to 20)
#    0.000    1.429    5.714    3.000    0.000    0.000 
#    0.000    0.000    0.000    0.429    0.000    7.000 
#    0.000    0.000    0.000    0.000    0.000    0.000 
#
# Total GULP energy -693852.795338 kJ/mol
# GULP energy per Si atom -12390.228488 kJ/mol
# Density = 1.797822 g / cm^3
# Si number density = 18.019237 Si / 1000 Ang^3
#
#
#
# Elastic Constant Matrix: (Units=GPa)
#
#
# Indices 1 2 3 4 5 6 
#
# 1 160.1789 29.0628 57.2293 0.0000 0.0000 0.0000
# 2 29.0628 69.1178 23.9498 0.0000 0.0000 0.0000
# 3 57.2293 23.9498 90.0474 0.0000 0.0000 0.0000
# 4 0.0000 0.0000 0.0000 13.8838 0.0000 0.0000
# 5 0.0000 0.0000 0.0000 0.0000 26.1770 0.0000
# 6 0.0000 0.0000 0.0000 0.0000 0.0000 14.1098
#
#
#
# Elastic Compliance Matrix: (Units=1/GPa)
#
#
# Indices 1 2 3 4 5 6 
#
# 1 0.008281 -0.001827 -0.004777 0.000000 0.000000 0.000000
# 2 -0.001827 0.016340 -0.003185 0.000000 0.000000 0.000000
# 3 -0.004777 -0.003185 0.014989 0.000000 0.000000 0.000000
# 4 0.000000 0.000000 0.000000 0.072026 0.000000 0.000000
# 5 0.000000 0.000000 0.000000 0.000000 0.038201 0.000000
# 6 0.000000 0.000000 0.000000 0.000000 0.000000 0.070873
#
#
# Mechanical properties :
#
#
# Convention : Reuss Voigt Hill
#
# Bulk Modulus (GPa) = 49.92081 59.98089 54.95085
# Shear Modulus (GPa) = 20.24577 24.77428 22.51002
#
# Velocity S-wave (km/s) = 3.35560 3.71196 3.53827
# Velocity P-wave (km/s) = 6.54047 7.19242 6.87418
#
# Compressibility (1/GPa) = 0.02003173
#
# Stress axis : x y z
#
# Youngs Moduli (GPa) = 120.75368 61.20046 66.71771
#
# Poissons Ratio (x) = 0.11180 0.31873
# Poissons Ratio (y) = 0.22059 0.21249
# Poissons Ratio (z) = 0.57688 0.19491
#
# Static dielectric constant tensor:
#      x y z
#    x 3.899510 0.000000 0.000000 
#    y 0.000000 3.048190 0.000000 
#    z 0.000000 0.000000 3.349850 
# 
# 
# High freq. dielectric constant tensor:
#      x y z
#    x 1.702810 0.000000 0.000000 
#    y 0.000000 1.650140 0.000000 
#    z 0.000000 0.000000 1.685850 
# 
# From -- ./inp_files/28111.got.cif
#   From: 2010.03.12/outbox.cif.g09.slc.cpg/sg64_15_cif.got.tgz:28111.got - 2010.04.10 20:19:32.
