data_PCOD8264215
_publ_section_title
;
Structure prediction by ZEFSAII (Michael W. Deem and Ramdas Pophale) SiO2 
 PCOD8264215
Probable space group: C M C A
;
_chemical_formula_sum "Si O2"
_cell_formula_units_Z 112
_cell_length_a 14.324014
_cell_length_b 31.911768
_cell_length_c 11.772447
_cell_angle_alpha 90.000000
_cell_angle_beta 90.000000
_cell_angle_gamma 90.000000
_cell_volume 5381.239813
_symmetry_space_group_name_H-M "C M C A"
_symmetry_group_IT_number 64
_symmetry_cell_setting 'orthorhombic'
loop_
_space_group_symop_operation_xyz
x,y,z
-x,1/2-y,1/2+z
x,-y,-z
-x,1/2+y,1/2-z
-x,-y,-z
x,1/2+y,1/2-z
-x,y,z
x,1/2-y,1/2+z
1/2+x,1/2+y,z
1/2-x,-y,1/2+z
1/2+x,1/2-y,-z
1/2-x,y,1/2-z
1/2-x,1/2-y,-z
1/2+x,y,1/2-z
1/2-x,1/2+y,z
1/2+x,-y,1/2+z
loop_
_atom_site_type_symbol
_atom_site_label
_atom_site_fract_x
_atom_site_fract_y
_atom_site_fract_z
Si Si1 0.107588 0.266093 0.094228
Si Si2 0.395655 0.454306 0.012262
Si Si3 0.222717 0.308699 0.528373
Si Si4 0.395781 0.453120 0.489552
Si Si5 0.353526 0.674923 0.789789
Si Si6 0.252392 0.400063 0.882138
Si Si7 0.139235 0.583447 0.748373
O O1 0.164116 0.222421 0.110588
O O2 0.098324 0.288218 0.217440
O O3 0.000000 0.260816 0.048774
O O4 0.173910 0.292258 0.007513
O O5 0.500000 0.455467 0.963292
O O6 0.342638 0.420176 0.938586
O O7 0.348397 0.500000 0.000000
O O8 0.396246 0.443753 0.144353
O O9 0.150844 0.314421 0.423037
O O10 0.242738 0.350760 0.596348
O O11 0.352633 0.500000 0.500000
O O12 0.500000 0.453592 0.539847
O O13 0.339102 0.419506 0.561719
O O14 0.399127 0.438519 0.359941
O O15 0.250000 0.668938 0.750000
O O16 0.403554 0.630366 0.765591
O O17 0.250000 0.410005 0.750000
O O18 0.250000 0.584594 0.750000
#
# Coordination Sequence:
#
# PCOD8264215 Si02
#       7
#    16  16  16  16  16  16  16
#     4  10  22  38  65  96 124 165 214 265 330 389
#     4  11  25  42  64  96 133 174 222 274 329 390
#     4  10  22  43  61  91 133 165 210 271 323 387
#     4  11  25  42  64  97 131 167 219 280 333 387
#     4   9  18  37  62  89 122 159 206 265 319 382
#     4  12  26  44  67  91 131 183 219 264 330 396
#     4  11  20  39  71  97 126 168 219 271 329 387
#
# _framework density 20.813047999999998
#
# number of rings (size 3 to 8) (size 9 to 14) (size 15 to 20)
#    0.000    1.429    2.857    2.571    2.000    7.429 
#    0.000    0.000    0.000    0.000    0.000    0.000 
#    0.000    0.000    0.000    0.000    0.000    0.000 
#
# Total GULP energy -694209.932211 kJ/mol
# GULP energy per Si atom -12396.605932 kJ/mol
# Density = 2.076568 g / cm^3
# Si number density = 20.813048 Si / 1000 Ang^3
#
#
#
# Elastic Constant Matrix: (Units=GPa)
#
#
# Indices 1 2 3 4 5 6 
#
# 1 115.2554 36.2162 19.5162 0.0000 0.0000 0.0000
# 2 36.2162 163.7607 49.2316 0.0000 0.0000 0.0000
# 3 19.5162 49.2316 122.6928 0.0000 0.0000 0.0000
# 4 0.0000 0.0000 0.0000 37.1486 0.0000 0.0000
# 5 0.0000 0.0000 0.0000 0.0000 76.9609 0.0000
# 6 0.0000 0.0000 0.0000 0.0000 0.0000 18.2962
#
#
#
# Elastic Compliance Matrix: (Units=1/GPa)
#
#
# Indices 1 2 3 4 5 6 
#
# 1 0.009385 -0.001850 -0.000751 0.000000 0.000000 0.000000
# 2 -0.001850 0.007309 -0.002638 0.000000 0.000000 0.000000
# 3 -0.000751 -0.002638 0.009329 0.000000 0.000000 0.000000
# 4 0.000000 0.000000 0.000000 0.026919 0.000000 0.000000
# 5 0.000000 0.000000 0.000000 0.000000 0.012994 0.000000
# 6 0.000000 0.000000 0.000000 0.000000 0.000000 0.054656
#
#
# Mechanical properties :
#
#
# Convention : Reuss Voigt Hill
#
# Bulk Modulus (GPa) = 64.33192 67.95967 66.14579
# Shear Modulus (GPa) = 36.69732 46.26414 41.48073
#
# Velocity S-wave (km/s) = 4.20359 4.71982 4.46916
# Velocity P-wave (km/s) = 7.38490 7.90099 7.64730
#
# Compressibility (1/GPa) = 0.01554438
#
# Stress axis : x y z
#
# Youngs Moduli (GPa) = 106.55601 136.82189 107.19806
#
# Poissons Ratio (x) = 0.25310 0.08045
# Poissons Ratio (y) = 0.19711 0.28284
# Poissons Ratio (z) = 0.07997 0.36100
#
# Static dielectric constant tensor:
#      x y z
#    x 3.828550 0.000000 0.000000 
#    y 0.000000 4.095610 0.000000 
#    z 0.000000 0.000000 4.099790 
# 
# 
# High freq. dielectric constant tensor:
#      x y z
#    x 1.819010 0.000000 0.000000 
#    y 0.000000 1.830040 0.000000 
#    z 0.000000 0.000000 1.799970 
# 
# From -- ./inp_files/14934.got.cif
#   From: 2010.03.12/outbox.cif.g09.slc.cpg/sg64_8_cif.got.tgz:14934.got - 2010.04.10 20:19:32.
