data_PCOD8264749
_publ_section_title
;
Structure prediction by ZEFSAII (Michael W. Deem and Ramdas Pophale) SiO2 
 PCOD8264749
Probable space group: C M C A
;
_chemical_formula_sum "Si O2"
_cell_formula_units_Z 104
_cell_length_a 27.909019
_cell_length_b 7.964014
_cell_length_c 20.976291
_cell_angle_alpha 90.000000
_cell_angle_beta 90.000000
_cell_angle_gamma 90.000000
_cell_volume 4662.354431
_symmetry_space_group_name_H-M "C M C A"
_symmetry_group_IT_number 64
_symmetry_cell_setting 'orthorhombic'
loop_
_space_group_symop_operation_xyz
x,y,z
-x,1/2-y,1/2+z
x,-y,-z
-x,1/2+y,1/2-z
-x,-y,-z
x,1/2+y,1/2-z
-x,y,z
x,1/2-y,1/2+z
1/2+x,1/2+y,z
1/2-x,-y,1/2+z
1/2+x,1/2-y,-z
1/2-x,y,1/2-z
1/2-x,1/2-y,-z
1/2+x,y,1/2-z
1/2-x,1/2+y,z
1/2+x,-y,1/2+z
loop_
_atom_site_type_symbol
_atom_site_label
_atom_site_fract_x
_atom_site_fract_y
_atom_site_fract_z
Si Si1 0.500000 0.570812 0.609977
Si Si2 0.500000 0.255764 0.526382
Si Si3 0.102393 0.151649 0.958964
Si Si4 0.227279 0.809845 0.682574
Si Si5 0.375375 0.200630 0.679267
Si Si6 0.809305 0.135850 0.625645
Si Si7 0.848196 0.500000 0.000000
Si Si8 0.903406 0.916643 0.314741
O O1 0.500000 0.376370 0.589167
O O2 0.500000 0.661393 0.542738
O O3 0.454275 0.623741 0.652895
O O4 0.453931 0.139379 0.530267
O O5 0.111210 0.105773 0.885512
O O6 0.119985 0.340247 0.978088
O O7 0.126730 0.000000 0.000000
O O8 0.250000 0.785836 0.750000
O O9 0.182137 0.683124 0.682256
O O10 0.208950 0.997256 0.675236
O O11 0.267904 0.776978 0.628023
O O12 0.391851 0.391165 0.672167
O O13 0.402972 0.117888 0.739032
O O14 0.812966 0.058756 0.555569
O O15 0.861930 0.196025 0.650613
#
# Coordination Sequence:
#
# PCOD8264749 Si02
#       8
#     8   8  16  16  16  16   8  16
#     4  11  22  41  79 103 136 201 230 295 373 419
#     4  11  21  43  73 104 140 184 248 287 358 443
#     4  12  26  47  75 108 144 191 244 301 360 432
#     4  11  22  41  68  96 134 186 234 296 357 424
#     4  11  25  45  66 104 144 179 245 299 355 435
#     4  11  24  41  67  98 137 183 240 292 359 426
#     4  12  24  49  68 102 152 186 238 303 362 428
#     4  11  23  42  67 101 140 184 235 302 356 429
#
# _framework density 22.306325999999999
#
# number of rings (size 3 to 8) (size 9 to 14) (size 15 to 20)
#    0.000    0.769    6.154    2.538    2.154    5.538 
#    1.385    0.000    0.000    0.000    0.000    0.000 
#    0.000    0.000    0.000    0.000    0.000    0.000 
#
# Total GULP energy -644611.579029 kJ/mol
# GULP energy per Si atom -12396.376520 kJ/mol
# Density = 2.225556 g / cm^3
# Si number density = 22.306326 Si / 1000 Ang^3
#
#
#
# Elastic Constant Matrix: (Units=GPa)
#
#
# Indices 1 2 3 4 5 6 
#
# 1 156.4133 18.6105 50.8165 0.0000 0.0000 0.0000
# 2 18.6105 37.1712 17.2484 0.0000 0.0000 0.0000
# 3 50.8165 17.2484 142.0312 0.0000 0.0000 0.0000
# 4 0.0000 0.0000 0.0000 18.5937 0.0000 0.0000
# 5 0.0000 0.0000 0.0000 0.0000 32.3977 0.0000
# 6 0.0000 0.0000 0.0000 0.0000 0.0000-2225.9298
#
#
#
# Elastic Compliance Matrix: (Units=1/GPa)
#
#
# Indices 1 2 3 4 5 6 
#
# 1 0.007473 -0.002650 -0.002352 0.000000 0.000000 0.000000
# 2 -0.002650 0.029449 -0.002628 0.000000 0.000000 0.000000
# 3 -0.002352 -0.002628 0.008201 0.000000 0.000000 0.000000
# 4 0.000000 0.000000 0.000000 0.053782 0.000000 0.000000
# 5 0.000000 0.000000 0.000000 0.000000 0.030866 0.000000
# 6 0.000000 0.000000 0.000000 0.000000 0.000000 -0.000449
#
#
# Mechanical properties :
#
#
# Convention : Reuss Voigt Hill
#
# Bulk Modulus (GPa) = 33.48636 56.55184 45.01910
# Shear Modulus (GPa) = 32.35490 -418.39169 -193.01839
#
# Velocity S-wave (km/s) = 3.81265 -13.71035 -9.31228
# Velocity P-wave (km/s) = 5.86740 15.00747 9.76723
#
# Compressibility (1/GPa) = 0.02986290
#
# Stress axis : x y z
#
# Youngs Moduli (GPa) = 133.82059 33.95711 121.93179
#
# Poissons Ratio (x) = 0.08999 0.28676
# Poissons Ratio (y) = 0.35463 0.32046
# Poissons Ratio (z) = 0.31472 0.08924
#
# Static dielectric constant tensor:
#      x y z
#    x 5.143090 0.000000 0.000000 
#    y 0.000000 3.833550 0.000000 
#    z 0.000000 0.000000 4.258770 
# 
# 
# High freq. dielectric constant tensor:
#      x y z
#    x 1.885370 0.000000 0.000000 
#    y 0.000000 1.859440 0.000000 
#    z 0.000000 0.000000 1.889510 
# 
# From -- ./inp_files/41913.got.cif
#   From: 2010.03.12/outbox.cif.g09.slc.cpg/sg64_21_cif.got.tgz:41913.got - 2010.04.10 20:19:32.
