data_PCOD8264710
_publ_section_title
;
Structure prediction by ZEFSAII (Michael W. Deem and Ramdas Pophale) SiO2 
 PCOD8264710
Probable space group: C M C A
;
_chemical_formula_sum "Si O2"
_cell_formula_units_Z 72
_cell_length_a 12.916869
_cell_length_b 13.835754
_cell_length_c 22.491593
_cell_angle_alpha 90.000000
_cell_angle_beta 90.000000
_cell_angle_gamma 90.000000
_cell_volume 4019.576540
_symmetry_space_group_name_H-M "C M C A"
_symmetry_group_IT_number 64
_symmetry_cell_setting 'orthorhombic'
loop_
_space_group_symop_operation_xyz
x,y,z
-x,1/2-y,1/2+z
x,-y,-z
-x,1/2+y,1/2-z
-x,-y,-z
x,1/2+y,1/2-z
-x,y,z
x,1/2-y,1/2+z
1/2+x,1/2+y,z
1/2-x,-y,1/2+z
1/2+x,1/2-y,-z
1/2-x,y,1/2-z
1/2-x,1/2-y,-z
1/2+x,y,1/2-z
1/2-x,1/2+y,z
1/2+x,-y,1/2+z
loop_
_atom_site_type_symbol
_atom_site_label
_atom_site_fract_x
_atom_site_fract_y
_atom_site_fract_z
Si Si1 0.750000 0.026261 0.250000
Si Si2 0.114711 0.236373 0.650776
Si Si3 0.118686 0.855772 0.225550
Si Si4 0.320245 0.171748 0.155615
Si Si5 0.500000 0.607643 0.428833
Si Si6 0.500000 0.880274 0.062519
O O1 0.677917 0.092958 0.208263
O O2 0.823740 0.956507 0.210742
O O3 0.157594 0.182773 0.709899
O O4 0.200655 0.316562 0.633484
O O5 0.102399 0.160928 0.596154
O O6 0.000000 0.283317 0.663819
O O7 0.137058 0.775204 0.176052
O O8 0.000000 0.882861 0.229731
O O9 0.394545 0.138751 0.103033
O O10 0.500000 0.654748 0.494339
O O11 0.500000 0.493737 0.433027
#
# Coordination Sequence:
#
# PCOD8264710 Si02
#       6
#     8  16  16  16   8   8
#     4  12  22  32  56  88 118 158 176 232 298 362
#     4   9  19  38  59  76 117 153 185 234 281 348
#     4  11  21  36  53  87 122 150 185 235 294 354
#     4  12  22  36  58  91 119 147 196 234 298 351
#     4  11  24  37  62  91 109 150 207 250 275 348
#     4   9  22  43  60  83 109 160 207 234 295 324
#
# _framework density 17.912334000000001
#
# number of rings (size 3 to 8) (size 9 to 14) (size 15 to 20)
#    0.667    0.667    5.556    1.333    1.556    1.778 
#    0.000    0.000    0.000    0.000    0.000    3.111 
#    0.000    0.000    0.000    0.000    0.000    0.000 
#
# Total GULP energy -446201.719349 kJ/mol
# GULP energy per Si atom -12394.492204 kJ/mol
# Density = 1.787156 g / cm^3
# Si number density = 17.912334 Si / 1000 Ang^3
#
#
#
# Elastic Constant Matrix: (Units=GPa)
#
#
# Indices 1 2 3 4 5 6 
#
# 1 71.7413 20.8622 17.3372 0.0000 0.0000 0.0000
# 2 20.8622 79.5955 24.4822 0.0000 0.0000 0.0000
# 3 17.3372 24.4822 103.1086 0.0000 0.0000 0.0000
# 4 0.0000 0.0000 0.0000 25.1437 0.0000 0.0000
# 5 0.0000 0.0000 0.0000 0.0000 17.6645 0.0000
# 6 0.0000 0.0000 0.0000 0.0000 0.0000 30.5105
#
#
#
# Elastic Compliance Matrix: (Units=1/GPa)
#
#
# Indices 1 2 3 4 5 6 
#
# 1 0.015379 -0.003490 -0.001757 0.000000 0.000000 0.000000
# 2 -0.003490 0.014346 -0.002819 0.000000 0.000000 0.000000
# 3 -0.001757 -0.002819 0.010663 0.000000 0.000000 0.000000
# 4 0.000000 0.000000 0.000000 0.039771 0.000000 0.000000
# 5 0.000000 0.000000 0.000000 0.000000 0.056611 0.000000
# 6 0.000000 0.000000 0.000000 0.000000 0.000000 0.032776
#
#
# Mechanical properties :
#
#
# Convention : Reuss Voigt Hill
#
# Bulk Modulus (GPa) = 41.23032 42.20096 41.71564
# Shear Modulus (GPa) = 25.80467 27.44799 26.62633
#
# Velocity S-wave (km/s) = 3.79965 3.91877 3.85967
# Velocity P-wave (km/s) = 6.50520 6.63977 6.57283
#
# Compressibility (1/GPa) = 0.02425399
#
# Stress axis : x y z
#
# Youngs Moduli (GPa) = 65.02557 69.70815 93.77887
#
# Poissons Ratio (x) = 0.24330 0.16478
# Poissons Ratio (y) = 0.22696 0.26439
# Poissons Ratio (z) = 0.11426 0.19653
#
# Static dielectric constant tensor:
#      x y z
#    x 3.474710 0.000000 0.000000 
#    y 0.000000 3.264210 0.000000 
#    z 0.000000 0.000000 3.209210 
# 
# 
# High freq. dielectric constant tensor:
#      x y z
#    x 1.709450 0.000000 0.000000 
#    y 0.000000 1.687160 0.000000 
#    z 0.000000 0.000000 1.659340 
# 
# From -- ./inp_files/44900.got.cif
#   From: 2010.03.12/outbox.cif.g09.slc.cpg/sg64_23_cif.got.tgz:44900.got - 2010.04.10 20:19:32.
