data_PCOD8264608
_publ_section_title
;
Structure prediction by ZEFSAII (Michael W. Deem and Ramdas Pophale) SiO2 
 PCOD8264608
Probable space group: C M C A
;
_chemical_formula_sum "Si O2"
_cell_formula_units_Z 112
_cell_length_a 14.951847
_cell_length_b 22.177218
_cell_length_c 15.394124
_cell_angle_alpha 90.000000
_cell_angle_beta 90.000000
_cell_angle_gamma 90.000000
_cell_volume 5104.543279
_symmetry_space_group_name_H-M "C M C A"
_symmetry_group_IT_number 64
_symmetry_cell_setting 'orthorhombic'
loop_
_space_group_symop_operation_xyz
x,y,z
-x,1/2-y,1/2+z
x,-y,-z
-x,1/2+y,1/2-z
-x,-y,-z
x,1/2+y,1/2-z
-x,y,z
x,1/2-y,1/2+z
1/2+x,1/2+y,z
1/2-x,-y,1/2+z
1/2+x,1/2-y,-z
1/2-x,y,1/2-z
1/2-x,1/2-y,-z
1/2+x,y,1/2-z
1/2-x,1/2+y,z
1/2+x,-y,1/2+z
loop_
_atom_site_type_symbol
_atom_site_label
_atom_site_fract_x
_atom_site_fract_y
_atom_site_fract_z
Si Si1 0.901222 0.996216 0.101792
Si Si2 0.098766 0.301124 0.380622
Si Si3 0.898755 0.152866 0.563789
Si Si4 0.400566 0.887723 0.710142
Si Si5 0.854654 0.790783 0.921659
Si Si6 0.266879 0.398158 0.156281
Si Si7 0.655161 0.827855 0.878053
O O1 0.864605 0.056266 0.151733
O O2 0.000000 0.980303 0.140389
O O3 0.829363 0.944049 0.106809
O O4 0.913032 0.000000 0.000000
O O5 0.113121 0.309564 0.483309
O O6 0.177653 0.336142 0.331334
O O7 0.101325 0.231777 0.349907
O O8 0.000000 0.326403 0.357028
O O9 0.873871 0.220519 0.592632
O O10 0.828075 0.108320 0.608443
O O11 0.893933 0.142087 0.460142
O O12 0.000000 0.137836 0.594323
O O13 0.500000 0.901612 0.744607
O O14 0.407279 0.829025 0.649501
O O15 0.339905 0.873896 0.796072
O O16 0.750776 0.805826 0.911751
O O17 0.250000 0.426053 0.250000
#
# Coordination Sequence:
#
# PCOD8264608 Si02
#       7
#    16  16  16  16  16  16  16
#     4  10  24  49  76 100 129 171 226 285 343 401
#     4  11  21  39  64  93 133 183 224 272 333 394
#     4  11  23  42  64  96 142 186 221 265 337 414
#     4  11  23  38  66 104 133 169 223 285 340 396
#     4  11  20  38  63  97 140 177 223 271 327 397
#     4  12  26  43  66  97 133 173 227 276 328 394
#     4  11  21  38  62  98 143 176 218 275 337 411
#
# _framework density 21.941238999999999
#
# number of rings (size 3 to 8) (size 9 to 14) (size 15 to 20)
#    0.000    1.000    2.857    6.000    2.000    3.429 
#    0.000    0.000    0.000    0.429    0.000    0.000 
#    0.000    0.000    0.000    0.000    0.000    0.000 
#
# Total GULP energy -694225.290056 kJ/mol
# GULP energy per Si atom -12396.880180 kJ/mol
# Density = 2.189130 g / cm^3
# Si number density = 21.941239 Si / 1000 Ang^3
#
#
#
# Elastic Constant Matrix: (Units=GPa)
#
#
# Indices 1 2 3 4 5 6 
#
# 1 156.0566 36.0035 28.0459 0.0000 0.0000 0.0000
# 2 36.0035 79.2188 47.1091 0.0000 0.0000 0.0000
# 3 28.0459 47.1091 75.6665 0.0000 0.0000 0.0000
# 4 0.0000 0.0000 0.0000 35.8924 0.0000 0.0000
# 5 0.0000 0.0000 0.0000 0.0000 16.2069 0.0000
# 6 0.0000 0.0000 0.0000 0.0000 0.0000 17.8712
#
#
#
# Elastic Compliance Matrix: (Units=1/GPa)
#
#
# Indices 1 2 3 4 5 6 
#
# 1 0.007206 -0.002678 -0.001003 0.000000 0.000000 0.000000
# 2 -0.002678 0.021040 -0.012106 0.000000 0.000000 0.000000
# 3 -0.001003 -0.012106 0.021125 0.000000 0.000000 0.000000
# 4 0.000000 0.000000 0.000000 0.027861 0.000000 0.000000
# 5 0.000000 0.000000 0.000000 0.000000 0.061702 0.000000
# 6 0.000000 0.000000 0.000000 0.000000 0.000000 0.055956
#
#
# Mechanical properties :
#
#
# Convention : Reuss Voigt Hill
#
# Bulk Modulus (GPa) = 56.19657 59.25098 57.72377
# Shear Modulus (GPa) = 21.51475 27.31298 24.41387
#
# Velocity S-wave (km/s) = 3.13479 3.53203 3.33932
# Velocity P-wave (km/s) = 6.22659 6.61035 6.42134
#
# Compressibility (1/GPa) = 0.01779468
#
# Stress axis : x y z
#
# Youngs Moduli (GPa) = 138.76961 47.52880 47.33686
#
# Poissons Ratio (x) = 0.12730 0.04750
# Poissons Ratio (y) = 0.37167 0.57308
# Poissons Ratio (z) = 0.13925 0.57541
#
# Static dielectric constant tensor:
#      x y z
#    x 4.182680 0.000000 0.000000 
#    y 0.000000 3.787100 0.000000 
#    z 0.000000 0.000000 3.926420 
# 
# 
# High freq. dielectric constant tensor:
#      x y z
#    x 1.880450 0.000000 0.000000 
#    y 0.000000 1.831110 0.000000 
#    z 0.000000 0.000000 1.859690 
# 
# From -- ./inp_files/24232.got.cif
#   From: 2010.03.12/outbox.cif.g09.slc.cpg/sg64_13_cif.got.tgz:24232.got - 2010.04.10 20:19:32.
