data_PCOD8264950
_publ_section_title
;
Structure prediction by ZEFSAII (Michael W. Deem and Ramdas Pophale) SiO2 
 PCOD8264950
Probable space group: C M C A
;
_chemical_formula_sum "Si O2"
_cell_formula_units_Z 48
_cell_length_a 21.728566
_cell_length_b 17.227438
_cell_length_c 5.463297
_cell_angle_alpha 90.000000
_cell_angle_beta 90.000000
_cell_angle_gamma 90.000000
_cell_volume 2045.062437
_symmetry_space_group_name_H-M "C M C A"
_symmetry_group_IT_number 64
_symmetry_cell_setting 'orthorhombic'
loop_
_space_group_symop_operation_xyz
x,y,z
-x,1/2-y,1/2+z
x,-y,-z
-x,1/2+y,1/2-z
-x,-y,-z
x,1/2+y,1/2-z
-x,y,z
x,1/2-y,1/2+z
1/2+x,1/2+y,z
1/2-x,-y,1/2+z
1/2+x,1/2-y,-z
1/2-x,y,1/2-z
1/2-x,1/2-y,-z
1/2+x,y,1/2-z
1/2-x,1/2+y,z
1/2+x,-y,1/2+z
loop_
_atom_site_type_symbol
_atom_site_label
_atom_site_fract_x
_atom_site_fract_y
_atom_site_fract_z
Si Si1 0.069028 0.418982 0.638023
Si Si2 0.750000 0.901800 0.250000
Si Si3 0.162365 0.701761 0.505252
Si Si4 0.850005 0.500000 0.000000
O O1 0.066906 0.500000 0.500000
O O2 0.102319 0.353211 0.477552
O O3 0.107949 0.432697 0.884178
O O4 0.000000 0.391098 0.702834
O O5 0.726132 0.847987 0.475546
O O6 0.807394 0.956245 0.307362
O O7 0.160525 0.754829 0.747170
#
# Coordination Sequence:
#
# PCOD8264950 Si02
#       4
#    16   8  16   8
#     4  11  25  48  75 104 140 195 256 313 374 448
#     4  12  24  44  74 110 154 200 252 312 388 458
#     4  12  27  48  72 110 153 196 246 307 381 456
#     4  12  23  46  74 114 147 192 258 326 370 454
#
# _framework density 23.471164999999999
#
# number of rings (size 3 to 8) (size 9 to 14) (size 15 to 20)
#    0.000    0.333    3.333    5.500    0.000    4.000 
#    0.000    0.000    0.000    0.000    0.000    0.000 
#    0.000    0.000    0.000    0.000    0.000    0.000 
#
# Total GULP energy -297562.499943 kJ/mol
# GULP energy per Si atom -12398.437498 kJ/mol
# Density = 2.341774 g / cm^3
# Si number density = 23.471165 Si / 1000 Ang^3
#
#
#
# Elastic Constant Matrix: (Units=GPa)
#
#
# Indices 1 2 3 4 5 6 
#
# 1 173.1861 45.6865 35.2713 0.0000 0.0000 0.0000
# 2 45.6865 97.5824 36.9801 0.0000 0.0000 0.0000
# 3 35.2713 36.9801 102.7435 0.0000 0.0000 0.0000
# 4 0.0000 0.0000 0.0000 45.1382 0.0000 0.0000
# 5 0.0000 0.0000 0.0000 0.0000 35.6139 0.0000
# 6 0.0000 0.0000 0.0000 0.0000 0.0000 36.6394
#
#
#
# Elastic Compliance Matrix: (Units=1/GPa)
#
#
# Indices 1 2 3 4 5 6 
#
# 1 0.006749 -0.002642 -0.001366 0.000000 0.000000 0.000000
# 2 -0.002642 0.012901 -0.003736 0.000000 0.000000 0.000000
# 3 -0.001366 -0.003736 0.011547 0.000000 0.000000 0.000000
# 4 0.000000 0.000000 0.000000 0.022154 0.000000 0.000000
# 5 0.000000 0.000000 0.000000 0.000000 0.028079 0.000000
# 6 0.000000 0.000000 0.000000 0.000000 0.000000 0.027293
#
#
# Mechanical properties :
#
#
# Convention : Reuss Voigt Hill
#
# Bulk Modulus (GPa) = 63.66282 67.70976 65.68629
# Shear Modulus (GPa) = 38.62559 40.51657 39.57108
#
# Velocity S-wave (km/s) = 4.06108 4.15930 4.11048
# Velocity P-wave (km/s) = 7.01231 7.20951 7.11159
#
# Compressibility (1/GPa) = 0.01570775
#
# Stress axis : x y z
#
# Youngs Moduli (GPa) = 148.16195 77.51502 86.60491
#
# Poissons Ratio (x) = 0.20482 0.11830
# Poissons Ratio (y) = 0.39149 0.32358
# Poissons Ratio (z) = 0.20239 0.28961
#
# Static dielectric constant tensor:
#      x y z
#    x 4.738020 0.000000 0.000000 
#    y 0.000000 4.618060 0.000000 
#    z 0.000000 0.000000 4.068180 
# 
# 
# High freq. dielectric constant tensor:
#      x y z
#    x 1.941560 0.000000 0.000000 
#    y 0.000000 1.939360 0.000000 
#    z 0.000000 0.000000 1.921620 
# 
# From -- ./inp_files/1534.got.cif
#   From: 2010.03.12/outbox.cif.g09.slc.cpg/sg64_1_cif.got.tgz:1534.got - 2010.04.10 20:19:32.
