data_PCOD8264508
_publ_section_title
;
Structure prediction by ZEFSAII (Michael W. Deem and Ramdas Pophale) SiO2 
 PCOD8264508
Probable space group: C M C A
;
_chemical_formula_sum "Si O2"
_cell_formula_units_Z 88
_cell_length_a 25.954519
_cell_length_b 12.632754
_cell_length_c 12.639261
_cell_angle_alpha 90.000000
_cell_angle_beta 90.000000
_cell_angle_gamma 90.000000
_cell_volume 4144.123658
_symmetry_space_group_name_H-M "C M C A"
_symmetry_group_IT_number 64
_symmetry_cell_setting 'orthorhombic'
loop_
_space_group_symop_operation_xyz
x,y,z
-x,1/2-y,1/2+z
x,-y,-z
-x,1/2+y,1/2-z
-x,-y,-z
x,1/2+y,1/2-z
-x,y,z
x,1/2-y,1/2+z
1/2+x,1/2+y,z
1/2-x,-y,1/2+z
1/2+x,1/2-y,-z
1/2-x,y,1/2-z
1/2-x,1/2-y,-z
1/2+x,y,1/2-z
1/2-x,1/2+y,z
1/2+x,-y,1/2+z
loop_
_atom_site_type_symbol
_atom_site_label
_atom_site_fract_x
_atom_site_fract_y
_atom_site_fract_z
Si Si1 0.623975 0.314315 0.795370
Si Si2 0.611190 0.000000 0.000000
Si Si3 0.058404 0.009474 0.117848
Si Si4 0.059376 0.614995 0.819596
Si Si5 0.790978 0.885177 0.950610
Si Si6 0.320117 0.681191 0.420751
O O1 0.579431 0.399749 0.806207
O O2 0.599501 0.208570 0.844696
O O3 0.672285 0.364089 0.853691
O O4 0.644152 0.294670 0.678642
O O5 0.646179 0.894733 0.995269
O O6 0.575958 0.016448 0.895076
O O7 0.000000 0.039826 0.095053
O O8 0.063741 0.906500 0.192705
O O9 0.085275 0.000000 0.000000
O O10 0.000000 0.644985 0.846203
O O11 0.733514 0.880050 0.902216
O O12 0.804309 0.795735 0.035964
O O13 0.800875 0.000000 0.000000
#
# Coordination Sequence:
#
# PCOD8264508 Si02
#       6
#    16   8  16  16  16  16
#     4  12  24  41  66 100 133 179 226 282 347 408
#     4  12  21  48  68 102 142 178 227 292 348 412
#     4  10  23  43  66  94 131 176 229 284 342 410
#     4  11  25  43  69 102 137 182 229 285 348 409
#     4  11  25  45  69  98 140 180 231 281 342 417
#     4  11  25  44  69 102 136 181 227 289 346 410
#
# _framework density 21.234888000000002
#
# number of rings (size 3 to 8) (size 9 to 14) (size 15 to 20)
#    0.000    0.909    4.545    1.909    5.091    0.000 
#    0.000    1.818    0.000    0.000    0.000    0.000 
#    0.000    0.000    0.000    0.000    0.000    0.000 
#
# Total GULP energy -545153.862922 kJ/mol
# GULP energy per Si atom -12389.860521 kJ/mol
# Density = 2.118656 g / cm^3
# Si number density = 21.234888 Si / 1000 Ang^3
#
#
#
# Elastic Constant Matrix: (Units=GPa)
#
#
# Indices 1 2 3 4 5 6 
#
# 1 101.6232 55.6382 38.5266 0.0000 0.0000 0.0000
# 2 55.6382 101.2252 41.7797 0.0000 0.0000 0.0000
# 3 38.5266 41.7797 81.0706 0.0000 0.0000 0.0000
# 4 0.0000 0.0000 0.0000 27.4042 0.0000 0.0000
# 5 0.0000 0.0000 0.0000 0.0000 39.4953 0.0000
# 6 0.0000 0.0000 0.0000 0.0000 0.0000 36.4790
#
#
#
# Elastic Compliance Matrix: (Units=1/GPa)
#
#
# Indices 1 2 3 4 5 6 
#
# 1 0.014870 -0.006677 -0.003626 0.000000 0.000000 0.000000
# 2 -0.006677 0.015546 -0.004839 0.000000 0.000000 0.000000
# 3 -0.003626 -0.004839 0.016552 0.000000 0.000000 0.000000
# 4 0.000000 0.000000 0.000000 0.036491 0.000000 0.000000
# 5 0.000000 0.000000 0.000000 0.000000 0.025319 0.000000
# 6 0.000000 0.000000 0.000000 0.000000 0.000000 0.027413
#
#
# Mechanical properties :
#
#
# Convention : Reuss Voigt Hill
#
# Bulk Modulus (GPa) = 59.93298 61.75643 60.84471
# Shear Modulus (GPa) = 29.06372 30.54068 29.80220
#
# Velocity S-wave (km/s) = 3.70358 3.79652 3.75033
# Velocity P-wave (km/s) = 6.82450 6.95440 6.88976
#
# Compressibility (1/GPa) = 0.01668530
#
# Stress axis : x y z
#
# Youngs Moduli (GPa) = 67.24734 64.32511 60.41734
#
# Poissons Ratio (x) = 0.42950 0.21906
# Poissons Ratio (y) = 0.44901 0.29233
# Poissons Ratio (z) = 0.24382 0.31124
#
# Static dielectric constant tensor:
#      x y z
#    x 4.073750 0.000000 0.000000 
#    y 0.000000 3.752070 0.000000 
#    z 0.000000 0.000000 4.093550 
# 
# 
# High freq. dielectric constant tensor:
#      x y z
#    x 1.851340 0.000000 0.000000 
#    y 0.000000 1.828170 0.000000 
#    z 0.000000 0.000000 1.830500 
# 
# From -- ./inp_files/19690.got.cif
#   From: 2010.03.12/outbox.cif.g09.slc.cpg/sg64_10_cif.got.tgz:19690.got - 2010.04.10 20:19:32.
