data_PCOD8264609
_publ_section_title
;
Structure prediction by ZEFSAII (Michael W. Deem and Ramdas Pophale) SiO2 
 PCOD8264609
Probable space group: C M C A
;
_chemical_formula_sum "Si O2"
_cell_formula_units_Z 56
_cell_length_a 9.540924
_cell_length_b 12.115835
_cell_length_c 18.657637
_cell_angle_alpha 90.000000
_cell_angle_beta 90.000000
_cell_angle_gamma 90.000000
_cell_volume 2156.753075
_symmetry_space_group_name_H-M "C M C A"
_symmetry_group_IT_number 64
_symmetry_cell_setting 'orthorhombic'
loop_
_space_group_symop_operation_xyz
x,y,z
-x,1/2-y,1/2+z
x,-y,-z
-x,1/2+y,1/2-z
-x,-y,-z
x,1/2+y,1/2-z
-x,y,z
x,1/2-y,1/2+z
1/2+x,1/2+y,z
1/2-x,-y,1/2+z
1/2+x,1/2-y,-z
1/2-x,y,1/2-z
1/2-x,1/2-y,-z
1/2+x,y,1/2-z
1/2-x,1/2+y,z
1/2+x,-y,1/2+z
loop_
_atom_site_type_symbol
_atom_site_label
_atom_site_fract_x
_atom_site_fract_y
_atom_site_fract_z
Si Si1 0.205096 0.550618 0.153785
Si Si2 0.759918 0.500000 0.500000
Si Si3 0.000000 0.264801 0.846760
Si Si4 0.500000 0.152205 0.346713
Si Si5 0.500000 0.886875 0.226691
Si Si6 0.500000 0.664856 0.990772
O O1 0.168118 0.528360 0.069984
O O2 0.135073 0.665211 0.177844
O O3 0.370308 0.568507 0.167900
O O4 0.140324 0.450568 0.200971
O O5 0.858351 0.400693 0.474667
O O6 0.000000 0.140506 0.812530
O O7 0.000000 0.262663 0.933573
O O8 0.500000 0.259350 0.298380
O O9 0.500000 0.202857 0.426811
#
# Coordination Sequence:
#
# PCOD8264609 Si02
#       6
#    16   8   8   8   8   8
#     4  10  25  49  76 111 147 195 258 312 377 465
#     4   9  20  43  74 112 140 190 252 324 378 430
#     4  11  26  47  70 113 155 204 250 305 394 458
#     4  10  24  50  78 113 145 195 262 312 370 443
#     4  11  27  51  70 107 158 206 241 316 379 448
#     4   9  21  42  72 109 147 191 247 318 375 443
#
# _framework density 25.964955
#
# number of rings (size 3 to 8) (size 9 to 14) (size 15 to 20)
#    0.000    2.000    0.000    0.857    8.000    4.571 
#   25.714    1.429    0.000    0.000    0.000    0.000 
#    0.000    0.000    0.000    0.000    0.000    0.000 
#
# Total GULP energy -347024.485687 kJ/mol
# GULP energy per Si atom -12393.731632 kJ/mol
# Density = 2.590586 g / cm^3
# Si number density = 25.964955 Si / 1000 Ang^3
#
#
#
# Elastic Constant Matrix: (Units=GPa)
#
#
# Indices 1 2 3 4 5 6 
#
# 1 154.6465 41.4740 24.6837 0.0000 0.0000 0.0000
# 2 41.4740 110.5057 32.3839 0.0000 0.0000 0.0000
# 3 24.6837 32.3839 120.7483 0.0000 0.0000 0.0000
# 4 0.0000 0.0000 0.0000 50.9261 0.0000 0.0000
# 5 0.0000 0.0000 0.0000 0.0000 34.8200 0.0000
# 6 0.0000 0.0000 0.0000 0.0000 0.0000 4.3079
#
#
#
# Elastic Compliance Matrix: (Units=1/GPa)
#
#
# Indices 1 2 3 4 5 6 
#
# 1 0.007264 -0.002486 -0.000818 0.000000 0.000000 0.000000
# 2 -0.002486 0.010672 -0.002354 0.000000 0.000000 0.000000
# 3 -0.000818 -0.002354 0.009080 0.000000 0.000000 0.000000
# 4 0.000000 0.000000 0.000000 0.019636 0.000000 0.000000
# 5 0.000000 0.000000 0.000000 0.000000 0.028719 0.000000
# 6 0.000000 0.000000 0.000000 0.000000 0.000000 0.232134
#
#
# Mechanical properties :
#
#
# Convention : Reuss Voigt Hill
#
# Bulk Modulus (GPa) = 63.69650 64.77596 64.23623
# Shear Modulus (GPa) = 15.42944 37.16805 26.29874
#
# Velocity S-wave (km/s) = 2.44035 3.78758 3.18599
# Velocity P-wave (km/s) = 5.70310 6.64299 6.19091
#
# Compressibility (1/GPa) = 0.01569945
#
# Stress axis : x y z
#
# Youngs Moduli (GPa) = 137.66979 93.70029 110.12934
#
# Poissons Ratio (x) = 0.23298 0.09009
# Poissons Ratio (y) = 0.34231 0.25924
# Poissons Ratio (z) = 0.11262 0.22057
#
# Static dielectric constant tensor:
#      x y z
#    x 4.554220 0.000000 0.000000 
#    y 0.000000 4.385940 0.000000 
#    z 0.000000 0.000000 4.983570 
# 
# 
# High freq. dielectric constant tensor:
#      x y z
#    x 2.032220 0.000000 0.000000 
#    y 0.000000 2.030860 0.000000 
#    z 0.000000 0.000000 2.067530 
# 
# From -- ./inp_files/37686.got.cif
#   From: 2010.03.12/outbox.cif.g09.slc.cpg/sg64_19_cif.got.tgz:37686.got - 2010.04.10 20:19:32.
