data_PCOD8264678
_publ_section_title
;
Structure prediction by ZEFSAII (Michael W. Deem and Ramdas Pophale) SiO2 
 PCOD8264678
Probable space group: C M C A
;
_chemical_formula_sum "Si O2"
_cell_formula_units_Z 64
_cell_length_a 15.158957
_cell_length_b 10.242499
_cell_length_c 18.489863
_cell_angle_alpha 90.000000
_cell_angle_beta 90.000000
_cell_angle_gamma 90.000000
_cell_volume 2870.839708
_symmetry_space_group_name_H-M "C M C A"
_symmetry_group_IT_number 64
_symmetry_cell_setting 'orthorhombic'
loop_
_space_group_symop_operation_xyz
x,y,z
-x,1/2-y,1/2+z
x,-y,-z
-x,1/2+y,1/2-z
-x,-y,-z
x,1/2+y,1/2-z
-x,y,z
x,1/2-y,1/2+z
1/2+x,1/2+y,z
1/2-x,-y,1/2+z
1/2+x,1/2-y,-z
1/2-x,y,1/2-z
1/2-x,1/2-y,-z
1/2+x,y,1/2-z
1/2-x,1/2+y,z
1/2+x,-y,1/2+z
loop_
_atom_site_type_symbol
_atom_site_label
_atom_site_fract_x
_atom_site_fract_y
_atom_site_fract_z
Si Si1 0.901725 0.689677 0.535082
Si Si2 0.500000 0.962018 0.169356
Si Si3 0.000000 0.172986 0.209889
Si Si4 0.837078 0.454560 0.917913
Si Si5 0.854582 0.431485 0.606481
O O1 0.861012 0.802521 0.583864
O O2 0.906765 0.560643 0.583638
O O3 0.846669 0.667774 0.461527
O O4 0.000000 0.729378 0.511010
O O5 0.500000 0.831028 0.219076
O O6 0.500000 0.096663 0.214475
O O7 0.413030 0.959046 0.119194
O O8 0.909128 0.134280 0.170493
O O9 0.746033 0.469127 0.872366
O O10 0.823153 0.500000 0.000000
#
# Coordination Sequence:
#
# PCOD8264678 Si02
#       5
#    16   8   8  16  16
#     4  11  20  39  69 104 139 175 221 279 363 392
#     4  12  31  48  70  99 139 195 231 285 344 410
#     4  12  28  51  70  96 141 185 241 276 344 431
#     4  12  25  43  70 108 141 175 231 295 351 410
#     4  11  23  41  72 103 137 178 223 287 347 419
#
# _framework density 22.293129
#
# number of rings (size 3 to 8) (size 9 to 14) (size 15 to 20)
#    0.000    0.500    6.250    3.375    7.000    1.000 
#    0.000    2.500    0.000    0.000    0.000    0.000 
#    0.000    0.000    0.000    0.000    0.000    0.000 
#
# Total GULP energy -396874.672196 kJ/mol
# GULP energy per Si atom -12402.333506 kJ/mol
# Density = 2.224239 g / cm^3
# Si number density = 22.293129 Si / 1000 Ang^3
#
#
#
# Elastic Constant Matrix: (Units=GPa)
#
#
# Indices 1 2 3 4 5 6 
#
# 1 178.2959 19.8428 27.9675 0.0000 0.0000 0.0000
# 2 19.8428 84.5321 22.6813 0.0000 0.0000 0.0000
# 3 27.9675 22.6813 49.3678 0.0000 0.0000 0.0000
# 4 0.0000 0.0000 0.0000 33.6134 0.0000 0.0000
# 5 0.0000 0.0000 0.0000 0.0000 18.8027 0.0000
# 6 0.0000 0.0000 0.0000 0.0000 0.0000 22.9723
#
#
#
# Elastic Compliance Matrix: (Units=1/GPa)
#
#
# Indices 1 2 3 4 5 6 
#
# 1 0.006181 -0.000583 -0.003234 0.000000 0.000000 0.000000
# 2 -0.000583 0.013548 -0.005894 0.000000 0.000000 0.000000
# 3 -0.003234 -0.005894 0.024796 0.000000 0.000000 0.000000
# 4 0.000000 0.000000 0.000000 0.029750 0.000000 0.000000
# 5 0.000000 0.000000 0.000000 0.000000 0.053184 0.000000
# 6 0.000000 0.000000 0.000000 0.000000 0.000000 0.043531
#
#
# Mechanical properties :
#
#
# Convention : Reuss Voigt Hill
#
# Bulk Modulus (GPa) = 39.83564 50.35322 45.09443
# Shear Modulus (GPa) = 25.15357 31.19129 28.17243
#
# Velocity S-wave (km/s) = 3.36268 3.74457 3.55875
# Velocity P-wave (km/s) = 5.74322 6.42897 6.09575
#
# Compressibility (1/GPa) = 0.02510315
#
# Stress axis : x y z
#
# Youngs Moduli (GPa) = 161.79194 73.81051 40.32924
#
# Poissons Ratio (x) = 0.04305 0.13041
# Poissons Ratio (y) = 0.09437 0.23770
# Poissons Ratio (z) = 0.52316 0.43505
#
# Static dielectric constant tensor:
#      x y z
#    x 4.253020 0.000000 0.000000 
#    y 0.000000 4.124750 0.000000 
#    z 0.000000 0.000000 3.593490 
# 
# 
# High freq. dielectric constant tensor:
#      x y z
#    x 1.895890 0.000000 0.000000 
#    y 0.000000 1.888630 0.000000 
#    z 0.000000 0.000000 1.831920 
# 
# From -- ./inp_files/31679.got.cif
#   From: 2010.03.12/outbox.cif.g09.slc.cpg/sg64_16_cif.got.tgz:31679.got - 2010.04.10 20:19:32.
