data_PCOD8264117
_publ_section_title
;
Structure prediction by ZEFSAII (Michael W. Deem and Ramdas Pophale) SiO2 
 PCOD8264117
Probable space group: C M C A
;
_chemical_formula_sum "Si O2"
_cell_formula_units_Z 88
_cell_length_a 27.385659
_cell_length_b 16.315811
_cell_length_c 9.996812
_cell_angle_alpha 90.000000
_cell_angle_beta 90.000000
_cell_angle_gamma 90.000000
_cell_volume 4466.767904
_symmetry_space_group_name_H-M "C M C A"
_symmetry_group_IT_number 64
_symmetry_cell_setting 'orthorhombic'
loop_
_space_group_symop_operation_xyz
x,y,z
-x,1/2-y,1/2+z
x,-y,-z
-x,1/2+y,1/2-z
-x,-y,-z
x,1/2+y,1/2-z
-x,y,z
x,1/2-y,1/2+z
1/2+x,1/2+y,z
1/2-x,-y,1/2+z
1/2+x,1/2-y,-z
1/2-x,y,1/2-z
1/2-x,1/2-y,-z
1/2+x,y,1/2-z
1/2-x,1/2+y,z
1/2+x,-y,1/2+z
loop_
_atom_site_type_symbol
_atom_site_label
_atom_site_fract_x
_atom_site_fract_y
_atom_site_fract_z
Si Si1 0.593976 0.258285 0.589148
Si Si2 0.688313 0.084853 0.545049
Si Si3 0.250000 0.184563 0.750000
Si Si4 0.000000 0.966735 0.300702
Si Si5 0.416834 0.928709 0.395967
Si Si6 0.000000 0.630526 0.072358
Si Si7 0.842948 0.724717 0.355274
O O1 0.575253 0.165672 0.558741
O O2 0.547667 0.315290 0.582642
O O3 0.620433 0.274522 0.730100
O O4 0.632609 0.280178 0.471909
O O5 0.728455 0.131311 0.630116
O O6 0.640943 0.062963 0.637098
O O7 0.668466 0.134565 0.415456
O O8 0.713134 0.000000 0.500000
O O9 0.208820 0.239891 0.685588
O O10 0.050078 0.939814 0.232548
O O11 0.000000 0.920584 0.438810
O O12 0.000000 0.065129 0.307930
O O13 0.432902 0.000000 0.500000
#
# Coordination Sequence:
#
# PCOD8264117 Si02
#       7
#    16  16   8   8  16   8  16
#     4  11  24  43  68 101 128 183 222 280 332 413
#     4  10  24  41  66 100 133 178 223 277 332 410
#     4  12  22  46  68 102 132 174 232 278 340 394
#     4  11  24  43  59  97 136 173 216 280 341 388
#     4  10  21  42  66  92 129 173 226 271 326 402
#     4  11  27  39  64  97 139 172 225 272 340 408
#     4  11  23  43  69  97 134 172 230 276 337 394
#
# _framework density 19.701046999999999
#
# number of rings (size 3 to 8) (size 9 to 14) (size 15 to 20)
#    0.000    1.273    3.636    2.455    7.636    1.455 
#    0.000    0.000    0.000    0.000    0.000    0.000 
#    0.000    0.000    0.000    0.000    0.000    0.000 
#
# Total GULP energy -545333.832604 kJ/mol
# GULP energy per Si atom -12393.950741 kJ/mol
# Density = 1.965621 g / cm^3
# Si number density = 19.701047 Si / 1000 Ang^3
#
#
#
# Elastic Constant Matrix: (Units=GPa)
#
#
# Indices 1 2 3 4 5 6 
#
# 1 121.4520 72.9254 50.1363 0.0000 0.0000 0.0000
# 2 72.9254 138.0511 50.7733 0.0000 0.0000 0.0000
# 3 50.1363 50.7733 104.1593 0.0000 0.0000 0.0000
# 4 0.0000 0.0000 0.0000 24.4306 0.0000 0.0000
# 5 0.0000 0.0000 0.0000 0.0000 35.5477 0.0000
# 6 0.0000 0.0000 0.0000 0.0000 0.0000 -194.9433
#
#
#
# Elastic Compliance Matrix: (Units=1/GPa)
#
#
# Indices 1 2 3 4 5 6 
#
# 1 0.013060 -0.005589 -0.003562 0.000000 0.000000 0.000000
# 2 -0.005589 0.011218 -0.002778 0.000000 0.000000 0.000000
# 3 -0.003562 -0.002778 0.012669 0.000000 0.000000 0.000000
# 4 0.000000 0.000000 0.000000 0.040932 0.000000 0.000000
# 5 0.000000 0.000000 0.000000 0.000000 0.028131 0.000000
# 6 0.000000 0.000000 0.000000 0.000000 0.000000 -0.005130
#
#
# Mechanical properties :
#
#
# Convention : Reuss Voigt Hill
#
# Bulk Modulus (GPa) = 76.39802 79.03692 77.71747
# Shear Modulus (GPa) = 38.72922 -14.33783 12.19569
#
# Velocity S-wave (km/s) = 4.43860 -2.70065 2.49075
# Velocity P-wave (km/s) = 8.07038 5.52092 6.91417
#
# Compressibility (1/GPa) = 0.01308935
#
# Stress axis : x y z
#
# Youngs Moduli (GPa) = 76.57015 89.14471 78.93054
#
# Poissons Ratio (x) = 0.49822 0.28115
# Poissons Ratio (y) = 0.42794 0.21927
# Poissons Ratio (z) = 0.27274 0.24765
#
# Static dielectric constant tensor:
#      x y z
#    x 3.704270 0.000000 0.000000 
#    y 0.000000 3.900050 0.000000 
#    z 0.000000 0.000000 3.776160 
# 
# 
# High freq. dielectric constant tensor:
#      x y z
#    x 1.781140 0.000000 0.000000 
#    y 0.000000 1.775740 0.000000 
#    z 0.000000 0.000000 1.763970 
# 
# From -- ./inp_files/11124.got.cif
#   From: 2010.03.12/outbox.cif.g09.slc.cpg/sg64_6_cif.got.tgz:11124.got - 2010.04.10 20:19:32.
