data_PCOD8264439
_publ_section_title
;
Structure prediction by ZEFSAII (Michael W. Deem and Ramdas Pophale) SiO2 
 PCOD8264439
Probable space group: C M C A
;
_chemical_formula_sum "Si O2"
_cell_formula_units_Z 48
_cell_length_a 8.250761
_cell_length_b 27.864146
_cell_length_c 8.160490
_cell_angle_alpha 90.000000
_cell_angle_beta 90.000000
_cell_angle_gamma 90.000000
_cell_volume 1876.099990
_symmetry_space_group_name_H-M "C M C A"
_symmetry_group_IT_number 64
_symmetry_cell_setting 'orthorhombic'
loop_
_space_group_symop_operation_xyz
x,y,z
-x,1/2-y,1/2+z
x,-y,-z
-x,1/2+y,1/2-z
-x,-y,-z
x,1/2+y,1/2-z
-x,y,z
x,1/2-y,1/2+z
1/2+x,1/2+y,z
1/2-x,-y,1/2+z
1/2+x,1/2-y,-z
1/2-x,y,1/2-z
1/2-x,1/2-y,-z
1/2+x,y,1/2-z
1/2-x,1/2+y,z
1/2+x,-y,1/2+z
loop_
_atom_site_type_symbol
_atom_site_label
_atom_site_fract_x
_atom_site_fract_y
_atom_site_fract_z
Si Si1 0.500000 0.693440 0.403482
Si Si2 0.689572 0.447709 0.432775
Si Si3 0.500000 0.802280 0.293144
Si Si4 0.822475 0.352902 0.555575
O O1 0.500000 0.746319 0.332723
O O2 0.500000 0.689909 0.600557
O O3 0.668425 0.668411 0.346054
O O4 0.729574 0.500000 0.500000
O O5 0.500000 0.434922 0.443558
O O6 0.750000 0.444523 0.250000
O O7 0.791505 0.409620 0.538235
O O8 0.340611 0.826782 0.377649
O O9 0.000000 0.344972 0.646290
#
# Coordination Sequence:
#
# PCOD8264439 Si02
#       4
#     8  16   8  16
#     4  12  20  44  57  92 124 158 209 256 295 370
#     4  11  23  41  66  94 126 163 207 261 312 372
#     4  10  24  36  65  86 122 162 203 252 305 350
#     4  10  23  38  66  90 120 166 206 248 305 370
#
# _framework density 25.584987000000002
#
# number of rings (size 3 to 8) (size 9 to 14) (size 15 to 20)
#    1.000    0.333    1.667    5.000    0.000    2.667 
#    0.000    3.333    0.000    0.000    0.000    0.000 
#    0.000    0.000    0.000    0.000    0.000    0.000 
#
# Total GULP energy -297560.064742 kJ/mol
# GULP energy per Si atom -12398.336031 kJ/mol
# Density = 2.552675 g / cm^3
# Si number density = 25.584987 Si / 1000 Ang^3
#
#
#
# Elastic Constant Matrix: (Units=GPa)
#
#
# Indices 1 2 3 4 5 6 
#
# 1 211.7149 104.8201 78.9378 0.0000 0.0000 0.0000
# 2 104.8201 200.4836 29.6608 0.0000 0.0000 0.0000
# 3 78.9378 29.6608 104.3120 0.0000 0.0000 0.0000
# 4 0.0000 0.0000 0.0000 -81.8775 0.0000 0.0000
# 5 0.0000 0.0000 0.0000 0.0000 197.5141 0.0000
# 6 0.0000 0.0000 0.0000 0.0000 0.0000 75.3977
#
#
#
# Elastic Compliance Matrix: (Units=1/GPa)
#
#
# Indices 1 2 3 4 5 6 
#
# 1 0.008573 -0.003677 -0.005442 0.000000 0.000000 0.000000
# 2 -0.003677 0.006784 0.000854 0.000000 0.000000 0.000000
# 3 -0.005442 0.000854 0.013462 0.000000 0.000000 0.000000
# 4 0.000000 0.000000 0.000000 -0.012213 0.000000 0.000000
# 5 0.000000 0.000000 0.000000 0.000000 0.005063 0.000000
# 6 0.000000 0.000000 0.000000 0.000000 0.000000 0.013263
#
#
# Mechanical properties :
#
#
# Convention : Reuss Voigt Hill
#
# Bulk Modulus (GPa) = 81.37871 104.81646 93.09758
# Shear Modulus (GPa) = 89.99484 58.41299 74.20391
#
# Velocity S-wave (km/s) = 5.93727 4.78336 5.39128
# Velocity P-wave (km/s) = 8.88132 8.45957 8.67301
#
# Compressibility (1/GPa) = 0.01228823
#
# Stress axis : x y z
#
# Youngs Moduli (GPa) = 116.64670 147.40177 74.28265
#
# Poissons Ratio (x) = 0.54201 0.40424
# Poissons Ratio (y) = 0.42892 -0.06341
# Poissons Ratio (z) = 0.63478 -0.12582
#
# Static dielectric constant tensor:
#      x y z
#    x 5.110860 0.000000 0.000000 
#    y 0.000000 5.587590 0.000000 
#    z 0.000000 0.000000 4.458480 
# 
# 
# High freq. dielectric constant tensor:
#      x y z
#    x 2.057850 0.000000 0.000000 
#    y 0.000000 2.018270 0.000000 
#    z 0.000000 0.000000 2.061830 
# 
# From -- ./inp_files/3938.got.cif
#   From: 2010.03.12/outbox.cif.g09.slc.cpg/sg64_2_cif.got.tgz:3938.got - 2010.04.10 20:19:32.
