data_PCOD8264080
_publ_section_title
;
Structure prediction by ZEFSAII (Michael W. Deem and Ramdas Pophale) SiO2 
 PCOD8264080
Probable space group: C M C A
;
_chemical_formula_sum "Si O2"
_cell_formula_units_Z 88
_cell_length_a 24.252340
_cell_length_b 13.902365
_cell_length_c 12.033198
_cell_angle_alpha 90.000000
_cell_angle_beta 90.000000
_cell_angle_gamma 90.000000
_cell_volume 4057.171793
_symmetry_space_group_name_H-M "C M C A"
_symmetry_group_IT_number 64
_symmetry_cell_setting 'orthorhombic'
loop_
_space_group_symop_operation_xyz
x,y,z
-x,1/2-y,1/2+z
x,-y,-z
-x,1/2+y,1/2-z
-x,-y,-z
x,1/2+y,1/2-z
-x,y,z
x,1/2-y,1/2+z
1/2+x,1/2+y,z
1/2-x,-y,1/2+z
1/2+x,1/2-y,-z
1/2-x,y,1/2-z
1/2-x,1/2-y,-z
1/2+x,y,1/2-z
1/2-x,1/2+y,z
1/2+x,-y,1/2+z
loop_
_atom_site_type_symbol
_atom_site_label
_atom_site_fract_x
_atom_site_fract_y
_atom_site_fract_z
Si Si1 0.000000 0.451521 0.167217
Si Si2 0.667676 0.320347 0.522085
Si Si3 0.089199 0.166647 0.059479
Si Si4 0.272481 0.154033 0.627900
Si Si5 0.500000 0.179132 0.622710
Si Si6 0.839347 0.000000 0.000000
Si Si7 0.500000 0.153720 0.264527
Si Si8 0.094732 0.500000 0.000000
O O1 0.000000 0.362436 0.251958
O O2 0.000000 0.541027 0.249006
O O3 0.944485 0.451376 0.092858
O O4 0.627503 0.259250 0.444757
O O5 0.689101 0.250992 0.623029
O O6 0.721505 0.345895 0.454448
O O7 0.634113 0.417525 0.556034
O O8 0.053395 0.184968 0.167509
O O9 0.124447 0.070703 0.075663
O O10 0.053853 0.151576 0.946772
O O11 0.250000 0.139513 0.750000
O O12 0.305849 0.059963 0.591340
O O13 0.500000 0.294597 0.644018
#
# Coordination Sequence:
#
# PCOD8264080 Si02
#       8
#     8  16  16  16   8   8   8   8
#     4  11  24  37  58  92 122 157 206 244 295 370
#     4  10  22  41  62  88 122 160 205 255 309 367
#     4  10  22  39  60  88 124 158 199 249 302 368
#     4  10  23  43  65  91 122 159 209 261 311 372
#     4  11  22  39  60  88 124 161 200 247 300 364
#     4  10  21  41  63  90 123 159 201 254 314 370
#     4  11  22  37  60  90 120 159 202 245 295 359
#     4  11  23  40  59  88 127 160 199 255 304 360
#
# _framework density 21.689986000000001
#
# number of rings (size 3 to 8) (size 9 to 14) (size 15 to 20)
#    0.000    1.636    0.000    3.818    0.000   13.091 
#    0.000   16.364    0.000    0.000    0.000    0.000 
#    0.000    0.000    0.000    0.000    0.000    0.000 
#
# Total GULP energy -545452.209577 kJ/mol
# GULP energy per Si atom -12396.641127 kJ/mol
# Density = 2.164062 g / cm^3
# Si number density = 21.689986 Si / 1000 Ang^3
#
#
#
# Elastic Constant Matrix: (Units=GPa)
#
#
# Indices 1 2 3 4 5 6 
#
# 1 126.2742 52.5110 27.1469 0.0000 0.0000 0.0000
# 2 52.5110 119.8497 22.1090 0.0000 0.0000 0.0000
# 3 27.1469 22.1090 81.1681 0.0000 0.0000 0.0000
# 4 0.0000 0.0000 0.0000 24.3091 0.0000 0.0000
# 5 0.0000 0.0000 0.0000 0.0000 -118.1409 0.0000
# 6 0.0000 0.0000 0.0000 0.0000 0.0000 33.2960
#
#
#
# Elastic Compliance Matrix: (Units=1/GPa)
#
#
# Indices 1 2 3 4 5 6 
#
# 1 0.010069 -0.003991 -0.002281 0.000000 0.000000 0.000000
# 2 -0.003991 0.010367 -0.001489 0.000000 0.000000 0.000000
# 3 -0.002281 -0.001489 0.013488 0.000000 0.000000 0.000000
# 4 0.000000 0.000000 0.000000 0.041137 0.000000 0.000000
# 5 0.000000 0.000000 0.000000 0.000000 -0.008464 0.000000
# 6 0.000000 0.000000 0.000000 0.000000 0.000000 0.030034
#
#
# Mechanical properties :
#
#
# Convention : Reuss Voigt Hill
#
# Bulk Modulus (GPa) = 54.33752 58.98062 56.65907
# Shear Modulus (GPa) = 42.27023 2.92785 22.59904
#
# Velocity S-wave (km/s) = 4.41935 1.16310 3.23137
# Velocity P-wave (km/s) = 7.15172 5.39030 6.33255
#
# Compressibility (1/GPa) = 0.01840349
#
# Stress axis : x y z
#
# Youngs Moduli (GPa) = 99.31250 96.45896 74.13749
#
# Poissons Ratio (x) = 0.38497 0.16908
# Poissons Ratio (y) = 0.39636 0.11039
# Poissons Ratio (z) = 0.22649 0.14363
#
# Static dielectric constant tensor:
#      x y z
#    x 3.921410 0.000000 0.000000 
#    y 0.000000 4.243570 0.000000 
#    z 0.000000 0.000000 3.748840 
# 
# 
# High freq. dielectric constant tensor:
#      x y z
#    x 1.875050 0.000000 0.000000 
#    y 0.000000 1.868450 0.000000 
#    z 0.000000 0.000000 1.824950 
# 
# From -- ./inp_files/18281.got.cif
#   From: 2010.03.12/outbox.cif.g09.slc.cpg/sg64_10_cif.got.tgz:18281.got - 2010.04.10 20:19:32.
