data_PCOD8264244
_publ_section_title
;
Structure prediction by ZEFSAII (Michael W. Deem and Ramdas Pophale) SiO2 
 PCOD8264244
Probable space group: C M C A
;
_chemical_formula_sum "Si O2"
_cell_formula_units_Z 80
_cell_length_a 13.968839
_cell_length_b 11.608703
_cell_length_c 22.955375
_cell_angle_alpha 90.000000
_cell_angle_beta 90.000000
_cell_angle_gamma 90.000000
_cell_volume 3722.445979
_symmetry_space_group_name_H-M "C M C A"
_symmetry_group_IT_number 64
_symmetry_cell_setting 'orthorhombic'
loop_
_space_group_symop_operation_xyz
x,y,z
-x,1/2-y,1/2+z
x,-y,-z
-x,1/2+y,1/2-z
-x,-y,-z
x,1/2+y,1/2-z
-x,y,z
x,1/2-y,1/2+z
1/2+x,1/2+y,z
1/2-x,-y,1/2+z
1/2+x,1/2-y,-z
1/2-x,y,1/2-z
1/2-x,1/2-y,-z
1/2+x,y,1/2-z
1/2-x,1/2+y,z
1/2+x,-y,1/2+z
loop_
_atom_site_type_symbol
_atom_site_label
_atom_site_fract_x
_atom_site_fract_y
_atom_site_fract_z
Si Si1 0.776298 0.240585 0.066796
Si Si2 0.206093 0.927886 0.347962
Si Si3 0.392512 0.563553 0.133087
Si Si4 0.651179 0.274576 0.766223
Si Si5 0.395668 0.165312 0.144653
O O1 0.820003 0.359322 0.092035
O O2 0.848329 0.133717 0.077847
O O3 0.678547 0.225922 0.102549
O O4 0.750000 0.250000 0.000000
O O5 0.181699 0.849278 0.292243
O O6 0.319348 0.961713 0.349755
O O7 0.136164 0.035242 0.343203
O O8 0.500000 0.516845 0.117902
O O9 0.405695 0.651661 0.186588
O O10 0.750000 0.341528 0.750000
O O11 0.593770 0.264899 0.705788
O O12 0.500000 0.165362 0.114782
#
# Coordination Sequence:
#
# PCOD8264244 Si02
#       5
#    16  16  16  16  16
#     4  10  23  43  64  85 122 165 205 256 310 358
#     4  10  22  40  64  85 125 163 198 245 312 356
#     4  10  22  39  62  92 122 158 207 252 300 368
#     4  11  20  39  61  87 126 161 191 240 304 367
#     4  11  24  39  61  93 122 155 206 251 300 369
#
# _framework density 21.491244999999999
#
# number of rings (size 3 to 8) (size 9 to 14) (size 15 to 20)
#    0.000    1.600    6.000    0.600    2.800    8.800 
#    0.000    2.000    0.000    0.000    0.000    0.000 
#    0.000    0.000    0.000    0.000    0.000    0.000 
#
# Total GULP energy -495707.382230 kJ/mol
# GULP energy per Si atom -12392.684556 kJ/mol
# Density = 2.144233 g / cm^3
# Si number density = 21.491245 Si / 1000 Ang^3
#
#
#
# Elastic Constant Matrix: (Units=GPa)
#
#
# Indices 1 2 3 4 5 6 
#
# 1 106.0406 16.4264 6.1990 0.0000 0.0000 0.0000
# 2 16.4264 97.2043 40.2850 0.0000 0.0000 0.0000
# 3 6.1990 40.2850 148.8444 0.0000 0.0000 0.0000
# 4 0.0000 0.0000 0.0000 19.0553 0.0000 0.0000
# 5 0.0000 0.0000 0.0000 0.0000 11.8972 0.0000
# 6 0.0000 0.0000 0.0000 0.0000 0.0000 11.2804
#
#
#
# Elastic Compliance Matrix: (Units=1/GPa)
#
#
# Indices 1 2 3 4 5 6 
#
# 1 0.009684 -0.001655 0.000045 0.000000 0.000000 0.000000
# 2 -0.001655 0.011870 -0.003144 0.000000 0.000000 0.000000
# 3 0.000045 -0.003144 0.007567 0.000000 0.000000 0.000000
# 4 0.000000 0.000000 0.000000 0.052479 0.000000 0.000000
# 5 0.000000 0.000000 0.000000 0.000000 0.084053 0.000000
# 6 0.000000 0.000000 0.000000 0.000000 0.000000 0.088649
#
#
# Mechanical properties :
#
#
# Convention : Reuss Voigt Hill
#
# Bulk Modulus (GPa) = 50.98548 53.10114 52.04331
# Shear Modulus (GPa) = 18.49460 27.72518 23.10989
#
# Velocity S-wave (km/s) = 2.93672 3.59565 3.28276
# Velocity P-wave (km/s) = 5.93923 6.48075 6.21589
#
# Compressibility (1/GPa) = 0.01961343
#
# Stress axis : x y z
#
# Youngs Moduli (GPa) = 103.26190 84.24477 132.14525
#
# Poissons Ratio (x) = 0.13942 -0.00589
# Poissons Ratio (y) = 0.17090 0.41543
# Poissons Ratio (z) = -0.00461 0.26485
#
# Static dielectric constant tensor:
#      x y z
#    x 3.961000 0.000000 0.000000 
#    y 0.000000 3.891860 0.000000 
#    z 0.000000 0.000000 3.715250 
# 
# 
# High freq. dielectric constant tensor:
#      x y z
#    x 1.840750 0.000000 0.000000 
#    y 0.000000 1.843330 0.000000 
#    z 0.000000 0.000000 1.821630 
# 
# From -- ./inp_files/44921.got.cif
#   From: 2010.03.12/outbox.cif.g09.slc.cpg/sg64_23_cif.got.tgz:44921.got - 2010.04.10 20:19:32.
