data_PCOD8264428
_publ_section_title
;
Structure prediction by ZEFSAII (Michael W. Deem and Ramdas Pophale) SiO2 
 PCOD8264428
Probable space group: C M C A
;
_chemical_formula_sum "Si O2"
_cell_formula_units_Z 64
_cell_length_a 13.945155
_cell_length_b 9.456579
_cell_length_c 19.079304
_cell_angle_alpha 90.000000
_cell_angle_beta 90.000000
_cell_angle_gamma 90.000000
_cell_volume 2516.053831
_symmetry_space_group_name_H-M "C M C A"
_symmetry_group_IT_number 64
_symmetry_cell_setting 'orthorhombic'
loop_
_space_group_symop_operation_xyz
x,y,z
-x,1/2-y,1/2+z
x,-y,-z
-x,1/2+y,1/2-z
-x,-y,-z
x,1/2+y,1/2-z
-x,y,z
x,1/2-y,1/2+z
1/2+x,1/2+y,z
1/2-x,-y,1/2+z
1/2+x,1/2-y,-z
1/2-x,y,1/2-z
1/2-x,1/2-y,-z
1/2+x,y,1/2-z
1/2-x,1/2+y,z
1/2+x,-y,1/2+z
loop_
_atom_site_type_symbol
_atom_site_label
_atom_site_fract_x
_atom_site_fract_y
_atom_site_fract_z
Si Si1 0.299414 0.384828 0.174398
Si Si2 0.000000 0.838603 0.339774
Si Si3 0.220327 0.881915 0.584927
Si Si4 0.500000 0.519523 0.209009
Si Si5 0.604998 0.274406 0.466625
O O1 0.250000 0.389728 0.250000
O O2 0.234039 0.464358 0.117474
O O3 0.304982 0.223979 0.148594
O O4 0.404592 0.455660 0.173820
O O5 0.000000 0.974436 0.290280
O O6 0.094267 0.848391 0.389497
O O7 0.000000 0.690121 0.296099
O O8 0.316344 0.847359 0.540493
O O9 0.134737 0.884056 0.527901
O O10 0.500000 0.208921 0.485844
#
# Coordination Sequence:
#
# PCOD8264428 Si02
#       5
#    16   8  16   8  16
#     4  12  27  47  73 113 149 196 249 308 374 446
#     4  10  22  47  76 118 133 200 240 316 358 452
#     4  11  24  46  74 108 148 198 243 312 366 444
#     4  12  26  47  80 104 158 185 252 300 386 442
#     4   9  21  45  73 104 150 187 250 300 371 440
#
# _framework density 25.436655999999999
#
# number of rings (size 3 to 8) (size 9 to 14) (size 15 to 20)
#    0.750    0.500    2.500    2.250    5.250    4.000 
#    2.250    3.750    0.000    0.000    0.000    0.000 
#    0.000    0.000    0.000    0.000    0.000    0.000 
#
# Total GULP energy -396612.895108 kJ/mol
# GULP energy per Si atom -12394.152972 kJ/mol
# Density = 2.537876 g / cm^3
# Si number density = 25.436656 Si / 1000 Ang^3
#
#
#
# Elastic Constant Matrix: (Units=GPa)
#
#
# Indices 1 2 3 4 5 6 
#
# 1 142.1515 20.1567 44.6144 0.0000 0.0000 0.0000
# 2 20.1567 65.0919 54.8225 0.0000 0.0000 0.0000
# 3 44.6144 54.8225 133.1579 0.0000 0.0000 0.0000
# 4 0.0000 0.0000 0.0000 30.0272 0.0000 0.0000
# 5 0.0000 0.0000 0.0000 0.0000 54.7250 0.0000
# 6 0.0000 0.0000 0.0000 0.0000 0.0000 17.9674
#
#
#
# Elastic Compliance Matrix: (Units=1/GPa)
#
#
# Indices 1 2 3 4 5 6 
#
# 1 0.007866 -0.000331 -0.002499 0.000000 0.000000 0.000000
# 2 -0.000331 0.023532 -0.009577 0.000000 0.000000 0.000000
# 3 -0.002499 -0.009577 0.012290 0.000000 0.000000 0.000000
# 4 0.000000 0.000000 0.000000 0.033303 0.000000 0.000000
# 5 0.000000 0.000000 0.000000 0.000000 0.018273 0.000000
# 6 0.000000 0.000000 0.000000 0.000000 0.000000 0.055656
#
#
# Mechanical properties :
#
#
# Convention : Reuss Voigt Hill
#
# Bulk Modulus (GPa) = 52.98551 64.39871 58.69211
# Shear Modulus (GPa) = 27.46844 35.26444 31.36644
#
# Velocity S-wave (km/s) = 3.28971 3.72743 3.51539
# Velocity P-wave (km/s) = 5.94182 6.62550 6.29295
#
# Compressibility (1/GPa) = 0.01887308
#
# Stress axis : x y z
#
# Youngs Moduli (GPa) = 127.12822 42.49575 81.36441
#
# Poissons Ratio (x) = 0.01406 0.20335
# Poissons Ratio (y) = 0.04206 0.77926
# Poissons Ratio (z) = 0.31773 0.40700
#
# Static dielectric constant tensor:
#      x y z
#    x 4.939500 0.000000 0.000000 
#    y 0.000000 4.121460 0.000000 
#    z 0.000000 0.000000 4.735900 
# 
# 
# High freq. dielectric constant tensor:
#      x y z
#    x 2.039780 0.000000 0.000000 
#    y 0.000000 1.995870 0.000000 
#    z 0.000000 0.000000 2.026790 
# 
# From -- ./inp_files/31683.got.cif
#   From: 2010.03.12/outbox.cif.g09.slc.cpg/sg64_16_cif.got.tgz:31683.got - 2010.04.10 20:19:32.
