data_PCOD8264809
_publ_section_title
;
Structure prediction by ZEFSAII (Michael W. Deem and Ramdas Pophale) SiO2 
 PCOD8264809
Probable space group: C M C A
;
_chemical_formula_sum "Si O2"
_cell_formula_units_Z 96
_cell_length_a 14.809211
_cell_length_b 15.246602
_cell_length_c 18.004945
_cell_angle_alpha 90.000000
_cell_angle_beta 90.000000
_cell_angle_gamma 90.000000
_cell_volume 4065.339161
_symmetry_space_group_name_H-M "C M C A"
_symmetry_group_IT_number 64
_symmetry_cell_setting 'orthorhombic'
loop_
_space_group_symop_operation_xyz
x,y,z
-x,1/2-y,1/2+z
x,-y,-z
-x,1/2+y,1/2-z
-x,-y,-z
x,1/2+y,1/2-z
-x,y,z
x,1/2-y,1/2+z
1/2+x,1/2+y,z
1/2-x,-y,1/2+z
1/2+x,1/2-y,-z
1/2-x,y,1/2-z
1/2-x,1/2-y,-z
1/2+x,y,1/2-z
1/2-x,1/2+y,z
1/2+x,-y,1/2+z
loop_
_atom_site_type_symbol
_atom_site_label
_atom_site_fract_x
_atom_site_fract_y
_atom_site_fract_z
Si Si1 0.596409 0.304073 0.402300
Si Si2 0.600291 0.605062 0.069574
Si Si3 0.855514 0.169046 0.760390
Si Si4 0.288592 0.905017 0.990225
Si Si5 0.900230 0.664103 0.145554
Si Si6 0.353950 0.469960 0.770763
O O1 0.500000 0.349131 0.423994
O O2 0.595936 0.208324 0.435270
O O3 0.599775 0.296551 0.314246
O O4 0.682901 0.353943 0.435443
O O5 0.500000 0.567218 0.048514
O O6 0.679779 0.581717 0.011264
O O7 0.630096 0.572687 0.150013
O O8 0.750000 0.168321 0.750000
O O9 0.881197 0.237811 0.824565
O O10 0.891243 0.069866 0.775060
O O11 0.325682 0.856996 0.916792
O O12 0.333717 0.000000 0.000000
O O13 0.902353 0.589840 0.209254
O O14 0.000000 0.664703 0.109273
O O15 0.250000 0.470081 0.750000
#
# Coordination Sequence:
#
# PCOD8264809 Si02
#       6
#    16  16  16  16  16  16
#     4  11  24  45  71 103 141 187 236 292 366 431
#     4  11  24  45  71  98 139 190 244 303 362 426
#     4  11  24  41  74 105 144 193 242 297 355 427
#     4  12  27  46  72 102 145 189 235 298 366 435
#     4  12  24  43  72 107 146 188 240 297 355 431
#     4  11  22  42  70 103 142 189 242 303 360 420
#
# _framework density 23.614266000000001
#
# number of rings (size 3 to 8) (size 9 to 14) (size 15 to 20)
#    0.000    0.667    3.333    4.500    2.333    5.667 
#    0.000    0.000    0.000    0.000    0.000    0.000 
#    0.000    0.000    0.000    0.000    0.000    0.000 
#
# Total GULP energy -594985.619865 kJ/mol
# GULP energy per Si atom -12395.533747 kJ/mol
# Density = 2.356052 g / cm^3
# Si number density = 23.614266 Si / 1000 Ang^3
#
#
#
# Elastic Constant Matrix: (Units=GPa)
#
#
# Indices 1 2 3 4 5 6 
#
# 1 147.0559 26.5797 31.3580 0.0000 0.0000 0.0000
# 2 26.5797 119.4048 17.8039 0.0000 0.0000 0.0000
# 3 31.3580 17.8039 66.2719 0.0000 0.0000 0.0000
# 4 0.0000 0.0000 0.0000 58.1238 0.0000 0.0000
# 5 0.0000 0.0000 0.0000 0.0000 45.7274 0.0000
# 6 0.0000 0.0000 0.0000 0.0000 0.0000 11.5357
#
#
#
# Elastic Compliance Matrix: (Units=1/GPa)
#
#
# Indices 1 2 3 4 5 6 
#
# 1 0.007731 -0.001225 -0.003329 0.000000 0.000000 0.000000
# 2 -0.001225 0.008918 -0.001816 0.000000 0.000000 0.000000
# 3 -0.003329 -0.001816 0.017153 0.000000 0.000000 0.000000
# 4 0.000000 0.000000 0.000000 0.017205 0.000000 0.000000
# 5 0.000000 0.000000 0.000000 0.000000 0.021869 0.000000
# 6 0.000000 0.000000 0.000000 0.000000 0.000000 0.086688
#
#
# Mechanical properties :
#
#
# Convention : Reuss Voigt Hill
#
# Bulk Modulus (GPa) = 47.47957 53.80175 50.64066
# Shear Modulus (GPa) = 27.88241 40.21013 34.04627
#
# Velocity S-wave (km/s) = 3.43992 4.13096 3.80118
# Velocity P-wave (km/s) = 5.99395 6.75175 6.38410
#
# Compressibility (1/GPa) = 0.02106169
#
# Stress axis : x y z
#
# Youngs Moduli (GPa) = 129.34246 112.12880 58.30000
#
# Poissons Ratio (x) = 0.13731 0.19410
# Poissons Ratio (y) = 0.15839 0.10590
# Poissons Ratio (z) = 0.43062 0.20368
#
# Static dielectric constant tensor:
#      x y z
#    x 4.674430 0.000000 0.000000 
#    y 0.000000 4.598360 0.000000 
#    z 0.000000 0.000000 3.732330 
# 
# 
# High freq. dielectric constant tensor:
#      x y z
#    x 1.951450 0.000000 0.000000 
#    y 0.000000 1.948730 0.000000 
#    z 0.000000 0.000000 1.921110 
# 
# From -- ./inp_files/39200.got.cif
#   From: 2010.03.12/outbox.cif.g09.slc.cpg/sg64_20_cif.got.tgz:39200.got - 2010.04.10 20:19:32.
