data_PCOD8264648
_publ_section_title
;
Structure prediction by ZEFSAII (Michael W. Deem and Ramdas Pophale) SiO2 
 PCOD8264648
Probable space group: C M C A
;
_chemical_formula_sum "Si O2"
_cell_formula_units_Z 96
_cell_length_a 14.869401
_cell_length_b 21.770813
_cell_length_c 13.745090
_cell_angle_alpha 90.000000
_cell_angle_beta 90.000000
_cell_angle_gamma 90.000000
_cell_volume 4449.546083
_symmetry_space_group_name_H-M "C M C A"
_symmetry_group_IT_number 64
_symmetry_cell_setting 'orthorhombic'
loop_
_space_group_symop_operation_xyz
x,y,z
-x,1/2-y,1/2+z
x,-y,-z
-x,1/2+y,1/2-z
-x,-y,-z
x,1/2+y,1/2-z
-x,y,z
x,1/2-y,1/2+z
1/2+x,1/2+y,z
1/2-x,-y,1/2+z
1/2+x,1/2-y,-z
1/2-x,y,1/2-z
1/2-x,1/2-y,-z
1/2+x,y,1/2-z
1/2-x,1/2+y,z
1/2+x,-y,1/2+z
loop_
_atom_site_type_symbol
_atom_site_label
_atom_site_fract_x
_atom_site_fract_y
_atom_site_fract_z
Si Si1 0.147047 0.231132 0.221943
Si Si2 0.150076 0.131798 0.715306
Si Si3 0.899600 0.895091 0.084209
Si Si4 0.208289 0.431117 0.021332
Si Si5 0.352072 0.228509 0.491232
Si Si6 0.595996 0.342982 0.593839
O O1 0.250000 0.235022 0.250000
O O2 0.106426 0.300142 0.209271
O O3 0.131121 0.200778 0.115959
O O4 0.100264 0.187399 0.299614
O O5 0.250000 0.141457 0.750000
O O6 0.098760 0.092916 0.799175
O O7 0.152007 0.094659 0.613730
O O8 0.817174 0.931348 0.033180
O O9 0.000000 0.912656 0.043425
O O10 0.877871 0.822994 0.069641
O O11 0.177226 0.500000 0.000000
O O12 0.178438 0.389472 0.928794
O O13 0.250000 0.250000 0.500000
O O14 0.409177 0.288805 0.514309
O O15 0.500000 0.378179 0.587783
#
# Coordination Sequence:
#
# PCOD8264648 Si02
#       6
#    16  16  16  16  16  16
#     4  11  19  35  63  93 133 170 215 275 339 396
#     4   9  18  36  62  92 124 169 220 271 326 388
#     4  11  22  39  66 101 131 166 224 286 342 398
#     4  11  24  46  69  91 135 189 230 271 328 401
#     4  12  19  38  66  97 136 174 211 274 353 410
#     4  12  25  39  61  99 136 173 221 271 330 401
#
# _framework density 21.575233999999998
#
# number of rings (size 3 to 8) (size 9 to 14) (size 15 to 20)
#    0.000    1.000    6.667    1.500    0.000    2.667 
#    0.000    7.500    0.000    0.000    0.000    0.000 
#    0.000    0.000    0.000    0.000    0.000    0.000 
#
# Total GULP energy -594695.186753 kJ/mol
# GULP energy per Si atom -12389.483057 kJ/mol
# Density = 2.152613 g / cm^3
# Si number density = 21.575234 Si / 1000 Ang^3
#
#
#
# Elastic Constant Matrix: (Units=GPa)
#
#
# Indices 1 2 3 4 5 6 
#
# 1 108.5830 14.6375 41.6287 0.0000 0.0000 0.0000
# 2 14.6375 107.3306 47.4828 0.0000 0.0000 0.0000
# 3 41.6287 47.4828 139.5220 0.0000 0.0000 0.0000
# 4 0.0000 0.0000 0.0000 20.8008 0.0000 0.0000
# 5 0.0000 0.0000 0.0000 0.0000 18.7225 0.0000
# 6 0.0000 0.0000 0.0000 0.0000 0.0000 18.4814
#
#
#
# Elastic Compliance Matrix: (Units=1/GPa)
#
#
# Indices 1 2 3 4 5 6 
#
# 1 0.010399 -0.000054 -0.003085 0.000000 0.000000 0.000000
# 2 -0.000054 0.010969 -0.003717 0.000000 0.000000 0.000000
# 3 -0.003085 -0.003717 0.009353 0.000000 0.000000 0.000000
# 4 0.000000 0.000000 0.000000 0.048075 0.000000 0.000000
# 5 0.000000 0.000000 0.000000 0.000000 0.053412 0.000000
# 6 0.000000 0.000000 0.000000 0.000000 0.000000 0.054109
#
#
# Mechanical properties :
#
#
# Convention : Reuss Voigt Hill
#
# Bulk Modulus (GPa) = 58.78749 62.54817 60.66783
# Shear Modulus (GPa) = 24.30770 28.38005 26.34387
#
# Velocity S-wave (km/s) = 3.36020 3.63078 3.49811
# Velocity P-wave (km/s) = 6.50856 6.82865 6.67052
#
# Compressibility (1/GPa) = 0.01701042
#
# Stress axis : x y z
#
# Youngs Moduli (GPa) = 96.15992 91.16872 106.92195
#
# Poissons Ratio (x) = 0.00489 0.32981
# Poissons Ratio (y) = 0.00516 0.39742
# Poissons Ratio (z) = 0.29661 0.33887
#
# Static dielectric constant tensor:
#      x y z
#    x 4.077580 0.000000 0.000000 
#    y 0.000000 3.483880 0.000000 
#    z 0.000000 0.000000 4.530550 
# 
# 
# High freq. dielectric constant tensor:
#      x y z
#    x 1.844100 0.000000 0.000000 
#    y 0.000000 1.797030 0.000000 
#    z 0.000000 0.000000 1.854560 
# 
# From -- ./inp_files/23848.got.cif
#   From: 2010.03.12/outbox.cif.g09.slc.cpg/sg64_12_cif.got.tgz:23848.got - 2010.04.10 20:19:32.
