data_PCOD8264231
_publ_section_title
;
Structure prediction by ZEFSAII (Michael W. Deem and Ramdas Pophale) SiO2 
 PCOD8264231
Probable space group: C M C A
;
_chemical_formula_sum "Si O2"
_cell_formula_units_Z 96
_cell_length_a 22.724422
_cell_length_b 22.727010
_cell_length_c 9.768545
_cell_angle_alpha 90.000000
_cell_angle_beta 90.000000
_cell_angle_gamma 90.000000
_cell_volume 5045.044836
_symmetry_space_group_name_H-M "C M C A"
_symmetry_group_IT_number 64
_symmetry_cell_setting 'orthorhombic'
loop_
_space_group_symop_operation_xyz
x,y,z
-x,1/2-y,1/2+z
x,-y,-z
-x,1/2+y,1/2-z
-x,-y,-z
x,1/2+y,1/2-z
-x,y,z
x,1/2-y,1/2+z
1/2+x,1/2+y,z
1/2-x,-y,1/2+z
1/2+x,1/2-y,-z
1/2-x,y,1/2-z
1/2-x,1/2-y,-z
1/2+x,y,1/2-z
1/2-x,1/2+y,z
1/2+x,-y,1/2+z
loop_
_atom_site_type_symbol
_atom_site_label
_atom_site_fract_x
_atom_site_fract_y
_atom_site_fract_z
Si Si1 0.378096 0.684890 0.008439
Si Si2 0.628395 0.176958 0.978966
Si Si3 0.253720 0.309095 0.085955
Si Si4 0.930133 0.126228 0.262610
Si Si5 0.566981 0.375320 0.231195
Si Si6 0.930510 0.999978 0.848016
O O1 0.378790 0.754602 0.984004
O O2 0.314485 0.659188 0.958604
O O3 0.428172 0.652465 0.920331
O O4 0.392931 0.669717 0.165214
O O5 0.591982 0.137781 0.084747
O O6 0.696357 0.155354 0.967391
O O7 0.602457 0.167110 0.829599
O O8 0.250000 0.297973 0.250000
O O9 0.250000 0.250000 0.000000
O O10 0.913037 0.058941 0.231432
O O11 0.000000 0.137757 0.249581
O O12 0.500000 0.375149 0.278548
O O13 0.592417 0.442208 0.232594
O O14 0.000000 0.006157 0.862332
O O15 0.902446 0.000000 0.000000
#
# Coordination Sequence:
#
# PCOD8264231 Si02
#       6
#    16  16  16  16  16  16
#     4  11  22  37  61  85 119 156 195 236 290 352
#     4  11  24  37  56  88 124 152 188 244 299 347
#     4  10  22  39  60  84 115 158 206 239 277 349
#     4  11  23  38  59  89 121 155 196 241 290 353
#     4  11  21  36  60  86 116 157 192 237 299 347
#     4   9  18  36  59  81 110 156 206 235 272 348
#
# _framework density 19.028573000000002
#
# number of rings (size 3 to 8) (size 9 to 14) (size 15 to 20)
#    0.000    1.500    3.333    2.000    7.000    4.667 
#    0.000    2.500    0.000    6.000    0.000    0.000 
#    0.000    0.000    0.000    0.000    0.000    0.000 
#
# Total GULP energy -595012.695850 kJ/mol
# GULP energy per Si atom -12396.097830 kJ/mol
# Density = 1.898526 g / cm^3
# Si number density = 19.028573 Si / 1000 Ang^3
#
#
#
# Elastic Constant Matrix: (Units=GPa)
#
#
# Indices 1 2 3 4 5 6 
#
# 1 97.5883 32.0202 30.1923 0.0000 0.0000 0.0000
# 2 32.0202 93.8101 19.5784 0.0000 0.0000 0.0000
# 3 30.1923 19.5784 75.3392 0.0000 0.0000 0.0000
# 4 0.0000 0.0000 0.0000 26.9056 0.0000 0.0000
# 5 0.0000 0.0000 0.0000 0.0000 32.7019 0.0000
# 6 0.0000 0.0000 0.0000 0.0000 0.0000 5.3901
#
#
#
# Elastic Compliance Matrix: (Units=1/GPa)
#
#
# Indices 1 2 3 4 5 6 
#
# 1 0.012674 -0.003453 -0.004182 0.000000 0.000000 0.000000
# 2 -0.003453 0.012212 -0.001790 0.000000 0.000000 0.000000
# 3 -0.004182 -0.001790 0.015414 0.000000 0.000000 0.000000
# 4 0.000000 0.000000 0.000000 0.037167 0.000000 0.000000
# 5 0.000000 0.000000 0.000000 0.000000 0.030579 0.000000
# 6 0.000000 0.000000 0.000000 0.000000 0.000000 0.185524
#
#
# Mechanical properties :
#
#
# Convention : Reuss Voigt Hill
#
# Bulk Modulus (GPa) = 46.61796 47.81328 47.21562
# Shear Modulus (GPa) = 15.64600 25.32928 20.48764
#
# Velocity S-wave (km/s) = 2.87058 3.65241 3.28484
# Velocity P-wave (km/s) = 5.96147 6.55503 6.26528
#
# Compressibility (1/GPa) = 0.02145096
#
# Stress axis : x y z
#
# Youngs Moduli (GPa) = 78.90192 81.88639 64.87523
#
# Poissons Ratio (x) = 0.28278 0.27129
# Poissons Ratio (y) = 0.27247 0.11610
# Poissons Ratio (z) = 0.32995 0.14655
#
# Static dielectric constant tensor:
#      x y z
#    x 3.853970 0.000000 0.000000 
#    y 0.000000 3.419480 0.000000 
#    z 0.000000 0.000000 3.442350 
# 
# 
# High freq. dielectric constant tensor:
#      x y z
#    x 1.732700 0.000000 0.000000 
#    y 0.000000 1.723810 0.000000 
#    z 0.000000 0.000000 1.748960 
# 
# From -- ./inp_files/9499.got.cif
#   From: 2010.03.12/outbox.cif.g09.slc.cpg/sg64_5_cif.got.tgz:9499.got - 2010.04.10 20:19:32.
