data_PCOD8264487
_publ_section_title
;
Structure prediction by ZEFSAII (Michael W. Deem and Ramdas Pophale) SiO2 
 PCOD8264487
Probable space group: C M C A
;
_chemical_formula_sum "Si O2"
_cell_formula_units_Z 64
_cell_length_a 17.942132
_cell_length_b 10.142386
_cell_length_c 14.714238
_cell_angle_alpha 90.000000
_cell_angle_beta 90.000000
_cell_angle_gamma 90.000000
_cell_volume 2677.638592
_symmetry_space_group_name_H-M "C M C A"
_symmetry_group_IT_number 64
_symmetry_cell_setting 'orthorhombic'
loop_
_space_group_symop_operation_xyz
x,y,z
-x,1/2-y,1/2+z
x,-y,-z
-x,1/2+y,1/2-z
-x,-y,-z
x,1/2+y,1/2-z
-x,y,z
x,1/2-y,1/2+z
1/2+x,1/2+y,z
1/2-x,-y,1/2+z
1/2+x,1/2-y,-z
1/2-x,y,1/2-z
1/2-x,1/2-y,-z
1/2+x,y,1/2-z
1/2-x,1/2+y,z
1/2+x,-y,1/2+z
loop_
_atom_site_type_symbol
_atom_site_label
_atom_site_fract_x
_atom_site_fract_y
_atom_site_fract_z
Si Si1 0.085469 0.734511 0.281370
Si Si2 0.915074 0.640239 0.966089
Si Si3 0.789497 0.438105 0.657054
Si Si4 0.678824 0.214547 0.603361
O O1 0.090842 0.850520 0.356969
O O2 0.125605 0.604840 0.321371
O O3 0.126533 0.783458 0.191673
O O4 0.000000 0.697485 0.259808
O O5 0.000000 0.656623 0.998594
O O6 0.883352 0.500000 0.000000
O O7 0.868230 0.756254 0.013236
O O8 0.750000 0.480412 0.750000
O O9 0.746882 0.316649 0.609751
O O10 0.788788 0.566986 0.592750
#
# Coordination Sequence:
#
# PCOD8264487 Si02
#       4
#    16  16  16  16
#     4  10  23  42  68  98 134 178 223 278 341 398
#     4  10  24  44  68 102 137 174 227 277 334 411
#     4  10  23  42  66  99 135 174 227 276 328 404
#     4  11  24  44  68  97 138 180 220 280 337 396
#
# _framework density 23.901657
#
# number of rings (size 3 to 8) (size 9 to 14) (size 15 to 20)
#    0.000    1.750    0.000    3.000   10.500    4.000 
#    0.000    2.500    0.000    0.000    0.000    0.000 
#    0.000    0.000    0.000    0.000    0.000    0.000 
#
# Total GULP energy -396964.323718 kJ/mol
# GULP energy per Si atom -12405.135116 kJ/mol
# Density = 2.384726 g / cm^3
# Si number density = 23.901657 Si / 1000 Ang^3
#
#
#
# Elastic Constant Matrix: (Units=GPa)
#
#
# Indices 1 2 3 4 5 6 
#
# 1 141.1938 57.7176 32.6546 0.0000 0.0000 0.0000
# 2 57.7176 135.5320 15.4064 0.0000 0.0000 0.0000
# 3 32.6546 15.4064 77.8988 0.0000 0.0000 0.0000
# 4 0.0000 0.0000 0.0000 25.9437 0.0000 0.0000
# 5 0.0000 0.0000 0.0000 0.0000 31.8486 0.0000
# 6 0.0000 0.0000 0.0000 0.0000 0.0000 29.9804
#
#
#
# Elastic Compliance Matrix: (Units=1/GPa)
#
#
# Indices 1 2 3 4 5 6 
#
# 1 0.009287 -0.003593 -0.003183 0.000000 0.000000 0.000000
# 2 -0.003593 0.008938 -0.000261 0.000000 0.000000 0.000000
# 3 -0.003183 -0.000261 0.014223 0.000000 0.000000 0.000000
# 4 0.000000 0.000000 0.000000 0.038545 0.000000 0.000000
# 5 0.000000 0.000000 0.000000 0.000000 0.031399 0.000000
# 6 0.000000 0.000000 0.000000 0.000000 0.000000 0.033355
#
#
# Mechanical properties :
#
#
# Convention : Reuss Voigt Hill
#
# Bulk Modulus (GPa) = 54.42481 62.90910 58.66696
# Shear Modulus (GPa) = 32.06224 34.14429 33.10326
#
# Velocity S-wave (km/s) = 3.66652 3.78369 3.72557
# Velocity P-wave (km/s) = 6.38312 6.74282 6.56543
#
# Compressibility (1/GPa) = 0.01837397
#
# Stress axis : x y z
#
# Youngs Moduli (GPa) = 107.67260 111.87782 70.30883
#
# Poissons Ratio (x) = 0.40202 0.22376
# Poissons Ratio (y) = 0.38691 0.01838
# Poissons Ratio (z) = 0.34267 0.02925
#
# Static dielectric constant tensor:
#      x y z
#    x 4.473670 0.000000 0.000000 
#    y 0.000000 4.118490 0.000000 
#    z 0.000000 0.000000 4.219680 
# 
# 
# High freq. dielectric constant tensor:
#      x y z
#    x 1.960920 0.000000 0.000000 
#    y 0.000000 1.935610 0.000000 
#    z 0.000000 0.000000 1.952860 
# 
# From -- ./inp_files/24878.got.cif
#   From: 2010.03.12/outbox.cif.g09.slc.cpg/sg64_13_cif.got.tgz:24878.got - 2010.04.10 20:19:32.
