data_PCOD8264702
_publ_section_title
;
Structure prediction by ZEFSAII (Michael W. Deem and Ramdas Pophale) SiO2 
 PCOD8264702
Probable space group: C M C A
;
_chemical_formula_sum "Si O2"
_cell_formula_units_Z 96
_cell_length_a 22.259230
_cell_length_b 8.367425
_cell_length_c 24.138001
_cell_angle_alpha 90.000000
_cell_angle_beta 90.000000
_cell_angle_gamma 90.000000
_cell_volume 4495.761525
_symmetry_space_group_name_H-M "C M C A"
_symmetry_group_IT_number 64
_symmetry_cell_setting 'orthorhombic'
loop_
_space_group_symop_operation_xyz
x,y,z
-x,1/2-y,1/2+z
x,-y,-z
-x,1/2+y,1/2-z
-x,-y,-z
x,1/2+y,1/2-z
-x,y,z
x,1/2-y,1/2+z
1/2+x,1/2+y,z
1/2-x,-y,1/2+z
1/2+x,1/2-y,-z
1/2-x,y,1/2-z
1/2-x,1/2-y,-z
1/2+x,y,1/2-z
1/2-x,1/2+y,z
1/2+x,-y,1/2+z
loop_
_atom_site_type_symbol
_atom_site_label
_atom_site_fract_x
_atom_site_fract_y
_atom_site_fract_z
Si Si1 0.377732 0.026910 0.178574
Si Si2 0.161726 0.446042 0.652841
Si Si3 0.293618 0.414271 0.057025
Si Si4 0.670412 0.551435 0.438853
Si Si5 0.930070 0.793859 0.773271
Si Si6 0.735320 0.654118 0.690964
O O1 0.418025 0.878462 0.200207
O O2 0.308762 0.000357 0.197800
O O3 0.379796 0.044056 0.110935
O O4 0.403151 0.183967 0.210773
O O5 0.152259 0.487481 0.588015
O O6 0.100932 0.430268 0.687910
O O7 0.200078 0.605935 0.667034
O O8 0.201286 0.286900 0.655538
O O9 0.306789 0.229818 0.051919
O O10 0.226324 0.442367 0.083799
O O11 0.285532 0.500000 0.000000
O O12 0.644873 0.500000 0.500000
O O13 0.000000 0.831118 0.772532
O O14 0.750000 0.731031 0.750000
#
# Coordination Sequence:
#
# PCOD8264702 Si02
#       6
#    16  16  16  16  16  16
#     4  11  25  40  67  95 135 171 218 279 337 404
#     4  11  23  35  62  92 134 166 212 267 333 398
#     4  11  23  37  62  97 141 176 218 268 335 416
#     4  11  24  40  64  99 142 181 219 267 342 417
#     4  11  26  45  66  92 129 179 228 274 331 394
#     4  11  21  34  55  95 130 161 204 264 341 396
#
# _framework density 21.353445000000001
#
# number of rings (size 3 to 8) (size 9 to 14) (size 15 to 20)
#    0.000    1.000    3.333    4.000   11.667    0.000 
#    0.000    0.000    0.000    2.500    0.000    0.000 
#    0.000    0.000    0.000    0.000    0.000    0.000 
#
# Total GULP energy -594702.379504 kJ/mol
# GULP energy per Si atom -12389.632906 kJ/mol
# Density = 2.130484 g / cm^3
# Si number density = 21.353445 Si / 1000 Ang^3
#
#
#
# Elastic Constant Matrix: (Units=GPa)
#
#
# Indices 1 2 3 4 5 6 
#
# 1 92.1390 20.1179 48.1116 0.0000 0.0000 0.0000
# 2 20.1179 99.8665 39.7480 0.0000 0.0000 0.0000
# 3 48.1116 39.7480 96.7429 0.0000 0.0000 0.0000
# 4 0.0000 0.0000 0.0000 30.4899 0.0000 0.0000
# 5 0.0000 0.0000 0.0000 0.0000 15.9589 0.0000
# 6 0.0000 0.0000 0.0000 0.0000 0.0000 13.5888
#
#
#
# Elastic Compliance Matrix: (Units=1/GPa)
#
#
# Indices 1 2 3 4 5 6 
#
# 1 0.014660 -0.000062 -0.007266 0.000000 0.000000 0.000000
# 2 -0.000062 0.011971 -0.004888 0.000000 0.000000 0.000000
# 3 -0.007266 -0.004888 0.015958 0.000000 0.000000 0.000000
# 4 0.000000 0.000000 0.000000 0.032798 0.000000 0.000000
# 5 0.000000 0.000000 0.000000 0.000000 0.062661 0.000000
# 6 0.000000 0.000000 0.000000 0.000000 0.000000 0.073590
#
#
# Mechanical properties :
#
#
# Convention : Reuss Voigt Hill
#
# Bulk Modulus (GPa) = 55.06664 56.07816 55.57240
# Shear Modulus (GPa) = 20.65076 24.05890 22.35483
#
# Velocity S-wave (km/s) = 3.11318 3.36027 3.23909
# Velocity P-wave (km/s) = 6.22629 6.43227 6.33012
#
# Compressibility (1/GPa) = 0.01815982
#
# Stress axis : x y z
#
# Youngs Moduli (GPa) = 68.21099 83.53367 62.66375
#
# Poissons Ratio (x) = 0.00514 0.45529
# Poissons Ratio (y) = 0.00420 0.30630
# Poissons Ratio (z) = 0.49559 0.40831
#
# Static dielectric constant tensor:
#      x y z
#    x 3.523200 0.000000 0.000000 
#    y 0.000000 3.899240 0.000000 
#    z 0.000000 0.000000 4.525330 
# 
# 
# High freq. dielectric constant tensor:
#      x y z
#    x 1.769820 0.000000 0.000000 
#    y 0.000000 1.855400 0.000000 
#    z 0.000000 0.000000 1.859790 
# 
# From -- ./inp_files/50674.got.cif
#   From: 2010.03.12/outbox.cif.g09.slc.cpg/sg64_26_cif.got.tgz:50674.got - 2010.04.10 20:19:32.
