data_PCOD8264696
_publ_section_title
;
Structure prediction by ZEFSAII (Michael W. Deem and Ramdas Pophale) SiO2 
 PCOD8264696
Probable space group: C M C A
;
_chemical_formula_sum "Si O2"
_cell_formula_units_Z 96
_cell_length_a 9.086587
_cell_length_b 29.569780
_cell_length_c 20.582196
_cell_angle_alpha 90.000000
_cell_angle_beta 90.000000
_cell_angle_gamma 90.000000
_cell_volume 5530.196870
_symmetry_space_group_name_H-M "C M C A"
_symmetry_group_IT_number 64
_symmetry_cell_setting 'orthorhombic'
loop_
_space_group_symop_operation_xyz
x,y,z
-x,1/2-y,1/2+z
x,-y,-z
-x,1/2+y,1/2-z
-x,-y,-z
x,1/2+y,1/2-z
-x,y,z
x,1/2-y,1/2+z
1/2+x,1/2+y,z
1/2-x,-y,1/2+z
1/2+x,1/2-y,-z
1/2-x,y,1/2-z
1/2-x,1/2-y,-z
1/2+x,y,1/2-z
1/2-x,1/2+y,z
1/2+x,-y,1/2+z
loop_
_atom_site_type_symbol
_atom_site_label
_atom_site_fract_x
_atom_site_fract_y
_atom_site_fract_z
Si Si1 0.328734 0.502075 0.686850
Si Si2 0.830652 0.097077 0.348168
Si Si3 0.173669 0.306742 0.812812
Si Si4 0.327769 0.110816 0.010912
Si Si5 0.671120 0.712745 0.457595
Si Si6 0.826477 0.465571 0.442643
O O1 0.500000 0.515444 0.685810
O O2 0.250000 0.523578 0.750000
O O3 0.306946 0.447978 0.693011
O O4 0.251118 0.519546 0.623000
O O5 0.764553 0.141339 0.313318
O O6 0.768161 0.090499 0.420796
O O7 0.000000 0.109655 0.359596
O O8 0.250000 0.283006 0.750000
O O9 0.221619 0.284584 0.881768
O O10 0.000000 0.302983 0.803062
O O11 0.500000 0.100957 0.998433
O O12 0.293623 0.164176 0.010423
O O13 0.232057 0.084936 0.956985
O O14 0.500000 0.722806 0.460933
O O15 0.750000 0.750000 0.500000
O O16 0.781122 0.500000 0.500000
O O17 0.000000 0.464620 0.431554
#
# Coordination Sequence:
#
# PCOD8264696 Si02
#       6
#    16  16  16  16  16  16
#     4  11  21  33  50  71 101 141 178 216 261 309
#     4   8  15  28  47  70  99 133 167 200 246 304
#     4   9  17  30  47  72 103 134 165 203 248 305
#     4   9  17  33  54  75  99 135 175 210 256 312
#     4   9  19  34  54  78 106 134 170 214 261 314
#     4  11  22  34  50  76 106 135 176 221 256 302
#
# _framework density 17.359237
#
# number of rings (size 3 to 8) (size 9 to 14) (size 15 to 20)
#    0.000    2.500    1.667    3.500    0.000    2.000 
#    0.000    3.333    0.000    1.000    0.000    2.333 
#    0.000    0.000    0.000    0.000    0.000    0.000 
#
# Total GULP energy -594855.200210 kJ/mol
# GULP energy per Si atom -12392.816671 kJ/mol
# Density = 1.731973 g / cm^3
# Si number density = 17.359237 Si / 1000 Ang^3
#
#
#
# Elastic Constant Matrix: (Units=GPa)
#
#
# Indices 1 2 3 4 5 6 
#
# 1 78.9799 44.1453 71.4280 0.0000 0.0000 0.0000
# 2 44.1453 61.4258 51.0043 0.0000 0.0000 0.0000
# 3 71.4280 51.0043 146.7656 0.0000 0.0000 0.0000
# 4 0.0000 0.0000 0.0000 19.7104 0.0000 0.0000
# 5 0.0000 0.0000 0.0000 0.0000 33.5517 0.0000
# 6 0.0000 0.0000 0.0000 0.0000 0.0000 23.0537
#
#
#
# Elastic Compliance Matrix: (Units=1/GPa)
#
#
# Indices 1 2 3 4 5 6 
#
# 1 0.028032 -0.012394 -0.009335 0.000000 0.000000 0.000000
# 2 -0.012394 0.028363 -0.003825 0.000000 0.000000 0.000000
# 3 -0.009335 -0.003825 0.012686 0.000000 0.000000 0.000000
# 4 0.000000 0.000000 0.000000 0.050735 0.000000 0.000000
# 5 0.000000 0.000000 0.000000 0.000000 0.029805 0.000000
# 6 0.000000 0.000000 0.000000 0.000000 0.000000 0.043377
#
#
# Mechanical properties :
#
#
# Convention : Reuss Voigt Hill
#
# Bulk Modulus (GPa) = 55.64102 68.92516 62.28309
# Shear Modulus (GPa) = 19.99224 23.30274 21.64749
#
# Velocity S-wave (km/s) = 3.39732 3.66783 3.53516
# Velocity P-wave (km/s) = 6.89284 7.59794 7.25396
#
# Compressibility (1/GPa) = 0.01797235
#
# Stress axis : x y z
#
# Youngs Moduli (GPa) = 35.67374 35.25690 78.82698
#
# Poissons Ratio (x) = 0.43699 0.73587
# Poissons Ratio (y) = 0.44216 0.30149
# Poissons Ratio (z) = 0.33302 0.13485
#
# Static dielectric constant tensor:
#      x y z
#    x 3.049060 0.000000 0.000000 
#    y 0.000000 3.050970 0.000000 
#    z 0.000000 0.000000 3.246740 
# 
# 
# High freq. dielectric constant tensor:
#      x y z
#    x 1.659940 0.000000 0.000000 
#    y 0.000000 1.639180 0.000000 
#    z 0.000000 0.000000 1.675540 
# 
# From -- ./inp_files/37125.got.cif
#   From: 2010.03.12/outbox.cif.g09.slc.cpg/sg64_19_cif.got.tgz:37125.got - 2010.04.10 20:19:32.
