data_PCOD8264133
_publ_section_title
;
Structure prediction by ZEFSAII (Michael W. Deem and Ramdas Pophale) SiO2 
 PCOD8264133
Probable space group: C M C A
;
_chemical_formula_sum "Si O2"
_cell_formula_units_Z 80
_cell_length_a 25.704138
_cell_length_b 9.906763
_cell_length_c 15.805205
_cell_angle_alpha 90.000000
_cell_angle_beta 90.000000
_cell_angle_gamma 90.000000
_cell_volume 4024.713318
_symmetry_space_group_name_H-M "C M C A"
_symmetry_group_IT_number 64
_symmetry_cell_setting 'orthorhombic'
loop_
_space_group_symop_operation_xyz
x,y,z
-x,1/2-y,1/2+z
x,-y,-z
-x,1/2+y,1/2-z
-x,-y,-z
x,1/2+y,1/2-z
-x,y,z
x,1/2-y,1/2+z
1/2+x,1/2+y,z
1/2-x,-y,1/2+z
1/2+x,1/2-y,-z
1/2-x,y,1/2-z
1/2-x,1/2-y,-z
1/2+x,y,1/2-z
1/2-x,1/2+y,z
1/2+x,-y,1/2+z
loop_
_atom_site_type_symbol
_atom_site_label
_atom_site_fract_x
_atom_site_fract_y
_atom_site_fract_z
Si Si1 0.059515 0.884161 0.568527
Si Si2 0.626459 0.651990 0.995481
Si Si3 0.780676 0.737952 0.086092
Si Si4 0.651742 0.450112 0.679884
Si Si5 0.177265 0.750388 0.830368
O O1 0.077066 0.742544 0.528005
O O2 0.092901 0.919273 0.651438
O O3 0.000000 0.872173 0.597370
O O4 0.068092 0.000000 0.500000
O O5 0.650946 0.705882 0.082280
O O6 0.606049 0.500000 0.000000
O O7 0.670911 0.657589 0.921423
O O8 0.807563 0.591401 0.104468
O O9 0.739927 0.768308 0.160790
O O10 0.750000 0.750000 0.000000
O O11 0.664688 0.363141 0.761994
O O12 0.655532 0.607466 0.701263
#
# Coordination Sequence:
#
# PCOD8264133 Si02
#       5
#    16  16  16  16  16
#     4  10  21  44  70  89 115 163 216 268 321 370
#     4  10  22  39  65  93 125 160 212 263 304 368
#     4   9  22  36  61  87 123 165 210 250 300 364
#     4  11  24  40  60  92 127 166 209 258 314 381
#     4  11  24  39  59  90 133 167 204 252 315 375
#
# _framework density 19.877192999999998
#
# number of rings (size 3 to 8) (size 9 to 14) (size 15 to 20)
#    0.000    1.800    2.000    0.600   11.200    2.000 
#    0.000    2.000    0.000    0.000    0.000    0.000 
#    0.000    0.000    0.000    0.000    0.000    0.000 
#
# Total GULP energy -495806.653273 kJ/mol
# GULP energy per Si atom -12395.166332 kJ/mol
# Density = 1.983195 g / cm^3
# Si number density = 19.877193 Si / 1000 Ang^3
#
#
#
# Elastic Constant Matrix: (Units=GPa)
#
#
# Indices 1 2 3 4 5 6 
#
# 1 140.3085 52.6940 50.4497 0.0000 0.0000 0.0000
# 2 52.6940 162.3696 37.2489 0.0000 0.0000 0.0000
# 3 50.4497 37.2489 86.4608 0.0000 0.0000 0.0000
# 4 0.0000 0.0000 0.0000 34.0165 0.0000 0.0000
# 5 0.0000 0.0000 0.0000 0.0000 20.5299 0.0000
# 6 0.0000 0.0000 0.0000 0.0000 0.0000 20.2801
#
#
#
# Elastic Compliance Matrix: (Units=1/GPa)
#
#
# Indices 1 2 3 4 5 6 
#
# 1 0.009586 -0.002028 -0.004720 0.000000 0.000000 0.000000
# 2 -0.002028 0.007263 -0.001946 0.000000 0.000000 0.000000
# 3 -0.004720 -0.001946 0.015158 0.000000 0.000000 0.000000
# 4 0.000000 0.000000 0.000000 0.029398 0.000000 0.000000
# 5 0.000000 0.000000 0.000000 0.000000 0.048709 0.000000
# 6 0.000000 0.000000 0.000000 0.000000 0.000000 0.049310
#
#
# Mechanical properties :
#
#
# Convention : Reuss Voigt Hill
#
# Bulk Modulus (GPa) = 68.39808 74.43601 71.41705
# Shear Modulus (GPa) = 27.52031 31.54837 29.53434
#
# Velocity S-wave (km/s) = 3.72495 3.98825 3.85884
# Velocity P-wave (km/s) = 7.27910 7.66403 7.47405
#
# Compressibility (1/GPa) = 0.01462029
#
# Stress axis : x y z
#
# Youngs Moduli (GPa) = 104.32070 137.67708 65.97162
#
# Poissons Ratio (x) = 0.27924 0.31135
# Poissons Ratio (y) = 0.21158 0.12836
# Poissons Ratio (z) = 0.49234 0.26788
#
# Static dielectric constant tensor:
#      x y z
#    x 3.722010 0.000000 0.000000 
#    y 0.000000 7.266790 0.000000 
#    z 0.000000 0.000000 3.669380 
# 
# 
# High freq. dielectric constant tensor:
#      x y z
#    x 1.766760 0.000000 0.000000 
#    y 0.000000 1.776290 0.000000 
#    z 0.000000 0.000000 1.772490 
# 
# From -- ./inp_files/35325.got.cif
#   From: 2010.03.12/outbox.cif.g09.slc.cpg/sg64_18_cif.got.tgz:35325.got - 2010.04.10 20:19:32.
