data_PCOD8264217
_publ_section_title
;
Structure prediction by ZEFSAII (Michael W. Deem and Ramdas Pophale) SiO2 
 PCOD8264217
Probable space group: C M C A
;
_chemical_formula_sum "Si O2"
_cell_formula_units_Z 88
_cell_length_a 22.523044
_cell_length_b 19.612906
_cell_length_c 9.243899
_cell_angle_alpha 90.000000
_cell_angle_beta 90.000000
_cell_angle_gamma 90.000000
_cell_volume 4083.421619
_symmetry_space_group_name_H-M "C M C A"
_symmetry_group_IT_number 64
_symmetry_cell_setting 'orthorhombic'
loop_
_space_group_symop_operation_xyz
x,y,z
-x,1/2-y,1/2+z
x,-y,-z
-x,1/2+y,1/2-z
-x,-y,-z
x,1/2+y,1/2-z
-x,y,z
x,1/2-y,1/2+z
1/2+x,1/2+y,z
1/2-x,-y,1/2+z
1/2+x,1/2-y,-z
1/2-x,y,1/2-z
1/2-x,1/2-y,-z
1/2+x,y,1/2-z
1/2-x,1/2+y,z
1/2+x,-y,1/2+z
loop_
_atom_site_type_symbol
_atom_site_label
_atom_site_fract_x
_atom_site_fract_y
_atom_site_fract_z
Si Si1 0.000000 0.657013 0.835593
Si Si2 0.000000 0.288142 0.851638
Si Si3 0.706650 0.000000 0.000000
Si Si4 0.692590 0.202892 0.667055
Si Si5 0.623641 0.339281 0.681144
Si Si6 0.871961 0.601240 0.868711
Si Si7 0.284934 0.623571 0.114693
O O1 0.942773 0.606096 0.836960
O O2 0.000000 0.708502 0.698098
O O3 0.000000 0.708346 0.972971
O O4 0.945922 0.332730 0.791095
O O5 0.752519 0.054948 0.065429
O O6 0.661073 0.972574 0.125399
O O7 0.750000 0.227748 0.750000
O O8 0.644631 0.261635 0.669884
O O9 0.662598 0.138580 0.742817
O O10 0.712477 0.180816 0.507415
O O11 0.642474 0.371802 0.529175
O O12 0.648917 0.384377 0.815594
O O13 0.250000 0.657144 0.250000
#
# Coordination Sequence:
#
# PCOD8264217 Si02
#       7
#     8   8   8  16  16  16  16
#     4  10  22  43  64 100 127 177 215 273 335 390
#     4  10  22  38  68  93 140 162 210 271 338 411
#     4  12  26  45  62  91 134 182 228 270 318 388
#     4  12  23  37  64  99 129 161 212 277 338 399
#     4  11  23  42  64  99 131 170 210 273 341 395
#     4  11  24  41  65  93 131 174 224 267 326 393
#     4  12  26  42  66  94 133 178 217 271 329 392
#
# _framework density 21.550554000000002
#
# number of rings (size 3 to 8) (size 9 to 14) (size 15 to 20)
#    0.000    0.727    5.455    1.636    5.091    2.545 
#    0.000    0.000    0.000    0.545    0.000    0.000 
#    0.000    0.000    0.000    0.000    0.000    0.000 
#
# Total GULP energy -545162.516467 kJ/mol
# GULP energy per Si atom -12390.057192 kJ/mol
# Density = 2.150150 g / cm^3
# Si number density = 21.550554 Si / 1000 Ang^3
#
#
#
# Elastic Constant Matrix: (Units=GPa)
#
#
# Indices 1 2 3 4 5 6 
#
# 1 141.8121 50.2236 44.6823 0.0000 0.0000 0.0000
# 2 50.2236 75.8263 23.2496 0.0000 0.0000 0.0000
# 3 44.6823 23.2496 97.8396 0.0000 0.0000 0.0000
# 4 0.0000 0.0000 0.0000 20.5572 0.0000 0.0000
# 5 0.0000 0.0000 0.0000 0.0000 30.4284 0.0000
# 6 0.0000 0.0000 0.0000 0.0000 0.0000 23.6612
#
#
#
# Elastic Compliance Matrix: (Units=1/GPa)
#
#
# Indices 1 2 3 4 5 6 
#
# 1 0.010091 -0.005685 -0.003258 0.000000 0.000000 0.000000
# 2 -0.005685 0.017427 -0.001545 0.000000 0.000000 0.000000
# 3 -0.003258 -0.001545 0.012076 0.000000 0.000000 0.000000
# 4 0.000000 0.000000 0.000000 0.048645 0.000000 0.000000
# 5 0.000000 0.000000 0.000000 0.000000 0.032864 0.000000
# 6 0.000000 0.000000 0.000000 0.000000 0.000000 0.042263
#
#
# Mechanical properties :
#
#
# Convention : Reuss Voigt Hill
#
# Bulk Modulus (GPa) = 53.70885 61.30988 57.50936
# Shear Modulus (GPa) = 26.24005 28.08420 27.16212
#
# Velocity S-wave (km/s) = 3.49320 3.61387 3.55405
# Velocity P-wave (km/s) = 6.42233 6.77676 6.60193
#
# Compressibility (1/GPa) = 0.01861891
#
# Stress axis : x y z
#
# Youngs Moduli (GPa) = 99.09345 57.38110 82.81120
#
# Poissons Ratio (x) = 0.32623 0.26977
# Poissons Ratio (y) = 0.56337 0.12793
# Poissons Ratio (z) = 0.32282 0.08865
#
# Static dielectric constant tensor:
#      x y z
#    x 5.771150 0.000000 0.000000 
#    y 0.000000 3.762180 0.000000 
#    z 0.000000 0.000000 4.155030 
# 
# 
# High freq. dielectric constant tensor:
#      x y z
#    x 1.864750 0.000000 0.000000 
#    y 0.000000 1.828860 0.000000 
#    z 0.000000 0.000000 1.845740 
# 
# From -- ./inp_files/9382.got.cif
#   From: 2010.03.12/outbox.cif.g09.slc.cpg/sg64_5_cif.got.tgz:9382.got - 2010.04.10 20:19:32.
