data_PCOD8264827
_publ_section_title
;
Structure prediction by ZEFSAII (Michael W. Deem and Ramdas Pophale) SiO2 
 PCOD8264827
Probable space group: C M C A
;
_chemical_formula_sum "Si O2"
_cell_formula_units_Z 96
_cell_length_a 16.501747
_cell_length_b 20.378001
_cell_length_c 13.753778
_cell_angle_alpha 90.000000
_cell_angle_beta 90.000000
_cell_angle_gamma 90.000000
_cell_volume 4625.018920
_symmetry_space_group_name_H-M "C M C A"
_symmetry_group_IT_number 64
_symmetry_cell_setting 'orthorhombic'
loop_
_space_group_symop_operation_xyz
x,y,z
-x,1/2-y,1/2+z
x,-y,-z
-x,1/2+y,1/2-z
-x,-y,-z
x,1/2+y,1/2-z
-x,y,z
x,1/2-y,1/2+z
1/2+x,1/2+y,z
1/2-x,-y,1/2+z
1/2+x,1/2-y,-z
1/2-x,y,1/2-z
1/2-x,1/2-y,-z
1/2+x,y,1/2-z
1/2-x,1/2+y,z
1/2+x,-y,1/2+z
loop_
_atom_site_type_symbol
_atom_site_label
_atom_site_fract_x
_atom_site_fract_y
_atom_site_fract_z
Si Si1 0.365594 0.138265 0.618138
Si Si2 0.407853 0.503098 0.146446
Si Si3 0.707528 0.874973 0.646724
Si Si4 0.409137 0.223801 0.447989
Si Si5 0.194613 0.853301 0.461566
Si Si6 0.410429 0.587227 0.686444
O O1 0.419407 0.184420 0.549476
O O2 0.273870 0.162349 0.602107
O O3 0.388320 0.143922 0.732551
O O4 0.381026 0.061827 0.584697
O O5 0.500000 0.523830 0.117821
O O6 0.343989 0.559778 0.130124
O O7 0.404861 0.483581 0.261230
O O8 0.750000 0.869653 0.750000
O O9 0.645737 0.814853 0.630351
O O10 0.780237 0.875358 0.568943
O O11 0.500000 0.235114 0.406591
O O12 0.365531 0.292283 0.468102
O O13 0.148879 0.912081 0.405561
O O14 0.500000 0.601382 0.647602
#
# Coordination Sequence:
#
# PCOD8264827 Si02
#       6
#    16  16  16  16  16  16
#     4   9  19  37  64  92 122 158 212 266 314 371
#     4   9  20  40  65  92 122 161 214 264 317 378
#     4  11  25  42  62  94 132 170 213 263 322 374
#     4  11  23  42  64  92 128 168 215 265 317 378
#     4  11  23  38  61  95 127 162 213 261 315 379
#     4   9  19  38  63  92 123 162 209 258 312 378
#
# _framework density 20.756672999999999
#
# number of rings (size 3 to 8) (size 9 to 14) (size 15 to 20)
#    1.000    1.000    0.000    4.500    2.333    5.333 
#    0.000    9.167    0.000    2.000    0.000    0.000 
#    0.000    0.000    0.000    0.000    0.000    0.000 
#
# Total GULP energy -594740.346870 kJ/mol
# GULP energy per Si atom -12390.423893 kJ/mol
# Density = 2.070943 g / cm^3
# Si number density = 20.756673 Si / 1000 Ang^3
#
#
#
# Elastic Constant Matrix: (Units=GPa)
#
#
# Indices 1 2 3 4 5 6 
#
# 1 132.8200 33.7079 56.6569 0.0000 0.0000 0.0000
# 2 33.7079 81.0747 21.2004 0.0000 0.0000 0.0000
# 3 56.6569 21.2004 92.7109 0.0000 0.0000 0.0000
# 4 0.0000 0.0000 0.0000 20.0687 0.0000 0.0000
# 5 0.0000 0.0000 0.0000 0.0000 23.6761 0.0000
# 6 0.0000 0.0000 0.0000 0.0000 0.0000 32.8311
#
#
#
# Elastic Compliance Matrix: (Units=1/GPa)
#
#
# Indices 1 2 3 4 5 6 
#
# 1 0.010805 -0.002942 -0.005931 0.000000 0.000000 0.000000
# 2 -0.002942 0.013920 -0.001385 0.000000 0.000000 0.000000
# 3 -0.005931 -0.001385 0.014727 0.000000 0.000000 0.000000
# 4 0.000000 0.000000 0.000000 0.049829 0.000000 0.000000
# 5 0.000000 0.000000 0.000000 0.000000 0.042237 0.000000
# 6 0.000000 0.000000 0.000000 0.000000 0.000000 0.030459
#
#
# Mechanical properties :
#
#
# Convention : Reuss Voigt Hill
#
# Bulk Modulus (GPa) = 52.80666 58.85955 55.83311
# Shear Modulus (GPa) = 26.48245 28.31788 27.40016
#
# Velocity S-wave (km/s) = 3.57578 3.69762 3.63721
# Velocity P-wave (km/s) = 6.52260 6.82996 6.67805
#
# Compressibility (1/GPa) = 0.01893700
#
# Stress axis : x y z
#
# Youngs Moduli (GPa) = 92.54659 71.84125 67.90109
#
# Poissons Ratio (x) = 0.21133 0.40270
# Poissons Ratio (y) = 0.27224 0.09407
# Poissons Ratio (z) = 0.54886 0.09952
#
# Static dielectric constant tensor:
#      x y z
#    x 3.830520 0.000000 0.000000 
#    y 0.000000 3.574480 0.000000 
#    z 0.000000 0.000000 3.624960 
# 
# 
# High freq. dielectric constant tensor:
#      x y z
#    x 1.828940 0.000000 0.000000 
#    y 0.000000 1.791500 0.000000 
#    z 0.000000 0.000000 1.797830 
# 
# From -- ./inp_files/16214.got.cif
#   From: 2010.03.12/outbox.cif.g09.slc.cpg/sg64_9_cif.got.tgz:16214.got - 2010.04.10 20:19:32.
