data_PCOD8264312
_publ_section_title
;
Structure prediction by ZEFSAII (Michael W. Deem and Ramdas Pophale) SiO2 
 PCOD8264312
Probable space group: C M C A
;
_chemical_formula_sum "Si O2"
_cell_formula_units_Z 112
_cell_length_a 14.438403
_cell_length_b 26.277540
_cell_length_c 13.811073
_cell_angle_alpha 90.000000
_cell_angle_beta 90.000000
_cell_angle_gamma 90.000000
_cell_volume 5239.999990
_symmetry_space_group_name_H-M "C M C A"
_symmetry_group_IT_number 64
_symmetry_cell_setting 'orthorhombic'
loop_
_space_group_symop_operation_xyz
x,y,z
-x,1/2-y,1/2+z
x,-y,-z
-x,1/2+y,1/2-z
-x,-y,-z
x,1/2+y,1/2-z
-x,y,z
x,1/2-y,1/2+z
1/2+x,1/2+y,z
1/2-x,-y,1/2+z
1/2+x,1/2-y,-z
1/2-x,y,1/2-z
1/2-x,1/2-y,-z
1/2+x,y,1/2-z
1/2-x,1/2+y,z
1/2+x,-y,1/2+z
loop_
_atom_site_type_symbol
_atom_site_label
_atom_site_fract_x
_atom_site_fract_y
_atom_site_fract_z
Si Si1 0.777338 0.088074 0.038893
Si Si2 0.102684 0.971832 0.831330
Si Si3 0.341305 0.309744 0.183247
Si Si4 0.607076 0.682738 0.025333
Si Si5 0.602778 0.106374 0.165108
Si Si6 0.141579 0.789641 0.768901
Si Si7 0.329452 0.578823 0.824378
O O1 0.817211 0.037358 0.089412
O O2 0.855134 0.129487 0.066609
O O3 0.677049 0.105810 0.078335
O O4 0.772986 0.080671 0.924905
O O5 0.129152 0.940305 0.735353
O O6 0.000000 0.955566 0.867011
O O7 0.098677 0.032660 0.814591
O O8 0.250000 0.309404 0.250000
O O9 0.401760 0.261673 0.219914
O O10 0.383344 0.367094 0.193180
O O11 0.329956 0.300071 0.066835
O O12 0.500000 0.678666 0.992497
O O13 0.618227 0.719325 0.117837
O O14 0.500000 0.097740 0.121051
O O15 0.598452 0.159645 0.223179
O O16 0.250000 0.792557 0.750000
O O17 0.250000 0.567813 0.750000
#
# Coordination Sequence:
#
# PCOD8264312 Si02
#       7
#    16  16  16  16  16  16  16
#     4  11  21  39  64  94 126 164 211 266 324 378
#     4  11  22  37  64  97 127 162 208 264 324 382
#     4   9  23  41  63  89 128 177 216 262 323 387
#     4  11  22  38  63  97 131 165 216 270 320 378
#     4  11  22  39  65  99 130 163 214 275 330 381
#     4  11  20  39  66  93 131 173 218 272 328 379
#     4  10  22  41  59  87 125 170 213 254 312 387
#
# _framework density 21.374046
#
# number of rings (size 3 to 8) (size 9 to 14) (size 15 to 20)
#    0.000    1.429    2.857    2.571    0.000    6.857 
#    2.571    0.714    0.000   10.286    0.000    0.000 
#    0.000    0.000    0.000    0.000    0.000    0.000 
#
# Total GULP energy -693749.595862 kJ/mol
# GULP energy per Si atom -12388.385640 kJ/mol
# Density = 2.132540 g / cm^3
# Si number density = 21.374046 Si / 1000 Ang^3
#
#
#
# Elastic Constant Matrix: (Units=GPa)
#
#
# Indices 1 2 3 4 5 6 
#
# 1 107.3047 18.9643 52.5083 0.0000 0.0000 0.0000
# 2 18.9643 158.7642 53.2815 0.0000 0.0000 0.0000
# 3 52.5083 53.2815 120.3748 0.0000 0.0000 0.0000
# 4 0.0000 0.0000 0.0000 26.8548 0.0000 0.0000
# 5 0.0000 0.0000 0.0000 0.0000 18.9076 0.0000
# 6 0.0000 0.0000 0.0000 0.0000 0.0000 -128.5367
#
#
#
# Elastic Compliance Matrix: (Units=1/GPa)
#
#
# Indices 1 2 3 4 5 6 
#
# 1 0.011867 0.000376 -0.005343 0.000000 0.000000 0.000000
# 2 0.000376 0.007409 -0.003443 0.000000 0.000000 0.000000
# 3 -0.005343 -0.003443 0.012162 0.000000 0.000000 0.000000
# 4 0.000000 0.000000 0.000000 0.037237 0.000000 0.000000
# 5 0.000000 0.000000 0.000000 0.000000 0.052889 0.000000
# 6 0.000000 0.000000 0.000000 0.000000 0.000000 -0.007780
#
#
# Mechanical properties :
#
#
# Convention : Reuss Voigt Hill
#
# Bulk Modulus (GPa) = 68.41163 70.66131 69.53647
# Shear Modulus (GPa) = 36.90609 0.89113 18.89861
#
# Velocity S-wave (km/s) = 4.15984 0.64639 2.97675
# Velocity P-wave (km/s) = 7.42622 5.80416 6.66472
#
# Compressibility (1/GPa) = 0.01461740
#
# Stress axis : x y z
#
# Youngs Moduli (GPa) = 84.26487 134.96342 82.22243
#
# Poissons Ratio (x) = -0.05068 0.43930
# Poissons Ratio (y) = -0.03164 0.28313
# Poissons Ratio (z) = 0.45021 0.46474
#
# Static dielectric constant tensor:
#      x y z
#    x 3.673390 0.000000 0.000000 
#    y 0.000000 4.524400 0.000000 
#    z 0.000000 0.000000 3.880210 
# 
# 
# High freq. dielectric constant tensor:
#      x y z
#    x 1.817870 0.000000 0.000000 
#    y 0.000000 1.851360 0.000000 
#    z 0.000000 0.000000 1.834940 
# 
# From -- ./inp_files/24392.got.cif
#   From: 2010.03.12/outbox.cif.g09.slc.cpg/sg64_13_cif.got.tgz:24392.got - 2010.04.10 20:19:32.
