data_PCOD8264167
_publ_section_title
;
Structure prediction by ZEFSAII (Michael W. Deem and Ramdas Pophale) SiO2 
 PCOD8264167
Probable space group: C M C A
;
_chemical_formula_sum "Si O2"
_cell_formula_units_Z 80
_cell_length_a 14.799505
_cell_length_b 25.114844
_cell_length_c 11.215651
_cell_angle_alpha 90.000000
_cell_angle_beta 90.000000
_cell_angle_gamma 90.000000
_cell_volume 4168.714582
_symmetry_space_group_name_H-M "C M C A"
_symmetry_group_IT_number 64
_symmetry_cell_setting 'orthorhombic'
loop_
_space_group_symop_operation_xyz
x,y,z
-x,1/2-y,1/2+z
x,-y,-z
-x,1/2+y,1/2-z
-x,-y,-z
x,1/2+y,1/2-z
-x,y,z
x,1/2-y,1/2+z
1/2+x,1/2+y,z
1/2-x,-y,1/2+z
1/2+x,1/2-y,-z
1/2-x,y,1/2-z
1/2-x,1/2-y,-z
1/2+x,y,1/2-z
1/2-x,1/2+y,z
1/2+x,-y,1/2+z
loop_
_atom_site_type_symbol
_atom_site_label
_atom_site_fract_x
_atom_site_fract_y
_atom_site_fract_z
Si Si1 0.602585 0.282954 0.994136
Si Si2 0.104971 0.060838 0.017066
Si Si3 0.146352 0.141474 0.217156
Si Si4 0.901195 0.659228 0.021125
Si Si5 0.772440 0.138154 0.886156
O O1 0.500000 0.295490 0.036525
O O2 0.617587 0.308488 0.863923
O O3 0.619992 0.220505 0.992655
O O4 0.676612 0.306869 0.083994
O O5 0.127641 0.085760 0.147522
O O6 0.000000 0.068627 0.990678
O O7 0.159584 0.090727 0.914731
O O8 0.134093 0.000000 0.000000
O O9 0.250000 0.146260 0.250000
O O10 0.091057 0.145287 0.339160
O O11 0.819635 0.627316 0.960286
O O12 0.000000 0.644247 0.966917
O O13 0.750000 0.138055 0.750000
#
# Coordination Sequence:
#
# PCOD8264167 Si02
#       5
#    16  16  16  16  16
#     4  10  22  37  56  84 121 164 204 235 281 348
#     4  10  22  43  68  88 110 149 198 247 305 364
#     4  11  20  37  64  87 121 156 199 252 294 349
#     4  11  23  36  57  89 123 162 199 242 292 344
#     4  11  23  38  58  85 121 155 192 246 296 352
#
# _framework density 19.190567999999999
#
# number of rings (size 3 to 8) (size 9 to 14) (size 15 to 20)
#    0.000    1.400    4.000    4.200    2.800    2.400 
#    0.000    0.000    0.000    0.600    0.000    0.000 
#    0.000    0.000    0.000    0.000    0.000    0.000 
#
# Total GULP energy -495856.100068 kJ/mol
# GULP energy per Si atom -12396.402502 kJ/mol
# Density = 1.914689 g / cm^3
# Si number density = 19.190568 Si / 1000 Ang^3
#
#
#
# Elastic Constant Matrix: (Units=GPa)
#
#
# Indices 1 2 3 4 5 6 
#
# 1 122.2054 12.7129 28.4743 0.0000 0.0000 0.0000
# 2 12.7129 50.8567 18.0630 0.0000 0.0000 0.0000
# 3 28.4743 18.0630 128.8188 0.0000 0.0000 0.0000
# 4 0.0000 0.0000 0.0000 13.9100 0.0000 0.0000
# 5 0.0000 0.0000 0.0000 0.0000 22.0672 0.0000
# 6 0.0000 0.0000 0.0000 0.0000 0.0000 26.7250
#
#
#
# Elastic Compliance Matrix: (Units=1/GPa)
#
#
# Indices 1 2 3 4 5 6 
#
# 1 0.008746 -0.001578 -0.001712 0.000000 0.000000 0.000000
# 2 -0.001578 0.020978 -0.002593 0.000000 0.000000 0.000000
# 3 -0.001712 -0.002593 0.008505 0.000000 0.000000 0.000000
# 4 0.000000 0.000000 0.000000 0.071891 0.000000 0.000000
# 5 0.000000 0.000000 0.000000 0.000000 0.045316 0.000000
# 6 0.000000 0.000000 0.000000 0.000000 0.000000 0.037418
#
#
# Mechanical properties :
#
#
# Convention : Reuss Voigt Hill
#
# Bulk Modulus (GPa) = 37.78798 46.70905 42.24852
# Shear Modulus (GPa) = 23.42565 28.71583 26.07074
#
# Velocity S-wave (km/s) = 3.49762 3.87247 3.68981
# Velocity P-wave (km/s) = 6.00373 6.66236 6.34160
#
# Compressibility (1/GPa) = 0.02646344
#
# Stress axis : x y z
#
# Youngs Moduli (GPa) = 114.33779 47.66789 117.58055
#
# Poissons Ratio (x) = 0.07523 0.20129
# Poissons Ratio (y) = 0.18045 0.30486
# Poissons Ratio (z) = 0.19574 0.12359
#
# Static dielectric constant tensor:
#      x y z
#    x 3.920700 0.000000 0.000000 
#    y 0.000000 3.795130 0.000000 
#    z 0.000000 0.000000 3.551310 
# 
# 
# High freq. dielectric constant tensor:
#      x y z
#    x 1.779440 0.000000 0.000000 
#    y 0.000000 1.721270 0.000000 
#    z 0.000000 0.000000 1.736750 
# 
# From -- ./inp_files/14476.got.cif
#   From: 2010.03.12/outbox.cif.g09.slc.cpg/sg64_8_cif.got.tgz:14476.got - 2010.04.10 20:19:32.
