data_PCOD8264906
_publ_section_title
;
Structure prediction by ZEFSAII (Michael W. Deem and Ramdas Pophale) SiO2 
 PCOD8264906
Probable space group: C M C A
;
_chemical_formula_sum "Si O2"
_cell_formula_units_Z 64
_cell_length_a 21.509590
_cell_length_b 16.196056
_cell_length_c 7.654766
_cell_angle_alpha 90.000000
_cell_angle_beta 90.000000
_cell_angle_gamma 90.000000
_cell_volume 2666.694844
_symmetry_space_group_name_H-M "C M C A"
_symmetry_group_IT_number 64
_symmetry_cell_setting 'orthorhombic'
loop_
_space_group_symop_operation_xyz
x,y,z
-x,1/2-y,1/2+z
x,-y,-z
-x,1/2+y,1/2-z
-x,-y,-z
x,1/2+y,1/2-z
-x,y,z
x,1/2-y,1/2+z
1/2+x,1/2+y,z
1/2-x,-y,1/2+z
1/2+x,1/2-y,-z
1/2-x,y,1/2-z
1/2-x,1/2-y,-z
1/2+x,y,1/2-z
1/2-x,1/2+y,z
1/2+x,-y,1/2+z
loop_
_atom_site_type_symbol
_atom_site_label
_atom_site_fract_x
_atom_site_fract_y
_atom_site_fract_z
Si Si1 0.869078 0.802355 0.413723
Si Si2 0.750000 0.626329 0.750000
Si Si3 0.500000 0.121185 0.856661
Si Si4 0.373052 0.873387 0.700062
Si Si5 0.000000 0.055767 0.254732
Si Si6 0.204300 0.000000 0.000000
O O1 0.813330 0.822769 0.278571
O O2 0.863310 0.703273 0.432076
O O3 0.860024 0.845888 0.600331
O O4 0.936813 0.825060 0.330307
O O5 0.753346 0.570769 0.578781
O O6 0.500000 0.043485 0.723866
O O7 0.500000 0.079677 0.043882
O O8 0.442110 0.902793 0.662662
O O9 0.333301 0.954487 0.654688
#
# Coordination Sequence:
#
# PCOD8264906 Si02
#       6
#    16   8   8  16   8   8
#     4  11  24  43  68  96 135 177 221 271 331 396
#     4  12  26  44  68  98 132 176 222 276 332 394
#     4   9  19  40  66  95 130 172 215 265 323 385
#     4  11  24  43  67  99 134 175 221 274 332 396
#     4   9  19  37  66  98 130 168 215 267 323 384
#     4  12  26  43  66  95 130 170 222 278 334 394
#
# _framework density 23.999745000000001
#
# number of rings (size 3 to 8) (size 9 to 14) (size 15 to 20)
#    0.000    1.250    0.000    5.250    0.000    9.500 
#    0.000    3.750    0.000    0.000    0.000    0.000 
#    0.000    0.000    0.000    0.000    0.000    0.000 
#
# Total GULP energy -396634.197016 kJ/mol
# GULP energy per Si atom -12394.818657 kJ/mol
# Density = 2.394512 g / cm^3
# Si number density = 23.999745 Si / 1000 Ang^3
#
#
#
# Elastic Constant Matrix: (Units=GPa)
#
#
# Indices 1 2 3 4 5 6 
#
# 1 145.8195 38.7862 26.3588 0.0000 0.0000 0.0000
# 2 38.7862 134.4097 21.5060 0.0000 0.0000 0.0000
# 3 26.3588 21.5060 63.9851 0.0000 0.0000 0.0000
# 4 0.0000 0.0000 0.0000 46.5205 0.0000 0.0000
# 5 0.0000 0.0000 0.0000 0.0000 28.3903 0.0000
# 6 0.0000 0.0000 0.0000 0.0000 0.0000 17.8418
#
#
#
# Elastic Compliance Matrix: (Units=1/GPa)
#
#
# Indices 1 2 3 4 5 6 
#
# 1 0.007817 -0.001840 -0.002602 0.000000 0.000000 0.000000
# 2 -0.001840 0.008296 -0.002030 0.000000 0.000000 0.000000
# 3 -0.002602 -0.002030 0.017383 0.000000 0.000000 0.000000
# 4 0.000000 0.000000 0.000000 0.021496 0.000000 0.000000
# 5 0.000000 0.000000 0.000000 0.000000 0.035223 0.000000
# 6 0.000000 0.000000 0.000000 0.000000 0.000000 0.056048
#
#
# Mechanical properties :
#
#
# Convention : Reuss Voigt Hill
#
# Bulk Modulus (GPa) = 48.65721 57.50183 53.07952
# Shear Modulus (GPa) = 30.10989 35.72140 32.91565
#
# Velocity S-wave (km/s) = 3.54586 3.86217 3.70739
# Velocity P-wave (km/s) = 6.08952 6.62570 6.36326
#
# Compressibility (1/GPa) = 0.02055194
#
# Stress axis : x y z
#
# Youngs Moduli (GPa) = 127.91893 120.54527 57.52727
#
# Poissons Ratio (x) = 0.22174 0.14969
# Poissons Ratio (y) = 0.23531 0.11681
# Poissons Ratio (z) = 0.33286 0.24476
#
# Static dielectric constant tensor:
#      x y z
#    x 4.687410 0.000000 0.000000 
#    y 0.000000 4.450530 0.000000 
#    z 0.000000 0.000000 4.086480 
# 
# 
# High freq. dielectric constant tensor:
#      x y z
#    x 1.958800 0.000000 0.000000 
#    y 0.000000 1.965780 0.000000 
#    z 0.000000 0.000000 1.941410 
# 
# From -- ./inp_files/9030.got.cif
#   From: 2010.03.12/outbox.cif.g09.slc.cpg/sg64_5_cif.got.tgz:9030.got - 2010.04.10 20:19:32.
