data_PCOD8264815
_publ_section_title
;
Structure prediction by ZEFSAII (Michael W. Deem and Ramdas Pophale) SiO2 
 PCOD8264815
Probable space group: C M C A
;
_chemical_formula_sum "Si O2"
_cell_formula_units_Z 80
_cell_length_a 12.653513
_cell_length_b 13.549161
_cell_length_c 22.485170
_cell_angle_alpha 90.000000
_cell_angle_beta 90.000000
_cell_angle_gamma 90.000000
_cell_volume 3854.958387
_symmetry_space_group_name_H-M "C M C A"
_symmetry_group_IT_number 64
_symmetry_cell_setting 'orthorhombic'
loop_
_space_group_symop_operation_xyz
x,y,z
-x,1/2-y,1/2+z
x,-y,-z
-x,1/2+y,1/2-z
-x,-y,-z
x,1/2+y,1/2-z
-x,y,z
x,1/2-y,1/2+z
1/2+x,1/2+y,z
1/2-x,-y,1/2+z
1/2+x,1/2-y,-z
1/2-x,y,1/2-z
1/2-x,1/2-y,-z
1/2+x,y,1/2-z
1/2-x,1/2+y,z
1/2+x,-y,1/2+z
loop_
_atom_site_type_symbol
_atom_site_label
_atom_site_fract_x
_atom_site_fract_y
_atom_site_fract_z
Si Si1 0.326484 0.500000 0.500000
Si Si2 0.829211 0.897705 0.698920
Si Si3 0.500000 0.085768 0.579668
Si Si4 0.500000 0.937122 0.210131
Si Si5 0.000000 0.691373 0.453193
Si Si6 0.179413 0.574552 0.411390
Si Si7 0.500000 0.230223 0.687679
Si Si8 0.000000 0.595591 0.925898
O O1 0.250059 0.581674 0.471172
O O2 0.395496 0.462308 0.444819
O O3 0.750000 0.868147 0.750000
O O4 0.758538 0.924690 0.642978
O O5 0.898158 0.800139 0.688676
O O6 0.897791 0.993222 0.717606
O O7 0.500000 0.125127 0.512196
O O8 0.500000 0.176496 0.624613
O O9 0.606096 0.023111 0.590610
O O10 0.500000 0.849651 0.258604
O O11 0.500000 0.887595 0.144671
O O12 0.896970 0.669043 0.412943
O O13 0.000000 0.806420 0.465907
#
# Coordination Sequence:
#
# PCOD8264815 Si02
#       8
#     8  16   8   8   8  16   8   8
#     4  11  22  43  66  98 128 175 210 263 332 396
#     4  11  26  45  69  93 125 176 221 271 324 389
#     4  11  23  43  65  98 134 177 209 274 328 384
#     4  11  24  49  64  94 134 174 214 274 334 384
#     4  11  25  39  65 101 136 166 220 267 323 392
#     4  11  22  44  67  93 134 173 217 260 328 392
#     4  11  28  43  68  98 130 163 229 273 320 393
#     4  11  26  38  68  98 136 168 213 279 327 388
#
# _framework density 20.752493000000001
#
# number of rings (size 3 to 8) (size 9 to 14) (size 15 to 20)
#    0.000    1.000    4.000    1.800    5.600    6.400 
#    0.000    0.000    0.000    0.000    0.000    0.000 
#    0.000    0.000    0.000    0.000    0.000    0.000 
#
# Total GULP energy -495870.299970 kJ/mol
# GULP energy per Si atom -12396.757499 kJ/mol
# Density = 2.070526 g / cm^3
# Si number density = 20.752493 Si / 1000 Ang^3
#
#
#
# Elastic Constant Matrix: (Units=GPa)
#
#
# Indices 1 2 3 4 5 6 
#
# 1 146.2182 47.8963 41.2013 0.0000 0.0000 0.0000
# 2 47.8963 110.5893 23.2529 0.0000 0.0000 0.0000
# 3 41.2013 23.2529 69.3181 0.0000 0.0000 0.0000
# 4 0.0000 0.0000 0.0000 33.2473 0.0000 0.0000
# 5 0.0000 0.0000 0.0000 0.0000 31.8678 0.0000
# 6 0.0000 0.0000 0.0000 0.0000 0.0000 -125.0214
#
#
#
# Elastic Compliance Matrix: (Units=1/GPa)
#
#
# Indices 1 2 3 4 5 6 
#
# 1 0.009055 -0.003002 -0.004375 0.000000 0.000000 0.000000
# 2 -0.003002 0.010724 -0.001813 0.000000 0.000000 0.000000
# 3 -0.004375 -0.001813 0.017635 0.000000 0.000000 0.000000
# 4 0.000000 0.000000 0.000000 0.030078 0.000000 0.000000
# 5 0.000000 0.000000 0.000000 0.000000 0.031380 0.000000
# 6 0.000000 0.000000 0.000000 0.000000 0.000000 -0.007999
#
#
# Mechanical properties :
#
#
# Convention : Reuss Voigt Hill
#
# Bulk Modulus (GPa) = 52.53855 61.20295 56.87075
# Shear Modulus (GPa) = 43.25343 2.27041 22.76192
#
# Velocity S-wave (km/s) = 4.57031 1.04710 3.31543
# Velocity P-wave (km/s) = 7.29535 5.56936 6.48999
#
# Compressibility (1/GPa) = 0.01903364
#
# Stress axis : x y z
#
# Youngs Moduli (GPa) = 110.43276 93.25050 56.70532
#
# Poissons Ratio (x) = 0.27993 0.24810
# Poissons Ratio (y) = 0.33151 0.10281
# Poissons Ratio (z) = 0.48318 0.16907
#
# Static dielectric constant tensor:
#      x y z
#    x 4.119110 0.000000 0.000000 
#    y 0.000000 3.640440 0.000000 
#    z 0.000000 0.000000 2.605190 
# 
# 
# High freq. dielectric constant tensor:
#      x y z
#    x 1.839220 0.000000 0.000000 
#    y 0.000000 1.801890 0.000000 
#    z 0.000000 0.000000 1.820570 
# 
# From -- ./inp_files/44032.got.cif
#   From: 2010.03.12/outbox.cif.g09.slc.cpg/sg64_23_cif.got.tgz:44032.got - 2010.04.10 20:19:32.
