data_PCOD8264251
_publ_section_title
;
Structure prediction by ZEFSAII (Michael W. Deem and Ramdas Pophale) SiO2 
 PCOD8264251
Probable space group: C M C A
;
_chemical_formula_sum "Si O2"
_cell_formula_units_Z 120
_cell_length_a 19.769698
_cell_length_b 16.750400
_cell_length_c 17.732820
_cell_angle_alpha 90.000000
_cell_angle_beta 90.000000
_cell_angle_gamma 90.000000
_cell_volume 5872.229538
_symmetry_space_group_name_H-M "C M C A"
_symmetry_group_IT_number 64
_symmetry_cell_setting 'orthorhombic'
loop_
_space_group_symop_operation_xyz
x,y,z
-x,1/2-y,1/2+z
x,-y,-z
-x,1/2+y,1/2-z
-x,-y,-z
x,1/2+y,1/2-z
-x,y,z
x,1/2-y,1/2+z
1/2+x,1/2+y,z
1/2-x,-y,1/2+z
1/2+x,1/2-y,-z
1/2-x,y,1/2-z
1/2-x,1/2-y,-z
1/2+x,y,1/2-z
1/2-x,1/2+y,z
1/2+x,-y,1/2+z
loop_
_atom_site_type_symbol
_atom_site_label
_atom_site_fract_x
_atom_site_fract_y
_atom_site_fract_z
Si Si1 0.574662 0.063958 0.849908
Si Si2 0.421919 0.909577 0.498417
Si Si3 0.425440 0.732742 0.709396
Si Si4 0.422812 0.276426 0.117599
Si Si5 0.684398 0.360882 0.602027
Si Si6 0.861141 0.500000 0.000000
Si Si7 0.335744 0.147086 0.370312
Si Si8 0.324752 0.970212 0.756225
O O1 0.500000 0.030235 0.832092
O O2 0.575665 0.159068 0.848232
O O3 0.622999 0.036921 0.781874
O O4 0.593711 0.035018 0.933013
O O5 0.500000 0.912469 0.521687
O O6 0.409994 0.863177 0.419990
O O7 0.383394 0.855371 0.558078
O O8 0.392526 0.000000 0.500000
O O9 0.500000 0.774137 0.703717
O O10 0.412200 0.705693 0.794769
O O11 0.363931 0.788568 0.687618
O O12 0.500000 0.247199 0.100203
O O13 0.370564 0.208930 0.087151
O O14 0.682937 0.427908 0.535604
O O15 0.760591 0.326899 0.603861
O O16 0.669727 0.398563 0.683504
O O17 0.339917 0.062423 0.327259
O O18 0.250000 0.008171 0.750000
#
# Coordination Sequence:
#
# PCOD8264251 Si02
#       8
#    16  16  16  16  16   8  16  16
#     4  10  22  39  63  92 124 166 214 262 316 380
#     4  10  24  42  62  92 127 168 210 256 316 376
#     4  10  22  40  62  92 123 160 210 263 314 371
#     4  10  22  42  63  88 127 166 208 264 315 376
#     4  10  22  41  64  90 125 164 210 252 321 382
#     4  10  23  42  60  92 131 166 206 264 317 376
#     4  11  22  40  66  91 126 163 208 264 314 381
#     4   9  20  40  59  89 123 162 204 261 314 372
#
# _framework density 20.435167
#
# number of rings (size 3 to 8) (size 9 to 14) (size 15 to 20)
#    0.000    2.000    1.333    0.600    4.667    4.267 
#    2.400    0.000    0.000    0.000    0.000    0.000 
#    0.000    0.000    0.000    0.000    0.000    0.000 
#
# Total GULP energy -743805.121887 kJ/mol
# GULP energy per Si atom -12396.752031 kJ/mol
# Density = 2.038866 g / cm^3
# Si number density = 20.435167 Si / 1000 Ang^3
#
#
#
# Elastic Constant Matrix: (Units=GPa)
#
#
# Indices 1 2 3 4 5 6 
#
# 1 137.4357 58.5168 55.6178 0.0000 0.0000 0.0000
# 2 58.5168 83.4730 36.2710 0.0000 0.0000 0.0000
# 3 55.6178 36.2710 94.9389 0.0000 0.0000 0.0000
# 4 0.0000 0.0000 0.0000 38.2249 0.0000 0.0000
# 5 0.0000 0.0000 0.0000 0.0000 26.2079 0.0000
# 6 0.0000 0.0000 0.0000 0.0000 0.0000 2.5272
#
#
#
# Elastic Compliance Matrix: (Units=1/GPa)
#
#
# Indices 1 2 3 4 5 6 
#
# 1 0.011778 -0.006305 -0.004491 0.000000 0.000000 0.000000
# 2 -0.006305 0.017740 -0.003084 0.000000 0.000000 0.000000
# 3 -0.004491 -0.003084 0.014342 0.000000 0.000000 0.000000
# 4 0.000000 0.000000 0.000000 0.026161 0.000000 0.000000
# 5 0.000000 0.000000 0.000000 0.000000 0.038156 0.000000
# 6 0.000000 0.000000 0.000000 0.000000 0.000000 0.395692
#
#
# Mechanical properties :
#
#
# Convention : Reuss Voigt Hill
#
# Bulk Modulus (GPa) = 62.11070 68.51764 65.31417
# Shear Modulus (GPa) = 9.31103 24.42147 16.86625
#
# Velocity S-wave (km/s) = 2.13688 3.46073 2.87601
# Velocity P-wave (km/s) = 6.04552 7.04066 6.56199
#
# Compressibility (1/GPa) = 0.01610029
#
# Stress axis : x y z
#
# Youngs Moduli (GPa) = 84.90198 56.36940 69.72444
#
# Poissons Ratio (x) = 0.35543 0.31314
# Poissons Ratio (y) = 0.53534 0.21501
# Poissons Ratio (z) = 0.38130 0.17382
#
# Static dielectric constant tensor:
#      x y z
#    x 3.849190 0.000000 0.000000 
#    y 0.000000 3.513630 0.000000 
#    z 0.000000 0.000000 3.718260 
# 
# 
# High freq. dielectric constant tensor:
#      x y z
#    x 1.803400 0.000000 0.000000 
#    y 0.000000 1.782330 0.000000 
#    z 0.000000 0.000000 1.804830 
# 
# From -- ./inp_files/34554.got.cif
#   From: 2010.03.12/outbox.cif.g09.slc.cpg/sg64_18_cif.got.tgz:34554.got - 2010.04.10 20:19:32.
