data_PCOD8264009
_publ_section_title
;
Structure prediction by ZEFSAII (Michael W. Deem and Ramdas Pophale) SiO2 
 PCOD8264009
Probable space group: C M C A
;
_chemical_formula_sum "Si O2"
_cell_formula_units_Z 64
_cell_length_a 16.126131
_cell_length_b 12.214385
_cell_length_c 14.946315
_cell_angle_alpha 90.000000
_cell_angle_beta 90.000000
_cell_angle_gamma 90.000000
_cell_volume 2943.987213
_symmetry_space_group_name_H-M "C M C A"
_symmetry_group_IT_number 64
_symmetry_cell_setting 'orthorhombic'
loop_
_space_group_symop_operation_xyz
x,y,z
-x,1/2-y,1/2+z
x,-y,-z
-x,1/2+y,1/2-z
-x,-y,-z
x,1/2+y,1/2-z
-x,y,z
x,1/2-y,1/2+z
1/2+x,1/2+y,z
1/2-x,-y,1/2+z
1/2+x,1/2-y,-z
1/2-x,y,1/2-z
1/2-x,1/2-y,-z
1/2+x,y,1/2-z
1/2-x,1/2+y,z
1/2+x,-y,1/2+z
loop_
_atom_site_type_symbol
_atom_site_label
_atom_site_fract_x
_atom_site_fract_y
_atom_site_fract_z
Si Si1 0.902541 0.654941 0.680828
Si Si2 0.818996 0.958123 0.905804
Si Si3 0.822082 0.821695 0.545425
Si Si4 0.406119 0.267232 0.377199
O O1 0.842881 0.551488 0.664064
O O2 0.870647 0.758481 0.623882
O O3 0.888048 0.671309 0.785407
O O4 0.000000 0.633283 0.659016
O O5 0.719401 0.933489 0.915435
O O6 0.857432 0.845432 0.874740
O O7 0.855977 0.000000 0.000000
O O8 0.750000 0.750000 0.500000
O O9 0.883495 0.844979 0.461940
O O10 0.500000 0.232169 0.385680
#
# Coordination Sequence:
#
# PCOD8264009 Si02
#       4
#    16  16  16  16
#     4  11  23  43  70  98 133 181 226 274 333 402
#     4  11  22  42  68  98 127 177 232 265 336 407
#     4  10  21  40  60 102 134 167 217 282 329 387
#     4  10  22  41  68 102 136 173 224 284 336 391
#
# _framework density 21.739225000000001
#
# number of rings (size 3 to 8) (size 9 to 14) (size 15 to 20)
#    0.000    1.500    5.000    1.500    0.000    5.000 
#    9.000    0.000    0.000    1.500    0.000    0.000 
#    0.000    0.000    0.000    0.000    0.000    0.000 
#
# Total GULP energy -396517.296775 kJ/mol
# GULP energy per Si atom -12391.165524 kJ/mol
# Density = 2.168975 g / cm^3
# Si number density = 21.739225 Si / 1000 Ang^3
#
#
#
# Elastic Constant Matrix: (Units=GPa)
#
#
# Indices 1 2 3 4 5 6 
#
# 1 69.0592 52.2033 64.4219 0.0000 0.0000 0.0000
# 2 52.2033 91.4421 44.4621 0.0000 0.0000 0.0000
# 3 64.4219 44.4621 119.7726 0.0000 0.0000 0.0000
# 4 0.0000 0.0000 0.0000 28.9345 0.0000 0.0000
# 5 0.0000 0.0000 0.0000 0.0000 38.0271 0.0000
# 6 0.0000 0.0000 0.0000 0.0000 0.0000 26.1481
#
#
#
# Elastic Compliance Matrix: (Units=1/GPa)
#
#
# Indices 1 2 3 4 5 6 
#
# 1 0.042141 -0.015908 -0.016761 0.000000 0.000000 0.000000
# 2 -0.015908 0.019350 0.001373 0.000000 0.000000 0.000000
# 3 -0.016761 0.001373 0.016855 0.000000 0.000000 0.000000
# 4 0.000000 0.000000 0.000000 0.034561 0.000000 0.000000
# 5 0.000000 0.000000 0.000000 0.000000 0.026297 0.000000
# 6 0.000000 0.000000 0.000000 0.000000 0.000000 0.038244
#
#
# Mechanical properties :
#
#
# Convention : Reuss Voigt Hill
#
# Bulk Modulus (GPa) = 63.47550 66.93872 65.20711
# Shear Modulus (GPa) = 20.38402 26.56773 23.47588
#
# Velocity S-wave (km/s) = 3.06545 3.49966 3.28973
# Velocity P-wave (km/s) = 6.46462 6.86940 6.67008
#
# Compressibility (1/GPa) = 0.01575411
#
# Stress axis : x y z
#
# Youngs Moduli (GPa) = 23.72971 51.67978 59.33130
#
# Poissons Ratio (x) = 0.82214 0.99445
# Poissons Ratio (y) = 0.37750 -0.08149
# Poissons Ratio (z) = 0.39773 -0.07098
#
# Static dielectric constant tensor:
#      x y z
#    x 4.647050 0.000000 0.000000 
#    y 0.000000 3.919390 0.000000 
#    z 0.000000 0.000000 4.290060 
# 
# 
# High freq. dielectric constant tensor:
#      x y z
#    x 1.858130 0.000000 0.000000 
#    y 0.000000 1.837890 0.000000 
#    z 0.000000 0.000000 1.865760 
# 
# From -- ./inp_files/24853.got.cif
#   From: 2010.03.12/outbox.cif.g09.slc.cpg/sg64_13_cif.got.tgz:24853.got - 2010.04.10 20:19:32.
