data_PCOD8264676
_publ_section_title
;
Structure prediction by ZEFSAII (Michael W. Deem and Ramdas Pophale) SiO2 
 PCOD8264676
Probable space group: C M C A
;
_chemical_formula_sum "Si O2"
_cell_formula_units_Z 72
_cell_length_a 23.268985
_cell_length_b 4.923067
_cell_length_c 29.145131
_cell_angle_alpha 90.000000
_cell_angle_beta 90.000000
_cell_angle_gamma 90.000000
_cell_volume 3338.713842
_symmetry_space_group_name_H-M "C M C A"
_symmetry_group_IT_number 64
_symmetry_cell_setting 'orthorhombic'
loop_
_space_group_symop_operation_xyz
x,y,z
-x,1/2-y,1/2+z
x,-y,-z
-x,1/2+y,1/2-z
-x,-y,-z
x,1/2+y,1/2-z
-x,y,z
x,1/2-y,1/2+z
1/2+x,1/2+y,z
1/2-x,-y,1/2+z
1/2+x,1/2-y,-z
1/2-x,y,1/2-z
1/2-x,1/2-y,-z
1/2+x,y,1/2-z
1/2-x,1/2+y,z
1/2+x,-y,1/2+z
loop_
_atom_site_type_symbol
_atom_site_label
_atom_site_fract_x
_atom_site_fract_y
_atom_site_fract_z
Si Si1 0.213757 0.823696 0.872590
Si Si2 0.335599 0.262791 0.470246
Si Si3 0.935977 0.507232 0.085590
Si Si4 0.408956 0.483419 0.855661
Si Si5 0.000000 0.478864 0.280924
O O1 0.234121 0.522938 0.859335
O O2 0.201871 0.830576 0.927056
O O3 0.156953 0.904052 0.844103
O O4 0.303160 0.500000 0.500000
O O5 0.395687 0.399188 0.454879
O O6 0.350036 0.000000 0.500000
O O7 0.908515 0.781084 0.106123
O O8 0.000000 0.568070 0.066808
O O9 0.940803 0.281784 0.125255
O O10 0.442664 0.579535 0.810520
O O11 0.000000 0.285744 0.236929
#
# Coordination Sequence:
#
# PCOD8264676 Si02
#       5
#    16  16  16  16   8
#     4  11  23  40  63  85 115 171 217 249 298 352
#     4  11  23  36  53  86 124 161 215 273 315 348
#     4  11  20  37  61  82 120 171 205 246 311 367
#     4  11  22  41  63  93 126 154 203 248 292 379
#     4  12  24  40  70 104 128 150 180 242 322 366
#
# _framework density 21.565190000000001
#
# number of rings (size 3 to 8) (size 9 to 14) (size 15 to 20)
#    0.000    0.889    2.222    8.000    0.000    3.556 
#    0.000    0.000    0.000    4.000    0.000    0.000 
#    0.000    0.000    0.000    0.000    0.000    0.000 
#
# Total GULP energy -446476.693393 kJ/mol
# GULP energy per Si atom -12402.130372 kJ/mol
# Density = 2.151611 g / cm^3
# Si number density = 21.565190 Si / 1000 Ang^3
#
#
#
# Elastic Constant Matrix: (Units=GPa)
#
#
# Indices 1 2 3 4 5 6 
#
# 1 101.7544 29.0625 18.3465 0.0000 0.0000 0.0000
# 2 29.0625 114.1827 12.9620 0.0000 0.0000 0.0000
# 3 18.3465 12.9620 57.7755 0.0000 0.0000 0.0000
# 4 0.0000 0.0000 0.0000 35.5214 0.0000 0.0000
# 5 0.0000 0.0000 0.0000 0.0000 18.7062 0.0000
# 6 0.0000 0.0000 0.0000 0.0000 0.0000 39.6185
#
#
#
# Elastic Compliance Matrix: (Units=1/GPa)
#
#
# Indices 1 2 3 4 5 6 
#
# 1 0.011070 -0.002482 -0.002958 0.000000 0.000000 0.000000
# 2 -0.002482 0.009543 -0.001353 0.000000 0.000000 0.000000
# 3 -0.002958 -0.001353 0.018551 0.000000 0.000000 0.000000
# 4 0.000000 0.000000 0.000000 0.028152 0.000000 0.000000
# 5 0.000000 0.000000 0.000000 0.000000 0.053458 0.000000
# 6 0.000000 0.000000 0.000000 0.000000 0.000000 0.025241
#
#
# Mechanical properties :
#
#
# Convention : Reuss Voigt Hill
#
# Bulk Modulus (GPa) = 39.09591 43.82830 41.46210
# Shear Modulus (GPa) = 29.73936 32.99200 31.36568
#
# Velocity S-wave (km/s) = 3.71758 3.91560 3.81787
# Velocity P-wave (km/s) = 6.04944 6.38830 6.22118
#
# Compressibility (1/GPa) = 0.02557812
#
# Stress axis : x y z
#
# Youngs Moduli (GPa) = 90.33576 104.78729 53.90442
#
# Poissons Ratio (x) = 0.26005 0.15947
# Poissons Ratio (y) = 0.22419 0.07293
# Poissons Ratio (z) = 0.26725 0.14177
#
# Static dielectric constant tensor:
#      x y z
#    x 3.746780 0.000000 0.000000 
#    y 0.000000 4.140540 0.000000 
#    z 0.000000 0.000000 3.486700 
# 
# 
# High freq. dielectric constant tensor:
#      x y z
#    x 1.854840 0.000000 0.000000 
#    y 0.000000 1.872750 0.000000 
#    z 0.000000 0.000000 1.798470 
# 
# From -- ./inp_files/50928.got.cif
#   From: 2010.03.12/outbox.cif.g09.slc.cpg/sg64_26_cif.got.tgz:50928.got - 2010.04.10 20:19:32.
