data_PCOD8264796
_publ_section_title
;
Structure prediction by ZEFSAII (Michael W. Deem and Ramdas Pophale) SiO2 
 PCOD8264796
Probable space group: C M C A
;
_chemical_formula_sum "Si O2"
_cell_formula_units_Z 96
_cell_length_a 14.369559
_cell_length_b 13.845613
_cell_length_c 22.220395
_cell_angle_alpha 90.000000
_cell_angle_beta 90.000000
_cell_angle_gamma 90.000000
_cell_volume 4420.866529
_symmetry_space_group_name_H-M "C M C A"
_symmetry_group_IT_number 64
_symmetry_cell_setting 'orthorhombic'
loop_
_space_group_symop_operation_xyz
x,y,z
-x,1/2-y,1/2+z
x,-y,-z
-x,1/2+y,1/2-z
-x,-y,-z
x,1/2+y,1/2-z
-x,y,z
x,1/2-y,1/2+z
1/2+x,1/2+y,z
1/2-x,-y,1/2+z
1/2+x,1/2-y,-z
1/2-x,y,1/2-z
1/2-x,1/2-y,-z
1/2+x,y,1/2-z
1/2-x,1/2+y,z
1/2+x,-y,1/2+z
loop_
_atom_site_type_symbol
_atom_site_label
_atom_site_fract_x
_atom_site_fract_y
_atom_site_fract_z
Si Si1 0.201337 0.376921 0.689553
Si Si2 0.679899 0.151104 0.080021
Si Si3 0.821771 0.089435 0.795854
Si Si4 0.000000 0.079775 0.352971
Si Si5 0.784755 0.000000 0.000000
Si Si6 0.500000 0.177273 0.276263
Si Si7 0.500000 0.905376 0.223107
Si Si8 0.388981 0.351600 0.079862
O O1 0.250000 0.335891 0.750000
O O2 0.243039 0.325265 0.630887
O O3 0.226112 0.490398 0.681844
O O4 0.090794 0.361381 0.689831
O O5 0.590655 0.101133 0.108774
O O6 0.648715 0.252854 0.049300
O O7 0.720090 0.081026 0.029359
O O8 0.750000 0.144225 0.750000
O O9 0.911757 0.057211 0.759311
O O10 0.851098 0.155619 0.851644
O O11 0.000000 0.146834 0.293434
O O12 0.000000 0.965006 0.339170
O O13 0.851178 0.052413 0.951905
O O14 0.500000 0.291785 0.284927
O O15 0.500000 0.354722 0.079402
#
# Coordination Sequence:
#
# PCOD8264796 Si02
#       8
#    16  16  16   8   8   8   8  16
#     4  11  22  40  66  99 143 181 227 284 349 425
#     4  12  26  47  74 101 137 188 232 296 356 420
#     4  11  22  40  68 101 139 183 221 273 346 415
#     4  12  22  45  68  98 143 185 232 277 356 428
#     4  12  29  49  74  98 136 180 250 308 352 402
#     4  12  24  36  61 107 145 185 228 278 345 442
#     4  12  24  36  63 102 146 184 219 270 350 426
#     4  12  26  49  76 103 136 187 241 292 352 418
#
# _framework density 21.715199999999999
#
# number of rings (size 3 to 8) (size 9 to 14) (size 15 to 20)
#    0.000    0.333    6.667    2.750    2.333    0.333 
#    1.500    0.000    0.000    0.000    0.000    0.000 
#    0.000    0.000    0.000    0.000    0.000    0.000 
#
# Total GULP energy -595274.876612 kJ/mol
# GULP energy per Si atom -12401.559929 kJ/mol
# Density = 2.166578 g / cm^3
# Si number density = 21.715200 Si / 1000 Ang^3
#
#
#
# Elastic Constant Matrix: (Units=GPa)
#
#
# Indices 1 2 3 4 5 6 
#
# 1 160.0302 31.5009 51.9959 0.0000 0.0000 0.0000
# 2 31.5009 124.1355 24.9200 0.0000 0.0000 0.0000
# 3 51.9959 24.9200 73.9725 0.0000 0.0000 0.0000
# 4 0.0000 0.0000 0.0000 25.8024 0.0000 0.0000
# 5 0.0000 0.0000 0.0000 0.0000 -1.9678 0.0000
# 6 0.0000 0.0000 0.0000 0.0000 0.0000 29.1198
#
#
#
# Elastic Compliance Matrix: (Units=1/GPa)
#
#
# Indices 1 2 3 4 5 6 
#
# 1 0.008211 -0.000992 -0.005437 0.000000 0.000000 0.000000
# 2 -0.000992 0.008760 -0.002254 0.000000 0.000000 0.000000
# 3 -0.005437 -0.002254 0.018100 0.000000 0.000000 0.000000
# 4 0.000000 0.000000 0.000000 0.038756 0.000000 0.000000
# 5 0.000000 0.000000 0.000000 0.000000 -0.508188 0.000000
# 6 0.000000 0.000000 0.000000 0.000000 0.000000 0.034341
#
#
# Mechanical properties :
#
#
# Convention : Reuss Voigt Hill
#
# Bulk Modulus (GPa) = 56.48342 63.88576 60.18459
# Shear Modulus (GPa) = -13.27129 27.23898 6.98385
#
# Velocity S-wave (km/s) = -2.47483 3.54556 1.79530
# Velocity P-wave (km/s) = 4.23097 6.80037 5.66331
#
# Compressibility (1/GPa) = 0.01770431
#
# Stress axis : x y z
#
# Youngs Moduli (GPa) = 121.79213 114.15665 55.24979
#
# Poissons Ratio (x) = 0.11325 0.30040
# Poissons Ratio (y) = 0.12083 0.12452
# Poissons Ratio (z) = 0.66220 0.25728
#
# Static dielectric constant tensor:
#      x y z
#    x 4.102700 0.000000 0.000000 
#    y 0.000000 3.984530 0.000000 
#    z 0.000000 0.000000 3.717180 
# 
# 
# High freq. dielectric constant tensor:
#      x y z
#    x 1.871440 0.000000 0.000000 
#    y 0.000000 1.866390 0.000000 
#    z 0.000000 0.000000 1.824820 
# 
# From -- ./inp_files/39299.got.cif
#   From: 2010.03.12/outbox.cif.g09.slc.cpg/sg64_20_cif.got.tgz:39299.got - 2010.04.10 20:19:32.
