data_PCOD8264574
_publ_section_title
;
Structure prediction by ZEFSAII (Michael W. Deem and Ramdas Pophale) SiO2 
 PCOD8264574
Probable space group: C M C A
;
_chemical_formula_sum "Si O2"
_cell_formula_units_Z 48
_cell_length_a 8.102979
_cell_length_b 28.294400
_cell_length_c 8.337358
_cell_angle_alpha 90.000000
_cell_angle_beta 90.000000
_cell_angle_gamma 90.000000
_cell_volume 1911.497139
_symmetry_space_group_name_H-M "C M C A"
_symmetry_group_IT_number 64
_symmetry_cell_setting 'orthorhombic'
loop_
_space_group_symop_operation_xyz
x,y,z
-x,1/2-y,1/2+z
x,-y,-z
-x,1/2+y,1/2-z
-x,-y,-z
x,1/2+y,1/2-z
-x,y,z
x,1/2-y,1/2+z
1/2+x,1/2+y,z
1/2-x,-y,1/2+z
1/2+x,1/2-y,-z
1/2-x,y,1/2-z
1/2-x,1/2-y,-z
1/2+x,y,1/2-z
1/2-x,1/2+y,z
1/2+x,-y,1/2+z
loop_
_atom_site_type_symbol
_atom_site_label
_atom_site_fract_x
_atom_site_fract_y
_atom_site_fract_z
Si Si1 0.500000 0.702882 0.284502
Si Si2 0.695096 0.049466 0.568546
Si Si3 0.000000 0.692103 0.595427
Si Si4 0.679768 0.646742 0.528628
O O1 0.500000 0.758597 0.314643
O O2 0.661696 0.679030 0.368379
O O3 0.500000 0.695574 0.096662
O O4 0.500000 0.053494 0.547281
O O5 0.750000 0.054180 0.750000
O O6 0.782635 0.092725 0.474800
O O7 0.762215 0.000000 0.500000
O O8 0.169112 0.664524 0.640373
O O9 0.500000 0.649746 0.622051
#
# Coordination Sequence:
#
# PCOD8264574 Si02
#       4
#     8  16   8  16
#     4  10  26  40  71  98 139 186 233 290 352 408
#     4  11  25  47  73 106 143 182 231 290 349 417
#     4  12  22  48  63 102 141 180 239 290 344 418
#     4  10  24  42  68  99 136 185 227 281 343 411
#
# _framework density 25.111207
#
# number of rings (size 3 to 8) (size 9 to 14) (size 15 to 20)
#    1.000    0.333    1.667    3.000    0.000    8.000 
#    0.000    0.000    0.000    0.000    0.000    0.000 
#    0.000    0.000    0.000    0.000    0.000    0.000 
#
# Total GULP energy -297486.140432 kJ/mol
# GULP energy per Si atom -12395.255851 kJ/mol
# Density = 2.505405 g / cm^3
# Si number density = 25.111207 Si / 1000 Ang^3
#
#
#
# Elastic Constant Matrix: (Units=GPa)
#
#
# Indices 1 2 3 4 5 6 
#
# 1 188.2429 80.5445 34.4747 0.0000 0.0000 0.0000
# 2 80.5445 217.9261 5.9518 0.0000 0.0000 0.0000
# 3 34.4747 5.9518 42.2745 0.0000 0.0000 0.0000
# 4 0.0000 0.0000 0.0000 -22.8184 0.0000 0.0000
# 5 0.0000 0.0000 0.0000 0.0000 34.9362 0.0000
# 6 0.0000 0.0000 0.0000 0.0000 0.0000 46.9783
#
#
#
# Elastic Compliance Matrix: (Units=1/GPa)
#
#
# Indices 1 2 3 4 5 6 
#
# 1 0.007477 -0.002607 -0.005731 0.000000 0.000000 0.000000
# 2 -0.002607 0.005515 0.001350 0.000000 0.000000 0.000000
# 3 -0.005731 0.001350 0.028138 0.000000 0.000000 0.000000
# 4 0.000000 0.000000 0.000000 -0.043824 0.000000 0.000000
# 5 0.000000 0.000000 0.000000 0.000000 0.028624 0.000000
# 6 0.000000 0.000000 0.000000 0.000000 0.000000 0.021286
#
#
# Mechanical properties :
#
#
# Convention : Reuss Voigt Hill
#
# Bulk Modulus (GPa) = 36.82620 76.70949 56.76785
# Shear Modulus (GPa) = 71.17984 33.65072 52.41528
#
# Velocity S-wave (km/s) = 5.32986 3.66466 4.57368
# Velocity P-wave (km/s) = 7.25076 6.96567 7.10965
#
# Compressibility (1/GPa) = 0.02715458
#
# Stress axis : x y z
#
# Youngs Moduli (GPa) = 133.73834 181.31015 35.53883
#
# Poissons Ratio (x) = 0.47269 0.20366
# Poissons Ratio (y) = 0.34866 -0.04796
# Poissons Ratio (z) = 0.76641 -0.24468
#
# Static dielectric constant tensor:
#      x y z
#    x 4.979360 0.000000 0.000000 
#    y 0.000000 5.106080 0.000000 
#    z 0.000000 0.000000 1.914680 
# 
# 
# High freq. dielectric constant tensor:
#      x y z
#    x 2.029010 0.000000 0.000000 
#    y 0.000000 2.007920 0.000000 
#    z 0.000000 0.000000 1.996880 
# 
# From -- ./inp_files/3962.got.cif
#   From: 2010.03.12/outbox.cif.g09.slc.cpg/sg64_2_cif.got.tgz:3962.got - 2010.04.10 20:19:32.
