data_PCOD8264748
_publ_section_title
;
Structure prediction by ZEFSAII (Michael W. Deem and Ramdas Pophale) SiO2 
 PCOD8264748
Probable space group: C M C A
;
_chemical_formula_sum "Si O2"
_cell_formula_units_Z 88
_cell_length_a 13.097406
_cell_length_b 17.400883
_cell_length_c 18.912507
_cell_angle_alpha 90.000000
_cell_angle_beta 90.000000
_cell_angle_gamma 90.000000
_cell_volume 4310.281942
_symmetry_space_group_name_H-M "C M C A"
_symmetry_group_IT_number 64
_symmetry_cell_setting 'orthorhombic'
loop_
_space_group_symop_operation_xyz
x,y,z
-x,1/2-y,1/2+z
x,-y,-z
-x,1/2+y,1/2-z
-x,-y,-z
x,1/2+y,1/2-z
-x,y,z
x,1/2-y,1/2+z
1/2+x,1/2+y,z
1/2-x,-y,1/2+z
1/2+x,1/2-y,-z
1/2-x,y,1/2-z
1/2-x,1/2-y,-z
1/2+x,y,1/2-z
1/2-x,1/2+y,z
1/2+x,-y,1/2+z
loop_
_atom_site_type_symbol
_atom_site_label
_atom_site_fract_x
_atom_site_fract_y
_atom_site_fract_z
Si Si1 0.500000 0.405120 0.264953
Si Si2 0.720843 0.953995 0.428770
Si Si3 0.500000 0.255254 0.355374
Si Si4 0.163869 0.527483 0.196554
Si Si5 0.164868 0.199948 0.535281
Si Si6 0.000000 0.654424 0.214151
Si Si7 0.000000 0.107839 0.894681
Si Si8 0.000000 0.723717 0.069558
O O1 0.500000 0.338127 0.321091
O O2 0.399039 0.454654 0.276395
O O3 0.500000 0.369022 0.187386
O O4 0.781941 0.009978 0.377058
O O5 0.783844 0.874893 0.431115
O O6 0.602356 0.941375 0.408452
O O7 0.721651 0.000000 0.500000
O O8 0.601436 0.251945 0.404825
O O9 0.500000 0.188871 0.294474
O O10 0.250000 0.548736 0.250000
O O11 0.097748 0.604030 0.195783
O O12 0.250000 0.250000 0.500000
O O13 0.093852 0.180596 0.468202
O O14 0.000000 0.719746 0.154473
O O15 0.000000 0.183867 0.944161
#
# Coordination Sequence:
#
# PCOD8264748 Si02
#       8
#     8  16   8  16  16   8   8   8
#     4  11  21  43  72  93 130 170 233 272 335 398
#     4  12  25  43  70  99 134 182 225 274 342 407
#     4  11  24  43  72  98 131 179 229 282 336 400
#     4  11  24  45  64  96 136 175 219 276 333 402
#     4  11  24  44  66  98 138 179 222 276 341 405
#     4  11  26  42  67 102 132 172 227 282 331 393
#     4  12  23  42  69 100 132 174 221 286 329 401
#     4  11  23  42  64  95 137 170 223 281 328 399
#
# _framework density 20.416298000000001
#
# number of rings (size 3 to 8) (size 9 to 14) (size 15 to 20)
#    0.000    0.727    6.364    1.364    0.000    2.909 
#    0.000    5.455    0.000    0.000    0.000    0.000 
#    0.000    0.000    0.000    0.000    0.000    0.000 
#
# Total GULP energy -545329.067242 kJ/mol
# GULP energy per Si atom -12393.842437 kJ/mol
# Density = 2.036983 g / cm^3
# Si number density = 20.416298 Si / 1000 Ang^3
#
#
#
# Elastic Constant Matrix: (Units=GPa)
#
#
# Indices 1 2 3 4 5 6 
#
# 1 167.3652 50.0932 67.6805 0.0000 0.0000 0.0000
# 2 50.0932 85.7360 41.9406 0.0000 0.0000 0.0000
# 3 67.6805 41.9406 151.6357 0.0000 0.0000 0.0000
# 4 0.0000 0.0000 0.0000 49.7476 0.0000 0.0000
# 5 0.0000 0.0000 0.0000 0.0000 39.1739 0.0000
# 6 0.0000 0.0000 0.0000 0.0000 0.0000 -10.9370
#
#
#
# Elastic Compliance Matrix: (Units=1/GPa)
#
#
# Indices 1 2 3 4 5 6 
#
# 1 0.008072 -0.003416 -0.002658 0.000000 0.000000 0.000000
# 2 -0.003416 0.014934 -0.002606 0.000000 0.000000 0.000000
# 3 -0.002658 -0.002606 0.008502 0.000000 0.000000 0.000000
# 4 0.000000 0.000000 0.000000 0.020101 0.000000 0.000000
# 5 0.000000 0.000000 0.000000 0.000000 0.025527 0.000000
# 6 0.000000 0.000000 0.000000 0.000000 0.000000 -0.091433
#
#
# Mechanical properties :
#
#
# Convention : Reuss Voigt Hill
#
# Bulk Modulus (GPa) = 70.67970 80.46284 75.57127
# Shear Modulus (GPa) = 642.56039 31.93174 337.24606
#
# Velocity S-wave (km/s) = 17.75985 3.95907 12.86636
# Velocity P-wave (km/s) = 21.33645 7.77146 16.05677
#
# Compressibility (1/GPa) = 0.01414833
#
# Stress axis : x y z
#
# Youngs Moduli (GPa) = 123.87995 66.95930 117.62030
#
# Poissons Ratio (x) = 0.22874 0.31265
# Poissons Ratio (y) = 0.42319 0.30651
# Poissons Ratio (z) = 0.32929 0.17449
#
# Static dielectric constant tensor:
#      x y z
#    x 4.138290 0.000000 0.000000 
#    y 0.000000 4.288560 0.000000 
#    z 0.000000 0.000000 3.841340 
# 
# 
# High freq. dielectric constant tensor:
#      x y z
#    x 1.818070 0.000000 0.000000 
#    y 0.000000 1.789850 0.000000 
#    z 0.000000 0.000000 1.813990 
# 
# From -- ./inp_files/32229.got.cif
#   From: 2010.03.12/outbox.cif.g09.slc.cpg/sg64_17_cif.got.tgz:32229.got - 2010.04.10 20:19:32.
