data_PCOD8264062
_publ_section_title
;
Structure prediction by ZEFSAII (Michael W. Deem and Ramdas Pophale) SiO2 
 PCOD8264062
Probable space group: C M C A
;
_chemical_formula_sum "Si O2"
_cell_formula_units_Z 80
_cell_length_a 22.332770
_cell_length_b 15.346693
_cell_length_c 10.932444
_cell_angle_alpha 90.000000
_cell_angle_beta 90.000000
_cell_angle_gamma 90.000000
_cell_volume 3746.922066
_symmetry_space_group_name_H-M "C M C A"
_symmetry_group_IT_number 64
_symmetry_cell_setting 'orthorhombic'
loop_
_space_group_symop_operation_xyz
x,y,z
-x,1/2-y,1/2+z
x,-y,-z
-x,1/2+y,1/2-z
-x,-y,-z
x,1/2+y,1/2-z
-x,y,z
x,1/2-y,1/2+z
1/2+x,1/2+y,z
1/2-x,-y,1/2+z
1/2+x,1/2-y,-z
1/2-x,y,1/2-z
1/2-x,1/2-y,-z
1/2+x,y,1/2-z
1/2-x,1/2+y,z
1/2+x,-y,1/2+z
loop_
_atom_site_type_symbol
_atom_site_label
_atom_site_fract_x
_atom_site_fract_y
_atom_site_fract_z
Si Si1 0.377561 0.400709 0.009299
Si Si2 0.797067 0.494721 0.138386
Si Si3 0.000000 0.678986 0.241126
Si Si4 0.869861 0.856396 0.748340
Si Si5 0.000000 0.698942 0.512086
Si Si6 0.682076 0.669711 0.763784
O O1 0.440002 0.354355 0.037775
O O2 0.327191 0.382657 0.110445
O O3 0.394841 0.500000 0.000000
O O4 0.345256 0.372418 0.884066
O O5 0.750000 0.494557 0.250000
O O6 0.838274 0.580352 0.151270
O O7 0.832361 0.401572 0.155831
O O8 0.770246 0.500000 0.000000
O O9 0.940396 0.620002 0.242786
O O10 0.000000 0.734333 0.370241
O O11 0.000000 0.726831 0.112503
O O12 0.860961 0.753197 0.727029
O O13 0.750000 0.703868 0.750000
#
# Coordination Sequence:
#
# PCOD8264062 Si02
#       6
#    16  16   8  16   8  16
#     4  11  22  42  67  97 133 177 231 285 333 409
#     4  11  27  46  69  99 138 180 227 284 340 408
#     4  10  22  40  67 102 132 179 225 280 338 405
#     4  11  24  44  67  98 139 178 226 285 341 406
#     4  10  21  40  68  94 134 177 231 279 342 392
#     4  11  25  40  65  98 132 179 227 270 345 400
#
# _framework density 21.350857000000001
#
# number of rings (size 3 to 8) (size 9 to 14) (size 15 to 20)
#    0.000    1.200    4.000    0.900    8.400    0.800 
#    0.000    1.500    0.000    0.000    0.000    0.000 
#    0.000    0.000    0.000    0.000    0.000    0.000 
#
# Total GULP energy -495590.778784 kJ/mol
# GULP energy per Si atom -12389.769470 kJ/mol
# Density = 2.130226 g / cm^3
# Si number density = 21.350857 Si / 1000 Ang^3
#
#
#
# Elastic Constant Matrix: (Units=GPa)
#
#
# Indices 1 2 3 4 5 6 
#
# 1 85.3596 10.2224 37.6456 0.0000 0.0000 0.0000
# 2 10.2224 104.8111 24.4336 0.0000 0.0000 0.0000
# 3 37.6456 24.4336 147.8912 0.0000 0.0000 0.0000
# 4 0.0000 0.0000 0.0000 31.6190 0.0000 0.0000
# 5 0.0000 0.0000 0.0000 0.0000 34.8544 0.0000
# 6 0.0000 0.0000 0.0000 0.0000 0.0000 19.8777
#
#
#
# Elastic Compliance Matrix: (Units=1/GPa)
#
#
# Indices 1 2 3 4 5 6 
#
# 1 0.013224 -0.000525 -0.003279 0.000000 0.000000 0.000000
# 2 -0.000525 0.009944 -0.001509 0.000000 0.000000 0.000000
# 3 -0.003279 -0.001509 0.007846 0.000000 0.000000 0.000000
# 4 0.000000 0.000000 0.000000 0.031627 0.000000 0.000000
# 5 0.000000 0.000000 0.000000 0.000000 0.028691 0.000000
# 6 0.000000 0.000000 0.000000 0.000000 0.000000 0.050308
#
#
# Mechanical properties :
#
#
# Convention : Reuss Voigt Hill
#
# Bulk Modulus (GPa) = 49.05235 53.62946 51.34091
# Shear Modulus (GPa) = 31.43419 34.98758 33.21088
#
# Velocity S-wave (km/s) = 3.84118 4.05247 3.94824
# Velocity P-wave (km/s) = 6.53431 6.86072 6.69950
#
# Compressibility (1/GPa) = 0.02038638
#
# Stress axis : x y z
#
# Youngs Moduli (GPa) = 75.61800 100.56294 127.45596
#
# Poissons Ratio (x) = 0.05282 0.41799
# Poissons Ratio (y) = 0.03972 0.19235
# Poissons Ratio (z) = 0.24799 0.15177
#
# Static dielectric constant tensor:
#      x y z
#    x 3.825430 0.000000 0.000000 
#    y 0.000000 4.062020 0.000000 
#    z 0.000000 0.000000 3.953180 
# 
# 
# High freq. dielectric constant tensor:
#      x y z
#    x 1.836230 0.000000 0.000000 
#    y 0.000000 1.830930 0.000000 
#    z 0.000000 0.000000 1.848000 
# 
# From -- ./inp_files/18123.got.cif
#   From: 2010.03.12/outbox.cif.g09.slc.cpg/sg64_10_cif.got.tgz:18123.got - 2010.04.10 20:19:32.
