data_PCOD8264484
_publ_section_title
;
Structure prediction by ZEFSAII (Michael W. Deem and Ramdas Pophale) SiO2 
 PCOD8264484
Probable space group: C M C A
;
_chemical_formula_sum "Si O2"
_cell_formula_units_Z 96
_cell_length_a 22.234563
_cell_length_b 18.118180
_cell_length_c 11.411358
_cell_angle_alpha 90.000000
_cell_angle_beta 90.000000
_cell_angle_gamma 90.000000
_cell_volume 4597.063455
_symmetry_space_group_name_H-M "C M C A"
_symmetry_group_IT_number 64
_symmetry_cell_setting 'orthorhombic'
loop_
_space_group_symop_operation_xyz
x,y,z
-x,1/2-y,1/2+z
x,-y,-z
-x,1/2+y,1/2-z
-x,-y,-z
x,1/2+y,1/2-z
-x,y,z
x,1/2-y,1/2+z
1/2+x,1/2+y,z
1/2-x,-y,1/2+z
1/2+x,1/2-y,-z
1/2-x,y,1/2-z
1/2-x,1/2-y,-z
1/2+x,y,1/2-z
1/2-x,1/2+y,z
1/2+x,-y,1/2+z
loop_
_atom_site_type_symbol
_atom_site_label
_atom_site_fract_x
_atom_site_fract_y
_atom_site_fract_z
Si Si1 0.932184 0.449285 0.254194
Si Si2 0.341958 0.078757 0.952662
Si Si3 0.756977 0.803244 0.115201
Si Si4 0.890919 0.332146 0.427296
Si Si5 0.932779 0.830663 0.600317
Si Si6 0.432356 0.605510 0.154113
O O1 0.889441 0.430966 0.148732
O O2 0.932189 0.383333 0.346902
O O3 0.908888 0.524728 0.311661
O O4 0.000000 0.460541 0.206919
O O5 0.287189 0.127873 0.905160
O O6 0.379315 0.118150 0.054649
O O7 0.317348 0.000000 0.000000
O O8 0.750000 0.769353 0.250000
O O9 0.824072 0.832862 0.121245
O O10 0.750000 0.750000 0.000000
O O11 0.920904 0.252592 0.436191
O O12 0.887208 0.363950 0.557714
O O13 0.930333 0.836884 0.739786
O O14 0.000000 0.853709 0.555293
O O15 0.500000 0.600275 0.103040
#
# Coordination Sequence:
#
# PCOD8264484 Si02
#       6
#    16  16  16  16  16  16
#     4  11  23  42  70 101 143 183 229 289 360 426
#     4  12  25  46  70 102 139 186 239 290 352 430
#     4  12  28  51  74 100 140 190 241 302 358 419
#     4  12  25  43  70  98 140 181 238 287 357 419
#     4  11  24  41  68 106 142 180 229 292 363 432
#     4  10  23  42  66 104 142 180 228 288 358 430
#
# _framework density 20.882897
#
# number of rings (size 3 to 8) (size 9 to 14) (size 15 to 20)
#    0.000    0.667    5.000    2.500    4.667    3.333 
#    0.000    0.000    0.000    0.000    0.000    0.000 
#    0.000    0.000    0.000    0.000    0.000    0.000 
#
# Total GULP energy -595062.915146 kJ/mol
# GULP energy per Si atom -12397.144066 kJ/mol
# Density = 2.083537 g / cm^3
# Si number density = 20.882897 Si / 1000 Ang^3
#
#
#
# Elastic Constant Matrix: (Units=GPa)
#
#
# Indices 1 2 3 4 5 6 
#
# 1 80.7412 13.6043 27.1824 0.0000 0.0000 0.0000
# 2 13.6043 104.8113 40.3317 0.0000 0.0000 0.0000
# 3 27.1824 40.3317 123.0486 0.0000 0.0000 0.0000
# 4 0.0000 0.0000 0.0000 37.8630 0.0000 0.0000
# 5 0.0000 0.0000 0.0000 0.0000 32.2379 0.0000
# 6 0.0000 0.0000 0.0000 0.0000 0.0000 19.3567
#
#
#
# Elastic Compliance Matrix: (Units=1/GPa)
#
#
# Indices 1 2 3 4 5 6 
#
# 1 0.013424 -0.000688 -0.002740 0.000000 0.000000 0.000000
# 2 -0.000688 0.010953 -0.003438 0.000000 0.000000 0.000000
# 3 -0.002740 -0.003438 0.009859 0.000000 0.000000 0.000000
# 4 0.000000 0.000000 0.000000 0.026411 0.000000 0.000000
# 5 0.000000 0.000000 0.000000 0.000000 0.031019 0.000000
# 6 0.000000 0.000000 0.000000 0.000000 0.000000 0.051662
#
#
# Mechanical properties :
#
#
# Convention : Reuss Voigt Hill
#
# Bulk Modulus (GPa) = 48.77150 52.31532 50.54341
# Shear Modulus (GPa) = 30.50739 33.05703 31.78221
#
# Velocity S-wave (km/s) = 3.82629 3.98297 3.90542
# Velocity P-wave (km/s) = 6.55180 6.80134 6.67774
#
# Compressibility (1/GPa) = 0.02050378
#
# Stress axis : x y z
#
# Youngs Moduli (GPa) = 74.49580 91.29680 101.42957
#
# Poissons Ratio (x) = 0.06282 0.27790
# Poissons Ratio (y) = 0.05126 0.34873
# Poissons Ratio (z) = 0.20411 0.31389
#
# Static dielectric constant tensor:
#      x y z
#    x 3.800550 0.000000 0.000000 
#    y 0.000000 4.206770 0.000000 
#    z 0.000000 0.000000 4.054590 
# 
# 
# High freq. dielectric constant tensor:
#      x y z
#    x 1.818590 0.000000 0.000000 
#    y 0.000000 1.822400 0.000000 
#    z 0.000000 0.000000 1.830270 
# 
# From -- ./inp_files/18363.got.cif
#   From: 2010.03.12/outbox.cif.g09.slc.cpg/sg64_10_cif.got.tgz:18363.got - 2010.04.10 20:19:32.
