data_PCOD8264657
_publ_section_title
;
Structure prediction by ZEFSAII (Michael W. Deem and Ramdas Pophale) SiO2 
 PCOD8264657
Probable space group: C M C A
;
_chemical_formula_sum "Si O2"
_cell_formula_units_Z 96
_cell_length_a 8.932634
_cell_length_b 23.901726
_cell_length_c 26.011686
_cell_angle_alpha 90.000000
_cell_angle_beta 90.000000
_cell_angle_gamma 90.000000
_cell_volume 5553.634652
_symmetry_space_group_name_H-M "C M C A"
_symmetry_group_IT_number 64
_symmetry_cell_setting 'orthorhombic'
loop_
_space_group_symop_operation_xyz
x,y,z
-x,1/2-y,1/2+z
x,-y,-z
-x,1/2+y,1/2-z
-x,-y,-z
x,1/2+y,1/2-z
-x,y,z
x,1/2-y,1/2+z
1/2+x,1/2+y,z
1/2-x,-y,1/2+z
1/2+x,1/2-y,-z
1/2-x,y,1/2-z
1/2-x,1/2-y,-z
1/2+x,y,1/2-z
1/2-x,1/2+y,z
1/2+x,-y,1/2+z
loop_
_atom_site_type_symbol
_atom_site_label
_atom_site_fract_x
_atom_site_fract_y
_atom_site_fract_z
Si Si1 0.670852 0.339291 0.105424
Si Si2 0.671824 0.082738 0.696015
Si Si3 0.675501 0.423654 0.464830
Si Si4 0.827402 0.271556 0.948075
Si Si5 0.826841 0.997433 0.888379
Si Si6 0.672398 0.113876 0.434708
O O1 0.500000 0.356452 0.090944
O O2 0.705761 0.360784 0.163104
O O3 0.786691 0.367956 0.066904
O O4 0.692346 0.272854 0.098475
O O5 0.500000 0.077106 0.709249
O O6 0.750000 0.087492 0.750000
O O7 0.725307 0.027257 0.664630
O O8 0.500000 0.426625 0.476311
O O9 0.726287 0.478652 0.434488
O O10 0.766201 0.420553 0.517306
O O11 0.760572 0.328819 0.925799
O O12 0.000000 0.281598 0.961671
O O13 0.750000 0.250000 0.000000
O O14 0.000000 0.013573 0.898996
O O15 0.807835 0.929736 0.886710
O O16 0.500000 0.129618 0.443509
#
# Coordination Sequence:
#
# PCOD8264657 Si02
#       6
#    16  16  16  16  16  16
#     4   9  19  35  52  71 103 140 171 204 255 311
#     4   9  18  35  57  79  98 124 164 212 265 316
#     4  11  20  29  47  74 103 133 171 215 249 291
#     4  11  21  33  51  74 103 141 178 213 248 297
#     4   9  20  36  51  69 100 138 170 203 257 316
#     4  11  21  33  49  69 101 143 176 205 247 302
#
# _framework density 17.285976999999999
#
# number of rings (size 3 to 8) (size 9 to 14) (size 15 to 20)
#    0.000    2.000    1.667    4.000    0.000    6.667 
#    0.000    0.000    0.000    1.000    0.000    7.000 
#    0.000    0.000    0.000    0.000    0.000    0.000 
#
# Total GULP energy -594928.203380 kJ/mol
# GULP energy per Si atom -12394.337570 kJ/mol
# Density = 1.724663 g / cm^3
# Si number density = 17.285977 Si / 1000 Ang^3
#
#
#
# Elastic Constant Matrix: (Units=GPa)
#
#
# Indices 1 2 3 4 5 6 
#
# 1 83.9620 51.8534 29.8307 0.0000 0.0000 0.0000
# 2 51.8534 138.7219 60.6994 0.0000 0.0000 0.0000
# 3 29.8307 60.6994 89.1810 0.0000 0.0000 0.0000
# 4 0.0000 0.0000 0.0000 10.8096 0.0000 0.0000
# 5 0.0000 0.0000 0.0000 0.0000 24.8932 0.0000
# 6 0.0000 0.0000 0.0000 0.0000 0.0000 27.8957
#
#
#
# Elastic Compliance Matrix: (Units=1/GPa)
#
#
# Indices 1 2 3 4 5 6 
#
# 1 0.015683 -0.005079 -0.001789 0.000000 0.000000 0.000000
# 2 -0.005079 0.011911 -0.006408 0.000000 0.000000 0.000000
# 3 -0.001789 -0.006408 0.016173 0.000000 0.000000 0.000000
# 4 0.000000 0.000000 0.000000 0.092511 0.000000 0.000000
# 5 0.000000 0.000000 0.000000 0.000000 0.040172 0.000000
# 6 0.000000 0.000000 0.000000 0.000000 0.000000 0.035848
#
#
# Mechanical properties :
#
#
# Convention : Reuss Voigt Hill
#
# Bulk Modulus (GPa) = 58.09019 66.29243 62.19131
# Shear Modulus (GPa) = 20.44258 24.01845 22.23051
#
# Velocity S-wave (km/s) = 3.44264 3.73161 3.59004
# Velocity P-wave (km/s) = 7.03425 7.54985 7.29661
#
# Compressibility (1/GPa) = 0.01721461
#
# Stress axis : x y z
#
# Youngs Moduli (GPa) = 63.76507 83.95385 61.83143
#
# Poissons Ratio (x) = 0.42644 0.11059
# Poissons Ratio (y) = 0.32389 0.39623
# Poissons Ratio (z) = 0.11404 0.53799
#
# Static dielectric constant tensor:
#      x y z
#    x 3.258720 0.000000 0.000000 
#    y 0.000000 3.422990 0.000000 
#    z 0.000000 0.000000 3.002910 
# 
# 
# High freq. dielectric constant tensor:
#      x y z
#    x 1.674210 0.000000 0.000000 
#    y 0.000000 1.675210 0.000000 
#    z 0.000000 0.000000 1.626610 
# 
# From -- ./inp_files/43065.got.cif
#   From: 2010.03.12/outbox.cif.g09.slc.cpg/sg64_22_cif.got.tgz:43065.got - 2010.04.10 20:19:32.
