data_PCOD8264443
_publ_section_title
;
Structure prediction by ZEFSAII (Michael W. Deem and Ramdas Pophale) SiO2 
 PCOD8264443
Probable space group: C M C A
;
_chemical_formula_sum "Si O2"
_cell_formula_units_Z 104
_cell_length_a 21.696550
_cell_length_b 25.189313
_cell_length_c 9.288768
_cell_angle_alpha 90.000000
_cell_angle_beta 90.000000
_cell_angle_gamma 90.000000
_cell_volume 5076.508531
_symmetry_space_group_name_H-M "C M C A"
_symmetry_group_IT_number 64
_symmetry_cell_setting 'orthorhombic'
loop_
_space_group_symop_operation_xyz
x,y,z
-x,1/2-y,1/2+z
x,-y,-z
-x,1/2+y,1/2-z
-x,-y,-z
x,1/2+y,1/2-z
-x,y,z
x,1/2-y,1/2+z
1/2+x,1/2+y,z
1/2-x,-y,1/2+z
1/2+x,1/2-y,-z
1/2-x,y,1/2-z
1/2-x,1/2-y,-z
1/2+x,y,1/2-z
1/2-x,1/2+y,z
1/2+x,-y,1/2+z
loop_
_atom_site_type_symbol
_atom_site_label
_atom_site_fract_x
_atom_site_fract_y
_atom_site_fract_z
Si Si1 0.664256 0.424899 0.963996
Si Si2 0.750000 0.485471 0.750000
Si Si3 0.072407 0.368857 0.066881
Si Si4 0.167752 0.217383 0.625274
Si Si5 0.569636 0.568998 0.275829
Si Si6 0.801505 0.810821 0.056447
Si Si7 0.369746 0.461430 0.262374
O O1 0.721650 0.449053 0.876142
O O2 0.610593 0.409679 0.853881
O O3 0.683505 0.372350 0.048184
O O4 0.638669 0.464063 0.088589
O O5 0.698041 0.523206 0.676155
O O6 0.105771 0.311960 0.071096
O O7 0.104969 0.405079 0.187602
O O8 0.000000 0.361728 0.100708
O O9 0.084185 0.395986 0.914593
O O10 0.166208 0.278895 0.574860
O O11 0.172596 0.214718 0.796919
O O12 0.227466 0.191869 0.548880
O O13 0.500000 0.575755 0.226461
O O14 0.582659 0.507170 0.310546
#
# Coordination Sequence:
#
# PCOD8264443 Si02
#       7
#    16   8  16  16  16  16  16
#     4  11  24  40  62  97 128 166 216 260 330 375
#     4  10  24  34  60  96 134 164 204 262 318 380
#     4  11  24  42  65  93 128 174 216 264 321 380
#     4  10  23  43  67  94 127 156 213 264 322 388
#     4  10  23  40  59  89 130 173 213 258 310 384
#     4  10  23  42  69  97 120 164 203 270 327 379
#     4  11  23  40  62  92 128 170 220 259 313 378
#
# _framework density 20.486521
#
# number of rings (size 3 to 8) (size 9 to 14) (size 15 to 20)
#    0.000    1.538    1.538    2.769    8.615    6.769 
#    0.000    1.538    0.000    0.000    0.000    0.000 
#    0.000    0.000    0.000    0.000    0.000    0.000 
#
# Total GULP energy -644811.269180 kJ/mol
# GULP energy per Si atom -12400.216715 kJ/mol
# Density = 2.043989 g / cm^3
# Si number density = 20.486521 Si / 1000 Ang^3
#
#
#
# Elastic Constant Matrix: (Units=GPa)
#
#
# Indices 1 2 3 4 5 6 
#
# 1 121.9741 41.4526 64.1172 0.0000 0.0000 0.0000
# 2 41.4526 58.2513 16.1451 0.0000 0.0000 0.0000
# 3 64.1172 16.1451 92.6648 0.0000 0.0000 0.0000
# 4 0.0000 0.0000 0.0000 33.9644 0.0000 0.0000
# 5 0.0000 0.0000 0.0000 0.0000 30.1838 0.0000
# 6 0.0000 0.0000 0.0000 0.0000 0.0000 21.4973
#
#
#
# Elastic Compliance Matrix: (Units=1/GPa)
#
#
# Indices 1 2 3 4 5 6 
#
# 1 0.016375 -0.008944 -0.009772 0.000000 0.000000 0.000000
# 2 -0.008944 0.022924 0.002195 0.000000 0.000000 0.000000
# 3 -0.009772 0.002195 0.017171 0.000000 0.000000 0.000000
# 4 0.000000 0.000000 0.000000 0.029443 0.000000 0.000000
# 5 0.000000 0.000000 0.000000 0.000000 0.033130 0.000000
# 6 0.000000 0.000000 0.000000 0.000000 0.000000 0.046517
#
#
# Mechanical properties :
#
#
# Convention : Reuss Voigt Hill
#
# Bulk Modulus (GPa) = 42.68695 57.36891 50.02793
# Shear Modulus (GPa) = 24.22356 27.20744 25.71550
#
# Velocity S-wave (km/s) = 3.44236 3.64822 3.54678
# Velocity P-wave (km/s) = 6.05653 6.76831 6.42229
#
# Compressibility (1/GPa) = 0.02342636
#
# Stress axis : x y z
#
# Youngs Moduli (GPa) = 61.06949 43.62323 58.23929
#
# Poissons Ratio (x) = 0.39018 0.56910
# Poissons Ratio (y) = 0.54622 -0.12782
# Poissons Ratio (z) = 0.59676 -0.09574
#
# Static dielectric constant tensor:
#      x y z
#    x 3.743660 0.000000 0.000000 
#    y 0.000000 3.632520 0.000000 
#    z 0.000000 0.000000 3.676940 
# 
# 
# High freq. dielectric constant tensor:
#      x y z
#    x 1.796970 0.000000 0.000000 
#    y 0.000000 1.796720 0.000000 
#    z 0.000000 0.000000 1.807930 
# 
# From -- ./inp_files/8487.got.cif
#   From: 2010.03.12/outbox.cif.g09.slc.cpg/sg64_5_cif.got.tgz:8487.got - 2010.04.10 20:19:32.
