data_PCOD8264787
_publ_section_title
;
Structure prediction by ZEFSAII (Michael W. Deem and Ramdas Pophale) SiO2 
 PCOD8264787
Probable space group: C M C A
;
_chemical_formula_sum "Si O2"
_cell_formula_units_Z 96
_cell_length_a 17.119912
_cell_length_b 24.477434
_cell_length_c 11.067945
_cell_angle_alpha 90.000000
_cell_angle_beta 90.000000
_cell_angle_gamma 90.000000
_cell_volume 4638.039132
_symmetry_space_group_name_H-M "C M C A"
_symmetry_group_IT_number 64
_symmetry_cell_setting 'orthorhombic'
loop_
_space_group_symop_operation_xyz
x,y,z
-x,1/2-y,1/2+z
x,-y,-z
-x,1/2+y,1/2-z
-x,-y,-z
x,1/2+y,1/2-z
-x,y,z
x,1/2-y,1/2+z
1/2+x,1/2+y,z
1/2-x,-y,1/2+z
1/2+x,1/2-y,-z
1/2-x,y,1/2-z
1/2-x,1/2-y,-z
1/2+x,y,1/2-z
1/2-x,1/2+y,z
1/2+x,-y,1/2+z
loop_
_atom_site_type_symbol
_atom_site_label
_atom_site_fract_x
_atom_site_fract_y
_atom_site_fract_z
Si Si1 0.844263 0.374656 0.585832
Si Si2 0.586135 0.168785 0.884859
Si Si3 0.205934 0.300189 0.931827
Si Si4 0.588198 0.486031 0.860691
Si Si5 0.915506 0.284122 0.727943
Si Si6 0.336216 0.903983 0.305551
O O1 0.765460 0.343726 0.625574
O O2 0.858032 0.432194 0.653550
O O3 0.911944 0.335297 0.636020
O O4 0.842403 0.382116 0.441759
O O5 0.500000 0.151639 0.931816
O O6 0.588645 0.232358 0.857249
O O7 0.604506 0.133361 0.767696
O O8 0.651927 0.160879 0.985693
O O9 0.153532 0.276617 0.824348
O O10 0.250000 0.250000 0.000000
O O11 0.500000 0.477970 0.807864
O O12 0.633788 0.534009 0.791631
O O13 0.579799 0.500000 0.000000
O O14 0.000000 0.286979 0.794552
O O15 0.250000 0.899174 0.250000
#
# Coordination Sequence:
#
# PCOD8264787 Si02
#       6
#    16  16  16  16  16  16
#     4  11  22  39  66  91 128 166 214 267 320 381
#     4  11  24  39  60  90 128 172 211 258 321 385
#     4  12  23  40  62  90 130 168 215 262 319 386
#     4   9  20  39  62  90 121 160 213 267 316 369
#     4  11  25  40  61  92 128 170 215 264 323 385
#     4  11  22  39  64  96 128 166 214 267 323 385
#
# _framework density 20.698404
#
# number of rings (size 3 to 8) (size 9 to 14) (size 15 to 20)
#    0.000    1.167    3.333    3.000    0.000    3.333 
#    0.000    0.000    0.000    0.000    0.000    4.667 
#    0.000    0.000    0.000    0.000    0.000    0.000 
#
# Total GULP energy -594925.811519 kJ/mol
# GULP energy per Si atom -12394.287740 kJ/mol
# Density = 2.065129 g / cm^3
# Si number density = 20.698404 Si / 1000 Ang^3
#
#
#
# Elastic Constant Matrix: (Units=GPa)
#
#
# Indices 1 2 3 4 5 6 
#
# 1 137.9205 38.1490 23.7456 0.0000 0.0000 0.0000
# 2 38.1490 122.8843 14.7947 0.0000 0.0000 0.0000
# 3 23.7456 14.7947 53.3382 0.0000 0.0000 0.0000
# 4 0.0000 0.0000 0.0000 28.7571 0.0000 0.0000
# 5 0.0000 0.0000 0.0000 0.0000 26.2170 0.0000
# 6 0.0000 0.0000 0.0000 0.0000 0.0000 17.5039
#
#
#
# Elastic Compliance Matrix: (Units=1/GPa)
#
#
# Indices 1 2 3 4 5 6 
#
# 1 0.008406 -0.002234 -0.003123 0.000000 0.000000 0.000000
# 2 -0.002234 0.009012 -0.001505 0.000000 0.000000 0.000000
# 3 -0.003123 -0.001505 0.020556 0.000000 0.000000 0.000000
# 4 0.000000 0.000000 0.000000 0.034774 0.000000 0.000000
# 5 0.000000 0.000000 0.000000 0.000000 0.038143 0.000000
# 6 0.000000 0.000000 0.000000 0.000000 0.000000 0.057130
#
#
# Mechanical properties :
#
#
# Convention : Reuss Voigt Hill
#
# Bulk Modulus (GPa) = 41.23555 51.94684 46.59119
# Shear Modulus (GPa) = 26.33948 30.32584 28.33266
#
# Velocity S-wave (km/s) = 3.57113 3.83185 3.70379
# Velocity P-wave (km/s) = 6.08024 6.68797 6.39133
#
# Compressibility (1/GPa) = 0.02425092
#
# Stress axis : x y z
#
# Youngs Moduli (GPa) = 118.96235 110.95806 48.64743
#
# Poissons Ratio (x) = 0.24784 0.15191
# Poissons Ratio (y) = 0.26572 0.07324
# Poissons Ratio (z) = 0.37148 0.16704
#
# Static dielectric constant tensor:
#      x y z
#    x 4.183730 0.000000 0.000000 
#    y 0.000000 3.890330 0.000000 
#    z 0.000000 0.000000 3.509660 
# 
# 
# High freq. dielectric constant tensor:
#      x y z
#    x 1.830630 0.000000 0.000000 
#    y 0.000000 1.809520 0.000000 
#    z 0.000000 0.000000 1.790080 
# 
# From -- ./inp_files/16203.got.cif
#   From: 2010.03.12/outbox.cif.g09.slc.cpg/sg64_9_cif.got.tgz:16203.got - 2010.04.10 20:19:32.
