data_PCOD8264668
_publ_section_title
;
Structure prediction by ZEFSAII (Michael W. Deem and Ramdas Pophale) SiO2 
 PCOD8264668
Probable space group: C M C A
;
_chemical_formula_sum "Si O2"
_cell_formula_units_Z 112
_cell_length_a 20.433148
_cell_length_b 21.183403
_cell_length_c 11.793528
_cell_angle_alpha 90.000000
_cell_angle_beta 90.000000
_cell_angle_gamma 90.000000
_cell_volume 5104.753218
_symmetry_space_group_name_H-M "C M C A"
_symmetry_group_IT_number 64
_symmetry_cell_setting 'orthorhombic'
loop_
_space_group_symop_operation_xyz
x,y,z
-x,1/2-y,1/2+z
x,-y,-z
-x,1/2+y,1/2-z
-x,-y,-z
x,1/2+y,1/2-z
-x,y,z
x,1/2-y,1/2+z
1/2+x,1/2+y,z
1/2-x,-y,1/2+z
1/2+x,1/2-y,-z
1/2-x,y,1/2-z
1/2-x,1/2-y,-z
1/2+x,y,1/2-z
1/2-x,1/2+y,z
1/2+x,-y,1/2+z
loop_
_atom_site_type_symbol
_atom_site_label
_atom_site_fract_x
_atom_site_fract_y
_atom_site_fract_z
Si Si1 0.927194 0.636422 0.162482
Si Si2 0.428239 0.729131 0.918703
Si Si3 0.810475 0.369713 0.681122
Si Si4 0.233000 0.877224 0.054445
Si Si5 0.127197 0.067965 0.548445
Si Si6 0.129959 0.134267 0.759746
Si Si7 0.184771 0.738407 0.907926
O O1 0.925707 0.712171 0.167568
O O2 0.877831 0.610310 0.257670
O O3 0.000000 0.610343 0.188171
O O4 0.905065 0.618715 0.035639
O O5 0.500000 0.726973 0.979082
O O6 0.422458 0.665224 0.844029
O O7 0.368912 0.732782 0.006056
O O8 0.750000 0.400129 0.750000
O O9 0.811555 0.396622 0.553280
O O10 0.796557 0.294389 0.677443
O O11 0.294859 0.923210 0.053292
O O12 0.192903 0.888943 0.169083
O O13 0.253142 0.801368 0.036096
O O14 0.100884 0.077831 0.679098
O O15 0.107760 0.000000 0.500000
O O16 0.153398 0.183623 0.666397
#
# Coordination Sequence:
#
# PCOD8264668 Si02
#       7
#    16  16  16  16  16  16  16
#     4  11  24  41  61  95 130 173 224 272 332 402
#     4  11  22  36  57  89 133 174 213 267 334 409
#     4  12  20  35  62  91 129 170 215 267 340 407
#     4  11  22  39  59  95 132 169 223 277 337 393
#     4  11  24  46  68  94 128 175 229 282 333 399
#     4  11  22  39  62  97 134 172 215 278 346 401
#     4  11  20  33  58  89 131 169 203 259 330 405
#
# _framework density 21.940335999999999
#
# number of rings (size 3 to 8) (size 9 to 14) (size 15 to 20)
#    0.000    0.857    7.143    3.000    0.000    2.000 
#    5.143    0.000    0.000    0.000    0.000    1.000 
#    0.000    0.000    0.000    0.000    0.000    0.000 
#
# Total GULP energy -694077.837518 kJ/mol
# GULP energy per Si atom -12394.247099 kJ/mol
# Density = 2.189040 g / cm^3
# Si number density = 21.940336 Si / 1000 Ang^3
#
#
#
# Elastic Constant Matrix: (Units=GPa)
#
#
# Indices 1 2 3 4 5 6 
#
# 1 135.7872 3.4841 56.0373 0.0000 0.0000 0.0000
# 2 3.4841 53.9868 20.5767 0.0000 0.0000 0.0000
# 3 56.0373 20.5767 136.0761 0.0000 0.0000 0.0000
# 4 0.0000 0.0000 0.0000 25.4159 0.0000 0.0000
# 5 0.0000 0.0000 0.0000 0.0000 17.5083 0.0000
# 6 0.0000 0.0000 0.0000 0.0000 0.0000 10.4919
#
#
#
# Elastic Compliance Matrix: (Units=1/GPa)
#
#
# Indices 1 2 3 4 5 6 
#
# 1 0.008911 0.000874 -0.003802 0.000000 0.000000 0.000000
# 2 0.000874 0.019742 -0.003345 0.000000 0.000000 0.000000
# 3 -0.003802 -0.003345 0.009420 0.000000 0.000000 0.000000
# 4 0.000000 0.000000 0.000000 0.039345 0.000000 0.000000
# 5 0.000000 0.000000 0.000000 0.000000 0.057116 0.000000
# 6 0.000000 0.000000 0.000000 0.000000 0.000000 0.095311
#
#
# Mechanical properties :
#
#
# Convention : Reuss Voigt Hill
#
# Bulk Modulus (GPa) = 39.17425 54.00512 46.58968
# Shear Modulus (GPa) = 19.92823 27.06669 23.49746
#
# Velocity S-wave (km/s) = 3.01706 3.51615 3.27612
# Velocity P-wave (km/s) = 5.48001 6.41501 5.96585
#
# Compressibility (1/GPa) = 0.02552698
#
# Stress axis : x y z
#
# Youngs Moduli (GPa) = 112.22117 50.65439 106.15416
#
# Poissons Ratio (x) = -0.04427 0.40357
# Poissons Ratio (y) = -0.09807 0.35510
# Poissons Ratio (z) = 0.42664 0.16944
#
# Static dielectric constant tensor:
#      x y z
#    x 3.949220 0.000000 0.000000 
#    y 0.000000 3.707700 0.000000 
#    z 0.000000 0.000000 4.247690 
# 
# 
# High freq. dielectric constant tensor:
#      x y z
#    x 1.853990 0.000000 0.000000 
#    y 0.000000 1.815290 0.000000 
#    z 0.000000 0.000000 1.874020 
# 
# From -- ./inp_files/17533.got.cif
#   From: 2010.03.12/outbox.cif.g09.slc.cpg/sg64_9_cif.got.tgz:17533.got - 2010.04.10 20:19:32.
