data_PCOD8264398
_publ_section_title
;
Structure prediction by ZEFSAII (Michael W. Deem and Ramdas Pophale) SiO2 
 PCOD8264398
Probable space group: C M C A
;
_chemical_formula_sum "Si O2"
_cell_formula_units_Z 64
_cell_length_a 17.991471
_cell_length_b 14.289804
_cell_length_c 9.722583
_cell_angle_alpha 90.000000
_cell_angle_beta 90.000000
_cell_angle_gamma 90.000000
_cell_volume 2499.623532
_symmetry_space_group_name_H-M "C M C A"
_symmetry_group_IT_number 64
_symmetry_cell_setting 'orthorhombic'
loop_
_space_group_symop_operation_xyz
x,y,z
-x,1/2-y,1/2+z
x,-y,-z
-x,1/2+y,1/2-z
-x,-y,-z
x,1/2+y,1/2-z
-x,y,z
x,1/2-y,1/2+z
1/2+x,1/2+y,z
1/2-x,-y,1/2+z
1/2+x,1/2-y,-z
1/2-x,y,1/2-z
1/2-x,1/2-y,-z
1/2+x,y,1/2-z
1/2-x,1/2+y,z
1/2+x,-y,1/2+z
loop_
_atom_site_type_symbol
_atom_site_label
_atom_site_fract_x
_atom_site_fract_y
_atom_site_fract_z
Si Si1 0.725267 0.918663 0.100200
Si Si2 0.083964 0.061233 0.736528
Si Si3 0.145050 0.702710 0.549210
Si Si4 0.413515 0.342725 0.757931
O O1 0.750000 0.952970 0.250000
O O2 0.636041 0.903267 0.109981
O O3 0.766410 0.822689 0.056222
O O4 0.749967 0.000000 0.000000
O O5 0.099656 0.119511 0.874722
O O6 0.000000 0.076710 0.686806
O O7 0.100663 0.952800 0.767507
O O8 0.116787 0.708893 0.393713
O O9 0.131540 0.800849 0.627585
O O10 0.500000 0.318010 0.740858
#
# Coordination Sequence:
#
# PCOD8264398 Si02
#       4
#    16  16  16  16
#     4  10  22  43  67  96 133 178 226 273 332 400
#     4  10  22  43  70  99 136 180 227 280 339 404
#     4  11  23  44  69 100 139 177 226 282 341 409
#     4  11  23  41  71 105 137 178 225 279 343 409
#
# _framework density 25.603854999999999
#
# number of rings (size 3 to 8) (size 9 to 14) (size 15 to 20)
#    0.000    1.500    0.000    6.000    0.000    6.500 
#    0.000   33.750    0.000    0.000    0.000    0.000 
#    0.000    0.000    0.000    0.000    0.000    0.000 
#
# Total GULP energy -396880.419725 kJ/mol
# GULP energy per Si atom -12402.513116 kJ/mol
# Density = 2.554558 g / cm^3
# Si number density = 25.603855 Si / 1000 Ang^3
#
#
#
# Elastic Constant Matrix: (Units=GPa)
#
#
# Indices 1 2 3 4 5 6 
#
# 1 137.3810 9.6048 21.7806 0.0000 0.0000 0.0000
# 2 9.6048 114.6791 15.4892 0.0000 0.0000 0.0000
# 3 21.7806 15.4892 85.7680 0.0000 0.0000 0.0000
# 4 0.0000 0.0000 0.0000 37.0844 0.0000 0.0000
# 5 0.0000 0.0000 0.0000 0.0000 8.7286 0.0000
# 6 0.0000 0.0000 0.0000 0.0000 0.0000 29.7364
#
#
#
# Elastic Compliance Matrix: (Units=1/GPa)
#
#
# Indices 1 2 3 4 5 6 
#
# 1 0.007601 -0.000385 -0.001861 0.000000 0.000000 0.000000
# 2 -0.000385 0.008958 -0.001520 0.000000 0.000000 0.000000
# 3 -0.001861 -0.001520 0.012406 0.000000 0.000000 0.000000
# 4 0.000000 0.000000 0.000000 0.026965 0.000000 0.000000
# 5 0.000000 0.000000 0.000000 0.000000 0.114565 0.000000
# 6 0.000000 0.000000 0.000000 0.000000 0.000000 0.033629
#
#
# Mechanical properties :
#
#
# Convention : Reuss Voigt Hill
#
# Bulk Modulus (GPa) = 46.65648 47.95303 47.30476
# Shear Modulus (GPa) = 22.85188 34.50680 28.67934
#
# Velocity S-wave (km/s) = 2.99074 3.67511 3.35045
# Velocity P-wave (km/s) = 5.49437 6.06449 5.78646
#
# Compressibility (1/GPa) = 0.02143325
#
# Stress axis : x y z
#
# Youngs Moduli (GPa) = 131.56237 111.63785 80.60396
#
# Poissons Ratio (x) = 0.04301 0.14998
# Poissons Ratio (y) = 0.05069 0.12250
# Poissons Ratio (z) = 0.24479 0.16967
#
# Static dielectric constant tensor:
#      x y z
#    x 5.378400 0.000000 0.000000 
#    y 0.000000 4.591230 0.000000 
#    z 0.000000 0.000000 4.461410 
# 
# 
# High freq. dielectric constant tensor:
#      x y z
#    x 2.038470 0.000000 0.000000 
#    y 0.000000 2.037720 0.000000 
#    z 0.000000 0.000000 2.020440 
# 
# From -- ./inp_files/15488.got.cif
#   From: 2010.03.12/outbox.cif.g09.slc.cpg/sg64_8_cif.got.tgz:15488.got - 2010.04.10 20:19:32.
