data_PCOD8264163
_publ_section_title
;
Structure prediction by ZEFSAII (Michael W. Deem and Ramdas Pophale) SiO2 
 PCOD8264163
Probable space group: C M C A
;
_chemical_formula_sum "Si O2"
_cell_formula_units_Z 72
_cell_length_a 28.050667
_cell_length_b 8.544076
_cell_length_c 13.661678
_cell_angle_alpha 90.000000
_cell_angle_beta 90.000000
_cell_angle_gamma 90.000000
_cell_volume 3274.253801
_symmetry_space_group_name_H-M "C M C A"
_symmetry_group_IT_number 64
_symmetry_cell_setting 'orthorhombic'
loop_
_space_group_symop_operation_xyz
x,y,z
-x,1/2-y,1/2+z
x,-y,-z
-x,1/2+y,1/2-z
-x,-y,-z
x,1/2+y,1/2-z
-x,y,z
x,1/2-y,1/2+z
1/2+x,1/2+y,z
1/2-x,-y,1/2+z
1/2+x,1/2-y,-z
1/2-x,y,1/2-z
1/2-x,1/2-y,-z
1/2+x,y,1/2-z
1/2-x,1/2+y,z
1/2+x,-y,1/2+z
loop_
_atom_site_type_symbol
_atom_site_label
_atom_site_fract_x
_atom_site_fract_y
_atom_site_fract_z
Si Si1 0.813832 0.340909 0.831831
Si Si2 0.877136 0.338443 0.453347
Si Si3 0.403141 0.990638 0.735821
Si Si4 0.554716 0.777019 0.119022
Si Si5 0.250000 0.079634 0.750000
O O1 0.835669 0.293455 0.938280
O O2 0.853325 0.404260 0.756114
O O3 0.771241 0.468401 0.837230
O O4 0.793772 0.179072 0.789245
O O5 0.857191 0.500000 0.500000
O O6 0.897073 0.372221 0.344680
O O7 0.918109 0.263795 0.519115
O O8 0.440981 0.866005 0.694764
O O9 0.423494 0.064984 0.835290
O O10 0.500000 0.805203 0.092117
#
# Coordination Sequence:
#
# PCOD8264163 Si02
#       5
#    16  16  16  16   8
#     4  11  20  43  67 103 129 178 215 276 345 389
#     4  10  23  41  67  97 140 178 216 276 340 394
#     4  11  21  43  70  91 139 184 216 277 341 393
#     4  11  24  41  68 100 133 182 235 276 323 401
#     4  10  22  36  80 100 126 172 234 276 324 422
#
# _framework density 21.989744000000002
#
# number of rings (size 3 to 8) (size 9 to 14) (size 15 to 20)
#    0.000    1.333    4.444    0.667    0.000    5.778 
#    0.000    2.222    0.000    0.000    0.000    0.000 
#    0.000    0.000    0.000    0.000    0.000    0.000 
#
# Total GULP energy -446293.984647 kJ/mol
# GULP energy per Si atom -12397.055129 kJ/mol
# Density = 2.193969 g / cm^3
# Si number density = 21.989744 Si / 1000 Ang^3
#
#
#
# Elastic Constant Matrix: (Units=GPa)
#
#
# Indices 1 2 3 4 5 6 
#
# 1 148.2309 83.0579 69.0164 0.0000 0.0000 0.0000
# 2 83.0579 118.1952 57.0562 0.0000 0.0000 0.0000
# 3 69.0164 57.0562 110.9090 0.0000 0.0000 0.0000
# 4 0.0000 0.0000 0.0000 41.9303 0.0000 0.0000
# 5 0.0000 0.0000 0.0000 0.0000 35.7146 0.0000
# 6 0.0000 0.0000 0.0000 0.0000 0.0000 41.8376
#
#
#
# Elastic Compliance Matrix: (Units=1/GPa)
#
#
# Indices 1 2 3 4 5 6 
#
# 1 0.012526 -0.006705 -0.004346 0.000000 0.000000 0.000000
# 2 -0.006705 0.014845 -0.003464 0.000000 0.000000 0.000000
# 3 -0.004346 -0.003464 0.013503 0.000000 0.000000 0.000000
# 4 0.000000 0.000000 0.000000 0.023849 0.000000 0.000000
# 5 0.000000 0.000000 0.000000 0.000000 0.028000 0.000000
# 6 0.000000 0.000000 0.000000 0.000000 0.000000 0.023902
#
#
# Mechanical properties :
#
#
# Convention : Reuss Voigt Hill
#
# Bulk Modulus (GPa) = 84.43053 88.39955 86.41504
# Shear Modulus (GPa) = 33.42190 35.11016 34.26603
#
# Velocity S-wave (km/s) = 3.90280 4.00016 3.95178
# Velocity P-wave (km/s) = 7.66733 7.85001 7.75921
#
# Compressibility (1/GPa) = 0.01184406
#
# Stress axis : x y z
#
# Youngs Moduli (GPa) = 79.83082 67.36501 74.05808
#
# Poissons Ratio (x) = 0.45167 0.32184
# Poissons Ratio (y) = 0.53525 0.25657
# Poissons Ratio (z) = 0.34693 0.23338
#
# Static dielectric constant tensor:
#      x y z
#    x 3.865450 0.000000 0.000000 
#    y 0.000000 4.264150 0.000000 
#    z 0.000000 0.000000 3.749720 
# 
# 
# High freq. dielectric constant tensor:
#      x y z
#    x 1.859130 0.000000 0.000000 
#    y 0.000000 1.888350 0.000000 
#    z 0.000000 0.000000 1.839590 
# 
# From -- ./inp_files/28268.got.cif
#   From: 2010.03.12/outbox.cif.g09.slc.cpg/sg64_15_cif.got.tgz:28268.got - 2010.04.10 20:19:32.
