data_PCOD8264124
_publ_section_title
;
Structure prediction by ZEFSAII (Michael W. Deem and Ramdas Pophale) SiO2 
 PCOD8264124
Probable space group: C M C A
;
_chemical_formula_sum "Si O2"
_cell_formula_units_Z 96
_cell_length_a 15.843214
_cell_length_b 13.140905
_cell_length_c 19.829084
_cell_angle_alpha 90.000000
_cell_angle_beta 90.000000
_cell_angle_gamma 90.000000
_cell_volume 4128.299687
_symmetry_space_group_name_H-M "C M C A"
_symmetry_group_IT_number 64
_symmetry_cell_setting 'orthorhombic'
loop_
_space_group_symop_operation_xyz
x,y,z
-x,1/2-y,1/2+z
x,-y,-z
-x,1/2+y,1/2-z
-x,-y,-z
x,1/2+y,1/2-z
-x,y,z
x,1/2-y,1/2+z
1/2+x,1/2+y,z
1/2-x,-y,1/2+z
1/2+x,1/2-y,-z
1/2-x,y,1/2-z
1/2-x,1/2-y,-z
1/2+x,y,1/2-z
1/2-x,1/2+y,z
1/2+x,-y,1/2+z
loop_
_atom_site_type_symbol
_atom_site_label
_atom_site_fract_x
_atom_site_fract_y
_atom_site_fract_z
Si Si1 0.500000 0.969964 0.094949
Si Si2 0.141258 0.670933 0.966650
Si Si3 0.676393 0.733687 0.799056
Si Si4 0.000000 0.701003 0.057941
Si Si5 0.179070 0.492952 0.695155
Si Si6 0.746253 0.347091 0.912567
Si Si7 0.000000 0.781732 0.205759
Si Si8 0.000000 0.003671 0.245704
O O1 0.586973 0.911173 0.076128
O O2 0.500000 0.990162 0.174326
O O3 0.500000 0.076872 0.056588
O O4 0.181040 0.752684 0.916028
O O5 0.081429 0.735830 0.015998
O O6 0.214604 0.620971 0.014680
O O7 0.750000 0.769275 0.750000
O O8 0.679984 0.614299 0.816570
O O9 0.678592 0.803523 0.865459
O O10 0.586598 0.760365 0.761761
O O11 0.000000 0.754468 0.128051
O O12 0.250000 0.463465 0.750000
O O13 0.201712 0.443467 0.622738
O O14 0.089002 0.446758 0.721604
O O15 0.000000 0.900400 0.205905
#
# Coordination Sequence:
#
# PCOD8264124 Si02
#       8
#     8  16  16   8  16  16   8   8
#     4  11  26  43  69 104 137 175 235 294 350 407
#     4  10  24  41  62  98 136 176 224 278 340 401
#     4  10  22  40  68  96 131 174 223 290 344 405
#     4  11  22  43  70  94 129 180 228 282 337 412
#     4  10  24  43  70 101 134 176 232 288 355 424
#     4  11  23  42  67  97 137 183 227 279 344 421
#     4  10  21  43  67  92 132 173 223 282 343 415
#     4  10  25  45  68 105 137 180 229 296 361 411
#
# _framework density 23.254125999999999
#
# number of rings (size 3 to 8) (size 9 to 14) (size 15 to 20)
#    0.000    1.667    1.667    1.500    9.333    4.000 
#    0.000    2.500    0.000    2.000    0.000    0.000 
#    0.000    0.000    0.000    0.000    0.000    0.000 
#
# Total GULP energy -594691.228509 kJ/mol
# GULP energy per Si atom -12389.400594 kJ/mol
# Density = 2.320120 g / cm^3
# Si number density = 23.254126 Si / 1000 Ang^3
#
#
#
# Elastic Constant Matrix: (Units=GPa)
#
#
# Indices 1 2 3 4 5 6 
#
# 1 150.9229 -19.3769 9.5804 0.0000 0.0000 0.0000
# 2 -19.3769 34.5736 -4.9834 0.0000 0.0000 0.0000
# 3 9.5804 -4.9834 50.3040 0.0000 0.0000 0.0000
# 4 0.0000 0.0000 0.0000 47.6132 0.0000 0.0000
# 5 0.0000 0.0000 0.0000 0.0000 36.2924 0.0000
# 6 0.0000 0.0000 0.0000 0.0000 0.0000 -9.3707
#
#
#
# Elastic Compliance Matrix: (Units=1/GPa)
#
#
# Indices 1 2 3 4 5 6 
#
# 1 0.007187 0.003886 -0.000984 0.000000 0.000000 0.000000
# 2 0.003886 0.031444 0.002375 0.000000 0.000000 0.000000
# 3 -0.000984 0.002375 0.020302 0.000000 0.000000 0.000000
# 4 0.000000 0.000000 0.000000 0.021003 0.000000 0.000000
# 5 0.000000 0.000000 0.000000 0.000000 0.027554 0.000000
# 6 0.000000 0.000000 0.000000 0.000000 0.000000 -0.106716
#
#
# Mechanical properties :
#
#
# Convention : Reuss Voigt Hill
#
# Bulk Modulus (GPa) = 14.39092 22.91562 18.65327
# Shear Modulus (GPa) = 373.63697 31.61234 202.62466
#
# Velocity S-wave (km/s) = 12.68954 3.69104 9.34474
# Velocity P-wave (km/s) = 14.86274 5.29537 11.15666
#
# Compressibility (1/GPa) = 0.06948826
#
# Stress axis : x y z
#
# Youngs Moduli (GPa) = 139.13395 31.80230 49.25674
#
# Poissons Ratio (x) = -0.12359 0.04846
# Poissons Ratio (y) = -0.54072 -0.11698
# Poissons Ratio (z) = 0.13688 -0.07553
#
# Static dielectric constant tensor:
#      x y z
#    x 5.004910 0.000000 0.000000 
#    y 0.000000 4.030310 0.000000 
#    z 0.000000 0.000000 4.041240 
# 
# 
# High freq. dielectric constant tensor:
#      x y z
#    x 1.945520 0.000000 0.000000 
#    y 0.000000 1.910550 0.000000 
#    z 0.000000 0.000000 1.911180 
# 
# From -- ./inp_files/39294.got.cif
#   From: 2010.03.12/outbox.cif.g09.slc.cpg/sg64_20_cif.got.tgz:39294.got - 2010.04.10 20:19:32.
