data_PCOD8264339
_publ_section_title
;
Structure prediction by ZEFSAII (Michael W. Deem and Ramdas Pophale) SiO2 
 PCOD8264339
Probable space group: C M C A
;
_chemical_formula_sum "Si O2"
_cell_formula_units_Z 56
_cell_length_a 20.245115
_cell_length_b 18.970925
_cell_length_c 7.435698
_cell_angle_alpha 90.000000
_cell_angle_beta 90.000000
_cell_angle_gamma 90.000000
_cell_volume 2855.817811
_symmetry_space_group_name_H-M "C M C A"
_symmetry_group_IT_number 64
_symmetry_cell_setting 'orthorhombic'
loop_
_space_group_symop_operation_xyz
x,y,z
-x,1/2-y,1/2+z
x,-y,-z
-x,1/2+y,1/2-z
-x,-y,-z
x,1/2+y,1/2-z
-x,y,z
x,1/2-y,1/2+z
1/2+x,1/2+y,z
1/2-x,-y,1/2+z
1/2+x,1/2-y,-z
1/2-x,y,1/2-z
1/2-x,1/2-y,-z
1/2+x,y,1/2-z
1/2-x,1/2+y,z
1/2+x,-y,1/2+z
loop_
_atom_site_type_symbol
_atom_site_label
_atom_site_fract_x
_atom_site_fract_y
_atom_site_fract_z
Si Si1 0.250000 0.633090 0.750000
Si Si2 0.137409 0.579752 0.964913
Si Si3 0.925513 0.169147 0.239682
Si Si4 0.386269 0.324363 0.160050
O O1 0.214589 0.584510 0.903150
O O2 0.305900 0.682035 0.844056
O O3 0.093392 0.614981 0.804859
O O4 0.115677 0.500000 0.000000
O O5 0.126366 0.623907 0.146329
O O6 0.916899 0.251565 0.275485
O O7 0.000000 0.147152 0.290479
O O8 0.913615 0.152492 0.031384
#
# Coordination Sequence:
#
# PCOD8264339 Si02
#       4
#     8  16  16  16
#     4   8  22  42  62  96 124 168 208 270 320 386
#     4  10  24  44  65  98 132 169 213 270 332 378
#     4  12  24  40  68  96 133 174 216 269 315 386
#     4  10  22  41  65  99 124 172 217 262 327 377
#
# _framework density 19.609096000000001
#
# number of rings (size 3 to 8) (size 9 to 14) (size 15 to 20)
#    1.714    0.000    2.857    0.857    0.000   10.857 
#    0.000    1.429    0.000    0.000    0.000    0.000 
#    0.000    0.000    0.000    0.000    0.000    0.000 
#
# Total GULP energy -346979.100752 kJ/mol
# GULP energy per Si atom -12392.110741 kJ/mol
# Density = 1.956446 g / cm^3
# Si number density = 19.609096 Si / 1000 Ang^3
#
#
#
# Elastic Constant Matrix: (Units=GPa)
#
#
# Indices 1 2 3 4 5 6 
#
# 1 85.7166 30.8576 24.1485 0.0000 0.0000 0.0000
# 2 30.8576 108.7995 62.4399 0.0000 0.0000 0.0000
# 3 24.1485 62.4399 140.1368 0.0000 0.0000 0.0000
# 4 0.0000 0.0000 0.0000 32.2807 0.0000 0.0000
# 5 0.0000 0.0000 0.0000 0.0000 28.3119 0.0000
# 6 0.0000 0.0000 0.0000 0.0000 0.0000 7.1598
#
#
#
# Elastic Compliance Matrix: (Units=1/GPa)
#
#
# Indices 1 2 3 4 5 6 
#
# 1 0.013060 -0.003241 -0.000806 0.000000 0.000000 0.000000
# 2 -0.003241 0.013153 -0.005302 0.000000 0.000000 0.000000
# 3 -0.000806 -0.005302 0.009637 0.000000 0.000000 0.000000
# 4 0.000000 0.000000 0.000000 0.030978 0.000000 0.000000
# 5 0.000000 0.000000 0.000000 0.000000 0.035321 0.000000
# 6 0.000000 0.000000 0.000000 0.000000 0.000000 0.139669
#
#
# Mechanical properties :
#
#
# Convention : Reuss Voigt Hill
#
# Bulk Modulus (GPa) = 58.30444 63.28277 60.79361
# Shear Modulus (GPa) = 18.78033 28.03094 23.40564
#
# Velocity S-wave (km/s) = 3.09809 3.78496 3.45862
# Velocity P-wave (km/s) = 6.52652 7.17241 6.85707
#
# Compressibility (1/GPa) = 0.01715135
#
# Stress axis : x y z
#
# Youngs Moduli (GPa) = 76.56726 76.02575 103.76388
#
# Poissons Ratio (x) = 0.24643 0.08367
# Poissons Ratio (y) = 0.24819 0.55017
# Poissons Ratio (z) = 0.06174 0.40310
#
# Static dielectric constant tensor:
#      x y z
#    x 3.469070 0.000000 0.000000 
#    y 0.000000 3.251810 0.000000 
#    z 0.000000 0.000000 3.675410 
# 
# 
# High freq. dielectric constant tensor:
#      x y z
#    x 1.756120 0.000000 0.000000 
#    y 0.000000 1.742320 0.000000 
#    z 0.000000 0.000000 1.774850 
# 
# From -- ./inp_files/7724.got.cif
#   From: 2010.03.12/outbox.cif.g09.slc.cpg/sg64_4_cif.got.tgz:7724.got - 2010.04.10 20:19:32.
