data_PCOD8264461
_publ_section_title
;
Structure prediction by ZEFSAII (Michael W. Deem and Ramdas Pophale) SiO2 
 PCOD8264461
Probable space group: C M C A
;
_chemical_formula_sum "Si O2"
_cell_formula_units_Z 80
_cell_length_a 13.249325
_cell_length_b 13.429967
_cell_length_c 23.157287
_cell_angle_alpha 90.000000
_cell_angle_beta 90.000000
_cell_angle_gamma 90.000000
_cell_volume 4120.561277
_symmetry_space_group_name_H-M "C M C A"
_symmetry_group_IT_number 64
_symmetry_cell_setting 'orthorhombic'
loop_
_space_group_symop_operation_xyz
x,y,z
-x,1/2-y,1/2+z
x,-y,-z
-x,1/2+y,1/2-z
-x,-y,-z
x,1/2+y,1/2-z
-x,y,z
x,1/2-y,1/2+z
1/2+x,1/2+y,z
1/2-x,-y,1/2+z
1/2+x,1/2-y,-z
1/2-x,y,1/2-z
1/2-x,1/2-y,-z
1/2+x,y,1/2-z
1/2-x,1/2+y,z
1/2+x,-y,1/2+z
loop_
_atom_site_type_symbol
_atom_site_label
_atom_site_fract_x
_atom_site_fract_y
_atom_site_fract_z
Si Si1 0.886562 0.247100 0.285923
Si Si2 0.785840 0.100059 0.965089
Si Si3 0.883486 0.753841 0.949779
Si Si4 0.309509 0.836006 0.670626
Si Si5 0.616162 0.047909 0.655711
O O1 0.810967 0.182017 0.325430
O O2 0.864673 0.231912 0.218273
O O3 0.872535 0.364062 0.298023
O O4 0.000000 0.212558 0.301319
O O5 0.677708 0.152648 0.959187
O O6 0.829123 0.078246 0.902655
O O7 0.865397 0.170707 0.997526
O O8 0.767321 0.000000 0.000000
O O9 0.849461 0.808826 0.891899
O O10 0.000000 0.724754 0.946800
O O11 0.331326 0.951451 0.683492
O O12 0.500000 0.023312 0.641941
#
# Coordination Sequence:
#
# PCOD8264461 Si02
#       5
#    16  16  16  16  16
#     4  10  23  41  62  88 124 163 200 250 307 359
#     4  11  23  40  62  91 124 161 205 254 303 366
#     4  11  23  40  64  92 124 161 202 255 309 361
#     4  11  22  40  66  92 123 157 211 254 299 362
#     4  11  22  40  64  91 122 163 208 251 301 364
#
# _framework density 19.414829999999998
#
# number of rings (size 3 to 8) (size 9 to 14) (size 15 to 20)
#    0.000    1.200    4.000    2.400    0.000    4.400 
#    0.000    1.000    0.000    0.000    0.000    0.000 
#    0.000    0.000    0.000    0.000    0.000    0.000 
#
# Total GULP energy -496192.570051 kJ/mol
# GULP energy per Si atom -12404.814251 kJ/mol
# Density = 1.937064 g / cm^3
# Si number density = 19.414830 Si / 1000 Ang^3
#
#
#
# Elastic Constant Matrix: (Units=GPa)
#
#
# Indices 1 2 3 4 5 6 
#
# 1 161.5073 62.6476 30.7208 0.0000 0.0000 0.0000
# 2 62.6476 129.7028 41.8756 0.0000 0.0000 0.0000
# 3 30.7208 41.8756 94.3309 0.0000 0.0000 0.0000
# 4 0.0000 0.0000 0.0000 39.1715 0.0000 0.0000
# 5 0.0000 0.0000 0.0000 0.0000 60.3860 0.0000
# 6 0.0000 0.0000 0.0000 0.0000 0.0000 30.2535
#
#
#
# Elastic Compliance Matrix: (Units=1/GPa)
#
#
# Indices 1 2 3 4 5 6 
#
# 1 0.007699 -0.003396 -0.001000 0.000000 0.000000 0.000000
# 2 -0.003396 0.010498 -0.003554 0.000000 0.000000 0.000000
# 3 -0.001000 -0.003554 0.012504 0.000000 0.000000 0.000000
# 4 0.000000 0.000000 0.000000 0.025529 0.000000 0.000000
# 5 0.000000 0.000000 0.000000 0.000000 0.016560 0.000000
# 6 0.000000 0.000000 0.000000 0.000000 0.000000 0.033054
#
#
# Mechanical properties :
#
#
# Convention : Reuss Voigt Hill
#
# Bulk Modulus (GPa) = 67.56192 72.89210 70.22701
# Shear Modulus (GPa) = 39.47022 42.64868 41.05945
#
# Velocity S-wave (km/s) = 4.51376 4.69199 4.60374
# Velocity P-wave (km/s) = 7.87655 8.18407 8.03179
#
# Compressibility (1/GPa) = 0.01480124
#
# Stress axis : x y z
#
# Youngs Moduli (GPa) = 129.88514 95.25897 79.97189
#
# Poissons Ratio (x) = 0.32349 0.07996
# Poissons Ratio (y) = 0.44108 0.28424
# Poissons Ratio (z) = 0.12987 0.33857
#
# Static dielectric constant tensor:
#      x y z
#    x 3.732370 0.000000 0.000000 
#    y 0.000000 3.951370 0.000000 
#    z 0.000000 0.000000 3.710510 
# 
# 
# High freq. dielectric constant tensor:
#      x y z
#    x 1.764070 0.000000 0.000000 
#    y 0.000000 1.760140 0.000000 
#    z 0.000000 0.000000 1.762870 
# 
# From -- ./inp_files/43955.got.cif
#   From: 2010.03.12/outbox.cif.g09.slc.cpg/sg64_22_cif.got.tgz:43955.got - 2010.04.10 20:19:32.
