data_PCOD8264071
_publ_section_title
;
Structure prediction by ZEFSAII (Michael W. Deem and Ramdas Pophale) SiO2 
 PCOD8264071
Probable space group: C M C A
;
_chemical_formula_sum "Si O2"
_cell_formula_units_Z 72
_cell_length_a 9.757190
_cell_length_b 16.498949
_cell_length_c 21.589547
_cell_angle_alpha 90.000000
_cell_angle_beta 90.000000
_cell_angle_gamma 90.000000
_cell_volume 3475.558253
_symmetry_space_group_name_H-M "C M C A"
_symmetry_group_IT_number 64
_symmetry_cell_setting 'orthorhombic'
loop_
_space_group_symop_operation_xyz
x,y,z
-x,1/2-y,1/2+z
x,-y,-z
-x,1/2+y,1/2-z
-x,-y,-z
x,1/2+y,1/2-z
-x,y,z
x,1/2-y,1/2+z
1/2+x,1/2+y,z
1/2-x,-y,1/2+z
1/2+x,1/2-y,-z
1/2-x,y,1/2-z
1/2-x,1/2-y,-z
1/2+x,y,1/2-z
1/2-x,1/2+y,z
1/2+x,-y,1/2+z
loop_
_atom_site_type_symbol
_atom_site_label
_atom_site_fract_x
_atom_site_fract_y
_atom_site_fract_z
Si Si1 0.722788 0.515424 0.429434
Si Si2 0.000000 0.748865 0.843348
Si Si3 0.767024 0.154851 0.878639
Si Si4 0.500000 0.216177 0.699121
Si Si5 0.500000 0.290290 0.032108
Si Si6 0.500000 0.639137 0.397598
Si Si7 0.000000 0.105334 0.083270
O O1 0.672996 0.500000 0.500000
O O2 0.710940 0.435924 0.386862
O O3 0.632981 0.583406 0.396103
O O4 0.876619 0.545592 0.428785
O O5 0.136622 0.713362 0.874694
O O6 0.000000 0.731353 0.771116
O O7 0.000000 0.847464 0.851038
O O8 0.863489 0.164914 0.817966
O O9 0.860539 0.175568 0.937807
O O10 0.500000 0.300849 0.661228
O O11 0.500000 0.192826 0.039305
O O12 0.500000 0.316453 0.961584
#
# Coordination Sequence:
#
# PCOD8264071 Si02
#       7
#    16   8  16   8   8   8   8
#     4  12  23  39  61  97 131 159 193 259 318 378
#     4  12  25  40  68  91 117 168 218 255 292 362
#     4  10  22  41  65  89 125 160 206 246 317 362
#     4  10  23  49  62  84 125 167 214 259 290 362
#     4  10  21  41  59  91 127 169 189 255 304 380
#     4  10  24  39  64  91 130 159 205 258 310 349
#     4  12  23  38  64  93 127 165 210 239 314 374
#
# _framework density 20.716096
#
# number of rings (size 3 to 8) (size 9 to 14) (size 15 to 20)
#    0.000    1.333    2.222    6.000    3.111    1.778 
#    0.000    6.667    0.000    0.000    0.000    0.000 
#    0.000    0.000    0.000    0.000    0.000    0.000 
#
# Total GULP energy -446392.766077 kJ/mol
# GULP energy per Si atom -12399.799058 kJ/mol
# Density = 2.066895 g / cm^3
# Si number density = 20.716096 Si / 1000 Ang^3
#
#
#
# Elastic Constant Matrix: (Units=GPa)
#
#
# Indices 1 2 3 4 5 6 
#
# 1 100.3442 9.4710 -0.5524 0.0000 0.0000 0.0000
# 2 9.4710 109.9792 16.1597 0.0000 0.0000 0.0000
# 3 -0.5524 16.1597 71.3851 0.0000 0.0000 0.0000
# 4 0.0000 0.0000 0.0000 23.7529 0.0000 0.0000
# 5 0.0000 0.0000 0.0000 0.0000 1.8465 0.0000
# 6 0.0000 0.0000 0.0000 0.0000 0.0000 41.3851
#
#
#
# Elastic Compliance Matrix: (Units=1/GPa)
#
#
# Indices 1 2 3 4 5 6 
#
# 1 0.010053 -0.000907 0.000283 0.000000 0.000000 0.000000
# 2 -0.000907 0.009487 -0.002155 0.000000 0.000000 0.000000
# 3 0.000283 -0.002155 0.014498 0.000000 0.000000 0.000000
# 4 0.000000 0.000000 0.000000 0.042100 0.000000 0.000000
# 5 0.000000 0.000000 0.000000 0.000000 0.541569 0.000000
# 6 0.000000 0.000000 0.000000 0.000000 0.000000 0.024163
#
#
# Mechanical properties :
#
#
# Convention : Reuss Voigt Hill
#
# Bulk Modulus (GPa) = 35.11109 36.87393 35.99251
# Shear Modulus (GPa) = 7.61125 30.50558 19.05842
#
# Velocity S-wave (km/s) = 1.91887 3.84155 3.03641
# Velocity P-wave (km/s) = 4.67920 6.12495 5.45022
#
# Compressibility (1/GPa) = 0.02848103
#
# Stress axis : x y z
#
# Youngs Moduli (GPa) = 99.47386 105.40335 68.97271
#
# Poissons Ratio (x) = 0.09564 -0.01953
# Poissons Ratio (y) = 0.09026 0.14862
# Poissons Ratio (z) = -0.02817 0.22711
#
# Static dielectric constant tensor:
#      x y z
#    x 3.842830 0.000000 0.000000 
#    y 0.000000 3.872490 0.000000 
#    z 0.000000 0.000000 3.488060 
# 
# 
# High freq. dielectric constant tensor:
#      x y z
#    x 1.832470 0.000000 0.000000 
#    y 0.000000 1.820140 0.000000 
#    z 0.000000 0.000000 1.783800 
# 
# From -- ./inp_files/42681.got.cif
#   From: 2010.03.12/outbox.cif.g09.slc.cpg/sg64_22_cif.got.tgz:42681.got - 2010.04.10 20:19:32.
