data_PCOD8264366
_publ_section_title
;
Structure prediction by ZEFSAII (Michael W. Deem and Ramdas Pophale) SiO2 
 PCOD8264366
Probable space group: C M C A
;
_chemical_formula_sum "Si O2"
_cell_formula_units_Z 80
_cell_length_a 8.973083
_cell_length_b 15.606987
_cell_length_c 28.402333
_cell_angle_alpha 90.000000
_cell_angle_beta 90.000000
_cell_angle_gamma 90.000000
_cell_volume 3977.541948
_symmetry_space_group_name_H-M "C M C A"
_symmetry_group_IT_number 64
_symmetry_cell_setting 'orthorhombic'
loop_
_space_group_symop_operation_xyz
x,y,z
-x,1/2-y,1/2+z
x,-y,-z
-x,1/2+y,1/2-z
-x,-y,-z
x,1/2+y,1/2-z
-x,y,z
x,1/2-y,1/2+z
1/2+x,1/2+y,z
1/2-x,-y,1/2+z
1/2+x,1/2-y,-z
1/2-x,y,1/2-z
1/2-x,1/2-y,-z
1/2+x,y,1/2-z
1/2-x,1/2+y,z
1/2+x,-y,1/2+z
loop_
_atom_site_type_symbol
_atom_site_label
_atom_site_fract_x
_atom_site_fract_y
_atom_site_fract_z
Si Si1 0.670576 0.713351 0.855714
Si Si2 0.671407 0.710260 0.455103
Si Si3 0.674891 0.967207 0.551801
Si Si4 0.824228 0.881368 0.699652
Si Si5 0.675902 0.543336 0.638378
O O1 0.500000 0.694537 0.841762
O O2 0.685313 0.724482 0.911838
O O3 0.729020 0.798165 0.829310
O O4 0.771564 0.633432 0.839227
O O5 0.500000 0.692030 0.467550
O O6 0.750000 0.750000 0.500000
O O7 0.748182 0.623141 0.439216
O O8 0.500000 0.957921 0.560117
O O9 0.712487 0.000000 0.500000
O O10 0.742491 0.034819 0.588288
O O11 0.750000 0.880324 0.750000
O O12 0.000000 0.881392 0.705895
O O13 0.772354 0.966501 0.672295
O O14 0.500000 0.543015 0.630506
#
# Coordination Sequence:
#
# PCOD8264366 Si02
#       5
#    16  16  16  16  16
#     4  10  22  42  63  88 127 165 202 256 312 366
#     4  11  22  38  59  87 126 166 208 258 309 369
#     4  11  23  38  58  88 125 166 210 256 311 370
#     4  10  23  44  66  91 125 163 207 260 317 370
#     4  11  23  41  64  93 126 163 209 259 311 374
#
# _framework density 20.112925000000001
#
# number of rings (size 3 to 8) (size 9 to 14) (size 15 to 20)
#    0.000    1.400    2.000    3.000    0.000   11.200 
#    0.000    4.000    0.000    0.000    0.000    0.000 
#    0.000    0.000    0.000    0.000    0.000    0.000 
#
# Total GULP energy -496219.360276 kJ/mol
# GULP energy per Si atom -12405.484007 kJ/mol
# Density = 2.006715 g / cm^3
# Si number density = 20.112925 Si / 1000 Ang^3
#
#
#
# Elastic Constant Matrix: (Units=GPa)
#
#
# Indices 1 2 3 4 5 6 
#
# 1 80.7127 54.0225 53.4756 0.0000 0.0000 0.0000
# 2 54.0225 155.2542 52.7886 0.0000 0.0000 0.0000
# 3 53.4756 52.7886 120.1812 0.0000 0.0000 0.0000
# 4 0.0000 0.0000 0.0000 24.7442 0.0000 0.0000
# 5 0.0000 0.0000 0.0000 0.0000 36.4083 0.0000
# 6 0.0000 0.0000 0.0000 0.0000 0.0000 39.9745
#
#
#
# Elastic Compliance Matrix: (Units=1/GPa)
#
#
# Indices 1 2 3 4 5 6 
#
# 1 0.020057 -0.004637 -0.006888 0.000000 0.000000 0.000000
# 2 -0.004637 0.008644 -0.001734 0.000000 0.000000 0.000000
# 3 -0.006888 -0.001734 0.012147 0.000000 0.000000 0.000000
# 4 0.000000 0.000000 0.000000 0.040414 0.000000 0.000000
# 5 0.000000 0.000000 0.000000 0.000000 0.027466 0.000000
# 6 0.000000 0.000000 0.000000 0.000000 0.000000 0.025016
#
#
# Mechanical properties :
#
#
# Convention : Reuss Voigt Hill
#
# Bulk Modulus (GPa) = 69.77773 75.19126 72.48450
# Shear Modulus (GPa) = 30.29634 33.28283 31.78958
#
# Velocity S-wave (km/s) = 3.88533 4.07233 3.97993
# Velocity P-wave (km/s) = 7.40919 7.71865 7.56550
#
# Compressibility (1/GPa) = 0.01433122
#
# Stress axis : x y z
#
# Youngs Moduli (GPa) = 49.85895 115.68740 82.32580
#
# Poissons Ratio (x) = 0.53645 0.56702
# Poissons Ratio (y) = 0.23120 0.14271
# Poissons Ratio (z) = 0.34341 0.20054
#
# Static dielectric constant tensor:
#      x y z
#    x 3.627600 0.000000 0.000000 
#    y 0.000000 3.770440 0.000000 
#    z 0.000000 0.000000 3.571660 
# 
# 
# High freq. dielectric constant tensor:
#      x y z
#    x 1.787330 0.000000 0.000000 
#    y 0.000000 1.800690 0.000000 
#    z 0.000000 0.000000 1.781830 
# 
# From -- ./inp_files/47896.got.cif
#   From: 2010.03.12/outbox.cif.g09.slc.cpg/sg64_24_cif.got.tgz:47896.got - 2010.04.10 20:19:32.
