data_PCOD8264121
_publ_section_title
;
Structure prediction by ZEFSAII (Michael W. Deem and Ramdas Pophale) SiO2 
 PCOD8264121
Probable space group: C M C A
;
_chemical_formula_sum "Si O2"
_cell_formula_units_Z 88
_cell_length_a 22.914053
_cell_length_b 13.328563
_cell_length_c 13.902125
_cell_angle_alpha 90.000000
_cell_angle_beta 90.000000
_cell_angle_gamma 90.000000
_cell_volume 4245.867445
_symmetry_space_group_name_H-M "C M C A"
_symmetry_group_IT_number 64
_symmetry_cell_setting 'orthorhombic'
loop_
_space_group_symop_operation_xyz
x,y,z
-x,1/2-y,1/2+z
x,-y,-z
-x,1/2+y,1/2-z
-x,-y,-z
x,1/2+y,1/2-z
-x,y,z
x,1/2-y,1/2+z
1/2+x,1/2+y,z
1/2-x,-y,1/2+z
1/2+x,1/2-y,-z
1/2-x,y,1/2-z
1/2-x,1/2-y,-z
1/2+x,y,1/2-z
1/2-x,1/2+y,z
1/2+x,-y,1/2+z
loop_
_atom_site_type_symbol
_atom_site_label
_atom_site_fract_x
_atom_site_fract_y
_atom_site_fract_z
Si Si1 0.566784 0.760225 0.100831
Si Si2 0.635159 0.879549 0.262773
Si Si3 0.256791 0.597553 0.058134
Si Si4 0.933622 0.472468 0.606137
Si Si5 0.750000 0.491556 0.250000
Si Si6 0.841158 0.760430 0.050462
O O1 0.500000 0.795307 0.089378
O O2 0.598037 0.830327 0.178335
O O3 0.570286 0.644414 0.131571
O O4 0.598106 0.773396 0.997674
O O5 0.600819 0.970859 0.310706
O O6 0.696114 0.920206 0.218618
O O7 0.647959 0.795310 0.341686
O O8 0.272261 0.563807 0.165565
O O9 0.313457 0.651352 0.014560
O O10 0.239584 0.500000 0.000000
O O11 0.200796 0.666650 0.055762
O O12 0.907698 0.500000 0.500000
O O13 0.000000 0.511337 0.608459
#
# Coordination Sequence:
#
# PCOD8264121 Si02
#       6
#    16  16  16  16   8  16
#     4  11  25  43  67 100 134 175 226 276 336 404
#     4  12  25  42  67 102 132 177 219 283 331 401
#     4  11  24  45  64  99 134 171 219 278 334 411
#     4  10  21  42  70  95 126 173 227 277 331 397
#     4  12  26  40  72  96 136 176 224 270 350 392
#     4  11  25  42  69  94 135 174 223 271 347 396
#
# _framework density 20.726036000000001
#
# number of rings (size 3 to 8) (size 9 to 14) (size 15 to 20)
#    0.000    0.909    3.636    2.727    7.636    0.727 
#    0.000    0.000    0.000    1.636    0.000    0.000 
#    0.000    0.000    0.000    0.000    0.000    0.000 
#
# Total GULP energy -545805.989945 kJ/mol
# GULP energy per Si atom -12404.681590 kJ/mol
# Density = 2.067886 g / cm^3
# Si number density = 20.726036 Si / 1000 Ang^3
#
#
#
# Elastic Constant Matrix: (Units=GPa)
#
#
# Indices 1 2 3 4 5 6 
#
# 1 132.0464 41.1964 19.4378 0.0000 0.0000 0.0000
# 2 41.1964 72.4082 25.2703 0.0000 0.0000 0.0000
# 3 19.4378 25.2703 67.5886 0.0000 0.0000 0.0000
# 4 0.0000 0.0000 0.0000 38.7771 0.0000 0.0000
# 5 0.0000 0.0000 0.0000 0.0000 47.8478 0.0000
# 6 0.0000 0.0000 0.0000 0.0000 0.0000 26.5458
#
#
#
# Elastic Compliance Matrix: (Units=1/GPa)
#
#
# Indices 1 2 3 4 5 6 
#
# 1 0.009245 -0.004982 -0.000796 0.000000 0.000000 0.000000
# 2 -0.004982 0.018568 -0.005509 0.000000 0.000000 0.000000
# 3 -0.000796 -0.005509 0.017084 0.000000 0.000000 0.000000
# 4 0.000000 0.000000 0.000000 0.025788 0.000000 0.000000
# 5 0.000000 0.000000 0.000000 0.000000 0.020900 0.000000
# 6 0.000000 0.000000 0.000000 0.000000 0.000000 0.037671
#
#
# Mechanical properties :
#
#
# Convention : Reuss Voigt Hill
#
# Bulk Modulus (GPa) = 44.79906 49.31693 47.05800
# Shear Modulus (GPa) = 31.39313 35.04339 33.21826
#
# Velocity S-wave (km/s) = 3.89610 4.11638 4.00776
# Velocity P-wave (km/s) = 6.47312 6.81463 6.64607
#
# Compressibility (1/GPa) = 0.02232190
#
# Stress axis : x y z
#
# Youngs Moduli (GPa) = 108.17209 53.85676 58.53354
#
# Poissons Ratio (x) = 0.26831 0.04659
# Poissons Ratio (y) = 0.53890 0.32249
# Poissons Ratio (z) = 0.08611 0.29672
#
# Static dielectric constant tensor:
#      x y z
#    x 3.965390 0.000000 0.000000 
#    y 0.000000 3.816980 0.000000 
#    z 0.000000 0.000000 3.550950 
# 
# 
# High freq. dielectric constant tensor:
#      x y z
#    x 1.827290 0.000000 0.000000 
#    y 0.000000 1.814730 0.000000 
#    z 0.000000 0.000000 1.805490 
# 
# From -- ./inp_files/27210.got.cif
#   From: 2010.03.12/outbox.cif.g09.slc.cpg/sg64_14_cif.got.tgz:27210.got - 2010.04.10 20:19:32.
