data_PCOD8264957
_publ_section_title
;
Structure prediction by ZEFSAII (Michael W. Deem and Ramdas Pophale) SiO2 
 PCOD8264957
Probable space group: C M C A
;
_chemical_formula_sum "Si O2"
_cell_formula_units_Z 64
_cell_length_a 9.471949
_cell_length_b 9.650218
_cell_length_c 32.881793
_cell_angle_alpha 90.000000
_cell_angle_beta 90.000000
_cell_angle_gamma 90.000000
_cell_volume 3005.605427
_symmetry_space_group_name_H-M "C M C A"
_symmetry_group_IT_number 64
_symmetry_cell_setting 'orthorhombic'
loop_
_space_group_symop_operation_xyz
x,y,z
-x,1/2-y,1/2+z
x,-y,-z
-x,1/2+y,1/2-z
-x,-y,-z
x,1/2+y,1/2-z
-x,y,z
x,1/2-y,1/2+z
1/2+x,1/2+y,z
1/2-x,-y,1/2+z
1/2+x,1/2-y,-z
1/2-x,y,1/2-z
1/2-x,1/2-y,-z
1/2+x,y,1/2-z
1/2-x,1/2+y,z
1/2+x,-y,1/2+z
loop_
_atom_site_type_symbol
_atom_site_label
_atom_site_fract_x
_atom_site_fract_y
_atom_site_fract_z
Si Si1 0.000000 0.038062 0.205434
Si Si2 0.659400 0.394898 0.395699
Si Si3 0.743672 0.641866 0.342797
Si Si4 0.339406 0.859589 0.475262
Si Si5 0.000000 0.725764 0.217045
O O1 0.000000 0.888676 0.226559
O O2 0.865240 0.049332 0.176685
O O3 0.000000 0.155888 0.239211
O O4 0.500000 0.372738 0.412185
O O5 0.668577 0.548401 0.376890
O O6 0.692362 0.280306 0.361974
O O7 0.771500 0.383270 0.431545
O O8 0.637454 0.682812 0.307469
O O9 0.500000 0.806463 0.469293
O O10 0.250000 0.750000 0.500000
O O11 0.338169 0.000000 0.500000
#
# Coordination Sequence:
#
# PCOD8264957 Si02
#       5
#     8  16  16  16   8
#     4  12  28  46  72 100 144 180 238 291 352 415
#     4  12  26  44  72 102 140 186 233 286 345 414
#     4  12  26  45  69 104 139 183 237 288 348 412
#     4  11  26  46  72 107 145 183 230 285 347 412
#     4  12  28  46  72 102 138 187 230 295 350 418
#
# _framework density 21.293545000000002
#
# number of rings (size 3 to 8) (size 9 to 14) (size 15 to 20)
#    0.000    0.250    5.000    3.000    7.000    8.000 
#    0.000    0.000    0.000    0.000    0.000    0.000 
#    0.000    0.000    0.000    0.000    0.000    0.000 
#
# Total GULP energy -397053.973133 kJ/mol
# GULP energy per Si atom -12407.936660 kJ/mol
# Density = 2.124508 g / cm^3
# Si number density = 21.293545 Si / 1000 Ang^3
#
#
#
# Elastic Constant Matrix: (Units=GPa)
#
#
# Indices 1 2 3 4 5 6 
#
# 1 163.8157 28.4468 40.9234 0.0000 0.0000 0.0000
# 2 28.4468 91.1542 14.6995 0.0000 0.0000 0.0000
# 3 40.9234 14.6995 95.0163 0.0000 0.0000 0.0000
# 4 0.0000 0.0000 0.0000 37.5561 0.0000 0.0000
# 5 0.0000 0.0000 0.0000 0.0000 45.0730 0.0000
# 6 0.0000 0.0000 0.0000 0.0000 0.0000 34.5427
#
#
#
# Elastic Compliance Matrix: (Units=1/GPa)
#
#
# Indices 1 2 3 4 5 6 
#
# 1 0.007108 -0.001769 -0.002788 0.000000 0.000000 0.000000
# 2 -0.001769 0.011691 -0.001047 0.000000 0.000000 0.000000
# 3 -0.002788 -0.001047 0.011887 0.000000 0.000000 0.000000
# 4 0.000000 0.000000 0.000000 0.026627 0.000000 0.000000
# 5 0.000000 0.000000 0.000000 0.000000 0.022186 0.000000
# 6 0.000000 0.000000 0.000000 0.000000 0.000000 0.028950
#
#
# Mechanical properties :
#
#
# Convention : Reuss Voigt Hill
#
# Bulk Modulus (GPa) = 51.33569 57.56950 54.45259
# Shear Modulus (GPa) = 39.63566 41.16213 40.39889
#
# Velocity S-wave (km/s) = 4.31907 4.40145 4.36045
# Velocity P-wave (km/s) = 7.00238 7.27497 7.13998
#
# Compressibility (1/GPa) = 0.01947962
#
# Stress axis : x y z
#
# Youngs Moduli (GPa) = 140.68701 85.53448 84.12431
#
# Poissons Ratio (x) = 0.15128 0.23452
# Poissons Ratio (y) = 0.24883 0.08807
# Poissons Ratio (z) = 0.39220 0.08955
#
# Static dielectric constant tensor:
#      x y z
#    x 4.202430 0.000000 0.000000 
#    y 0.000000 3.995360 0.000000 
#    z 0.000000 0.000000 3.815030 
# 
# 
# High freq. dielectric constant tensor:
#      x y z
#    x 1.857670 0.000000 0.000000 
#    y 0.000000 1.850780 0.000000 
#    z 0.000000 0.000000 1.841290 
# 
# From -- ./inp_files/51576.got.cif
#   From: 2010.03.12/outbox.cif.g09.slc.cpg/sg64_26_cif.got.tgz:51576.got - 2010.04.10 20:19:32.
