data_PCOD8264106
_publ_section_title
;
Structure prediction by ZEFSAII (Michael W. Deem and Ramdas Pophale) SiO2 
 PCOD8264106
Probable space group: C M C A
;
_chemical_formula_sum "Si O2"
_cell_formula_units_Z 128
_cell_length_a 22.857427
_cell_length_b 10.688651
_cell_length_c 26.045892
_cell_angle_alpha 90.000000
_cell_angle_beta 90.000000
_cell_angle_gamma 90.000000
_cell_volume 6363.403666
_symmetry_space_group_name_H-M "C M C A"
_symmetry_group_IT_number 64
_symmetry_cell_setting 'orthorhombic'
loop_
_space_group_symop_operation_xyz
x,y,z
-x,1/2-y,1/2+z
x,-y,-z
-x,1/2+y,1/2-z
-x,-y,-z
x,1/2+y,1/2-z
-x,y,z
x,1/2-y,1/2+z
1/2+x,1/2+y,z
1/2-x,-y,1/2+z
1/2+x,1/2-y,-z
1/2-x,y,1/2-z
1/2-x,1/2-y,-z
1/2+x,y,1/2-z
1/2-x,1/2+y,z
1/2+x,-y,1/2+z
loop_
_atom_site_type_symbol
_atom_site_label
_atom_site_fract_x
_atom_site_fract_y
_atom_site_fract_z
Si Si1 0.148446 0.163308 0.834083
Si Si2 0.850451 0.514805 0.872487
Si Si3 0.313315 0.632281 0.026793
Si Si4 0.649105 0.697095 0.129170
Si Si5 0.762778 0.964843 0.807064
Si Si6 0.813879 0.300887 0.935948
Si Si7 0.068173 0.884730 0.699251
Si Si8 0.065865 0.551667 0.315006
O O1 0.202691 0.098010 0.804108
O O2 0.174493 0.213654 0.886924
O O3 0.112963 0.267415 0.801733
O O4 0.101833 0.054545 0.844614
O O5 0.843237 0.658789 0.885512
O O6 0.798888 0.473075 0.834910
O O7 0.844611 0.435376 0.925618
O O8 0.912185 0.482861 0.844740
O O9 0.357100 0.621976 0.075042
O O10 0.254742 0.683873 0.053922
O O11 0.301717 0.500000 0.000000
O O12 0.339828 0.730974 0.985880
O O13 0.701822 0.643344 0.163633
O O14 0.589357 0.682491 0.161772
O O15 0.750000 0.917138 0.750000
O O16 0.074847 0.952637 0.753862
O O17 0.000000 0.844415 0.690553
O O18 0.000000 0.533473 0.331193
#
# Coordination Sequence:
#
# PCOD8264106 Si02
#       8
#    16  16  16  16  16  16  16  16
#     4  10  21  42  59  89 124 162 205 260 308 371
#     4  11  23  38  58  89 127 165 203 258 314 373
#     4  11  22  38  63  89 124 164 203 254 309 381
#     4  11  24  38  58  90 127 158 203 255 311 371
#     4  11  23  36  56  86 128 167 200 241 314 386
#     4  10  23  37  61  87 120 160 205 246 313 375
#     4  10  23  41  63  90 120 169 220 255 300 363
#     4  10  22  39  63  88 117 162 212 257 302 359
#
# _framework density 20.115020999999999
#
# number of rings (size 3 to 8) (size 9 to 14) (size 15 to 20)
#    0.000    1.500    1.250    4.125    8.750    1.000 
#    0.000    0.000    0.000    6.375    0.000    4.375 
#    0.000    0.000    0.000    0.000    0.000    0.000 
#
# Total GULP energy -793244.735081 kJ/mol
# GULP energy per Si atom -12394.448986 kJ/mol
# Density = 2.006924 g / cm^3
# Si number density = 20.115021 Si / 1000 Ang^3
#
#
#
# Elastic Constant Matrix: (Units=GPa)
#
#
# Indices 1 2 3 4 5 6 
#
# 1 85.2812 31.2696 42.6816 0.0000 0.0000 0.0000
# 2 31.2696 117.0351 53.3738 0.0000 0.0000 0.0000
# 3 42.6816 53.3738 118.3011 0.0000 0.0000 0.0000
# 4 0.0000 0.0000 0.0000 26.7351 0.0000 0.0000
# 5 0.0000 0.0000 0.0000 0.0000 21.3426 0.0000
# 6 0.0000 0.0000 0.0000 0.0000 0.0000 23.8070
#
#
#
# Elastic Compliance Matrix: (Units=1/GPa)
#
#
# Indices 1 2 3 4 5 6 
#
# 1 0.014635 -0.001891 -0.004427 0.000000 0.000000 0.000000
# 2 -0.001891 0.011002 -0.004282 0.000000 0.000000 0.000000
# 3 -0.004427 -0.004282 0.011982 0.000000 0.000000 0.000000
# 4 0.000000 0.000000 0.000000 0.037404 0.000000 0.000000
# 5 0.000000 0.000000 0.000000 0.000000 0.046855 0.000000
# 6 0.000000 0.000000 0.000000 0.000000 0.000000 0.042004
#
#
# Mechanical properties :
#
#
# Convention : Reuss Voigt Hill
#
# Bulk Modulus (GPa) = 60.90219 63.91859 62.41039
# Shear Modulus (GPa) = 26.23914 27.26310 26.75112
#
# Velocity S-wave (km/s) = 3.61564 3.68552 3.65075
# Velocity P-wave (km/s) = 6.91182 7.06797 6.99033
#
# Compressibility (1/GPa) = 0.01641977
#
# Stress axis : x y z
#
# Youngs Moduli (GPa) = 68.32966 90.88950 83.45961
#
# Poissons Ratio (x) = 0.17190 0.36946
# Poissons Ratio (y) = 0.12923 0.35734
# Poissons Ratio (z) = 0.30248 0.38915
#
# Static dielectric constant tensor:
#      x y z
#    x 3.696750 0.000000 0.000000 
#    y 0.000000 3.856920 0.000000 
#    z 0.000000 0.000000 3.794170 
# 
# 
# High freq. dielectric constant tensor:
#      x y z
#    x 1.764540 0.000000 0.000000 
#    y 0.000000 1.794950 0.000000 
#    z 0.000000 0.000000 1.783950 
# 
# From -- ./inp_files/46749.got.cif
#   From: 2010.03.12/outbox.cif.g09.slc.cpg/sg64_24_cif.got.tgz:46749.got - 2010.04.10 20:19:32.
