data_PCOD8264905
_publ_section_title
;
Structure prediction by ZEFSAII (Michael W. Deem and Ramdas Pophale) SiO2 
 PCOD8264905
Probable space group: C M C A
;
_chemical_formula_sum "Si O2"
_cell_formula_units_Z 64
_cell_length_a 10.111436
_cell_length_b 31.949528
_cell_length_c 9.549529
_cell_angle_alpha 90.000000
_cell_angle_beta 90.000000
_cell_angle_gamma 90.000000
_cell_volume 3085.028893
_symmetry_space_group_name_H-M "C M C A"
_symmetry_group_IT_number 64
_symmetry_cell_setting 'orthorhombic'
loop_
_space_group_symop_operation_xyz
x,y,z
-x,1/2-y,1/2+z
x,-y,-z
-x,1/2+y,1/2-z
-x,-y,-z
x,1/2+y,1/2-z
-x,y,z
x,1/2-y,1/2+z
1/2+x,1/2+y,z
1/2-x,-y,1/2+z
1/2+x,1/2-y,-z
1/2-x,y,1/2-z
1/2-x,1/2-y,-z
1/2+x,y,1/2-z
1/2-x,1/2+y,z
1/2+x,-y,1/2+z
loop_
_atom_site_type_symbol
_atom_site_label
_atom_site_fract_x
_atom_site_fract_y
_atom_site_fract_z
Si Si1 0.750000 0.607750 0.250000
Si Si2 0.250000 0.586566 0.750000
Si Si3 0.000000 0.292466 0.373610
Si Si4 0.000000 0.556598 0.139913
Si Si5 0.500000 0.460927 0.312341
Si Si6 0.242790 0.154453 0.978050
Si Si7 0.500000 0.708278 0.547815
O O1 0.869193 0.579808 0.192512
O O2 0.805243 0.637985 0.371660
O O3 0.375181 0.556779 0.772071
O O4 0.277677 0.614534 0.614988
O O5 0.870800 0.319365 0.403609
O O6 0.000000 0.280445 0.211137
O O7 0.000000 0.251351 0.465467
O O8 0.000000 0.510564 0.204993
O O9 0.000000 0.554035 0.972656
O O10 0.372260 0.182415 0.997532
#
# Coordination Sequence:
#
# PCOD8264905 Si02
#       7
#     8   8   8   8   8  16   8
#     4  12  25  44  69  98 136 174 224 274 335 392
#     4  12  21  46  69  98 124 184 220 274 321 394
#     4  12  26  44  66  99 130 172 219 269 332 397
#     4  11  24  45  62 104 138 173 216 282 330 400
#     4  11  24  42  71  95 139 175 220 274 340 386
#     4  12  25  43  69  94 132 170 223 270 321 397
#     4  12  26  45  67  96 135 170 217 273 332 391
#
# _framework density 20.745348
#
# number of rings (size 3 to 8) (size 9 to 14) (size 15 to 20)
#    0.000    0.250    5.000    4.500    3.500    0.000 
#    0.000    1.250    0.000    0.000    0.000    0.000 
#    0.000    0.000    0.000    0.000    0.000    0.000 
#
# Total GULP energy -397013.663781 kJ/mol
# GULP energy per Si atom -12406.676993 kJ/mol
# Density = 2.069813 g / cm^3
# Si number density = 20.745348 Si / 1000 Ang^3
#
#
#
# Elastic Constant Matrix: (Units=GPa)
#
#
# Indices 1 2 3 4 5 6 
#
# 1 129.5852 40.6197 -6.5294 0.0000 0.0000 0.0000
# 2 40.6197 116.7410 36.1592 0.0000 0.0000 0.0000
# 3 -6.5294 36.1592 94.0474 0.0000 0.0000 0.0000
# 4 0.0000 0.0000 0.0000 30.7773 0.0000 0.0000
# 5 0.0000 0.0000 0.0000 0.0000 36.0269 0.0000
# 6 0.0000 0.0000 0.0000 0.0000 0.0000 23.5772
#
#
#
# Elastic Compliance Matrix: (Units=1/GPa)
#
#
# Indices 1 2 3 4 5 6 
#
# 1 0.009006 -0.003777 0.002077 0.000000 0.000000 0.000000
# 2 -0.003777 0.011308 -0.004610 0.000000 0.000000 0.000000
# 3 0.002077 -0.004610 0.012550 0.000000 0.000000 0.000000
# 4 0.000000 0.000000 0.000000 0.032491 0.000000 0.000000
# 5 0.000000 0.000000 0.000000 0.000000 0.027757 0.000000
# 6 0.000000 0.000000 0.000000 0.000000 0.000000 0.042414
#
#
# Mechanical properties :
#
#
# Convention : Reuss Voigt Hill
#
# Bulk Modulus (GPa) = 49.39682 53.43028 51.41355
# Shear Modulus (GPa) = 32.28050 36.08456 34.18253
#
# Velocity S-wave (km/s) = 3.94894 4.17514 4.06362
# Velocity P-wave (km/s) = 6.68243 7.00383 6.84502
#
# Compressibility (1/GPa) = 0.02024422
#
# Stress axis : x y z
#
# Youngs Moduli (GPa) = 111.04324 88.43306 79.68403
#
# Poissons Ratio (x) = 0.33400 -0.16553
# Poissons Ratio (y) = 0.41940 0.36733
# Poissons Ratio (z) = -0.23068 0.40767
#
# Static dielectric constant tensor:
#      x y z
#    x 3.820560 0.000000 0.000000 
#    y 0.000000 3.988940 0.000000 
#    z 0.000000 0.000000 3.900270 
# 
# 
# High freq. dielectric constant tensor:
#      x y z
#    x 1.827520 0.000000 0.000000 
#    y 0.000000 1.827780 0.000000 
#    z 0.000000 0.000000 1.818850 
# 
# From -- ./inp_files/4690.got.cif
#   From: 2010.03.12/outbox.cif.g09.slc.cpg/sg64_3_cif.got.tgz:4690.got - 2010.04.10 20:19:32.
