data_PCOD8264885
_publ_section_title
;
Structure prediction by ZEFSAII (Michael W. Deem and Ramdas Pophale) SiO2 
 PCOD8264885
Probable space group: C M C A
;
_chemical_formula_sum "Si O2"
_cell_formula_units_Z 48
_cell_length_a 17.878716
_cell_length_b 9.442368
_cell_length_c 12.057166
_cell_angle_alpha 90.000000
_cell_angle_beta 90.000000
_cell_angle_gamma 90.000000
_cell_volume 2035.459606
_symmetry_space_group_name_H-M "C M C A"
_symmetry_group_IT_number 64
_symmetry_cell_setting 'orthorhombic'
loop_
_space_group_symop_operation_xyz
x,y,z
-x,1/2-y,1/2+z
x,-y,-z
-x,1/2+y,1/2-z
-x,-y,-z
x,1/2+y,1/2-z
-x,y,z
x,1/2-y,1/2+z
1/2+x,1/2+y,z
1/2-x,-y,1/2+z
1/2+x,1/2-y,-z
1/2-x,y,1/2-z
1/2-x,1/2-y,-z
1/2+x,y,1/2-z
1/2-x,1/2+y,z
1/2+x,-y,1/2+z
loop_
_atom_site_type_symbol
_atom_site_label
_atom_site_fract_x
_atom_site_fract_y
_atom_site_fract_z
Si Si1 0.915673 0.736796 0.718161
Si Si2 0.367964 0.045244 0.374321
Si Si3 0.788339 0.626654 0.071164
O O1 0.897823 0.569728 0.714795
O O2 0.856000 0.814337 0.641249
O O3 0.000000 0.761986 0.675979
O O4 0.906057 0.803698 0.841943
O O5 0.278889 0.057770 0.357113
O O6 0.389845 0.000000 0.500000
O O7 0.823719 0.500000 0.000000
O O8 0.750000 0.750000 0.000000
#
# Coordination Sequence:
#
# PCOD8264885 Si02
#       3
#    16  16  16
#     4  12  27  45  73 111 149 194 247 314 380 435
#     4  11  26  50  74 106 152 201 249 308 371 458
#     4  11  23  47  76 109 141 201 249 304 371 455
#
# _framework density 23.581897999999999
#
# number of rings (size 3 to 8) (size 9 to 14) (size 15 to 20)
#    0.000    0.667    6.667    2.000    4.667    6.000 
#    0.000    0.000    0.000    0.000    0.000    0.000 
#    0.000    0.000    0.000    0.000    0.000    0.000 
#
# Total GULP energy -297459.232387 kJ/mol
# GULP energy per Si atom -12394.134683 kJ/mol
# Density = 2.352822 g / cm^3
# Si number density = 23.581898 Si / 1000 Ang^3
#
#
#
# Elastic Constant Matrix: (Units=GPa)
#
#
# Indices 1 2 3 4 5 6 
#
# 1 172.9509 25.9766 42.9547 0.0000 0.0000 0.0000
# 2 25.9766 116.3632 47.2963 0.0000 0.0000 0.0000
# 3 42.9547 47.2963 83.6820 0.0000 0.0000 0.0000
# 4 0.0000 0.0000 0.0000 50.0077 0.0000 0.0000
# 5 0.0000 0.0000 0.0000 0.0000 20.7846 0.0000
# 6 0.0000 0.0000 0.0000 0.0000 0.0000 32.9038
#
#
#
# Elastic Compliance Matrix: (Units=1/GPa)
#
#
# Indices 1 2 3 4 5 6 
#
# 1 0.006628 -0.000126 -0.003331 0.000000 0.000000 0.000000
# 2 -0.000126 0.011159 -0.006243 0.000000 0.000000 0.000000
# 3 -0.003331 -0.006243 0.017188 0.000000 0.000000 0.000000
# 4 0.000000 0.000000 0.000000 0.019997 0.000000 0.000000
# 5 0.000000 0.000000 0.000000 0.000000 0.048113 0.000000
# 6 0.000000 0.000000 0.000000 0.000000 0.000000 0.030392
#
#
# Mechanical properties :
#
#
# Convention : Reuss Voigt Hill
#
# Bulk Modulus (GPa) = 64.19895 67.27239 65.73567
# Shear Modulus (GPa) = 31.63194 37.85710 34.74452
#
# Velocity S-wave (km/s) = 3.66644 4.01102 3.84260
# Velocity P-wave (km/s) = 6.72359 7.07391 6.90097
#
# Compressibility (1/GPa) = 0.01557658
#
# Stress axis : x y z
#
# Youngs Moduli (GPa) = 150.86968 89.61258 58.17931
#
# Poissons Ratio (x) = 0.01126 0.19381
# Poissons Ratio (y) = 0.01896 0.36319
# Poissons Ratio (z) = 0.50260 0.55941
#
# Static dielectric constant tensor:
#      x y z
#    x 4.375800 0.000000 0.000000 
#    y 0.000000 6.144660 0.000000 
#    z 0.000000 0.000000 3.515120 
# 
# 
# High freq. dielectric constant tensor:
#      x y z
#    x 1.933800 0.000000 0.000000 
#    y 0.000000 1.955970 0.000000 
#    z 0.000000 0.000000 1.913800 
# 
# From -- ./inp_files/15198.got.cif
#   From: 2010.03.12/outbox.cif.g09.slc.cpg/sg64_8_cif.got.tgz:15198.got - 2010.04.10 20:19:32.
