data_PCOD8264723
_publ_section_title
;
Structure prediction by ZEFSAII (Michael W. Deem and Ramdas Pophale) SiO2 
 PCOD8264723
Probable space group: C M C A
;
_chemical_formula_sum "Si O2"
_cell_formula_units_Z 56
_cell_length_a 18.982128
_cell_length_b 13.175223
_cell_length_c 11.302424
_cell_angle_alpha 90.000000
_cell_angle_beta 90.000000
_cell_angle_gamma 90.000000
_cell_volume 2826.665822
_symmetry_space_group_name_H-M "C M C A"
_symmetry_group_IT_number 64
_symmetry_cell_setting 'orthorhombic'
loop_
_space_group_symop_operation_xyz
x,y,z
-x,1/2-y,1/2+z
x,-y,-z
-x,1/2+y,1/2-z
-x,-y,-z
x,1/2+y,1/2-z
-x,y,z
x,1/2-y,1/2+z
1/2+x,1/2+y,z
1/2-x,-y,1/2+z
1/2+x,1/2-y,-z
1/2-x,y,1/2-z
1/2-x,1/2-y,-z
1/2+x,y,1/2-z
1/2-x,1/2+y,z
1/2+x,-y,1/2+z
loop_
_atom_site_type_symbol
_atom_site_label
_atom_site_fract_x
_atom_site_fract_y
_atom_site_fract_z
Si Si1 0.691621 0.352535 0.849233
Si Si2 0.173151 0.869907 0.303127
Si Si3 0.778649 0.000000 0.500000
Si Si4 0.080347 0.509257 0.641397
O O1 0.750000 0.350644 0.750000
O O2 0.663409 0.238114 0.869420
O O3 0.623767 0.415090 0.805223
O O4 0.727086 0.406308 0.963135
O O5 0.250000 0.879738 0.250000
O O6 0.115670 0.888835 0.198324
O O7 0.168554 0.959490 0.399640
O O8 0.085108 0.500000 0.500000
O O9 0.000000 0.504660 0.684273
#
# Coordination Sequence:
#
# PCOD8264723 Si02
#       4
#    16  16   8  16
#     4  11  21  37  64  91 118 156 204 254 301 360
#     4  11  22  37  62  92 120 153 204 255 302 359
#     4  12  18  38  64  94 120 154 198 258 318 360
#     4  11  22  41  62  83 121 163 200 244 300 368
#
# _framework density 19.811326000000001
#
# number of rings (size 3 to 8) (size 9 to 14) (size 15 to 20)
#    0.000    0.857    7.143    0.857    0.000    3.429 
#    0.000    0.714    0.000    0.000    0.000    0.000 
#    0.000    0.000    0.000    0.000    0.000    0.000 
#
# Total GULP energy -346966.784875 kJ/mol
# GULP energy per Si atom -12391.670888 kJ/mol
# Density = 1.976623 g / cm^3
# Si number density = 19.811326 Si / 1000 Ang^3
#
#
#
# Elastic Constant Matrix: (Units=GPa)
#
#
# Indices 1 2 3 4 5 6 
#
# 1 125.7051 37.6300 26.2299 0.0000 0.0000 0.0000
# 2 37.6300 136.9659 49.8251 0.0000 0.0000 0.0000
# 3 26.2299 49.8251 76.8631 0.0000 0.0000 0.0000
# 4 0.0000 0.0000 0.0000 38.0594 0.0000 0.0000
# 5 0.0000 0.0000 0.0000 0.0000 26.9020 0.0000
# 6 0.0000 0.0000 0.0000 0.0000 0.0000 4.4492
#
#
#
# Elastic Compliance Matrix: (Units=1/GPa)
#
#
# Indices 1 2 3 4 5 6 
#
# 1 0.008874 -0.001749 -0.001895 0.000000 0.000000 0.000000
# 2 -0.001749 0.009899 -0.005820 0.000000 0.000000 0.000000
# 3 -0.001895 -0.005820 0.017429 0.000000 0.000000 0.000000
# 4 0.000000 0.000000 0.000000 0.026275 0.000000 0.000000
# 5 0.000000 0.000000 0.000000 0.000000 0.037172 0.000000
# 6 0.000000 0.000000 0.000000 0.000000 0.000000 0.224757
#
#
# Mechanical properties :
#
#
# Convention : Reuss Voigt Hill
#
# Bulk Modulus (GPa) = 57.88595 62.98935 60.43765
# Shear Modulus (GPa) = 14.32292 28.93874 21.63083
#
# Velocity S-wave (km/s) = 2.69172 3.82608 3.30789
# Velocity P-wave (km/s) = 6.24039 7.16813 6.72029
#
# Compressibility (1/GPa) = 0.01727535
#
# Stress axis : x y z
#
# Youngs Moduli (GPa) = 112.68902 101.02351 57.37457
#
# Poissons Ratio (x) = 0.17667 0.10871
# Poissons Ratio (y) = 0.19707 0.33391
# Poissons Ratio (z) = 0.21351 0.58794
#
# Static dielectric constant tensor:
#      x y z
#    x 3.575390 0.000000 0.000000 
#    y 0.000000 4.334830 0.000000 
#    z 0.000000 0.000000 3.669120 
# 
# 
# High freq. dielectric constant tensor:
#      x y z
#    x 1.748320 0.000000 0.000000 
#    y 0.000000 1.775740 0.000000 
#    z 0.000000 0.000000 1.770200 
# 
# From -- ./inp_files/15384.got.cif
#   From: 2010.03.12/outbox.cif.g09.slc.cpg/sg64_8_cif.got.tgz:15384.got - 2010.04.10 20:19:32.
