data_PCOD8264452
_publ_section_title
;
Structure prediction by ZEFSAII (Michael W. Deem and Ramdas Pophale) SiO2 
 PCOD8264452
Probable space group: C M C A
;
_chemical_formula_sum "Si O2"
_cell_formula_units_Z 80
_cell_length_a 13.260382
_cell_length_b 23.076004
_cell_length_c 13.398043
_cell_angle_alpha 90.000000
_cell_angle_beta 90.000000
_cell_angle_gamma 90.000000
_cell_volume 4099.755981
_symmetry_space_group_name_H-M "C M C A"
_symmetry_group_IT_number 64
_symmetry_cell_setting 'orthorhombic'
loop_
_space_group_symop_operation_xyz
x,y,z
-x,1/2-y,1/2+z
x,-y,-z
-x,1/2+y,1/2-z
-x,-y,-z
x,1/2+y,1/2-z
-x,y,z
x,1/2-y,1/2+z
1/2+x,1/2+y,z
1/2-x,-y,1/2+z
1/2+x,1/2-y,-z
1/2-x,y,1/2-z
1/2-x,1/2-y,-z
1/2+x,y,1/2-z
1/2-x,1/2+y,z
1/2+x,-y,1/2+z
loop_
_atom_site_type_symbol
_atom_site_label
_atom_site_fract_x
_atom_site_fract_y
_atom_site_fract_z
Si Si1 0.834804 0.295244 0.520715
Si Si2 0.500000 0.441860 0.216949
Si Si3 0.780200 0.589343 0.005778
Si Si4 0.500000 0.106882 0.935641
Si Si5 0.204996 0.011861 0.852481
Si Si6 0.500000 0.187907 0.641778
Si Si7 0.000000 0.737378 0.854333
O O1 0.750000 0.250000 0.500000
O O2 0.777424 0.354500 0.545667
O O3 0.901599 0.274101 0.614220
O O4 0.900886 0.300108 0.421672
O O5 0.500000 0.435941 0.338496
O O6 0.588327 0.479607 0.169626
O O7 0.500000 0.377809 0.174840
O O8 0.734039 0.538290 0.071323
O O9 0.902151 0.595123 0.005861
O O10 0.750576 0.573314 0.891369
O O11 0.500000 0.174246 0.905444
O O12 0.250000 0.991599 0.750000
O O13 0.500000 0.231426 0.735409
#
# Coordination Sequence:
#
# PCOD8264452 Si02
#       7
#    16   8  16   8  16   8   8
#     4  11  22  42  65  96 132 165 218 270 321 393
#     4  11  21  39  71  94 126 161 232 266 310 388
#     4  11  24  41  68  93 133 171 218 269 334 385
#     4  11  21  41  69  96 124 176 219 265 317 406
#     4  11  24  42  63  98 131 173 216 270 327 387
#     4  10  23  40  65  96 123 176 213 267 321 387
#     4  10  23  40  65  97 129 169 217 265 328 377
#
# _framework density 19.513356999999999
#
# number of rings (size 3 to 8) (size 9 to 14) (size 15 to 20)
#    0.000    1.200    6.000    0.000    0.000    6.400 
#    3.600    0.000    0.000    0.000    0.000    0.000 
#    0.000    0.000    0.000    0.000    0.000    0.000 
#
# Total GULP energy -495746.505577 kJ/mol
# GULP energy per Si atom -12393.662639 kJ/mol
# Density = 1.946894 g / cm^3
# Si number density = 19.513357 Si / 1000 Ang^3
#
#
#
# Elastic Constant Matrix: (Units=GPa)
#
#
# Indices 1 2 3 4 5 6 
#
# 1 183.2168 62.4705 53.1978 0.0000 0.0000 0.0000
# 2 62.4705 109.5114 39.1620 0.0000 0.0000 0.0000
# 3 53.1978 39.1620 93.8315 0.0000 0.0000 0.0000
# 4 0.0000 0.0000 0.0000 31.4690 0.0000 0.0000
# 5 0.0000 0.0000 0.0000 0.0000 23.8772 0.0000
# 6 0.0000 0.0000 0.0000 0.0000 0.0000 36.3384
#
#
#
# Elastic Compliance Matrix: (Units=1/GPa)
#
#
# Indices 1 2 3 4 5 6 
#
# 1 0.007372 -0.003186 -0.002850 0.000000 0.000000 0.000000
# 2 -0.003186 0.012111 -0.003248 0.000000 0.000000 0.000000
# 3 -0.002850 -0.003248 0.013629 0.000000 0.000000 0.000000
# 4 0.000000 0.000000 0.000000 0.031777 0.000000 0.000000
# 5 0.000000 0.000000 0.000000 0.000000 0.041881 0.000000
# 6 0.000000 0.000000 0.000000 0.000000 0.000000 0.027519
#
#
# Mechanical properties :
#
#
# Convention : Reuss Voigt Hill
#
# Bulk Modulus (GPa) = 68.76095 77.35781 73.05938
# Shear Modulus (GPa) = 31.70497 33.78554 32.74526
#
# Velocity S-wave (km/s) = 4.03523 4.16553 4.10090
# Velocity P-wave (km/s) = 7.55150 7.92875 7.74243
#
# Compressibility (1/GPa) = 0.01454314
#
# Stress axis : x y z
#
# Youngs Moduli (GPa) = 135.65216 82.57255 73.37478
#
# Poissons Ratio (x) = 0.26309 0.20909
# Poissons Ratio (y) = 0.43221 0.23833
# Poissons Ratio (z) = 0.38656 0.26821
#
# Static dielectric constant tensor:
#      x y z
#    x 3.743820 0.000000 0.000000 
#    y 0.000000 3.422750 0.000000 
#    z 0.000000 0.000000 3.680270 
# 
# 
# High freq. dielectric constant tensor:
#      x y z
#    x 1.780050 0.000000 0.000000 
#    y 0.000000 1.762920 0.000000 
#    z 0.000000 0.000000 1.751280 
# 
# From -- ./inp_files/22402.got.cif
#   From: 2010.03.12/outbox.cif.g09.slc.cpg/sg64_12_cif.got.tgz:22402.got - 2010.04.10 20:19:32.
