data_PCOD8264401
_publ_section_title
;
Structure prediction by ZEFSAII (Michael W. Deem and Ramdas Pophale) SiO2 
 PCOD8264401
Probable space group: C M C A
;
_chemical_formula_sum "Si O2"
_cell_formula_units_Z 64
_cell_length_a 15.670513
_cell_length_b 12.236106
_cell_length_c 14.615536
_cell_angle_alpha 90.000000
_cell_angle_beta 90.000000
_cell_angle_gamma 90.000000
_cell_volume 2802.471416
_symmetry_space_group_name_H-M "C M C A"
_symmetry_group_IT_number 64
_symmetry_cell_setting 'orthorhombic'
loop_
_space_group_symop_operation_xyz
x,y,z
-x,1/2-y,1/2+z
x,-y,-z
-x,1/2+y,1/2-z
-x,-y,-z
x,1/2+y,1/2-z
-x,y,z
x,1/2-y,1/2+z
1/2+x,1/2+y,z
1/2-x,-y,1/2+z
1/2+x,1/2-y,-z
1/2-x,y,1/2-z
1/2-x,1/2-y,-z
1/2+x,y,1/2-z
1/2-x,1/2+y,z
1/2+x,-y,1/2+z
loop_
_atom_site_type_symbol
_atom_site_label
_atom_site_fract_x
_atom_site_fract_y
_atom_site_fract_z
Si Si1 0.714523 0.555610 0.849660
Si Si2 0.597741 0.269089 0.651967
Si Si3 0.902710 0.359119 0.653051
Si Si4 0.329499 0.320590 0.470929
O O1 0.750000 0.530649 0.750000
O O2 0.655820 0.662288 0.848197
O O3 0.659840 0.452724 0.885545
O O4 0.794472 0.571376 0.919211
O O5 0.500000 0.230218 0.652501
O O6 0.618578 0.341601 0.740280
O O7 0.616525 0.345279 0.563047
O O8 0.888589 0.246887 0.599125
O O9 0.000000 0.397567 0.639575
O O10 0.250000 0.250000 0.500000
#
# Coordination Sequence:
#
# PCOD8264401 Si02
#       4
#    16  16  16  16
#     4  11  23  40  67  97 132 171 226 272 328 390
#     4  10  22  43  68  98 134 175 220 274 335 394
#     4  11  24  44  68  95 135 180 222 271 334 401
#     4  10  23  41  65 100 131 170 217 282 326 388
#
# _framework density 22.836984000000001
#
# number of rings (size 3 to 8) (size 9 to 14) (size 15 to 20)
#    0.000    1.500    2.500    1.500    7.000    4.000 
#    0.000    6.250    0.000    3.000    0.000    0.000 
#    0.000    0.000    0.000    0.000    0.000    0.000 
#
# Total GULP energy -396822.643818 kJ/mol
# GULP energy per Si atom -12400.707619 kJ/mol
# Density = 2.278501 g / cm^3
# Si number density = 22.836984 Si / 1000 Ang^3
#
#
#
# Elastic Constant Matrix: (Units=GPa)
#
#
# Indices 1 2 3 4 5 6 
#
# 1 76.2733 43.5758 36.5956 0.0000 0.0000 0.0000
# 2 43.5758 80.8589 24.7954 0.0000 0.0000 0.0000
# 3 36.5956 24.7954 137.2393 0.0000 0.0000 0.0000
# 4 0.0000 0.0000 0.0000 18.6631 0.0000 0.0000
# 5 0.0000 0.0000 0.0000 0.0000 34.9190 0.0000
# 6 0.0000 0.0000 0.0000 0.0000 0.0000 42.3992
#
#
#
# Elastic Compliance Matrix: (Units=1/GPa)
#
#
# Indices 1 2 3 4 5 6 
#
# 1 0.020565 -0.009953 -0.003686 0.000000 0.000000 0.000000
# 2 -0.009953 0.017909 -0.000582 0.000000 0.000000 0.000000
# 3 -0.003686 -0.000582 0.008374 0.000000 0.000000 0.000000
# 4 0.000000 0.000000 0.000000 0.053582 0.000000 0.000000
# 5 0.000000 0.000000 0.000000 0.000000 0.028638 0.000000
# 6 0.000000 0.000000 0.000000 0.000000 0.000000 0.023585
#
#
# Mechanical properties :
#
#
# Convention : Reuss Voigt Hill
#
# Bulk Modulus (GPa) = 54.32204 56.03390 55.17797
# Shear Modulus (GPa) = 26.70514 31.82323 29.26419
#
# Velocity S-wave (km/s) = 3.42333 3.73700 3.58360
# Velocity P-wave (km/s) = 6.28205 6.57343 6.42939
#
# Compressibility (1/GPa) = 0.01840873
#
# Stress axis : x y z
#
# Youngs Moduli (GPa) = 48.62603 55.83722 119.41085
#
# Poissons Ratio (x) = 0.55572 0.44010
# Poissons Ratio (y) = 0.48395 0.06947
# Poissons Ratio (z) = 0.17922 0.03249
#
# Static dielectric constant tensor:
#      x y z
#    x 4.463050 0.000000 0.000000 
#    y 0.000000 3.888490 0.000000 
#    z 0.000000 0.000000 4.936580 
# 
# 
# High freq. dielectric constant tensor:
#      x y z
#    x 1.907160 0.000000 0.000000 
#    y 0.000000 1.875120 0.000000 
#    z 0.000000 0.000000 1.922470 
# 
# From -- ./inp_files/23236.got.cif
#   From: 2010.03.12/outbox.cif.g09.slc.cpg/sg64_12_cif.got.tgz:23236.got - 2010.04.10 20:19:32.
