data_PCOD8264673
_publ_section_title
;
Structure prediction by ZEFSAII (Michael W. Deem and Ramdas Pophale) SiO2 
 PCOD8264673
Probable space group: C M C A
;
_chemical_formula_sum "Si O2"
_cell_formula_units_Z 72
_cell_length_a 18.680214
_cell_length_b 15.844273
_cell_length_c 13.156301
_cell_angle_alpha 90.000000
_cell_angle_beta 90.000000
_cell_angle_gamma 90.000000
_cell_volume 3893.928430
_symmetry_space_group_name_H-M "C M C A"
_symmetry_group_IT_number 64
_symmetry_cell_setting 'orthorhombic'
loop_
_space_group_symop_operation_xyz
x,y,z
-x,1/2-y,1/2+z
x,-y,-z
-x,1/2+y,1/2-z
-x,-y,-z
x,1/2+y,1/2-z
-x,y,z
x,1/2-y,1/2+z
1/2+x,1/2+y,z
1/2-x,-y,1/2+z
1/2+x,1/2-y,-z
1/2-x,y,1/2-z
1/2-x,1/2-y,-z
1/2+x,y,1/2-z
1/2-x,1/2+y,z
1/2+x,-y,1/2+z
loop_
_atom_site_type_symbol
_atom_site_label
_atom_site_fract_x
_atom_site_fract_y
_atom_site_fract_z
Si Si1 0.915806 0.154853 0.598093
Si Si2 0.155076 0.000000 0.500000
Si Si3 0.724235 0.944482 0.646214
Si Si4 0.324387 0.201710 0.495567
Si Si5 0.172624 0.119785 0.793845
O O1 0.885470 0.241871 0.553994
O O2 0.887734 0.137339 0.710951
O O3 0.000000 0.163322 0.603488
O O4 0.894418 0.080242 0.521417
O O5 0.204662 0.016058 0.402977
O O6 0.750000 0.898017 0.750000
O O7 0.683385 0.881881 0.572186
O O8 0.671491 0.021567 0.673918
O O9 0.250000 0.250000 0.500000
O O10 0.346806 0.176668 0.609036
O O11 0.250000 0.146248 0.750000
#
# Coordination Sequence:
#
# PCOD8264673 Si02
#       5
#    16   8  16  16  16
#     4  12  27  42  61  97 138 170 205 264 335 386
#     4  12  19  42  66  94 123 168 210 270 311 378
#     4  11  20  36  68 100 118 157 225 268 309 363
#     4  12  22  37  67  96 128 162 216 270 314 378
#     4  11  20  41  65  91 125 168 218 265 309 380
#
# _framework density 18.490323
#
# number of rings (size 3 to 8) (size 9 to 14) (size 15 to 20)
#    0.000    0.444   11.111    0.333    3.111    0.889 
#    0.000    1.111    0.000    2.667    0.000    0.000 
#    0.000    0.000    0.000    0.000    0.000    0.000 
#
# Total GULP energy -446533.569080 kJ/mol
# GULP energy per Si atom -12403.710252 kJ/mol
# Density = 1.844824 g / cm^3
# Si number density = 18.490323 Si / 1000 Ang^3
#
#
#
# Elastic Constant Matrix: (Units=GPa)
#
#
# Indices 1 2 3 4 5 6 
#
# 1 120.9018 55.6663 37.1669 0.0000 0.0000 0.0000
# 2 55.6663 112.8146 55.7726 0.0000 0.0000 0.0000
# 3 37.1669 55.7726 122.1867 0.0000 0.0000 0.0000
# 4 0.0000 0.0000 0.0000 32.9247 0.0000 0.0000
# 5 0.0000 0.0000 0.0000 0.0000 23.0309 0.0000
# 6 0.0000 0.0000 0.0000 0.0000 0.0000 19.8813
#
#
#
# Elastic Compliance Matrix: (Units=1/GPa)
#
#
# Indices 1 2 3 4 5 6 
#
# 1 0.010817 -0.004792 -0.001103 0.000000 0.000000 0.000000
# 2 -0.004792 0.013570 -0.004737 0.000000 0.000000 0.000000
# 3 -0.001103 -0.004737 0.010682 0.000000 0.000000 0.000000
# 4 0.000000 0.000000 0.000000 0.030372 0.000000 0.000000
# 5 0.000000 0.000000 0.000000 0.000000 0.043420 0.000000
# 6 0.000000 0.000000 0.000000 0.000000 0.000000 0.050298
#
#
# Mechanical properties :
#
#
# Convention : Reuss Voigt Hill
#
# Bulk Modulus (GPa) = 72.43410 72.56830 72.50120
# Shear Modulus (GPa) = 27.02351 28.98720 28.00535
#
# Velocity S-wave (km/s) = 3.82710 3.96371 3.89600
# Velocity P-wave (km/s) = 7.66733 7.76401 7.71582
#
# Compressibility (1/GPa) = 0.01380565
#
# Stress axis : x y z
#
# Youngs Moduli (GPa) = 92.45067 73.69057 93.61814
#
# Poissons Ratio (x) = 0.35313 0.10325
# Poissons Ratio (y) = 0.44302 0.44343
# Poissons Ratio (z) = 0.10196 0.34904
#
# Static dielectric constant tensor:
#      x y z
#    x 3.072730 0.000000 0.000000 
#    y 0.000000 3.853600 0.000000 
#    z 0.000000 0.000000 3.826150 
# 
# 
# High freq. dielectric constant tensor:
#      x y z
#    x 1.678830 0.000000 0.000000 
#    y 0.000000 1.727520 0.000000 
#    z 0.000000 0.000000 1.744230 
# 
# From -- ./inp_files/15764.got.cif
#   From: 2010.03.12/outbox.cif.g09.slc.cpg/sg64_8_cif.got.tgz:15764.got - 2010.04.10 20:19:32.
