data_PCOD8264975
_publ_section_title
;
Structure prediction by ZEFSAII (Michael W. Deem and Ramdas Pophale) SiO2 
 PCOD8264975
Probable space group: C M C A
;
_chemical_formula_sum "Si O2"
_cell_formula_units_Z 104
_cell_length_a 10.324855
_cell_length_b 13.870889
_cell_length_c 34.311606
_cell_angle_alpha 90.000000
_cell_angle_beta 90.000000
_cell_angle_gamma 90.000000
_cell_volume 4913.933828
_symmetry_space_group_name_H-M "C M C A"
_symmetry_group_IT_number 64
_symmetry_cell_setting 'orthorhombic'
loop_
_space_group_symop_operation_xyz
x,y,z
-x,1/2-y,1/2+z
x,-y,-z
-x,1/2+y,1/2-z
-x,-y,-z
x,1/2+y,1/2-z
-x,y,z
x,1/2-y,1/2+z
1/2+x,1/2+y,z
1/2-x,-y,1/2+z
1/2+x,1/2-y,-z
1/2-x,y,1/2-z
1/2-x,1/2-y,-z
1/2+x,y,1/2-z
1/2-x,1/2+y,z
1/2+x,-y,1/2+z
loop_
_atom_site_type_symbol
_atom_site_label
_atom_site_fract_x
_atom_site_fract_y
_atom_site_fract_z
Si Si1 0.855367 0.885172 0.043722
Si Si2 0.850593 0.394546 0.188874
Si Si3 0.250000 0.750702 0.750000
Si Si4 0.355374 0.385477 0.956157
Si Si5 0.354597 0.614878 0.603802
Si Si6 0.354593 0.114210 0.103918
Si Si7 0.149329 0.104114 0.311047
O O1 0.746550 0.840786 0.072568
O O2 0.000000 0.850396 0.056002
O O3 0.850765 0.999843 0.045558
O O4 0.823509 0.850137 0.999919
O O5 0.835754 0.316833 0.222782
O O6 0.798367 0.357642 0.146904
O O7 0.787440 0.499321 0.200090
O O8 0.000000 0.412351 0.181928
O O9 0.163754 0.818348 0.722951
O O10 0.500000 0.350784 0.943837
O O11 0.246580 0.341260 0.927262
O O12 0.500000 0.656432 0.596234
O O13 0.359411 0.500324 0.600179
O O14 0.500000 0.155822 0.096394
O O15 0.298325 0.141386 0.147048
O O16 0.000000 0.086136 0.318127
#
# Coordination Sequence:
#
# PCOD8264975 Si02
#       7
#    16  16   8  16  16  16  16
#     4   8  13  21  35  60  95 129 161 203 251 294
#     4   9  19  35  52  73 104 137 170 214 264 311
#     4  12  20  32  56  80  98 128 172 216 264 324
#     4   8  13  21  35  60  95 129 161 203 251 294
#     4   8  14  26  43  62  90 131 171 204 245 301
#     4   8  14  26  43  62  90 131 171 204 245 301
#     4   9  19  35  52  73 104 137 170 214 264 311
#
# _framework density 21.164304000000001
#
# number of rings (size 3 to 8) (size 9 to 14) (size 15 to 20)
#    0.000    3.385    0.000    3.692    0.000    0.615 
#    0.000    6.154    0.000    7.385    0.000    1.077 
#    0.000    0.000    0.000    0.000    0.000    0.308 
#
# Total GULP energy -644179.468965 kJ/mol
# GULP energy per Si atom -12388.066711 kJ/mol
# Density = 2.111613 g / cm^3
# Si number density = 21.164304 Si / 1000 Ang^3
#
#
#
# Elastic Constant Matrix: (Units=GPa)
#
#
# Indices 1 2 3 4 5 6 
#
# 1 107.3307 20.0586 83.7416 0.0000 0.0000 0.0000
# 2 20.0586 57.6309 45.2394 0.0000 0.0000 0.0000
# 3 83.7416 45.2394 183.9238 0.0000 0.0000 0.0000
# 4 0.0000 0.0000 0.0000 -29.5475 0.0000 0.0000
# 5 0.0000 0.0000 0.0000 0.0000 18.9894 0.0000
# 6 0.0000 0.0000 0.0000 0.0000 0.0000 0.2992
#
#
#
# Elastic Compliance Matrix: (Units=1/GPa)
#
#
# Indices 1 2 3 4 5 6 
#
# 1 0.014452 0.000168 -0.006621 0.000000 0.000000 0.000000
# 2 0.000168 0.021506 -0.005366 0.000000 0.000000 0.000000
# 3 -0.006621 -0.005366 0.009772 0.000000 0.000000 0.000000
# 4 0.000000 0.000000 0.000000 -0.033844 0.000000 0.000000
# 5 0.000000 0.000000 0.000000 0.000000 0.052661 0.000000
# 6 0.000000 0.000000 0.000000 0.000000 0.000000 3.342167
#
#
# Mechanical properties :
#
#
# Convention : Reuss Voigt Hill
#
# Bulk Modulus (GPa) = 45.26992 71.88496 58.57744
# Shear Modulus (GPa) = 1.45445 11.27129 6.36287
#
# Velocity S-wave (km/s) = 0.82989 2.31023 1.73578
# Velocity P-wave (km/s) = 4.72805 6.41523 5.63514
#
# Compressibility (1/GPa) = 0.02208972
#
# Stress axis : x y z
#
# Youngs Moduli (GPa) = 69.19646 46.49926 102.33806
#
# Poissons Ratio (x) = -0.00779 0.67759
# Poissons Ratio (y) = -0.01159 0.54915
# Poissons Ratio (z) = 0.45816 0.24952
#
# Static dielectric constant tensor:
#      x y z
#    x 3.828310 0.000000 0.000000 
#    y 0.000000 3.463450 0.000000 
#    z 0.000000 0.000000 4.143250 
# 
# 
# High freq. dielectric constant tensor:
#      x y z
#    x 1.805540 0.000000 0.000000 
#    y 0.000000 1.813510 0.000000 
#    z 0.000000 0.000000 1.835040 
# 
# From -- ./inp_files/52855.got.cif
#   From: 2010.03.12/outbox.cif.g09.slc.cpg/sg64_27_cif.got.tgz:52855.got - 2010.04.10 20:19:32.
