data_PCOD8264719
_publ_section_title
;
Structure prediction by ZEFSAII (Michael W. Deem and Ramdas Pophale) SiO2 
 PCOD8264719
Probable space group: C M C A
;
_chemical_formula_sum "Si O2"
_cell_formula_units_Z 96
_cell_length_a 8.722219
_cell_length_b 30.066699
_cell_length_c 19.498420
_cell_angle_alpha 90.000000
_cell_angle_beta 90.000000
_cell_angle_gamma 90.000000
_cell_volume 5113.428147
_symmetry_space_group_name_H-M "C M C A"
_symmetry_group_IT_number 64
_symmetry_cell_setting 'orthorhombic'
loop_
_space_group_symop_operation_xyz
x,y,z
-x,1/2-y,1/2+z
x,-y,-z
-x,1/2+y,1/2-z
-x,-y,-z
x,1/2+y,1/2-z
-x,y,z
x,1/2-y,1/2+z
1/2+x,1/2+y,z
1/2-x,-y,1/2+z
1/2+x,1/2-y,-z
1/2-x,y,1/2-z
1/2-x,1/2-y,-z
1/2+x,y,1/2-z
1/2-x,1/2+y,z
1/2+x,-y,1/2+z
loop_
_atom_site_type_symbol
_atom_site_label
_atom_site_fract_x
_atom_site_fract_y
_atom_site_fract_z
Si Si1 0.180933 0.533722 0.678295
Si Si2 0.181114 0.867971 0.938138
Si Si3 0.317803 0.198627 0.674641
Si Si4 0.817787 0.614136 0.588550
Si Si5 0.318688 0.233467 0.428924
Si Si6 0.318314 0.933371 0.677788
O O1 0.250000 0.549775 0.750000
O O2 0.240145 0.567252 0.619494
O O3 0.234446 0.483720 0.660128
O O4 0.000000 0.536391 0.685287
O O5 0.225582 0.817949 0.918550
O O6 0.249184 0.901311 0.881066
O O7 0.000000 0.873892 0.941570
O O8 0.251756 0.880576 0.012343
O O9 0.500000 0.200999 0.678059
O O10 0.250000 0.198471 0.750000
O O11 0.259084 0.154517 0.635753
O O12 0.255562 0.241332 0.634719
O O13 0.000000 0.615784 0.585368
O O14 0.500000 0.240783 0.430371
O O15 0.250000 0.250000 0.500000
O O16 0.500000 0.929904 0.682579
O O17 0.250000 0.917683 0.750000
#
# Coordination Sequence:
#
# PCOD8264719 Si02
#       6
#    16  16  16  16  16  16
#     4   9  17  30  51  76 103 137 173 212 259 312
#     4   9  18  33  54  78 104 135 172 219 267 313
#     4  11  22  37  56  81 111 143 180 225 270 320
#     4   9  17  31  52  78 107 136 172 217 264 313
#     4  11  21  37  58  79 107 144 181 223 273 325
#     4   9  18  33  53  76 103 136 174 215 261 311
#
# _framework density 18.774097999999999
#
# number of rings (size 3 to 8) (size 9 to 14) (size 15 to 20)
#    0.000    2.333    1.667    1.500    0.000    1.333 
#    0.000    7.500    0.000    0.000    0.000    4.667 
#    0.000    0.000    0.000    0.000    0.000    0.000 
#
# Total GULP energy -595197.525985 kJ/mol
# GULP energy per Si atom -12399.948458 kJ/mol
# Density = 1.873137 g / cm^3
# Si number density = 18.774098 Si / 1000 Ang^3
#
#
#
# Elastic Constant Matrix: (Units=GPa)
#
#
# Indices 1 2 3 4 5 6 
#
# 1 34.8098 30.5472 31.3453 0.0000 0.0000 0.0000
# 2 30.5472 153.0126 111.8441 0.0000 0.0000 0.0000
# 3 31.3453 111.8441 193.3106 0.0000 0.0000 0.0000
# 4 0.0000 0.0000 0.0000 33.3952 0.0000 0.0000
# 5 0.0000 0.0000 0.0000 0.0000 30.1984 0.0000
# 6 0.0000 0.0000 0.0000 0.0000 0.0000 20.6868
#
#
#
# Elastic Compliance Matrix: (Units=1/GPa)
#
#
# Indices 1 2 3 4 5 6 
#
# 1 0.035737 -0.005023 -0.002888 0.000000 0.000000 0.000000
# 2 -0.005023 0.012031 -0.006146 0.000000 0.000000 0.000000
# 3 -0.002888 -0.006146 0.009197 0.000000 0.000000 0.000000
# 4 0.000000 0.000000 0.000000 0.029944 0.000000 0.000000
# 5 0.000000 0.000000 0.000000 0.000000 0.033114 0.000000
# 6 0.000000 0.000000 0.000000 0.000000 0.000000 0.048340
#
#
# Mechanical properties :
#
#
# Convention : Reuss Voigt Hill
#
# Bulk Modulus (GPa) = 34.66292 80.95625 57.80959
# Shear Modulus (GPa) = 24.26064 30.68251 27.47158
#
# Velocity S-wave (km/s) = 3.59867 4.04703 3.82942
# Velocity P-wave (km/s) = 5.98085 8.06553 7.10012
#
# Compressibility (1/GPa) = 0.02884927
#
# Stress axis : x y z
#
# Youngs Moduli (GPa) = 27.98254 83.12059 108.72668
#
# Poissons Ratio (x) = 0.41752 0.31405
# Poissons Ratio (y) = 0.14056 0.66825
# Poissons Ratio (z) = 0.08083 0.51087
#
# Static dielectric constant tensor:
#      x y z
#    x 3.184040 0.000000 0.000000 
#    y 0.000000 3.775850 0.000000 
#    z 0.000000 0.000000 3.733240 
# 
# 
# High freq. dielectric constant tensor:
#      x y z
#    x 1.697580 0.000000 0.000000 
#    y 0.000000 1.741060 0.000000 
#    z 0.000000 0.000000 1.737050 
# 
# From -- ./inp_files/31162.got.cif
#   From: 2010.03.12/outbox.cif.g09.slc.cpg/sg64_16_cif.got.tgz:31162.got - 2010.04.10 20:19:32.
