data_PCOD8264518
_publ_section_title
;
Structure prediction by ZEFSAII (Michael W. Deem and Ramdas Pophale) SiO2 
 PCOD8264518
Probable space group: C M C A
;
_chemical_formula_sum "Si O2"
_cell_formula_units_Z 112
_cell_length_a 31.099513
_cell_length_b 12.179717
_cell_length_c 13.466684
_cell_angle_alpha 90.000000
_cell_angle_beta 90.000000
_cell_angle_gamma 90.000000
_cell_volume 5100.954564
_symmetry_space_group_name_H-M "C M C A"
_symmetry_group_IT_number 64
_symmetry_cell_setting 'orthorhombic'
loop_
_space_group_symop_operation_xyz
x,y,z
-x,1/2-y,1/2+z
x,-y,-z
-x,1/2+y,1/2-z
-x,-y,-z
x,1/2+y,1/2-z
-x,y,z
x,1/2-y,1/2+z
1/2+x,1/2+y,z
1/2-x,-y,1/2+z
1/2+x,1/2-y,-z
1/2-x,y,1/2-z
1/2-x,1/2-y,-z
1/2+x,y,1/2-z
1/2-x,1/2+y,z
1/2+x,-y,1/2+z
loop_
_atom_site_type_symbol
_atom_site_label
_atom_site_fract_x
_atom_site_fract_y
_atom_site_fract_z
Si Si1 0.687459 0.015954 0.301824
Si Si2 0.049019 0.108467 0.434609
Si Si3 0.610303 0.344662 0.738275
Si Si4 0.256785 0.780572 0.639915
Si Si5 0.611743 0.221696 0.929816
Si Si6 0.668841 0.205987 0.594930
Si Si7 0.310224 0.921667 0.092232
O O1 0.639717 0.061150 0.284693
O O2 0.718899 0.102897 0.354951
O O3 0.685344 0.913654 0.375707
O O4 0.704957 0.982881 0.192728
O O5 0.073002 0.099770 0.328046
O O6 0.070979 0.202357 0.499962
O O7 0.000000 0.140575 0.412358
O O8 0.052386 0.000000 0.500000
O O9 0.591877 0.277041 0.831800
O O10 0.637747 0.257427 0.676668
O O11 0.250000 0.733443 0.750000
O O12 0.209893 0.788430 0.588144
O O13 0.284440 0.691803 0.580010
O O14 0.638664 0.109759 0.905342
O O15 0.644714 0.301626 0.989338
O O16 0.300520 0.000000 0.000000
#
# Coordination Sequence:
#
# PCOD8264518 Si02
#       7
#    16  16  16  16  16  16  16
#     4  12  22  42  67  88 131 187 230 292 349 399
#     4  10  23  43  74 109 137 176 223 274 348 429
#     4  11  22  42  68 100 136 173 236 280 344 417
#     4  12  24  43  60  91 132 180 249 288 339 415
#     4  11  22  45  65 101 138 175 235 279 344 428
#     4  11  25  41  65  92 136 186 235 295 348 409
#     4  12  25  41  65  93 130 185 230 293 355 399
#
# _framework density 21.956675000000001
#
# number of rings (size 3 to 8) (size 9 to 14) (size 15 to 20)
#    0.000    0.714    5.714    3.000    2.000    1.714 
#    5.143    0.000    0.000    0.000    0.000    3.000 
#    0.000    0.000    0.000    0.000    0.000    0.000 
#
# Total GULP energy -694277.209290 kJ/mol
# GULP energy per Si atom -12397.807309 kJ/mol
# Density = 2.190670 g / cm^3
# Si number density = 21.956675 Si / 1000 Ang^3
#
#
#
# Elastic Constant Matrix: (Units=GPa)
#
#
# Indices 1 2 3 4 5 6 
#
# 1 134.7173 37.0935 65.6359 0.0000 0.0000 0.0000
# 2 37.0935 110.7545 65.3895 0.0000 0.0000 0.0000
# 3 65.6359 65.3895 119.9046 0.0000 0.0000 0.0000
# 4 0.0000 0.0000 0.0000 83.1255 0.0000 0.0000
# 5 0.0000 0.0000 0.0000 0.0000 28.3340 0.0000
# 6 0.0000 0.0000 0.0000 0.0000 0.0000 23.1889
#
#
#
# Elastic Compliance Matrix: (Units=1/GPa)
#
#
# Indices 1 2 3 4 5 6 
#
# 1 0.010125 -0.000175 -0.005447 0.000000 0.000000 0.000000
# 2 -0.000175 0.013320 -0.007168 0.000000 0.000000 0.000000
# 3 -0.005447 -0.007168 0.015231 0.000000 0.000000 0.000000
# 4 0.000000 0.000000 0.000000 0.012030 0.000000 0.000000
# 5 0.000000 0.000000 0.000000 0.000000 0.035293 0.000000
# 6 0.000000 0.000000 0.000000 0.000000 0.000000 0.043124
#
#
# Mechanical properties :
#
#
# Convention : Reuss Voigt Hill
#
# Bulk Modulus (GPa) = 76.36371 77.95711 77.16041
# Shear Modulus (GPa) = 31.43320 40.08018 35.75669
#
# Velocity S-wave (km/s) = 3.78776 4.27713 4.03986
# Velocity P-wave (km/s) = 7.34740 7.74428 7.54845
#
# Compressibility (1/GPa) = 0.01309522
#
# Stress axis : x y z
#
# Youngs Moduli (GPa) = 98.76565 75.07749 65.65737
#
# Poissons Ratio (x) = 0.01315 0.35763
# Poissons Ratio (y) = 0.01730 0.47062
# Poissons Ratio (z) = 0.53797 0.53815
#
# Static dielectric constant tensor:
#      x y z
#    x 3.901920 0.000000 0.000000 
#    y 0.000000 3.897000 0.000000 
#    z 0.000000 0.000000 4.270050 
# 
# 
# High freq. dielectric constant tensor:
#      x y z
#    x 1.833360 0.000000 0.000000 
#    y 0.000000 1.859310 0.000000 
#    z 0.000000 0.000000 1.888520 
# 
# From -- ./inp_files/28424.got.cif
#   From: 2010.03.12/outbox.cif.g09.slc.cpg/sg64_15_cif.got.tgz:28424.got - 2010.04.10 20:19:32.
