data_PCOD8264805
_publ_section_title
;
Structure prediction by ZEFSAII (Michael W. Deem and Ramdas Pophale) SiO2 
 PCOD8264805
Probable space group: C M C A
;
_chemical_formula_sum "Si O2"
_cell_formula_units_Z 88
_cell_length_a 25.491671
_cell_length_b 31.754015
_cell_length_c 5.230517
_cell_angle_alpha 90.000000
_cell_angle_beta 90.000000
_cell_angle_gamma 90.000000
_cell_volume 4233.909477
_symmetry_space_group_name_H-M "C M C A"
_symmetry_group_IT_number 64
_symmetry_cell_setting 'orthorhombic'
loop_
_space_group_symop_operation_xyz
x,y,z
-x,1/2-y,1/2+z
x,-y,-z
-x,1/2+y,1/2-z
-x,-y,-z
x,1/2+y,1/2-z
-x,y,z
x,1/2-y,1/2+z
1/2+x,1/2+y,z
1/2-x,-y,1/2+z
1/2+x,1/2-y,-z
1/2-x,y,1/2-z
1/2-x,1/2-y,-z
1/2+x,y,1/2-z
1/2-x,1/2+y,z
1/2+x,-y,1/2+z
loop_
_atom_site_type_symbol
_atom_site_label
_atom_site_fract_x
_atom_site_fract_y
_atom_site_fract_z
Si Si1 0.116522 0.222638 0.872473
Si Si2 0.804357 0.454870 0.903842
Si Si3 0.061149 0.637026 0.698781
Si Si4 0.797850 0.327088 0.599069
Si Si5 0.750000 0.895656 0.250000
Si Si6 0.380999 0.886762 0.793025
O O1 0.108921 0.255981 0.648576
O O2 0.074019 0.186499 0.826501
O O3 0.175964 0.203398 0.886212
O O4 0.750000 0.460357 0.750000
O O5 0.849967 0.430906 0.748400
O O6 0.824614 0.500000 0.000000
O O7 0.796409 0.424989 0.148361
O O8 0.077476 0.614278 0.436922
O O9 0.000000 0.631613 0.744466
O O10 0.090392 0.615118 0.935153
O O11 0.750000 0.303888 0.750000
O O12 0.773262 0.368226 0.475051
O O13 0.843187 0.345233 0.785927
#
# Coordination Sequence:
#
# PCOD8264805 Si02
#       6
#    16  16  16  16   8  16
#     4  11  25  41  59  92 126 158 209 266 322 379
#     4  12  23  35  61 100 138 173 204 251 308 370
#     4  11  25  45  72  92 114 164 221 275 331 379
#     4  11  23  36  63  86 130 182 209 250 303 381
#     4  12  20  38  58  88 132 176 224 242 282 366
#     4  11  22  42  66  95 130 164 215 263 311 382
#
# _framework density 20.784573999999999
#
# number of rings (size 3 to 8) (size 9 to 14) (size 15 to 20)
#    0.000    0.727    4.545    4.909    2.545    1.455 
#    0.000    0.000    0.000    3.273    0.000    0.000 
#    0.000    0.000    0.000    0.000    0.000    0.000 
#
# Total GULP energy -545518.919092 kJ/mol
# GULP energy per Si atom -12398.157252 kJ/mol
# Density = 2.073727 g / cm^3
# Si number density = 20.784574 Si / 1000 Ang^3
#
#
#
# Elastic Constant Matrix: (Units=GPa)
#
#
# Indices 1 2 3 4 5 6 
#
# 1 111.8863 26.4632 32.0404 0.0000 0.0000 0.0000
# 2 26.4632 93.1236 25.2378 0.0000 0.0000 0.0000
# 3 32.0404 25.2378 106.2440 0.0000 0.0000 0.0000
# 4 0.0000 0.0000 0.0000 -1.1820 0.0000 0.0000
# 5 0.0000 0.0000 0.0000 0.0000 32.8266 0.0000
# 6 0.0000 0.0000 0.0000 0.0000 0.0000 22.5998
#
#
#
# Elastic Compliance Matrix: (Units=1/GPa)
#
#
# Indices 1 2 3 4 5 6 
#
# 1 0.010189 -0.002205 -0.002549 0.000000 0.000000 0.000000
# 2 -0.002205 0.011954 -0.002175 0.000000 0.000000 0.000000
# 3 -0.002549 -0.002175 0.010698 0.000000 0.000000 0.000000
# 4 0.000000 0.000000 0.000000 -0.846041 0.000000 0.000000
# 5 0.000000 0.000000 0.000000 0.000000 0.030463 0.000000
# 6 0.000000 0.000000 0.000000 0.000000 0.000000 0.044248
#
#
# Mechanical properties :
#
#
# Convention : Reuss Voigt Hill
#
# Bulk Modulus (GPa) = 52.67599 53.19299 52.93449
# Shear Modulus (GPa) = -6.96085 26.01638 9.52776
#
# Velocity S-wave (km/s) = -1.83203 3.54180 2.14336
# Velocity P-wave (km/s) = 4.57425 6.50952 5.62573
#
# Compressibility (1/GPa) = 0.01898398
#
# Stress axis : x y z
#
# Youngs Moduli (GPa) = 98.14468 83.65171 93.47849
#
# Poissons Ratio (x) = 0.18442 0.23828
# Poissons Ratio (y) = 0.21637 0.20330
# Poissons Ratio (z) = 0.25018 0.18193
#
# Static dielectric constant tensor:
#      x y z
#    x 3.752880 0.000000 0.000000 
#    y 0.000000 3.754970 0.000000 
#    z 0.000000 0.000000 3.815380 
# 
# 
# High freq. dielectric constant tensor:
#      x y z
#    x 1.793900 0.000000 0.000000 
#    y 0.000000 1.801670 0.000000 
#    z 0.000000 0.000000 1.828360 
# 
# From -- ./inp_files/2441.got.cif
#   From: 2010.03.12/outbox.cif.g09.slc.cpg/sg64_2_cif.got.tgz:2441.got - 2010.04.10 20:19:32.
