data_PCOD8264599
_publ_section_title
;
Structure prediction by ZEFSAII (Michael W. Deem and Ramdas Pophale) SiO2 
 PCOD8264599
Probable space group: C M C A
;
_chemical_formula_sum "Si O2"
_cell_formula_units_Z 88
_cell_length_a 28.639703
_cell_length_b 10.063231
_cell_length_c 14.290383
_cell_angle_alpha 90.000000
_cell_angle_beta 90.000000
_cell_angle_gamma 90.000000
_cell_volume 4118.601947
_symmetry_space_group_name_H-M "C M C A"
_symmetry_group_IT_number 64
_symmetry_cell_setting 'orthorhombic'
loop_
_space_group_symop_operation_xyz
x,y,z
-x,1/2-y,1/2+z
x,-y,-z
-x,1/2+y,1/2-z
-x,-y,-z
x,1/2+y,1/2-z
-x,y,z
x,1/2-y,1/2+z
1/2+x,1/2+y,z
1/2-x,-y,1/2+z
1/2+x,1/2-y,-z
1/2-x,y,1/2-z
1/2-x,1/2-y,-z
1/2+x,y,1/2-z
1/2-x,1/2+y,z
1/2+x,-y,1/2+z
loop_
_atom_site_type_symbol
_atom_site_label
_atom_site_fract_x
_atom_site_fract_y
_atom_site_fract_z
Si Si1 0.500000 0.367366 0.654740
Si Si2 0.858459 0.794577 0.752536
Si Si3 0.829249 0.500000 0.000000
Si Si4 0.087218 0.095534 0.071040
Si Si5 0.000000 0.544773 0.660923
Si Si6 0.798520 0.456049 0.196408
Si Si7 0.590518 0.813717 0.928988
O O1 0.500000 0.461985 0.743676
O O2 0.453516 0.407961 0.596393
O O3 0.500000 0.205808 0.676469
O O4 0.884908 0.840736 0.844753
O O5 0.825270 0.673183 0.772100
O O6 0.894268 0.748985 0.671180
O O7 0.827539 0.915760 0.720552
O O8 0.794474 0.546119 0.916749
O O9 0.863699 0.382356 0.970344
O O10 0.045315 0.001434 0.104256
O O11 0.069457 0.214945 0.005739
O O12 0.117727 0.000000 0.000000
O O13 0.750000 0.461184 0.250000
#
# Coordination Sequence:
#
# PCOD8264599 Si02
#       7
#     8  16   8  16   8  16  16
#     4  12  25  41  66  99 139 189 226 290 328 396
#     4  11  24  43  72 100 134 180 223 286 346 411
#     4  10  24  45  72 100 136 180 220 281 348 420
#     4  12  22  41  68  97 133 181 231 280 333 404
#     4  12  26  39  65  98 142 183 242 278 338 393
#     4  11  24  47  69 102 136 172 224 288 350 414
#     4  11  23  42  67  99 136 178 230 269 343 398
#
# _framework density 21.366475000000001
#
# number of rings (size 3 to 8) (size 9 to 14) (size 15 to 20)
#    0.000    0.727    5.455    2.455    0.000    1.818 
#    4.909    2.727    0.000    0.000    0.000    0.000 
#    0.000    0.000    0.000    0.000    0.000    0.000 
#
# Total GULP energy -545148.398416 kJ/mol
# GULP energy per Si atom -12389.736328 kJ/mol
# Density = 2.131784 g / cm^3
# Si number density = 21.366475 Si / 1000 Ang^3
#
#
#
# Elastic Constant Matrix: (Units=GPa)
#
#
# Indices 1 2 3 4 5 6 
#
# 1 102.0061 5.2947 50.1482 0.0000 0.0000 0.0000
# 2 5.2947 74.9802 21.3969 0.0000 0.0000 0.0000
# 3 50.1482 21.3969 152.9222 0.0000 0.0000 0.0000
# 4 0.0000 0.0000 0.0000 29.1459 0.0000 0.0000
# 5 0.0000 0.0000 0.0000 0.0000 38.7994 0.0000
# 6 0.0000 0.0000 0.0000 0.0000 0.0000 27.1431
#
#
#
# Elastic Compliance Matrix: (Units=1/GPa)
#
#
# Indices 1 2 3 4 5 6 
#
# 1 0.011693 0.000280 -0.003874 0.000000 0.000000 0.000000
# 2 0.000280 0.013898 -0.002036 0.000000 0.000000 0.000000
# 3 -0.003874 -0.002036 0.008095 0.000000 0.000000 0.000000
# 4 0.000000 0.000000 0.000000 0.034310 0.000000 0.000000
# 5 0.000000 0.000000 0.000000 0.000000 0.025774 0.000000
# 6 0.000000 0.000000 0.000000 0.000000 0.000000 0.036842
#
#
# Mechanical properties :
#
#
# Convention : Reuss Voigt Hill
#
# Bulk Modulus (GPa) = 44.59267 53.73201 49.16234
# Shear Modulus (GPa) = 33.47902 35.88893 34.68398
#
# Velocity S-wave (km/s) = 3.96270 4.10284 4.03338
# Velocity P-wave (km/s) = 6.46939 6.90267 6.68954
#
# Compressibility (1/GPa) = 0.02242521
#
# Stress axis : x y z
#
# Youngs Moduli (GPa) = 85.51961 71.95170 123.54021
#
# Poissons Ratio (x) = -0.02013 0.47856
# Poissons Ratio (y) = -0.02392 0.25157
# Poissons Ratio (z) = 0.33128 0.14652
#
# Static dielectric constant tensor:
#      x y z
#    x 4.239510 0.000000 0.000000 
#    y 0.000000 4.021080 0.000000 
#    z 0.000000 0.000000 4.457320 
# 
# 
# High freq. dielectric constant tensor:
#      x y z
#    x 1.822170 0.000000 0.000000 
#    y 0.000000 1.843930 0.000000 
#    z 0.000000 0.000000 1.868950 
# 
# From -- ./inp_files/19714.got.cif
#   From: 2010.03.12/outbox.cif.g09.slc.cpg/sg64_10_cif.got.tgz:19714.got - 2010.04.10 20:19:32.
