data_PCOD8264362
_publ_section_title
;
Structure prediction by ZEFSAII (Michael W. Deem and Ramdas Pophale) SiO2 
 PCOD8264362
Probable space group: C M C A
;
_chemical_formula_sum "Si O2"
_cell_formula_units_Z 72
_cell_length_a 14.506302
_cell_length_b 22.650924
_cell_length_c 10.678299
_cell_angle_alpha 90.000000
_cell_angle_beta 90.000000
_cell_angle_gamma 90.000000
_cell_volume 3508.687703
_symmetry_space_group_name_H-M "C M C A"
_symmetry_group_IT_number 64
_symmetry_cell_setting 'orthorhombic'
loop_
_space_group_symop_operation_xyz
x,y,z
-x,1/2-y,1/2+z
x,-y,-z
-x,1/2+y,1/2-z
-x,-y,-z
x,1/2+y,1/2-z
-x,y,z
x,1/2-y,1/2+z
1/2+x,1/2+y,z
1/2-x,-y,1/2+z
1/2+x,1/2-y,-z
1/2-x,y,1/2-z
1/2-x,1/2-y,-z
1/2+x,y,1/2-z
1/2-x,1/2+y,z
1/2+x,-y,1/2+z
loop_
_atom_site_type_symbol
_atom_site_label
_atom_site_fract_x
_atom_site_fract_y
_atom_site_fract_z
Si Si1 0.500000 0.782733 0.351653
Si Si2 0.894983 0.087341 0.457637
Si Si3 0.000000 0.913918 0.150565
Si Si4 0.848843 0.523617 0.803533
Si Si5 0.354264 0.811557 0.783029
Si Si6 0.000000 0.651627 0.409355
O O1 0.500000 0.847853 0.288666
O O2 0.591880 0.748820 0.309696
O O3 0.500000 0.789767 0.502871
O O4 0.838459 0.069244 0.581069
O O5 0.851750 0.147673 0.406160
O O6 0.000000 0.098058 0.498582
O O7 0.893901 0.036710 0.352125
O O8 0.090310 0.949031 0.192803
O O9 0.000000 0.906922 0.998161
O O10 0.750000 0.508134 0.750000
O O11 0.250000 0.795032 0.750000
O O12 0.407667 0.847980 0.674753
#
# Coordination Sequence:
#
# PCOD8264362 Si02
#       6
#     8  16   8  16  16   8
#     4   9  23  41  60  89 123 169 205 260 310 368
#     4  11  21  42  66  93 125 172 206 254 318 373
#     4  10  22  42  60  90 127 165 207 261 307 366
#     4  11  23  40  66  95 128 162 214 256 305 379
#     4  11  23  41  66  93 125 164 210 263 311 375
#     4   9  23  42  56  92 129 152 217 251 318 373
#
# _framework density 20.520492999999998
#
# number of rings (size 3 to 8) (size 9 to 14) (size 15 to 20)
#    0.667    0.889    4.444    1.333    3.111    5.333 
#    0.000    1.111    0.000    0.000    0.000    0.000 
#    0.000    0.000    0.000    0.000    0.000    0.000 
#
# Total GULP energy -446380.921035 kJ/mol
# GULP energy per Si atom -12399.470029 kJ/mol
# Density = 2.047379 g / cm^3
# Si number density = 20.520493 Si / 1000 Ang^3
#
#
#
# Elastic Constant Matrix: (Units=GPa)
#
#
# Indices 1 2 3 4 5 6 
#
# 1 121.6905 1.0213 13.1129 0.0000 0.0000 0.0000
# 2 1.0213 25.8955 -17.9519 0.0000 0.0000 0.0000
# 3 13.1129 -17.9519 62.6303 0.0000 0.0000 0.0000
# 4 0.0000 0.0000 0.0000 42.5138 0.0000 0.0000
# 5 0.0000 0.0000 0.0000 0.0000 16.7844 0.0000
# 6 0.0000 0.0000 0.0000 0.0000 0.0000 11.7456
#
#
#
# Elastic Compliance Matrix: (Units=1/GPa)
#
#
# Indices 1 2 3 4 5 6 
#
# 1 0.008486 -0.001955 -0.002337 0.000000 0.000000 0.000000
# 2 -0.001955 0.048643 0.014352 0.000000 0.000000 0.000000
# 3 -0.002337 0.014352 0.020570 0.000000 0.000000 0.000000
# 4 0.000000 0.000000 0.000000 0.023522 0.000000 0.000000
# 5 0.000000 0.000000 0.000000 0.000000 0.059579 0.000000
# 6 0.000000 0.000000 0.000000 0.000000 0.000000 0.085138
#
#
# Mechanical properties :
#
#
# Convention : Reuss Voigt Hill
#
# Bulk Modulus (GPa) = 10.22291 22.50898 16.36595
# Shear Modulus (GPa) = 19.34807 28.47771 23.91289
#
# Velocity S-wave (km/s) = 3.07394 3.72932 3.41738
# Velocity P-wave (km/s) = 4.19422 5.43476 4.85428
#
# Compressibility (1/GPa) = 0.09781948
#
# Stress axis : x y z
#
# Youngs Moduli (GPa) = 117.84401 20.55781 48.61508
#
# Poissons Ratio (x) = 0.04019 0.11361
# Poissons Ratio (y) = 0.23035 -0.69772
# Poissons Ratio (z) = 0.27540 -0.29505
#
# Static dielectric constant tensor:
#      x y z
#    x 3.548220 0.000000 0.000000 
#    y 0.000000 3.602600 0.000000 
#    z 0.000000 0.000000 3.760380 
# 
# 
# High freq. dielectric constant tensor:
#      x y z
#    x 1.795520 0.000000 0.000000 
#    y 0.000000 1.796490 0.000000 
#    z 0.000000 0.000000 1.804360 
# 
# From -- ./inp_files/14393.got.cif
#   From: 2010.03.12/outbox.cif.g09.slc.cpg/sg64_8_cif.got.tgz:14393.got - 2010.04.10 20:19:32.
