data_PCOD8264771
_publ_section_title
;
Structure prediction by ZEFSAII (Michael W. Deem and Ramdas Pophale) SiO2 
 PCOD8264771
Probable space group: C M C A
;
_chemical_formula_sum "Si O2"
_cell_formula_units_Z 80
_cell_length_a 16.398149
_cell_length_b 26.154745
_cell_length_c 8.995520
_cell_angle_alpha 90.000000
_cell_angle_beta 90.000000
_cell_angle_gamma 90.000000
_cell_volume 3858.083226
_symmetry_space_group_name_H-M "C M C A"
_symmetry_group_IT_number 64
_symmetry_cell_setting 'orthorhombic'
loop_
_space_group_symop_operation_xyz
x,y,z
-x,1/2-y,1/2+z
x,-y,-z
-x,1/2+y,1/2-z
-x,-y,-z
x,1/2+y,1/2-z
-x,y,z
x,1/2-y,1/2+z
1/2+x,1/2+y,z
1/2-x,-y,1/2+z
1/2+x,1/2-y,-z
1/2-x,y,1/2-z
1/2-x,1/2-y,-z
1/2+x,y,1/2-z
1/2-x,1/2+y,z
1/2+x,-y,1/2+z
loop_
_atom_site_type_symbol
_atom_site_label
_atom_site_fract_x
_atom_site_fract_y
_atom_site_fract_z
Si Si1 0.596038 0.385131 0.141082
Si Si2 0.903544 0.104715 0.201505
Si Si3 0.903502 0.495882 0.335692
Si Si4 0.659722 0.213586 0.791307
Si Si5 0.093820 0.698329 0.109341
O O1 0.500000 0.374661 0.156508
O O2 0.619854 0.439299 0.223703
O O3 0.645880 0.342296 0.225150
O O4 0.623070 0.385207 0.968648
O O5 0.867856 0.147645 0.312097
O O6 0.000000 0.109379 0.210289
O O7 0.873959 0.047134 0.253276
O O8 0.866294 0.500000 0.500000
O O9 0.000000 0.499544 0.346958
O O10 0.750000 0.232174 0.750000
O O11 0.596904 0.254567 0.723986
O O12 0.648589 0.211484 0.967750
O O13 0.000000 0.689862 0.060848
#
# Coordination Sequence:
#
# PCOD8264771 Si02
#       5
#    16  16  16  16  16
#     4   9  16  31  56  81 107 143 184 222 266 324
#     4   8  15  29  54  85 109 133 175 229 272 314
#     4   7  11  23  48  81 109 134 171 219 267 313
#     4  12  25  39  54  77 111 145 178 225 283 335
#     4  11  22  38  59  81 106 140 187 232 274 330
#
# _framework density 20.735685
#
# number of rings (size 3 to 8) (size 9 to 14) (size 15 to 20)
#    0.000    2.600    0.000    6.000    0.000    1.600 
#    0.000    1.000    0.000   13.200    0.000    0.000 
#    0.000    0.000    0.000    0.000    0.000    0.000 
#
# Total GULP energy -495545.630010 kJ/mol
# GULP energy per Si atom -12388.640750 kJ/mol
# Density = 2.068849 g / cm^3
# Si number density = 20.735685 Si / 1000 Ang^3
#
#
#
# Elastic Constant Matrix: (Units=GPa)
#
#
# Indices 1 2 3 4 5 6 
#
# 1 31.2388 17.8323 14.4470 0.0000 0.0000 0.0000
# 2 17.8323 155.1654 55.8575 0.0000 0.0000 0.0000
# 3 14.4470 55.8575 100.0001 0.0000 0.0000 0.0000
# 4 0.0000 0.0000 0.0000 29.7768 0.0000 0.0000
# 5 0.0000 0.0000 0.0000 0.0000 17.9831 0.0000
# 6 0.0000 0.0000 0.0000 0.0000 0.0000 5.7552
#
#
#
# Elastic Compliance Matrix: (Units=1/GPa)
#
#
# Indices 1 2 3 4 5 6 
#
# 1 0.035233 -0.002775 -0.003540 0.000000 0.000000 0.000000
# 2 -0.002775 0.008285 -0.004227 0.000000 0.000000 0.000000
# 3 -0.003540 -0.004227 0.012873 0.000000 0.000000 0.000000
# 4 0.000000 0.000000 0.000000 0.033583 0.000000 0.000000
# 5 0.000000 0.000000 0.000000 0.000000 0.055608 0.000000
# 6 0.000000 0.000000 0.000000 0.000000 0.000000 0.173755
#
#
# Mechanical properties :
#
#
# Convention : Reuss Voigt Hill
#
# Bulk Modulus (GPa) = 28.32334 51.40865 39.86599
# Shear Modulus (GPa) = 14.19689 23.92085 19.05887
#
# Velocity S-wave (km/s) = 2.61944 3.40017 3.03501
# Velocity P-wave (km/s) = 4.77886 6.34516 5.61687
#
# Compressibility (1/GPa) = 0.03530657
#
# Stress axis : x y z
#
# Youngs Moduli (GPa) = 28.38279 120.69543 77.68441
#
# Poissons Ratio (x) = 0.33489 0.27502
# Poissons Ratio (y) = 0.07875 0.32838
# Poissons Ratio (z) = 0.10048 0.51019
#
# Static dielectric constant tensor:
#      x y z
#    x 3.161500 0.000000 0.000000 
#    y 0.000000 4.461080 0.000000 
#    z 0.000000 0.000000 3.540520 
# 
# 
# High freq. dielectric constant tensor:
#      x y z
#    x 1.759970 0.000000 0.000000 
#    y 0.000000 1.843210 0.000000 
#    z 0.000000 0.000000 1.781670 
# 
# From -- ./inp_files/7094.got.cif
#   From: 2010.03.12/outbox.cif.g09.slc.cpg/sg64_4_cif.got.tgz:7094.got - 2010.04.10 20:19:32.
