data_PCOD8264379
_publ_section_title
;
Structure prediction by ZEFSAII (Michael W. Deem and Ramdas Pophale) SiO2 
 PCOD8264379
Probable space group: C M C A
;
_chemical_formula_sum "Si O2"
_cell_formula_units_Z 80
_cell_length_a 16.679931
_cell_length_b 8.704770
_cell_length_c 25.837744
_cell_angle_alpha 90.000000
_cell_angle_beta 90.000000
_cell_angle_gamma 90.000000
_cell_volume 3751.510283
_symmetry_space_group_name_H-M "C M C A"
_symmetry_group_IT_number 64
_symmetry_cell_setting 'orthorhombic'
loop_
_space_group_symop_operation_xyz
x,y,z
-x,1/2-y,1/2+z
x,-y,-z
-x,1/2+y,1/2-z
-x,-y,-z
x,1/2+y,1/2-z
-x,y,z
x,1/2-y,1/2+z
1/2+x,1/2+y,z
1/2-x,-y,1/2+z
1/2+x,1/2-y,-z
1/2-x,y,1/2-z
1/2-x,1/2-y,-z
1/2+x,y,1/2-z
1/2-x,1/2+y,z
1/2+x,-y,1/2+z
loop_
_atom_site_type_symbol
_atom_site_label
_atom_site_fract_x
_atom_site_fract_y
_atom_site_fract_z
Si Si1 0.253581 0.941019 0.443862
Si Si2 0.681534 0.814195 0.882352
Si Si3 0.409089 0.094771 0.902038
Si Si4 0.827445 0.876883 0.217822
Si Si5 0.408368 0.191496 0.304793
O O1 0.254861 0.073302 0.399564
O O2 0.278578 0.000000 0.500000
O O3 0.320021 0.817056 0.426791
O O4 0.160540 0.874864 0.445252
O O5 0.699098 0.742634 0.826619
O O6 0.599796 0.916008 0.882538
O O7 0.500000 0.119085 0.923151
O O8 0.388579 0.207499 0.854936
O O9 0.750000 0.923828 0.250000
O O10 0.891428 0.792629 0.254025
O O11 0.860305 0.032712 0.193309
O O12 0.500000 0.143238 0.303704
#
# Coordination Sequence:
#
# PCOD8264379 Si02
#       5
#    16  16  16  16  16
#     4  10  22  42  67  91 121 164 208 258 315 369
#     4  10  24  38  65  92 125 158 208 252 310 366
#     4   9  22  41  62  91 124 159 204 252 306 366
#     4  12  25  38  61  92 126 163 208 253 297 365
#     4  11  24  42  62  89 129 170 202 245 309 373
#
# _framework density 21.324743999999999
#
# number of rings (size 3 to 8) (size 9 to 14) (size 15 to 20)
#    1.200    0.400    0.000    4.200    8.400    3.600 
#    0.000    0.000    0.000    0.600    0.000    0.000 
#    0.000    0.000    0.000    0.000    0.000    0.000 
#
# Total GULP energy -495562.399382 kJ/mol
# GULP energy per Si atom -12389.059985 kJ/mol
# Density = 2.127621 g / cm^3
# Si number density = 21.324744 Si / 1000 Ang^3
#
#
#
# Elastic Constant Matrix: (Units=GPa)
#
#
# Indices 1 2 3 4 5 6 
#
# 1 55.7402 26.5421 23.0495 0.0000 0.0000 0.0000
# 2 26.5421 103.5057 18.8078 0.0000 0.0000 0.0000
# 3 23.0495 18.8078 49.7724 0.0000 0.0000 0.0000
# 4 0.0000 0.0000 0.0000 37.8750 0.0000 0.0000
# 5 0.0000 0.0000 0.0000 0.0000 26.2341 0.0000
# 6 0.0000 0.0000 0.0000 0.0000 0.0000 29.9052
#
#
#
# Elastic Compliance Matrix: (Units=1/GPa)
#
#
# Indices 1 2 3 4 5 6 
#
# 1 0.023942 -0.004429 -0.009414 0.000000 0.000000 0.000000
# 2 -0.004429 0.011193 -0.002178 0.000000 0.000000 0.000000
# 3 -0.009414 -0.002178 0.025274 0.000000 0.000000 0.000000
# 4 0.000000 0.000000 0.000000 0.026403 0.000000 0.000000
# 5 0.000000 0.000000 0.000000 0.000000 0.038118 0.000000
# 6 0.000000 0.000000 0.000000 0.000000 0.000000 0.033439
#
#
# Mechanical properties :
#
#
# Convention : Reuss Voigt Hill
#
# Bulk Modulus (GPa) = 35.25287 38.42413 36.83850
# Shear Modulus (GPa) = 25.01659 28.17746 26.59703
#
# Velocity S-wave (km/s) = 3.42881 3.63898 3.53546
# Velocity P-wave (km/s) = 5.67829 5.97611 5.82910
#
# Compressibility (1/GPa) = 0.02836648
#
# Stress axis : x y z
#
# Youngs Moduli (GPa) = 41.76739 89.34259 39.56602
#
# Poissons Ratio (x) = 0.39569 0.37247
# Poissons Ratio (y) = 0.18499 0.08619
# Poissons Ratio (z) = 0.39320 0.19463
#
# Static dielectric constant tensor:
#      x y z
#    x 3.629250 0.000000 0.000000 
#    y 0.000000 4.086950 0.000000 
#    z 0.000000 0.000000 3.635180 
# 
# 
# High freq. dielectric constant tensor:
#      x y z
#    x 1.810990 0.000000 0.000000 
#    y 0.000000 1.853570 0.000000 
#    z 0.000000 0.000000 1.824980 
# 
# From -- ./inp_files/50308.got.cif
#   From: 2010.03.12/outbox.cif.g09.slc.cpg/sg64_26_cif.got.tgz:50308.got - 2010.04.10 20:19:32.
