data_PCOD8264984
_publ_section_title
;
Structure prediction by ZEFSAII (Michael W. Deem and Ramdas Pophale) SiO2 
 PCOD8264984
Probable space group: C M C A
;
_chemical_formula_sum "Si O2"
_cell_formula_units_Z 64
_cell_length_a 22.363061
_cell_length_b 8.710004
_cell_length_c 14.674752
_cell_angle_alpha 90.000000
_cell_angle_beta 90.000000
_cell_angle_gamma 90.000000
_cell_volume 2858.382691
_symmetry_space_group_name_H-M "C M C A"
_symmetry_group_IT_number 64
_symmetry_cell_setting 'orthorhombic'
loop_
_space_group_symop_operation_xyz
x,y,z
-x,1/2-y,1/2+z
x,-y,-z
-x,1/2+y,1/2-z
-x,-y,-z
x,1/2+y,1/2-z
-x,y,z
x,1/2-y,1/2+z
1/2+x,1/2+y,z
1/2-x,-y,1/2+z
1/2+x,1/2-y,-z
1/2-x,y,1/2-z
1/2-x,1/2-y,-z
1/2+x,y,1/2-z
1/2-x,1/2+y,z
1/2+x,-y,1/2+z
loop_
_atom_site_type_symbol
_atom_site_label
_atom_site_fract_x
_atom_site_fract_y
_atom_site_fract_z
Si Si1 0.430929 0.697182 0.662993
Si Si2 0.700279 0.747786 0.423531
Si Si3 0.365634 0.013220 0.681466
Si Si4 0.615626 0.000000 0.000000
Si Si5 0.750000 0.377441 0.750000
O O1 0.500000 0.734543 0.677608
O O2 0.408895 0.616436 0.755938
O O3 0.424196 0.595257 0.571769
O O4 0.396915 0.857741 0.647686
O O5 0.750000 0.750000 0.500000
O O6 0.658041 0.897614 0.409283
O O7 0.656631 0.606323 0.437952
O O8 0.741896 0.732259 0.335672
O O9 0.308741 0.980371 0.743897
#
# Coordination Sequence:
#
# PCOD8264984 Si02
#       5
#    16  16  16   8   8
#     4  12  26  48  76 107 150 204 258 311 364 442
#     4  12  26  44  73 112 155 188 237 304 380 457
#     4  12  25  47  73 110 148 196 249 301 380 449
#     4  12  25  48  68 110 148 192 251 310 372 432
#     4  12  22  44  72 110 150 192 234 302 380 448
#
# _framework density 22.390284999999999
#
# number of rings (size 3 to 8) (size 9 to 14) (size 15 to 20)
#    0.000    0.000    5.000    4.875    0.000    3.000 
#    0.000    5.000    0.000    0.000    0.000    0.000 
#    0.000    0.000    0.000    0.000    0.000    0.000 
#
# Total GULP energy -396767.182187 kJ/mol
# GULP energy per Si atom -12398.974443 kJ/mol
# Density = 2.233932 g / cm^3
# Si number density = 22.390285 Si / 1000 Ang^3
#
#
#
# Elastic Constant Matrix: (Units=GPa)
#
#
# Indices 1 2 3 4 5 6 
#
# 1 158.7914 66.6092 50.2456 0.0000 0.0000 0.0000
# 2 66.6092 152.1741 58.7217 0.0000 0.0000 0.0000
# 3 50.2456 58.7217 131.5352 0.0000 0.0000 0.0000
# 4 0.0000 0.0000 0.0000 41.8408 0.0000 0.0000
# 5 0.0000 0.0000 0.0000 0.0000 28.4008 0.0000
# 6 0.0000 0.0000 0.0000 0.0000 0.0000 23.2431
#
#
#
# Elastic Compliance Matrix: (Units=1/GPa)
#
#
# Indices 1 2 3 4 5 6 
#
# 1 0.008058 -0.002826 -0.001816 0.000000 0.000000 0.000000
# 2 -0.002826 0.008930 -0.002907 0.000000 0.000000 0.000000
# 3 -0.001816 -0.002907 0.009594 0.000000 0.000000 0.000000
# 4 0.000000 0.000000 0.000000 0.023900 0.000000 0.000000
# 5 0.000000 0.000000 0.000000 0.000000 0.035210 0.000000
# 6 0.000000 0.000000 0.000000 0.000000 0.000000 0.043024
#
#
# Mechanical properties :
#
#
# Convention : Reuss Voigt Hill
#
# Bulk Modulus (GPa) = 87.08565 88.18374 87.63469
# Shear Modulus (GPa) = 33.86539 36.49189 35.17864
#
# Velocity S-wave (km/s) = 3.89331 4.04147 3.96808
# Velocity P-wave (km/s) = 7.69346 7.82613 7.76008
#
# Compressibility (1/GPa) = 0.01148295
#
# Stress axis : x y z
#
# Youngs Moduli (GPa) = 124.10326 111.97802 104.22924
#
# Poissons Ratio (x) = 0.31647 0.18932
# Poissons Ratio (y) = 0.35073 0.30302
# Poissons Ratio (z) = 0.22541 0.32555
#
# Static dielectric constant tensor:
#      x y z
#    x 4.245280 0.000000 0.000000 
#    y 0.000000 4.218410 0.000000 
#    z 0.000000 0.000000 3.605390 
# 
# 
# High freq. dielectric constant tensor:
#      x y z
#    x 1.885100 0.000000 0.000000 
#    y 0.000000 1.896020 0.000000 
#    z 0.000000 0.000000 1.889830 
# 
# From -- ./inp_files/26958.got.cif
#   From: 2010.03.12/outbox.cif.g09.slc.cpg/sg64_14_cif.got.tgz:26958.got - 2010.04.10 20:19:32.
