data_PCOD8264785
_publ_section_title
;
Structure prediction by ZEFSAII (Michael W. Deem and Ramdas Pophale) SiO2 
 PCOD8264785
Probable space group: C M C A
;
_chemical_formula_sum "Si O2"
_cell_formula_units_Z 96
_cell_length_a 18.229359
_cell_length_b 9.446732
_cell_length_c 28.303468
_cell_angle_alpha 90.000000
_cell_angle_beta 90.000000
_cell_angle_gamma 90.000000
_cell_volume 4874.079910
_symmetry_space_group_name_H-M "C M C A"
_symmetry_group_IT_number 64
_symmetry_cell_setting 'orthorhombic'
loop_
_space_group_symop_operation_xyz
x,y,z
-x,1/2-y,1/2+z
x,-y,-z
-x,1/2+y,1/2-z
-x,-y,-z
x,1/2+y,1/2-z
-x,y,z
x,1/2-y,1/2+z
1/2+x,1/2+y,z
1/2-x,-y,1/2+z
1/2+x,1/2-y,-z
1/2-x,y,1/2-z
1/2-x,1/2-y,-z
1/2+x,y,1/2-z
1/2-x,1/2+y,z
1/2+x,-y,1/2+z
loop_
_atom_site_type_symbol
_atom_site_label
_atom_site_fract_x
_atom_site_fract_y
_atom_site_fract_z
Si Si1 0.318199 0.659040 0.983348
Si Si2 0.913721 0.499460 0.221401
Si Si3 0.654410 0.564126 0.623231
Si Si4 0.828748 0.779406 0.223836
Si Si5 0.084006 0.127953 0.528647
Si Si6 0.790746 0.749938 0.618871
O O1 0.328229 0.674040 0.926511
O O2 0.306211 0.500000 0.000000
O O3 0.250000 0.750000 0.000000
O O4 0.387267 0.720340 0.011368
O O5 0.894160 0.441907 0.169837
O O6 0.859220 0.625333 0.235274
O O7 0.892944 0.381804 0.259180
O O8 0.000000 0.538423 0.224546
O O9 0.595391 0.592542 0.583049
O O10 0.706295 0.702086 0.622251
O O11 0.701943 0.420511 0.615096
O O12 0.750000 0.802675 0.250000
O O13 0.826319 0.804451 0.167568
O O14 0.000000 0.132819 0.516060
O O15 0.122996 0.000000 0.500000
#
# Coordination Sequence:
#
# PCOD8264785 Si02
#       6
#    16  16  16  16  16  16
#     4  12  23  40  65  93 126 162 208 259 312 373
#     4  11  24  42  64  92 128 165 209 261 321 380
#     4  11  22  39  64  93 124 160 212 260 313 372
#     4  11  23  42  65  92 126 164 210 262 315 374
#     4  11  23  41  62  87 125 168 207 253 316 379
#     4  11  23  37  64  97 123 159 210 261 313 367
#
# _framework density 19.696024999999999
#
# number of rings (size 3 to 8) (size 9 to 14) (size 15 to 20)
#    0.000    0.833    5.000    3.000    2.333    0.333 
#    0.000    0.833    0.000    0.000    0.000    0.000 
#    0.000    0.000    0.000    0.000    0.000    0.000 
#
# Total GULP energy -595036.845606 kJ/mol
# GULP energy per Si atom -12396.600950 kJ/mol
# Density = 1.965120 g / cm^3
# Si number density = 19.696025 Si / 1000 Ang^3
#
#
#
# Elastic Constant Matrix: (Units=GPa)
#
#
# Indices 1 2 3 4 5 6 
#
# 1 92.3173 35.0428 27.0492 0.0000 0.0000 0.0000
# 2 35.0428 97.6076 52.4972 0.0000 0.0000 0.0000
# 3 27.0492 52.4972 138.4576 0.0000 0.0000 0.0000
# 4 0.0000 0.0000 0.0000 31.8584 0.0000 0.0000
# 5 0.0000 0.0000 0.0000 0.0000 28.9167 0.0000
# 6 0.0000 0.0000 0.0000 0.0000 0.0000 28.1309
#
#
#
# Elastic Compliance Matrix: (Units=1/GPa)
#
#
# Indices 1 2 3 4 5 6 
#
# 1 0.012638 -0.004031 -0.000940 0.000000 0.000000 0.000000
# 2 -0.004031 0.014156 -0.004580 0.000000 0.000000 0.000000
# 3 -0.000940 -0.004580 0.009143 0.000000 0.000000 0.000000
# 4 0.000000 0.000000 0.000000 0.031389 0.000000 0.000000
# 5 0.000000 0.000000 0.000000 0.000000 0.034582 0.000000
# 6 0.000000 0.000000 0.000000 0.000000 0.000000 0.035548
#
#
# Mechanical properties :
#
#
# Convention : Reuss Voigt Hill
#
# Bulk Modulus (GPa) = 59.40651 61.95121 60.67886
# Shear Modulus (GPa) = 30.83199 32.03409 31.43304
#
# Velocity S-wave (km/s) = 3.96080 4.03727 3.99922
# Velocity P-wave (km/s) = 7.15153 7.29758 7.22492
#
# Compressibility (1/GPa) = 0.01683317
#
# Stress axis : x y z
#
# Youngs Moduli (GPa) = 79.12599 70.64368 109.37895
#
# Poissons Ratio (x) = 0.28480 0.10286
# Poissons Ratio (y) = 0.31900 0.50091
# Poissons Ratio (z) = 0.07441 0.32352
#
# Static dielectric constant tensor:
#      x y z
#    x 3.565950 0.000000 0.000000 
#    y 0.000000 3.291660 0.000000 
#    z 0.000000 0.000000 3.903430 
# 
# 
# High freq. dielectric constant tensor:
#      x y z
#    x 1.755610 0.000000 0.000000 
#    y 0.000000 1.770480 0.000000 
#    z 0.000000 0.000000 1.788160 
# 
# From -- ./inp_files/50687.got.cif
#   From: 2010.03.12/outbox.cif.g09.slc.cpg/sg64_26_cif.got.tgz:50687.got - 2010.04.10 20:19:32.
