data_PCOD8264502
_publ_section_title
;
Structure prediction by ZEFSAII (Michael W. Deem and Ramdas Pophale) SiO2 
 PCOD8264502
Probable space group: C M C A
;
_chemical_formula_sum "Si O2"
_cell_formula_units_Z 64
_cell_length_a 8.126476
_cell_length_b 10.219960
_cell_length_c 34.076543
_cell_angle_alpha 90.000000
_cell_angle_beta 90.000000
_cell_angle_gamma 90.000000
_cell_volume 2830.133898
_symmetry_space_group_name_H-M "C M C A"
_symmetry_group_IT_number 64
_symmetry_cell_setting 'orthorhombic'
loop_
_space_group_symop_operation_xyz
x,y,z
-x,1/2-y,1/2+z
x,-y,-z
-x,1/2+y,1/2-z
-x,-y,-z
x,1/2+y,1/2-z
-x,y,z
x,1/2-y,1/2+z
1/2+x,1/2+y,z
1/2-x,-y,1/2+z
1/2+x,1/2-y,-z
1/2-x,y,1/2-z
1/2-x,1/2-y,-z
1/2+x,y,1/2-z
1/2-x,1/2+y,z
1/2+x,-y,1/2+z
loop_
_atom_site_type_symbol
_atom_site_label
_atom_site_fract_x
_atom_site_fract_y
_atom_site_fract_z
Si Si1 0.308076 0.033142 0.085817
Si Si2 0.318121 0.570534 0.670248
Si Si3 0.500000 0.567606 0.267479
Si Si4 0.500000 0.345316 0.206596
Si Si5 0.689103 0.719086 0.543057
O O1 0.500000 0.051790 0.077362
O O2 0.272073 0.010217 0.131531
O O3 0.217339 0.164420 0.073380
O O4 0.230721 0.913156 0.060616
O O5 0.500000 0.641313 0.664296
O O6 0.337768 0.470326 0.706955
O O7 0.165532 0.667278 0.679972
O O8 0.500000 0.486985 0.227199
O O9 0.500000 0.725826 0.261736
O O10 0.500000 0.689005 0.539848
O O11 0.750000 0.750000 0.500000
#
# Coordination Sequence:
#
# PCOD8264502 Si02
#       5
#    16  16   8   8  16
#     4  10  23  43  64  95 135 169 219 277 324 390
#     4   9  24  44  66 103 133 178 224 279 329 398
#     4  10  26  46  68 104 135 179 226 274 341 401
#     4  12  24  48  70 100 137 181 220 278 339 401
#     4  11  24  41  65  97 130 176 217 270 336 394
#
# _framework density 22.613769999999999
#
# number of rings (size 3 to 8) (size 9 to 14) (size 15 to 20)
#    0.750    1.000    0.000    2.250    5.250    9.000 
#    2.250    0.000    0.000    0.000    0.000    0.000 
#    0.000    0.000    0.000    0.000    0.000    0.000 
#
# Total GULP energy -396537.236403 kJ/mol
# GULP energy per Si atom -12391.788638 kJ/mol
# Density = 2.256230 g / cm^3
# Si number density = 22.613770 Si / 1000 Ang^3
#
#
#
# Elastic Constant Matrix: (Units=GPa)
#
#
# Indices 1 2 3 4 5 6 
#
# 1 90.5131 16.5272 10.8959 0.0000 0.0000 0.0000
# 2 16.5272 79.8534 -14.5913 0.0000 0.0000 0.0000
# 3 10.8959 -14.5913 71.8901 0.0000 0.0000 0.0000
# 4 0.0000 0.0000 0.0000 33.9713 0.0000 0.0000
# 5 0.0000 0.0000 0.0000 0.0000 29.9463 0.0000
# 6 0.0000 0.0000 0.0000 0.0000 0.0000 20.1665
#
#
#
# Elastic Compliance Matrix: (Units=1/GPa)
#
#
# Indices 1 2 3 4 5 6 
#
# 1 0.011863 -0.002891 -0.002385 0.000000 0.000000 0.000000
# 2 -0.002891 0.013710 0.003221 0.000000 0.000000 0.000000
# 3 -0.002385 0.003221 0.014925 0.000000 0.000000 0.000000
# 4 0.000000 0.000000 0.000000 0.029437 0.000000 0.000000
# 5 0.000000 0.000000 0.000000 0.000000 0.033393 0.000000
# 6 0.000000 0.000000 0.000000 0.000000 0.000000 0.049587
#
#
# Mechanical properties :
#
#
# Convention : Reuss Voigt Hill
#
# Bulk Modulus (GPa) = 27.48147 29.76891 28.62519
# Shear Modulus (GPa) = 29.55877 32.11182 30.83529
#
# Velocity S-wave (km/s) = 3.61933 3.77239 3.69665
# Velocity P-wave (km/s) = 5.44472 5.67162 5.55932
#
# Compressibility (1/GPa) = 0.03638815
#
# Stress axis : x y z
#
# Youngs Moduli (GPa) = 84.29504 72.94036 67.00037
#
# Poissons Ratio (x) = 0.21087 0.15978
# Poissons Ratio (y) = 0.24370 -0.21580
# Poissons Ratio (z) = 0.20103 -0.23493
#
# Static dielectric constant tensor:
#      x y z
#    x 4.083960 0.000000 0.000000 
#    y 0.000000 3.573030 0.000000 
#    z 0.000000 0.000000 3.791180 
# 
# 
# High freq. dielectric constant tensor:
#      x y z
#    x 1.890940 0.000000 0.000000 
#    y 0.000000 1.872110 0.000000 
#    z 0.000000 0.000000 1.897640 
# 
# From -- ./inp_files/51568.got.cif
#   From: 2010.03.12/outbox.cif.g09.slc.cpg/sg64_26_cif.got.tgz:51568.got - 2010.04.10 20:19:32.
