data_PCOD8264848
_publ_section_title
;
Structure prediction by ZEFSAII (Michael W. Deem and Ramdas Pophale) SiO2 
 PCOD8264848
Probable space group: C M C A
;
_chemical_formula_sum "Si O2"
_cell_formula_units_Z 64
_cell_length_a 24.568268
_cell_length_b 13.286091
_cell_length_c 8.697938
_cell_angle_alpha 90.000000
_cell_angle_beta 90.000000
_cell_angle_gamma 90.000000
_cell_volume 2839.148256
_symmetry_space_group_name_H-M "C M C A"
_symmetry_group_IT_number 64
_symmetry_cell_setting 'orthorhombic'
loop_
_space_group_symop_operation_xyz
x,y,z
-x,1/2-y,1/2+z
x,-y,-z
-x,1/2+y,1/2-z
-x,-y,-z
x,1/2+y,1/2-z
-x,y,z
x,1/2-y,1/2+z
1/2+x,1/2+y,z
1/2-x,-y,1/2+z
1/2+x,1/2-y,-z
1/2-x,y,1/2-z
1/2-x,1/2-y,-z
1/2+x,y,1/2-z
1/2-x,1/2+y,z
1/2+x,-y,1/2+z
loop_
_atom_site_type_symbol
_atom_site_label
_atom_site_fract_x
_atom_site_fract_y
_atom_site_fract_z
Si Si1 0.117041 0.946993 0.853246
Si Si2 0.789149 0.702398 0.374882
Si Si3 0.437004 0.697481 0.375310
Si Si4 0.378896 0.353143 0.308588
O O1 0.074669 0.871532 0.773969
O O2 0.133021 0.030150 0.725486
O O3 0.169182 0.886210 0.923215
O O4 0.089062 0.000000 0.000000
O O5 0.750000 0.651827 0.250000
O O6 0.750000 0.750000 0.500000
O O7 0.822403 0.793649 0.297570
O O8 0.500000 0.694520 0.418605
O O9 0.403587 0.658527 0.521161
O O10 0.419177 0.809572 0.324252
#
# Coordination Sequence:
#
# PCOD8264848 Si02
#       4
#    16  16  16  16
#     4  11  24  41  63  94 130 169 218 272 322 387
#     4  11  23  41  64  91 126 169 213 263 326 389
#     4  11  24  42  67  95 128 175 219 269 335 394
#     4  11  23  43  64  93 132 164 215 275 324 391
#
# _framework density 22.541972999999999
#
# number of rings (size 3 to 8) (size 9 to 14) (size 15 to 20)
#    0.000    1.000    0.000    9.000    0.000    6.500 
#    0.000    0.000    0.000    0.000    0.000    0.000 
#    0.000    0.000    0.000    0.000    0.000    0.000 
#
# Total GULP energy -396728.175984 kJ/mol
# GULP energy per Si atom -12397.755499 kJ/mol
# Density = 2.249067 g / cm^3
# Si number density = 22.541973 Si / 1000 Ang^3
#
#
#
# Elastic Constant Matrix: (Units=GPa)
#
#
# Indices 1 2 3 4 5 6 
#
# 1 94.6733 28.5616 18.1589 0.0000 0.0000 0.0000
# 2 28.5616 115.6880 13.8889 0.0000 0.0000 0.0000
# 3 18.1589 13.8889 91.4207 0.0000 0.0000 0.0000
# 4 0.0000 0.0000 0.0000 45.4956 0.0000 0.0000
# 5 0.0000 0.0000 0.0000 0.0000 31.9759 0.0000
# 6 0.0000 0.0000 0.0000 0.0000 0.0000 16.2058
#
#
#
# Elastic Compliance Matrix: (Units=1/GPa)
#
#
# Indices 1 2 3 4 5 6 
#
# 1 0.011736 -0.002666 -0.001926 0.000000 0.000000 0.000000
# 2 -0.002666 0.009410 -0.000900 0.000000 0.000000 0.000000
# 3 -0.001926 -0.000900 0.011458 0.000000 0.000000 0.000000
# 4 0.000000 0.000000 0.000000 0.021980 0.000000 0.000000
# 5 0.000000 0.000000 0.000000 0.000000 0.031274 0.000000
# 6 0.000000 0.000000 0.000000 0.000000 0.000000 0.061706
#
#
# Mechanical properties :
#
#
# Convention : Reuss Voigt Hill
#
# Bulk Modulus (GPa) = 46.25444 47.00008 46.62726
# Shear Modulus (GPa) = 30.16477 34.81360 32.48919
#
# Velocity S-wave (km/s) = 3.66206 3.93414 3.80053
# Velocity P-wave (km/s) = 6.20038 6.44452 6.32363
#
# Compressibility (1/GPa) = 0.02161955
#
# Stress axis : x y z
#
# Youngs Moduli (GPa) = 85.20440 106.26690 87.27701
#
# Poissons Ratio (x) = 0.28334 0.16811
# Poissons Ratio (y) = 0.22718 0.07855
# Poissons Ratio (z) = 0.16412 0.09564
#
# Static dielectric constant tensor:
#      x y z
#    x 3.820110 0.000000 0.000000 
#    y 0.000000 4.252740 0.000000 
#    z 0.000000 0.000000 4.050910 
# 
# 
# High freq. dielectric constant tensor:
#      x y z
#    x 1.873560 0.000000 0.000000 
#    y 0.000000 1.894400 0.000000 
#    z 0.000000 0.000000 1.906680 
# 
# From -- ./inp_files/8949.got.cif
#   From: 2010.03.12/outbox.cif.g09.slc.cpg/sg64_5_cif.got.tgz:8949.got - 2010.04.10 20:19:32.
