data_PCOD8264159
_publ_section_title
;
Structure prediction by ZEFSAII (Michael W. Deem and Ramdas Pophale) SiO2 
 PCOD8264159
Probable space group: C M C A
;
_chemical_formula_sum "Si O2"
_cell_formula_units_Z 72
_cell_length_a 9.009784
_cell_length_b 24.293238
_cell_length_c 15.088678
_cell_angle_alpha 90.000000
_cell_angle_beta 90.000000
_cell_angle_gamma 90.000000
_cell_volume 3302.561965
_symmetry_space_group_name_H-M "C M C A"
_symmetry_group_IT_number 64
_symmetry_cell_setting 'orthorhombic'
loop_
_space_group_symop_operation_xyz
x,y,z
-x,1/2-y,1/2+z
x,-y,-z
-x,1/2+y,1/2-z
-x,-y,-z
x,1/2+y,1/2-z
-x,y,z
x,1/2-y,1/2+z
1/2+x,1/2+y,z
1/2-x,-y,1/2+z
1/2+x,1/2-y,-z
1/2-x,y,1/2-z
1/2-x,1/2-y,-z
1/2+x,y,1/2-z
1/2-x,1/2+y,z
1/2+x,-y,1/2+z
loop_
_atom_site_type_symbol
_atom_site_label
_atom_site_fract_x
_atom_site_fract_y
_atom_site_fract_z
Si Si1 0.500000 0.810021 0.609514
Si Si2 0.250000 0.400180 0.750000
Si Si3 0.000000 0.023885 0.218523
Si Si4 0.500000 0.176297 0.195366
Si Si5 0.500000 0.946870 0.437163
Si Si6 0.000000 0.299988 0.998896
Si Si7 0.748206 0.120799 0.475733
Si Si8 0.000000 0.458597 0.919700
O O1 0.500000 0.789959 0.712341
O O2 0.500000 0.757686 0.547117
O O3 0.644706 0.847343 0.595119
O O4 0.356348 0.439776 0.809382
O O5 0.355711 0.362706 0.688266
O O6 0.000000 0.010994 0.324253
O O7 0.000000 0.966854 0.164731
O O8 0.500000 0.213639 0.107356
O O9 0.646355 0.909945 0.451984
O O10 0.500000 0.000000 0.500000
O O11 0.853292 0.334630 0.025643
O O12 0.851433 0.077395 0.424778
O O13 0.000000 0.500000 0.000000
#
# Coordination Sequence:
#
# PCOD8264159 Si02
#       8
#     8   8   8   8   8   8  16   8
#     4  11  22  40  68  92 123 161 213 269 329 375
#     4  10  22  36  62  98 116 160 212 282 298 364
#     4  11  25  37  62  90 128 161 219 248 317 363
#     4  11  21  36  65  91 124 150 214 270 334 350
#     4  11  26  38  62  92 134 170 205 253 321 378
#     4  11  23  40  67  93 126 163 212 266 328 381
#     4  10  23  42  61  96 128 165 214 268 316 375
#     4  11  23  41  66  90 131 173 217 256 309 373
#
# _framework density 21.801255999999999
#
# number of rings (size 3 to 8) (size 9 to 14) (size 15 to 20)
#    0.000    1.333    0.000    6.667   15.556    0.000 
#    0.000    0.000   14.667    0.000    0.000    0.000 
#    0.000    0.000    0.000    0.000    0.000    0.000 
#
# Total GULP energy -446273.330383 kJ/mol
# GULP energy per Si atom -12396.481400 kJ/mol
# Density = 2.175164 g / cm^3
# Si number density = 21.801256 Si / 1000 Ang^3
#
#
#
# Elastic Constant Matrix: (Units=GPa)
#
#
# Indices 1 2 3 4 5 6 
#
# 1 185.9331 61.3922 57.2380 0.0000 0.0000 0.0000
# 2 61.3922 116.1877 94.9964 0.0000 0.0000 0.0000
# 3 57.2380 94.9964 170.0046 0.0000 0.0000 0.0000
# 4 0.0000 0.0000 0.0000 51.0591 0.0000 0.0000
# 5 0.0000 0.0000 0.0000 0.0000 20.9203 0.0000
# 6 0.0000 0.0000 0.0000 0.0000 0.0000 33.5815
#
#
#
# Elastic Compliance Matrix: (Units=1/GPa)
#
#
# Indices 1 2 3 4 5 6 
#
# 1 0.006538 -0.003047 -0.000499 0.000000 0.000000 0.000000
# 2 -0.003047 0.017266 -0.008622 0.000000 0.000000 0.000000
# 3 -0.000499 -0.008622 0.010868 0.000000 0.000000 0.000000
# 4 0.000000 0.000000 0.000000 0.019585 0.000000 0.000000
# 5 0.000000 0.000000 0.000000 0.000000 0.047800 0.000000
# 6 0.000000 0.000000 0.000000 0.000000 0.000000 0.029778
#
#
# Mechanical properties :
#
#
# Convention : Reuss Voigt Hill
#
# Bulk Modulus (GPa) = 96.74335 99.93099 98.33717
# Shear Modulus (GPa) = 31.32482 38.34543 34.83512
#
# Velocity S-wave (km/s) = 3.79467 4.19843 4.00165
# Velocity P-wave (km/s) = 7.97940 8.33302 8.15813
#
# Compressibility (1/GPa) = 0.01033663
#
# Stress axis : x y z
#
# Youngs Moduli (GPa) = 152.95699 57.91566 92.01126
#
# Poissons Ratio (x) = 0.17645 0.04588
# Poissons Ratio (y) = 0.46602 0.79337
# Poissons Ratio (z) = 0.07628 0.49938
#
# Static dielectric constant tensor:
#      x y z
#    x 4.597740 0.000000 0.000000 
#    y 0.000000 3.711540 0.000000 
#    z 0.000000 0.000000 3.762470 
# 
# 
# High freq. dielectric constant tensor:
#      x y z
#    x 1.899800 0.000000 0.000000 
#    y 0.000000 1.821120 0.000000 
#    z 0.000000 0.000000 1.848070 
# 
# From -- ./inp_files/21227.got.cif
#   From: 2010.03.12/outbox.cif.g09.slc.cpg/sg64_11_cif.got.tgz:21227.got - 2010.04.10 20:19:32.
