data_PCOD8264335
_publ_section_title
;
Structure prediction by ZEFSAII (Michael W. Deem and Ramdas Pophale) SiO2 
 PCOD8264335
Probable space group: C M C A
;
_chemical_formula_sum "Si O2"
_cell_formula_units_Z 96
_cell_length_a 21.912789
_cell_length_b 24.623023
_cell_length_c 8.912328
_cell_angle_alpha 90.000000
_cell_angle_beta 90.000000
_cell_angle_gamma 90.000000
_cell_volume 4808.727742
_symmetry_space_group_name_H-M "C M C A"
_symmetry_group_IT_number 64
_symmetry_cell_setting 'orthorhombic'
loop_
_space_group_symop_operation_xyz
x,y,z
-x,1/2-y,1/2+z
x,-y,-z
-x,1/2+y,1/2-z
-x,-y,-z
x,1/2+y,1/2-z
-x,y,z
x,1/2-y,1/2+z
1/2+x,1/2+y,z
1/2-x,-y,1/2+z
1/2+x,1/2-y,-z
1/2-x,y,1/2-z
1/2-x,1/2-y,-z
1/2+x,y,1/2-z
1/2-x,1/2+y,z
1/2+x,-y,1/2+z
loop_
_atom_site_type_symbol
_atom_site_label
_atom_site_fract_x
_atom_site_fract_y
_atom_site_fract_z
Si Si1 0.129743 0.123469 0.913111
Si Si2 0.190572 0.517326 0.665698
Si Si3 0.500000 0.283517 0.446697
Si Si4 0.626827 0.309481 0.575851
Si Si5 0.000000 0.324820 0.387611
Si Si6 0.821737 0.399629 0.736460
Si Si7 0.681114 0.279373 0.269327
O O1 0.139250 0.063836 0.840855
O O2 0.170383 0.165536 0.821095
O O3 0.058462 0.136768 0.903049
O O4 0.152883 0.125535 0.082958
O O5 0.212149 0.500000 0.500000
O O6 0.250000 0.540423 0.750000
O O7 0.163811 0.463946 0.748812
O O8 0.557807 0.312484 0.520612
O O9 0.500000 0.219032 0.478167
O O10 0.500000 0.292441 0.268760
O O11 0.644887 0.370031 0.625921
O O12 0.670454 0.288620 0.444315
O O13 0.634606 0.267167 0.712891
O O14 0.750000 0.388779 0.750000
O O15 0.750000 0.258736 0.250000
#
# Coordination Sequence:
#
# PCOD8264335 Si02
#       7
#    16  16   8  16   8  16  16
#     4  11  22  40  64  92 125 171 213 261 313 374
#     4   9  20  40  65  95 127 165 209 259 324 385
#     4  12  24  44  61  85 127 171 216 257 307 376
#     4  12  23  39  60  89 125 162 213 256 316 383
#     4  12  26  44  64  89 128 172 226 258 311 380
#     4  10  22  41  64  96 129 160 208 262 320 387
#     4  12  23  37  60  91 125 160 202 265 326 376
#
# _framework density 19.963701
#
# number of rings (size 3 to 8) (size 9 to 14) (size 15 to 20)
#    0.000    1.000    3.333    3.500    2.333    2.667 
#    0.000    4.583    0.000    1.000    0.000    0.000 
#    0.000    0.000    0.000    0.000    0.000    0.000 
#
# Total GULP energy -595441.845630 kJ/mol
# GULP energy per Si atom -12405.038451 kJ/mol
# Density = 1.991826 g / cm^3
# Si number density = 19.963701 Si / 1000 Ang^3
#
#
#
# Elastic Constant Matrix: (Units=GPa)
#
#
# Indices 1 2 3 4 5 6 
#
# 1 126.2826 61.9401 47.5693 0.0000 0.0000 0.0000
# 2 61.9401 113.7969 51.2883 0.0000 0.0000 0.0000
# 3 47.5693 51.2883 90.5965 0.0000 0.0000 0.0000
# 4 0.0000 0.0000 0.0000 34.9173 0.0000 0.0000
# 5 0.0000 0.0000 0.0000 0.0000 33.9336 0.0000
# 6 0.0000 0.0000 0.0000 0.0000 0.0000 241.0193
#
#
#
# Elastic Compliance Matrix: (Units=1/GPa)
#
#
# Indices 1 2 3 4 5 6 
#
# 1 0.011515 -0.004756 -0.003354 0.000000 0.000000 0.000000
# 2 -0.004756 0.013762 -0.005294 0.000000 0.000000 0.000000
# 3 -0.003354 -0.005294 0.015796 0.000000 0.000000 0.000000
# 4 0.000000 0.000000 0.000000 0.028639 0.000000 0.000000
# 5 0.000000 0.000000 0.000000 0.000000 0.029469 0.000000
# 6 0.000000 0.000000 0.000000 0.000000 0.000000 0.004149
#
#
# Mechanical properties :
#
#
# Convention : Reuss Voigt Hill
#
# Bulk Modulus (GPa) = 70.09719 72.47459 71.28589
# Shear Modulus (GPa) = 37.06659 73.29926 55.18292
#
# Velocity S-wave (km/s) = 4.31362 6.06597 5.26323
# Velocity P-wave (km/s) = 7.74586 9.24355 8.52765
#
# Compressibility (1/GPa) = 0.01426591
#
# Stress axis : x y z
#
# Youngs Moduli (GPa) = 86.84474 72.66242 63.30844
#
# Poissons Ratio (x) = 0.34559 0.21231
# Poissons Ratio (y) = 0.41304 0.33514
# Poissons Ratio (z) = 0.29124 0.38466
#
# Static dielectric constant tensor:
#      x y z
#    x 3.630340 0.000000 0.000000 
#    y 0.000000 3.788270 0.000000 
#    z 0.000000 0.000000 3.806350 
# 
# 
# High freq. dielectric constant tensor:
#      x y z
#    x 1.772390 0.000000 0.000000 
#    y 0.000000 1.780540 0.000000 
#    z 0.000000 0.000000 1.790470 
# 
# From -- ./inp_files/9535.got.cif
#   From: 2010.03.12/outbox.cif.g09.slc.cpg/sg64_5_cif.got.tgz:9535.got - 2010.04.10 20:19:32.
