data_PCOD8264385
_publ_section_title
;
Structure prediction by ZEFSAII (Michael W. Deem and Ramdas Pophale) SiO2 
 PCOD8264385
Probable space group: C M C A
;
_chemical_formula_sum "Si O2"
_cell_formula_units_Z 72
_cell_length_a 16.546763
_cell_length_b 22.558295
_cell_length_c 7.897085
_cell_angle_alpha 90.000000
_cell_angle_beta 90.000000
_cell_angle_gamma 90.000000
_cell_volume 2947.719340
_symmetry_space_group_name_H-M "C M C A"
_symmetry_group_IT_number 64
_symmetry_cell_setting 'orthorhombic'
loop_
_space_group_symop_operation_xyz
x,y,z
-x,1/2-y,1/2+z
x,-y,-z
-x,1/2+y,1/2-z
-x,-y,-z
x,1/2+y,1/2-z
-x,y,z
x,1/2-y,1/2+z
1/2+x,1/2+y,z
1/2-x,-y,1/2+z
1/2+x,1/2-y,-z
1/2-x,y,1/2-z
1/2-x,1/2-y,-z
1/2+x,y,1/2-z
1/2-x,1/2+y,z
1/2+x,-y,1/2+z
loop_
_atom_site_type_symbol
_atom_site_label
_atom_site_fract_x
_atom_site_fract_y
_atom_site_fract_z
Si Si1 0.640726 0.436556 0.561301
Si Si2 0.250000 0.264754 0.750000
Si Si3 0.174553 0.436179 0.546150
Si Si4 0.000000 0.846330 0.493628
Si Si5 0.650001 0.313207 0.034285
Si Si6 0.500000 0.731516 0.166751
O O1 0.605021 0.500000 0.500000
O O2 0.731567 0.432392 0.490613
O O3 0.649377 0.427348 0.760977
O O4 0.580800 0.385975 0.492420
O O5 0.327119 0.222642 0.704458
O O6 0.272691 0.307135 0.906470
O O7 0.138030 0.500000 0.500000
O O8 0.134208 0.383362 0.435811
O O9 0.000000 0.804520 0.323597
O O10 0.000000 0.802005 0.655452
O O11 0.574930 0.284052 0.948463
#
# Coordination Sequence:
#
# PCOD8264385 Si02
#       6
#    16   8  16   8  16   8
#     4  10  22  43  69  95 130 175 221 278 336 403
#     4  10  24  38  70  92 132 176 232 270 346 398
#     4  10  22  42  68  96 129 168 226 281 334 394
#     4  12  25  46  64 100 135 182 220 281 341 407
#     4  11  23  43  63  99 132 179 221 286 332 409
#     4  12  26  42  68  96 143 177 224 275 345 399
#
# _framework density 24.425663
#
# number of rings (size 3 to 8) (size 9 to 14) (size 15 to 20)
#    0.000    1.333    2.222    3.000    6.222    3.556 
#    4.000    2.222    0.000    0.000    0.000    0.000 
#    0.000    0.000    0.000    0.000    0.000    0.000 
#
# Total GULP energy -446198.686692 kJ/mol
# GULP energy per Si atom -12394.407964 kJ/mol
# Density = 2.437007 g / cm^3
# Si number density = 24.425663 Si / 1000 Ang^3
#
#
#
# Elastic Constant Matrix: (Units=GPa)
#
#
# Indices 1 2 3 4 5 6 
#
# 1 53.4158 29.3387 -2.2397 0.0000 0.0000 0.0000
# 2 29.3387 200.7295 17.4334 0.0000 0.0000 0.0000
# 3 -2.2397 17.4334 32.0427 0.0000 0.0000 0.0000
# 4 0.0000 0.0000 0.0000 48.6209 0.0000 0.0000
# 5 0.0000 0.0000 0.0000 0.0000 -1.5622 0.0000
# 6 0.0000 0.0000 0.0000 0.0000 0.0000 20.8709
#
#
#
# Elastic Compliance Matrix: (Units=1/GPa)
#
#
# Indices 1 2 3 4 5 6 
#
# 1 0.020671 -0.003303 0.003242 0.000000 0.000000 0.000000
# 2 -0.003303 0.005757 -0.003363 0.000000 0.000000 0.000000
# 3 0.003242 -0.003363 0.033265 0.000000 0.000000 0.000000
# 4 0.000000 0.000000 0.000000 0.020567 0.000000 0.000000
# 5 0.000000 0.000000 0.000000 0.000000 -0.640110 0.000000
# 6 0.000000 0.000000 0.000000 0.000000 0.000000 0.047914
#
#
# Mechanical properties :
#
#
# Convention : Reuss Voigt Hill
#
# Bulk Modulus (GPa) = 18.92344 41.69473 30.30909
# Shear Modulus (GPa) = -10.25695 29.69629 9.71967
#
# Velocity S-wave (km/s) = -2.05143 3.49059 1.99698
# Velocity P-wave (km/s) = 1.46732 5.77518 4.21342
#
# Compressibility (1/GPa) = 0.05284451
#
# Stress axis : x y z
#
# Youngs Moduli (GPa) = 48.37679 173.71256 30.06203
#
# Poissons Ratio (x) = 0.57374 -0.09746
# Poissons Ratio (y) = 0.15978 0.10109
# Poissons Ratio (z) = -0.15683 0.58417
#
# Static dielectric constant tensor:
#      x y z
#    x 4.299050 0.000000 0.000000 
#    y 0.000000 4.803350 0.000000 
#    z 0.000000 0.000000 4.449990 
# 
# 
# High freq. dielectric constant tensor:
#      x y z
#    x 1.962200 0.000000 0.000000 
#    y 0.000000 1.993700 0.000000 
#    z 0.000000 0.000000 1.953190 
# 
# From -- ./inp_files/6910.got.cif
#   From: 2010.03.12/outbox.cif.g09.slc.cpg/sg64_4_cif.got.tgz:6910.got - 2010.04.10 20:19:32.
