data_PCOD8264321
_publ_section_title
;
Structure prediction by ZEFSAII (Michael W. Deem and Ramdas Pophale) SiO2 
 PCOD8264321
Probable space group: C M C A
;
_chemical_formula_sum "Si O2"
_cell_formula_units_Z 112
_cell_length_a 14.356149
_cell_length_b 24.028391
_cell_length_c 14.799582
_cell_angle_alpha 90.000000
_cell_angle_beta 90.000000
_cell_angle_gamma 90.000000
_cell_volume 5105.192198
_symmetry_space_group_name_H-M "C M C A"
_symmetry_group_IT_number 64
_symmetry_cell_setting 'orthorhombic'
loop_
_space_group_symop_operation_xyz
x,y,z
-x,1/2-y,1/2+z
x,-y,-z
-x,1/2+y,1/2-z
-x,-y,-z
x,1/2+y,1/2-z
-x,y,z
x,1/2-y,1/2+z
1/2+x,1/2+y,z
1/2-x,-y,1/2+z
1/2+x,1/2-y,-z
1/2-x,y,1/2-z
1/2-x,1/2-y,-z
1/2+x,y,1/2-z
1/2-x,1/2+y,z
1/2+x,-y,1/2+z
loop_
_atom_site_type_symbol
_atom_site_label
_atom_site_fract_x
_atom_site_fract_y
_atom_site_fract_z
Si Si1 0.895230 0.351787 0.456128
Si Si2 0.610336 0.071530 0.880563
Si Si3 0.605010 0.225823 0.983048
Si Si4 0.108878 0.544097 0.427062
Si Si5 0.725551 0.828998 0.156259
Si Si6 0.389101 0.537220 0.275672
Si Si7 0.891778 0.886207 0.571328
O O1 0.886674 0.287743 0.482882
O O2 0.872690 0.392645 0.539922
O O3 0.817884 0.360404 0.380373
O O4 0.000000 0.364568 0.419651
O O5 0.500000 0.073874 0.878822
O O6 0.649082 0.123619 0.824227
O O7 0.646505 0.015776 0.832847
O O8 0.648008 0.079637 0.984137
O O9 0.500000 0.214152 0.946595
O O10 0.682438 0.219035 0.906032
O O11 0.628235 0.179947 0.060953
O O12 0.151238 0.500000 0.500000
O O13 0.153816 0.537449 0.326221
O O14 0.000000 0.531572 0.418435
O O15 0.750000 0.799018 0.250000
O O16 0.500000 0.538003 0.267284
O O17 0.351061 0.590314 0.333940
O O18 0.000000 0.899303 0.573868
#
# Coordination Sequence:
#
# PCOD8264321 Si02
#       7
#    16  16  16  16  16  16  16
#     4  10  22  41  63  84 115 163 206 245 304 364
#     4   9  18  33  58  87 119 156 194 243 306 367
#     4   9  19  40  65  87 118 155 198 251 307 366
#     4   9  19  35  56  82 114 157 203 248 293 351
#     4  11  23  37  59  89 122 156 196 251 300 357
#     4   9  16  29  56  88 117 152 196 246 301 364
#     4   8  14  28  54  89 119 145 184 241 305 358
#
# _framework density 21.938448999999999
#
# number of rings (size 3 to 8) (size 9 to 14) (size 15 to 20)
#    0.000    2.714    0.000    2.143    2.000    2.857 
#    2.571    2.857    0.000    0.000    0.000    0.000 
#    0.000    0.000    0.000    0.000    0.000    0.000 
#
# Total GULP energy -693849.228026 kJ/mol
# GULP energy per Si atom -12390.164786 kJ/mol
# Density = 2.188852 g / cm^3
# Si number density = 21.938449 Si / 1000 Ang^3
#
#
#
# Elastic Constant Matrix: (Units=GPa)
#
#
# Indices 1 2 3 4 5 6 
#
# 1 35.1528 4.3818 15.9114 0.0000 0.0000 0.0000
# 2 4.3818 131.9324 57.2637 0.0000 0.0000 0.0000
# 3 15.9114 57.2637 151.4157 0.0000 0.0000 0.0000
# 4 0.0000 0.0000 0.0000 13.4025 0.0000 0.0000
# 5 0.0000 0.0000 0.0000 0.0000 20.5096 0.0000
# 6 0.0000 0.0000 0.0000 0.0000 0.0000 13.8634
#
#
#
# Elastic Compliance Matrix: (Units=1/GPa)
#
#
# Indices 1 2 3 4 5 6 
#
# 1 0.029890 0.000443 -0.003309 0.000000 0.000000 0.000000
# 2 0.000443 0.009075 -0.003479 0.000000 0.000000 0.000000
# 3 -0.003309 -0.003479 0.008268 0.000000 0.000000 0.000000
# 4 0.000000 0.000000 0.000000 0.074613 0.000000 0.000000
# 5 0.000000 0.000000 0.000000 0.000000 0.048758 0.000000
# 6 0.000000 0.000000 0.000000 0.000000 0.000000 0.072133
#
#
# Mechanical properties :
#
#
# Convention : Reuss Voigt Hill
#
# Bulk Modulus (GPa) = 28.94839 52.62387 40.78613
# Shear Modulus (GPa) = 18.73097 25.61801 22.17449
#
# Velocity S-wave (km/s) = 2.92515 3.42090 3.18269
# Velocity P-wave (km/s) = 4.96312 6.29623 5.66900
#
# Compressibility (1/GPa) = 0.03454424
#
# Stress axis : x y z
#
# Youngs Moduli (GPa) = 33.45652 110.19607 120.95459
#
# Poissons Ratio (x) = -0.04885 0.40019
# Poissons Ratio (y) = -0.01483 0.42075
# Poissons Ratio (z) = 0.11069 0.38332
#
# Static dielectric constant tensor:
#      x y z
#    x 3.983680 0.000000 0.000000 
#    y 0.000000 3.883920 0.000000 
#    z 0.000000 0.000000 4.132980 
# 
# 
# High freq. dielectric constant tensor:
#      x y z
#    x 1.858090 0.000000 0.000000 
#    y 0.000000 1.856420 0.000000 
#    z 0.000000 0.000000 1.844840 
# 
# From -- ./inp_files/24241.got.cif
#   From: 2010.03.12/outbox.cif.g09.slc.cpg/sg64_13_cif.got.tgz:24241.got - 2010.04.10 20:19:32.
