data_PCOD8264554
_publ_section_title
;
Structure prediction by ZEFSAII (Michael W. Deem and Ramdas Pophale) SiO2 
 PCOD8264554
Probable space group: C M C A
;
_chemical_formula_sum "Si O2"
_cell_formula_units_Z 72
_cell_length_a 17.525398
_cell_length_b 8.298368
_cell_length_c 22.155399
_cell_angle_alpha 90.000000
_cell_angle_beta 90.000000
_cell_angle_gamma 90.000000
_cell_volume 3222.108462
_symmetry_space_group_name_H-M "C M C A"
_symmetry_group_IT_number 64
_symmetry_cell_setting 'orthorhombic'
loop_
_space_group_symop_operation_xyz
x,y,z
-x,1/2-y,1/2+z
x,-y,-z
-x,1/2+y,1/2-z
-x,-y,-z
x,1/2+y,1/2-z
-x,y,z
x,1/2-y,1/2+z
1/2+x,1/2+y,z
1/2-x,-y,1/2+z
1/2+x,1/2-y,-z
1/2-x,y,1/2-z
1/2-x,1/2-y,-z
1/2+x,y,1/2-z
1/2-x,1/2+y,z
1/2+x,-y,1/2+z
loop_
_atom_site_type_symbol
_atom_site_label
_atom_site_fract_x
_atom_site_fract_y
_atom_site_fract_z
Si Si1 0.710229 0.099934 0.559595
Si Si2 0.500000 0.563723 0.776163
Si Si3 0.361980 0.944136 0.936983
Si Si4 0.250000 0.746104 0.750000
Si Si5 0.843178 0.006487 0.181326
Si Si6 0.500000 0.092763 0.156022
O O1 0.689131 0.285932 0.549432
O O2 0.655517 0.027877 0.610683
O O3 0.692128 0.000000 0.500000
O O4 0.799053 0.080062 0.581156
O O5 0.428873 0.457788 0.798628
O O6 0.500000 0.557980 0.702523
O O7 0.500000 0.742623 0.804987
O O8 0.424434 0.917358 0.885292
O O9 0.401803 0.000000 0.000000
O O10 0.182578 0.648348 0.719451
O O11 0.213466 0.848233 0.803999
#
# Coordination Sequence:
#
# PCOD8264554 Si02
#       6
#    16   8  16   8  16   8
#     4  11  23  43  72 103 135 175 229 286 335 399
#     4  12  26  46  66  96 143 179 220 277 341 399
#     4  11  24  47  73 101 137 177 229 282 341 403
#     4  10  24  38  70  96 130 174 228 272 338 398
#     4  11  23  43  65  98 133 176 221 280 333 403
#     4  12  27  50  66 104 137 186 220 283 341 411
#
# _framework density 22.345617000000001
#
# number of rings (size 3 to 8) (size 9 to 14) (size 15 to 20)
#    0.000    0.889    2.222    5.667    6.222    0.000 
#    8.000    2.222    0.000    0.000    0.000    0.778 
#    0.000    0.000    0.000    0.000    0.000    0.000 
#
# Total GULP energy -446381.097907 kJ/mol
# GULP energy per Si atom -12399.474942 kJ/mol
# Density = 2.229476 g / cm^3
# Si number density = 22.345617 Si / 1000 Ang^3
#
#
#
# Elastic Constant Matrix: (Units=GPa)
#
#
# Indices 1 2 3 4 5 6 
#
# 1 130.9453 37.6318 45.7303 0.0000 0.0000 0.0000
# 2 37.6318 74.9340 33.6634 0.0000 0.0000 0.0000
# 3 45.7303 33.6634 138.1782 0.0000 0.0000 0.0000
# 4 0.0000 0.0000 0.0000 34.0130 0.0000 0.0000
# 5 0.0000 0.0000 0.0000 0.0000 37.9779 0.0000
# 6 0.0000 0.0000 0.0000 0.0000 0.0000 -550.2638
#
#
#
# Elastic Compliance Matrix: (Units=1/GPa)
#
#
# Indices 1 2 3 4 5 6 
#
# 1 0.009497 -0.003770 -0.002225 0.000000 0.000000 0.000000
# 2 -0.003770 0.016482 -0.002768 0.000000 0.000000 0.000000
# 3 -0.002225 -0.002768 0.008648 0.000000 0.000000 0.000000
# 4 0.000000 0.000000 0.000000 0.029400 0.000000 0.000000
# 5 0.000000 0.000000 0.000000 0.000000 0.026331 0.000000
# 6 0.000000 0.000000 0.000000 0.000000 0.000000 -0.001817
#
#
# Mechanical properties :
#
#
# Convention : Reuss Voigt Hill
#
# Bulk Modulus (GPa) = 58.47344 64.23431 61.35387
# Shear Modulus (GPa) = 44.73634 -80.51911 -17.89138
#
# Velocity S-wave (km/s) = 4.47925 -6.00930 -2.83267
# Velocity P-wave (km/s) = 7.27847 4.39781 4.10093
#
# Compressibility (1/GPa) = 0.01710178
#
# Stress axis : x y z
#
# Youngs Moduli (GPa) = 105.29475 60.67321 115.63993
#
# Poissons Ratio (x) = 0.22874 0.25726
# Poissons Ratio (y) = 0.39697 0.32005
# Poissons Ratio (z) = 0.23424 0.16792
#
# Static dielectric constant tensor:
#      x y z
#    x 3.980610 0.000000 0.000000 
#    y 0.000000 4.046060 0.000000 
#    z 0.000000 0.000000 4.277660 
# 
# 
# High freq. dielectric constant tensor:
#      x y z
#    x 1.875660 0.000000 0.000000 
#    y 0.000000 1.880430 0.000000 
#    z 0.000000 0.000000 1.897830 
# 
# From -- ./inp_files/45664.got.cif
#   From: 2010.03.12/outbox.cif.g09.slc.cpg/sg64_23_cif.got.tgz:45664.got - 2010.04.10 20:19:32.
