data_PCOD8264478
_publ_section_title
;
Structure prediction by ZEFSAII (Michael W. Deem and Ramdas Pophale) SiO2 
 PCOD8264478
Probable space group: C M C A
;
_chemical_formula_sum "Si O2"
_cell_formula_units_Z 64
_cell_length_a 8.742611
_cell_length_b 19.951230
_cell_length_c 17.433003
_cell_angle_alpha 90.000000
_cell_angle_beta 90.000000
_cell_angle_gamma 90.000000
_cell_volume 3040.766242
_symmetry_space_group_name_H-M "C M C A"
_symmetry_group_IT_number 64
_symmetry_cell_setting 'orthorhombic'
loop_
_space_group_symop_operation_xyz
x,y,z
-x,1/2-y,1/2+z
x,-y,-z
-x,1/2+y,1/2-z
-x,-y,-z
x,1/2+y,1/2-z
-x,y,z
x,1/2-y,1/2+z
1/2+x,1/2+y,z
1/2-x,-y,1/2+z
1/2+x,1/2-y,-z
1/2-x,y,1/2-z
1/2-x,1/2-y,-z
1/2+x,y,1/2-z
1/2-x,1/2+y,z
1/2+x,-y,1/2+z
loop_
_atom_site_type_symbol
_atom_site_label
_atom_site_fract_x
_atom_site_fract_y
_atom_site_fract_z
Si Si1 0.677985 0.771496 0.329951
Si Si2 0.177079 0.364573 0.911471
Si Si3 0.680574 0.106192 0.916029
Si Si4 0.319976 0.485652 0.831686
O O1 0.500000 0.787040 0.319191
O O2 0.750000 0.748207 0.250000
O O3 0.706593 0.712654 0.391017
O O4 0.760815 0.838281 0.357467
O O5 0.276119 0.410214 0.854625
O O6 0.000000 0.384229 0.900715
O O7 0.232142 0.374724 0.998384
O O8 0.500000 0.100146 0.908863
O O9 0.754745 0.035022 0.896375
O O10 0.500000 0.493077 0.826272
O O11 0.250000 0.505181 0.750000
#
# Coordination Sequence:
#
# PCOD8264478 Si02
#       4
#    16  16  16  16
#     4  11  23  40  62  90 123 159 202 248 299 357
#     4  10  23  42  64  91 123 159 199 248 303 359
#     4  11  23  41  64  90 123 160 200 248 302 358
#     4  12  25  41  63  90 122 160 203 250 300 357
#
# _framework density 21.047328
#
# number of rings (size 3 to 8) (size 9 to 14) (size 15 to 20)
#    0.000    1.000    0.000    6.750    0.000    9.000 
#    0.000    0.000    0.000    0.000    0.000    0.000 
#    0.000    0.000    0.000    0.000    0.000    0.000 
#
# Total GULP energy -397111.779931 kJ/mol
# GULP energy per Si atom -12409.743123 kJ/mol
# Density = 2.099942 g / cm^3
# Si number density = 21.047328 Si / 1000 Ang^3
#
#
#
# Elastic Constant Matrix: (Units=GPa)
#
#
# Indices 1 2 3 4 5 6 
#
# 1 113.4781 27.6799 31.6487 0.0000 0.0000 0.0000
# 2 27.6799 79.9695 6.2854 0.0000 0.0000 0.0000
# 3 31.6487 6.2854 92.5980 0.0000 0.0000 0.0000
# 4 0.0000 0.0000 0.0000 41.9162 0.0000 0.0000
# 5 0.0000 0.0000 0.0000 0.0000 32.8715 0.0000
# 6 0.0000 0.0000 0.0000 0.0000 0.0000 39.6673
#
#
#
# Elastic Compliance Matrix: (Units=1/GPa)
#
#
# Indices 1 2 3 4 5 6 
#
# 1 0.010586 -0.003398 -0.003387 0.000000 0.000000 0.000000
# 2 -0.003398 0.013662 0.000234 0.000000 0.000000 0.000000
# 3 -0.003387 0.000234 0.011941 0.000000 0.000000 0.000000
# 4 0.000000 0.000000 0.000000 0.023857 0.000000 0.000000
# 5 0.000000 0.000000 0.000000 0.000000 0.030421 0.000000
# 6 0.000000 0.000000 0.000000 0.000000 0.000000 0.025210
#
#
# Mechanical properties :
#
#
# Convention : Reuss Voigt Hill
#
# Bulk Modulus (GPa) = 43.31461 46.36373 44.83917
# Shear Modulus (GPa) = 36.63643 37.58644 37.11144
#
# Velocity S-wave (km/s) = 4.17666 4.23046 4.20365
# Velocity P-wave (km/s) = 6.62447 6.77780 6.70157
#
# Compressibility (1/GPa) = 0.02308690
#
# Stress axis : x y z
#
# Youngs Moduli (GPa) = 94.46586 73.19314 83.74321
#
# Poissons Ratio (x) = 0.24870 0.28368
# Poissons Ratio (y) = 0.32098 -0.01959
# Poissons Ratio (z) = 0.32000 -0.01712
#
# Static dielectric constant tensor:
#      x y z
#    x 3.821950 0.000000 0.000000 
#    y 0.000000 3.760040 0.000000 
#    z 0.000000 0.000000 3.952980 
# 
# 
# High freq. dielectric constant tensor:
#      x y z
#    x 1.830650 0.000000 0.000000 
#    y 0.000000 1.836150 0.000000 
#    z 0.000000 0.000000 1.837930 
# 
# From -- ./inp_files/20886.got.cif
#   From: 2010.03.12/outbox.cif.g09.slc.cpg/sg64_11_cif.got.tgz:20886.got - 2010.04.10 20:19:32.
