data_PCOD8264319
_publ_section_title
;
Structure prediction by ZEFSAII (Michael W. Deem and Ramdas Pophale) SiO2 
 PCOD8264319
Probable space group: C M C A
;
_chemical_formula_sum "Si O2"
_cell_formula_units_Z 112
_cell_length_a 15.700977
_cell_length_b 29.316019
_cell_length_c 11.247717
_cell_angle_alpha 90.000000
_cell_angle_beta 90.000000
_cell_angle_gamma 90.000000
_cell_volume 5177.213233
_symmetry_space_group_name_H-M "C M C A"
_symmetry_group_IT_number 64
_symmetry_cell_setting 'orthorhombic'
loop_
_space_group_symop_operation_xyz
x,y,z
-x,1/2-y,1/2+z
x,-y,-z
-x,1/2+y,1/2-z
-x,-y,-z
x,1/2+y,1/2-z
-x,y,z
x,1/2-y,1/2+z
1/2+x,1/2+y,z
1/2-x,-y,1/2+z
1/2+x,1/2-y,-z
1/2-x,y,1/2-z
1/2-x,1/2-y,-z
1/2+x,y,1/2-z
1/2-x,1/2+y,z
1/2+x,-y,1/2+z
loop_
_atom_site_type_symbol
_atom_site_label
_atom_site_fract_x
_atom_site_fract_y
_atom_site_fract_z
Si Si1 0.757187 0.532881 0.888547
Si Si2 0.097790 0.763822 0.072150
Si Si3 0.155775 0.167271 0.386019
Si Si4 0.904794 0.909903 0.048418
Si Si5 0.094852 0.395715 0.069014
Si Si6 0.347724 0.837444 0.264977
Si Si7 0.854184 0.337054 0.617053
O O1 0.750000 0.513258 0.750000
O O2 0.664950 0.551782 0.925230
O O3 0.834040 0.569188 0.884726
O O4 0.781664 0.500000 0.000000
O O5 0.136966 0.714358 0.045497
O O6 0.143390 0.785617 0.189184
O O7 0.000000 0.758540 0.103884
O O8 0.110238 0.794372 0.955739
O O9 0.108180 0.122206 0.435525
O O10 0.123176 0.172801 0.252487
O O11 0.254354 0.157300 0.402502
O O12 0.893801 0.868604 0.138524
O O13 0.000000 0.931165 0.059635
O O14 0.894385 0.885972 0.919638
O O15 0.104104 0.348320 0.142640
O O16 0.000000 0.417013 0.083303
O O17 0.250000 0.851264 0.250000
#
# Coordination Sequence:
#
# PCOD8264319 Si02
#       7
#    16  16  16  16  16  16  16
#     4  12  27  49  74 109 143 180 228 289 353 434
#     4  11  24  37  56  92 133 179 231 284 334 395
#     4  11  24  39  62  93 132 183 229 287 350 409
#     4  11  21  43  74  97 126 173 223 279 341 415
#     4  12  23  42  70  99 135 182 229 279 348 416
#     4  11  20  38  67  94 129 174 226 276 328 398
#     4  10  22  41  62  88 129 175 230 285 344 411
#
# _framework density 21.63326
#
# number of rings (size 3 to 8) (size 9 to 14) (size 15 to 20)
#    0.000    0.857    4.286    4.286    4.000    4.000 
#    0.000    0.000    0.000    0.000    0.000    0.000 
#    0.000    0.000    0.000    0.000    0.000    0.000 
#
# Total GULP energy -694074.910659 kJ/mol
# GULP energy per Si atom -12394.194833 kJ/mol
# Density = 2.158402 g / cm^3
# Si number density = 21.633260 Si / 1000 Ang^3
#
#
#
# Elastic Constant Matrix: (Units=GPa)
#
#
# Indices 1 2 3 4 5 6 
#
# 1 143.7956 16.4419 25.2089 0.0000 0.0000 0.0000
# 2 16.4419 48.9797 33.8738 0.0000 0.0000 0.0000
# 3 25.2089 33.8738 91.4347 0.0000 0.0000 0.0000
# 4 0.0000 0.0000 0.0000 27.8823 0.0000 0.0000
# 5 0.0000 0.0000 0.0000 0.0000 20.0261 0.0000
# 6 0.0000 0.0000 0.0000 0.0000 0.0000 8.4502
#
#
#
# Elastic Compliance Matrix: (Units=1/GPa)
#
#
# Indices 1 2 3 4 5 6 
#
# 1 0.007382 -0.001439 -0.001502 0.000000 0.000000 0.000000
# 2 -0.001439 0.027730 -0.009876 0.000000 0.000000 0.000000
# 3 -0.001502 -0.009876 0.015010 0.000000 0.000000 0.000000
# 4 0.000000 0.000000 0.000000 0.035865 0.000000 0.000000
# 5 0.000000 0.000000 0.000000 0.000000 0.049935 0.000000
# 6 0.000000 0.000000 0.000000 0.000000 0.000000 0.118340
#
#
# Mechanical properties :
#
#
# Convention : Reuss Voigt Hill
#
# Bulk Modulus (GPa) = 40.83854 48.36213 44.60034
# Shear Modulus (GPa) = 17.35752 25.18408 21.27080
#
# Velocity S-wave (km/s) = 2.83566 3.41565 3.13908
# Velocity P-wave (km/s) = 5.44426 6.16113 5.81375
#
# Compressibility (1/GPa) = 0.02448667
#
# Stress axis : x y z
#
# Youngs Moduli (GPa) = 135.46056 36.06177 66.62309
#
# Poissons Ratio (x) = 0.05190 0.10007
# Poissons Ratio (y) = 0.19497 0.65800
# Poissons Ratio (z) = 0.20347 0.35616
#
# Static dielectric constant tensor:
#      x y z
#    x 3.934330 0.000000 0.000000 
#    y 0.000000 3.746070 0.000000 
#    z 0.000000 0.000000 4.656280 
# 
# 
# High freq. dielectric constant tensor:
#      x y z
#    x 1.861050 0.000000 0.000000 
#    y 0.000000 1.815080 0.000000 
#    z 0.000000 0.000000 1.859990 
# 
# From -- ./inp_files/14982.got.cif
#   From: 2010.03.12/outbox.cif.g09.slc.cpg/sg64_8_cif.got.tgz:14982.got - 2010.04.10 20:19:32.
