data_PCOD8264158
_publ_section_title
;
Structure prediction by ZEFSAII (Michael W. Deem and Ramdas Pophale) SiO2 
 PCOD8264158
Probable space group: C M C A
;
_chemical_formula_sum "Si O2"
_cell_formula_units_Z 72
_cell_length_a 26.548756
_cell_length_b 16.560750
_cell_length_c 7.589831
_cell_angle_alpha 90.000000
_cell_angle_beta 90.000000
_cell_angle_gamma 90.000000
_cell_volume 3337.000586
_symmetry_space_group_name_H-M "C M C A"
_symmetry_group_IT_number 64
_symmetry_cell_setting 'orthorhombic'
loop_
_space_group_symop_operation_xyz
x,y,z
-x,1/2-y,1/2+z
x,-y,-z
-x,1/2+y,1/2-z
-x,-y,-z
x,1/2+y,1/2-z
-x,y,z
x,1/2-y,1/2+z
1/2+x,1/2+y,z
1/2-x,-y,1/2+z
1/2+x,1/2-y,-z
1/2-x,y,1/2-z
1/2-x,1/2-y,-z
1/2+x,y,1/2-z
1/2-x,1/2+y,z
1/2+x,-y,1/2+z
loop_
_atom_site_type_symbol
_atom_site_label
_atom_site_fract_x
_atom_site_fract_y
_atom_site_fract_z
Si Si1 0.055119 0.433538 0.857899
Si Si2 0.143405 0.668592 0.991523
Si Si3 0.918489 0.000000 0.000000
Si Si4 0.648689 0.350571 0.077834
Si Si5 0.245539 0.406450 0.043292
O O1 0.049768 0.482783 0.674816
O O2 0.000000 0.392109 0.889528
O O3 0.067283 0.500000 0.000000
O O4 0.100701 0.370252 0.882289
O O5 0.142753 0.642547 0.788198
O O6 0.199549 0.641014 0.052806
O O7 0.133203 0.763126 0.008857
O O8 0.887157 0.918417 0.005091
O O9 0.701897 0.368706 0.980915
O O10 0.250000 0.393085 0.250000
O O11 0.239727 0.500000 0.000000
#
# Coordination Sequence:
#
# PCOD8264158 Si02
#       5
#    16  16   8  16  16
#     4  11  24  45  71  98 131 175 226 278 336 399
#     4  11  23  42  64  98 136 177 223 284 333 399
#     4  12  23  44  70 100 136 176 223 278 342 406
#     4  11  23  40  64  99 135 177 224 272 341 409
#     4  10  22  36  62  95 132 178 221 269 337 409
#
# _framework density 21.576260999999999
#
# number of rings (size 3 to 8) (size 9 to 14) (size 15 to 20)
#    0.000    1.111    3.333    3.000    3.111    1.778 
#    0.000    5.556    0.000    0.000    0.000    0.000 
#    0.000    0.000    0.000    0.000    0.000    0.000 
#
# Total GULP energy -445985.489906 kJ/mol
# GULP energy per Si atom -12388.485831 kJ/mol
# Density = 2.152715 g / cm^3
# Si number density = 21.576261 Si / 1000 Ang^3
#
#
#
# Elastic Constant Matrix: (Units=GPa)
#
#
# Indices 1 2 3 4 5 6 
#
# 1 134.7375 59.2740 4.9763 0.0000 0.0000 0.0000
# 2 59.2740 141.6584 17.3232 0.0000 0.0000 0.0000
# 3 4.9763 17.3232 63.4612 0.0000 0.0000 0.0000
# 4 0.0000 0.0000 0.0000 32.1824 0.0000 0.0000
# 5 0.0000 0.0000 0.0000 0.0000 10.6705 0.0000
# 6 0.0000 0.0000 0.0000 0.0000 0.0000 37.3069
#
#
#
# Elastic Compliance Matrix: (Units=1/GPa)
#
#
# Indices 1 2 3 4 5 6 
#
# 1 0.009103 -0.003850 0.000337 0.000000 0.000000 0.000000
# 2 -0.003850 0.008932 -0.002136 0.000000 0.000000 0.000000
# 3 0.000337 -0.002136 0.016314 0.000000 0.000000 0.000000
# 4 0.000000 0.000000 0.000000 0.031073 0.000000 0.000000
# 5 0.000000 0.000000 0.000000 0.000000 0.093717 0.000000
# 6 0.000000 0.000000 0.000000 0.000000 0.000000 0.026805
#
#
# Mechanical properties :
#
#
# Convention : Reuss Voigt Hill
#
# Bulk Modulus (GPa) = 43.38285 55.88937 49.63611
# Shear Modulus (GPa) = 24.39914 33.25086 28.82500
#
# Velocity S-wave (km/s) = 3.36643 3.92992 3.65904
# Velocity P-wave (km/s) = 5.93809 6.82289 6.39581
#
# Compressibility (1/GPa) = 0.02305058
#
# Stress axis : x y z
#
# Youngs Moduli (GPa) = 109.85132 111.96278 61.29584
#
# Poissons Ratio (x) = 0.43109 -0.02067
# Poissons Ratio (y) = 0.42296 0.13094
# Poissons Ratio (z) = -0.03704 0.23917
#
# Static dielectric constant tensor:
#      x y z
#    x 4.126690 0.000000 0.000000 
#    y 0.000000 3.528580 0.000000 
#    z 0.000000 0.000000 4.067080 
# 
# 
# High freq. dielectric constant tensor:
#      x y z
#    x 1.848960 0.000000 0.000000 
#    y 0.000000 1.844240 0.000000 
#    z 0.000000 0.000000 1.857300 
# 
# From -- ./inp_files/10018.got.cif
#   From: 2010.03.12/outbox.cif.g09.slc.cpg/sg64_6_cif.got.tgz:10018.got - 2010.04.10 20:19:32.
