data_PCOD8264064
_publ_section_title
;
Structure prediction by ZEFSAII (Michael W. Deem and Ramdas Pophale) SiO2 
 PCOD8264064
Probable space group: C M C A
;
_chemical_formula_sum "Si O2"
_cell_formula_units_Z 80
_cell_length_a 16.806463
_cell_length_b 26.162138
_cell_length_c 8.592634
_cell_angle_alpha 90.000000
_cell_angle_beta 90.000000
_cell_angle_gamma 90.000000
_cell_volume 3778.121058
_symmetry_space_group_name_H-M "C M C A"
_symmetry_group_IT_number 64
_symmetry_cell_setting 'orthorhombic'
loop_
_space_group_symop_operation_xyz
x,y,z
-x,1/2-y,1/2+z
x,-y,-z
-x,1/2+y,1/2-z
-x,-y,-z
x,1/2+y,1/2-z
-x,y,z
x,1/2-y,1/2+z
1/2+x,1/2+y,z
1/2-x,-y,1/2+z
1/2+x,1/2-y,-z
1/2-x,y,1/2-z
1/2-x,1/2-y,-z
1/2+x,y,1/2-z
1/2-x,1/2+y,z
1/2+x,-y,1/2+z
loop_
_atom_site_type_symbol
_atom_site_label
_atom_site_fract_x
_atom_site_fract_y
_atom_site_fract_z
Si Si1 0.764441 0.608064 0.914084
Si Si2 0.408845 0.603475 0.378346
Si Si3 0.908836 0.711505 0.280863
Si Si4 0.685157 0.285403 0.074300
Si Si5 0.680379 0.037252 0.358358
O O1 0.750000 0.577997 0.750000
O O2 0.731520 0.664055 0.877742
O O3 0.857047 0.602023 0.963054
O O4 0.715423 0.587045 0.059155
O O5 0.500000 0.596350 0.427982
O O6 0.391763 0.659005 0.308170
O O7 0.389530 0.557748 0.254861
O O8 0.888257 0.702443 0.460374
O O9 0.852312 0.757298 0.223307
O O10 0.000000 0.728371 0.264410
O O11 0.750000 0.250000 0.000000
O O12 0.750000 0.012263 0.250000
O O13 0.651503 0.000000 0.500000
#
# Coordination Sequence:
#
# PCOD8264064 Si02
#       5
#    16  16  16  16  16
#     4  11  22  39  61  93 125 167 217 261 310 381
#     4  10  22  41  63  90 131 169 205 265 327 371
#     4  11  23  39  56  85 127 167 210 260 317 371
#     4  12  22  36  59  86 121 168 213 260 306 374
#     4  10  21  40  69  95 126 162 214 266 322 383
#
# _framework density 21.174544999999998
#
# number of rings (size 3 to 8) (size 9 to 14) (size 15 to 20)
#    0.000    1.200    4.000    3.000    0.000    0.400 
#    0.000    2.000    0.000   20.400    0.000    0.000 
#    0.000    0.000    0.000    0.000    0.000    0.000 
#
# Total GULP energy -495699.125331 kJ/mol
# GULP energy per Si atom -12392.478133 kJ/mol
# Density = 2.112635 g / cm^3
# Si number density = 21.174545 Si / 1000 Ang^3
#
#
#
# Elastic Constant Matrix: (Units=GPa)
#
#
# Indices 1 2 3 4 5 6 
#
# 1 121.8603 44.3720 57.6478 0.0000 0.0000 0.0000
# 2 44.3720 82.1327 25.4264 0.0000 0.0000 0.0000
# 3 57.6478 25.4264 132.5604 0.0000 0.0000 0.0000
# 4 0.0000 0.0000 0.0000 29.7922 0.0000 0.0000
# 5 0.0000 0.0000 0.0000 0.0000 31.6555 0.0000
# 6 0.0000 0.0000 0.0000 0.0000 0.0000 17.2941
#
#
#
# Elastic Compliance Matrix: (Units=1/GPa)
#
#
# Indices 1 2 3 4 5 6 
#
# 1 0.012132 -0.005232 -0.004273 0.000000 0.000000 0.000000
# 2 -0.005232 0.015200 -0.000640 0.000000 0.000000 0.000000
# 3 -0.004273 -0.000640 0.009525 0.000000 0.000000 0.000000
# 4 0.000000 0.000000 0.000000 0.033566 0.000000 0.000000
# 5 0.000000 0.000000 0.000000 0.000000 0.031590 0.000000
# 6 0.000000 0.000000 0.000000 0.000000 0.000000 0.057823
#
#
# Mechanical properties :
#
#
# Convention : Reuss Voigt Hill
#
# Bulk Modulus (GPa) = 60.35863 65.71622 63.03742
# Shear Modulus (GPa) = 26.93265 29.68882 28.31074
#
# Velocity S-wave (km/s) = 3.57029 3.74852 3.66049
# Velocity P-wave (km/s) = 6.75005 7.05961 6.90656
#
# Compressibility (1/GPa) = 0.01656764
#
# Stress axis : x y z
#
# Youngs Moduli (GPa) = 82.42440 65.78897 104.99111
#
# Poissons Ratio (x) = 0.34419 0.44858
# Poissons Ratio (y) = 0.43123 0.06723
# Poissons Ratio (z) = 0.35217 0.04213
#
# Static dielectric constant tensor:
#      x y z
#    x -2.855550 0.000000 0.000000 
#    y 0.000000 3.611450 0.000000 
#    z 0.000000 0.000000 4.210120 
# 
# 
# High freq. dielectric constant tensor:
#      x y z
#    x 1.816520 0.000000 0.000000 
#    y 0.000000 1.827680 0.000000 
#    z 0.000000 0.000000 1.844070 
# 
# From -- ./inp_files/7100.got.cif
#   From: 2010.03.12/outbox.cif.g09.slc.cpg/sg64_4_cif.got.tgz:7100.got - 2010.04.10 20:19:32.
