data_PCOD8264919
_publ_section_title
;
Structure prediction by ZEFSAII (Michael W. Deem and Ramdas Pophale) SiO2 
 PCOD8264919
Probable space group: C M C A
;
_chemical_formula_sum "Si O2"
_cell_formula_units_Z 64
_cell_length_a 15.298289
_cell_length_b 11.708906
_cell_length_c 15.272634
_cell_angle_alpha 90.000000
_cell_angle_beta 90.000000
_cell_angle_gamma 90.000000
_cell_volume 2735.729318
_symmetry_space_group_name_H-M "C M C A"
_symmetry_group_IT_number 64
_symmetry_cell_setting 'orthorhombic'
loop_
_space_group_symop_operation_xyz
x,y,z
-x,1/2-y,1/2+z
x,-y,-z
-x,1/2+y,1/2-z
-x,-y,-z
x,1/2+y,1/2-z
-x,y,z
x,1/2-y,1/2+z
1/2+x,1/2+y,z
1/2-x,-y,1/2+z
1/2+x,1/2-y,-z
1/2-x,y,1/2-z
1/2-x,1/2-y,-z
1/2+x,y,1/2-z
1/2-x,1/2+y,z
1/2+x,-y,1/2+z
loop_
_atom_site_type_symbol
_atom_site_label
_atom_site_fract_x
_atom_site_fract_y
_atom_site_fract_z
Si Si1 0.845271 0.618158 0.029425
Si Si2 0.598804 0.243713 0.863058
Si Si3 0.658280 0.473441 0.910062
Si Si4 0.399066 0.196285 0.667402
O O1 0.752494 0.579502 0.067231
O O2 0.890365 0.690123 0.107277
O O3 0.895252 0.500000 0.000000
O O4 0.839276 0.695491 0.940955
O O5 0.500000 0.202482 0.881406
O O6 0.601876 0.380991 0.858690
O O7 0.631766 0.211582 0.767044
O O8 0.664644 0.593513 0.860202
O O9 0.607471 0.500000 0.000000
O O10 0.500000 0.158461 0.663430
#
# Coordination Sequence:
#
# PCOD8264919 Si02
#       4
#    16  16  16  16
#     4  11  26  46  69 104 147 187 238 296 359 425
#     4  11  25  45  72 106 144 189 241 299 361 424
#     4  11  24  46  72 101 142 189 243 293 357 432
#     4  11  26  47  73 107 144 191 244 296 361 428
#
# _framework density 23.394127999999998
#
# number of rings (size 3 to 8) (size 9 to 14) (size 15 to 20)
#    0.000    1.000    2.500    2.250    7.000    4.000 
#    4.500    0.000    0.000    0.000    0.000    0.000 
#    0.000    0.000    0.000    0.000    0.000    0.000 
#
# Total GULP energy -396460.263489 kJ/mol
# GULP energy per Si atom -12389.383234 kJ/mol
# Density = 2.334088 g / cm^3
# Si number density = 23.394128 Si / 1000 Ang^3
#
#
#
# Elastic Constant Matrix: (Units=GPa)
#
#
# Indices 1 2 3 4 5 6 
#
# 1 60.7279 45.7245 56.8272 0.0000 0.0000 0.0000
# 2 45.7245 150.5088 61.4485 0.0000 0.0000 0.0000
# 3 56.8272 61.4485 182.8836 0.0000 0.0000 0.0000
# 4 0.0000 0.0000 0.0000 47.7193 0.0000 0.0000
# 5 0.0000 0.0000 0.0000 0.0000 20.9141 0.0000
# 6 0.0000 0.0000 0.0000 0.0000 0.0000 23.1037
#
#
#
# Elastic Compliance Matrix: (Units=1/GPa)
#
#
# Indices 1 2 3 4 5 6 
#
# 1 0.026589 -0.005453 -0.006430 0.000000 0.000000 0.000000
# 2 -0.005453 0.008819 -0.001269 0.000000 0.000000 0.000000
# 3 -0.006430 -0.001269 0.007892 0.000000 0.000000 0.000000
# 4 0.000000 0.000000 0.000000 0.020956 0.000000 0.000000
# 5 0.000000 0.000000 0.000000 0.000000 0.047815 0.000000
# 6 0.000000 0.000000 0.000000 0.000000 0.000000 0.043283
#
#
# Mechanical properties :
#
#
# Convention : Reuss Voigt Hill
#
# Bulk Modulus (GPa) = 58.83232 80.23563 69.53398
# Shear Modulus (GPa) = 26.69191 33.68876 30.19034
#
# Velocity S-wave (km/s) = 3.38148 3.79892 3.59626
# Velocity P-wave (km/s) = 6.35994 7.32217 6.85795
#
# Compressibility (1/GPa) = 0.01699746
#
# Stress axis : x y z
#
# Youngs Moduli (GPa) = 37.60898 113.39627 126.70665
#
# Poissons Ratio (x) = 0.61831 0.81473
# Poissons Ratio (y) = 0.20507 0.16076
# Poissons Ratio (z) = 0.24183 0.14387
#
# Static dielectric constant tensor:
#      x y z
#    x 3.819900 0.000000 0.000000 
#    y 0.000000 4.781400 0.000000 
#    z 0.000000 0.000000 4.419970 
# 
# 
# High freq. dielectric constant tensor:
#      x y z
#    x 1.907090 0.000000 0.000000 
#    y 0.000000 1.944790 0.000000 
#    z 0.000000 0.000000 1.935700 
# 
# From -- ./inp_files/24874.got.cif
#   From: 2010.03.12/outbox.cif.g09.slc.cpg/sg64_13_cif.got.tgz:24874.got - 2010.04.10 20:19:32.
