data_PCOD8264747
_publ_section_title
;
Structure prediction by ZEFSAII (Michael W. Deem and Ramdas Pophale) SiO2 
 PCOD8264747
Probable space group: C M C A
;
_chemical_formula_sum "Si O2"
_cell_formula_units_Z 96
_cell_length_a 16.698274
_cell_length_b 23.607905
_cell_length_c 11.210515
_cell_angle_alpha 90.000000
_cell_angle_beta 90.000000
_cell_angle_gamma 90.000000
_cell_volume 4419.311314
_symmetry_space_group_name_H-M "C M C A"
_symmetry_group_IT_number 64
_symmetry_cell_setting 'orthorhombic'
loop_
_space_group_symop_operation_xyz
x,y,z
-x,1/2-y,1/2+z
x,-y,-z
-x,1/2+y,1/2-z
-x,-y,-z
x,1/2+y,1/2-z
-x,y,z
x,1/2-y,1/2+z
1/2+x,1/2+y,z
1/2-x,-y,1/2+z
1/2+x,1/2-y,-z
1/2-x,y,1/2-z
1/2-x,1/2-y,-z
1/2+x,y,1/2-z
1/2-x,1/2+y,z
1/2+x,-y,1/2+z
loop_
_atom_site_type_symbol
_atom_site_label
_atom_site_fract_x
_atom_site_fract_y
_atom_site_fract_z
Si Si1 0.409403 0.639786 0.072239
Si Si2 0.408854 0.444500 0.561815
Si Si3 0.325838 0.870076 0.110798
Si Si4 0.147191 0.089358 0.854282
Si Si5 0.338228 0.035778 0.305001
Si Si6 0.201439 0.744779 0.374962
O O1 0.500000 0.639274 0.124954
O O2 0.350189 0.588415 0.107944
O O3 0.366920 0.697598 0.110563
O O4 0.415589 0.627091 0.930242
O O5 0.370769 0.500000 0.500000
O O6 0.500000 0.436198 0.523217
O O7 0.360057 0.389367 0.517313
O O8 0.402866 0.452200 0.702446
O O9 0.232487 0.883199 0.115412
O O10 0.372506 0.904295 0.214094
O O11 0.343159 0.804424 0.136507
O O12 0.144134 0.021807 0.878068
O O13 0.250000 0.033944 0.250000
O O14 0.250000 0.732860 0.250000
O O15 0.250000 0.750000 0.500000
#
# Coordination Sequence:
#
# PCOD8264747 Si02
#       6
#    16  16  16  16  16  16
#     4  12  28  44  65 104 145 184 229 290 371 432
#     4  11  23  38  60  96 137 172 214 277 349 413
#     4  11  21  43  70 100 125 173 241 293 341 415
#     4  11  21  43  69  99 133 178 233 288 346 424
#     4  12  23  41  70  98 135 181 231 286 347 423
#     4  12  25  48  76 100 136 187 245 302 349 420
#
# _framework density 21.722842
#
# number of rings (size 3 to 8) (size 9 to 14) (size 15 to 20)
#    0.000    0.500    6.667    2.500    2.333    3.333 
#    0.000    2.500    0.000    0.000    0.000    0.000 
#    0.000    0.000    0.000    0.000    0.000    0.000 
#
# Total GULP energy -594935.409257 kJ/mol
# GULP energy per Si atom -12394.487693 kJ/mol
# Density = 2.167340 g / cm^3
# Si number density = 21.722842 Si / 1000 Ang^3
#
#
#
# Elastic Constant Matrix: (Units=GPa)
#
#
# Indices 1 2 3 4 5 6 
#
# 1 79.4393 50.0559 23.3399 0.0000 0.0000 0.0000
# 2 50.0559 168.7848 24.3631 0.0000 0.0000 0.0000
# 3 23.3399 24.3631 85.8891 0.0000 0.0000 0.0000
# 4 0.0000 0.0000 0.0000 38.6578 0.0000 0.0000
# 5 0.0000 0.0000 0.0000 0.0000 26.2328 0.0000
# 6 0.0000 0.0000 0.0000 0.0000 0.0000 23.6845
#
#
#
# Elastic Compliance Matrix: (Units=1/GPa)
#
#
# Indices 1 2 3 4 5 6 
#
# 1 0.016276 -0.004367 -0.003184 0.000000 0.000000 0.000000
# 2 -0.004367 0.007349 -0.000898 0.000000 0.000000 0.000000
# 3 -0.003184 -0.000898 0.012763 0.000000 0.000000 0.000000
# 4 0.000000 0.000000 0.000000 0.025868 0.000000 0.000000
# 5 0.000000 0.000000 0.000000 0.000000 0.038120 0.000000
# 6 0.000000 0.000000 0.000000 0.000000 0.000000 0.042222
#
#
# Mechanical properties :
#
#
# Convention : Reuss Voigt Hill
#
# Bulk Modulus (GPa) = 51.30949 58.84788 55.07868
# Shear Modulus (GPa) = 30.12181 33.47197 31.79689
#
# Velocity S-wave (km/s) = 3.72780 3.92964 3.83005
# Velocity P-wave (km/s) = 6.49616 6.90931 6.70592
#
# Compressibility (1/GPa) = 0.01948957
#
# Stress axis : x y z
#
# Youngs Moduli (GPa) = 61.44195 136.06404 78.35224
#
# Poissons Ratio (x) = 0.59422 0.24947
# Poissons Ratio (y) = 0.26833 0.07036
# Poissons Ratio (z) = 0.19563 0.12218
#
# Static dielectric constant tensor:
#      x y z
#    x 3.662200 0.000000 0.000000 
#    y 0.000000 4.077830 0.000000 
#    z 0.000000 0.000000 4.481510 
# 
# 
# High freq. dielectric constant tensor:
#      x y z
#    x 1.828120 0.000000 0.000000 
#    y 0.000000 1.860990 0.000000 
#    z 0.000000 0.000000 1.870350 
# 
# From -- ./inp_files/16199.got.cif
#   From: 2010.03.12/outbox.cif.g09.slc.cpg/sg64_9_cif.got.tgz:16199.got - 2010.04.10 20:19:32.
