data_PCOD8264912
_publ_section_title
;
Structure prediction by ZEFSAII (Michael W. Deem and Ramdas Pophale) SiO2 
 PCOD8264912
Probable space group: C M C A
;
_chemical_formula_sum "Si O2"
_cell_formula_units_Z 56
_cell_length_a 18.188278
_cell_length_b 8.597490
_cell_length_c 15.668005
_cell_angle_alpha 90.000000
_cell_angle_beta 90.000000
_cell_angle_gamma 90.000000
_cell_volume 2450.061379
_symmetry_space_group_name_H-M "C M C A"
_symmetry_group_IT_number 64
_symmetry_cell_setting 'orthorhombic'
loop_
_space_group_symop_operation_xyz
x,y,z
-x,1/2-y,1/2+z
x,-y,-z
-x,1/2+y,1/2-z
-x,-y,-z
x,1/2+y,1/2-z
-x,y,z
x,1/2-y,1/2+z
1/2+x,1/2+y,z
1/2-x,-y,1/2+z
1/2+x,1/2-y,-z
1/2-x,y,1/2-z
1/2-x,1/2-y,-z
1/2+x,y,1/2-z
1/2-x,1/2+y,z
1/2+x,-y,1/2+z
loop_
_atom_site_type_symbol
_atom_site_label
_atom_site_fract_x
_atom_site_fract_y
_atom_site_fract_z
Si Si1 0.702425 0.842751 0.141593
Si Si2 0.000000 0.592573 0.708898
Si Si3 0.379734 0.500000 0.500000
Si Si4 0.000000 0.416555 0.872064
Si Si5 0.658334 0.497150 0.190257
O O1 0.686000 0.668812 0.169952
O O2 0.666014 0.964018 0.208509
O O3 0.790521 0.872678 0.140055
O O4 0.670873 0.873491 0.047501
O O5 0.000000 0.569708 0.811849
O O6 0.927251 0.519919 0.664505
O O7 0.000000 0.776840 0.695564
O O8 0.428986 0.592183 0.432013
#
# Coordination Sequence:
#
# PCOD8264912 Si02
#       5
#    16   8   8   8  16
#     4  11  24  45  72 102 143 186 244 292 352 422
#     4  12  24  45  80 104 136 188 245 291 336 450
#     4  11  26  44  70 107 152 182 228 307 368 404
#     4  11  26  45  76 106 145 187 236 292 366 416
#     4  11  24  43  76 102 138 193 247 281 347 437
#
# _framework density 22.856570000000001
#
# number of rings (size 3 to 8) (size 9 to 14) (size 15 to 20)
#    0.000    0.857    2.857    5.143    4.000    2.286 
#    0.000    1.429    0.000    0.000    0.000    0.000 
#    0.000    0.000    0.000    0.000    0.000    0.000 
#
# Total GULP energy -347212.350893 kJ/mol
# GULP energy per Si atom -12400.441103 kJ/mol
# Density = 2.280455 g / cm^3
# Si number density = 22.856570 Si / 1000 Ang^3
#
#
#
# Elastic Constant Matrix: (Units=GPa)
#
#
# Indices 1 2 3 4 5 6 
#
# 1 216.2729 56.3257 52.1670 0.0000 0.0000 0.0000
# 2 56.3257 126.8405 48.0718 0.0000 0.0000 0.0000
# 3 52.1670 48.0718 110.4757 0.0000 0.0000 0.0000
# 4 0.0000 0.0000 0.0000 15.9043 0.0000 0.0000
# 5 0.0000 0.0000 0.0000 0.0000 43.6394 0.0000
# 6 0.0000 0.0000 0.0000 0.0000 0.0000 23.8001
#
#
#
# Elastic Compliance Matrix: (Units=1/GPa)
#
#
# Indices 1 2 3 4 5 6 
#
# 1 0.005526 -0.001754 -0.001846 0.000000 0.000000 0.000000
# 2 -0.001754 0.009998 -0.003522 0.000000 0.000000 0.000000
# 3 -0.001846 -0.003522 0.011456 0.000000 0.000000 0.000000
# 4 0.000000 0.000000 0.000000 0.062876 0.000000 0.000000
# 5 0.000000 0.000000 0.000000 0.000000 0.022915 0.000000
# 6 0.000000 0.000000 0.000000 0.000000 0.000000 0.042017
#
#
# Mechanical properties :
#
#
# Convention : Reuss Voigt Hill
#
# Bulk Modulus (GPa) = 78.52300 85.19090 81.85695
# Shear Modulus (GPa) = 28.85550 36.47039 32.66295
#
# Velocity S-wave (km/s) = 3.55697 3.99885 3.78437
# Velocity P-wave (km/s) = 7.16230 7.65989 7.41527
#
# Compressibility (1/GPa) = 0.01273512
#
# Stress axis : x y z
#
# Youngs Moduli (GPa) = 180.96462 100.02257 87.29041
#
# Poissons Ratio (x) = 0.17547 0.16114
# Poissons Ratio (y) = 0.31746 0.30744
# Poissons Ratio (z) = 0.33407 0.35228
#
# Static dielectric constant tensor:
#      x y z
#    x 4.674540 0.000000 0.000000 
#    y 0.000000 3.842640 0.000000 
#    z 0.000000 0.000000 4.061010 
# 
# 
# High freq. dielectric constant tensor:
#      x y z
#    x 1.929540 0.000000 0.000000 
#    y 0.000000 1.891840 0.000000 
#    z 0.000000 0.000000 1.880360 
# 
# From -- ./inp_files/25943.got.cif
#   From: 2010.03.12/outbox.cif.g09.slc.cpg/sg64_13_cif.got.tgz:25943.got - 2010.04.10 20:19:32.
