data_PCOD8264422
_publ_section_title
;
Structure prediction by ZEFSAII (Michael W. Deem and Ramdas Pophale) SiO2 
 PCOD8264422
Probable space group: C M C A
;
_chemical_formula_sum "Si O2"
_cell_formula_units_Z 48
_cell_length_a 14.140471
_cell_length_b 7.349107
_cell_length_c 17.117825
_cell_angle_alpha 90.000000
_cell_angle_beta 90.000000
_cell_angle_gamma 90.000000
_cell_volume 1778.881539
_symmetry_space_group_name_H-M "C M C A"
_symmetry_group_IT_number 64
_symmetry_cell_setting 'orthorhombic'
loop_
_space_group_symop_operation_xyz
x,y,z
-x,1/2-y,1/2+z
x,-y,-z
-x,1/2+y,1/2-z
-x,-y,-z
x,1/2+y,1/2-z
-x,y,z
x,1/2-y,1/2+z
1/2+x,1/2+y,z
1/2-x,-y,1/2+z
1/2+x,1/2-y,-z
1/2-x,y,1/2-z
1/2-x,1/2-y,-z
1/2+x,y,1/2-z
1/2-x,1/2+y,z
1/2+x,-y,1/2+z
loop_
_atom_site_type_symbol
_atom_site_label
_atom_site_fract_x
_atom_site_fract_y
_atom_site_fract_z
Si Si1 0.392159 0.337631 0.084013
Si Si2 0.105064 0.649740 0.934304
Si Si3 0.261596 0.138023 0.341655
O O1 0.500000 0.333573 0.113051
O O2 0.338227 0.496098 0.128576
O O3 0.341708 0.147426 0.116432
O O4 0.387196 0.336472 0.988781
O O5 0.186582 0.666510 0.867260
O O6 0.000000 0.636211 0.897354
O O7 0.122493 0.500000 0.000000
O O8 0.250000 0.130452 0.250000
#
# Coordination Sequence:
#
# PCOD8264422 Si02
#       3
#    16  16  16
#     4  11  25  45  71 103 142 191 244 298 359 434
#     4  10  22  44  77 111 146 196 253 307 367 442
#     4  12  25  44  70 105 149 192 238 303 375 440
#
# _framework density 26.983246000000001
#
# number of rings (size 3 to 8) (size 9 to 14) (size 15 to 20)
#    0.000    1.000    0.000    6.000    0.000    5.333 
#    0.000    6.667    0.000    0.000    0.000    0.000 
#    0.000    0.000    0.000    0.000    0.000    0.000 
#
# Total GULP energy -297430.647292 kJ/mol
# GULP energy per Si atom -12392.943637 kJ/mol
# Density = 2.692183 g / cm^3
# Si number density = 26.983246 Si / 1000 Ang^3
#
#
#
# Elastic Constant Matrix: (Units=GPa)
#
#
# Indices 1 2 3 4 5 6 
#
# 1 259.7680 34.2818 110.0481 0.0000 0.0000 0.0000
# 2 34.2818 17.6857 4.3636 0.0000 0.0000 0.0000
# 3 110.0481 4.3636 185.0921 0.0000 0.0000 0.0000
# 4 0.0000 0.0000 0.0000 31.5526 0.0000 0.0000
# 5 0.0000 0.0000 0.0000 0.0000 25.3420 0.0000
# 6 0.0000 0.0000 0.0000 0.0000 0.0000 22.4590
#
#
#
# Elastic Compliance Matrix: (Units=1/GPa)
#
#
# Indices 1 2 3 4 5 6 
#
# 1 0.007287 -0.013132 -0.004023 0.000000 0.000000 0.000000
# 2 -0.013132 0.080541 0.005909 0.000000 0.000000 0.000000
# 3 -0.004023 0.005909 0.007655 0.000000 0.000000 0.000000
# 4 0.000000 0.000000 0.000000 0.031693 0.000000 0.000000
# 5 0.000000 0.000000 0.000000 0.000000 0.039460 0.000000
# 6 0.000000 0.000000 0.000000 0.000000 0.000000 0.044526
#
#
# Mechanical properties :
#
#
# Convention : Reuss Voigt Hill
#
# Bulk Modulus (GPa) = 13.70039 84.43700 49.06870
# Shear Modulus (GPa) = 19.38104 36.79420 28.08762
#
# Velocity S-wave (km/s) = 2.68295 3.69669 3.22984
# Velocity P-wave (km/s) = 3.83223 7.04138 5.66864
#
# Compressibility (1/GPa) = 0.07299060
#
# Stress axis : x y z
#
# Youngs Moduli (GPa) = 137.23167 12.41610 130.62909
#
# Poissons Ratio (x) = 0.16305 0.52551
# Poissons Ratio (y) = 1.80218 -0.77191
# Poissons Ratio (z) = 0.55207 -0.07337
#
# Static dielectric constant tensor:
#      x y z
#    x 5.178690 0.000000 0.000000 
#    y 0.000000 7.845540 0.000000 
#    z 0.000000 0.000000 4.671100 
# 
# 
# High freq. dielectric constant tensor:
#      x y z
#    x 2.102190 0.000000 0.000000 
#    y 0.000000 2.164410 0.000000 
#    z 0.000000 0.000000 2.046370 
# 
# From -- ./inp_files/24649.got.cif
#   From: 2010.03.12/outbox.cif.g09.slc.cpg/sg64_13_cif.got.tgz:24649.got - 2010.04.10 20:19:32.
