data_PCOD8264022
_publ_section_title
;
Structure prediction by ZEFSAII (Michael W. Deem and Ramdas Pophale) SiO2 
 PCOD8264022
Probable space group: C M C A
;
_chemical_formula_sum "Si O2"
_cell_formula_units_Z 112
_cell_length_a 17.326091
_cell_length_b 28.375722
_cell_length_c 11.230119
_cell_angle_alpha 90.000000
_cell_angle_beta 90.000000
_cell_angle_gamma 90.000000
_cell_volume 5521.179541
_symmetry_space_group_name_H-M "C M C A"
_symmetry_group_IT_number 64
_symmetry_cell_setting 'orthorhombic'
loop_
_space_group_symop_operation_xyz
x,y,z
-x,1/2-y,1/2+z
x,-y,-z
-x,1/2+y,1/2-z
-x,-y,-z
x,1/2+y,1/2-z
-x,y,z
x,1/2-y,1/2+z
1/2+x,1/2+y,z
1/2-x,-y,1/2+z
1/2+x,1/2-y,-z
1/2-x,y,1/2-z
1/2-x,1/2-y,-z
1/2+x,y,1/2-z
1/2-x,1/2+y,z
1/2+x,-y,1/2+z
loop_
_atom_site_type_symbol
_atom_site_label
_atom_site_fract_x
_atom_site_fract_y
_atom_site_fract_z
Si Si1 0.702298 0.754292 0.624813
Si Si2 0.660564 0.023620 0.739357
Si Si3 0.587530 0.108387 0.621308
Si Si4 0.408897 0.070541 0.223087
Si Si5 0.087895 0.170236 0.663478
Si Si6 0.411156 0.157559 0.372732
Si Si7 0.588158 0.573265 0.541057
O O1 0.750000 0.754863 0.750000
O O2 0.750000 0.750000 0.500000
O O3 0.645545 0.710400 0.623931
O O4 0.648823 0.800200 0.621464
O O5 0.750000 0.017592 0.750000
O O6 0.639553 0.062162 0.639253
O O7 0.631131 0.039827 0.867740
O O8 0.625784 0.972949 0.701775
O O9 0.500000 0.094374 0.656684
O O10 0.613556 0.151186 0.706909
O O11 0.595173 0.125636 0.488795
O O12 0.500000 0.066918 0.231502
O O13 0.384152 0.122183 0.268918
O O14 0.376614 0.065773 0.089388
O O15 0.096457 0.128307 0.569576
O O16 0.000000 0.189718 0.665945
O O17 0.500000 0.175611 0.356030
O O18 0.500000 0.557191 0.544262
#
# Coordination Sequence:
#
# PCOD8264022 Si02
#       7
#    16  16  16  16  16  16  16
#     4  12  27  43  63  95 133 169 204 255 330 387
#     4  11  22  36  56  92 127 165 203 249 312 377
#     4   9  19  40  65  88 117 160 212 259 302 362
#     4  10  21  40  63  88 120 161 211 261 307 356
#     4   9  19  39  67  92 116 160 215 257 300 369
#     4  10  23  43  65  90 122 164 213 262 309 371
#     4   9  19  38  66  90 115 156 212 263 300 355
#
# _framework density 20.285520999999999
#
# number of rings (size 3 to 8) (size 9 to 14) (size 15 to 20)
#    0.000    2.000    0.000    3.857    2.000    6.857 
#    5.143    3.571    0.000    0.000    0.000    0.000 
#    0.000    0.000    0.000    0.000    0.000    0.000 
#
# Total GULP energy -694220.324931 kJ/mol
# GULP energy per Si atom -12396.791517 kJ/mol
# Density = 2.023935 g / cm^3
# Si number density = 20.285521 Si / 1000 Ang^3
#
#
#
# Elastic Constant Matrix: (Units=GPa)
#
#
# Indices 1 2 3 4 5 6 
#
# 1 81.5694 64.2173 32.6873 0.0000 0.0000 0.0000
# 2 64.2173 116.4857 27.6668 0.0000 0.0000 0.0000
# 3 32.6873 27.6668 86.1337 0.0000 0.0000 0.0000
# 4 0.0000 0.0000 0.0000 14.0474 0.0000 0.0000
# 5 0.0000 0.0000 0.0000 0.0000 22.3119 0.0000
# 6 0.0000 0.0000 0.0000 0.0000 0.0000 20.4739
#
#
#
# Elastic Compliance Matrix: (Units=1/GPa)
#
#
# Indices 1 2 3 4 5 6 
#
# 1 0.023615 -0.011789 -0.005175 0.000000 0.000000 0.000000
# 2 -0.011789 0.015180 -0.000402 0.000000 0.000000 0.000000
# 3 -0.005175 -0.000402 0.013703 0.000000 0.000000 0.000000
# 4 0.000000 0.000000 0.000000 0.071188 0.000000 0.000000
# 5 0.000000 0.000000 0.000000 0.000000 0.044819 0.000000
# 6 0.000000 0.000000 0.000000 0.000000 0.000000 0.048843
#
#
# Mechanical properties :
#
#
# Convention : Reuss Voigt Hill
#
# Bulk Modulus (GPa) = 56.29056 59.25908 57.77482
# Shear Modulus (GPa) = 19.37984 22.00780 20.69382
#
# Velocity S-wave (km/s) = 3.09423 3.29736 3.19741
# Velocity P-wave (km/s) = 6.36986 6.61609 6.49414
#
# Compressibility (1/GPa) = 0.01776497
#
# Stress axis : x y z
#
# Youngs Moduli (GPa) = 42.34647 65.87803 72.97825
#
# Poissons Ratio (x) = 0.77667 0.37765
# Poissons Ratio (y) = 0.49924 0.02932
# Poissons Ratio (z) = 0.21913 0.02647
#
# Static dielectric constant tensor:
#      x y z
#    x 3.687810 0.000000 0.000000 
#    y 0.000000 3.749850 0.000000 
#    z 0.000000 0.000000 3.945680 
# 
# 
# High freq. dielectric constant tensor:
#      x y z
#    x 1.784760 0.000000 0.000000 
#    y 0.000000 1.801530 0.000000 
#    z 0.000000 0.000000 1.796230 
# 
# From -- ./inp_files/15011.got.cif
#   From: 2010.03.12/outbox.cif.g09.slc.cpg/sg64_8_cif.got.tgz:15011.got - 2010.04.10 20:19:32.
