data_PCOD8264515
_publ_section_title
;
Structure prediction by ZEFSAII (Michael W. Deem and Ramdas Pophale) SiO2 
 PCOD8264515
Probable space group: C M C A
;
_chemical_formula_sum "Si O2"
_cell_formula_units_Z 80
_cell_length_a 22.667900
_cell_length_b 11.776465
_cell_length_c 13.827695
_cell_angle_alpha 90.000000
_cell_angle_beta 90.000000
_cell_angle_gamma 90.000000
_cell_volume 3691.271805
_symmetry_space_group_name_H-M "C M C A"
_symmetry_group_IT_number 64
_symmetry_cell_setting 'orthorhombic'
loop_
_space_group_symop_operation_xyz
x,y,z
-x,1/2-y,1/2+z
x,-y,-z
-x,1/2+y,1/2-z
-x,-y,-z
x,1/2+y,1/2-z
-x,y,z
x,1/2-y,1/2+z
1/2+x,1/2+y,z
1/2-x,-y,1/2+z
1/2+x,1/2-y,-z
1/2-x,y,1/2-z
1/2-x,1/2-y,-z
1/2+x,y,1/2-z
1/2-x,1/2+y,z
1/2+x,-y,1/2+z
loop_
_atom_site_type_symbol
_atom_site_label
_atom_site_fract_x
_atom_site_fract_y
_atom_site_fract_z
Si Si1 0.648543 0.760376 0.889252
Si Si2 0.158647 0.591236 0.290263
Si Si3 0.639537 0.684041 0.600643
Si Si4 0.240864 0.067265 0.900736
Si Si5 0.569005 0.401248 0.230993
O O1 0.672083 0.855299 0.814791
O O2 0.703111 0.680955 0.917249
O O3 0.594311 0.691514 0.843713
O O4 0.626769 0.823614 0.986340
O O5 0.153225 0.686463 0.372136
O O6 0.212132 0.507667 0.316377
O O7 0.096829 0.523927 0.289920
O O8 0.694022 0.604064 0.633161
O O9 0.583163 0.638349 0.659543
O O10 0.244125 0.000000 0.000000
O O11 0.500000 0.411147 0.215051
#
# Coordination Sequence:
#
# PCOD8264515 Si02
#       5
#    16  16  16  16  16
#     4  10  23  43  69 100 134 174 223 271 340 396
#     4  10  24  43  64  95 139 173 218 271 336 391
#     4  11  24  42  66 100 133 174 218 275 335 400
#     4  11  23  41  67  98 139 169 214 264 330 415
#     4  10  25  45  67  95 129 176 234 281 330 390
#
# _framework density 21.672747999999999
#
# number of rings (size 3 to 8) (size 9 to 14) (size 15 to 20)
#    0.000    1.600    2.000    0.600    2.800   12.800 
#    0.000    2.000    0.000    0.000    0.000    0.000 
#    0.000    0.000    0.000    0.000    0.000    0.000 
#
# Total GULP energy -496238.073453 kJ/mol
# GULP energy per Si atom -12405.951836 kJ/mol
# Density = 2.162342 g / cm^3
# Si number density = 21.672748 Si / 1000 Ang^3
#
#
#
# Elastic Constant Matrix: (Units=GPa)
#
#
# Indices 1 2 3 4 5 6 
#
# 1 119.0632 47.1541 34.9269 0.0000 0.0000 0.0000
# 2 47.1541 114.1909 41.8815 0.0000 0.0000 0.0000
# 3 34.9269 41.8815 137.3573 0.0000 0.0000 0.0000
# 4 0.0000 0.0000 0.0000 43.5116 0.0000 0.0000
# 5 0.0000 0.0000 0.0000 0.0000 23.1603 0.0000
# 6 0.0000 0.0000 0.0000 0.0000 0.0000 22.2965
#
#
#
# Elastic Compliance Matrix: (Units=1/GPa)
#
#
# Indices 1 2 3 4 5 6 
#
# 1 0.010305 -0.003709 -0.001489 0.000000 0.000000 0.000000
# 2 -0.003709 0.011195 -0.002470 0.000000 0.000000 0.000000
# 3 -0.001489 -0.002470 0.008412 0.000000 0.000000 0.000000
# 4 0.000000 0.000000 0.000000 0.022982 0.000000 0.000000
# 5 0.000000 0.000000 0.000000 0.000000 0.043177 0.000000
# 6 0.000000 0.000000 0.000000 0.000000 0.000000 0.044850
#
#
# Mechanical properties :
#
#
# Convention : Reuss Voigt Hill
#
# Bulk Modulus (GPa) = 68.61297 68.72627 68.66962
# Shear Modulus (GPa) = 31.03333 34.23695 32.63514
#
# Velocity S-wave (km/s) = 3.78816 3.97889 3.88469
# Velocity P-wave (km/s) = 7.13168 7.27245 7.20241
#
# Compressibility (1/GPa) = 0.01457450
#
# Stress axis : x y z
#
# Youngs Moduli (GPa) = 97.04294 89.32651 118.87479
#
# Poissons Ratio (x) = 0.33131 0.17705
# Poissons Ratio (y) = 0.35993 0.29366
# Poissons Ratio (z) = 0.14453 0.22066
#
# Static dielectric constant tensor:
#      x y z
#    x 3.517700 0.000000 0.000000 
#    y 0.000000 4.209070 0.000000 
#    z 0.000000 0.000000 3.923320 
# 
# 
# High freq. dielectric constant tensor:
#      x y z
#    x 1.820420 0.000000 0.000000 
#    y 0.000000 1.872070 0.000000 
#    z 0.000000 0.000000 1.866250 
# 
# From -- ./inp_files/27048.got.cif
#   From: 2010.03.12/outbox.cif.g09.slc.cpg/sg64_14_cif.got.tgz:27048.got - 2010.04.10 20:19:32.
