data_PCOD8264118
_publ_section_title
;
Structure prediction by ZEFSAII (Michael W. Deem and Ramdas Pophale) SiO2 
 PCOD8264118
Probable space group: C M C A
;
_chemical_formula_sum "Si O2"
_cell_formula_units_Z 88
_cell_length_a 15.673072
_cell_length_b 10.223786
_cell_length_c 25.394504
_cell_angle_alpha 90.000000
_cell_angle_beta 90.000000
_cell_angle_gamma 90.000000
_cell_volume 4069.167937
_symmetry_space_group_name_H-M "C M C A"
_symmetry_group_IT_number 64
_symmetry_cell_setting 'orthorhombic'
loop_
_space_group_symop_operation_xyz
x,y,z
-x,1/2-y,1/2+z
x,-y,-z
-x,1/2+y,1/2-z
-x,-y,-z
x,1/2+y,1/2-z
-x,y,z
x,1/2-y,1/2+z
1/2+x,1/2+y,z
1/2-x,-y,1/2+z
1/2+x,1/2-y,-z
1/2-x,y,1/2-z
1/2-x,1/2-y,-z
1/2+x,y,1/2-z
1/2-x,1/2+y,z
1/2+x,-y,1/2+z
loop_
_atom_site_type_symbol
_atom_site_label
_atom_site_fract_x
_atom_site_fract_y
_atom_site_fract_z
Si Si1 0.595312 0.264787 0.260384
Si Si2 0.315544 0.124971 0.096479
Si Si3 0.323687 0.472559 0.703078
Si Si4 0.902760 0.382832 0.423664
Si Si5 0.731623 0.500000 0.000000
Si Si6 0.158678 0.592441 0.343439
O O1 0.500000 0.290059 0.240558
O O2 0.638731 0.406031 0.265043
O O3 0.592945 0.192831 0.317364
O O4 0.641922 0.171138 0.218995
O O5 0.386601 0.236786 0.096184
O O6 0.221923 0.173309 0.117646
O O7 0.346200 0.016378 0.139791
O O8 0.298441 0.070444 0.038417
O O9 0.218305 0.469571 0.704800
O O10 0.832366 0.403983 0.469011
O O11 0.891462 0.480556 0.374616
O O12 0.000000 0.395442 0.444935
#
# Coordination Sequence:
#
# PCOD8264118 Si02
#       6
#    16  16  16  16   8  16
#     4  12  24  41  64  96 130 167 214 273 330 380
#     4   9  22  41  69  88 130 175 224 255 321 401
#     4  10  25  42  66  92 130 175 222 261 320 403
#     4  11  21  38  66 101 129 161 212 280 327 371
#     4  10  21  42  67  92 128 176 220 262 321 392
#     4   9  22  40  64  88 127 172 217 255 315 397
#
# _framework density 21.626044
#
# number of rings (size 3 to 8) (size 9 to 14) (size 15 to 20)
#    1.091    0.727    0.000    3.545    2.545    2.909 
#    0.000    0.455    0.000    0.000    0.000    0.000 
#    0.000    0.000    0.000    0.000    0.000    0.000 
#
# Total GULP energy -545081.302235 kJ/mol
# GULP energy per Si atom -12388.211414 kJ/mol
# Density = 2.157682 g / cm^3
# Si number density = 21.626044 Si / 1000 Ang^3
#
#
#
# Elastic Constant Matrix: (Units=GPa)
#
#
# Indices 1 2 3 4 5 6 
#
# 1 89.0616 46.8298 35.9123 0.0000 0.0000 0.0000
# 2 46.8298 113.2999 41.0094 0.0000 0.0000 0.0000
# 3 35.9123 41.0094 78.4404 0.0000 0.0000 0.0000
# 4 0.0000 0.0000 0.0000 28.0403 0.0000 0.0000
# 5 0.0000 0.0000 0.0000 0.0000 21.2952 0.0000
# 6 0.0000 0.0000 0.0000 0.0000 0.0000 8.4350
#
#
#
# Elastic Compliance Matrix: (Units=1/GPa)
#
#
# Indices 1 2 3 4 5 6 
#
# 1 0.015612 -0.004768 -0.004655 0.000000 0.000000 0.000000
# 2 -0.004768 0.012342 -0.004270 0.000000 0.000000 0.000000
# 3 -0.004655 -0.004270 0.017112 0.000000 0.000000 0.000000
# 4 0.000000 0.000000 0.000000 0.035663 0.000000 0.000000
# 5 0.000000 0.000000 0.000000 0.000000 0.046959 0.000000
# 6 0.000000 0.000000 0.000000 0.000000 0.000000 0.118554
#
#
# Mechanical properties :
#
#
# Convention : Reuss Voigt Hill
#
# Bulk Modulus (GPa) = 56.55768 58.70055 57.62912
# Shear Modulus (GPa) = 17.88771 22.02412 19.95592
#
# Velocity S-wave (km/s) = 2.87912 3.19471 3.04101
# Velocity P-wave (km/s) = 6.10424 6.38832 6.24790
#
# Compressibility (1/GPa) = 0.01768106
#
# Stress axis : x y z
#
# Youngs Moduli (GPa) = 64.05189 81.02173 58.43862
#
# Poissons Ratio (x) = 0.38632 0.27203
# Poissons Ratio (y) = 0.30541 0.24952
# Poissons Ratio (z) = 0.29816 0.34594
#
# Static dielectric constant tensor:
#      x y z
#    x 3.683370 0.000000 0.000000 
#    y 0.000000 3.514000 0.000000 
#    z 0.000000 0.000000 4.119360 
# 
# 
# High freq. dielectric constant tensor:
#      x y z
#    x 1.834530 0.000000 0.000000 
#    y 0.000000 1.830630 0.000000 
#    z 0.000000 0.000000 1.866830 
# 
# From -- ./inp_files/49940.got.cif
#   From: 2010.03.12/outbox.cif.g09.slc.cpg/sg64_25_cif.got.tgz:49940.got - 2010.04.10 20:19:32.
