data_PCOD8264363
_publ_section_title
;
Structure prediction by ZEFSAII (Michael W. Deem and Ramdas Pophale) SiO2 
 PCOD8264363
Probable space group: C M C A
;
_chemical_formula_sum "Si O2"
_cell_formula_units_Z 88
_cell_length_a 20.703587
_cell_length_b 21.066475
_cell_length_c 9.492903
_cell_angle_alpha 90.000000
_cell_angle_beta 90.000000
_cell_angle_gamma 90.000000
_cell_volume 4140.344813
_symmetry_space_group_name_H-M "C M C A"
_symmetry_group_IT_number 64
_symmetry_cell_setting 'orthorhombic'
loop_
_space_group_symop_operation_xyz
x,y,z
-x,1/2-y,1/2+z
x,-y,-z
-x,1/2+y,1/2-z
-x,-y,-z
x,1/2+y,1/2-z
-x,y,z
x,1/2-y,1/2+z
1/2+x,1/2+y,z
1/2-x,-y,1/2+z
1/2+x,1/2-y,-z
1/2-x,y,1/2-z
1/2-x,1/2-y,-z
1/2+x,y,1/2-z
1/2-x,1/2+y,z
1/2+x,-y,1/2+z
loop_
_atom_site_type_symbol
_atom_site_label
_atom_site_fract_x
_atom_site_fract_y
_atom_site_fract_z
Si Si1 0.250000 0.102609 0.750000
Si Si2 0.622886 0.447592 0.108543
Si Si3 0.389945 0.695556 0.354877
Si Si4 0.500000 0.479743 0.282975
Si Si5 0.739530 0.823052 0.978432
Si Si6 0.618529 0.177694 0.461282
Si Si7 0.500000 0.893101 0.958169
O O1 0.312467 0.063207 0.700784
O O2 0.220794 0.145990 0.626817
O O3 0.565626 0.478569 0.196370
O O4 0.646567 0.500000 0.000000
O O5 0.590067 0.385108 0.035367
O O6 0.318076 0.665513 0.367343
O O7 0.411629 0.698049 0.189944
O O8 0.390073 0.765129 0.427050
O O9 0.437525 0.650342 0.438857
O O10 0.500000 0.547976 0.354588
O O11 0.500000 0.419076 0.384338
O O12 0.808814 0.847212 0.926745
O O13 0.750000 0.750000 0.000000
#
# Coordination Sequence:
#
# PCOD8264363 Si02
#       7
#     8  16  16   8  16  16   8
#     4  10  22  42  62 104 134 176 236 278 348 396
#     4  11  24  46  69  97 137 183 234 280 346 412
#     4  11  23  40  63  98 137 168 229 278 336 407
#     4  11  25  47  73  92 134 184 230 279 346 416
#     4   9  20  34  66  90 135 169 218 274 342 402
#     4  10  24  39  68  99 131 177 223 281 347 397
#     4  11  26  43  67 100 130 177 228 272 348 401
#
# _framework density 21.254266999999999
#
# number of rings (size 3 to 8) (size 9 to 14) (size 15 to 20)
#    0.000    1.636    0.000    3.000   17.818    2.182 
#   16.364    0.000    0.000    0.000    0.000    0.000 
#    0.000    0.000    0.000    0.000    0.000    0.000 
#
# Total GULP energy -545232.760600 kJ/mol
# GULP energy per Si atom -12391.653650 kJ/mol
# Density = 2.120589 g / cm^3
# Si number density = 21.254267 Si / 1000 Ang^3
#
#
#
# Elastic Constant Matrix: (Units=GPa)
#
#
# Indices 1 2 3 4 5 6 
#
# 1 97.9704 28.6892 18.4097 0.0000 0.0000 0.0000
# 2 28.6892 106.6003 38.4343 0.0000 0.0000 0.0000
# 3 18.4097 38.4343 107.0774 0.0000 0.0000 0.0000
# 4 0.0000 0.0000 0.0000 38.4034 0.0000 0.0000
# 5 0.0000 0.0000 0.0000 0.0000 29.4094 0.0000
# 6 0.0000 0.0000 0.0000 0.0000 0.0000 31.1352
#
#
#
# Elastic Compliance Matrix: (Units=1/GPa)
#
#
# Indices 1 2 3 4 5 6 
#
# 1 0.011167 -0.002657 -0.000966 0.000000 0.000000 0.000000
# 2 -0.002657 0.011407 -0.003638 0.000000 0.000000 0.000000
# 3 -0.000966 -0.003638 0.010811 0.000000 0.000000 0.000000
# 4 0.000000 0.000000 0.000000 0.026039 0.000000 0.000000
# 5 0.000000 0.000000 0.000000 0.000000 0.034003 0.000000
# 6 0.000000 0.000000 0.000000 0.000000 0.000000 0.032118
#
#
# Mechanical properties :
#
#
# Convention : Reuss Voigt Hill
#
# Bulk Modulus (GPa) = 53.01302 53.63493 53.32398
# Shear Modulus (GPa) = 34.16354 34.86393 34.51374
#
# Velocity S-wave (km/s) = 4.01356 4.05449 4.03407
# Velocity P-wave (km/s) = 6.81723 6.87082 6.84408
#
# Compressibility (1/GPa) = 0.01886329
#
# Stress axis : x y z
#
# Youngs Moduli (GPa) = 89.55136 87.66168 92.49921
#
# Poissons Ratio (x) = 0.23291 0.08937
# Poissons Ratio (y) = 0.23793 0.33649
# Poissons Ratio (z) = 0.08652 0.31890
#
# Static dielectric constant tensor:
#      x y z
#    x 8.063060 0.000000 0.000000 
#    y 0.000000 3.826230 0.000000 
#    z 0.000000 0.000000 4.068720 
# 
# 
# High freq. dielectric constant tensor:
#      x y z
#    x 1.834850 0.000000 0.000000 
#    y 0.000000 1.833390 0.000000 
#    z 0.000000 0.000000 1.841260 
# 
# From -- ./inp_files/8273.got.cif
#   From: 2010.03.12/outbox.cif.g09.slc.cpg/sg64_5_cif.got.tgz:8273.got - 2010.04.10 20:19:32.
