data_PCOD8264740
_publ_section_title
;
Structure prediction by ZEFSAII (Michael W. Deem and Ramdas Pophale) SiO2 
 PCOD8264740
Probable space group: C M C A
;
_chemical_formula_sum "Si O2"
_cell_formula_units_Z 96
_cell_length_a 20.893753
_cell_length_b 12.063224
_cell_length_c 17.676307
_cell_angle_alpha 90.000000
_cell_angle_beta 90.000000
_cell_angle_gamma 90.000000
_cell_volume 4455.242874
_symmetry_space_group_name_H-M "C M C A"
_symmetry_group_IT_number 64
_symmetry_cell_setting 'orthorhombic'
loop_
_space_group_symop_operation_xyz
x,y,z
-x,1/2-y,1/2+z
x,-y,-z
-x,1/2+y,1/2-z
-x,-y,-z
x,1/2+y,1/2-z
-x,y,z
x,1/2-y,1/2+z
1/2+x,1/2+y,z
1/2-x,-y,1/2+z
1/2+x,1/2-y,-z
1/2-x,y,1/2-z
1/2-x,1/2-y,-z
1/2+x,y,1/2-z
1/2-x,1/2+y,z
1/2+x,-y,1/2+z
loop_
_atom_site_type_symbol
_atom_site_label
_atom_site_fract_x
_atom_site_fract_y
_atom_site_fract_z
Si Si1 0.363597 0.682113 0.887589
Si Si2 0.804814 0.948067 0.850962
Si Si3 0.370602 0.734566 0.060933
Si Si4 0.500000 0.888541 0.392991
Si Si5 0.926364 0.460452 0.085660
Si Si6 0.335626 0.401140 0.684377
Si Si7 0.000000 0.876564 0.927667
O O1 0.330395 0.561773 0.887672
O O2 0.437416 0.672071 0.861148
O O3 0.330223 0.768318 0.830186
O O4 0.361122 0.732816 0.971187
O O5 0.814728 0.840741 0.904179
O O6 0.728887 0.961325 0.843101
O O7 0.842147 0.924681 0.773087
O O8 0.374644 0.860483 0.090517
O O9 0.436907 0.688785 0.092431
O O10 0.500000 0.896547 0.483168
O O11 0.500000 0.017760 0.371770
O O12 0.898265 0.554357 0.140928
O O13 0.000000 0.431671 0.109947
O O14 0.928299 0.500000 0.000000
#
# Coordination Sequence:
#
# PCOD8264740 Si02
#       7
#    16  16  16   8  16  16   8
#     4  11  23  43  68  99 129 172 224 278 328 394
#     4  11  27  45  67  91 136 183 224 276 333 396
#     4  11  21  41  69 100 130 167 225 275 329 392
#     4   9  18  34  64  93 130 156 203 272 326 376
#     4  11  24  44  69 100 138 176 217 274 345 406
#     4  11  28  46  63  94 137 183 217 272 345 405
#     4   9  16  34  59  98 127 159 200 262 334 373
#
# _framework density 21.547647000000001
#
# number of rings (size 3 to 8) (size 9 to 14) (size 15 to 20)
#    0.000    1.333    4.167    0.500    5.833    3.333 
#    3.000    0.000    0.000    0.000    0.000    0.000 
#    0.000    0.000    0.000    0.000    0.000    0.000 
#
# Total GULP energy -595017.829533 kJ/mol
# GULP energy per Si atom -12396.204782 kJ/mol
# Density = 2.149860 g / cm^3
# Si number density = 21.547647 Si / 1000 Ang^3
#
#
#
# Elastic Constant Matrix: (Units=GPa)
#
#
# Indices 1 2 3 4 5 6 
#
# 1 77.6943 18.9003 21.8796 0.0000 0.0000 0.0000
# 2 18.9003 114.0074 17.7531 0.0000 0.0000 0.0000
# 3 21.8796 17.7531 55.3216 0.0000 0.0000 0.0000
# 4 0.0000 0.0000 0.0000 27.6192 0.0000 0.0000
# 5 0.0000 0.0000 0.0000 0.0000 22.5780 0.0000
# 6 0.0000 0.0000 0.0000 0.0000 0.0000 33.2139
#
#
#
# Elastic Compliance Matrix: (Units=1/GPa)
#
#
# Indices 1 2 3 4 5 6 
#
# 1 0.014763 -0.001619 -0.005319 0.000000 0.000000 0.000000
# 2 -0.001619 0.009410 -0.002379 0.000000 0.000000 0.000000
# 3 -0.005319 -0.002379 0.020943 0.000000 0.000000 0.000000
# 4 0.000000 0.000000 0.000000 0.036207 0.000000 0.000000
# 5 0.000000 0.000000 0.000000 0.000000 0.044291 0.000000
# 6 0.000000 0.000000 0.000000 0.000000 0.000000 0.030108
#
#
# Mechanical properties :
#
#
# Convention : Reuss Voigt Hill
#
# Bulk Modulus (GPa) = 37.76271 40.45437 39.10854
# Shear Modulus (GPa) = 27.29494 29.24825 28.27160
#
# Velocity S-wave (km/s) = 3.56297 3.68825 3.62615
# Velocity P-wave (km/s) = 5.87278 6.07888 5.97672
#
# Compressibility (1/GPa) = 0.02648115
#
# Stress axis : x y z
#
# Youngs Moduli (GPa) = 67.73817 106.26646 47.74782
#
# Poissons Ratio (x) = 0.17206 0.25397
# Poissons Ratio (y) = 0.10968 0.11361
# Poissons Ratio (z) = 0.36030 0.25286
#
# Static dielectric constant tensor:
#      x y z
#    x 4.141300 0.000000 0.000000 
#    y 0.000000 3.979400 0.000000 
#    z 0.000000 0.000000 3.594190 
# 
# 
# High freq. dielectric constant tensor:
#      x y z
#    x 1.848350 0.000000 0.000000 
#    y 0.000000 1.857900 0.000000 
#    z 0.000000 0.000000 1.820820 
# 
# From -- ./inp_files/40919.got.cif
#   From: 2010.03.12/outbox.cif.g09.slc.cpg/sg64_21_cif.got.tgz:40919.got - 2010.04.10 20:19:32.
