data_PCOD8264665
_publ_section_title
;
Structure prediction by ZEFSAII (Michael W. Deem and Ramdas Pophale) SiO2 
 PCOD8264665
Probable space group: C M C A
;
_chemical_formula_sum "Si O2"
_cell_formula_units_Z 64
_cell_length_a 21.372422
_cell_length_b 30.665856
_cell_length_c 5.079106
_cell_angle_alpha 90.000000
_cell_angle_beta 90.000000
_cell_angle_gamma 90.000000
_cell_volume 3328.864436
_symmetry_space_group_name_H-M "C M C A"
_symmetry_group_IT_number 64
_symmetry_cell_setting 'orthorhombic'
loop_
_space_group_symop_operation_xyz
x,y,z
-x,1/2-y,1/2+z
x,-y,-z
-x,1/2+y,1/2-z
-x,-y,-z
x,1/2+y,1/2-z
-x,y,z
x,1/2-y,1/2+z
1/2+x,1/2+y,z
1/2-x,-y,1/2+z
1/2+x,1/2-y,-z
1/2-x,y,1/2-z
1/2-x,1/2-y,-z
1/2+x,y,1/2-z
1/2-x,1/2+y,z
1/2+x,-y,1/2+z
loop_
_atom_site_type_symbol
_atom_site_label
_atom_site_fract_x
_atom_site_fract_y
_atom_site_fract_z
Si Si1 0.075087 0.126368 0.051245
Si Si2 0.614834 0.920432 0.080693
Si Si3 0.425912 0.225253 0.353607
Si Si4 0.291833 0.000000 0.000000
Si Si5 0.500000 0.970969 0.250052
O O1 0.093716 0.094543 0.292528
O O2 0.092764 0.174757 0.142532
O O3 0.000000 0.122074 0.991262
O O4 0.121531 0.118848 0.795093
O O5 0.561074 0.942452 0.253878
O O6 0.669696 0.955786 0.057189
O O7 0.500000 0.230113 0.355761
O O8 0.396998 0.251689 0.597987
O O9 0.250000 0.010951 0.250000
O O10 0.500000 0.000000 0.500000
O O11 0.500000 0.000000 0.000000
#
# Coordination Sequence:
#
# PCOD8264665 Si02
#       5
#    16  16  16   8   8
#     4  11  20  33  54  87 117 146 186 227 274 329
#     4  12  23  37  58  81 112 144 192 237 276 329
#     4   9  17  29  46  72 116 160 180 201 255 335
#     4  12  28  45  58  75 108 152 194 236 282 334
#     4  12  22  34  56  84 108 142 180 232 286 332
#
# _framework density 19.225774000000001
#
# number of rings (size 3 to 8) (size 9 to 14) (size 15 to 20)
#    0.000    1.000    3.750    4.500    1.750    4.000 
#    0.000    0.000    0.000    0.000    0.000    0.000 
#    0.000   70.000    0.000    0.000    0.000    0.000 
#
# Total GULP energy -396425.624898 kJ/mol
# GULP energy per Si atom -12388.300778 kJ/mol
# Density = 1.918202 g / cm^3
# Si number density = 19.225774 Si / 1000 Ang^3
#
#
#
# Elastic Constant Matrix: (Units=GPa)
#
#
# Indices 1 2 3 4 5 6 
#
# 1 60.8894 34.4420 22.5927 0.0000 0.0000 0.0000
# 2 34.4420 102.8129 36.8184 0.0000 0.0000 0.0000
# 3 22.5927 36.8184 127.3951 0.0000 0.0000 0.0000
# 4 0.0000 0.0000 0.0000 45.2484 0.0000 0.0000
# 5 0.0000 0.0000 0.0000 0.000013849.8085 0.0000
# 6 0.0000 0.0000 0.0000 0.0000 0.0000 57.3290
#
#
#
# Elastic Compliance Matrix: (Units=1/GPa)
#
#
# Indices 1 2 3 4 5 6 
#
# 1 0.020648 -0.006253 -0.001855 0.000000 0.000000 0.000000
# 2 -0.006253 0.012743 -0.002574 0.000000 0.000000 0.000000
# 3 -0.001855 -0.002574 0.008922 0.000000 0.000000 0.000000
# 4 0.000000 0.000000 0.000000 0.022100 0.000000 0.000000
# 5 0.000000 0.000000 0.000000 0.000000 0.000072 0.000000
# 6 0.000000 0.000000 0.000000 0.000000 0.000000 0.017443
#
#
# Mechanical properties :
#
#
# Convention : Reuss Voigt Hill
#
# Bulk Modulus (GPa) = 47.73145 53.20043 50.46594
# Shear Modulus (GPa) = 45.34086 2803.62680 1424.48383
#
# Velocity S-wave (km/s) = 4.86154 38.22866 27.24945
# Velocity P-wave (km/s) = 7.50956 44.45566 31.88024
#
# Compressibility (1/GPa) = 0.02095055
#
# Stress axis : x y z
#
# Youngs Moduli (GPa) = 48.43000 78.47533 112.07758
#
# Poissons Ratio (x) = 0.49070 0.20787
# Poissons Ratio (y) = 0.30283 0.28848
# Poissons Ratio (z) = 0.08982 0.20199
#
# Static dielectric constant tensor:
#      x y z
#    x 3.085760 0.000000 0.000000 
#    y 0.000000 3.930280 0.000000 
#    z 0.000000 0.000000 4.002800 
# 
# 
# High freq. dielectric constant tensor:
#      x y z
#    x 1.676500 0.000000 0.000000 
#    y 0.000000 1.768980 0.000000 
#    z 0.000000 0.000000 1.779850 
# 
# From -- ./inp_files/1369.got.cif
#   From: 2010.03.12/outbox.cif.g09.slc.cpg/sg64_1_cif.got.tgz:1369.got - 2010.04.10 20:19:32.
