data_PCOD8264750
_publ_section_title
;
Structure prediction by ZEFSAII (Michael W. Deem and Ramdas Pophale) SiO2 
 PCOD8264750
Probable space group: C M C A
;
_chemical_formula_sum "Si O2"
_cell_formula_units_Z 64
_cell_length_a 10.193236
_cell_length_b 20.073361
_cell_length_c 14.296479
_cell_angle_alpha 90.000000
_cell_angle_beta 90.000000
_cell_angle_gamma 90.000000
_cell_volume 2925.238395
_symmetry_space_group_name_H-M "C M C A"
_symmetry_group_IT_number 64
_symmetry_cell_setting 'orthorhombic'
loop_
_space_group_symop_operation_xyz
x,y,z
-x,1/2-y,1/2+z
x,-y,-z
-x,1/2+y,1/2-z
-x,-y,-z
x,1/2+y,1/2-z
-x,y,z
x,1/2-y,1/2+z
1/2+x,1/2+y,z
1/2-x,-y,1/2+z
1/2+x,1/2-y,-z
1/2-x,y,1/2-z
1/2-x,1/2-y,-z
1/2+x,y,1/2-z
1/2-x,1/2+y,z
1/2+x,-y,1/2+z
loop_
_atom_site_type_symbol
_atom_site_label
_atom_site_fract_x
_atom_site_fract_y
_atom_site_fract_z
Si Si1 0.000000 0.704738 0.002465
Si Si2 0.000000 0.948706 0.207249
Si Si3 0.253847 0.641501 0.403401
Si Si4 0.000000 0.182323 0.710596
Si Si5 0.750000 0.252571 0.750000
Si Si6 0.250000 0.464192 0.750000
Si Si7 0.000000 0.642118 0.523154
O O1 0.126587 0.662352 0.030992
O O2 0.000000 0.778848 0.046692
O O3 0.000000 0.712941 0.891859
O O4 0.000000 0.897957 0.295010
O O5 0.000000 0.902527 0.115540
O O6 0.870522 0.992896 0.212389
O O7 0.214310 0.704030 0.340058
O O8 0.298371 0.580683 0.337014
O O9 0.128637 0.621436 0.464739
O O10 0.874700 0.206406 0.770108
#
# Coordination Sequence:
#
# PCOD8264750 Si02
#       7
#     8   8  16   8   8   8   8
#     4  12  25  42  70 114 137 168 226 286 359 407
#     4  12  28  45  69  99 138 187 234 285 331 398
#     4  11  24  44  73  99 138 182 226 280 337 415
#     4  12  26  40  69 101 145 174 218 287 354 403
#     4  11  21  44  68 102 137 179 218 276 356 417
#     4  11  27  50  68  96 137 195 238 264 338 407
#     4  12  25  45  73 108 137 173 229 291 347 403
#
# _framework density 21.87856
#
# number of rings (size 3 to 8) (size 9 to 14) (size 15 to 20)
#    0.000    0.500    2.500    5.250    7.000    6.000 
#    0.000    1.250    0.000    0.000    0.000    0.000 
#    0.000    0.000    0.000    0.000    0.000    0.000 
#
# Total GULP energy -396913.407449 kJ/mol
# GULP energy per Si atom -12403.543983 kJ/mol
# Density = 2.182876 g / cm^3
# Si number density = 21.878560 Si / 1000 Ang^3
#
#
#
# Elastic Constant Matrix: (Units=GPa)
#
#
# Indices 1 2 3 4 5 6 
#
# 1 160.7766 53.7769 52.4540 0.0000 0.0000 0.0000
# 2 53.7769 132.1757 49.0639 0.0000 0.0000 0.0000
# 3 52.4540 49.0639 98.3906 0.0000 0.0000 0.0000
# 4 0.0000 0.0000 0.0000 31.5961 0.0000 0.0000
# 5 0.0000 0.0000 0.0000 0.0000 29.8053 0.0000
# 6 0.0000 0.0000 0.0000 0.0000 0.0000 63.3612
#
#
#
# Elastic Compliance Matrix: (Units=1/GPa)
#
#
# Indices 1 2 3 4 5 6 
#
# 1 0.007954 -0.002040 -0.003223 0.000000 0.000000 0.000000
# 2 -0.002040 0.009807 -0.003803 0.000000 0.000000 0.000000
# 3 -0.003223 -0.003803 0.013778 0.000000 0.000000 0.000000
# 4 0.000000 0.000000 0.000000 0.031650 0.000000 0.000000
# 5 0.000000 0.000000 0.000000 0.000000 0.033551 0.000000
# 6 0.000000 0.000000 0.000000 0.000000 0.000000 0.015783
#
#
# Mechanical properties :
#
#
# Convention : Reuss Voigt Hill
#
# Bulk Modulus (GPa) = 74.58550 77.99250 76.28900
# Shear Modulus (GPa) = 37.00325 40.68907 38.84616
#
# Velocity S-wave (km/s) = 4.11701 4.31718 4.21828
# Velocity P-wave (km/s) = 7.53421 7.78306 7.65965
#
# Compressibility (1/GPa) = 0.01340743
#
# Stress axis : x y z
#
# Youngs Moduli (GPa) = 125.72972 101.96540 72.57724
#
# Poissons Ratio (x) = 0.20796 0.23393
# Poissons Ratio (y) = 0.25643 0.27603
# Poissons Ratio (z) = 0.40525 0.38780
#
# Static dielectric constant tensor:
#      x y z
#    x 4.603870 0.000000 0.000000 
#    y 0.000000 4.062500 0.000000 
#    z 0.000000 0.000000 3.915820 
# 
# 
# High freq. dielectric constant tensor:
#      x y z
#    x 1.874390 0.000000 0.000000 
#    y 0.000000 1.861940 0.000000 
#    z 0.000000 0.000000 1.867050 
# 
# From -- ./inp_files/20984.got.cif
#   From: 2010.03.12/outbox.cif.g09.slc.cpg/sg64_11_cif.got.tgz:20984.got - 2010.04.10 20:19:32.
