data_PCOD8264526
_publ_section_title
;
Structure prediction by ZEFSAII (Michael W. Deem and Ramdas Pophale) SiO2 
 PCOD8264526
Probable space group: C M C A
;
_chemical_formula_sum "Si O2"
_cell_formula_units_Z 96
_cell_length_a 14.849252
_cell_length_b 20.285847
_cell_length_c 14.690418
_cell_angle_alpha 90.000000
_cell_angle_beta 90.000000
_cell_angle_gamma 90.000000
_cell_volume 4425.189533
_symmetry_space_group_name_H-M "C M C A"
_symmetry_group_IT_number 64
_symmetry_cell_setting 'orthorhombic'
loop_
_space_group_symop_operation_xyz
x,y,z
-x,1/2-y,1/2+z
x,-y,-z
-x,1/2+y,1/2-z
-x,-y,-z
x,1/2+y,1/2-z
-x,y,z
x,1/2-y,1/2+z
1/2+x,1/2+y,z
1/2-x,-y,1/2+z
1/2+x,1/2-y,-z
1/2-x,y,1/2-z
1/2-x,1/2-y,-z
1/2+x,y,1/2-z
1/2-x,1/2+y,z
1/2+x,-y,1/2+z
loop_
_atom_site_type_symbol
_atom_site_label
_atom_site_fract_x
_atom_site_fract_y
_atom_site_fract_z
Si Si1 0.901357 0.148885 0.615683
Si Si2 0.902085 0.428408 0.461768
Si Si3 0.733723 0.859631 0.952260
Si Si4 0.324501 0.224723 0.316548
Si Si5 0.601476 0.396783 0.704053
Si Si6 0.145248 0.460683 0.259919
O O1 0.824851 0.152636 0.540663
O O2 0.897373 0.217974 0.670138
O O3 0.890147 0.086470 0.680571
O O4 0.000000 0.143899 0.570358
O O5 0.914672 0.500000 0.500000
O O6 0.823399 0.398237 0.521823
O O7 0.878161 0.427294 0.355402
O O8 0.000000 0.391895 0.473661
O O9 0.769846 0.791786 0.909192
O O10 0.671927 0.899201 0.879638
O O11 0.250000 0.255150 0.250000
O O12 0.369483 0.158477 0.276868
O O13 0.500000 0.380980 0.669614
O O14 0.599535 0.467708 0.752621
O O15 0.250000 0.471081 0.250000
#
# Coordination Sequence:
#
# PCOD8264526 Si02
#       6
#    16  16  16  16  16  16
#     4  12  25  42  66  98 137 176 223 279 340 402
#     4  11  23  40  64  97 131 172 227 276 323 390
#     4  11  24  42  65  98 133 174 219 274 341 394
#     4  10  23  44  68  92 129 181 226 273 331 401
#     4  11  23  43  70  99 134 175 224 270 332 408
#     4  12  23  43  68  96 136 179 221 276 336 398
#
# _framework density 21.693985000000001
#
# number of rings (size 3 to 8) (size 9 to 14) (size 15 to 20)
#    0.000    0.833    1.667    7.000    0.000    2.667 
#    0.000    1.667    0.000    0.000    0.000    0.000 
#    0.000    0.000    0.000    0.000    0.000    0.000 
#
# Total GULP energy -595107.449456 kJ/mol
# GULP energy per Si atom -12398.071864 kJ/mol
# Density = 2.164461 g / cm^3
# Si number density = 21.693985 Si / 1000 Ang^3
#
#
#
# Elastic Constant Matrix: (Units=GPa)
#
#
# Indices 1 2 3 4 5 6 
#
# 1 177.0107 22.8146 41.0777 0.0000 0.0000 0.0000
# 2 22.8146 83.9639 19.7298 0.0000 0.0000 0.0000
# 3 41.0777 19.7298 91.8284 0.0000 0.0000 0.0000
# 4 0.0000 0.0000 0.0000 14.0926 0.0000 0.0000
# 5 0.0000 0.0000 0.0000 0.0000 47.4671 0.0000
# 6 0.0000 0.0000 0.0000 0.0000 0.0000 20.5299
#
#
#
# Elastic Compliance Matrix: (Units=1/GPa)
#
#
# Indices 1 2 3 4 5 6 
#
# 1 0.006403 -0.001123 -0.002623 0.000000 0.000000 0.000000
# 2 -0.001123 0.012740 -0.002235 0.000000 0.000000 0.000000
# 3 -0.002623 -0.002235 0.012543 0.000000 0.000000 0.000000
# 4 0.000000 0.000000 0.000000 0.070959 0.000000 0.000000
# 5 0.000000 0.000000 0.000000 0.000000 0.021067 0.000000
# 6 0.000000 0.000000 0.000000 0.000000 0.000000 0.048709
#
#
# Mechanical properties :
#
#
# Convention : Reuss Voigt Hill
#
# Bulk Modulus (GPa) = 50.69876 57.78302 54.24089
# Shear Modulus (GPa) = 26.18364 34.36333 30.27349
#
# Velocity S-wave (km/s) = 3.47789 3.98427 3.73966
# Velocity P-wave (km/s) = 6.28875 6.91804 6.61088
#
# Compressibility (1/GPa) = 0.01972435
#
# Stress axis : x y z
#
# Youngs Moduli (GPa) = 156.18086 78.49127 79.72393
#
# Poissons Ratio (x) = 0.08818 0.20910
# Poissons Ratio (y) = 0.17546 0.17816
# Poissons Ratio (z) = 0.40963 0.17541
#
# Static dielectric constant tensor:
#      x y z
#    x 4.638460 0.000000 0.000000 
#    y 0.000000 3.754820 0.000000 
#    z 0.000000 0.000000 3.424570 
# 
# 
# High freq. dielectric constant tensor:
#      x y z
#    x 1.878140 0.000000 0.000000 
#    y 0.000000 1.840610 0.000000 
#    z 0.000000 0.000000 1.856700 
# 
# From -- ./inp_files/23897.got.cif
#   From: 2010.03.12/outbox.cif.g09.slc.cpg/sg64_12_cif.got.tgz:23897.got - 2010.04.10 20:19:32.
