data_PCOD8264023
_publ_section_title
;
Structure prediction by ZEFSAII (Michael W. Deem and Ramdas Pophale) SiO2 
 PCOD8264023
Probable space group: C M C A
;
_chemical_formula_sum "Si O2"
_cell_formula_units_Z 88
_cell_length_a 16.541558
_cell_length_b 8.454846
_cell_length_c 30.657826
_cell_angle_alpha 90.000000
_cell_angle_beta 90.000000
_cell_angle_gamma 90.000000
_cell_volume 4287.690892
_symmetry_space_group_name_H-M "C M C A"
_symmetry_group_IT_number 64
_symmetry_cell_setting 'orthorhombic'
loop_
_space_group_symop_operation_xyz
x,y,z
-x,1/2-y,1/2+z
x,-y,-z
-x,1/2+y,1/2-z
-x,-y,-z
x,1/2+y,1/2-z
-x,y,z
x,1/2-y,1/2+z
1/2+x,1/2+y,z
1/2-x,-y,1/2+z
1/2+x,1/2-y,-z
1/2-x,y,1/2-z
1/2-x,1/2-y,-z
1/2+x,y,1/2-z
1/2-x,1/2+y,z
1/2+x,-y,1/2+z
loop_
_atom_site_type_symbol
_atom_site_label
_atom_site_fract_x
_atom_site_fract_y
_atom_site_fract_z
Si Si1 0.183020 0.355801 0.217030
Si Si2 0.197261 0.717819 0.642811
Si Si3 0.724169 0.447914 0.918826
Si Si4 0.666765 0.500000 0.500000
Si Si5 0.906688 0.327887 0.523344
Si Si6 0.406748 0.162856 0.215979
O O1 0.250000 0.428614 0.250000
O O2 0.222181 0.304319 0.171645
O O3 0.140698 0.207081 0.239970
O O4 0.113836 0.481935 0.206275
O O5 0.212052 0.872567 0.614270
O O6 0.178033 0.582073 0.608251
O O7 0.120167 0.733330 0.674368
O O8 0.653653 0.329018 0.935244
O O9 0.775425 0.519413 0.958493
O O10 0.615023 0.334387 0.503785
O O11 0.892970 0.500000 0.500000
O O12 0.000000 0.313967 0.537831
O O13 0.500000 0.190206 0.223895
#
# Coordination Sequence:
#
# PCOD8264023 Si02
#       6
#    16  16  16   8  16  16
#     4  10  21  40  63  88 123 166 210 252 311 391
#     4  11  23  39  66  93 124 169 215 266 308 389
#     4  12  22  42  67  93 125 170 226 261 317 394
#     4  12  23  44  71  94 128 184 224 266 331 410
#     4  11  24  42  65  97 130 165 217 279 333 382
#     4  11  23  40  63  94 126 164 206 262 325 378
#
# _framework density 20.523866999999999
#
# number of rings (size 3 to 8) (size 9 to 14) (size 15 to 20)
#    0.000    0.909    4.545    4.091    2.545    0.727 
#    0.000    5.455    0.000    0.000    0.000    0.000 
#    0.000    0.000    0.000    0.000    0.000    0.000 
#
# Total GULP energy -545341.067083 kJ/mol
# GULP energy per Si atom -12394.115161 kJ/mol
# Density = 2.047715 g / cm^3
# Si number density = 20.523867 Si / 1000 Ang^3
#
#
#
# Elastic Constant Matrix: (Units=GPa)
#
#
# Indices 1 2 3 4 5 6 
#
# 1 114.1186 17.2488 25.0720 0.0000 0.0000 0.0000
# 2 17.2488 83.7430 18.4434 0.0000 0.0000 0.0000
# 3 25.0720 18.4434 94.7605 0.0000 0.0000 0.0000
# 4 0.0000 0.0000 0.0000 17.5803 0.0000 0.0000
# 5 0.0000 0.0000 0.0000 0.0000 13.7030 0.0000
# 6 0.0000 0.0000 0.0000 0.0000 0.0000 26.1161
#
#
#
# Elastic Compliance Matrix: (Units=1/GPa)
#
#
# Indices 1 2 3 4 5 6 
#
# 1 0.009472 -0.001462 -0.002222 0.000000 0.000000 0.000000
# 2 -0.001462 0.012702 -0.002085 0.000000 0.000000 0.000000
# 3 -0.002222 -0.002085 0.011547 0.000000 0.000000 0.000000
# 4 0.000000 0.000000 0.000000 0.056882 0.000000 0.000000
# 5 0.000000 0.000000 0.000000 0.000000 0.072977 0.000000
# 6 0.000000 0.000000 0.000000 0.000000 0.000000 0.038290
#
#
# Mechanical properties :
#
#
# Convention : Reuss Voigt Hill
#
# Bulk Modulus (GPa) = 45.08010 46.01672 45.54841
# Shear Modulus (GPa) = 22.64486 26.93708 24.79097
#
# Velocity S-wave (km/s) = 3.32526 3.62674 3.47927
# Velocity P-wave (km/s) = 6.06264 6.32514 6.19528
#
# Compressibility (1/GPa) = 0.02218274
#
# Stress axis : x y z
#
# Youngs Moduli (GPa) = 105.57619 78.72995 86.60553
#
# Poissons Ratio (x) = 0.11508 0.19240
# Poissons Ratio (y) = 0.15432 0.18061
# Poissons Ratio (z) = 0.23455 0.16418
#
# Static dielectric constant tensor:
#      x y z
#    x 3.594550 0.000000 0.000000 
#    y 0.000000 4.058060 0.000000 
#    z 0.000000 0.000000 4.020870 
# 
# 
# High freq. dielectric constant tensor:
#      x y z
#    x 1.786230 0.000000 0.000000 
#    y 0.000000 1.813960 0.000000 
#    z 0.000000 0.000000 1.800770 
# 
# From -- ./inp_files/53555.got.cif
#   From: 2010.03.12/outbox.cif.g09.slc.cpg/sg64_27_cif.got.tgz:53555.got - 2010.04.10 20:19:32.
