data_PCOD8264486
_publ_section_title
;
Structure prediction by ZEFSAII (Michael W. Deem and Ramdas Pophale) SiO2 
 PCOD8264486
Probable space group: C M C A
;
_chemical_formula_sum "Si O2"
_cell_formula_units_Z 56
_cell_length_a 15.591198
_cell_length_b 17.935023
_cell_length_c 9.394513
_cell_angle_alpha 90.000000
_cell_angle_beta 90.000000
_cell_angle_gamma 90.000000
_cell_volume 2626.973529
_symmetry_space_group_name_H-M "C M C A"
_symmetry_group_IT_number 64
_symmetry_cell_setting 'orthorhombic'
loop_
_space_group_symop_operation_xyz
x,y,z
-x,1/2-y,1/2+z
x,-y,-z
-x,1/2+y,1/2-z
-x,-y,-z
x,1/2+y,1/2-z
-x,y,z
x,1/2-y,1/2+z
1/2+x,1/2+y,z
1/2-x,-y,1/2+z
1/2+x,1/2-y,-z
1/2-x,y,1/2-z
1/2-x,1/2-y,-z
1/2+x,y,1/2-z
1/2-x,1/2+y,z
1/2+x,-y,1/2+z
loop_
_atom_site_type_symbol
_atom_site_label
_atom_site_fract_x
_atom_site_fract_y
_atom_site_fract_z
Si Si1 0.818005 0.790696 0.092321
Si Si2 0.595137 0.190212 0.319543
Si Si3 0.750000 0.924078 0.250000
Si Si4 0.901050 0.018354 0.165210
O O1 0.659645 0.745407 0.264034
O O2 0.774363 0.870742 0.118987
O O3 0.750000 0.750000 0.000000
O O4 0.900669 0.798541 0.990467
O O5 0.500000 0.210534 0.268730
O O6 0.615703 0.103801 0.291568
O O7 0.835955 0.973987 0.270338
O O8 0.000000 0.995529 0.197084
O O9 0.879579 0.000000 0.000000
#
# Coordination Sequence:
#
# PCOD8264486 Si02
#       4
#    16  16   8  16
#     4  12  24  43  64 100 131 171 223 271 336 393
#     4  11  24  44  69  95 132 175 224 275 326 400
#     4  12  24  38  70  98 134 174 218 286 332 400
#     4  10  23  42  66  97 133 178 223 269 335 403
#
# _framework density 21.317307
#
# number of rings (size 3 to 8) (size 9 to 14) (size 15 to 20)
#    0.000    0.857    5.714    0.857    4.000    1.143 
#    0.000    0.000    0.000    4.286    0.000    0.000 
#    0.000    0.000    0.000    0.000    0.000    0.000 
#
# Total GULP energy -346900.446654 kJ/mol
# GULP energy per Si atom -12389.301666 kJ/mol
# Density = 2.126879 g / cm^3
# Si number density = 21.317307 Si / 1000 Ang^3
#
#
#
# Elastic Constant Matrix: (Units=GPa)
#
#
# Indices 1 2 3 4 5 6 
#
# 1 128.9576 70.6973 46.0695 0.0000 0.0000 0.0000
# 2 70.6973 119.9239 41.6202 0.0000 0.0000 0.0000
# 3 46.0695 41.6202 98.8760 0.0000 0.0000 0.0000
# 4 0.0000 0.0000 0.0000 12.6178 0.0000 0.0000
# 5 0.0000 0.0000 0.0000 0.0000 37.5145 0.0000
# 6 0.0000 0.0000 0.0000 0.0000 0.0000 31.8637
#
#
#
# Elastic Compliance Matrix: (Units=1/GPa)
#
#
# Indices 1 2 3 4 5 6 
#
# 1 0.012227 -0.006126 -0.003118 0.000000 0.000000 0.000000
# 2 -0.006126 0.012834 -0.002548 0.000000 0.000000 0.000000
# 3 -0.003118 -0.002548 0.012639 0.000000 0.000000 0.000000
# 4 0.000000 0.000000 0.000000 0.079253 0.000000 0.000000
# 5 0.000000 0.000000 0.000000 0.000000 0.026656 0.000000
# 6 0.000000 0.000000 0.000000 0.000000 0.000000 0.031384
#
#
# Mechanical properties :
#
#
# Convention : Reuss Voigt Hill
#
# Bulk Modulus (GPa) = 70.84273 73.83683 72.33978
# Shear Modulus (GPa) = 24.59627 29.02389 26.81008
#
# Velocity S-wave (km/s) = 3.40047 3.69388 3.55021
# Velocity P-wave (km/s) = 6.98013 7.27360 7.12838
#
# Compressibility (1/GPa) = 0.01411577
#
# Stress axis : x y z
#
# Youngs Moduli (GPa) = 81.78829 77.91713 79.11876
#
# Poissons Ratio (x) = 0.47729 0.24672
# Poissons Ratio (y) = 0.50100 0.20161
# Poissons Ratio (z) = 0.25504 0.19855
#
# Static dielectric constant tensor:
#      x y z
#    x 4.150280 0.000000 0.000000 
#    y 0.000000 3.320870 0.000000 
#    z 0.000000 0.000000 5.414090 
# 
# 
# High freq. dielectric constant tensor:
#      x y z
#    x 1.849870 0.000000 0.000000 
#    y 0.000000 1.850410 0.000000 
#    z 0.000000 0.000000 1.811500 
# 
# From -- ./inp_files/13937.got.cif
#   From: 2010.03.12/outbox.cif.g09.slc.cpg/sg64_7_cif.got.tgz:13937.got - 2010.04.10 20:19:32.
