data_PCOD8264830
_publ_section_title
;
Structure prediction by ZEFSAII (Michael W. Deem and Ramdas Pophale) SiO2 
 PCOD8264830
Probable space group: C M C A
;
_chemical_formula_sum "Si O2"
_cell_formula_units_Z 104
_cell_length_a 27.181509
_cell_length_b 9.351521
_cell_length_c 21.467027
_cell_angle_alpha 90.000000
_cell_angle_beta 90.000000
_cell_angle_gamma 90.000000
_cell_volume 5456.670367
_symmetry_space_group_name_H-M "C M C A"
_symmetry_group_IT_number 64
_symmetry_cell_setting 'orthorhombic'
loop_
_space_group_symop_operation_xyz
x,y,z
-x,1/2-y,1/2+z
x,-y,-z
-x,1/2+y,1/2-z
-x,-y,-z
x,1/2+y,1/2-z
-x,y,z
x,1/2-y,1/2+z
1/2+x,1/2+y,z
1/2-x,-y,1/2+z
1/2+x,1/2-y,-z
1/2-x,y,1/2-z
1/2-x,1/2-y,-z
1/2+x,y,1/2-z
1/2-x,1/2+y,z
1/2+x,-y,1/2+z
loop_
_atom_site_type_symbol
_atom_site_label
_atom_site_fract_x
_atom_site_fract_y
_atom_site_fract_z
Si Si1 0.443375 0.224472 0.989483
Si Si2 0.556951 0.029898 0.102827
Si Si3 0.791277 0.435831 0.936939
Si Si4 0.806408 0.197315 0.772001
Si Si5 0.803394 0.109166 0.910662
Si Si6 0.616529 0.000000 0.500000
Si Si7 0.148030 0.017289 0.318096
O O1 0.500000 0.261114 0.998247
O O2 0.415697 0.370106 0.974541
O O3 0.435741 0.122118 0.930430
O O4 0.425151 0.151649 0.054108
O O5 0.500000 0.051977 0.122253
O O6 0.590171 0.037630 0.165606
O O7 0.788951 0.264273 0.937628
O O8 0.736180 0.491529 0.929407
O O9 0.824791 0.500039 0.883394
O O10 0.814414 0.500000 0.000000
O O11 0.750000 0.208009 0.750000
O O12 0.809061 0.111263 0.836444
O O13 0.829102 0.353442 0.779142
O O14 0.841719 0.123814 0.721639
O O15 0.853534 0.056032 0.940846
#
# Coordination Sequence:
#
# PCOD8264830 Si02
#       7
#    16  16  16  16  16   8  16
#     4   9  19  37  63  90 123 158 197 250 310 376
#     4   9  20  41  65  92 116 155 207 252 308 374
#     4  11  23  39  57  86 122 158 204 246 310 350
#     4  11  23  42  58  87 117 168 213 245 291 367
#     4  11  25  37  57  86 124 163 202 257 292 364
#     4  12  23  36  56  96 130 154 203 252 324 354
#     4  11  24  38  65  84 121 163 206 254 300 354
#
# _framework density 19.059241
#
# number of rings (size 3 to 8) (size 9 to 14) (size 15 to 20)
#    0.000    1.538    2.308    3.923    6.462    1.231 
#    0.000    0.769    0.000    1.846    0.000    0.000 
#    0.000    0.000    0.000    0.000    0.000    0.000 
#
# Total GULP energy -644905.452710 kJ/mol
# GULP energy per Si atom -12402.027937 kJ/mol
# Density = 1.901586 g / cm^3
# Si number density = 19.059241 Si / 1000 Ang^3
#
#
#
# Elastic Constant Matrix: (Units=GPa)
#
#
# Indices 1 2 3 4 5 6 
#
# 1 89.3161 47.8041 47.1774 0.0000 0.0000 0.0000
# 2 47.8041 111.0434 45.9675 0.0000 0.0000 0.0000
# 3 47.1774 45.9675 94.5936 0.0000 0.0000 0.0000
# 4 0.0000 0.0000 0.0000 25.9137 0.0000 0.0000
# 5 0.0000 0.0000 0.0000 0.0000 10.4982 0.0000
# 6 0.0000 0.0000 0.0000 0.0000 0.0000 174.2196
#
#
#
# Elastic Compliance Matrix: (Units=1/GPa)
#
#
# Indices 1 2 3 4 5 6 
#
# 1 0.017004 -0.004769 -0.006163 0.000000 0.000000 0.000000
# 2 -0.004769 0.012611 -0.003750 0.000000 0.000000 0.000000
# 3 -0.006163 -0.003750 0.015467 0.000000 0.000000 0.000000
# 4 0.000000 0.000000 0.000000 0.038590 0.000000 0.000000
# 5 0.000000 0.000000 0.000000 0.000000 0.095254 0.000000
# 6 0.000000 0.000000 0.000000 0.000000 0.000000 0.005740
#
#
# Mechanical properties :
#
#
# Convention : Reuss Voigt Hill
#
# Bulk Modulus (GPa) = 63.61829 64.09457 63.85643
# Shear Modulus (GPa) = 22.80306 52.39326 37.59816
#
# Velocity S-wave (km/s) = 3.46270 5.24875 4.44633
# Velocity P-wave (km/s) = 7.03127 8.39253 7.74188
#
# Compressibility (1/GPa) = 0.01571875
#
# Stress axis : x y z
#
# Youngs Moduli (GPa) = 58.80959 79.29749 64.65187
#
# Poissons Ratio (x) = 0.37817 0.39845
# Poissons Ratio (y) = 0.28046 0.24243
# Poissons Ratio (z) = 0.36245 0.29734
#
# Static dielectric constant tensor:
#      x y z
#    x 3.549580 0.000000 0.000000 
#    y 0.000000 3.566850 0.000000 
#    z 0.000000 0.000000 3.533410 
# 
# 
# High freq. dielectric constant tensor:
#      x y z
#    x 1.743090 0.000000 0.000000 
#    y 0.000000 1.747300 0.000000 
#    z 0.000000 0.000000 1.733030 
# 
# From -- ./inp_files/41855.got.cif
#   From: 2010.03.12/outbox.cif.g09.slc.cpg/sg64_21_cif.got.tgz:41855.got - 2010.04.10 20:19:32.
