data_PCOD8264934
_publ_section_title
;
Structure prediction by ZEFSAII (Michael W. Deem and Ramdas Pophale) SiO2 
 PCOD8264934
Probable space group: C M C A
;
_chemical_formula_sum "Si O2"
_cell_formula_units_Z 48
_cell_length_a 16.934767
_cell_length_b 16.925174
_cell_length_c 7.509643
_cell_angle_alpha 90.000000
_cell_angle_beta 90.000000
_cell_angle_gamma 90.000000
_cell_volume 2152.443000
_symmetry_space_group_name_H-M "C M C A"
_symmetry_group_IT_number 64
_symmetry_cell_setting 'orthorhombic'
loop_
_space_group_symop_operation_xyz
x,y,z
-x,1/2-y,1/2+z
x,-y,-z
-x,1/2+y,1/2-z
-x,-y,-z
x,1/2+y,1/2-z
-x,y,z
x,1/2-y,1/2+z
1/2+x,1/2+y,z
1/2-x,-y,1/2+z
1/2+x,1/2-y,-z
1/2-x,y,1/2-z
1/2-x,1/2-y,-z
1/2+x,y,1/2-z
1/2-x,1/2+y,z
1/2+x,-y,1/2+z
loop_
_atom_site_type_symbol
_atom_site_label
_atom_site_fract_x
_atom_site_fract_y
_atom_site_fract_z
Si Si1 0.160603 0.658195 0.095847
Si Si2 0.409740 0.815931 0.271837
Si Si3 0.674223 0.412128 0.949611
O O1 0.147574 0.742212 0.192368
O O2 0.251205 0.647269 0.034226
O O3 0.141498 0.591496 0.246208
O O4 0.104382 0.649602 0.925534
O O5 0.500000 0.788430 0.289631
O O6 0.393307 0.884464 0.414669
O O7 0.701095 0.500000 0.000000
#
# Coordination Sequence:
#
# PCOD8264934 Si02
#       3
#    16  16  16
#     4  11  25  43  73 102 136 182 237 285 341 417
#     4  12  25  44  72 104 141 181 231 290 354 422
#     4  11  27  45  71 103 140 183 236 296 347 411
#
# _framework density 22.300242000000001
#
# number of rings (size 3 to 8) (size 9 to 14) (size 15 to 20)
#    0.000    0.667    3.333    3.000   14.000    2.000 
#    0.000    1.667    0.000    0.000    0.000    0.000 
#    0.000    0.000    0.000    0.000    0.000    0.000 
#
# Total GULP energy -297617.582128 kJ/mol
# GULP energy per Si atom -12400.732589 kJ/mol
# Density = 2.224949 g / cm^3
# Si number density = 22.300242 Si / 1000 Ang^3
#
#
#
# Elastic Constant Matrix: (Units=GPa)
#
#
# Indices 1 2 3 4 5 6 
#
# 1 107.9257 60.0864 50.6284 0.0000 0.0000 0.0000
# 2 60.0864 105.3670 45.8070 0.0000 0.0000 0.0000
# 3 50.6284 45.8070 182.4595 0.0000 0.0000 0.0000
# 4 0.0000 0.0000 0.0000 33.1155 0.0000 0.0000
# 5 0.0000 0.0000 0.0000 0.0000 22.8665 0.0000
# 6 0.0000 0.0000 0.0000 0.0000 0.0000 11.4881
#
#
#
# Elastic Compliance Matrix: (Units=1/GPa)
#
#
# Indices 1 2 3 4 5 6 
#
# 1 0.014293 -0.007214 -0.002155 0.000000 0.000000 0.000000
# 2 -0.007214 0.014294 -0.001587 0.000000 0.000000 0.000000
# 3 -0.002155 -0.001587 0.006477 0.000000 0.000000 0.000000
# 4 0.000000 0.000000 0.000000 0.030197 0.000000 0.000000
# 5 0.000000 0.000000 0.000000 0.000000 0.043732 0.000000
# 6 0.000000 0.000000 0.000000 0.000000 0.000000 0.087047
#
#
# Mechanical properties :
#
#
# Convention : Reuss Voigt Hill
#
# Bulk Modulus (GPa) = 76.02939 78.75510 77.39224
# Shear Modulus (GPa) = 22.48854 29.44271 25.96563
#
# Velocity S-wave (km/s) = 3.17905 3.63752 3.41598
# Velocity P-wave (km/s) = 6.90237 7.28248 7.09497
#
# Compressibility (1/GPa) = 0.01315281
#
# Stress axis : x y z
#
# Youngs Moduli (GPa) = 69.96618 69.95837 154.39232
#
# Poissons Ratio (x) = 0.50466 0.33269
# Poissons Ratio (y) = 0.50471 0.24502
# Poissons Ratio (z) = 0.15077 0.11102
#
# Static dielectric constant tensor:
#      x y z
#    x 3.718620 0.000000 0.000000 
#    y 0.000000 3.717240 0.000000 
#    z 0.000000 0.000000 4.546380 
# 
# 
# High freq. dielectric constant tensor:
#      x y z
#    x 1.858120 0.000000 0.000000 
#    y 0.000000 1.855960 0.000000 
#    z 0.000000 0.000000 1.909100 
# 
# From -- ./inp_files/5009.got.cif
#   From: 2010.03.12/outbox.cif.g09.slc.cpg/sg64_3_cif.got.tgz:5009.got - 2010.04.10 20:19:32.
