data_PCOD8264351
_publ_section_title
;
Structure prediction by ZEFSAII (Michael W. Deem and Ramdas Pophale) SiO2 
 PCOD8264351
Probable space group: C M C A
;
_chemical_formula_sum "Si O2"
_cell_formula_units_Z 56
_cell_length_a 10.447430
_cell_length_b 15.183613
_cell_length_c 15.820683
_cell_angle_alpha 90.000000
_cell_angle_beta 90.000000
_cell_angle_gamma 90.000000
_cell_volume 2509.630735
_symmetry_space_group_name_H-M "C M C A"
_symmetry_group_IT_number 64
_symmetry_cell_setting 'orthorhombic'
loop_
_space_group_symop_operation_xyz
x,y,z
-x,1/2-y,1/2+z
x,-y,-z
-x,1/2+y,1/2-z
-x,-y,-z
x,1/2+y,1/2-z
-x,y,z
x,1/2-y,1/2+z
1/2+x,1/2+y,z
1/2-x,-y,1/2+z
1/2+x,1/2-y,-z
1/2-x,y,1/2-z
1/2-x,1/2-y,-z
1/2+x,y,1/2-z
1/2-x,1/2+y,z
1/2+x,-y,1/2+z
loop_
_atom_site_type_symbol
_atom_site_label
_atom_site_fract_x
_atom_site_fract_y
_atom_site_fract_z
Si Si1 0.646513 0.458414 0.178110
Si Si2 0.244979 0.000000 0.000000
Si Si3 0.861597 0.182983 0.479923
Si Si4 0.636493 0.756270 0.305908
O O1 0.500000 0.477362 0.208924
O O2 0.750000 0.489379 0.250000
O O3 0.663441 0.507051 0.087182
O O4 0.667971 0.354451 0.160536
O O5 0.333664 0.084958 0.989699
O O6 0.750000 0.250000 0.500000
O O7 0.875530 0.185444 0.379537
O O8 0.000000 0.210960 0.520141
O O9 0.500000 0.758224 0.256225
O O10 0.750000 0.719028 0.250000
#
# Coordination Sequence:
#
# PCOD8264351 Si02
#       4
#    16   8  16  16
#     4  10  22  41  67  97 135 178 226 279 337 402
#     4  12  24  42  70 104 136 178 224 280 342 404
#     4  11  24  42  64  95 131 170 219 273 330 399
#     4   9  19  39  63  91 125 168 218 270 327 394
#
# _framework density 22.314039000000001
#
# number of rings (size 3 to 8) (size 9 to 14) (size 15 to 20)
#    0.000    1.714    2.857    0.857    0.000    5.714 
#    0.000    2.857    0.000    0.000    0.000    0.000 
#    0.000    0.000    0.000    0.000    0.000    0.000 
#
# Total GULP energy -346887.918558 kJ/mol
# GULP energy per Si atom -12388.854234 kJ/mol
# Density = 2.226325 g / cm^3
# Si number density = 22.314039 Si / 1000 Ang^3
#
#
#
# Elastic Constant Matrix: (Units=GPa)
#
#
# Indices 1 2 3 4 5 6 
#
# 1 218.0763 56.9995 61.8556 0.0000 0.0000 0.0000
# 2 56.9995 81.6704 11.4161 0.0000 0.0000 0.0000
# 3 61.8556 11.4161 106.7536 0.0000 0.0000 0.0000
# 4 0.0000 0.0000 0.0000 31.1339 0.0000 0.0000
# 5 0.0000 0.0000 0.0000 0.0000 31.9954 0.0000
# 6 0.0000 0.0000 0.0000 0.0000 0.0000 17.0169
#
#
#
# Elastic Compliance Matrix: (Units=1/GPa)
#
#
# Indices 1 2 3 4 5 6 
#
# 1 0.006637 -0.004156 -0.003401 0.000000 0.000000 0.000000
# 2 -0.004156 0.015033 0.000801 0.000000 0.000000 0.000000
# 3 -0.003401 0.000801 0.011252 0.000000 0.000000 0.000000
# 4 0.000000 0.000000 0.000000 0.032119 0.000000 0.000000
# 5 0.000000 0.000000 0.000000 0.000000 0.031254 0.000000
# 6 0.000000 0.000000 0.000000 0.000000 0.000000 0.058765
#
#
# Mechanical properties :
#
#
# Convention : Reuss Voigt Hill
#
# Bulk Modulus (GPa) = 51.52284 74.11587 62.81936
# Shear Modulus (GPa) = 28.56428 34.44453 31.50441
#
# Velocity S-wave (km/s) = 3.58173 3.93316 3.76156
# Velocity P-wave (km/s) = 6.34390 7.34257 6.86143
#
# Compressibility (1/GPa) = 0.01940887
#
# Stress axis : x y z
#
# Youngs Moduli (GPa) = 150.68024 66.51917 88.87070
#
# Poissons Ratio (x) = 0.27648 0.30224
# Poissons Ratio (y) = 0.62629 -0.07116
# Poissons Ratio (z) = 0.51245 -0.05326
#
# Static dielectric constant tensor:
#      x y z
#    x 4.748660 0.000000 0.000000 
#    y 0.000000 3.931280 0.000000 
#    z 0.000000 0.000000 3.933380 
# 
# 
# High freq. dielectric constant tensor:
#      x y z
#    x 1.900230 0.000000 0.000000 
#    y 0.000000 1.857600 0.000000 
#    z 0.000000 0.000000 1.860440 
# 
# From -- ./inp_files/21724.got.cif
#   From: 2010.03.12/outbox.cif.g09.slc.cpg/sg64_11_cif.got.tgz:21724.got - 2010.04.10 20:19:32.
