data_PCOD8264471
_publ_section_title
;
Structure prediction by ZEFSAII (Michael W. Deem and Ramdas Pophale) SiO2 
 PCOD8264471
Probable space group: C M C A
;
_chemical_formula_sum "Si O2"
_cell_formula_units_Z 72
_cell_length_a 16.890163
_cell_length_b 25.476656
_cell_length_c 7.608683
_cell_angle_alpha 90.000000
_cell_angle_beta 90.000000
_cell_angle_gamma 90.000000
_cell_volume 3274.053368
_symmetry_space_group_name_H-M "C M C A"
_symmetry_group_IT_number 64
_symmetry_cell_setting 'orthorhombic'
loop_
_space_group_symop_operation_xyz
x,y,z
-x,1/2-y,1/2+z
x,-y,-z
-x,1/2+y,1/2-z
-x,-y,-z
x,1/2+y,1/2-z
-x,y,z
x,1/2-y,1/2+z
1/2+x,1/2+y,z
1/2-x,-y,1/2+z
1/2+x,1/2-y,-z
1/2-x,y,1/2-z
1/2-x,1/2-y,-z
1/2+x,y,1/2-z
1/2-x,1/2+y,z
1/2+x,-y,1/2+z
loop_
_atom_site_type_symbol
_atom_site_label
_atom_site_fract_x
_atom_site_fract_y
_atom_site_fract_z
Si Si1 0.731185 0.808883 0.550751
Si Si2 0.216095 0.000000 0.000000
Si Si3 0.087282 0.549393 0.701204
Si Si4 0.667876 0.403113 0.521796
Si Si5 0.088072 0.629197 0.384392
O O1 0.750000 0.818587 0.750000
O O2 0.750000 0.750000 0.500000
O O3 0.786992 0.850770 0.449400
O O4 0.638332 0.822653 0.530890
O O5 0.158950 0.992052 0.172597
O O6 0.267342 0.948784 0.959757
O O7 0.102309 0.582474 0.877309
O O8 0.086691 0.583775 0.526835
O O9 0.000000 0.522501 0.720637
O O10 0.624915 0.393685 0.706070
O O11 0.000000 0.650638 0.346861
#
# Coordination Sequence:
#
# PCOD8264471 Si02
#       5
#    16   8  16  16  16
#     4  10  23  41  69  97 128 175 226 278 336 405
#     4  12  25  40  67 102 136 178 230 276 335 412
#     4  11  25  42  66  96 134 177 220 278 337 398
#     4  11  25  43  67  96 134 180 228 276 335 410
#     4  10  23  45  66  97 136 170 223 280 333 397
#
# _framework density 21.991088999999999
#
# number of rings (size 3 to 8) (size 9 to 14) (size 15 to 20)
#    0.000    1.333    2.222    1.667    9.333    0.000 
#    0.000    6.667    0.000    0.000    0.000    0.000 
#    0.000    0.000    0.000    0.000    0.000    0.000 
#
# Total GULP energy -446200.249335 kJ/mol
# GULP energy per Si atom -12394.451370 kJ/mol
# Density = 2.194104 g / cm^3
# Si number density = 21.991089 Si / 1000 Ang^3
#
#
#
# Elastic Constant Matrix: (Units=GPa)
#
#
# Indices 1 2 3 4 5 6 
#
# 1 180.0908 57.7762 39.5840 0.0000 0.0000 0.0000
# 2 57.7762 124.7320 17.3561 0.0000 0.0000 0.0000
# 3 39.5840 17.3561 94.5831 0.0000 0.0000 0.0000
# 4 0.0000 0.0000 0.0000 28.9442 0.0000 0.0000
# 5 0.0000 0.0000 0.0000 0.0000 31.5408 0.0000
# 6 0.0000 0.0000 0.0000 0.0000 0.0000 10.6271
#
#
#
# Elastic Compliance Matrix: (Units=1/GPa)
#
#
# Indices 1 2 3 4 5 6 
#
# 1 0.007016 -0.002916 -0.002401 0.000000 0.000000 0.000000
# 2 -0.002916 0.009439 -0.000512 0.000000 0.000000 0.000000
# 3 -0.002401 -0.000512 0.011672 0.000000 0.000000 0.000000
# 4 0.000000 0.000000 0.000000 0.034549 0.000000 0.000000
# 5 0.000000 0.000000 0.000000 0.000000 0.031705 0.000000
# 6 0.000000 0.000000 0.000000 0.000000 0.000000 0.094099
#
#
# Mechanical properties :
#
#
# Convention : Reuss Voigt Hill
#
# Bulk Modulus (GPa) = 60.71998 69.87095 65.29547
# Shear Modulus (GPa) = 24.31585 33.20171 28.75878
#
# Velocity S-wave (km/s) = 3.32883 3.88980 3.62020
# Velocity P-wave (km/s) = 6.51506 7.21218 6.87246
#
# Compressibility (1/GPa) = 0.01646904
#
# Stress axis : x y z
#
# Youngs Moduli (GPa) = 142.53247 105.94390 85.67830
#
# Poissons Ratio (x) = 0.30890 0.20573
# Poissons Ratio (y) = 0.41558 0.04385
# Poissons Ratio (z) = 0.34225 0.05422
#
# Static dielectric constant tensor:
#      x y z
#    x 4.911880 0.000000 0.000000 
#    y 0.000000 3.514360 0.000000 
#    z 0.000000 0.000000 4.353040 
# 
# 
# High freq. dielectric constant tensor:
#      x y z
#    x 1.883370 0.000000 0.000000 
#    y 0.000000 1.842630 0.000000 
#    z 0.000000 0.000000 1.874190 
# 
# From -- ./inp_files/6883.got.cif
#   From: 2010.03.12/outbox.cif.g09.slc.cpg/sg64_4_cif.got.tgz:6883.got - 2010.04.10 20:19:32.
