data_PCOD8264199
_publ_section_title
;
Structure prediction by ZEFSAII (Michael W. Deem and Ramdas Pophale) SiO2 
 PCOD8264199
Probable space group: C M C A
;
_chemical_formula_sum "Si O2"
_cell_formula_units_Z 96
_cell_length_a 21.975599
_cell_length_b 9.795376
_cell_length_c 21.685788
_cell_angle_alpha 90.000000
_cell_angle_beta 90.000000
_cell_angle_gamma 90.000000
_cell_volume 4668.066570
_symmetry_space_group_name_H-M "C M C A"
_symmetry_group_IT_number 64
_symmetry_cell_setting 'orthorhombic'
loop_
_space_group_symop_operation_xyz
x,y,z
-x,1/2-y,1/2+z
x,-y,-z
-x,1/2+y,1/2-z
-x,-y,-z
x,1/2+y,1/2-z
-x,y,z
x,1/2-y,1/2+z
1/2+x,1/2+y,z
1/2-x,-y,1/2+z
1/2+x,1/2-y,-z
1/2-x,y,1/2-z
1/2-x,1/2-y,-z
1/2+x,y,1/2-z
1/2-x,1/2+y,z
1/2+x,-y,1/2+z
loop_
_atom_site_type_symbol
_atom_site_label
_atom_site_fract_x
_atom_site_fract_y
_atom_site_fract_z
Si Si1 0.569463 0.595164 0.051613
Si Si2 0.931162 0.932539 0.813189
Si Si3 0.122886 0.307977 0.266954
Si Si4 0.731608 0.316847 0.678288
Si Si5 0.179885 0.592191 0.850213
Si Si6 0.069362 0.401482 0.055650
O O1 0.500000 0.544255 0.058880
O O2 0.600426 0.583732 0.119425
O O3 0.573196 0.749916 0.028090
O O4 0.602097 0.500000 0.000000
O O5 0.928767 0.091706 0.793706
O O6 0.000000 0.883449 0.817553
O O7 0.900633 0.828931 0.765475
O O8 0.167294 0.263332 0.322422
O O9 0.159382 0.405436 0.220513
O O10 0.750000 0.338701 0.750000
O O11 0.780696 0.230014 0.638512
O O12 0.723203 0.460019 0.642486
O O13 0.119183 0.580281 0.891156
O O14 0.000000 0.429786 0.080658
O O15 0.086338 0.500000 0.000000
#
# Coordination Sequence:
#
# PCOD8264199 Si02
#       6
#    16  16  16  16  16  16
#     4   9  19  37  58  83 121 169 213 250 302 380
#     4  11  22  36  58  93 136 172 207 264 328 392
#     4  11  21  37  59  91 130 166 211 260 328 392
#     4  10  22  38  61  90 120 166 214 256 311 390
#     4  11  22  39  63  89 125 163 215 263 321 382
#     4  10  22  41  65  92 124 164 212 268 331 388
#
# _framework density 20.565259999999999
#
# number of rings (size 3 to 8) (size 9 to 14) (size 15 to 20)
#    0.000    1.667    3.333    2.000    2.333    2.000 
#    0.000    2.500    0.000    1.000    0.000    0.000 
#    0.000    0.000    0.000    0.000    0.000    0.000 
#
# Total GULP energy -594873.844618 kJ/mol
# GULP energy per Si atom -12393.205096 kJ/mol
# Density = 2.051845 g / cm^3
# Si number density = 20.565260 Si / 1000 Ang^3
#
#
#
# Elastic Constant Matrix: (Units=GPa)
#
#
# Indices 1 2 3 4 5 6 
#
# 1 91.7424 45.7367 30.8388 0.0000 0.0000 0.0000
# 2 45.7367 138.2311 47.8659 0.0000 0.0000 0.0000
# 3 30.8388 47.8659 62.9296 0.0000 0.0000 0.0000
# 4 0.0000 0.0000 0.0000 28.2265 0.0000 0.0000
# 5 0.0000 0.0000 0.0000 0.0000 24.2796 0.0000
# 6 0.0000 0.0000 0.0000 0.0000 0.0000 31.7943
#
#
#
# Elastic Compliance Matrix: (Units=1/GPa)
#
#
# Indices 1 2 3 4 5 6 
#
# 1 0.013936 -0.003049 -0.004510 0.000000 0.000000 0.000000
# 2 -0.003049 0.010488 -0.006483 0.000000 0.000000 0.000000
# 3 -0.004510 -0.006483 0.023032 0.000000 0.000000 0.000000
# 4 0.000000 0.000000 0.000000 0.035428 0.000000 0.000000
# 5 0.000000 0.000000 0.000000 0.000000 0.041187 0.000000
# 6 0.000000 0.000000 0.000000 0.000000 0.000000 0.031452
#
#
# Mechanical properties :
#
#
# Convention : Reuss Voigt Hill
#
# Bulk Modulus (GPa) = 51.62257 60.19843 55.91050
# Shear Modulus (GPa) = 26.30664 28.09086 27.19875
#
# Velocity S-wave (km/s) = 3.58044 3.69987 3.64064
# Velocity P-wave (km/s) = 6.49993 6.89837 6.70211
#
# Compressibility (1/GPa) = 0.01937137
#
# Stress axis : x y z
#
# Youngs Moduli (GPa) = 71.75468 95.34523 43.41740
#
# Poissons Ratio (x) = 0.29075 0.19582
# Poissons Ratio (y) = 0.21881 0.28148
# Poissons Ratio (z) = 0.32362 0.61814
#
# Static dielectric constant tensor:
#      x y z
#    x 3.740170 0.000000 0.000000 
#    y 0.000000 3.878820 0.000000 
#    z 0.000000 0.000000 3.489720 
# 
# 
# High freq. dielectric constant tensor:
#      x y z
#    x 1.794160 0.000000 0.000000 
#    y 0.000000 1.821670 0.000000 
#    z 0.000000 0.000000 1.764170 
# 
# From -- ./inp_files/50976.got.cif
#   From: 2010.03.12/outbox.cif.g09.slc.cpg/sg64_26_cif.got.tgz:50976.got - 2010.04.10 20:19:32.
