data_PCOD8264998
_publ_section_title
;
Structure prediction by ZEFSAII (Michael W. Deem and Ramdas Pophale) SiO2 
 PCOD8264998
Probable space group: C M C A
;
_chemical_formula_sum "Si O2"
_cell_formula_units_Z 96
_cell_length_a 15.136072
_cell_length_b 18.497767
_cell_length_c 16.236908
_cell_angle_alpha 90.000000
_cell_angle_beta 90.000000
_cell_angle_gamma 90.000000
_cell_volume 4546.066869
_symmetry_space_group_name_H-M "C M C A"
_symmetry_group_IT_number 64
_symmetry_cell_setting 'orthorhombic'
loop_
_space_group_symop_operation_xyz
x,y,z
-x,1/2-y,1/2+z
x,-y,-z
-x,1/2+y,1/2-z
-x,-y,-z
x,1/2+y,1/2-z
-x,y,z
x,1/2-y,1/2+z
1/2+x,1/2+y,z
1/2-x,-y,1/2+z
1/2+x,1/2-y,-z
1/2-x,y,1/2-z
1/2-x,1/2-y,-z
1/2+x,y,1/2-z
1/2-x,1/2+y,z
1/2+x,-y,1/2+z
loop_
_atom_site_type_symbol
_atom_site_label
_atom_site_fract_x
_atom_site_fract_y
_atom_site_fract_z
Si Si1 0.900582 0.720906 0.715974
Si Si2 0.603655 0.871324 0.130391
Si Si3 0.769679 0.917889 0.502365
Si Si4 0.099552 0.497737 0.240661
Si Si5 0.683831 0.130658 0.180117
Si Si6 0.398106 0.918903 0.395266
O O1 0.880652 0.697796 0.810361
O O2 0.837520 0.785409 0.688463
O O3 0.885467 0.654604 0.655237
O O4 0.000000 0.749647 0.709164
O O5 0.500000 0.877277 0.105253
O O6 0.643495 0.941948 0.176676
O O7 0.664762 0.865752 0.049762
O O8 0.772494 0.884465 0.592785
O O9 0.667517 0.916605 0.472866
O O10 0.805951 0.000000 0.500000
O O11 0.101812 0.578092 0.202527
O O12 0.133644 0.485250 0.334927
O O13 0.000000 0.469314 0.246655
O O14 0.750000 0.104351 0.250000
O O15 0.500000 0.927461 0.426348
#
# Coordination Sequence:
#
# PCOD8264998 Si02
#       6
#    16  16  16  16  16  16
#     4   9  21  43  65  88 123 172 213 253 319 389
#     4   9  20  39  65  95 124 164 210 259 322 386
#     4  12  24  39  65 101 129 165 214 273 327 373
#     4   9  18  37  64  90 123 165 209 262 320 382
#     4  12  25  38  58  94 131 166 213 266 323 385
#     4   9  21  42  68  92 123 171 219 259 316 389
#
# _framework density 21.117155
#
# number of rings (size 3 to 8) (size 9 to 14) (size 15 to 20)
#    0.000    2.000    1.667    3.500    2.333    4.000 
#    0.000    1.667    0.000    0.000    0.000    0.000 
#    0.000    0.000    0.000    0.000    0.000    0.000 
#
# Total GULP energy -594910.401102 kJ/mol
# GULP energy per Si atom -12393.966690 kJ/mol
# Density = 2.106909 g / cm^3
# Si number density = 21.117155 Si / 1000 Ang^3
#
#
#
# Elastic Constant Matrix: (Units=GPa)
#
#
# Indices 1 2 3 4 5 6 
#
# 1 91.4461 25.4945 66.4356 0.0000 0.0000 0.0000
# 2 25.4945 90.2162 46.4927 0.0000 0.0000 0.0000
# 3 66.4356 46.4927 155.2685 0.0000 0.0000 0.0000
# 4 0.0000 0.0000 0.0000 27.3152 0.0000 0.0000
# 5 0.0000 0.0000 0.0000 0.0000 30.2126 0.0000
# 6 0.0000 0.0000 0.0000 0.0000 0.0000 24.3318
#
#
#
# Elastic Compliance Matrix: (Units=1/GPa)
#
#
# Indices 1 2 3 4 5 6 
#
# 1 0.015972 -0.001173 -0.006483 0.000000 0.000000 0.000000
# 2 -0.001173 0.013193 -0.003449 0.000000 0.000000 0.000000
# 3 -0.006483 -0.003449 0.010247 0.000000 0.000000 0.000000
# 4 0.000000 0.000000 0.000000 0.036610 0.000000 0.000000
# 5 0.000000 0.000000 0.000000 0.000000 0.033099 0.000000
# 6 0.000000 0.000000 0.000000 0.000000 0.000000 0.041098
#
#
# Mechanical properties :
#
#
# Convention : Reuss Voigt Hill
#
# Bulk Modulus (GPa) = 58.12716 68.19738 63.16227
# Shear Modulus (GPa) = 28.06427 29.60581 28.83504
#
# Velocity S-wave (km/s) = 3.64947 3.74836 3.69925
# Velocity P-wave (km/s) = 6.73379 7.14832 6.94415
#
# Compressibility (1/GPa) = 0.01720366
#
# Stress axis : x y z
#
# Youngs Moduli (GPa) = 62.60869 75.79684 97.58921
#
# Poissons Ratio (x) = 0.08888 0.63267
# Poissons Ratio (y) = 0.07342 0.33656
# Poissons Ratio (z) = 0.40589 0.26140
#
# Static dielectric constant tensor:
#      x y z
#    x 3.736180 0.000000 0.000000 
#    y 0.000000 3.551990 0.000000 
#    z 0.000000 0.000000 3.789270 
# 
# 
# High freq. dielectric constant tensor:
#      x y z
#    x 1.827110 0.000000 0.000000 
#    y 0.000000 1.816340 0.000000 
#    z 0.000000 0.000000 1.823760 
# 
# From -- ./inp_files/23950.got.cif
#   From: 2010.03.12/outbox.cif.g09.slc.cpg/sg64_12_cif.got.tgz:23950.got - 2010.04.10 20:19:32.
