data_PCOD8264129
_publ_section_title
;
Structure prediction by ZEFSAII (Michael W. Deem and Ramdas Pophale) SiO2 
 PCOD8264129
Probable space group: C M C A
;
_chemical_formula_sum "Si O2"
_cell_formula_units_Z 112
_cell_length_a 16.041165
_cell_length_b 11.261471
_cell_length_c 27.782530
_cell_angle_alpha 90.000000
_cell_angle_beta 90.000000
_cell_angle_gamma 90.000000
_cell_volume 5018.833877
_symmetry_space_group_name_H-M "C M C A"
_symmetry_group_IT_number 64
_symmetry_cell_setting 'orthorhombic'
loop_
_space_group_symop_operation_xyz
x,y,z
-x,1/2-y,1/2+z
x,-y,-z
-x,1/2+y,1/2-z
-x,-y,-z
x,1/2+y,1/2-z
-x,y,z
x,1/2-y,1/2+z
1/2+x,1/2+y,z
1/2-x,-y,1/2+z
1/2+x,1/2-y,-z
1/2-x,y,1/2-z
1/2-x,1/2-y,-z
1/2+x,y,1/2-z
1/2-x,1/2+y,z
1/2+x,-y,1/2+z
loop_
_atom_site_type_symbol
_atom_site_label
_atom_site_fract_x
_atom_site_fract_y
_atom_site_fract_z
Si Si1 0.169562 0.106406 0.339013
Si Si2 0.909079 0.805559 0.915358
Si Si3 0.097102 0.322428 0.743665
Si Si4 0.599592 0.192096 0.603151
Si Si5 0.306685 0.366441 0.006077
Si Si6 0.096923 0.855598 0.336706
Si Si7 0.642023 0.977369 0.661377
O O1 0.155560 0.182546 0.290594
O O2 0.137269 0.177505 0.385874
O O3 0.262988 0.063486 0.346926
O O4 0.110728 0.993382 0.331835
O O5 0.862819 0.695747 0.886992
O O6 0.916829 0.910138 0.876358
O O7 0.000000 0.763723 0.932023
O O8 0.868056 0.856811 0.962060
O O9 0.131540 0.216420 0.709425
O O10 0.111619 0.447539 0.715433
O O11 0.000000 0.308603 0.758275
O O12 0.500000 0.198087 0.596903
O O13 0.642374 0.139338 0.555612
O O14 0.627986 0.115623 0.649873
O O15 0.264581 0.500000 0.000000
O O16 0.250000 0.250000 0.000000
O O17 0.000000 0.824686 0.339429
#
# Coordination Sequence:
#
# PCOD8264129 Si02
#       7
#    16  16  16  16  16  16  16
#     4  12  26  42  67 100 145 181 232 295 361 421
#     4  10  21  43  71  95 127 176 227 279 345 423
#     4  10  22  43  68  94 132 185 234 280 347 429
#     4  12  27  45  71 106 143 185 239 296 356 434
#     4  12  27  45  74 106 144 186 238 301 367 432
#     4   9  21  41  68  95 133 179 229 283 352 427
#     4  11  24  41  67  99 134 175 229 294 348 413
#
# _framework density 22.315939
#
# number of rings (size 3 to 8) (size 9 to 14) (size 15 to 20)
#    0.000    1.143    1.429    5.143    8.000    0.571 
#    0.000    0.000    0.000    3.429    0.000    0.000 
#    0.000    0.000    0.000    0.000    0.000    0.000 
#
# Total GULP energy -694025.572657 kJ/mol
# GULP energy per Si atom -12393.313797 kJ/mol
# Density = 2.226515 g / cm^3
# Si number density = 22.315939 Si / 1000 Ang^3
#
#
#
# Elastic Constant Matrix: (Units=GPa)
#
#
# Indices 1 2 3 4 5 6 
#
# 1 83.6969 28.5491 5.5320 0.0000 0.0000 0.0000
# 2 28.5491 132.5790 29.8343 0.0000 0.0000 0.0000
# 3 5.5320 29.8343 86.0002 0.0000 0.0000 0.0000
# 4 0.0000 0.0000 0.0000 28.6530 0.0000 0.0000
# 5 0.0000 0.0000 0.0000 0.0000 13.8572 0.0000
# 6 0.0000 0.0000 0.0000 0.0000 0.0000 27.7388
#
#
#
# Elastic Compliance Matrix: (Units=1/GPa)
#
#
# Indices 1 2 3 4 5 6 
#
# 1 0.012897 -0.002810 0.000145 0.000000 0.000000 0.000000
# 2 -0.002810 0.008794 -0.002870 0.000000 0.000000 0.000000
# 3 0.000145 -0.002870 0.012614 0.000000 0.000000 0.000000
# 4 0.000000 0.000000 0.000000 0.034900 0.000000 0.000000
# 5 0.000000 0.000000 0.000000 0.000000 0.072164 0.000000
# 6 0.000000 0.000000 0.000000 0.000000 0.000000 0.036051
#
#
# Mechanical properties :
#
#
# Convention : Reuss Voigt Hill
#
# Bulk Modulus (GPa) = 43.03773 47.78967 45.41370
# Shear Modulus (GPa) = 25.47982 29.94052 27.71017
#
# Velocity S-wave (km/s) = 3.38268 3.66685 3.52763
# Velocity P-wave (km/s) = 5.88084 6.27608 6.08167
#
# Compressibility (1/GPa) = 0.02323543
#
# Stress axis : x y z
#
# Youngs Moduli (GPa) = 77.53914 113.72006 79.27626
#
# Poissons Ratio (x) = 0.31953 -0.01151
# Poissons Ratio (y) = 0.21787 0.22751
# Poissons Ratio (z) = -0.01126 0.32636
#
# Static dielectric constant tensor:
#      x y z
#    x 3.948910 0.000000 0.000000 
#    y 0.000000 4.212970 0.000000 
#    z 0.000000 0.000000 4.247320 
# 
# 
# High freq. dielectric constant tensor:
#      x y z
#    x 1.869030 0.000000 0.000000 
#    y 0.000000 1.883690 0.000000 
#    z 0.000000 0.000000 1.883520 
# 
# From -- ./inp_files/53286.got.cif
#   From: 2010.03.12/outbox.cif.g09.slc.cpg/sg64_27_cif.got.tgz:53286.got - 2010.04.10 20:19:32.
