data_PCOD8264837
_publ_section_title
;
Structure prediction by ZEFSAII (Michael W. Deem and Ramdas Pophale) SiO2 
 PCOD8264837
Probable space group: C M C A
;
_chemical_formula_sum "Si O2"
_cell_formula_units_Z 80
_cell_length_a 14.414701
_cell_length_b 20.180938
_cell_length_c 13.545240
_cell_angle_alpha 90.000000
_cell_angle_beta 90.000000
_cell_angle_gamma 90.000000
_cell_volume 3940.339942
_symmetry_space_group_name_H-M "C M C A"
_symmetry_group_IT_number 64
_symmetry_cell_setting 'orthorhombic'
loop_
_space_group_symop_operation_xyz
x,y,z
-x,1/2-y,1/2+z
x,-y,-z
-x,1/2+y,1/2-z
-x,-y,-z
x,1/2+y,1/2-z
-x,y,z
x,1/2-y,1/2+z
1/2+x,1/2+y,z
1/2-x,-y,1/2+z
1/2+x,1/2-y,-z
1/2-x,y,1/2-z
1/2-x,1/2-y,-z
1/2+x,y,1/2-z
1/2-x,1/2+y,z
1/2+x,-y,1/2+z
loop_
_atom_site_type_symbol
_atom_site_label
_atom_site_fract_x
_atom_site_fract_y
_atom_site_fract_z
Si Si1 0.500000 0.737812 0.260919
Si Si2 0.801122 0.735672 0.153342
Si Si3 0.134928 0.926621 0.029151
Si Si4 0.500000 0.954213 0.310947
Si Si5 0.695483 0.847475 0.039519
Si Si6 0.000000 0.892949 0.869155
Si Si7 0.000000 0.864222 0.371473
O O1 0.590714 0.750600 0.327380
O O2 0.500000 0.664199 0.213578
O O3 0.500000 0.792088 0.176083
O O4 0.750000 0.706587 0.250000
O O5 0.743712 0.800627 0.121061
O O6 0.796893 0.681852 0.068777
O O7 0.243890 0.914183 0.038072
O O8 0.088334 0.919342 0.136657
O O9 0.088799 0.882318 0.941723
O O10 0.110588 0.000000 0.000000
O O11 0.500000 0.928134 0.199176
O O12 0.500000 0.034905 0.314383
O O13 0.590925 0.867994 0.061132
#
# Coordination Sequence:
#
# PCOD8264837 Si02
#       7
#     8  16  16   8  16   8   8
#     4  12  22  38  62  91 122 164 205 254 309 382
#     4  11  23  40  60  89 127 161 207 255 320 372
#     4   9  19  39  64  89 118 164 215 256 308 376
#     4   9  20  39  64  91 124 166 208 260 308 387
#     4  11  24  40  61  92 126 162 208 266 310 377
#     4   9  20  39  64  93 124 162 211 255 318 378
#     4  12  24  40  61  94 129 165 212 256 325 367
#
# _framework density 20.302817999999998
#
# number of rings (size 3 to 8) (size 9 to 14) (size 15 to 20)
#    0.000    1.600    2.000    4.200    2.800    0.800 
#    3.600    0.500    0.000    0.000    0.000    0.000 
#    0.000    0.000    0.000    0.000    0.000    0.000 
#
# Total GULP energy -495818.554193 kJ/mol
# GULP energy per Si atom -12395.463855 kJ/mol
# Density = 2.025661 g / cm^3
# Si number density = 20.302818 Si / 1000 Ang^3
#
#
#
# Elastic Constant Matrix: (Units=GPa)
#
#
# Indices 1 2 3 4 5 6 
#
# 1 183.1215 22.5190 45.7422 0.0000 0.0000 0.0000
# 2 22.5190 52.9489 26.1011 0.0000 0.0000 0.0000
# 3 45.7422 26.1011 100.2746 0.0000 0.0000 0.0000
# 4 0.0000 0.0000 0.0000 15.6100 0.0000 0.0000
# 5 0.0000 0.0000 0.0000 0.0000 32.5581 0.0000
# 6 0.0000 0.0000 0.0000 0.0000 0.0000 28.4180
#
#
#
# Elastic Compliance Matrix: (Units=1/GPa)
#
#
# Indices 1 2 3 4 5 6 
#
# 1 0.006257 -0.001439 -0.002480 0.000000 0.000000 0.000000
# 2 -0.001439 0.021997 -0.005069 0.000000 0.000000 0.000000
# 3 -0.002480 -0.005069 0.012423 0.000000 0.000000 0.000000
# 4 0.000000 0.000000 0.000000 0.064062 0.000000 0.000000
# 5 0.000000 0.000000 0.000000 0.000000 0.030714 0.000000
# 6 0.000000 0.000000 0.000000 0.000000 0.000000 0.035189
#
#
# Mechanical properties :
#
#
# Convention : Reuss Voigt Hill
#
# Bulk Modulus (GPa) = 44.04978 58.34106 51.19542
# Shear Modulus (GPa) = 25.48605 31.44940 28.46773
#
# Velocity S-wave (km/s) = 3.54686 3.94002 3.74860
# Velocity P-wave (km/s) = 6.20622 7.03536 6.63375
#
# Compressibility (1/GPa) = 0.02270159
#
# Stress axis : x y z
#
# Youngs Moduli (GPa) = 159.81516 45.46078 80.49329
#
# Poissons Ratio (x) = 0.06541 0.19961
# Poissons Ratio (y) = 0.22993 0.40805
# Poissons Ratio (z) = 0.39632 0.23046
#
# Static dielectric constant tensor:
#      x y z
#    x 4.206260 0.000000 0.000000 
#    y 0.000000 3.417330 0.000000 
#    z 0.000000 0.000000 3.690860 
# 
# 
# High freq. dielectric constant tensor:
#      x y z
#    x 1.806300 0.000000 0.000000 
#    y 0.000000 1.775810 0.000000 
#    z 0.000000 0.000000 1.792760 
# 
# From -- ./inp_files/14529.got.cif
#   From: 2010.03.12/outbox.cif.g09.slc.cpg/sg64_8_cif.got.tgz:14529.got - 2010.04.10 20:19:32.
