data_PCOD8264430
_publ_section_title
;
Structure prediction by ZEFSAII (Michael W. Deem and Ramdas Pophale) SiO2 
 PCOD8264430
Probable space group: C M C A
;
_chemical_formula_sum "Si O2"
_cell_formula_units_Z 64
_cell_length_a 23.169621
_cell_length_b 4.952984
_cell_length_c 26.345429
_cell_angle_alpha 90.000000
_cell_angle_beta 90.000000
_cell_angle_gamma 90.000000
_cell_volume 3023.368819
_symmetry_space_group_name_H-M "C M C A"
_symmetry_group_IT_number 64
_symmetry_cell_setting 'orthorhombic'
loop_
_space_group_symop_operation_xyz
x,y,z
-x,1/2-y,1/2+z
x,-y,-z
-x,1/2+y,1/2-z
-x,-y,-z
x,1/2+y,1/2-z
-x,y,z
x,1/2-y,1/2+z
1/2+x,1/2+y,z
1/2-x,-y,1/2+z
1/2+x,1/2-y,-z
1/2-x,y,1/2-z
1/2-x,1/2-y,-z
1/2+x,y,1/2-z
1/2-x,1/2+y,z
1/2+x,-y,1/2+z
loop_
_atom_site_type_symbol
_atom_site_label
_atom_site_fract_x
_atom_site_fract_y
_atom_site_fract_z
Si Si1 0.409071 0.662188 0.367663
Si Si2 0.711521 0.821913 0.901344
Si Si3 0.435644 0.170992 0.432446
Si Si4 0.647169 0.500000 0.500000
Si Si5 0.000000 0.696859 0.215855
O O1 0.339840 0.636360 0.360014
O O2 0.434183 0.375081 0.384884
O O3 0.442190 0.750767 0.316920
O O4 0.418476 0.875105 0.413088
O O5 0.735415 0.522978 0.892569
O O6 0.687414 0.863285 0.957957
O O7 0.500000 0.161784 0.455252
O O8 0.392208 0.263212 0.476449
O O9 0.000000 0.393276 0.236237
#
# Coordination Sequence:
#
# PCOD8264430 Si02
#       5
#    16  16  16   8   8
#     4  11  23  41  62  92 122 159 201 248 321 372
#     4  11  23  40  60  84 126 172 213 253 281 340
#     4  11  20  37  57  85 132 168 201 253 300 366
#     4  10  23  34  58  92 122 175 226 254 284 330
#     4  12  24  42  72  97 120 143 188 262 324 392
#
# _framework density 21.16844
#
# number of rings (size 3 to 8) (size 9 to 14) (size 15 to 20)
#    0.000    1.000    2.500    5.625    0.000    8.000 
#    0.000    6.250    0.000    4.500    0.000    0.000 
#    0.000    0.000    0.000    0.000    0.000    0.000 
#
# Total GULP energy -396908.771118 kJ/mol
# GULP energy per Si atom -12403.399097 kJ/mol
# Density = 2.112026 g / cm^3
# Si number density = 21.168440 Si / 1000 Ang^3
#
#
#
# Elastic Constant Matrix: (Units=GPa)
#
#
# Indices 1 2 3 4 5 6 
#
# 1 143.0273 11.9096 37.8690 0.0000 0.0000 0.0000
# 2 11.9096 59.5021 3.0044 0.0000 0.0000 0.0000
# 3 37.8690 3.0044 75.8536 0.0000 0.0000 0.0000
# 4 0.0000 0.0000 0.0000 33.7083 0.0000 0.0000
# 5 0.0000 0.0000 0.0000 0.0000 11.5384 0.0000
# 6 0.0000 0.0000 0.0000 0.0000 0.0000 11.6847
#
#
#
# Elastic Compliance Matrix: (Units=1/GPa)
#
#
# Indices 1 2 3 4 5 6 
#
# 1 0.008177 -0.001433 -0.004025 0.000000 0.000000 0.000000
# 2 -0.001433 0.017091 0.000039 0.000000 0.000000 0.000000
# 3 -0.004025 0.000039 0.015191 0.000000 0.000000 0.000000
# 4 0.000000 0.000000 0.000000 0.029666 0.000000 0.000000
# 5 0.000000 0.000000 0.000000 0.000000 0.086667 0.000000
# 6 0.000000 0.000000 0.000000 0.000000 0.000000 0.085582
#
#
# Mechanical properties :
#
#
# Convention : Reuss Voigt Hill
#
# Bulk Modulus (GPa) = 33.76209 42.66102 38.21155
# Shear Modulus (GPa) = 19.00504 26.42627 22.71566
#
# Velocity S-wave (km/s) = 2.99958 3.53708 3.27936
# Velocity P-wave (km/s) = 5.28966 6.07273 5.69467
#
# Compressibility (1/GPa) = 0.02961902
#
# Stress axis : x y z
#
# Youngs Moduli (GPa) = 122.29688 58.51012 65.82673
#
# Poissons Ratio (x) = 0.08387 0.26498
# Poissons Ratio (y) = 0.17530 -0.00254
# Poissons Ratio (z) = 0.49230 -0.00226
#
# Static dielectric constant tensor:
#      x y z
#    x 4.141140 0.000000 0.000000 
#    y 0.000000 3.900610 0.000000 
#    z 0.000000 0.000000 3.445250 
# 
# 
# High freq. dielectric constant tensor:
#      x y z
#    x 1.848890 0.000000 0.000000 
#    y 0.000000 1.850300 0.000000 
#    z 0.000000 0.000000 1.780490 
# 
# From -- ./inp_files/46540.got.cif
#   From: 2010.03.12/outbox.cif.g09.slc.cpg/sg64_24_cif.got.tgz:46540.got - 2010.04.10 20:19:32.
