data_PCOD8264951
_publ_section_title
;
Structure prediction by ZEFSAII (Michael W. Deem and Ramdas Pophale) SiO2 
 PCOD8264951
Probable space group: C M C A
;
_chemical_formula_sum "Si O2"
_cell_formula_units_Z 80
_cell_length_a 29.087657
_cell_length_b 11.837429
_cell_length_c 11.782298
_cell_angle_alpha 90.000000
_cell_angle_beta 90.000000
_cell_angle_gamma 90.000000
_cell_volume 4056.917072
_symmetry_space_group_name_H-M "C M C A"
_symmetry_group_IT_number 64
_symmetry_cell_setting 'orthorhombic'
loop_
_space_group_symop_operation_xyz
x,y,z
-x,1/2-y,1/2+z
x,-y,-z
-x,1/2+y,1/2-z
-x,-y,-z
x,1/2+y,1/2-z
-x,y,z
x,1/2-y,1/2+z
1/2+x,1/2+y,z
1/2-x,-y,1/2+z
1/2+x,1/2-y,-z
1/2-x,y,1/2-z
1/2-x,1/2-y,-z
1/2+x,y,1/2-z
1/2-x,1/2+y,z
1/2+x,-y,1/2+z
loop_
_atom_site_type_symbol
_atom_site_label
_atom_site_fract_x
_atom_site_fract_y
_atom_site_fract_z
Si Si1 0.292113 0.674018 0.034291
Si Si2 0.554332 0.591670 0.591618
Si Si3 0.893116 0.684490 0.467527
Si Si4 0.292744 0.522703 0.819316
Si Si5 0.606405 0.535390 0.815926
O O1 0.341331 0.736234 0.047188
O O2 0.280758 0.608080 0.151380
O O3 0.250000 0.750000 0.000000
O O4 0.299887 0.584457 0.936591
O O5 0.571428 0.500000 0.500000
O O6 0.500000 0.599001 0.594919
O O7 0.572163 0.714788 0.556733
O O8 0.570687 0.552885 0.715401
O O9 0.901658 0.584689 0.376840
O O10 0.900762 0.637076 0.594460
O O11 0.250000 0.575430 0.750000
O O12 0.342261 0.535171 0.758452
#
# Coordination Sequence:
#
# PCOD8264951 Si02
#       5
#    16  16  16  16  16
#     4   9  19  35  54  83 119 153 196 236 283 352
#     4  11  26  42  62  95 125 153 202 260 314 368
#     4   9  21  43  65  87 121 166 205 250 307 365
#     4   9  19  35  54  83 119 153 195 236 283 350
#     4   9  21  43  65  86 122 165 205 250 303 367
#
# _framework density 19.719408000000001
#
# number of rings (size 3 to 8) (size 9 to 14) (size 15 to 20)
#    0.000    2.600    0.000    2.400    5.600    4.000 
#    7.200    2.000    0.000    0.000    0.000    0.000 
#    0.000    0.000    0.000    0.000    0.000    0.000 
#
# Total GULP energy -495680.617218 kJ/mol
# GULP energy per Si atom -12392.015430 kJ/mol
# Density = 1.967453 g / cm^3
# Si number density = 19.719408 Si / 1000 Ang^3
#
#
#
# Elastic Constant Matrix: (Units=GPa)
#
#
# Indices 1 2 3 4 5 6 
#
# 1 104.7407 52.0286 47.4363 0.0000 0.0000 0.0000
# 2 52.0286 92.5385 36.3073 0.0000 0.0000 0.0000
# 3 47.4363 36.3073 94.4509 0.0000 0.0000 0.0000
# 4 0.0000 0.0000 0.0000 17.5250 0.0000 0.0000
# 5 0.0000 0.0000 0.0000 0.0000 35.9516 0.0000
# 6 0.0000 0.0000 0.0000 0.0000 0.0000 32.9799
#
#
#
# Elastic Compliance Matrix: (Units=1/GPa)
#
#
# Indices 1 2 3 4 5 6 
#
# 1 0.015064 -0.006478 -0.005075 0.000000 0.000000 0.000000
# 2 -0.006478 0.015512 -0.002709 0.000000 0.000000 0.000000
# 3 -0.005075 -0.002709 0.014178 0.000000 0.000000 0.000000
# 4 0.000000 0.000000 0.000000 0.057061 0.000000 0.000000
# 5 0.000000 0.000000 0.000000 0.000000 0.027815 0.000000
# 6 0.000000 0.000000 0.000000 0.000000 0.000000 0.030321
#
#
# Mechanical properties :
#
#
# Convention : Reuss Voigt Hill
#
# Bulk Modulus (GPa) = 61.62185 62.58607 62.10396
# Shear Modulus (GPa) = 25.78834 27.68850 26.73842
#
# Velocity S-wave (km/s) = 3.62023 3.75123 3.68631
# Velocity P-wave (km/s) = 6.98512 7.11122 7.04845
#
# Compressibility (1/GPa) = 0.01622801
#
# Stress axis : x y z
#
# Youngs Moduli (GPa) = 66.38368 64.46817 70.53229
#
# Poissons Ratio (x) = 0.41764 0.35798
# Poissons Ratio (y) = 0.43005 0.19108
# Poissons Ratio (z) = 0.33692 0.17465
#
# Static dielectric constant tensor:
#      x y z
#    x 3.951690 0.000000 0.000000 
#    y 0.000000 3.147800 0.000000 
#    z 0.000000 0.000000 3.534300 
# 
# 
# High freq. dielectric constant tensor:
#      x y z
#    x 1.773150 0.000000 0.000000 
#    y 0.000000 1.762520 0.000000 
#    z 0.000000 0.000000 1.764440 
# 
# From -- ./inp_files/19606.got.cif
#   From: 2010.03.12/outbox.cif.g09.slc.cpg/sg64_10_cif.got.tgz:19606.got - 2010.04.10 20:19:32.
