data_PCOD8264928
_publ_section_title
;
Structure prediction by ZEFSAII (Michael W. Deem and Ramdas Pophale) SiO2 
 PCOD8264928
Probable space group: C M C A
;
_chemical_formula_sum "Si O2"
_cell_formula_units_Z 40
_cell_length_a 10.592745
_cell_length_b 11.300835
_cell_length_c 13.677126
_cell_angle_alpha 90.000000
_cell_angle_beta 90.000000
_cell_angle_gamma 90.000000
_cell_volume 1637.245854
_symmetry_space_group_name_H-M "C M C A"
_symmetry_group_IT_number 64
_symmetry_cell_setting 'orthorhombic'
loop_
_space_group_symop_operation_xyz
x,y,z
-x,1/2-y,1/2+z
x,-y,-z
-x,1/2+y,1/2-z
-x,-y,-z
x,1/2+y,1/2-z
-x,y,z
x,1/2-y,1/2+z
1/2+x,1/2+y,z
1/2-x,-y,1/2+z
1/2+x,1/2-y,-z
1/2-x,y,1/2-z
1/2-x,1/2-y,-z
1/2+x,y,1/2-z
1/2-x,1/2+y,z
1/2+x,-y,1/2+z
loop_
_atom_site_type_symbol
_atom_site_label
_atom_site_fract_x
_atom_site_fract_y
_atom_site_fract_z
Si Si1 0.500000 0.014183 0.163872
Si Si2 0.000000 0.811836 0.482893
Si Si3 0.141346 0.888960 0.057968
Si Si4 0.750000 0.551087 0.750000
O O1 0.373622 0.030157 0.229174
O O2 0.500000 0.107065 0.077751
O O3 0.500000 0.881221 0.118305
O O4 0.127305 0.729980 0.491160
O O5 0.223714 0.866713 0.155227
O O6 0.000000 0.927591 0.091460
O O7 0.204796 0.000000 0.000000
#
# Coordination Sequence:
#
# PCOD8264928 Si02
#       4
#     8   8  16   8
#     4  11  25  43  66 101 138 170 237 267 347 387
#     4   9  22  47  69  97 130 190 217 286 325 415
#     4   9  21  47  68  94 136 180 221 270 344 392
#     4  12  24  46  66 106 134 180 226 284 324 412
#
# _framework density 24.431273000000001
#
# number of rings (size 3 to 8) (size 9 to 14) (size 15 to 20)
#    1.200    0.800    2.000    0.000    5.600    3.200 
#   14.400    0.000    0.000    0.000    0.000    0.000 
#    0.000    0.000    0.000    0.000    0.000    0.000 
#
# Total GULP energy -247779.880824 kJ/mol
# GULP energy per Si atom -12388.994041 kJ/mol
# Density = 2.437567 g / cm^3
# Si number density = 24.431273 Si / 1000 Ang^3
#
#
#
# Elastic Constant Matrix: (Units=GPa)
#
#
# Indices 1 2 3 4 5 6 
#
# 1 129.2688 8.3553 33.5546 0.0000 0.0000 0.0000
# 2 8.3553 113.2198 35.4981 0.0000 0.0000 0.0000
# 3 33.5546 35.4981 102.8589 0.0000 0.0000 0.0000
# 4 0.0000 0.0000 0.0000 29.0454 0.0000 0.0000
# 5 0.0000 0.0000 0.0000 0.0000 50.0767 0.0000
# 6 0.0000 0.0000 0.0000 0.0000 0.0000 -52.5658
#
#
#
# Elastic Compliance Matrix: (Units=1/GPa)
#
#
# Indices 1 2 3 4 5 6 
#
# 1 0.008459 0.000270 -0.002853 0.000000 0.000000 0.000000
# 2 0.000270 0.009913 -0.003509 0.000000 0.000000 0.000000
# 3 -0.002853 -0.003509 0.011864 0.000000 0.000000 0.000000
# 4 0.000000 0.000000 0.000000 0.034429 0.000000 0.000000
# 5 0.000000 0.000000 0.000000 0.000000 0.019969 0.000000
# 6 0.000000 0.000000 0.000000 0.000000 0.000000 -0.019024
#
#
# Mechanical properties :
#
#
# Convention : Reuss Voigt Hill
#
# Bulk Modulus (GPa) = 55.39578 55.57372 55.48475
# Shear Modulus (GPa) = 59.65859 23.17389 41.41624
#
# Velocity S-wave (km/s) = 4.94691 3.08317 4.12176
# Velocity P-wave (km/s) = 7.43993 5.95575 6.73883
#
# Compressibility (1/GPa) = 0.01805192
#
# Stress axis : x y z
#
# Youngs Moduli (GPa) = 118.21958 100.88098 84.29070
#
# Poissons Ratio (x) = -0.02725 0.24045
# Poissons Ratio (y) = -0.03194 0.29579
# Poissons Ratio (z) = 0.33724 0.35401
#
# Static dielectric constant tensor:
#      x y z
#    x 4.581560 0.000000 0.000000 
#    y 0.000000 4.052310 0.000000 
#    z 0.000000 0.000000 4.181370 
# 
# 
# High freq. dielectric constant tensor:
#      x y z
#    x 1.990370 0.000000 0.000000 
#    y 0.000000 1.931350 0.000000 
#    z 0.000000 0.000000 1.962490 
# 
# From -- ./inp_files/12477.got.cif
#   From: 2010.03.12/outbox.cif.g09.slc.cpg/sg64_7_cif.got.tgz:12477.got - 2010.04.10 20:19:32.
