data_PCOD8264784
_publ_section_title
;
Structure prediction by ZEFSAII (Michael W. Deem and Ramdas Pophale) SiO2 
 PCOD8264784
Probable space group: C M C A
;
_chemical_formula_sum "Si O2"
_cell_formula_units_Z 80
_cell_length_a 8.285827
_cell_length_b 18.294200
_cell_length_c 25.164573
_cell_angle_alpha 90.000000
_cell_angle_beta 90.000000
_cell_angle_gamma 90.000000
_cell_volume 3814.510807
_symmetry_space_group_name_H-M "C M C A"
_symmetry_group_IT_number 64
_symmetry_cell_setting 'orthorhombic'
loop_
_space_group_symop_operation_xyz
x,y,z
-x,1/2-y,1/2+z
x,-y,-z
-x,1/2+y,1/2-z
-x,-y,-z
x,1/2+y,1/2-z
-x,y,z
x,1/2-y,1/2+z
1/2+x,1/2+y,z
1/2-x,-y,1/2+z
1/2+x,1/2-y,-z
1/2-x,y,1/2-z
1/2-x,1/2-y,-z
1/2+x,y,1/2-z
1/2-x,1/2+y,z
1/2+x,-y,1/2+z
loop_
_atom_site_type_symbol
_atom_site_label
_atom_site_fract_x
_atom_site_fract_y
_atom_site_fract_z
Si Si1 0.813920 0.831372 0.004057
Si Si2 0.313593 0.824830 0.306200
Si Si3 0.187670 0.832418 0.808597
Si Si4 0.313432 0.915139 0.906519
Si Si5 0.813776 0.581630 0.898422
O O1 0.710932 0.873456 0.047920
O O2 0.000000 0.830873 0.021262
O O3 0.750000 0.750000 0.000000
O O4 0.795609 0.870465 0.947538
O O5 0.500000 0.803361 0.300591
O O6 0.250000 0.855570 0.250000
O O7 0.216499 0.752337 0.323042
O O8 0.291511 0.886312 0.350523
O O9 0.250000 0.850242 0.750000
O O10 0.287436 0.883714 0.847929
O O11 0.000000 0.850710 0.813665
O O12 0.500000 0.907552 0.922954
O O13 0.256947 0.998997 0.908250
O O14 0.000000 0.584696 0.881535
#
# Coordination Sequence:
#
# PCOD8264784 Si02
#       5
#    16  16  16  16  16
#     4  12  25  42  65  91 121 157 201 248 297 356
#     4  11  22  39  63  90 122 159 203 250 298 354
#     4  11  22  39  63  90 122 159 203 250 298 354
#     4  11  24  42  63  89 123 160 199 246 301 358
#     4  11  24  42  63  89 123 160 199 246 301 358
#
# _framework density 20.972546000000001
#
# number of rings (size 3 to 8) (size 9 to 14) (size 15 to 20)
#    0.000    0.800    0.000    9.600    0.000    6.400 
#    0.000    0.000    0.000    0.000    0.000    0.000 
#    0.000    0.000    0.000    0.000    0.000    0.000 
#
# Total GULP energy -496381.985280 kJ/mol
# GULP energy per Si atom -12409.549632 kJ/mol
# Density = 2.092481 g / cm^3
# Si number density = 20.972546 Si / 1000 Ang^3
#
#
#
# Elastic Constant Matrix: (Units=GPa)
#
#
# Indices 1 2 3 4 5 6 
#
# 1 73.1872 15.2850 12.4137 0.0000 0.0000 0.0000
# 2 15.2850 143.2444 70.1009 0.0000 0.0000 0.0000
# 3 12.4137 70.1009 116.7629 0.0000 0.0000 0.0000
# 4 0.0000 0.0000 0.0000 -1.2022 0.0000 0.0000
# 5 0.0000 0.0000 0.0000 0.0000 38.1095 0.0000
# 6 0.0000 0.0000 0.0000 0.0000 0.0000 24.1105
#
#
#
# Elastic Compliance Matrix: (Units=1/GPa)
#
#
# Indices 1 2 3 4 5 6 
#
# 1 0.014033 -0.001087 -0.000840 0.000000 0.000000 0.000000
# 2 -0.001087 0.009970 -0.005870 0.000000 0.000000 0.000000
# 3 -0.000840 -0.005870 0.012178 0.000000 0.000000 0.000000
# 4 0.000000 0.000000 0.000000 -0.831813 0.000000 0.000000
# 5 0.000000 0.000000 0.000000 0.000000 0.026240 0.000000
# 6 0.000000 0.000000 0.000000 0.000000 0.000000 0.041476
#
#
# Mechanical properties :
#
#
# Convention : Reuss Voigt Hill
#
# Bulk Modulus (GPa) = 48.57154 58.75484 53.66319
# Shear Modulus (GPa) = -7.08755 27.89656 10.40450
#
# Velocity S-wave (km/s) = -1.84032 3.65107 2.22975
# Velocity P-wave (km/s) = 4.32367 6.77124 5.68084
#
# Compressibility (1/GPa) = 0.02058819
#
# Stress axis : x y z
#
# Youngs Moduli (GPa) = 71.26104 100.30444 82.11682
#
# Poissons Ratio (x) = 0.10898 0.06895
# Poissons Ratio (y) = 0.07743 0.48202
# Poissons Ratio (z) = 0.05983 0.58878
#
# Static dielectric constant tensor:
#      x y z
#    x 3.785250 0.000000 0.000000 
#    y 0.000000 3.850060 0.000000 
#    z 0.000000 0.000000 3.827810 
# 
# 
# High freq. dielectric constant tensor:
#      x y z
#    x 1.834550 0.000000 0.000000 
#    y 0.000000 1.823370 0.000000 
#    z 0.000000 0.000000 1.833050 
# 
# From -- ./inp_files/29776.got.cif
#   From: 2010.03.12/outbox.cif.g09.slc.cpg/sg64_15_cif.got.tgz:29776.got - 2010.04.10 20:19:32.
