data_PCOD8264598
_publ_section_title
;
Structure prediction by ZEFSAII (Michael W. Deem and Ramdas Pophale) SiO2 
 PCOD8264598
Probable space group: C M C A
;
_chemical_formula_sum "Si O2"
_cell_formula_units_Z 64
_cell_length_a 17.943870
_cell_length_b 18.238657
_cell_length_c 9.428520
_cell_angle_alpha 90.000000
_cell_angle_beta 90.000000
_cell_angle_gamma 90.000000
_cell_volume 3085.691448
_symmetry_space_group_name_H-M "C M C A"
_symmetry_group_IT_number 64
_symmetry_cell_setting 'orthorhombic'
loop_
_space_group_symop_operation_xyz
x,y,z
-x,1/2-y,1/2+z
x,-y,-z
-x,1/2+y,1/2-z
-x,-y,-z
x,1/2+y,1/2-z
-x,y,z
x,1/2-y,1/2+z
1/2+x,1/2+y,z
1/2-x,-y,1/2+z
1/2+x,1/2-y,-z
1/2-x,y,1/2-z
1/2-x,1/2-y,-z
1/2+x,y,1/2-z
1/2-x,1/2+y,z
1/2+x,-y,1/2+z
loop_
_atom_site_type_symbol
_atom_site_label
_atom_site_fract_x
_atom_site_fract_y
_atom_site_fract_z
Si Si1 0.326814 0.791200 0.531036
Si Si2 0.187192 0.452418 0.639807
Si Si3 0.088575 0.186258 0.739713
Si Si4 0.087297 0.975586 0.349414
O O1 0.250000 0.750000 0.500000
O O2 0.307303 0.867145 0.606167
O O3 0.373055 0.804576 0.390164
O O4 0.380177 0.746416 0.633922
O O5 0.195715 0.500000 0.500000
O O6 0.250000 0.477163 0.750000
O O7 0.110368 0.471419 0.720053
O O8 0.112043 0.107439 0.679437
O O9 0.000000 0.195151 0.755685
O O10 0.000000 0.982792 0.359641
O O11 0.123467 0.000000 0.500000
#
# Coordination Sequence:
#
# PCOD8264598 Si02
#       4
#    16  16  16  16
#     4  12  27  46  68 103 141 181 232 287 348 417
#     4  12  26  44  70 100 135 181 229 284 348 415
#     4  11  25  46  71 101 139 185 231 285 347 415
#     4  10  24  45  71 102 138 179 228 285 345 413
#
# _framework density 20.740894999999998
#
# number of rings (size 3 to 8) (size 9 to 14) (size 15 to 20)
#    0.000    0.750    2.500    3.750   10.500    2.500 
#    0.000    0.000    0.000    0.000    0.000    0.000 
#    0.000    0.000    0.000    0.000    0.000    0.000 
#
# Total GULP energy -396945.147469 kJ/mol
# GULP energy per Si atom -12404.535858 kJ/mol
# Density = 2.069369 g / cm^3
# Si number density = 20.740895 Si / 1000 Ang^3
#
#
#
# Elastic Constant Matrix: (Units=GPa)
#
#
# Indices 1 2 3 4 5 6 
#
# 1 48.5279 39.1854 44.1022 0.0000 0.0000 0.0000
# 2 39.1854 138.3385 64.1625 0.0000 0.0000 0.0000
# 3 44.1022 64.1625 176.1174 0.0000 0.0000 0.0000
# 4 0.0000 0.0000 0.0000 53.1122 0.0000 0.0000
# 5 0.0000 0.0000 0.0000 0.0000 44.2723 0.0000
# 6 0.0000 0.0000 0.0000 0.0000 0.0000 33.0307
#
#
#
# Elastic Compliance Matrix: (Units=1/GPa)
#
#
# Indices 1 2 3 4 5 6 
#
# 1 0.030455 -0.006124 -0.005395 0.000000 0.000000 0.000000
# 2 -0.006124 0.009930 -0.002084 0.000000 0.000000 0.000000
# 3 -0.005395 -0.002084 0.007788 0.000000 0.000000 0.000000
# 4 0.000000 0.000000 0.000000 0.018828 0.000000 0.000000
# 5 0.000000 0.000000 0.000000 0.000000 0.022587 0.000000
# 6 0.000000 0.000000 0.000000 0.000000 0.000000 0.030275
#
#
# Mechanical properties :
#
#
# Convention : Reuss Voigt Hill
#
# Bulk Modulus (GPa) = 47.69553 73.09826 60.39689
# Shear Modulus (GPa) = 32.45494 40.45195 36.45344
#
# Velocity S-wave (km/s) = 3.96002 4.42106 4.19688
# Velocity P-wave (km/s) = 6.62984 7.83461 7.25727
#
# Compressibility (1/GPa) = 0.02096633
#
# Stress axis : x y z
#
# Youngs Moduli (GPa) = 32.83519 100.70490 128.39746
#
# Poissons Ratio (x) = 0.61675 0.69273
# Poissons Ratio (y) = 0.20109 0.26759
# Poissons Ratio (z) = 0.17715 0.20987
#
# Static dielectric constant tensor:
#      x y z
#    x 3.740860 0.000000 0.000000 
#    y 0.000000 3.989620 0.000000 
#    z 0.000000 0.000000 4.201810 
# 
# 
# High freq. dielectric constant tensor:
#      x y z
#    x 1.822380 0.000000 0.000000 
#    y 0.000000 1.824940 0.000000 
#    z 0.000000 0.000000 1.837230 
# 
# From -- ./inp_files/6587.got.cif
#   From: 2010.03.12/outbox.cif.g09.slc.cpg/sg64_4_cif.got.tgz:6587.got - 2010.04.10 20:19:32.
