data_PCOD8264246
_publ_section_title
;
Structure prediction by ZEFSAII (Michael W. Deem and Ramdas Pophale) SiO2 
 PCOD8264246
Probable space group: C M C A
;
_chemical_formula_sum "Si O2"
_cell_formula_units_Z 72
_cell_length_a 15.130347
_cell_length_b 21.922728
_cell_length_c 11.122268
_cell_angle_alpha 90.000000
_cell_angle_beta 90.000000
_cell_angle_gamma 90.000000
_cell_volume 3689.239410
_symmetry_space_group_name_H-M "C M C A"
_symmetry_group_IT_number 64
_symmetry_cell_setting 'orthorhombic'
loop_
_space_group_symop_operation_xyz
x,y,z
-x,1/2-y,1/2+z
x,-y,-z
-x,1/2+y,1/2-z
-x,-y,-z
x,1/2+y,1/2-z
-x,y,z
x,1/2-y,1/2+z
1/2+x,1/2+y,z
1/2-x,-y,1/2+z
1/2+x,1/2-y,-z
1/2-x,y,1/2-z
1/2-x,1/2-y,-z
1/2+x,y,1/2-z
1/2-x,1/2+y,z
1/2+x,-y,1/2+z
loop_
_atom_site_type_symbol
_atom_site_label
_atom_site_fract_x
_atom_site_fract_y
_atom_site_fract_z
Si Si1 0.000000 0.363983 0.594148
Si Si2 0.000000 0.284398 0.360729
Si Si3 0.358698 0.072594 0.996715
Si Si4 0.851004 0.861059 0.246969
Si Si5 0.000000 0.647129 0.134988
Si Si6 0.157596 0.430117 0.493770
O O1 0.000000 0.335896 0.725087
O O2 0.090404 0.401695 0.588019
O O3 0.000000 0.315615 0.489205
O O4 0.914107 0.303140 0.280858
O O5 0.000000 0.215920 0.412652
O O6 0.379559 0.102574 0.866945
O O7 0.257529 0.084824 0.032399
O O8 0.414984 0.108427 0.095451
O O9 0.380817 0.000000 0.000000
O O10 0.750000 0.836869 0.250000
O O11 0.862550 0.909901 0.141685
O O12 0.137891 0.500000 0.500000
#
# Coordination Sequence:
#
# PCOD8264246 Si02
#       6
#     8   8  16  16   8  16
#     4  10  23  39  57  90 120 154 206 232 297 349
#     4  10  23  43  59  82 117 165 199 247 283 354
#     4  10  22  39  62  93 122 153 194 247 306 351
#     4   9  19  39  64  87 116 158 199 240 298 352
#     4  12  26  38  59  88 120 159 197 248 294 341
#     4   9  19  38  64  89 120 154 192 243 296 360
#
# _framework density 19.516217999999999
#
# number of rings (size 3 to 8) (size 9 to 14) (size 15 to 20)
#    0.000    2.222    0.000    1.333    6.222    0.889 
#    4.000    3.333    0.000    0.000    0.000    0.000 
#    0.000    0.000    0.000    0.000    0.000    0.000 
#
# Total GULP energy -446197.148754 kJ/mol
# GULP energy per Si atom -12394.365243 kJ/mol
# Density = 1.947180 g / cm^3
# Si number density = 19.516218 Si / 1000 Ang^3
#
#
#
# Elastic Constant Matrix: (Units=GPa)
#
#
# Indices 1 2 3 4 5 6 
#
# 1 116.3102 67.6918 39.1603 0.0000 0.0000 0.0000
# 2 67.6918 120.9267 25.6727 0.0000 0.0000 0.0000
# 3 39.1603 25.6727 80.7922 0.0000 0.0000 0.0000
# 4 0.0000 0.0000 0.0000 23.8650 0.0000 0.0000
# 5 0.0000 0.0000 0.0000 0.0000 19.7154 0.0000
# 6 0.0000 0.0000 0.0000 0.0000 0.0000 1.5849
#
#
#
# Elastic Compliance Matrix: (Units=1/GPa)
#
#
# Indices 1 2 3 4 5 6 
#
# 1 0.014233 -0.006973 -0.004683 0.000000 0.000000 0.000000
# 2 -0.006973 0.012284 -0.000524 0.000000 0.000000 0.000000
# 3 -0.004683 -0.000524 0.014814 0.000000 0.000000 0.000000
# 4 0.000000 0.000000 0.000000 0.041902 0.000000 0.000000
# 5 0.000000 0.000000 0.000000 0.000000 0.050722 0.000000
# 6 0.000000 0.000000 0.000000 0.000000 0.000000 0.630951
#
#
# Mechanical properties :
#
#
# Convention : Reuss Voigt Hill
#
# Bulk Modulus (GPa) = 58.92259 64.78654 61.85457
# Shear Modulus (GPa) = 6.28994 21.40000 13.84497
#
# Velocity S-wave (km/s) = 1.79720 3.31497 2.66636
# Velocity P-wave (km/s) = 5.87909 6.92245 6.42200
#
# Compressibility (1/GPa) = 0.01697142
#
# Stress axis : x y z
#
# Youngs Moduli (GPa) = 70.26166 81.40767 67.50555
#
# Poissons Ratio (x) = 0.56764 0.31612
# Poissons Ratio (y) = 0.48992 0.03534
# Poissons Ratio (z) = 0.32902 0.04262
#
# Static dielectric constant tensor:
#      x y z
#    x 3.597210 0.000000 0.000000 
#    y 0.000000 3.528190 0.000000 
#    z 0.000000 0.000000 3.523610 
# 
# 
# High freq. dielectric constant tensor:
#      x y z
#    x 1.776340 0.000000 0.000000 
#    y 0.000000 1.751030 0.000000 
#    z 0.000000 0.000000 1.760540 
# 
# From -- ./inp_files/14394.got.cif
#   From: 2010.03.12/outbox.cif.g09.slc.cpg/sg64_8_cif.got.tgz:14394.got - 2010.04.10 20:19:32.
