data_PCOD8264866
_publ_section_title
;
Structure prediction by ZEFSAII (Michael W. Deem and Ramdas Pophale) SiO2 
 PCOD8264866
Probable space group: C M C A
;
_chemical_formula_sum "Si O2"
_cell_formula_units_Z 48
_cell_length_a 17.371642
_cell_length_b 7.526524
_cell_length_c 14.507507
_cell_angle_alpha 90.000000
_cell_angle_beta 90.000000
_cell_angle_gamma 90.000000
_cell_volume 1896.828692
_symmetry_space_group_name_H-M "C M C A"
_symmetry_group_IT_number 64
_symmetry_cell_setting 'orthorhombic'
loop_
_space_group_symop_operation_xyz
x,y,z
-x,1/2-y,1/2+z
x,-y,-z
-x,1/2+y,1/2-z
-x,-y,-z
x,1/2+y,1/2-z
-x,y,z
x,1/2-y,1/2+z
1/2+x,1/2+y,z
1/2-x,-y,1/2+z
1/2+x,1/2-y,-z
1/2-x,y,1/2-z
1/2-x,1/2-y,-z
1/2+x,y,1/2-z
1/2-x,1/2+y,z
1/2+x,-y,1/2+z
loop_
_atom_site_type_symbol
_atom_site_label
_atom_site_fract_x
_atom_site_fract_y
_atom_site_fract_z
Si Si1 0.089121 0.157310 0.119598
Si Si2 0.155215 0.304018 0.417546
Si Si3 0.301320 0.058560 0.838270
O O1 0.138255 0.285075 0.187058
O O2 0.000000 0.199730 0.131811
O O3 0.106647 0.950746 0.141428
O O4 0.117257 0.207076 0.017189
O O5 0.244201 0.372184 0.419942
O O6 0.150319 0.112491 0.369766
O O7 0.250000 0.011308 0.750000
#
# Coordination Sequence:
#
# PCOD8264866 Si02
#       3
#    16  16  16
#     4  11  26  46  73 108 144 185 242 305 358 416
#     4  11  23  42  74 105 139 191 245 295 346 427
#     4  12  25  42  74 105 142 194 246 289 358 435
#
# _framework density 25.305392999999999
#
# number of rings (size 3 to 8) (size 9 to 14) (size 15 to 20)
#    0.000    0.667    3.333    5.000    4.667    5.333 
#    0.000    3.333    0.000    0.000    0.000    0.000 
#    0.000    0.000    0.000    0.000    0.000    0.000 
#
# Total GULP energy -297586.198735 kJ/mol
# GULP energy per Si atom -12399.424947 kJ/mol
# Density = 2.524780 g / cm^3
# Si number density = 25.305393 Si / 1000 Ang^3
#
#
#
# Elastic Constant Matrix: (Units=GPa)
#
#
# Indices 1 2 3 4 5 6 
#
# 1 163.4121 24.5012 7.2080 0.0000 0.0000 0.0000
# 2 24.5012 133.9506 19.7277 0.0000 0.0000 0.0000
# 3 7.2080 19.7277 32.3204 0.0000 0.0000 0.0000
# 4 0.0000 0.0000 0.0000 30.0070 0.0000 0.0000
# 5 0.0000 0.0000 0.0000 0.0000 21.0259 0.0000
# 6 0.0000 0.0000 0.0000 0.0000 0.0000 36.0323
#
#
#
# Elastic Compliance Matrix: (Units=1/GPa)
#
#
# Indices 1 2 3 4 5 6 
#
# 1 0.006310 -0.001040 -0.000772 0.000000 0.000000 0.000000
# 2 -0.001040 0.008374 -0.004880 0.000000 0.000000 0.000000
# 3 -0.000772 -0.004880 0.034091 0.000000 0.000000 0.000000
# 4 0.000000 0.000000 0.000000 0.033326 0.000000 0.000000
# 5 0.000000 0.000000 0.000000 0.000000 0.047560 0.000000
# 6 0.000000 0.000000 0.000000 0.000000 0.000000 0.027753
#
#
# Mechanical properties :
#
#
# Convention : Reuss Voigt Hill
#
# Bulk Modulus (GPa) = 28.25604 48.06188 38.15896
# Shear Modulus (GPa) = 27.38310 35.96279 31.67295
#
# Velocity S-wave (km/s) = 3.29311 3.77391 3.54167
# Velocity P-wave (km/s) = 5.06455 6.16634 5.64240
#
# Compressibility (1/GPa) = 0.03539067
#
# Stress axis : x y z
#
# Youngs Moduli (GPa) = 158.49001 119.41196 29.33345
#
# Poissons Ratio (x) = 0.12423 0.02265
# Poissons Ratio (y) = 0.16489 0.14313
# Poissons Ratio (z) = 0.12237 0.58267
#
# Static dielectric constant tensor:
#      x y z
#    x 4.528490 0.000000 0.000000 
#    y 0.000000 5.007480 0.000000 
#    z 0.000000 0.000000 4.413900 
# 
# 
# High freq. dielectric constant tensor:
#      x y z
#    x 1.988010 0.000000 0.000000 
#    y 0.000000 2.033150 0.000000 
#    z 0.000000 0.000000 2.001000 
# 
# From -- ./inp_files/31441.got.cif
#   From: 2010.03.12/outbox.cif.g09.slc.cpg/sg64_16_cif.got.tgz:31441.got - 2010.04.10 20:19:32.
