data_PCOD8264650
_publ_section_title
;
Structure prediction by ZEFSAII (Michael W. Deem and Ramdas Pophale) SiO2 
 PCOD8264650
Probable space group: C M C A
;
_chemical_formula_sum "Si O2"
_cell_formula_units_Z 80
_cell_length_a 10.112223
_cell_length_b 20.862442
_cell_length_c 20.341372
_cell_angle_alpha 90.000000
_cell_angle_beta 90.000000
_cell_angle_gamma 90.000000
_cell_volume 4291.331088
_symmetry_space_group_name_H-M "C M C A"
_symmetry_group_IT_number 64
_symmetry_cell_setting 'orthorhombic'
loop_
_space_group_symop_operation_xyz
x,y,z
-x,1/2-y,1/2+z
x,-y,-z
-x,1/2+y,1/2-z
-x,-y,-z
x,1/2+y,1/2-z
-x,y,z
x,1/2-y,1/2+z
1/2+x,1/2+y,z
1/2-x,-y,1/2+z
1/2+x,1/2-y,-z
1/2-x,y,1/2-z
1/2-x,1/2-y,-z
1/2+x,y,1/2-z
1/2-x,1/2+y,z
1/2+x,-y,1/2+z
loop_
_atom_site_type_symbol
_atom_site_label
_atom_site_fract_x
_atom_site_fract_y
_atom_site_fract_z
Si Si1 0.339070 0.659045 0.187426
Si Si2 0.500000 0.391803 0.513976
Si Si3 0.000000 0.103790 0.016963
Si Si4 0.000000 0.989440 0.101801
Si Si5 0.500000 0.017042 0.902386
Si Si6 0.759208 0.812977 0.955958
Si Si7 0.741973 0.988155 0.676961
O O1 0.500000 0.664129 0.200805
O O2 0.250000 0.684342 0.250000
O O3 0.299014 0.699123 0.121159
O O4 0.292484 0.586820 0.174180
O O5 0.500000 0.411797 0.436374
O O6 0.500000 0.460851 0.545630
O O7 0.375752 0.351442 0.537711
O O8 0.871407 0.146142 0.008974
O O9 0.000000 0.066336 0.086633
O O10 0.000000 0.049970 0.963406
O O11 0.871691 0.970871 0.142626
O O12 0.624613 0.007550 0.857050
O O13 0.750000 0.750000 0.000000
O O14 0.750000 0.013785 0.750000
#
# Coordination Sequence:
#
# PCOD8264650 Si02
#       7
#    16   8   8   8   8  16  16
#     4  11  23  39  60  90 125 155 202 257 310 358
#     4  11  23  36  58  89 120 160 191 247 315 352
#     4  11  21  38  58  87 116 156 195 241 313 350
#     4  11  19  36  60  81 120 150 191 249 299 376
#     4  11  21  36  54  87 128 148 193 247 303 382
#     4  12  23  40  62  90 122 157 209 255 295 360
#     4  11  20  32  55  85 121 153 194 247 306 360
#
# _framework density 18.642233999999998
#
# number of rings (size 3 to 8) (size 9 to 14) (size 15 to 20)
#    0.000    0.800    6.000    2.400    5.600    3.200 
#    0.000    0.000    0.000    7.200    0.000    0.000 
#    0.000    0.000    0.000    0.000    0.000    0.000 
#
# Total GULP energy -495640.998112 kJ/mol
# GULP energy per Si atom -12391.024953 kJ/mol
# Density = 1.859980 g / cm^3
# Si number density = 18.642234 Si / 1000 Ang^3
#
#
#
# Elastic Constant Matrix: (Units=GPa)
#
#
# Indices 1 2 3 4 5 6 
#
# 1 190.8586 39.1408 69.2077 0.0000 0.0000 0.0000
# 2 39.1408 52.7867 38.7818 0.0000 0.0000 0.0000
# 3 69.2077 38.7818 134.3281 0.0000 0.0000 0.0000
# 4 0.0000 0.0000 0.0000 21.9427 0.0000 0.0000
# 5 0.0000 0.0000 0.0000 0.0000 38.3149 0.0000
# 6 0.0000 0.0000 0.0000 0.0000 0.0000 74.3756
#
#
#
# Elastic Compliance Matrix: (Units=1/GPa)
#
#
# Indices 1 2 3 4 5 6 
#
# 1 0.006832 -0.003147 -0.002611 0.000000 0.000000 0.000000
# 2 -0.003147 0.025494 -0.005739 0.000000 0.000000 0.000000
# 3 -0.002611 -0.005739 0.010447 0.000000 0.000000 0.000000
# 4 0.000000 0.000000 0.000000 0.045573 0.000000 0.000000
# 5 0.000000 0.000000 0.000000 0.000000 0.026100 0.000000
# 6 0.000000 0.000000 0.000000 0.000000 0.000000 0.013445
#
#
# Mechanical properties :
#
#
# Convention : Reuss Voigt Hill
#
# Bulk Modulus (GPa) = 50.56158 74.69267 62.62712
# Shear Modulus (GPa) = 31.75050 42.31618 37.03334
#
# Velocity S-wave (km/s) = 4.13140 4.76953 4.46188
# Velocity P-wave (km/s) = 7.06675 8.39551 7.75962
#
# Compressibility (1/GPa) = 0.01977786
#
# Stress axis : x y z
#
# Youngs Moduli (GPa) = 146.37524 39.22475 95.72456
#
# Poissons Ratio (x) = 0.12345 0.24995
# Poissons Ratio (y) = 0.46068 0.54935
# Poissons Ratio (z) = 0.38221 0.22511
#
# Static dielectric constant tensor:
#      x y z
#    x 4.059230 0.000000 0.000000 
#    y 0.000000 3.043700 0.000000 
#    z 0.000000 0.000000 4.318840 
# 
# 
# High freq. dielectric constant tensor:
#      x y z
#    x 1.751430 0.000000 0.000000 
#    y 0.000000 1.676780 0.000000 
#    z 0.000000 0.000000 1.739490 
# 
# From -- ./inp_files/36746.got.cif
#   From: 2010.03.12/outbox.cif.g09.slc.cpg/sg64_19_cif.got.tgz:36746.got - 2010.04.10 20:19:32.
