data_PCOD8264925
_publ_section_title
;
Structure prediction by ZEFSAII (Michael W. Deem and Ramdas Pophale) SiO2 
 PCOD8264925
Probable space group: C M C A
;
_chemical_formula_sum "Si O2"
_cell_formula_units_Z 80
_cell_length_a 24.673562
_cell_length_b 17.616673
_cell_length_c 8.541379
_cell_angle_alpha 90.000000
_cell_angle_beta 90.000000
_cell_angle_gamma 90.000000
_cell_volume 3712.647672
_symmetry_space_group_name_H-M "C M C A"
_symmetry_group_IT_number 64
_symmetry_cell_setting 'orthorhombic'
loop_
_space_group_symop_operation_xyz
x,y,z
-x,1/2-y,1/2+z
x,-y,-z
-x,1/2+y,1/2-z
-x,-y,-z
x,1/2+y,1/2-z
-x,y,z
x,1/2-y,1/2+z
1/2+x,1/2+y,z
1/2-x,-y,1/2+z
1/2+x,1/2-y,-z
1/2-x,y,1/2-z
1/2-x,1/2-y,-z
1/2+x,y,1/2-z
1/2-x,1/2+y,z
1/2+x,-y,1/2+z
loop_
_atom_site_type_symbol
_atom_site_label
_atom_site_fract_x
_atom_site_fract_y
_atom_site_fract_z
Si Si1 0.353661 0.044965 0.151093
Si Si2 0.060644 0.046855 0.842128
Si Si3 0.674696 0.180019 0.996112
Si Si4 0.273736 0.076124 0.432705
Si Si5 0.148519 0.160585 0.860909
O O1 0.299443 0.060061 0.258592
O O2 0.404430 0.003929 0.224426
O O3 0.370514 0.128255 0.084974
O O4 0.332554 0.000000 0.000000
O O5 0.085961 0.131853 0.856859
O O6 0.000000 0.057135 0.775351
O O7 0.058785 0.000000 0.000000
O O8 0.672833 0.171821 0.810085
O O9 0.733938 0.150330 0.054468
O O10 0.659307 0.265443 0.036565
O O11 0.323470 0.090607 0.550798
O O12 0.245899 0.000000 0.500000
#
# Coordination Sequence:
#
# PCOD8264925 Si02
#       5
#    16  16  16  16  16
#     4  12  22  44  70 106 139 181 236 287 338 420
#     4  11  24  48  79 101 129 179 236 298 356 400
#     4  12  27  39  69  98 145 186 229 274 356 413
#     4  12  23  42  67 101 142 193 225 276 337 417
#     4  12  24  48  64 102 145 184 232 292 338 421
#
# _framework density 21.547964
#
# number of rings (size 3 to 8) (size 9 to 14) (size 15 to 20)
#    0.000    0.200    6.000    3.600    0.000    3.600 
#    0.000    2.000    0.000    0.000    0.000    0.000 
#    0.000    0.000    0.000    0.000    0.000    0.000 
#
# Total GULP energy -495546.485739 kJ/mol
# GULP energy per Si atom -12388.662143 kJ/mol
# Density = 2.149892 g / cm^3
# Si number density = 21.547964 Si / 1000 Ang^3
#
#
#
# Elastic Constant Matrix: (Units=GPa)
#
#
# Indices 1 2 3 4 5 6 
#
# 1 159.6354 47.7735 48.9638 0.0000 0.0000 0.0000
# 2 47.7735 107.1751 34.1800 0.0000 0.0000 0.0000
# 3 48.9638 34.1800 150.7750 0.0000 0.0000 0.0000
# 4 0.0000 0.0000 0.0000 42.3613 0.0000 0.0000
# 5 0.0000 0.0000 0.0000 0.0000 17.9390 0.0000
# 6 0.0000 0.0000 0.0000 0.0000 0.0000 43.9045
#
#
#
# Elastic Compliance Matrix: (Units=1/GPa)
#
#
# Indices 1 2 3 4 5 6 
#
# 1 0.007680 -0.002833 -0.001852 0.000000 0.000000 0.000000
# 2 -0.002833 0.011103 -0.001597 0.000000 0.000000 0.000000
# 3 -0.001852 -0.001597 0.007596 0.000000 0.000000 0.000000
# 4 0.000000 0.000000 0.000000 0.023606 0.000000 0.000000
# 5 0.000000 0.000000 0.000000 0.000000 0.055744 0.000000
# 6 0.000000 0.000000 0.000000 0.000000 0.000000 0.022777
#
#
# Mechanical properties :
#
#
# Convention : Reuss Voigt Hill
#
# Bulk Modulus (GPa) = 72.38441 75.49111 73.93776
# Shear Modulus (GPa) = 34.32313 39.95218 37.13765
#
# Velocity S-wave (km/s) = 3.99541 4.31060 4.15599
# Velocity P-wave (km/s) = 7.41280 7.73855 7.57742
#
# Compressibility (1/GPa) = 0.01381513
#
# Stress axis : x y z
#
# Youngs Moduli (GPa) = 130.20737 90.06946 131.65144
#
# Poissons Ratio (x) = 0.25515 0.24380
# Poissons Ratio (y) = 0.36885 0.21024
# Poissons Ratio (z) = 0.24113 0.14384
#
# Static dielectric constant tensor:
#      x y z
#    x 3.970770 0.000000 0.000000 
#    y 0.000000 4.133290 0.000000 
#    z 0.000000 0.000000 4.236130 
# 
# 
# High freq. dielectric constant tensor:
#      x y z
#    x 1.824350 0.000000 0.000000 
#    y 0.000000 1.853580 0.000000 
#    z 0.000000 0.000000 1.873980 
# 
# From -- ./inp_files/10222.got.cif
#   From: 2010.03.12/outbox.cif.g09.slc.cpg/sg64_6_cif.got.tgz:10222.got - 2010.04.10 20:19:32.
