data_PCOD8264953
_publ_section_title
;
Structure prediction by ZEFSAII (Michael W. Deem and Ramdas Pophale) SiO2 
 PCOD8264953
Probable space group: C M C A
;
_chemical_formula_sum "Si O2"
_cell_formula_units_Z 48
_cell_length_a 18.626094
_cell_length_b 20.669397
_cell_length_c 5.189110
_cell_angle_alpha 90.000000
_cell_angle_beta 90.000000
_cell_angle_gamma 90.000000
_cell_volume 1997.756141
_symmetry_space_group_name_H-M "C M C A"
_symmetry_group_IT_number 64
_symmetry_cell_setting 'orthorhombic'
loop_
_space_group_symop_operation_xyz
x,y,z
-x,1/2-y,1/2+z
x,-y,-z
-x,1/2+y,1/2-z
-x,-y,-z
x,1/2+y,1/2-z
-x,y,z
x,1/2-y,1/2+z
1/2+x,1/2+y,z
1/2-x,-y,1/2+z
1/2+x,1/2-y,-z
1/2-x,y,1/2-z
1/2-x,1/2-y,-z
1/2+x,y,1/2-z
1/2-x,1/2+y,z
1/2+x,-y,1/2+z
loop_
_atom_site_type_symbol
_atom_site_label
_atom_site_fract_x
_atom_site_fract_y
_atom_site_fract_z
Si Si1 0.378374 0.377979 0.074124
Si Si2 0.750000 0.793867 0.250000
Si Si3 0.500000 0.456850 0.256391
Si Si4 0.500000 0.793157 0.642394
Si Si5 0.705279 0.500000 0.000000
O O1 0.321615 0.336639 0.237792
O O2 0.430766 0.411152 0.280411
O O3 0.427025 0.335393 0.879700
O O4 0.340458 0.436600 0.917356
O O5 0.750000 0.750000 0.500000
O O6 0.500000 0.500000 0.500000
O O7 0.500000 0.500000 0.000000
O O8 0.500000 0.761399 0.922234
O O9 0.750000 0.520314 0.750000
#
# Coordination Sequence:
#
# PCOD8264953 Si02
#       5
#    16   8   8   8   8
#     4  11  26  47  75 103 146 186 238 301 356 427
#     4  12  28  46  72 104 142 192 244 292 356 426
#     4  11  26  43  70 108 142 183 235 288 366 430
#     4  11  26  48  73 102 140 191 241 288 350 422
#     4  12  28  45  74 113 144 186 236 302 374 427
#
# _framework density 24.026958
#
# number of rings (size 3 to 8) (size 9 to 14) (size 15 to 20)
#    0.000    0.667    3.333    2.000    4.667   10.667 
#    0.000    0.000    0.000    0.000    0.000    0.000 
#    0.000    0.000    0.000    0.000    0.000    0.000 
#
# Total GULP energy -297606.825059 kJ/mol
# GULP energy per Si atom -12400.284377 kJ/mol
# Density = 2.397227 g / cm^3
# Si number density = 24.026958 Si / 1000 Ang^3
#
#
#
# Elastic Constant Matrix: (Units=GPa)
#
#
# Indices 1 2 3 4 5 6 
#
# 1 172.1980 75.1954 33.7327 0.0000 0.0000 0.0000
# 2 75.1954 161.6244 43.9322 0.0000 0.0000 0.0000
# 3 33.7327 43.9322 107.8929 0.0000 0.0000 0.0000
# 4 0.0000 0.0000 0.0000 43.1495 0.0000 0.0000
# 5 0.0000 0.0000 0.0000 0.0000 10.3271 0.0000
# 6 0.0000 0.0000 0.0000 0.0000 0.0000 48.5173
#
#
#
# Elastic Compliance Matrix: (Units=1/GPa)
#
#
# Indices 1 2 3 4 5 6 
#
# 1 0.007387 -0.003159 -0.001023 0.000000 0.000000 0.000000
# 2 -0.003159 0.008308 -0.002395 0.000000 0.000000 0.000000
# 3 -0.001023 -0.002395 0.010564 0.000000 0.000000 0.000000
# 4 0.000000 0.000000 0.000000 0.023175 0.000000 0.000000
# 5 0.000000 0.000000 0.000000 0.000000 0.096833 0.000000
# 6 0.000000 0.000000 0.000000 0.000000 0.000000 0.020611
#
#
# Mechanical properties :
#
#
# Convention : Reuss Voigt Hill
#
# Bulk Modulus (GPa) = 76.31268 83.04842 79.68055
# Shear Modulus (GPa) = 27.11492 39.65578 33.38535
#
# Velocity S-wave (km/s) = 3.36299 4.06701 3.73164
# Velocity P-wave (km/s) = 6.84908 7.52953 7.19735
#
# Compressibility (1/GPa) = 0.01310398
#
# Stress axis : x y z
#
# Youngs Moduli (GPa) = 135.37180 120.36878 94.66351
#
# Poissons Ratio (x) = 0.38020 0.09688
# Poissons Ratio (y) = 0.42759 0.22674
# Poissons Ratio (z) = 0.13854 0.28831
#
# Static dielectric constant tensor:
#      x y z
#    x 4.896690 0.000000 0.000000 
#    y 0.000000 4.867700 0.000000 
#    z 0.000000 0.000000 3.640850 
# 
# 
# High freq. dielectric constant tensor:
#      x y z
#    x 1.979310 0.000000 0.000000 
#    y 0.000000 1.985020 0.000000 
#    z 0.000000 0.000000 1.922270 
# 
# From -- ./inp_files/1143.got.cif
#   From: 2010.03.12/outbox.cif.g09.slc.cpg/sg64_1_cif.got.tgz:1143.got - 2010.04.10 20:19:32.
