data_PCOD8264512
_publ_section_title
;
Structure prediction by ZEFSAII (Michael W. Deem and Ramdas Pophale) SiO2 
 PCOD8264512
Probable space group: C M C A
;
_chemical_formula_sum "Si O2"
_cell_formula_units_Z 96
_cell_length_a 14.799720
_cell_length_b 19.914742
_cell_length_c 14.495205
_cell_angle_alpha 90.000000
_cell_angle_beta 90.000000
_cell_angle_gamma 90.000000
_cell_volume 4272.209537
_symmetry_space_group_name_H-M "C M C A"
_symmetry_group_IT_number 64
_symmetry_cell_setting 'orthorhombic'
loop_
_space_group_symop_operation_xyz
x,y,z
-x,1/2-y,1/2+z
x,-y,-z
-x,1/2+y,1/2-z
-x,-y,-z
x,1/2+y,1/2-z
-x,y,z
x,1/2-y,1/2+z
1/2+x,1/2+y,z
1/2-x,-y,1/2+z
1/2+x,1/2-y,-z
1/2-x,y,1/2-z
1/2-x,1/2-y,-z
1/2+x,y,1/2-z
1/2-x,1/2+y,z
1/2+x,-y,1/2+z
loop_
_atom_site_type_symbol
_atom_site_label
_atom_site_fract_x
_atom_site_fract_y
_atom_site_fract_z
Si Si1 0.000000 0.927139 0.403132
Si Si2 0.696102 0.189382 0.544305
Si Si3 0.606615 0.254509 0.220523
Si Si4 0.647147 0.605881 0.246072
Si Si5 0.898158 0.432192 0.548467
Si Si6 0.681135 0.621147 0.677678
Si Si7 0.500000 0.422017 0.603590
O O1 0.088693 0.917754 0.340143
O O2 0.000000 0.884969 0.501131
O O3 0.000000 0.003240 0.429227
O O4 0.750000 0.250000 0.500000
O O5 0.628062 0.225465 0.615318
O O6 0.644187 0.140639 0.474050
O O7 0.765180 0.134653 0.584724
O O8 0.500000 0.254043 0.233975
O O9 0.646737 0.185950 0.260846
O O10 0.655691 0.306598 0.284843
O O11 0.750000 0.580052 0.250000
O O12 0.604138 0.565251 0.160043
O O13 0.590726 0.592897 0.339555
O O14 0.854441 0.500000 0.500000
O O15 0.000000 0.429910 0.511940
O O16 0.750000 0.583842 0.750000
#
# Coordination Sequence:
#
# PCOD8264512 Si02
#       7
#     8  16  16  16  16  16   8
#     4  11  26  47  70  98 136 183 240 287 346 434
#     4  11  24  40  67 108 140 183 243 302 361 435
#     4  11  21  41  69 101 139 181 235 296 361 426
#     4  12  25  46  70 100 141 187 239 296 365 431
#     4  11  25  47  71 104 147 192 243 303 371 445
#     4  10  23  43  68 102 136 176 228 292 357 415
#     4  11  28  47  67  98 136 187 241 285 350 433
#
# _framework density 22.470808999999999
#
# number of rings (size 3 to 8) (size 9 to 14) (size 15 to 20)
#    0.000    1.000    2.500    4.000    4.667    4.667 
#    1.500    0.000    0.000    0.000    0.000    0.000 
#    0.000    0.000    0.000    0.000    0.000    0.000 
#
# Total GULP energy -594678.119938 kJ/mol
# GULP energy per Si atom -12389.127499 kJ/mol
# Density = 2.241966 g / cm^3
# Si number density = 22.470809 Si / 1000 Ang^3
#
#
#
# Elastic Constant Matrix: (Units=GPa)
#
#
# Indices 1 2 3 4 5 6 
#
# 1 148.9256 12.0162 39.4817 0.0000 0.0000 0.0000
# 2 12.0162 82.5179 29.2068 0.0000 0.0000 0.0000
# 3 39.4817 29.2068 103.7220 0.0000 0.0000 0.0000
# 4 0.0000 0.0000 0.0000 41.0700 0.0000 0.0000
# 5 0.0000 0.0000 0.0000 0.0000 27.7104 0.0000
# 6 0.0000 0.0000 0.0000 0.0000 0.0000 53.4166
#
#
#
# Elastic Compliance Matrix: (Units=1/GPa)
#
#
# Indices 1 2 3 4 5 6 
#
# 1 0.007469 -0.000090 -0.002818 0.000000 0.000000 0.000000
# 2 -0.000090 0.013461 -0.003756 0.000000 0.000000 0.000000
# 3 -0.002818 -0.003756 0.011771 0.000000 0.000000 0.000000
# 4 0.000000 0.000000 0.000000 0.024349 0.000000 0.000000
# 5 0.000000 0.000000 0.000000 0.000000 0.036088 0.000000
# 6 0.000000 0.000000 0.000000 0.000000 0.000000 0.018721
#
#
# Mechanical properties :
#
#
# Convention : Reuss Voigt Hill
#
# Bulk Modulus (GPa) = 51.61718 55.17499 53.39608
# Shear Modulus (GPa) = 37.98105 41.40346 39.69225
#
# Velocity S-wave (km/s) = 4.11571 4.29714 4.20741
# Velocity P-wave (km/s) = 6.75323 7.01626 6.88600
#
# Compressibility (1/GPa) = 0.01937340
#
# Stress axis : x y z
#
# Youngs Moduli (GPa) = 133.88602 74.28761 84.95190
#
# Poissons Ratio (x) = 0.00671 0.23936
# Poissons Ratio (y) = 0.01210 0.31909
# Poissons Ratio (z) = 0.37724 0.27903
#
# Static dielectric constant tensor:
#      x y z
#    x 4.714870 0.000000 0.000000 
#    y 0.000000 4.116390 0.000000 
#    z 0.000000 0.000000 4.106210 
# 
# 
# High freq. dielectric constant tensor:
#      x y z
#    x 1.897850 0.000000 0.000000 
#    y 0.000000 1.880290 0.000000 
#    z 0.000000 0.000000 1.892640 
# 
# From -- ./inp_files/23978.got.cif
#   From: 2010.03.12/outbox.cif.g09.slc.cpg/sg64_12_cif.got.tgz:23978.got - 2010.04.10 20:19:32.
