data_PCOD8264238
_publ_section_title
;
Structure prediction by ZEFSAII (Michael W. Deem and Ramdas Pophale) SiO2 
 PCOD8264238
Probable space group: C M C A
;
_chemical_formula_sum "Si O2"
_cell_formula_units_Z 96
_cell_length_a 16.571973
_cell_length_b 19.559209
_cell_length_c 14.543528
_cell_angle_alpha 90.000000
_cell_angle_beta 90.000000
_cell_angle_gamma 90.000000
_cell_volume 4714.061845
_symmetry_space_group_name_H-M "C M C A"
_symmetry_group_IT_number 64
_symmetry_cell_setting 'orthorhombic'
loop_
_space_group_symop_operation_xyz
x,y,z
-x,1/2-y,1/2+z
x,-y,-z
-x,1/2+y,1/2-z
-x,-y,-z
x,1/2+y,1/2-z
-x,y,z
x,1/2-y,1/2+z
1/2+x,1/2+y,z
1/2-x,-y,1/2+z
1/2+x,1/2-y,-z
1/2-x,y,1/2-z
1/2-x,1/2-y,-z
1/2+x,y,1/2-z
1/2-x,1/2+y,z
1/2+x,-y,1/2+z
loop_
_atom_site_type_symbol
_atom_site_label
_atom_site_fract_x
_atom_site_fract_y
_atom_site_fract_z
Si Si1 0.660004 0.664419 0.788110
Si Si2 0.907230 0.719501 0.327893
Si Si3 0.769177 0.061991 0.445394
Si Si4 0.333564 0.490098 0.197514
Si Si5 0.593253 0.602436 0.308071
Si Si6 0.313151 0.191887 0.511915
O O1 0.750000 0.667860 0.750000
O O2 0.608722 0.703885 0.710018
O O3 0.631011 0.586576 0.805150
O O4 0.647246 0.700991 0.887167
O O5 0.874361 0.665729 0.252863
O O6 0.874097 0.701759 0.428234
O O7 0.000000 0.707328 0.340284
O O8 0.840908 0.097735 0.388726
O O9 0.731886 0.118762 0.512538
O O10 0.812006 0.000000 0.500000
O O11 0.690653 0.027712 0.396837
O O12 0.250000 0.490077 0.250000
O O13 0.402662 0.533619 0.247927
O O14 0.500000 0.612018 0.342500
O O15 0.250000 0.250000 0.500000
#
# Coordination Sequence:
#
# PCOD8264238 Si02
#       6
#    16  16  16  16  16  16
#     4  11  22  39  65  96 123 163 215 266 318 374
#     4  11  25  43  62  92 133 172 211 263 323 383
#     4  11  21  38  64  94 126 165 215 272 311 373
#     4   9  19  36  61  88 120 161 210 255 308 366
#     4  10  22  39  61  89 128 173 209 255 324 384
#     4  12  23  38  67  96 124 169 219 260 313 385
#
# _framework density 20.364604
#
# number of rings (size 3 to 8) (size 9 to 14) (size 15 to 20)
#    0.000    1.333    5.000    1.000    0.000    1.667 
#    0.000    0.833    0.000    3.000    0.000    0.000 
#    0.000    0.000    0.000    0.000    0.000    0.000 
#
# Total GULP energy -594809.475248 kJ/mol
# GULP energy per Si atom -12391.864068 kJ/mol
# Density = 2.031825 g / cm^3
# Si number density = 20.364604 Si / 1000 Ang^3
#
#
#
# Elastic Constant Matrix: (Units=GPa)
#
#
# Indices 1 2 3 4 5 6 
#
# 1 32.6726 1.5087 21.5058 0.0000 0.0000 0.0000
# 2 1.5087 95.9108 16.3151 0.0000 0.0000 0.0000
# 3 21.5058 16.3151 92.0866 0.0000 0.0000 0.0000
# 4 0.0000 0.0000 0.0000 38.4281 0.0000 0.0000
# 5 0.0000 0.0000 0.0000 0.0000 22.4890 0.0000
# 6 0.0000 0.0000 0.0000 0.0000 0.0000 32.4560
#
#
#
# Elastic Compliance Matrix: (Units=1/GPa)
#
#
# Indices 1 2 3 4 5 6 
#
# 1 0.036241 0.000897 -0.008622 0.000000 0.000000 0.000000
# 2 0.000897 0.010773 -0.002118 0.000000 0.000000 0.000000
# 3 -0.008622 -0.002118 0.013248 0.000000 0.000000 0.000000
# 4 0.000000 0.000000 0.000000 0.026023 0.000000 0.000000
# 5 0.000000 0.000000 0.000000 0.000000 0.044466 0.000000
# 6 0.000000 0.000000 0.000000 0.000000 0.000000 0.030811
#
#
# Mechanical properties :
#
#
# Convention : Reuss Voigt Hill
#
# Bulk Modulus (GPa) = 24.64634 33.25879 28.95256
# Shear Modulus (GPa) = 25.67083 30.76398 28.21741
#
# Velocity S-wave (km/s) = 3.55429 3.89094 3.72642
# Velocity P-wave (km/s) = 5.38264 6.04591 5.72389
#
# Compressibility (1/GPa) = 0.04057397
#
# Stress axis : x y z
#
# Youngs Moduli (GPa) = 27.59325 92.82861 75.48157
#
# Poissons Ratio (x) = -0.08324 0.65084
# Poissons Ratio (y) = -0.02474 0.15987
# Poissons Ratio (z) = 0.23792 0.19661
#
# Static dielectric constant tensor:
#      x y z
#    x 3.948710 0.000000 0.000000 
#    y 0.000000 4.124750 0.000000 
#    z 0.000000 0.000000 3.591980 
# 
# 
# High freq. dielectric constant tensor:
#      x y z
#    x 1.764210 0.000000 0.000000 
#    y 0.000000 1.817730 0.000000 
#    z 0.000000 0.000000 1.799210 
# 
# From -- ./inp_files/23852.got.cif
#   From: 2010.03.12/outbox.cif.g09.slc.cpg/sg64_12_cif.got.tgz:23852.got - 2010.04.10 20:19:32.
