data_PCOD8264441
_publ_section_title
;
Structure prediction by ZEFSAII (Michael W. Deem and Ramdas Pophale) SiO2 
 PCOD8264441
Probable space group: C M C A
;
_chemical_formula_sum "Si O2"
_cell_formula_units_Z 96
_cell_length_a 14.469061
_cell_length_b 22.420378
_cell_length_c 14.217365
_cell_angle_alpha 90.000000
_cell_angle_beta 90.000000
_cell_angle_gamma 90.000000
_cell_volume 4612.139038
_symmetry_space_group_name_H-M "C M C A"
_symmetry_group_IT_number 64
_symmetry_cell_setting 'orthorhombic'
loop_
_space_group_symop_operation_xyz
x,y,z
-x,1/2-y,1/2+z
x,-y,-z
-x,1/2+y,1/2-z
-x,-y,-z
x,1/2+y,1/2-z
-x,y,z
x,1/2-y,1/2+z
1/2+x,1/2+y,z
1/2-x,-y,1/2+z
1/2+x,1/2-y,-z
1/2-x,y,1/2-z
1/2-x,1/2-y,-z
1/2+x,y,1/2-z
1/2-x,1/2+y,z
1/2+x,-y,1/2+z
loop_
_atom_site_type_symbol
_atom_site_label
_atom_site_fract_x
_atom_site_fract_y
_atom_site_fract_z
Si Si1 0.890603 0.447629 0.070637
Si Si2 0.209401 0.674899 0.965757
Si Si3 0.609607 0.020653 0.722680
Si Si4 0.896466 0.098973 0.139222
Si Si5 0.285387 0.216934 0.351208
Si Si6 0.605136 0.882088 0.428024
O O1 0.844545 0.386631 0.037939
O O2 0.852709 0.463952 0.173959
O O3 0.000000 0.438214 0.070851
O O4 0.860983 0.500000 0.000000
O O5 0.163876 0.725083 0.897780
O O6 0.317719 0.669841 0.932728
O O7 0.206014 0.696633 0.074454
O O8 0.500000 0.015788 0.721505
O O9 0.639920 0.072081 0.650926
O O10 0.652408 0.956926 0.691386
O O11 0.852187 0.161597 0.166588
O O12 0.000000 0.104447 0.176379
O O13 0.893340 0.084697 0.028308
O O14 0.250000 0.237656 0.250000
O O15 0.500000 0.857811 0.407871
#
# Coordination Sequence:
#
# PCOD8264441 Si02
#       6
#    16  16  16  16  16  16
#     4  10  23  40  59  86 123 157 194 238 288 356
#     4  10  23  41  60  86 117 155 197 240 293 344
#     4   9  18  33  57  88 116 150 191 237 293 350
#     4   9  18  35  59  85 117 151 191 240 292 343
#     4  10  23  40  58  83 118 152 196 246 281 342
#     4   9  18  35  59  88 118 147 188 246 298 347
#
# _framework density 20.814636
#
# number of rings (size 3 to 8) (size 9 to 14) (size 15 to 20)
#    0.000    2.500    0.000    0.500    4.667    5.333 
#    0.000    3.333    0.000    0.000    0.000    0.000 
#    0.000    0.000    0.000    0.000    0.000    0.000 
#
# Total GULP energy -594909.907446 kJ/mol
# GULP energy per Si atom -12393.956405 kJ/mol
# Density = 2.076726 g / cm^3
# Si number density = 20.814636 Si / 1000 Ang^3
#
#
#
# Elastic Constant Matrix: (Units=GPa)
#
#
# Indices 1 2 3 4 5 6 
#
# 1 31.8046 18.3033 13.0106 0.0000 0.0000 0.0000
# 2 18.3033 131.1762 57.9213 0.0000 0.0000 0.0000
# 3 13.0106 57.9213 137.4667 0.0000 0.0000 0.0000
# 4 0.0000 0.0000 0.0000 25.1253 0.0000 0.0000
# 5 0.0000 0.0000 0.0000 0.0000 14.8295 0.0000
# 6 0.0000 0.0000 0.0000 0.0000 0.0000 23.6103
#
#
#
# Elastic Compliance Matrix: (Units=1/GPa)
#
#
# Indices 1 2 3 4 5 6 
#
# 1 0.034443 -0.004136 -0.001517 0.000000 0.000000 0.000000
# 2 -0.004136 0.009862 -0.003764 0.000000 0.000000 0.000000
# 3 -0.001517 -0.003764 0.009004 0.000000 0.000000 0.000000
# 4 0.000000 0.000000 0.000000 0.039800 0.000000 0.000000
# 5 0.000000 0.000000 0.000000 0.000000 0.067433 0.000000
# 6 0.000000 0.000000 0.000000 0.000000 0.000000 0.042354
#
#
# Mechanical properties :
#
#
# Convention : Reuss Voigt Hill
#
# Bulk Modulus (GPa) = 29.00659 53.21310 41.10985
# Shear Modulus (GPa) = 21.43867 26.79385 24.11626
#
# Velocity S-wave (km/s) = 3.21281 3.59173 3.40754
# Velocity P-wave (km/s) = 5.26582 6.54381 5.93929
#
# Compressibility (1/GPa) = 0.03447492
#
# Stress axis : x y z
#
# Youngs Moduli (GPa) = 29.03365 101.39441 111.06081
#
# Poissons Ratio (x) = 0.41936 0.16850
# Poissons Ratio (y) = 0.12008 0.41804
# Poissons Ratio (z) = 0.04405 0.38166
#
# Static dielectric constant tensor:
#      x y z
#    x 3.593120 0.000000 0.000000 
#    y 0.000000 3.768810 0.000000 
#    z 0.000000 0.000000 3.944670 
# 
# 
# High freq. dielectric constant tensor:
#      x y z
#    x 1.788200 0.000000 0.000000 
#    y 0.000000 1.819110 0.000000 
#    z 0.000000 0.000000 1.822620 
# 
# From -- ./inp_files/23934.got.cif
#   From: 2010.03.12/outbox.cif.g09.slc.cpg/sg64_12_cif.got.tgz:23934.got - 2010.04.10 20:19:32.
