data_PCOD8264637
_publ_section_title
;
Structure prediction by ZEFSAII (Michael W. Deem and Ramdas Pophale) SiO2 
 PCOD8264637
Probable space group: C M C A
;
_chemical_formula_sum "Si O2"
_cell_formula_units_Z 64
_cell_length_a 7.671641
_cell_length_b 22.030783
_cell_length_c 20.864470
_cell_angle_alpha 90.000000
_cell_angle_beta 90.000000
_cell_angle_gamma 90.000000
_cell_volume 3526.351189
_symmetry_space_group_name_H-M "C M C A"
_symmetry_group_IT_number 64
_symmetry_cell_setting 'orthorhombic'
loop_
_space_group_symop_operation_xyz
x,y,z
-x,1/2-y,1/2+z
x,-y,-z
-x,1/2+y,1/2-z
-x,-y,-z
x,1/2+y,1/2-z
-x,y,z
x,1/2-y,1/2+z
1/2+x,1/2+y,z
1/2-x,-y,1/2+z
1/2+x,1/2-y,-z
1/2-x,y,1/2-z
1/2-x,1/2-y,-z
1/2+x,y,1/2-z
1/2-x,1/2+y,z
1/2+x,-y,1/2+z
loop_
_atom_site_type_symbol
_atom_site_label
_atom_site_fract_x
_atom_site_fract_y
_atom_site_fract_z
Si Si1 0.299385 0.306069 0.455354
Si Si2 0.500000 0.514880 0.096096
Si Si3 0.000000 0.602461 0.509985
Si Si4 0.303849 0.471712 0.321017
Si Si5 0.795762 0.665365 0.679396
O O1 0.500000 0.323767 0.467421
O O2 0.250000 0.250000 0.500000
O O3 0.175710 0.361365 0.474729
O O4 0.269775 0.291416 0.379057
O O5 0.500000 0.458856 0.048771
O O6 0.322969 0.511127 0.135733
O O7 0.500000 0.581431 0.063850
O O8 0.500000 0.492636 0.335978
O O9 0.250000 0.488574 0.250000
O O10 0.293943 0.399440 0.331120
O O11 0.750000 0.692689 0.750000
O O12 0.000000 0.655160 0.673577
#
# Coordination Sequence:
#
# PCOD8264637 Si02
#       5
#    16   8   8  16  16
#     4  12  22  39  62  87 117 157 201 244 294 353
#     4  11  22  38  56  85 127 150 189 242 296 367
#     4  11  24  40  56  85 123 158 191 240 296 357
#     4  11  18  31  55  84 115 150 190 244 302 348
#     4  11  19  33  54  88 121 146 189 251 304 346
#
# _framework density 18.149072
#
# number of rings (size 3 to 8) (size 9 to 14) (size 15 to 20)
#    0.000    0.750    7.500    3.750    0.000    1.000 
#    0.000    2.500    0.000    1.500    0.000    0.000 
#    0.000    0.000    0.000    0.000    0.000    0.000 
#
# Total GULP energy -396689.287608 kJ/mol
# GULP energy per Si atom -12396.540238 kJ/mol
# Density = 1.810776 g / cm^3
# Si number density = 18.149072 Si / 1000 Ang^3
#
#
#
# Elastic Constant Matrix: (Units=GPa)
#
#
# Indices 1 2 3 4 5 6 
#
# 1 189.1318 33.9746 57.6733 0.0000 0.0000 0.0000
# 2 33.9746 50.1382 52.7420 0.0000 0.0000 0.0000
# 3 57.6733 52.7420 155.2598 0.0000 0.0000 0.0000
# 4 0.0000 0.0000 0.0000 30.6225 0.0000 0.0000
# 5 0.0000 0.0000 0.0000 0.0000 29.7217 0.0000
# 6 0.0000 0.0000 0.0000 0.0000 0.0000 12.3134
#
#
#
# Elastic Compliance Matrix: (Units=1/GPa)
#
#
# Indices 1 2 3 4 5 6 
#
# 1 0.006200 -0.002768 -0.001363 0.000000 0.000000 0.000000
# 2 -0.002768 0.032270 -0.009934 0.000000 0.000000 0.000000
# 3 -0.001363 -0.009934 0.010322 0.000000 0.000000 0.000000
# 4 0.000000 0.000000 0.000000 0.032656 0.000000 0.000000
# 5 0.000000 0.000000 0.000000 0.000000 0.033645 0.000000
# 6 0.000000 0.000000 0.000000 0.000000 0.000000 0.081212
#
#
# Mechanical properties :
#
#
# Convention : Reuss Voigt Hill
#
# Bulk Modulus (GPa) = 48.39631 75.92329 62.15980
# Shear Modulus (GPa) = 21.61483 31.20753 26.41118
#
# Velocity S-wave (km/s) = 3.45477 4.15120 3.81889
# Velocity P-wave (km/s) = 6.52977 8.05609 7.33275
#
# Compressibility (1/GPa) = 0.02066273
#
# Stress axis : x y z
#
# Youngs Moduli (GPa) = 161.28814 30.98815 96.88239
#
# Poissons Ratio (x) = 0.08576 0.13205
# Poissons Ratio (y) = 0.44637 0.96246
# Poissons Ratio (z) = 0.21983 0.30784
#
# Static dielectric constant tensor:
#      x y z
#    x 3.538460 0.000000 0.000000 
#    y 0.000000 3.148240 0.000000 
#    z 0.000000 0.000000 4.142900 
# 
# 
# High freq. dielectric constant tensor:
#      x y z
#    x 1.729970 0.000000 0.000000 
#    y 0.000000 1.642310 0.000000 
#    z 0.000000 0.000000 1.721910 
# 
# From -- ./inp_files/36478.got.cif
#   From: 2010.03.12/outbox.cif.g09.slc.cpg/sg64_19_cif.got.tgz:36478.got - 2010.04.10 20:19:32.
