data_PCOD8264102
_publ_section_title
;
Structure prediction by ZEFSAII (Michael W. Deem and Ramdas Pophale) SiO2 
 PCOD8264102
Probable space group: C M C A
;
_chemical_formula_sum "Si O2"
_cell_formula_units_Z 88
_cell_length_a 17.881563
_cell_length_b 15.488581
_cell_length_c 14.219353
_cell_angle_alpha 90.000000
_cell_angle_beta 90.000000
_cell_angle_gamma 90.000000
_cell_volume 3938.192532
_symmetry_space_group_name_H-M "C M C A"
_symmetry_group_IT_number 64
_symmetry_cell_setting 'orthorhombic'
loop_
_space_group_symop_operation_xyz
x,y,z
-x,1/2-y,1/2+z
x,-y,-z
-x,1/2+y,1/2-z
-x,-y,-z
x,1/2+y,1/2-z
-x,y,z
x,1/2-y,1/2+z
1/2+x,1/2+y,z
1/2-x,-y,1/2+z
1/2+x,1/2-y,-z
1/2-x,y,1/2-z
1/2-x,1/2-y,-z
1/2+x,y,1/2-z
1/2-x,1/2+y,z
1/2+x,-y,1/2+z
loop_
_atom_site_type_symbol
_atom_site_label
_atom_site_fract_x
_atom_site_fract_y
_atom_site_fract_z
Si Si1 0.801174 0.121061 0.101259
Si Si2 0.136471 0.882545 0.548030
Si Si3 0.416747 0.453385 0.368217
Si Si4 0.148487 0.806459 0.089875
Si Si5 0.250000 0.244455 0.250000
Si Si6 0.414157 0.974463 0.341650
O O1 0.716193 0.087387 0.091255
O O2 0.807867 0.182628 0.192625
O O3 0.860377 0.043172 0.106973
O O4 0.810493 0.178405 0.008411
O O5 0.134686 0.891537 0.433792
O O6 0.110749 0.787724 0.581233
O O7 0.077385 0.950042 0.589780
O O8 0.500000 0.413764 0.363881
O O9 0.383745 0.458828 0.263377
O O10 0.206099 0.805247 0.177101
O O11 0.088773 0.882580 0.105073
O O12 0.500000 0.008049 0.344296
#
# Coordination Sequence:
#
# PCOD8264102 Si02
#       6
#    16  16  16  16   8  16
#     4  11  24  43  63 101 130 177 215 268 335 385
#     4  10  21  41  68  99 128 163 225 279 330 381
#     4  10  23  42  68  96 129 173 222 273 331 397
#     4  11  25  38  67  97 134 170 217 274 328 384
#     4  10  22  42  68 100 132 162 224 286 320 390
#     4  11  26  44  63  94 137 184 219 259 335 410
#
# _framework density 22.345276999999999
#
# number of rings (size 3 to 8) (size 9 to 14) (size 15 to 20)
#    0.000    1.455    0.000    6.000   10.182    3.636 
#    0.000    0.909    0.000    0.000    0.000    0.000 
#    0.000    0.000    0.000    0.000    0.000    0.000 
#
# Total GULP energy -545464.732626 kJ/mol
# GULP energy per Si atom -12396.925741 kJ/mol
# Density = 2.229442 g / cm^3
# Si number density = 22.345277 Si / 1000 Ang^3
#
#
#
# Elastic Constant Matrix: (Units=GPa)
#
#
# Indices 1 2 3 4 5 6 
#
# 1 82.1994 34.0670 29.9407 0.0000 0.0000 0.0000
# 2 34.0670 108.5385 40.8229 0.0000 0.0000 0.0000
# 3 29.9407 40.8229 146.7516 0.0000 0.0000 0.0000
# 4 0.0000 0.0000 0.0000 36.9196 0.0000 0.0000
# 5 0.0000 0.0000 0.0000 0.0000 30.1036 0.0000
# 6 0.0000 0.0000 0.0000 0.0000 0.0000 23.6846
#
#
#
# Elastic Compliance Matrix: (Units=1/GPa)
#
#
# Indices 1 2 3 4 5 6 
#
# 1 0.014435 -0.003823 -0.001882 0.000000 0.000000 0.000000
# 2 -0.003823 0.011302 -0.002364 0.000000 0.000000 0.000000
# 3 -0.001882 -0.002364 0.007856 0.000000 0.000000 0.000000
# 4 0.000000 0.000000 0.000000 0.027086 0.000000 0.000000
# 5 0.000000 0.000000 0.000000 0.000000 0.033219 0.000000
# 6 0.000000 0.000000 0.000000 0.000000 0.000000 0.042221
#
#
# Mechanical properties :
#
#
# Convention : Reuss Voigt Hill
#
# Bulk Modulus (GPa) = 57.28720 60.79453 59.04086
# Shear Modulus (GPa) = 31.63038 33.65217 32.64128
#
# Velocity S-wave (km/s) = 3.76643 3.88494 3.82615
# Velocity P-wave (km/s) = 6.67889 6.88401 6.78223
#
# Compressibility (1/GPa) = 0.01745591
#
# Stress axis : x y z
#
# Youngs Moduli (GPa) = 69.27420 88.47639 127.29510
#
# Poissons Ratio (x) = 0.33826 0.23952
# Poissons Ratio (y) = 0.26484 0.30093
# Poissons Ratio (z) = 0.13035 0.20916
#
# Static dielectric constant tensor:
#      x y z
#    x 3.596800 0.000000 0.000000 
#    y 0.000000 3.855820 0.000000 
#    z 0.000000 0.000000 4.369980 
# 
# 
# High freq. dielectric constant tensor:
#      x y z
#    x 1.850940 0.000000 0.000000 
#    y 0.000000 1.874250 0.000000 
#    z 0.000000 0.000000 1.905490 
# 
# From -- ./inp_files/26245.got.cif
#   From: 2010.03.12/outbox.cif.g09.slc.cpg/sg64_14_cif.got.tgz:26245.got - 2010.04.10 20:19:32.
