data_PCOD8264132
_publ_section_title
;
Structure prediction by ZEFSAII (Michael W. Deem and Ramdas Pophale) SiO2 
 PCOD8264132
Probable space group: C M C A
;
_chemical_formula_sum "Si O2"
_cell_formula_units_Z 88
_cell_length_a 25.561938
_cell_length_b 11.876509
_cell_length_c 13.790624
_cell_angle_alpha 90.000000
_cell_angle_beta 90.000000
_cell_angle_gamma 90.000000
_cell_volume 4186.648469
_symmetry_space_group_name_H-M "C M C A"
_symmetry_group_IT_number 64
_symmetry_cell_setting 'orthorhombic'
loop_
_space_group_symop_operation_xyz
x,y,z
-x,1/2-y,1/2+z
x,-y,-z
-x,1/2+y,1/2-z
-x,-y,-z
x,1/2+y,1/2-z
-x,y,z
x,1/2-y,1/2+z
1/2+x,1/2+y,z
1/2-x,-y,1/2+z
1/2+x,1/2-y,-z
1/2-x,y,1/2-z
1/2-x,1/2-y,-z
1/2+x,y,1/2-z
1/2-x,1/2+y,z
1/2+x,-y,1/2+z
loop_
_atom_site_type_symbol
_atom_site_label
_atom_site_fract_x
_atom_site_fract_y
_atom_site_fract_z
Si Si1 0.294910 0.124840 0.828720
Si Si2 0.000000 0.694434 0.002068
Si Si3 0.000000 0.494993 0.153917
Si Si4 0.671502 0.860170 0.613463
Si Si5 0.106043 0.472916 0.269289
Si Si6 0.911430 0.873531 0.034658
Si Si7 0.250002 0.500000 0.000000
O O1 0.250000 0.094140 0.750000
O O2 0.302498 0.258130 0.829794
O O3 0.350127 0.067894 0.805149
O O4 0.283625 0.090438 0.940216
O O5 0.000000 0.606185 0.089078
O O6 0.048968 0.776838 0.004675
O O7 0.000000 0.622967 0.903323
O O8 0.051754 0.500864 0.218206
O O9 0.643424 0.832554 0.511294
O O10 0.627061 0.913461 0.681494
O O11 0.717302 0.946052 0.587486
O O12 0.095918 0.376130 0.349536
O O13 0.928314 0.000000 0.000000
#
# Coordination Sequence:
#
# PCOD8264132 Si02
#       7
#    16   8   8  16  16  16   8
#     4  12  26  42  74 104 139 189 234 295 359 421
#     4  11  24  43  69  97 141 182 232 287 357 420
#     4  11  27  45  66 107 144 180 230 290 359 426
#     4  11  23  44  68  99 139 183 235 286 354 424
#     4  11  24  46  68 104 140 180 239 288 347 429
#     4  10  21  44  69  94 136 181 235 284 345 414
#     4  12  24  48  64 104 148 178 234 300 350 428
#
# _framework density 21.019200000000001
#
# number of rings (size 3 to 8) (size 9 to 14) (size 15 to 20)
#    0.000    0.909    4.545    2.455    5.091    5.091 
#    6.545    0.000    0.000    0.000    0.000    0.000 
#    0.000    0.000    0.000    0.000    0.000    0.000 
#
# Total GULP energy -545530.987905 kJ/mol
# GULP energy per Si atom -12398.431543 kJ/mol
# Density = 2.097136 g / cm^3
# Si number density = 21.019200 Si / 1000 Ang^3
#
#
#
# Elastic Constant Matrix: (Units=GPa)
#
#
# Indices 1 2 3 4 5 6 
#
# 1 127.3713 46.1598 53.5178 0.0000 0.0000 0.0000
# 2 46.1598 99.5194 38.7179 0.0000 0.0000 0.0000
# 3 53.5178 38.7179 110.6926 0.0000 0.0000 0.0000
# 4 0.0000 0.0000 0.0000 28.7955 0.0000 0.0000
# 5 0.0000 0.0000 0.0000 0.0000 141.2137 0.0000
# 6 0.0000 0.0000 0.0000 0.0000 0.0000 10.7780
#
#
#
# Elastic Compliance Matrix: (Units=1/GPa)
#
#
# Indices 1 2 3 4 5 6 
#
# 1 0.010783 -0.003442 -0.004010 0.000000 0.000000 0.000000
# 2 -0.003442 0.012729 -0.002789 0.000000 0.000000 0.000000
# 3 -0.004010 -0.002789 0.011948 0.000000 0.000000 0.000000
# 4 0.000000 0.000000 0.000000 0.034728 0.000000 0.000000
# 5 0.000000 0.000000 0.000000 0.000000 0.007081 0.000000
# 6 0.000000 0.000000 0.000000 0.000000 0.000000 0.092781
#
#
# Mechanical properties :
#
#
# Convention : Reuss Voigt Hill
#
# Bulk Modulus (GPa) = 66.75110 68.26381 67.50745
# Shear Modulus (GPa) = 25.57231 49.43662 37.50447
#
# Velocity S-wave (km/s) = 3.49179 4.85498 4.22868
# Velocity P-wave (km/s) = 6.93418 7.99845 7.48525
#
# Compressibility (1/GPa) = 0.01498103
#
# Stress axis : x y z
#
# Youngs Moduli (GPa) = 92.73850 78.55795 83.69607
#
# Poissons Ratio (x) = 0.27036 0.33559
# Poissons Ratio (y) = 0.31916 0.23339
# Poissons Ratio (z) = 0.37185 0.21907
#
# Static dielectric constant tensor:
#      x y z
#    x 3.903650 0.000000 0.000000 
#    y 0.000000 3.738110 0.000000 
#    z 0.000000 0.000000 4.162110 
# 
# 
# High freq. dielectric constant tensor:
#      x y z
#    x 1.832830 0.000000 0.000000 
#    y 0.000000 1.819760 0.000000 
#    z 0.000000 0.000000 1.830990 
# 
# From -- ./inp_files/27254.got.cif
#   From: 2010.03.12/outbox.cif.g09.slc.cpg/sg64_14_cif.got.tgz:27254.got - 2010.04.10 20:19:32.
