data_PCOD8264777
_publ_section_title
;
Structure prediction by ZEFSAII (Michael W. Deem and Ramdas Pophale) SiO2 
 PCOD8264777
Probable space group: C M C A
;
_chemical_formula_sum "Si O2"
_cell_formula_units_Z 64
_cell_length_a 8.557309
_cell_length_b 15.234489
_cell_length_c 23.088465
_cell_angle_alpha 90.000000
_cell_angle_beta 90.000000
_cell_angle_gamma 90.000000
_cell_volume 3009.956135
_symmetry_space_group_name_H-M "C M C A"
_symmetry_group_IT_number 64
_symmetry_cell_setting 'orthorhombic'
loop_
_space_group_symop_operation_xyz
x,y,z
-x,1/2-y,1/2+z
x,-y,-z
-x,1/2+y,1/2-z
-x,-y,-z
x,1/2+y,1/2-z
-x,y,z
x,1/2-y,1/2+z
1/2+x,1/2+y,z
1/2-x,-y,1/2+z
1/2+x,1/2-y,-z
1/2-x,y,1/2-z
1/2-x,1/2-y,-z
1/2+x,y,1/2-z
1/2-x,1/2+y,z
1/2+x,-y,1/2+z
loop_
_atom_site_type_symbol
_atom_site_label
_atom_site_fract_x
_atom_site_fract_y
_atom_site_fract_z
Si Si1 0.817327 0.755595 0.688516
Si Si2 0.177983 0.601955 0.882066
Si Si3 0.320509 0.844865 0.990072
Si Si4 0.817224 0.581019 0.375510
O O1 0.750000 0.725336 0.750000
O O2 0.785625 0.679087 0.642464
O O3 0.733729 0.844623 0.669226
O O4 0.000000 0.773177 0.692611
O O5 0.231549 0.508589 0.857175
O O6 0.000000 0.620645 0.863214
O O7 0.193427 0.598863 0.951483
O O8 0.500000 0.836332 0.969770
O O9 0.223543 0.893511 0.940948
O O10 0.250000 0.750000 0.000000
O O11 0.000000 0.565433 0.370358
#
# Coordination Sequence:
#
# PCOD8264777 Si02
#       4
#    16  16  16  16
#     4  12  26  46  70  95 128 169 218 271 326 384
#     4  11  24  43  67  98 133 171 217 266 322 386
#     4  11  22  38  65  97 134 173 215 264 322 387
#     4  12  25  42  66  98 134 173 218 266 322 385
#
# _framework density 21.262767
#
# number of rings (size 3 to 8) (size 9 to 14) (size 15 to 20)
#    0.000    0.500    2.500    6.750    0.000    7.000 
#    0.000    5.000    0.000    0.000    0.000    0.000 
#    0.000    0.000    0.000    0.000    0.000    0.000 
#
# Total GULP energy -397085.116681 kJ/mol
# GULP energy per Si atom -12408.909896 kJ/mol
# Density = 2.121437 g / cm^3
# Si number density = 21.262767 Si / 1000 Ang^3
#
#
#
# Elastic Constant Matrix: (Units=GPa)
#
#
# Indices 1 2 3 4 5 6 
#
# 1 87.2165 13.3954 31.4923 0.0000 0.0000 0.0000
# 2 13.3954 107.0759 -0.3446 0.0000 0.0000 0.0000
# 3 31.4923 -0.3446 68.3478 0.0000 0.0000 0.0000
# 4 0.0000 0.0000 0.0000 -24.9552 0.0000 0.0000
# 5 0.0000 0.0000 0.0000 0.0000 35.9980 0.0000
# 6 0.0000 0.0000 0.0000 0.0000 0.0000 38.4551
#
#
#
# Elastic Compliance Matrix: (Units=1/GPa)
#
#
# Indices 1 2 3 4 5 6 
#
# 1 0.014086 -0.001783 -0.006500 0.000000 0.000000 0.000000
# 2 -0.001783 0.009565 0.000870 0.000000 0.000000 0.000000
# 3 -0.006500 0.000870 0.017630 0.000000 0.000000 0.000000
# 4 0.000000 0.000000 0.000000 -0.040072 0.000000 0.000000
# 5 0.000000 0.000000 0.000000 0.000000 0.027779 0.000000
# 6 0.000000 0.000000 0.000000 0.000000 0.000000 0.026004
#
#
# Mechanical properties :
#
#
# Convention : Reuss Voigt Hill
#
# Bulk Modulus (GPa) = 37.79864 39.08072 38.43968
# Shear Modulus (GPa) = 63.58245 24.43937 44.01091
#
# Velocity S-wave (km/s) = 5.47431 3.39395 4.55450
# Velocity P-wave (km/s) = 7.60085 5.81192 6.76577
#
# Compressibility (1/GPa) = 0.02645598
#
# Stress axis : x y z
#
# Youngs Moduli (GPa) = 70.99013 104.54733 56.72084
#
# Poissons Ratio (x) = 0.18642 0.36866
# Poissons Ratio (y) = 0.12659 -0.04934
# Poissons Ratio (z) = 0.46140 -0.09094
#
# Static dielectric constant tensor:
#      x y z
#    x 4.397430 0.000000 0.000000 
#    y 0.000000 3.770820 0.000000 
#    z 0.000000 0.000000 4.769140 
# 
# 
# High freq. dielectric constant tensor:
#      x y z
#    x 1.850640 0.000000 0.000000 
#    y 0.000000 1.845590 0.000000 
#    z 0.000000 0.000000 1.829700 
# 
# From -- ./inp_files/42470.got.cif
#   From: 2010.03.12/outbox.cif.g09.slc.cpg/sg64_22_cif.got.tgz:42470.got - 2010.04.10 20:19:32.
