data_PCOD8264813
_publ_section_title
;
Structure prediction by ZEFSAII (Michael W. Deem and Ramdas Pophale) SiO2 
 PCOD8264813
Probable space group: C M C A
;
_chemical_formula_sum "Si O2"
_cell_formula_units_Z 64
_cell_length_a 12.874280
_cell_length_b 18.310533
_cell_length_c 12.912605
_cell_angle_alpha 90.000000
_cell_angle_beta 90.000000
_cell_angle_gamma 90.000000
_cell_volume 3043.952020
_symmetry_space_group_name_H-M "C M C A"
_symmetry_group_IT_number 64
_symmetry_cell_setting 'orthorhombic'
loop_
_space_group_symop_operation_xyz
x,y,z
-x,1/2-y,1/2+z
x,-y,-z
-x,1/2+y,1/2-z
-x,-y,-z
x,1/2+y,1/2-z
-x,y,z
x,1/2-y,1/2+z
1/2+x,1/2+y,z
1/2-x,-y,1/2+z
1/2+x,1/2-y,-z
1/2-x,y,1/2-z
1/2-x,1/2-y,-z
1/2+x,y,1/2-z
1/2-x,1/2+y,z
1/2+x,-y,1/2+z
loop_
_atom_site_type_symbol
_atom_site_label
_atom_site_fract_x
_atom_site_fract_y
_atom_site_fract_z
Si Si1 0.212115 0.316552 0.639265
Si Si2 0.679444 0.968121 0.108438
Si Si3 0.116918 0.472385 0.677361
Si Si4 0.881034 0.179605 0.532473
O O1 0.250000 0.287041 0.750000
O O2 0.145090 0.389346 0.652107
O O3 0.139621 0.256692 0.586317
O O4 0.312167 0.333192 0.569202
O O5 0.645436 0.883772 0.115734
O O6 0.805176 0.973098 0.117093
O O7 0.627495 0.015156 0.199505
O O8 0.638947 0.000000 0.000000
O O9 0.000000 0.489369 0.640852
O O10 0.000000 0.176381 0.497452
#
# Coordination Sequence:
#
# PCOD8264813 Si02
#       4
#    16  16  16  16
#     4  11  23  45  66  96 132 163 222 267 314 396
#     4  11  22  43  62  99 127 164 217 265 313 396
#     4  11  23  41  66  95 128 170 210 264 326 374
#     4  11  25  43  67  95 130 175 214 267 327 381
#
# _framework density 21.025299
#
# number of rings (size 3 to 8) (size 9 to 14) (size 15 to 20)
#    0.000    1.000    5.000    1.500    3.500    6.500 
#    0.000    1.250    0.000    0.000    0.000    0.000 
#    0.000    0.000    0.000    0.000    0.000    0.000 
#
# Total GULP energy -396932.379902 kJ/mol
# GULP energy per Si atom -12404.136872 kJ/mol
# Density = 2.097744 g / cm^3
# Si number density = 21.025299 Si / 1000 Ang^3
#
#
#
# Elastic Constant Matrix: (Units=GPa)
#
#
# Indices 1 2 3 4 5 6 
#
# 1 159.0969 58.4324 21.8018 0.0000 0.0000 0.0000
# 2 58.4324 131.5777 41.1291 0.0000 0.0000 0.0000
# 3 21.8018 41.1291 90.8738 0.0000 0.0000 0.0000
# 4 0.0000 0.0000 0.0000 33.7861 0.0000 0.0000
# 5 0.0000 0.0000 0.0000 0.0000 12.3241 0.0000
# 6 0.0000 0.0000 0.0000 0.0000 0.0000 28.4888
#
#
#
# Elastic Compliance Matrix: (Units=1/GPa)
#
#
# Indices 1 2 3 4 5 6 
#
# 1 0.007520 -0.003233 -0.000341 0.000000 0.000000 0.000000
# 2 -0.003233 0.010242 -0.003860 0.000000 0.000000 0.000000
# 3 -0.000341 -0.003860 0.012833 0.000000 0.000000 0.000000
# 4 0.000000 0.000000 0.000000 0.029598 0.000000 0.000000
# 5 0.000000 0.000000 0.000000 0.000000 0.081142 0.000000
# 6 0.000000 0.000000 0.000000 0.000000 0.000000 0.035102
#
#
# Mechanical properties :
#
#
# Convention : Reuss Voigt Hill
#
# Bulk Modulus (GPa) = 63.58292 69.36390 66.47341
# Shear Modulus (GPa) = 25.43933 32.26547 28.85240
#
# Velocity S-wave (km/s) = 3.48219 3.92165 3.70844
# Velocity P-wave (km/s) = 6.81721 7.31902 7.07257
#
# Compressibility (1/GPa) = 0.01572749
#
# Stress axis : x y z
#
# Youngs Moduli (GPa) = 132.98730 97.63423 77.92354
#
# Poissons Ratio (x) = 0.31563 0.02656
# Poissons Ratio (y) = 0.42992 0.30079
# Poissons Ratio (z) = 0.04533 0.37687
#
# Static dielectric constant tensor:
#      x y z
#    x 3.853720 0.000000 0.000000 
#    y 0.000000 3.853300 0.000000 
#    z 0.000000 0.000000 3.904200 
# 
# 
# High freq. dielectric constant tensor:
#      x y z
#    x 1.824790 0.000000 0.000000 
#    y 0.000000 1.828980 0.000000 
#    z 0.000000 0.000000 1.826230 
# 
# From -- ./inp_files/12827.got.cif
#   From: 2010.03.12/outbox.cif.g09.slc.cpg/sg64_7_cif.got.tgz:12827.got - 2010.04.10 20:19:32.
