data_PCOD8264636
_publ_section_title
;
Structure prediction by ZEFSAII (Michael W. Deem and Ramdas Pophale) SiO2 
 PCOD8264636
Probable space group: C M C A
;
_chemical_formula_sum "Si O2"
_cell_formula_units_Z 128
_cell_length_a 24.084675
_cell_length_b 23.505278
_cell_length_c 13.062997
_cell_angle_alpha 90.000000
_cell_angle_beta 90.000000
_cell_angle_gamma 90.000000
_cell_volume 7395.184430
_symmetry_space_group_name_H-M "C M C A"
_symmetry_group_IT_number 64
_symmetry_cell_setting 'orthorhombic'
loop_
_space_group_symop_operation_xyz
x,y,z
-x,1/2-y,1/2+z
x,-y,-z
-x,1/2+y,1/2-z
-x,-y,-z
x,1/2+y,1/2-z
-x,y,z
x,1/2-y,1/2+z
1/2+x,1/2+y,z
1/2-x,-y,1/2+z
1/2+x,1/2-y,-z
1/2-x,y,1/2-z
1/2-x,1/2-y,-z
1/2+x,y,1/2-z
1/2-x,1/2+y,z
1/2+x,-y,1/2+z
loop_
_atom_site_type_symbol
_atom_site_label
_atom_site_fract_x
_atom_site_fract_y
_atom_site_fract_z
Si Si1 0.283637 0.892747 0.957591
Si Si2 0.383237 0.273126 0.875624
Si Si3 0.308076 0.596392 0.694446
Si Si4 0.938207 0.352971 0.487125
Si Si5 0.625366 0.193489 0.696649
Si Si6 0.308150 0.231311 0.044177
Si Si7 0.686576 0.468833 0.717452
Si Si8 0.340615 0.391194 0.893222
O O1 0.301891 0.831977 0.910304
O O2 0.317719 0.940356 0.894712
O O3 0.217397 0.902696 0.950346
O O4 0.300559 0.895681 0.074573
O O5 0.400829 0.240412 0.772957
O O6 0.341565 0.326229 0.850568
O O7 0.437014 0.299265 0.933749
O O8 0.352356 0.229777 0.951979
O O9 0.250000 0.604280 0.750000
O O10 0.350516 0.642062 0.737756
O O11 0.333488 0.533794 0.714629
O O12 0.923603 0.330528 0.374013
O O13 0.891471 0.398762 0.524616
O O14 0.000000 0.379560 0.486464
O O15 0.673763 0.223305 0.630258
O O16 0.250000 0.250000 0.000000
O O17 0.750000 0.463447 0.750000
O O18 0.649481 0.435028 0.800240
#
# Coordination Sequence:
#
# PCOD8264636 Si02
#       8
#    16  16  16  16  16  16  16  16
#     4  11  18  32  52  76 112 145 174 208 251 324
#     4   9  19  31  49  76  99 134 168 213 269 315
#     4  11  21  31  48  76 109 148 179 209 252 304
#     4   9  20  37  55  74 101 134 176 228 276 318
#     4  11  21  32  50  77 108 134 176 216 261 316
#     4  11  18  29  45  76 107 139 167 202 257 308
#     4   9  20  33  49  73 106 148 180 211 252 304
#     4   9  18  35  51  75 106 137 181 214 256 315
#
# _framework density 17.308561999999998
#
# number of rings (size 3 to 8) (size 9 to 14) (size 15 to 20)
#    0.750    1.250    2.500    2.625    0.000    0.500 
#    0.000    1.875    0.000    1.500    0.000    0.000 
#    0.000    2.000    0.000    0.000    0.000    0.000 
#
# Total GULP energy -793156.341870 kJ/mol
# GULP energy per Si atom -12393.067842 kJ/mol
# Density = 1.726917 g / cm^3
# Si number density = 17.308562 Si / 1000 Ang^3
#
#
#
# Elastic Constant Matrix: (Units=GPa)
#
#
# Indices 1 2 3 4 5 6 
#
# 1 62.2449 14.3766 28.4147 0.0000 0.0000 0.0000
# 2 14.3766 82.2628 38.1716 0.0000 0.0000 0.0000
# 3 28.4147 38.1716 118.3919 0.0000 0.0000 0.0000
# 4 0.0000 0.0000 0.0000 26.6796 0.0000 0.0000
# 5 0.0000 0.0000 0.0000 0.0000 10.9169 0.0000
# 6 0.0000 0.0000 0.0000 0.0000 0.0000 5.2840
#
#
#
# Elastic Compliance Matrix: (Units=1/GPa)
#
#
# Indices 1 2 3 4 5 6 
#
# 1 0.018170 -0.001355 -0.003924 0.000000 0.000000 0.000000
# 2 -0.001355 0.014396 -0.004316 0.000000 0.000000 0.000000
# 3 -0.003924 -0.004316 0.010780 0.000000 0.000000 0.000000
# 4 0.000000 0.000000 0.000000 0.037482 0.000000 0.000000
# 5 0.000000 0.000000 0.000000 0.000000 0.091601 0.000000
# 6 0.000000 0.000000 0.000000 0.000000 0.000000 0.189251
#
#
# Mechanical properties :
#
#
# Convention : Reuss Voigt Hill
#
# Bulk Modulus (GPa) = 41.39839 47.20280 44.30060
# Shear Modulus (GPa) = 12.85605 20.70521 16.78063
#
# Velocity S-wave (km/s) = 2.72831 3.46242 3.11706
# Velocity P-wave (km/s) = 5.82192 6.58142 6.21328
#
# Compressibility (1/GPa) = 0.02415553
#
# Stress axis : x y z
#
# Youngs Moduli (GPa) = 55.03642 69.46486 92.76444
#
# Poissons Ratio (x) = 0.09409 0.36402
# Poissons Ratio (y) = 0.07455 0.40040
# Poissons Ratio (z) = 0.21597 0.29983
#
# Static dielectric constant tensor:
#      x y z
#    x 2.762530 0.000000 0.000000 
#    y 0.000000 3.393490 0.000000 
#    z 0.000000 0.000000 3.335030 
# 
# 
# High freq. dielectric constant tensor:
#      x y z
#    x 1.614170 0.000000 0.000000 
#    y 0.000000 1.666560 0.000000 
#    z 0.000000 0.000000 1.679930 
# 
# From -- ./inp_files/19397.got.cif
#   From: 2010.03.12/outbox.cif.g09.slc.cpg/sg64_10_cif.got.tgz:19397.got - 2010.04.10 20:19:32.
