data_PCOD8264198
_publ_section_title
;
Structure prediction by ZEFSAII (Michael W. Deem and Ramdas Pophale) SiO2 
 PCOD8264198
Probable space group: C M C A
;
_chemical_formula_sum "Si O2"
_cell_formula_units_Z 88
_cell_length_a 24.446925
_cell_length_b 32.798171
_cell_length_c 5.105908
_cell_angle_alpha 90.000000
_cell_angle_beta 90.000000
_cell_angle_gamma 90.000000
_cell_volume 4093.990695
_symmetry_space_group_name_H-M "C M C A"
_symmetry_group_IT_number 64
_symmetry_cell_setting 'orthorhombic'
loop_
_space_group_symop_operation_xyz
x,y,z
-x,1/2-y,1/2+z
x,-y,-z
-x,1/2+y,1/2-z
-x,-y,-z
x,1/2+y,1/2-z
-x,y,z
x,1/2-y,1/2+z
1/2+x,1/2+y,z
1/2-x,-y,1/2+z
1/2+x,1/2-y,-z
1/2-x,y,1/2-z
1/2-x,1/2-y,-z
1/2+x,y,1/2-z
1/2-x,1/2+y,z
1/2+x,-y,1/2+z
loop_
_atom_site_type_symbol
_atom_site_label
_atom_site_fract_x
_atom_site_fract_y
_atom_site_fract_z
Si Si1 0.653009 0.500000 0.500000
Si Si2 0.814580 0.273511 0.218465
Si Si3 0.558348 0.462343 0.815587
Si Si4 0.214879 0.922555 0.486761
Si Si5 0.562391 0.628188 0.013574
Si Si6 0.372421 0.353376 0.492229
O O1 0.614044 0.471481 0.669508
O O2 0.691896 0.465754 0.371855
O O3 0.834440 0.260917 0.508985
O O4 0.750000 0.278001 0.250000
O O5 0.837992 0.315351 0.109093
O O6 0.500000 0.457985 0.653120
O O7 0.569033 0.420400 0.964495
O O8 0.548329 0.500000 0.000000
O O9 0.250000 0.903730 0.250000
O O10 0.167123 0.891079 0.546126
O O11 0.250000 0.929606 0.750000
O O12 0.500000 0.642428 0.041650
O O13 0.596963 0.653293 0.230590
O O14 0.581833 0.637604 0.722168
#
# Coordination Sequence:
#
# PCOD8264198 Si02
#       6
#     8  16  16  16  16  16
#     4  12  23  40  60  82 130 168 217 268 324 374
#     4  10  22  41  68 103 133 165 212 268 323 384
#     4  10  22  38  61  89 120 165 226 283 329 375
#     4  12  27  42  61  90 127 175 223 262 313 385
#     4  11  24  42  66  99 130 169 222 275 328 390
#     4  12  23  44  70  95 133 174 214 267 332 395
#
# _framework density 21.494921000000001
#
# number of rings (size 3 to 8) (size 9 to 14) (size 15 to 20)
#    0.000    0.909    1.818    5.182    2.545    2.182 
#    0.000    0.000    0.000   10.909    0.000    0.000 
#    0.000    0.000    0.000    0.000    0.000    0.000 
#
# Total GULP energy -545109.403156 kJ/mol
# GULP energy per Si atom -12388.850072 kJ/mol
# Density = 2.144600 g / cm^3
# Si number density = 21.494921 Si / 1000 Ang^3
#
#
#
# Elastic Constant Matrix: (Units=GPa)
#
#
# Indices 1 2 3 4 5 6 
#
# 1 75.8970 18.8387 43.0167 0.0000 0.0000 0.0000
# 2 18.8387 94.1223 9.0783 0.0000 0.0000 0.0000
# 3 43.0167 9.0783 84.0362 0.0000 0.0000 0.0000
# 4 0.0000 0.0000 0.0000 31.5150 0.0000 0.0000
# 5 0.0000 0.0000 0.0000 0.0000 50.2284 0.0000
# 6 0.0000 0.0000 0.0000 0.0000 0.0000 37.8468
#
#
#
# Elastic Compliance Matrix: (Units=1/GPa)
#
#
# Indices 1 2 3 4 5 6 
#
# 1 0.019337 -0.002946 -0.009580 0.000000 0.000000 0.000000
# 2 -0.002946 0.011185 0.000300 0.000000 0.000000 0.000000
# 3 -0.009580 0.000300 0.016771 0.000000 0.000000 0.000000
# 4 0.000000 0.000000 0.000000 0.031731 0.000000 0.000000
# 5 0.000000 0.000000 0.000000 0.000000 0.019909 0.000000
# 6 0.000000 0.000000 0.000000 0.000000 0.000000 0.026422
#
#
# Mechanical properties :
#
#
# Convention : Reuss Voigt Hill
#
# Bulk Modulus (GPa) = 43.78213 43.99143 43.88678
# Shear Modulus (GPa) = 31.76191 36.12616 33.94404
#
# Velocity S-wave (km/s) = 3.84819 4.10406 3.97818
# Velocity P-wave (km/s) = 6.33700 6.55501 6.44693
#
# Compressibility (1/GPa) = 0.02284037
#
# Stress axis : x y z
#
# Youngs Moduli (GPa) = 51.71516 89.40345 59.62668
#
# Poissons Ratio (x) = 0.26341 0.57121
# Poissons Ratio (y) = 0.15237 -0.01788
# Poissons Ratio (z) = 0.49542 -0.02680
#
# Static dielectric constant tensor:
#      x y z
#    x 4.920220 0.000000 0.000000 
#    y 0.000000 3.774940 0.000000 
#    z 0.000000 0.000000 3.947110 
# 
# 
# High freq. dielectric constant tensor:
#      x y z
#    x 1.861920 0.000000 0.000000 
#    y 0.000000 1.835980 0.000000 
#    z 0.000000 0.000000 1.838110 
# 
# From -- ./inp_files/2434.got.cif
#   From: 2010.03.12/outbox.cif.g09.slc.cpg/sg64_2_cif.got.tgz:2434.got - 2010.04.10 20:19:32.
