data_PCOD8264453
_publ_section_title
;
Structure prediction by ZEFSAII (Michael W. Deem and Ramdas Pophale) SiO2 
 PCOD8264453
Probable space group: C M C A
;
_chemical_formula_sum "Si O2"
_cell_formula_units_Z 112
_cell_length_a 14.345593
_cell_length_b 31.747677
_cell_length_c 11.756037
_cell_angle_alpha 90.000000
_cell_angle_beta 90.000000
_cell_angle_gamma 90.000000
_cell_volume 5354.160709
_symmetry_space_group_name_H-M "C M C A"
_symmetry_group_IT_number 64
_symmetry_cell_setting 'orthorhombic'
loop_
_space_group_symop_operation_xyz
x,y,z
-x,1/2-y,1/2+z
x,-y,-z
-x,1/2+y,1/2-z
-x,-y,-z
x,1/2+y,1/2-z
-x,y,z
x,1/2-y,1/2+z
1/2+x,1/2+y,z
1/2-x,-y,1/2+z
1/2+x,1/2-y,-z
1/2-x,y,1/2-z
1/2-x,1/2-y,-z
1/2+x,y,1/2-z
1/2-x,1/2+y,z
1/2+x,-y,1/2+z
loop_
_atom_site_type_symbol
_atom_site_label
_atom_site_fract_x
_atom_site_fract_y
_atom_site_fract_z
Si Si1 0.110161 0.265782 0.091394
Si Si2 0.603630 0.453735 0.011262
Si Si3 0.225916 0.310199 0.524957
Si Si4 0.396242 0.453286 0.488923
Si Si5 0.395699 0.676658 0.805007
Si Si6 0.251814 0.400491 0.881403
Si Si7 0.140549 0.583471 0.750821
O O1 0.172127 0.289543 0.995535
O O2 0.124271 0.286612 0.214439
O O3 0.000000 0.265518 0.056944
O O4 0.153836 0.218914 0.095794
O O5 0.500000 0.455855 0.960658
O O6 0.599076 0.438702 0.140605
O O7 0.650416 0.500000 0.000000
O O8 0.656763 0.420056 0.936163
O O9 0.180419 0.321686 0.403744
O O10 0.244476 0.350745 0.600940
O O11 0.351897 0.500000 0.500000
O O12 0.500000 0.453635 0.540625
O O13 0.338803 0.419211 0.558879
O O14 0.401128 0.440511 0.357800
O O15 0.500000 0.682136 0.855531
O O16 0.388650 0.632159 0.740973
O O17 0.250000 0.411993 0.750000
O O18 0.250000 0.578677 0.750000
#
# Coordination Sequence:
#
# PCOD8264453 Si02
#       7
#    16  16  16  16  16  16  16
#     4  10  23  40  65  96 128 166 217 277 337 397
#     4  11  25  43  67  98 133 176 227 281 336 398
#     4  11  23  42  64  93 131 172 219 269 336 403
#     4  11  25  43  65  96 133 174 222 278 337 397
#     4  11  21  38  66  97 130 167 216 274 331 399
#     4  12  27  44  66  94 135 181 223 271 335 406
#     4  12  22  39  70 100 131 171 222 279 334 395
#
# _framework density 20.918310999999999
#
# number of rings (size 3 to 8) (size 9 to 14) (size 15 to 20)
#    0.000    0.857    2.857    4.286    2.000    5.143 
#    0.000    0.000    0.000    0.000    0.000    0.000 
#    0.000    0.000    0.000    0.000    0.000    0.000 
#
# Total GULP energy -694578.514006 kJ/mol
# GULP energy per Si atom -12403.187750 kJ/mol
# Density = 2.087070 g / cm^3
# Si number density = 20.918311 Si / 1000 Ang^3
#
#
#
# Elastic Constant Matrix: (Units=GPa)
#
#
# Indices 1 2 3 4 5 6 
#
# 1 126.9295 29.6098 20.1078 0.0000 0.0000 0.0000
# 2 29.6098 152.0263 47.8923 0.0000 0.0000 0.0000
# 3 20.1078 47.8923 119.1332 0.0000 0.0000 0.0000
# 4 0.0000 0.0000 0.0000 32.2892 0.0000 0.0000
# 5 0.0000 0.0000 0.0000 0.0000 63.3233 0.0000
# 6 0.0000 0.0000 0.0000 0.0000 0.0000 87.1330
#
#
#
# Elastic Compliance Matrix: (Units=1/GPa)
#
#
# Indices 1 2 3 4 5 6 
#
# 1 0.008330 -0.001351 -0.000863 0.000000 0.000000 0.000000
# 2 -0.001351 0.007751 -0.002888 0.000000 0.000000 0.000000
# 3 -0.000863 -0.002888 0.009701 0.000000 0.000000 0.000000
# 4 0.000000 0.000000 0.000000 0.030970 0.000000 0.000000
# 5 0.000000 0.000000 0.000000 0.000000 0.015792 0.000000
# 6 0.000000 0.000000 0.000000 0.000000 0.000000 0.011477
#
#
# Mechanical properties :
#
#
# Convention : Reuss Voigt Hill
#
# Bulk Modulus (GPa) = 64.19141 65.92320 65.05731
# Shear Modulus (GPa) = 50.29378 56.58105 53.43741
#
# Velocity S-wave (km/s) = 4.90868 5.20647 5.05976
# Velocity P-wave (km/s) = 7.92970 8.22958 8.08103
#
# Compressibility (1/GPa) = 0.01557841
#
# Stress axis : x y z
#
# Youngs Moduli (GPa) = 120.04564 129.02233 103.08679
#
# Poissons Ratio (x) = 0.17425 0.08897
# Poissons Ratio (y) = 0.16213 0.29770
# Poissons Ratio (z) = 0.10361 0.37260
#
# Static dielectric constant tensor:
#      x y z
#    x 4.019420 0.000000 0.000000 
#    y 0.000000 3.993040 0.000000 
#    z 0.000000 0.000000 4.026520 
# 
# 
# High freq. dielectric constant tensor:
#      x y z
#    x 1.839750 0.000000 0.000000 
#    y 0.000000 1.833080 0.000000 
#    z 0.000000 0.000000 1.803700 
# 
# From -- ./inp_files/14933.got.cif
#   From: 2010.03.12/outbox.cif.g09.slc.cpg/sg64_8_cif.got.tgz:14933.got - 2010.04.10 20:19:32.
