data_PCOD8264589
_publ_section_title
;
Structure prediction by ZEFSAII (Michael W. Deem and Ramdas Pophale) SiO2 
 PCOD8264589
Probable space group: C M C A
;
_chemical_formula_sum "Si O2"
_cell_formula_units_Z 56
_cell_length_a 14.149234
_cell_length_b 21.763226
_cell_length_c 8.609236
_cell_angle_alpha 90.000000
_cell_angle_beta 90.000000
_cell_angle_gamma 90.000000
_cell_volume 2651.067673
_symmetry_space_group_name_H-M "C M C A"
_symmetry_group_IT_number 64
_symmetry_cell_setting 'orthorhombic'
loop_
_space_group_symop_operation_xyz
x,y,z
-x,1/2-y,1/2+z
x,-y,-z
-x,1/2+y,1/2-z
-x,-y,-z
x,1/2+y,1/2-z
-x,y,z
x,1/2-y,1/2+z
1/2+x,1/2+y,z
1/2-x,-y,1/2+z
1/2+x,1/2-y,-z
1/2-x,y,1/2-z
1/2-x,1/2-y,-z
1/2+x,y,1/2-z
1/2-x,1/2+y,z
1/2+x,-y,1/2+z
loop_
_atom_site_type_symbol
_atom_site_label
_atom_site_fract_x
_atom_site_fract_y
_atom_site_fract_z
Si Si1 0.750000 0.237465 0.750000
Si Si2 0.500000 0.911371 0.931323
Si Si3 0.696149 0.058952 0.590542
Si Si4 0.315284 0.835703 0.984526
Si Si5 0.500000 0.972502 0.265424
O O1 0.692849 0.279519 0.632596
O O2 0.824171 0.193842 0.657026
O O3 0.406788 0.870888 0.927059
O O4 0.500000 0.954613 0.776449
O O5 0.500000 0.944433 0.095715
O O6 0.750000 0.065118 0.750000
O O7 0.722838 0.118920 0.486301
O O8 0.586142 0.049801 0.627414
O O9 0.736384 0.000000 0.500000
#
# Coordination Sequence:
#
# PCOD8264589 Si02
#       5
#     8   8  16  16   8
#     4  10  24  44  66  92 126 182 228 262 336 384
#     4  11  22  40  68  98 132 170 219 276 328 398
#     4  12  24  41  67  97 135 173 211 276 335 397
#     4  11  23  44  67  94 131 175 220 278 325 395
#     4  11  23  40  60 104 134 168 218 262 342 401
#
# _framework density 21.123566
#
# number of rings (size 3 to 8) (size 9 to 14) (size 15 to 20)
#    0.000    0.857    4.286    2.143    6.000    1.143 
#    0.000    5.714    0.000    0.000    0.000    0.000 
#    0.000    0.000    0.000    0.000    0.000    0.000 
#
# Total GULP energy -347006.566608 kJ/mol
# GULP energy per Si atom -12393.091665 kJ/mol
# Density = 2.107549 g / cm^3
# Si number density = 21.123566 Si / 1000 Ang^3
#
#
#
# Elastic Constant Matrix: (Units=GPa)
#
#
# Indices 1 2 3 4 5 6 
#
# 1 142.8480 61.7834 27.4942 0.0000 0.0000 0.0000
# 2 61.7834 133.2354 34.7141 0.0000 0.0000 0.0000
# 3 27.4942 34.7141 56.7970 0.0000 0.0000 0.0000
# 4 0.0000 0.0000 0.0000 36.3516 0.0000 0.0000
# 5 0.0000 0.0000 0.0000 0.0000 17.6695 0.0000
# 6 0.0000 0.0000 0.0000 0.0000 0.0000 33.5462
#
#
#
# Elastic Compliance Matrix: (Units=1/GPa)
#
#
# Indices 1 2 3 4 5 6 
#
# 1 0.008970 -0.003602 -0.002141 0.000000 0.000000 0.000000
# 2 -0.003602 0.010373 -0.004597 0.000000 0.000000 0.000000
# 3 -0.002141 -0.004597 0.021452 0.000000 0.000000 0.000000
# 4 0.000000 0.000000 0.000000 0.027509 0.000000 0.000000
# 5 0.000000 0.000000 0.000000 0.000000 0.056595 0.000000
# 6 0.000000 0.000000 0.000000 0.000000 0.000000 0.029810
#
#
# Mechanical properties :
#
#
# Convention : Reuss Voigt Hill
#
# Bulk Modulus (GPa) = 49.70829 64.54041 57.12435
# Shear Modulus (GPa) = 27.45832 31.43938 29.44885
#
# Velocity S-wave (km/s) = 3.60931 3.86211 3.73785
# Velocity P-wave (km/s) = 6.39943 7.10689 6.76242
#
# Compressibility (1/GPa) = 0.02011737
#
# Stress axis : x y z
#
# Youngs Moduli (GPa) = 111.47803 96.40046 46.61495
#
# Poissons Ratio (x) = 0.34723 0.09980
# Poissons Ratio (y) = 0.40153 0.21427
# Poissons Ratio (z) = 0.23866 0.44311
#
# Static dielectric constant tensor:
#      x y z
#    x 3.951050 0.000000 0.000000 
#    y 0.000000 4.445650 0.000000 
#    z 0.000000 0.000000 4.171520 
# 
# 
# High freq. dielectric constant tensor:
#      x y z
#    x 1.804610 0.000000 0.000000 
#    y 0.000000 1.849350 0.000000 
#    z 0.000000 0.000000 1.841130 
# 
# From -- ./inp_files/5390.got.cif
#   From: 2010.03.12/outbox.cif.g09.slc.cpg/sg64_3_cif.got.tgz:5390.got - 2010.04.10 20:19:32.
