data_PCOD8264909
_publ_section_title
;
Structure prediction by ZEFSAII (Michael W. Deem and Ramdas Pophale) SiO2 
 PCOD8264909
Probable space group: C M C A
;
_chemical_formula_sum "Si O2"
_cell_formula_units_Z 80
_cell_length_a 16.837115
_cell_length_b 8.212014
_cell_length_c 23.400602
_cell_angle_alpha 90.000000
_cell_angle_beta 90.000000
_cell_angle_gamma 90.000000
_cell_volume 3235.522240
_symmetry_space_group_name_H-M "C M C A"
_symmetry_group_IT_number 64
_symmetry_cell_setting 'orthorhombic'
loop_
_space_group_symop_operation_xyz
x,y,z
-x,1/2-y,1/2+z
x,-y,-z
-x,1/2+y,1/2-z
-x,-y,-z
x,1/2+y,1/2-z
-x,y,z
x,1/2-y,1/2+z
1/2+x,1/2+y,z
1/2-x,-y,1/2+z
1/2+x,1/2-y,-z
1/2-x,y,1/2-z
1/2-x,1/2-y,-z
1/2+x,y,1/2-z
1/2-x,1/2+y,z
1/2+x,-y,1/2+z
loop_
_atom_site_type_symbol
_atom_site_label
_atom_site_fract_x
_atom_site_fract_y
_atom_site_fract_z
Si Si1 0.589158 0.137948 0.928728
Si Si2 0.333147 0.318537 0.021530
Si Si3 0.408361 0.509402 0.729315
Si Si4 0.668957 0.350141 0.631902
Si Si5 0.846745 0.318836 0.670340
O O1 0.500000 0.070942 0.920913
O O2 0.600727 0.801210 0.006379
O O3 0.653684 0.002580 0.910778
O O4 0.603853 0.294777 0.887869
O O5 0.340275 0.309203 0.090996
O O6 0.347107 0.500000 0.000000
O O7 0.250000 0.250000 0.000000
O O8 0.500000 0.562236 0.725820
O O9 0.392449 0.357096 0.685349
O O10 0.352289 0.655156 0.708387
O O11 0.385237 0.466005 0.793879
O O12 0.756364 0.362491 0.657674
#
# Coordination Sequence:
#
# PCOD8264909 Si02
#       5
#    16  16  16  16  16
#     4  11  25  47  76 107 148 196 244 304 374 433
#     4  12  26  45  72 106 149 193 243 303 364 436
#     4  11  25  46  70 103 146 188 239 301 371 430
#     4  11  24  43  72 104 140 193 245 297 359 438
#     4  11  24  43  70 102 144 188 243 294 356 438
#
# _framework density 24.725529999999999
#
# number of rings (size 3 to 8) (size 9 to 14) (size 15 to 20)
#    0.000    0.800    2.000    6.000    2.800   10.800 
#    0.000    2.000    0.000    0.000    0.000    0.000 
#    0.000    0.000    0.000    0.000    0.000    0.000 
#
# Total GULP energy -496000.711199 kJ/mol
# GULP energy per Si atom -12400.017780 kJ/mol
# Density = 2.466925 g / cm^3
# Si number density = 24.725530 Si / 1000 Ang^3
#
#
#
# Elastic Constant Matrix: (Units=GPa)
#
#
# Indices 1 2 3 4 5 6 
#
# 1 157.4301 48.2959 40.6514 0.0000 0.0000 0.0000
# 2 48.2959 67.5429 2.7449 0.0000 0.0000 0.0000
# 3 40.6514 2.7449 102.3710 0.0000 0.0000 0.0000
# 4 0.0000 0.0000 0.0000 47.8651 0.0000 0.0000
# 5 0.0000 0.0000 0.0000 0.0000 39.4093 0.0000
# 6 0.0000 0.0000 0.0000 0.0000 0.0000 33.1760
#
#
#
# Elastic Compliance Matrix: (Units=1/GPa)
#
#
# Indices 1 2 3 4 5 6 
#
# 1 0.009237 -0.006463 -0.003495 0.000000 0.000000 0.000000
# 2 -0.006463 0.019343 0.002048 0.000000 0.000000 0.000000
# 3 -0.003495 0.002048 0.011101 0.000000 0.000000 0.000000
# 4 0.000000 0.000000 0.000000 0.020892 0.000000 0.000000
# 5 0.000000 0.000000 0.000000 0.000000 0.025375 0.000000
# 6 0.000000 0.000000 0.000000 0.000000 0.000000 0.030142
#
#
# Mechanical properties :
#
#
# Convention : Reuss Voigt Hill
#
# Bulk Modulus (GPa) = 41.90766 56.74760 49.32763
# Shear Modulus (GPa) = 35.74888 39.80020 37.77454
#
# Velocity S-wave (km/s) = 3.80653 4.01643 3.91289
# Velocity P-wave (km/s) = 6.02541 6.67157 6.35670
#
# Compressibility (1/GPa) = 0.02386198
#
# Stress axis : x y z
#
# Youngs Moduli (GPa) = 108.25918 51.69722 90.07996
#
# Poissons Ratio (x) = 0.33411 0.31481
# Poissons Ratio (y) = 0.69966 -0.18446
# Poissons Ratio (z) = 0.37834 -0.10586
#
# Static dielectric constant tensor:
#      x y z
#    x 4.212850 0.000000 0.000000 
#    y 0.000000 4.398490 0.000000 
#    z 0.000000 0.000000 5.164110 
# 
# 
# High freq. dielectric constant tensor:
#      x y z
#    x 1.969820 0.000000 0.000000 
#    y 0.000000 1.972670 0.000000 
#    z 0.000000 0.000000 2.008300 
# 
# From -- ./inp_files/53530.got.cif
#   From: 2010.03.12/outbox.cif.g09.slc.cpg/sg64_27_cif.got.tgz:53530.got - 2010.04.10 20:19:32.
