data_PCOD8264614
_publ_section_title
;
Structure prediction by ZEFSAII (Michael W. Deem and Ramdas Pophale) SiO2 
 PCOD8264614
Probable space group: C M C A
;
_chemical_formula_sum "Si O2"
_cell_formula_units_Z 112
_cell_length_a 15.479570
_cell_length_b 10.270043
_cell_length_c 30.196825
_cell_angle_alpha 90.000000
_cell_angle_beta 90.000000
_cell_angle_gamma 90.000000
_cell_volume 4800.565907
_symmetry_space_group_name_H-M "C M C A"
_symmetry_group_IT_number 64
_symmetry_cell_setting 'orthorhombic'
loop_
_space_group_symop_operation_xyz
x,y,z
-x,1/2-y,1/2+z
x,-y,-z
-x,1/2+y,1/2-z
-x,-y,-z
x,1/2+y,1/2-z
-x,y,z
x,1/2-y,1/2+z
1/2+x,1/2+y,z
1/2-x,-y,1/2+z
1/2+x,1/2-y,-z
1/2-x,y,1/2-z
1/2-x,1/2-y,-z
1/2+x,y,1/2-z
1/2-x,1/2+y,z
1/2+x,-y,1/2+z
loop_
_atom_site_type_symbol
_atom_site_label
_atom_site_fract_x
_atom_site_fract_y
_atom_site_fract_z
Si Si1 0.594389 0.661822 0.728018
Si Si2 0.273846 0.046165 0.201681
Si Si3 0.184682 0.132392 0.907039
Si Si4 0.402828 0.260777 0.174351
Si Si5 0.673201 0.335814 0.912331
Si Si6 0.595269 0.653919 0.996140
Si Si7 0.093762 0.410452 0.671178
O O1 0.500000 0.601150 0.716332
O O2 0.672032 0.586175 0.704937
O O3 0.607579 0.653761 0.780947
O O4 0.597260 0.809973 0.711850
O O5 0.250000 0.103554 0.250000
O O6 0.332071 0.146725 0.174056
O O7 0.185629 0.011058 0.174897
O O8 0.112498 0.142403 0.867716
O O9 0.263108 0.225730 0.893869
O O10 0.146347 0.193623 0.952133
O O11 0.213510 0.982560 0.914905
O O12 0.500000 0.202296 0.171718
O O13 0.594607 0.339662 0.876761
O O14 0.641257 0.288792 0.960327
O O15 0.500000 0.715612 0.993097
O O16 0.588216 0.500000 0.000000
O O17 0.000000 0.486353 0.675193
#
# Coordination Sequence:
#
# PCOD8264614 Si02
#       7
#    16  16  16  16  16  16  16
#     4  10  25  44  63  91 131 176 222 276 340 401
#     4  12  25  39  67  88 131 175 222 273 342 396
#     4  11  24  41  66 101 131 176 218 285 332 416
#     4  11  24  42  64  97 130 171 226 280 334 401
#     4  11  24  41  69  97 135 171 228 271 349 394
#     4   9  19  40  67  98 132 169 218 279 338 400
#     4  11  25  43  63  94 130 171 227 277 326 401
#
# _framework density 23.330580999999999
#
# number of rings (size 3 to 8) (size 9 to 14) (size 15 to 20)
#    0.000    1.286    2.857    1.714    6.000    2.286 
#    0.000    0.000    0.000    3.429    0.000    0.000 
#    0.000    0.000    0.000    0.000    0.000    0.000 
#
# Total GULP energy -694153.802169 kJ/mol
# GULP energy per Si atom -12395.603610 kJ/mol
# Density = 2.327748 g / cm^3
# Si number density = 23.330581 Si / 1000 Ang^3
#
#
#
# Elastic Constant Matrix: (Units=GPa)
#
#
# Indices 1 2 3 4 5 6 
#
# 1 178.4871 43.8806 29.5779 0.0000 0.0000 0.0000
# 2 43.8806 56.9243 -5.3291 0.0000 0.0000 0.0000
# 3 29.5779 -5.3291 112.7006 0.0000 0.0000 0.0000
# 4 0.0000 0.0000 0.0000 27.9135 0.0000 0.0000
# 5 0.0000 0.0000 0.0000 0.0000 35.3379 0.0000
# 6 0.0000 0.0000 0.0000 0.0000 0.0000 31.8482
#
#
#
# Elastic Compliance Matrix: (Units=1/GPa)
#
#
# Indices 1 2 3 4 5 6 
#
# 1 0.007432 -0.005938 -0.002231 0.000000 0.000000 0.000000
# 2 -0.005938 0.022390 0.002617 0.000000 0.000000 0.000000
# 3 -0.002231 0.002617 0.009582 0.000000 0.000000 0.000000
# 4 0.000000 0.000000 0.000000 0.035825 0.000000 0.000000
# 5 0.000000 0.000000 0.000000 0.000000 0.028298 0.000000
# 6 0.000000 0.000000 0.000000 0.000000 0.000000 0.031399
#
#
# Mechanical properties :
#
#
# Convention : Reuss Voigt Hill
#
# Bulk Modulus (GPa) = 35.33612 53.81900 44.57756
# Shear Modulus (GPa) = 32.16170 37.68543 34.92357
#
# Velocity S-wave (km/s) = 3.71687 4.02342 3.87318
# Velocity P-wave (km/s) = 5.79646 6.68595 6.25703
#
# Compressibility (1/GPa) = 0.02829965
#
# Stress axis : x y z
#
# Youngs Moduli (GPa) = 134.54802 44.66350 104.35758
#
# Poissons Ratio (x) = 0.26522 0.23286
# Poissons Ratio (y) = 0.79896 -0.27312
# Poissons Ratio (z) = 0.30023 -0.11689
#
# Static dielectric constant tensor:
#      x y z
#    x 4.512030 0.000000 0.000000 
#    y 0.000000 3.712310 0.000000 
#    z 0.000000 0.000000 4.505230 
# 
# 
# High freq. dielectric constant tensor:
#      x y z
#    x 1.934970 0.000000 0.000000 
#    y 0.000000 1.896600 0.000000 
#    z 0.000000 0.000000 1.935720 
# 
# From -- ./inp_files/53256.got.cif
#   From: 2010.03.12/outbox.cif.g09.slc.cpg/sg64_27_cif.got.tgz:53256.got - 2010.04.10 20:19:32.
