data_PCOD8264489
_publ_section_title
;
Structure prediction by ZEFSAII (Michael W. Deem and Ramdas Pophale) SiO2 
 PCOD8264489
Probable space group: C M C A
;
_chemical_formula_sum "Si O2"
_cell_formula_units_Z 80
_cell_length_a 23.567873
_cell_length_b 11.317757
_cell_length_c 13.516517
_cell_angle_alpha 90.000000
_cell_angle_beta 90.000000
_cell_angle_gamma 90.000000
_cell_volume 3605.334374
_symmetry_space_group_name_H-M "C M C A"
_symmetry_group_IT_number 64
_symmetry_cell_setting 'orthorhombic'
loop_
_space_group_symop_operation_xyz
x,y,z
-x,1/2-y,1/2+z
x,-y,-z
-x,1/2+y,1/2-z
-x,-y,-z
x,1/2+y,1/2-z
-x,y,z
x,1/2-y,1/2+z
1/2+x,1/2+y,z
1/2-x,-y,1/2+z
1/2+x,1/2-y,-z
1/2-x,y,1/2-z
1/2-x,1/2-y,-z
1/2+x,y,1/2-z
1/2-x,1/2+y,z
1/2+x,-y,1/2+z
loop_
_atom_site_type_symbol
_atom_site_label
_atom_site_fract_x
_atom_site_fract_y
_atom_site_fract_z
Si Si1 0.565281 0.722024 0.675259
Si Si2 0.630938 0.368477 0.958411
Si Si3 0.352591 0.221139 0.154565
Si Si4 0.354368 0.961835 0.108838
Si Si5 0.730180 0.759270 0.112982
O O1 0.500000 0.712461 0.705296
O O2 0.575163 0.839242 0.607462
O O3 0.603527 0.714743 0.773549
O O4 0.585827 0.608036 0.612928
O O5 0.683671 0.347738 0.881462
O O6 0.629417 0.500000 0.000000
O O7 0.634750 0.270801 0.045100
O O8 0.286164 0.246223 0.182710
O O9 0.361483 0.081623 0.170430
O O10 0.301364 0.880781 0.143259
O O11 0.338596 0.000000 0.000000
O O12 0.750000 0.750000 0.000000
#
# Coordination Sequence:
#
# PCOD8264489 Si02
#       5
#    16  16  16  16  16
#     4  11  27  47  66  97 135 183 241 284 327 393
#     4  10  23  42  67 103 137 176 220 276 350 408
#     4  11  24  42  69 102 140 179 224 277 350 408
#     4  11  21  44  69 102 133 176 230 280 349 413
#     4   9  19  36  69  99 136 170 207 278 342 414
#
# _framework density 22.189342
#
# number of rings (size 3 to 8) (size 9 to 14) (size 15 to 20)
#    0.000    1.600    6.000    0.000    8.400    5.600 
#    0.000    4.000    0.000    0.000    0.000    0.000 
#    0.000    0.000    0.000    0.000    0.000    0.000 
#
# Total GULP energy -495634.192609 kJ/mol
# GULP energy per Si atom -12390.854815 kJ/mol
# Density = 2.213884 g / cm^3
# Si number density = 22.189342 Si / 1000 Ang^3
#
#
#
# Elastic Constant Matrix: (Units=GPa)
#
#
# Indices 1 2 3 4 5 6 
#
# 1 184.8940 56.0536 53.3155 0.0000 0.0000 0.0000
# 2 56.0536 141.4352 22.3106 0.0000 0.0000 0.0000
# 3 53.3155 22.3106 43.4835 0.0000 0.0000 0.0000
# 4 0.0000 0.0000 0.0000 20.7226 0.0000 0.0000
# 5 0.0000 0.0000 0.0000 0.0000 34.4123 0.0000
# 6 0.0000 0.0000 0.0000 0.0000 0.0000 20.5874
#
#
#
# Elastic Compliance Matrix: (Units=1/GPa)
#
#
# Indices 1 2 3 4 5 6 
#
# 1 0.008835 -0.001951 -0.009832 0.000000 0.000000 0.000000
# 2 -0.001951 0.008124 -0.001777 0.000000 0.000000 0.000000
# 3 -0.009832 -0.001777 0.035963 0.000000 0.000000 0.000000
# 4 0.000000 0.000000 0.000000 0.048256 0.000000 0.000000
# 5 0.000000 0.000000 0.000000 0.000000 0.029059 0.000000
# 6 0.000000 0.000000 0.000000 0.000000 0.000000 0.048573
#
#
# Mechanical properties :
#
#
# Convention : Reuss Voigt Hill
#
# Bulk Modulus (GPa) = 38.75307 70.35244 54.55276
# Shear Modulus (GPa) = 23.30673 31.02000 27.16337
#
# Velocity S-wave (km/s) = 3.24444 3.74300 3.50260
# Velocity P-wave (km/s) = 5.61585 7.10313 6.40282
#
# Compressibility (1/GPa) = 0.02580441
#
# Stress axis : x y z
#
# Youngs Moduli (GPa) = 113.18762 123.09733 27.80601
#
# Poissons Ratio (x) = 0.24011 0.27338
# Poissons Ratio (y) = 0.22078 0.04940
# Poissons Ratio (z) = 1.11283 0.21868
#
# Static dielectric constant tensor:
#      x y z
#    x 4.042240 0.000000 0.000000 
#    y 0.000000 4.522280 0.000000 
#    z 0.000000 0.000000 4.053320 
# 
# 
# High freq. dielectric constant tensor:
#      x y z
#    x 1.857710 0.000000 0.000000 
#    y 0.000000 1.867310 0.000000 
#    z 0.000000 0.000000 1.883430 
# 
# From -- ./inp_files/27045.got.cif
#   From: 2010.03.12/outbox.cif.g09.slc.cpg/sg64_14_cif.got.tgz:27045.got - 2010.04.10 20:19:32.
