data_PCOD8264836
_publ_section_title
;
Structure prediction by ZEFSAII (Michael W. Deem and Ramdas Pophale) SiO2 
 PCOD8264836
Probable space group: C M C A
;
_chemical_formula_sum "Si O2"
_cell_formula_units_Z 80
_cell_length_a 16.576826
_cell_length_b 29.077841
_cell_length_c 8.767829
_cell_angle_alpha 90.000000
_cell_angle_beta 90.000000
_cell_angle_gamma 90.000000
_cell_volume 4226.254123
_symmetry_space_group_name_H-M "C M C A"
_symmetry_group_IT_number 64
_symmetry_cell_setting 'orthorhombic'
loop_
_space_group_symop_operation_xyz
x,y,z
-x,1/2-y,1/2+z
x,-y,-z
-x,1/2+y,1/2-z
-x,-y,-z
x,1/2+y,1/2-z
-x,y,z
x,1/2-y,1/2+z
1/2+x,1/2+y,z
1/2-x,-y,1/2+z
1/2+x,1/2-y,-z
1/2-x,y,1/2-z
1/2-x,1/2-y,-z
1/2+x,y,1/2-z
1/2-x,1/2+y,z
1/2+x,-y,1/2+z
loop_
_atom_site_type_symbol
_atom_site_label
_atom_site_fract_x
_atom_site_fract_y
_atom_site_fract_z
Si Si1 0.905722 0.599402 0.560829
Si Si2 0.825025 0.119127 0.642586
Si Si3 0.739081 0.450767 0.930642
Si Si4 0.408522 0.290442 0.382924
Si Si5 0.909565 0.700590 0.526924
O O1 0.892306 0.596696 0.744583
O O2 0.853488 0.561569 0.471894
O O3 0.873608 0.649522 0.500399
O O4 0.000000 0.591156 0.527162
O O5 0.750000 0.131805 0.750000
O O6 0.801476 0.084549 0.507848
O O7 0.857873 0.165308 0.561330
O O8 0.750000 0.450988 0.750000
O O9 0.759895 0.500000 0.000000
O O10 0.500000 0.294988 0.447161
O O11 0.365846 0.243135 0.441566
O O12 0.408233 0.288029 0.203247
O O13 0.000000 0.698747 0.462770
#
# Coordination Sequence:
#
# PCOD8264836 Si02
#       5
#    16  16  16  16  16
#     4   9  18  36  59  81 108 142 182 223 263 311
#     4   9  18  34  54  76 104 141 179 218 267 316
#     4  11  23  40  59  79 106 140 174 217 277 331
#     4   9  16  29  49  73 104 140 176 211 254 308
#     4   8  15  27  46  73 105 140 173 213 261 304
#
# _framework density 18.929293999999999
#
# number of rings (size 3 to 8) (size 9 to 14) (size 15 to 20)
#    0.000    2.800    0.000    3.600    0.000    2.000 
#    0.000   14.000    0.000    4.200    0.000    0.000 
#    0.000    0.000    0.000    0.000    0.000    0.000 
#
# Total GULP energy -495672.945931 kJ/mol
# GULP energy per Si atom -12391.823648 kJ/mol
# Density = 1.888621 g / cm^3
# Si number density = 18.929294 Si / 1000 Ang^3
#
#
#
# Elastic Constant Matrix: (Units=GPa)
#
#
# Indices 1 2 3 4 5 6 
#
# 1 45.4688 18.5762 17.2265 0.0000 0.0000 0.0000
# 2 18.5762 91.8980 39.3359 0.0000 0.0000 0.0000
# 3 17.2265 39.3359 72.6216 0.0000 0.0000 0.0000
# 4 0.0000 0.0000 0.0000 37.5397 0.0000 0.0000
# 5 0.0000 0.0000 0.0000 0.0000 21.4060 0.0000
# 6 0.0000 0.0000 0.0000 0.0000 0.0000 29.3435
#
#
#
# Elastic Compliance Matrix: (Units=1/GPa)
#
#
# Indices 1 2 3 4 5 6 
#
# 1 0.024893 -0.003260 -0.004139 0.000000 0.000000 0.000000
# 2 -0.003260 0.014593 -0.007131 0.000000 0.000000 0.000000
# 3 -0.004139 -0.007131 0.018614 0.000000 0.000000 0.000000
# 4 0.000000 0.000000 0.000000 0.026638 0.000000 0.000000
# 5 0.000000 0.000000 0.000000 0.000000 0.046716 0.000000
# 6 0.000000 0.000000 0.000000 0.000000 0.000000 0.034079
#
#
# Mechanical properties :
#
#
# Convention : Reuss Voigt Hill
#
# Bulk Modulus (GPa) = 34.43516 40.02952 37.23234
# Shear Modulus (GPa) = 24.47687 26.64783 25.56235
#
# Velocity S-wave (km/s) = 3.59983 3.75608 3.67878
# Velocity P-wave (km/s) = 5.95897 6.32484 6.14463
#
# Compressibility (1/GPa) = 0.02904009
#
# Stress axis : x y z
#
# Youngs Moduli (GPa) = 40.17161 68.52600 53.72190
#
# Poissons Ratio (x) = 0.22341 0.22235
# Poissons Ratio (y) = 0.13097 0.38309
# Poissons Ratio (z) = 0.16627 0.48866
#
# Static dielectric constant tensor:
#      x y z
#    x 3.520850 0.000000 0.000000 
#    y 0.000000 3.679850 0.000000 
#    z 0.000000 0.000000 3.317230 
# 
# 
# High freq. dielectric constant tensor:
#      x y z
#    x 1.718480 0.000000 0.000000 
#    y 0.000000 1.743180 0.000000 
#    z 0.000000 0.000000 1.713630 
# 
# From -- ./inp_files/7024.got.cif
#   From: 2010.03.12/outbox.cif.g09.slc.cpg/sg64_4_cif.got.tgz:7024.got - 2010.04.10 20:19:32.
