data_PCOD8264446
_publ_section_title
;
Structure prediction by ZEFSAII (Michael W. Deem and Ramdas Pophale) SiO2 
 PCOD8264446
Probable space group: C M C A
;
_chemical_formula_sum "Si O2"
_cell_formula_units_Z 56
_cell_length_a 22.580917
_cell_length_b 23.407258
_cell_length_c 4.813433
_cell_angle_alpha 90.000000
_cell_angle_beta 90.000000
_cell_angle_gamma 90.000000
_cell_volume 2544.175391
_symmetry_space_group_name_H-M "C M C A"
_symmetry_group_IT_number 64
_symmetry_cell_setting 'orthorhombic'
loop_
_space_group_symop_operation_xyz
x,y,z
-x,1/2-y,1/2+z
x,-y,-z
-x,1/2+y,1/2-z
-x,-y,-z
x,1/2+y,1/2-z
-x,y,z
x,1/2-y,1/2+z
1/2+x,1/2+y,z
1/2-x,-y,1/2+z
1/2+x,1/2-y,-z
1/2-x,y,1/2-z
1/2-x,1/2-y,-z
1/2+x,y,1/2-z
1/2-x,1/2+y,z
1/2+x,-y,1/2+z
loop_
_atom_site_type_symbol
_atom_site_label
_atom_site_fract_x
_atom_site_fract_y
_atom_site_fract_z
Si Si1 0.750000 0.461783 0.250000
Si Si2 0.863788 0.395099 0.073546
Si Si3 0.681331 0.713435 0.267189
Si Si4 0.567349 0.065637 0.423106
O O1 0.777187 0.500000 0.500000
O O2 0.799826 0.422602 0.115322
O O3 0.896131 0.391912 0.371989
O O4 0.857348 0.335984 0.906066
O O5 0.905377 0.433885 0.883349
O O6 0.666850 0.770723 0.448184
O O7 0.750000 0.695530 0.250000
O O8 0.500000 0.087618 0.417584
O O9 0.571785 0.000000 0.500000
#
# Coordination Sequence:
#
# PCOD8264446 Si02
#       4
#     8  16  16  16
#     4  12  26  38  58  96 138 164 196 256 334 394
#     4  12  24  40  66  92 127 167 207 262 320 378
#     4  10  23  40  62  91 126 163 208 255 310 381
#     4  11  24  43  65  91 125 171 219 256 302 377
#
# _framework density 22.011061999999999
#
# number of rings (size 3 to 8) (size 9 to 14) (size 15 to 20)
#    0.000    0.857    0.000    7.714   12.000    2.286 
#    0.000    0.000    0.000   17.143    0.000    0.000 
#    0.000    0.000    0.000    0.000    0.000    0.000 
#
# Total GULP energy -347119.159962 kJ/mol
# GULP energy per Si atom -12397.112856 kJ/mol
# Density = 2.196096 g / cm^3
# Si number density = 22.011062 Si / 1000 Ang^3
#
#
#
# Elastic Constant Matrix: (Units=GPa)
#
#
# Indices 1 2 3 4 5 6 
#
# 1 107.7150 27.2329 21.0711 0.0000 0.0000 0.0000
# 2 27.2329 56.7278 7.2833 0.0000 0.0000 0.0000
# 3 21.0711 7.2833 103.0825 0.0000 0.0000 0.0000
# 4 0.0000 0.0000 0.0000 36.3353 0.0000 0.0000
# 5 0.0000 0.0000 0.0000 0.0000 30.6094 0.0000
# 6 0.0000 0.0000 0.0000 0.0000 0.0000 9.2899
#
#
#
# Elastic Compliance Matrix: (Units=1/GPa)
#
#
# Indices 1 2 3 4 5 6 
#
# 1 0.010915 -0.004999 -0.001878 0.000000 0.000000 0.000000
# 2 -0.004999 0.020079 -0.000397 0.000000 0.000000 0.000000
# 3 -0.001878 -0.000397 0.010113 0.000000 0.000000 0.000000
# 4 0.000000 0.000000 0.000000 0.027521 0.000000 0.000000
# 5 0.000000 0.000000 0.000000 0.000000 0.032670 0.000000
# 6 0.000000 0.000000 0.000000 0.000000 0.000000 0.107644
#
#
# Mechanical properties :
#
#
# Convention : Reuss Voigt Hill
#
# Bulk Modulus (GPa) = 37.65143 42.07778 39.86460
# Shear Modulus (GPa) = 21.51999 29.37610 25.44805
#
# Velocity S-wave (km/s) = 3.13020 3.65719 3.40391
# Velocity P-wave (km/s) = 5.49609 6.08207 5.79649
#
# Compressibility (1/GPa) = 0.02655941
#
# Stress axis : x y z
#
# Youngs Moduli (GPa) = 91.61772 49.80397 98.88381
#
# Poissons Ratio (x) = 0.24896 0.18570
# Poissons Ratio (y) = 0.45797 0.03924
# Poissons Ratio (z) = 0.17205 0.01977
#
# Static dielectric constant tensor:
#      x y z
#    x 3.893590 0.000000 0.000000 
#    y 0.000000 3.689270 0.000000 
#    z 0.000000 0.000000 4.457890 
# 
# 
# High freq. dielectric constant tensor:
#      x y z
#    x 1.845700 0.000000 0.000000 
#    y 0.000000 1.850570 0.000000 
#    z 0.000000 0.000000 1.898560 
# 
# From -- ./inp_files/2690.got.cif
#   From: 2010.03.12/outbox.cif.g09.slc.cpg/sg64_2_cif.got.tgz:2690.got - 2010.04.10 20:19:32.
