data_PCOD8264464
_publ_section_title
;
Structure prediction by ZEFSAII (Michael W. Deem and Ramdas Pophale) SiO2 
 PCOD8264464
Probable space group: C M C A
;
_chemical_formula_sum "Si O2"
_cell_formula_units_Z 112
_cell_length_a 13.342701
_cell_length_b 13.604969
_cell_length_c 25.828161
_cell_angle_alpha 90.000000
_cell_angle_beta 90.000000
_cell_angle_gamma 90.000000
_cell_volume 4688.509447
_symmetry_space_group_name_H-M "C M C A"
_symmetry_group_IT_number 64
_symmetry_cell_setting 'orthorhombic'
loop_
_space_group_symop_operation_xyz
x,y,z
-x,1/2-y,1/2+z
x,-y,-z
-x,1/2+y,1/2-z
-x,-y,-z
x,1/2+y,1/2-z
-x,y,z
x,1/2-y,1/2+z
1/2+x,1/2+y,z
1/2-x,-y,1/2+z
1/2+x,1/2-y,-z
1/2-x,y,1/2-z
1/2-x,1/2-y,-z
1/2+x,y,1/2-z
1/2-x,1/2+y,z
1/2+x,-y,1/2+z
loop_
_atom_site_type_symbol
_atom_site_label
_atom_site_fract_x
_atom_site_fract_y
_atom_site_fract_z
Si Si1 0.115878 0.696153 0.221520
Si Si2 0.886451 0.887945 0.827272
Si Si3 0.689778 0.409529 0.201181
Si Si4 0.390849 0.898723 0.473199
Si Si5 0.117625 0.118426 0.388364
Si Si6 0.209912 0.088788 0.599584
Si Si7 0.198652 0.703740 0.429696
O O1 0.166464 0.666099 0.277141
O O2 0.127199 0.811967 0.213077
O O3 0.154803 0.634037 0.171447
O O4 0.000000 0.668560 0.227131
O O5 0.835712 0.865507 0.882294
O O6 0.000000 0.851870 0.832340
O O7 0.883720 0.004926 0.818456
O O8 0.750000 0.449265 0.250000
O O9 0.775586 0.386330 0.159504
O O10 0.500000 0.855300 0.455944
O O11 0.320091 0.922036 0.424910
O O12 0.335435 0.828215 0.513896
O O13 0.413539 0.000000 0.500000
O O14 0.178843 0.195661 0.425036
O O15 0.000000 0.140260 0.394682
O O16 0.141912 0.007750 0.407728
O O17 0.156993 0.185268 0.575707
#
# Coordination Sequence:
#
# PCOD8264464 Si02
#       7
#    16  16  16  16  16  16  16
#     4  10  23  41  63  97 137 181 231 278 341 415
#     4  11  24  41  66  98 137 179 231 287 345 405
#     4  12  23  38  68  97 135 180 228 279 339 410
#     4  11  24  45  73 100 135 174 226 289 342 401
#     4  11  24  44  67  98 140 181 222 281 343 410
#     4  12  25  43  69 101 135 181 229 279 348 414
#     4  12  24  45  70 100 136 180 233 284 346 413
#
# _framework density 23.888186999999999
#
# number of rings (size 3 to 8) (size 9 to 14) (size 15 to 20)
#    0.000    0.714    4.286    3.000    0.000    4.000 
#    0.000    5.000    0.000    0.000    0.000    0.000 
#    0.000    0.000    0.000    0.000    0.000    0.000 
#
# Total GULP energy -694316.316399 kJ/mol
# GULP energy per Si atom -12398.505650 kJ/mol
# Density = 2.383382 g / cm^3
# Si number density = 23.888187 Si / 1000 Ang^3
#
#
#
# Elastic Constant Matrix: (Units=GPa)
#
#
# Indices 1 2 3 4 5 6 
#
# 1 71.9829 -4.8346 24.3529 0.0000 0.0000 0.0000
# 2 -4.8346 108.5524 -0.5062 0.0000 0.0000 0.0000
# 3 24.3529 -0.5062 82.2695 0.0000 0.0000 0.0000
# 4 0.0000 0.0000 0.0000 35.2623 0.0000 0.0000
# 5 0.0000 0.0000 0.0000 0.0000 29.0394 0.0000
# 6 0.0000 0.0000 0.0000 0.0000 0.0000 20.7853
#
#
#
# Elastic Compliance Matrix: (Units=1/GPa)
#
#
# Indices 1 2 3 4 5 6 
#
# 1 0.015487 0.000668 -0.004580 0.000000 0.000000 0.000000
# 2 0.000668 0.009241 -0.000141 0.000000 0.000000 0.000000
# 3 -0.004580 -0.000141 0.013510 0.000000 0.000000 0.000000
# 4 0.000000 0.000000 0.000000 0.028359 0.000000 0.000000
# 5 0.000000 0.000000 0.000000 0.000000 0.034436 0.000000
# 6 0.000000 0.000000 0.000000 0.000000 0.000000 0.048111
#
#
# Mechanical properties :
#
#
# Convention : Reuss Voigt Hill
#
# Bulk Modulus (GPa) = 33.18683 33.42546 33.30614
# Shear Modulus (GPa) = 29.88763 33.27027 31.57895
#
# Velocity S-wave (km/s) = 3.54099 3.73600 3.63981
# Velocity P-wave (km/s) = 5.53542 5.71254 5.62468
#
# Compressibility (1/GPa) = 0.03013243
#
# Stress axis : x y z
#
# Youngs Moduli (GPa) = 64.57194 108.21042 74.01875
#
# Poissons Ratio (x) = -0.07232 0.33902
# Poissons Ratio (y) = -0.04316 0.01044
# Poissons Ratio (z) = 0.29575 0.01526
#
# Static dielectric constant tensor:
#      x y z
#    x 4.177470 0.000000 0.000000 
#    y 0.000000 4.262030 0.000000 
#    z 0.000000 0.000000 3.472990 
# 
# 
# High freq. dielectric constant tensor:
#      x y z
#    x 1.939510 0.000000 0.000000 
#    y 0.000000 1.954140 0.000000 
#    z 0.000000 0.000000 1.957550 
# 
# From -- ./inp_files/45302.got.cif
#   From: 2010.03.12/outbox.cif.g09.slc.cpg/sg64_23_cif.got.tgz:45302.got - 2010.04.10 20:19:32.
