data_PCOD8264144
_publ_section_title
;
Structure prediction by ZEFSAII (Michael W. Deem and Ramdas Pophale) SiO2 
 PCOD8264144
Probable space group: C M C A
;
_chemical_formula_sum "Si O2"
_cell_formula_units_Z 96
_cell_length_a 21.285163
_cell_length_b 9.860474
_cell_length_c 23.875829
_cell_angle_alpha 90.000000
_cell_angle_beta 90.000000
_cell_angle_gamma 90.000000
_cell_volume 5011.101880
_symmetry_space_group_name_H-M "C M C A"
_symmetry_group_IT_number 64
_symmetry_cell_setting 'orthorhombic'
loop_
_space_group_symop_operation_xyz
x,y,z
-x,1/2-y,1/2+z
x,-y,-z
-x,1/2+y,1/2-z
-x,-y,-z
x,1/2+y,1/2-z
-x,y,z
x,1/2-y,1/2+z
1/2+x,1/2+y,z
1/2-x,-y,1/2+z
1/2+x,1/2-y,-z
1/2-x,y,1/2-z
1/2-x,1/2-y,-z
1/2+x,y,1/2-z
1/2-x,1/2+y,z
1/2+x,-y,1/2+z
loop_
_atom_site_type_symbol
_atom_site_label
_atom_site_fract_x
_atom_site_fract_y
_atom_site_fract_z
Si Si1 0.756290 0.042573 0.379219
Si Si2 0.317255 0.344349 0.720598
Si Si3 0.704253 0.786290 0.051112
Si Si4 0.068613 0.951764 0.089250
Si Si5 0.428688 0.716159 0.014498
Si Si6 0.347136 0.557115 0.804447
O O1 0.777461 0.934081 0.425464
O O2 0.722475 0.959612 0.329534
O O3 0.813407 0.112281 0.345185
O O4 0.712457 0.161296 0.405458
O O5 0.250000 0.323079 0.750000
O O6 0.359740 0.450120 0.755000
O O7 0.355415 0.204485 0.722324
O O8 0.630650 0.807041 0.034142
O O9 0.750000 0.750000 0.000000
O O10 0.108619 0.969602 0.143840
O O11 0.000000 0.917141 0.111346
O O12 0.068933 0.088551 0.054553
O O13 0.090203 0.829787 0.048412
O O14 0.500000 0.783641 0.015675
#
# Coordination Sequence:
#
# PCOD8264144 Si02
#       6
#    16  16  16  16  16  16
#     4  11  22  36  55  86 122 152 187 240 298 349
#     4  10  22  35  55  81 112 153 188 237 299 358
#     4  12  23  35  59  92 126 153 196 246 297 353
#     4   9  18  34  58  83 110 150 200 246 286 345
#     4   9  19  35  58  86 118 159 200 236 293 363
#     4  11  20  36  56  80 114 149 195 238 297 348
#
# _framework density 19.157463
#
# number of rings (size 3 to 8) (size 9 to 14) (size 15 to 20)
#    0.000    1.667    3.333    4.000    4.667    0.000 
#    0.000    0.833    0.000    4.000    0.000    0.000 
#    0.000    0.000    0.000    0.000    0.000    0.000 
#
# Total GULP energy -594713.731368 kJ/mol
# GULP energy per Si atom -12389.869404 kJ/mol
# Density = 1.911386 g / cm^3
# Si number density = 19.157463 Si / 1000 Ang^3
#
#
#
# Elastic Constant Matrix: (Units=GPa)
#
#
# Indices 1 2 3 4 5 6 
#
# 1 73.1562 20.0259 28.4538 0.0000 0.0000 0.0000
# 2 20.0259 87.4282 34.1574 0.0000 0.0000 0.0000
# 3 28.4538 34.1574 98.7408 0.0000 0.0000 0.0000
# 4 0.0000 0.0000 0.0000 29.2091 0.0000 0.0000
# 5 0.0000 0.0000 0.0000 0.0000 -12.9976 0.0000
# 6 0.0000 0.0000 0.0000 0.0000 0.0000 14.8181
#
#
#
# Elastic Compliance Matrix: (Units=1/GPa)
#
#
# Indices 1 2 3 4 5 6 
#
# 1 0.015727 -0.002118 -0.003799 0.000000 0.000000 0.000000
# 2 -0.002118 0.013511 -0.004063 0.000000 0.000000 0.000000
# 3 -0.003799 -0.004063 0.012628 0.000000 0.000000 0.000000
# 4 0.000000 0.000000 0.000000 0.034236 0.000000 0.000000
# 5 0.000000 0.000000 0.000000 0.000000 -0.076937 0.000000
# 6 0.000000 0.000000 0.000000 0.000000 0.000000 0.067485
#
#
# Mechanical properties :
#
#
# Convention : Reuss Voigt Hill
#
# Bulk Modulus (GPa) = 45.65342 47.17773 46.41558
# Shear Modulus (GPa) = 53.24140 17.98513 35.61327
#
# Velocity S-wave (km/s) = 5.27748 3.06732 4.31626
# Velocity P-wave (km/s) = 7.81141 6.10117 7.00865
#
# Compressibility (1/GPa) = 0.02190416
#
# Stress axis : x y z
#
# Youngs Moduli (GPa) = 63.58542 74.01577 79.18906
#
# Poissons Ratio (x) = 0.15676 0.30086
# Poissons Ratio (y) = 0.13467 0.32178
# Poissons Ratio (z) = 0.24158 0.30076
#
# Static dielectric constant tensor:
#      x y z
#    x 3.593950 0.000000 0.000000 
#    y 0.000000 3.508020 0.000000 
#    z 0.000000 0.000000 3.795320 
# 
# 
# High freq. dielectric constant tensor:
#      x y z
#    x 1.715750 0.000000 0.000000 
#    y 0.000000 1.732770 0.000000 
#    z 0.000000 0.000000 1.756140 
# 
# From -- ./inp_files/40864.got.cif
#   From: 2010.03.12/outbox.cif.g09.slc.cpg/sg64_21_cif.got.tgz:40864.got - 2010.04.10 20:19:32.
