data_PCOD8264315
_publ_section_title
;
Structure prediction by ZEFSAII (Michael W. Deem and Ramdas Pophale) SiO2 
 PCOD8264315
Probable space group: C M C A
;
_chemical_formula_sum "Si O2"
_cell_formula_units_Z 88
_cell_length_a 9.597519
_cell_length_b 28.208600
_cell_length_c 16.317603
_cell_angle_alpha 90.000000
_cell_angle_beta 90.000000
_cell_angle_gamma 90.000000
_cell_volume 4417.706669
_symmetry_space_group_name_H-M "C M C A"
_symmetry_group_IT_number 64
_symmetry_cell_setting 'orthorhombic'
loop_
_space_group_symop_operation_xyz
x,y,z
-x,1/2-y,1/2+z
x,-y,-z
-x,1/2+y,1/2-z
-x,-y,-z
x,1/2+y,1/2-z
-x,y,z
x,1/2-y,1/2+z
1/2+x,1/2+y,z
1/2-x,-y,1/2+z
1/2+x,1/2-y,-z
1/2-x,y,1/2-z
1/2-x,1/2-y,-z
1/2+x,y,1/2-z
1/2-x,1/2+y,z
1/2+x,-y,1/2+z
loop_
_atom_site_type_symbol
_atom_site_label
_atom_site_fract_x
_atom_site_fract_y
_atom_site_fract_z
Si Si1 0.156193 0.674508 0.130899
Si Si2 0.164228 0.432619 0.436192
Si Si3 0.840943 0.153259 0.553930
Si Si4 0.336522 0.236623 0.825184
Si Si5 0.250000 0.402598 0.750000
Si Si6 0.657321 0.032784 0.391629
O O1 0.271950 0.711726 0.158989
O O2 0.152872 0.629854 0.192826
O O3 0.000000 0.696577 0.130295
O O4 0.199823 0.657974 0.040881
O O5 0.244971 0.386408 0.403119
O O6 0.214622 0.478689 0.383250
O O7 0.220763 0.440197 0.529761
O O8 0.000000 0.421929 0.429246
O O9 0.813997 0.203862 0.596091
O O10 0.000000 0.137433 0.565447
O O11 0.500000 0.242570 0.803226
O O12 0.250000 0.213693 0.750000
O O13 0.336908 0.437366 0.808523
O O14 0.500000 0.024792 0.418401
#
# Coordination Sequence:
#
# PCOD8264315 Si02
#       6
#    16  16  16  16   8  16
#     4  11  23  38  60  91 124 153 196 250 304 358
#     4   9  18  37  61  82 113 157 199 240 285 352
#     4  10  22  41  61  89 121 157 199 246 302 359
#     4  11  24  41  62  85 121 159 200 249 298 356
#     4  12  20  34  62  88 122 150 198 246 306 338
#     4   9  19  35  56  86 117 150 195 242 295 351
#
# _framework density 19.919837000000001
#
# number of rings (size 3 to 8) (size 9 to 14) (size 15 to 20)
#    0.000    1.818    2.727    2.727    0.000    2.909 
#    1.636    3.636    0.000    0.000    0.000    0.000 
#    0.000    0.000    0.000    0.000    0.000    0.000 
#
# Total GULP energy -545329.926222 kJ/mol
# GULP energy per Si atom -12393.861960 kJ/mol
# Density = 1.987450 g / cm^3
# Si number density = 19.919837 Si / 1000 Ang^3
#
#
#
# Elastic Constant Matrix: (Units=GPa)
#
#
# Indices 1 2 3 4 5 6 
#
# 1 92.5960 51.0557 32.7708 0.0000 0.0000 0.0000
# 2 51.0557 125.2817 58.6207 0.0000 0.0000 0.0000
# 3 32.7708 58.6207 95.7789 0.0000 0.0000 0.0000
# 4 0.0000 0.0000 0.0000 37.6102 0.0000 0.0000
# 5 0.0000 0.0000 0.0000 0.0000 24.0875 0.0000
# 6 0.0000 0.0000 0.0000 0.0000 0.0000 31.6501
#
#
#
# Elastic Compliance Matrix: (Units=1/GPa)
#
#
# Indices 1 2 3 4 5 6 
#
# 1 0.014157 -0.004909 -0.001840 0.000000 0.000000 0.000000
# 2 -0.004909 0.012887 -0.006208 0.000000 0.000000 0.000000
# 3 -0.001840 -0.006208 0.014870 0.000000 0.000000 0.000000
# 4 0.000000 0.000000 0.000000 0.026589 0.000000 0.000000
# 5 0.000000 0.000000 0.000000 0.000000 0.041515 0.000000
# 6 0.000000 0.000000 0.000000 0.000000 0.000000 0.031595
#
#
# Mechanical properties :
#
#
# Convention : Reuss Voigt Hill
#
# Bulk Modulus (GPa) = 62.49386 66.50567 64.49976
# Shear Modulus (GPa) = 28.92517 30.08352 29.50435
#
# Velocity S-wave (km/s) = 3.81475 3.89038 3.85275
# Velocity P-wave (km/s) = 7.13049 7.32388 7.22783
#
# Compressibility (1/GPa) = 0.01600157
#
# Stress axis : x y z
#
# Youngs Moduli (GPa) = 70.63541 77.59619 67.25096
#
# Poissons Ratio (x) = 0.38090 0.12371
# Poissons Ratio (y) = 0.34673 0.41749
# Poissons Ratio (z) = 0.12994 0.48172
#
# Static dielectric constant tensor:
#      x y z
#    x 3.408670 0.000000 0.000000 
#    y 0.000000 3.619050 0.000000 
#    z 0.000000 0.000000 3.697250 
# 
# 
# High freq. dielectric constant tensor:
#      x y z
#    x 1.761840 0.000000 0.000000 
#    y 0.000000 1.783390 0.000000 
#    z 0.000000 0.000000 1.771580 
# 
# From -- ./inp_files/30047.got.cif
#   From: 2010.03.12/outbox.cif.g09.slc.cpg/sg64_16_cif.got.tgz:30047.got - 2010.04.10 20:19:32.
