data_PCOD8264997
_publ_section_title
;
Structure prediction by ZEFSAII (Michael W. Deem and Ramdas Pophale) SiO2 
 PCOD8264997
Probable space group: C M C A
;
_chemical_formula_sum "Si O2"
_cell_formula_units_Z 80
_cell_length_a 9.043460
_cell_length_b 27.540527
_cell_length_c 17.719106
_cell_angle_alpha 90.000000
_cell_angle_beta 90.000000
_cell_angle_gamma 90.000000
_cell_volume 4413.149853
_symmetry_space_group_name_H-M "C M C A"
_symmetry_group_IT_number 64
_symmetry_cell_setting 'orthorhombic'
loop_
_space_group_symop_operation_xyz
x,y,z
-x,1/2-y,1/2+z
x,-y,-z
-x,1/2+y,1/2-z
-x,-y,-z
x,1/2+y,1/2-z
-x,y,z
x,1/2-y,1/2+z
1/2+x,1/2+y,z
1/2-x,-y,1/2+z
1/2+x,1/2-y,-z
1/2-x,y,1/2-z
1/2-x,1/2-y,-z
1/2+x,y,1/2-z
1/2-x,1/2+y,z
1/2+x,-y,1/2+z
loop_
_atom_site_type_symbol
_atom_site_label
_atom_site_fract_x
_atom_site_fract_y
_atom_site_fract_z
Si Si1 0.825623 0.799425 0.522652
Si Si2 0.672305 0.348009 0.673878
Si Si3 0.174753 0.537835 0.669151
Si Si4 0.330185 0.448207 0.599882
Si Si5 0.829162 0.103181 0.556936
O O1 0.750000 0.750000 0.500000
O O2 0.768854 0.814583 0.605644
O O3 0.783002 0.841887 0.463828
O O4 0.000000 0.792303 0.523537
O O5 0.500000 0.340070 0.684312
O O6 0.750000 0.331062 0.750000
O O7 0.706989 0.404088 0.656113
O O8 0.250000 0.534458 0.750000
O O9 0.221099 0.491830 0.618968
O O10 0.227940 0.586456 0.626518
O O11 0.000000 0.538864 0.679398
O O12 0.500000 0.465110 0.610355
O O13 0.302725 0.432012 0.514182
O O14 0.000000 0.100943 0.581545
#
# Coordination Sequence:
#
# PCOD8264997 Si02
#       5
#    16  16  16  16  16
#     4   9  19  36  57  79 103 133 171 213 258 308
#     4   9  18  32  51  78 107 134 167 207 253 304
#     4  12  24  35  50  75 107 141 178 216 254 303
#     4   9  18  34  55  77 105 139 171 208 255 306
#     4   9  19  37  57  76 103 138 173 212 260 309
#
# _framework density 18.127642000000002
#
# number of rings (size 3 to 8) (size 9 to 14) (size 15 to 20)
#    0.000    2.400    0.000    5.400    0.000    7.200 
#    0.000    5.000    0.000    2.400    0.000    0.000 
#    0.000    0.000    0.000    0.000    0.000    0.000 
#
# Total GULP energy -496027.486574 kJ/mol
# GULP energy per Si atom -12400.687164 kJ/mol
# Density = 1.808638 g / cm^3
# Si number density = 18.127642 Si / 1000 Ang^3
#
#
#
# Elastic Constant Matrix: (Units=GPa)
#
#
# Indices 1 2 3 4 5 6 
#
# 1 85.2441 51.1466 37.6613 0.0000 0.0000 0.0000
# 2 51.1466 117.7124 43.4517 0.0000 0.0000 0.0000
# 3 37.6613 43.4517 59.8174 0.0000 0.0000 0.0000
# 4 0.0000 0.0000 0.0000 17.9931 0.0000 0.0000
# 5 0.0000 0.0000 0.0000 0.0000 34.2853 0.0000
# 6 0.0000 0.0000 0.0000 0.0000 0.0000 31.0759
#
#
#
# Elastic Compliance Matrix: (Units=1/GPa)
#
#
# Indices 1 2 3 4 5 6 
#
# 1 0.018194 -0.005024 -0.007805 0.000000 0.000000 0.000000
# 2 -0.005024 0.012995 -0.006277 0.000000 0.000000 0.000000
# 3 -0.007805 -0.006277 0.026191 0.000000 0.000000 0.000000
# 4 0.000000 0.000000 0.000000 0.055577 0.000000 0.000000
# 5 0.000000 0.000000 0.000000 0.000000 0.029167 0.000000
# 6 0.000000 0.000000 0.000000 0.000000 0.000000 0.032179
#
#
# Mechanical properties :
#
#
# Convention : Reuss Voigt Hill
#
# Bulk Modulus (GPa) = 52.17000 58.58812 55.37906
# Shear Modulus (GPa) = 22.84094 25.37181 24.10638
#
# Velocity S-wave (km/s) = 3.55351 3.74521 3.65062
# Velocity P-wave (km/s) = 6.75857 7.14787 6.95594
#
# Compressibility (1/GPa) = 0.01916810
#
# Stress axis : x y z
#
# Youngs Moduli (GPa) = 54.96327 76.95158 38.18072
#
# Poissons Ratio (x) = 0.38661 0.29802
# Poissons Ratio (y) = 0.27614 0.23964
# Poissons Ratio (z) = 0.42901 0.48299
#
# Static dielectric constant tensor:
#      x y z
#    x 3.189830 0.000000 0.000000 
#    y 0.000000 3.406120 0.000000 
#    z 0.000000 0.000000 3.643700 
# 
# 
# High freq. dielectric constant tensor:
#      x y z
#    x 1.692570 0.000000 0.000000 
#    y 0.000000 1.693860 0.000000 
#    z 0.000000 0.000000 1.705570 
# 
# From -- ./inp_files/29699.got.cif
#   From: 2010.03.12/outbox.cif.g09.slc.cpg/sg64_15_cif.got.tgz:29699.got - 2010.04.10 20:19:32.
