data_PCOD8264758
_publ_section_title
;
Structure prediction by ZEFSAII (Michael W. Deem and Ramdas Pophale) SiO2 
 PCOD8264758
Probable space group: C M C A
;
_chemical_formula_sum "Si O2"
_cell_formula_units_Z 64
_cell_length_a 19.742342
_cell_length_b 16.436662
_cell_length_c 9.686466
_cell_angle_alpha 90.000000
_cell_angle_beta 90.000000
_cell_angle_gamma 90.000000
_cell_volume 3143.240806
_symmetry_space_group_name_H-M "C M C A"
_symmetry_group_IT_number 64
_symmetry_cell_setting 'orthorhombic'
loop_
_space_group_symop_operation_xyz
x,y,z
-x,1/2-y,1/2+z
x,-y,-z
-x,1/2+y,1/2-z
-x,-y,-z
x,1/2+y,1/2-z
-x,y,z
x,1/2-y,1/2+z
1/2+x,1/2+y,z
1/2-x,-y,1/2+z
1/2+x,1/2-y,-z
1/2-x,y,1/2-z
1/2-x,1/2-y,-z
1/2+x,y,1/2-z
1/2-x,1/2+y,z
1/2+x,-y,1/2+z
loop_
_atom_site_type_symbol
_atom_site_label
_atom_site_fract_x
_atom_site_fract_y
_atom_site_fract_z
Si Si1 0.577990 0.090263 0.049565
Si Si2 0.837808 0.155078 0.675345
Si Si3 0.326552 0.660196 0.220780
Si Si4 0.203478 0.090359 0.947647
O O1 0.500000 0.101867 0.089092
O O2 0.621695 0.111804 0.183221
O O3 0.595393 0.147493 0.918323
O O4 0.595555 0.000000 0.000000
O O5 0.834547 0.243790 0.743619
O O6 0.837807 0.090983 0.802945
O O7 0.774137 0.138104 0.574838
O O8 0.250000 0.630866 0.250000
O O9 0.341359 0.637679 0.061387
O O10 0.218382 0.000000 0.000000
#
# Coordination Sequence:
#
# PCOD8264758 Si02
#       4
#    16  16  16  16
#     4  11  25  44  64  89 129 175 210 254 322 389
#     4  11  22  39  60  93 126 166 204 263 318 374
#     4  12  22  39  66  94 126 160 213 268 315 373
#     4  11  22  34  61  96 123 157 204 263 314 363
#
# _framework density 20.361149999999999
#
# number of rings (size 3 to 8) (size 9 to 14) (size 15 to 20)
#    0.000    0.750    5.000    4.500    3.500    1.000 
#    0.000    1.250    0.000    4.500    0.000    0.000 
#    0.000    0.000    0.000    0.000    0.000    0.000 
#
# Total GULP energy -396885.166097 kJ/mol
# GULP energy per Si atom -12402.661441 kJ/mol
# Density = 2.031481 g / cm^3
# Si number density = 20.361150 Si / 1000 Ang^3
#
#
#
# Elastic Constant Matrix: (Units=GPa)
#
#
# Indices 1 2 3 4 5 6 
#
# 1 108.7626 50.9585 75.4967 0.0000 0.0000 0.0000
# 2 50.9585 104.4530 47.2377 0.0000 0.0000 0.0000
# 3 75.4967 47.2377 154.0827 0.0000 0.0000 0.0000
# 4 0.0000 0.0000 0.0000 38.6906 0.0000 0.0000
# 5 0.0000 0.0000 0.0000 0.0000 29.3759 0.0000
# 6 0.0000 0.0000 0.0000 0.0000 0.0000 19.1024
#
#
#
# Elastic Compliance Matrix: (Units=1/GPa)
#
#
# Indices 1 2 3 4 5 6 
#
# 1 0.015830 -0.004893 -0.006256 0.000000 0.000000 0.000000
# 2 -0.004893 0.012627 -0.001474 0.000000 0.000000 0.000000
# 3 -0.006256 -0.001474 0.010007 0.000000 0.000000 0.000000
# 4 0.000000 0.000000 0.000000 0.025846 0.000000 0.000000
# 5 0.000000 0.000000 0.000000 0.000000 0.034041 0.000000
# 6 0.000000 0.000000 0.000000 0.000000 0.000000 0.052349
#
#
# Mechanical properties :
#
#
# Convention : Reuss Voigt Hill
#
# Bulk Modulus (GPa) = 75.65349 79.40935 77.53142
# Shear Modulus (GPa) = 27.72346 30.34082 29.03214
#
# Velocity S-wave (km/s) = 3.69397 3.86441 3.78015
# Velocity P-wave (km/s) = 7.44516 7.68093 7.56396
#
# Compressibility (1/GPa) = 0.01321816
#
# Stress axis : x y z
#
# Youngs Moduli (GPa) = 63.17310 79.19284 99.93012
#
# Poissons Ratio (x) = 0.38753 0.62515
# Poissons Ratio (y) = 0.30913 0.14725
# Poissons Ratio (z) = 0.39520 0.11670
#
# Static dielectric constant tensor:
#      x y z
#    x 3.377070 0.000000 0.000000 
#    y 0.000000 3.728060 0.000000 
#    z 0.000000 0.000000 4.000760 
# 
# 
# High freq. dielectric constant tensor:
#      x y z
#    x 1.752880 0.000000 0.000000 
#    y 0.000000 1.802900 0.000000 
#    z 0.000000 0.000000 1.819740 
# 
# From -- ./inp_files/7776.got.cif
#   From: 2010.03.12/outbox.cif.g09.slc.cpg/sg64_4_cif.got.tgz:7776.got - 2010.04.10 20:19:32.
