data_PCOD8264066
_publ_section_title
;
Structure prediction by ZEFSAII (Michael W. Deem and Ramdas Pophale) SiO2 
 PCOD8264066
Probable space group: C M C A
;
_chemical_formula_sum "Si O2"
_cell_formula_units_Z 96
_cell_length_a 15.643605
_cell_length_b 15.401722
_cell_length_c 18.619328
_cell_angle_alpha 90.000000
_cell_angle_beta 90.000000
_cell_angle_gamma 90.000000
_cell_volume 4486.112127
_symmetry_space_group_name_H-M "C M C A"
_symmetry_group_IT_number 64
_symmetry_cell_setting 'orthorhombic'
loop_
_space_group_symop_operation_xyz
x,y,z
-x,1/2-y,1/2+z
x,-y,-z
-x,1/2+y,1/2-z
-x,-y,-z
x,1/2+y,1/2-z
-x,y,z
x,1/2-y,1/2+z
1/2+x,1/2+y,z
1/2-x,-y,1/2+z
1/2+x,1/2-y,-z
1/2-x,y,1/2-z
1/2-x,1/2-y,-z
1/2+x,y,1/2-z
1/2-x,1/2+y,z
1/2+x,-y,1/2+z
loop_
_atom_site_type_symbol
_atom_site_label
_atom_site_fract_x
_atom_site_fract_y
_atom_site_fract_z
Si Si1 0.904725 0.826034 0.447079
Si Si2 0.316965 0.409097 0.690381
Si Si3 0.405288 0.845845 0.481940
Si Si4 0.098862 0.225860 0.826040
Si Si5 0.899022 0.596589 0.794667
Si Si6 0.233661 0.585223 0.032851
O O1 0.911228 0.722125 0.451994
O O2 0.872588 0.857567 0.369546
O O3 0.832658 0.842176 0.507135
O O4 0.000000 0.865177 0.465132
O O5 0.250000 0.385096 0.750000
O O6 0.378533 0.326302 0.686388
O O7 0.364681 0.498550 0.709613
O O8 0.263188 0.419768 0.617906
O O9 0.500000 0.890397 0.474478
O O10 0.378304 0.801480 0.406816
O O11 0.330101 0.911316 0.502238
O O12 0.140688 0.156886 0.769175
O O13 0.000000 0.219665 0.811002
O O14 0.000000 0.589925 0.788565
O O15 0.190367 0.500000 0.000000
#
# Coordination Sequence:
#
# PCOD8264066 Si02
#       6
#    16  16  16  16  16  16
#     4  10  21  40  69  98 125 164 217 275 330 385
#     4  12  27  41  62  98 134 175 217 269 333 397
#     4  10  23  43  68  96 128 173 225 273 329 393
#     4  10  23  44  69  94 128 176 221 272 334 391
#     4  10  23  43  66  94 131 173 219 274 329 395
#     4  12  25  42  65  99 133 169 218 275 331 394
#
# _framework density 21.399376
#
# number of rings (size 3 to 8) (size 9 to 14) (size 15 to 20)
#    0.000    1.333    3.333    1.000    4.667    2.000 
#    0.000    0.833    0.000    0.000    0.000    0.000 
#    0.000    0.000    0.000    0.000    0.000    0.000 
#
# Total GULP energy -594841.469905 kJ/mol
# GULP energy per Si atom -12392.530623 kJ/mol
# Density = 2.135067 g / cm^3
# Si number density = 21.399376 Si / 1000 Ang^3
#
#
#
# Elastic Constant Matrix: (Units=GPa)
#
#
# Indices 1 2 3 4 5 6 
#
# 1 60.8455 15.4184 29.9438 0.0000 0.0000 0.0000
# 2 15.4184 108.0089 44.5057 0.0000 0.0000 0.0000
# 3 29.9438 44.5057 111.3396 0.0000 0.0000 0.0000
# 4 0.0000 0.0000 0.0000 36.7183 0.0000 0.0000
# 5 0.0000 0.0000 0.0000 0.0000 27.0212 0.0000
# 6 0.0000 0.0000 0.0000 0.0000 0.0000 -23.2695
#
#
#
# Elastic Compliance Matrix: (Units=1/GPa)
#
#
# Indices 1 2 3 4 5 6 
#
# 1 0.018990 -0.000726 -0.004817 0.000000 0.000000 0.000000
# 2 -0.000726 0.011112 -0.004247 0.000000 0.000000 0.000000
# 3 -0.004817 -0.004247 0.011974 0.000000 0.000000 0.000000
# 4 0.000000 0.000000 0.000000 0.027234 0.000000 0.000000
# 5 0.000000 0.000000 0.000000 0.000000 0.037008 0.000000
# 6 0.000000 0.000000 0.000000 0.000000 0.000000 -0.042975
#
#
# Mechanical properties :
#
#
# Convention : Reuss Voigt Hill
#
# Bulk Modulus (GPa) = 44.44999 51.10332 47.77666
# Shear Modulus (GPa) = 55.29666 20.78241 38.03953
#
# Velocity S-wave (km/s) = 5.08885 3.11974 4.22073
# Velocity P-wave (km/s) = 7.43944 6.07533 6.79172
#
# Compressibility (1/GPa) = 0.02249719
#
# Stress axis : x y z
#
# Youngs Moduli (GPa) = 52.66053 89.99332 83.51109
#
# Poissons Ratio (x) = 0.06533 0.40226
# Poissons Ratio (y) = 0.03823 0.35463
# Poissons Ratio (z) = 0.25366 0.38216
#
# Static dielectric constant tensor:
#      x y z
#    x 3.851140 0.000000 0.000000 
#    y 0.000000 3.816500 0.000000 
#    z 0.000000 0.000000 3.968280 
# 
# 
# High freq. dielectric constant tensor:
#      x y z
#    x 1.840090 0.000000 0.000000 
#    y 0.000000 1.837200 0.000000 
#    z 0.000000 0.000000 1.845000 
# 
# From -- ./inp_files/39192.got.cif
#   From: 2010.03.12/outbox.cif.g09.slc.cpg/sg64_20_cif.got.tgz:39192.got - 2010.04.10 20:19:32.
