data_PCOD8264030
_publ_section_title
;
Structure prediction by ZEFSAII (Michael W. Deem and Ramdas Pophale) SiO2 
 PCOD8264030
Probable space group: C M C A
;
_chemical_formula_sum "Si O2"
_cell_formula_units_Z 72
_cell_length_a 18.388762
_cell_length_b 21.493382
_cell_length_c 8.695973
_cell_angle_alpha 90.000000
_cell_angle_beta 90.000000
_cell_angle_gamma 90.000000
_cell_volume 3436.967552
_symmetry_space_group_name_H-M "C M C A"
_symmetry_group_IT_number 64
_symmetry_cell_setting 'orthorhombic'
loop_
_space_group_symop_operation_xyz
x,y,z
-x,1/2-y,1/2+z
x,-y,-z
-x,1/2+y,1/2-z
-x,-y,-z
x,1/2+y,1/2-z
-x,y,z
x,1/2-y,1/2+z
1/2+x,1/2+y,z
1/2-x,-y,1/2+z
1/2+x,1/2-y,-z
1/2-x,y,1/2-z
1/2-x,1/2-y,-z
1/2+x,y,1/2-z
1/2-x,1/2+y,z
1/2+x,-y,1/2+z
loop_
_atom_site_type_symbol
_atom_site_label
_atom_site_fract_x
_atom_site_fract_y
_atom_site_fract_z
Si Si1 0.579519 0.463163 0.641864
Si Si2 0.250000 0.245117 0.750000
Si Si3 0.193506 0.449106 0.617461
Si Si4 0.000000 0.842395 0.603499
Si Si5 0.658248 0.318177 0.994976
Si Si6 0.500000 0.723728 0.074839
O O1 0.617104 0.500000 0.500000
O O2 0.500000 0.493285 0.668444
O O3 0.623206 0.476237 0.796344
O O4 0.571257 0.388085 0.608407
O O5 0.303004 0.202626 0.650292
O O6 0.304279 0.286519 0.849204
O O7 0.225538 0.500000 0.500000
O O8 0.250000 0.430026 0.750000
O O9 0.170016 0.391307 0.515458
O O10 0.000000 0.799181 0.450810
O O11 0.000000 0.794213 0.745685
O O12 0.572418 0.303769 0.004174
#
# Coordination Sequence:
#
# PCOD8264030 Si02
#       6
#    16   8  16   8  16   8
#     4   9  20  45  67  91 130 175 212 272 336 390
#     4  10  24  42  70  94 136 180 210 272 350 402
#     4  12  26  44  67  95 131 173 227 283 333 405
#     4  10  21  40  64 100 127 170 214 273 327 387
#     4  11  23  45  65  99 135 172 222 275 335 405
#     4  12  22  40  68 100 133 171 224 275 329 395
#
# _framework density 20.948698
#
# number of rings (size 3 to 8) (size 9 to 14) (size 15 to 20)
#    0.667    0.667    3.333    2.000    1.556    0.444 
#    8.000    0.000    0.000    0.000    0.000    0.000 
#    0.000    0.000    0.000    0.000    0.000    0.000 
#
# Total GULP energy -446263.538923 kJ/mol
# GULP energy per Si atom -12396.209415 kJ/mol
# Density = 2.090102 g / cm^3
# Si number density = 20.948698 Si / 1000 Ang^3
#
#
#
# Elastic Constant Matrix: (Units=GPa)
#
#
# Indices 1 2 3 4 5 6 
#
# 1 122.7605 31.4481 37.3032 0.0000 0.0000 0.0000
# 2 31.4481 102.3389 53.3129 0.0000 0.0000 0.0000
# 3 37.3032 53.3129 107.8129 0.0000 0.0000 0.0000
# 4 0.0000 0.0000 0.0000 24.8569 0.0000 0.0000
# 5 0.0000 0.0000 0.0000 0.0000 24.7558 0.0000
# 6 0.0000 0.0000 0.0000 0.0000 0.0000 44.3103
#
#
#
# Elastic Compliance Matrix: (Units=1/GPa)
#
#
# Indices 1 2 3 4 5 6 
#
# 1 0.009291 -0.001590 -0.002429 0.000000 0.000000 0.000000
# 2 -0.001590 0.013434 -0.006093 0.000000 0.000000 0.000000
# 3 -0.002429 -0.006093 0.013129 0.000000 0.000000 0.000000
# 4 0.000000 0.000000 0.000000 0.040230 0.000000 0.000000
# 5 0.000000 0.000000 0.000000 0.000000 0.040395 0.000000
# 6 0.000000 0.000000 0.000000 0.000000 0.000000 0.022568
#
#
# Mechanical properties :
#
#
# Convention : Reuss Voigt Hill
#
# Bulk Modulus (GPa) = 63.97575 64.11563 64.04569
# Shear Modulus (GPa) = 30.39881 32.84113 31.61997
#
# Velocity S-wave (km/s) = 3.81347 3.96371 3.88931
# Velocity P-wave (km/s) = 7.07076 7.18474 7.12798
#
# Compressibility (1/GPa) = 0.01563092
#
# Stress axis : x y z
#
# Youngs Moduli (GPa) = 107.62857 74.43712 76.16995
#
# Poissons Ratio (x) = 0.11836 0.18498
# Poissons Ratio (y) = 0.17113 0.46410
# Poissons Ratio (z) = 0.26138 0.45354
#
# Static dielectric constant tensor:
#      x y z
#    x 3.850460 0.000000 0.000000 
#    y 0.000000 3.700830 0.000000 
#    z 0.000000 0.000000 3.687650 
# 
# 
# High freq. dielectric constant tensor:
#      x y z
#    x 1.826170 0.000000 0.000000 
#    y 0.000000 1.815420 0.000000 
#    z 0.000000 0.000000 1.816610 
# 
# From -- ./inp_files/6909.got.cif
#   From: 2010.03.12/outbox.cif.g09.slc.cpg/sg64_4_cif.got.tgz:6909.got - 2010.04.10 20:19:32.
