data_PCOD8264481
_publ_section_title
;
Structure prediction by ZEFSAII (Michael W. Deem and Ramdas Pophale) SiO2 
 PCOD8264481
Probable space group: C M C A
;
_chemical_formula_sum "Si O2"
_cell_formula_units_Z 48
_cell_length_a 13.776625
_cell_length_b 12.988485
_cell_length_c 11.964861
_cell_angle_alpha 90.000000
_cell_angle_beta 90.000000
_cell_angle_gamma 90.000000
_cell_volume 2140.962162
_symmetry_space_group_name_H-M "C M C A"
_symmetry_group_IT_number 64
_symmetry_cell_setting 'orthorhombic'
loop_
_space_group_symop_operation_xyz
x,y,z
-x,1/2-y,1/2+z
x,-y,-z
-x,1/2+y,1/2-z
-x,-y,-z
x,1/2+y,1/2-z
-x,y,z
x,1/2-y,1/2+z
1/2+x,1/2+y,z
1/2-x,-y,1/2+z
1/2+x,1/2-y,-z
1/2-x,y,1/2-z
1/2-x,1/2-y,-z
1/2+x,y,1/2-z
1/2-x,1/2+y,z
1/2+x,-y,1/2+z
loop_
_atom_site_type_symbol
_atom_site_label
_atom_site_fract_x
_atom_site_fract_y
_atom_site_fract_z
Si Si1 0.792031 0.866165 0.410540
Si Si2 0.890076 0.941287 0.203873
Si Si3 0.202182 0.140238 0.132357
O O1 0.858024 0.942923 0.335564
O O2 0.681911 0.862943 0.359679
O O3 0.838279 0.751021 0.407935
O O4 0.780434 0.901489 0.539867
O O5 0.000000 0.902485 0.191627
O O6 0.881598 0.054886 0.148849
O O7 0.250000 0.157919 0.250000
#
# Coordination Sequence:
#
# PCOD8264481 Si02
#       3
#    16  16  16
#     4  10  23  42  65  90 132 170 212 262 322 385
#     4  11  23  40  67  97 125 164 215 267 320 379
#     4  11  21  41  66  90 127 174 208 260 323 383
#
# _framework density 22.419827000000002
#
# number of rings (size 3 to 8) (size 9 to 14) (size 15 to 20)
#    0.000    1.333    6.667    1.000    0.000    4.000 
#    0.000    8.333    0.000    0.000    0.000    0.000 
#    0.000    0.000    0.000    0.000    0.000    0.000 
#
# Total GULP energy -297326.751685 kJ/mol
# GULP energy per Si atom -12388.614654 kJ/mol
# Density = 2.236880 g / cm^3
# Si number density = 22.419827 Si / 1000 Ang^3
#
#
#
# Elastic Constant Matrix: (Units=GPa)
#
#
# Indices 1 2 3 4 5 6 
#
# 1 99.2463 32.9252 19.5851 0.0000 0.0000 0.0000
# 2 32.9252 102.8103 27.2611 0.0000 0.0000 0.0000
# 3 19.5851 27.2611 151.0665 0.0000 0.0000 0.0000
# 4 0.0000 0.0000 0.0000 39.6885 0.0000 0.0000
# 5 0.0000 0.0000 0.0000 0.0000 11.3113 0.0000
# 6 0.0000 0.0000 0.0000 0.0000 0.0000 18.9862
#
#
#
# Elastic Compliance Matrix: (Units=1/GPa)
#
#
# Indices 1 2 3 4 5 6 
#
# 1 0.011379 -0.003416 -0.000859 0.000000 0.000000 0.000000
# 2 -0.003416 0.011241 -0.001586 0.000000 0.000000 0.000000
# 3 -0.000859 -0.001586 0.007017 0.000000 0.000000 0.000000
# 4 0.000000 0.000000 0.000000 0.025196 0.000000 0.000000
# 5 0.000000 0.000000 0.000000 0.000000 0.088407 0.000000
# 6 0.000000 0.000000 0.000000 0.000000 0.000000 0.052670
#
#
# Mechanical properties :
#
#
# Convention : Reuss Voigt Hill
#
# Bulk Modulus (GPa) = 55.81725 56.96288 56.39006
# Shear Modulus (GPa) = 23.40781 32.22063 27.81422
#
# Velocity S-wave (km/s) = 3.23471 3.79509 3.52605
# Velocity P-wave (km/s) = 6.23711 6.68327 6.46404
#
# Compressibility (1/GPa) = 0.01791561
#
# Stress axis : x y z
#
# Youngs Moduli (GPa) = 87.88279 88.95846 142.50960
#
# Poissons Ratio (x) = 0.30392 0.12237
# Poissons Ratio (y) = 0.30024 0.22597
# Poissons Ratio (z) = 0.07546 0.14106
#
# Static dielectric constant tensor:
#      x y z
#    x 3.350340 0.000000 0.000000 
#    y 0.000000 4.406230 0.000000 
#    z 0.000000 0.000000 4.554990 
# 
# 
# High freq. dielectric constant tensor:
#      x y z
#    x 1.807220 0.000000 0.000000 
#    y 0.000000 1.895300 0.000000 
#    z 0.000000 0.000000 1.912840 
# 
# From -- ./inp_files/13593.got.cif
#   From: 2010.03.12/outbox.cif.g09.slc.cpg/sg64_7_cif.got.tgz:13593.got - 2010.04.10 20:19:32.
