data_PCOD8264061
_publ_section_title
;
Structure prediction by ZEFSAII (Michael W. Deem and Ramdas Pophale) SiO2 
 PCOD8264061
Probable space group: C M C A
;
_chemical_formula_sum "Si O2"
_cell_formula_units_Z 88
_cell_length_a 23.118741
_cell_length_b 11.784740
_cell_length_c 14.488844
_cell_angle_alpha 90.000000
_cell_angle_beta 90.000000
_cell_angle_gamma 90.000000
_cell_volume 3947.461667
_symmetry_space_group_name_H-M "C M C A"
_symmetry_group_IT_number 64
_symmetry_cell_setting 'orthorhombic'
loop_
_space_group_symop_operation_xyz
x,y,z
-x,1/2-y,1/2+z
x,-y,-z
-x,1/2+y,1/2-z
-x,-y,-z
x,1/2+y,1/2-z
-x,y,z
x,1/2-y,1/2+z
1/2+x,1/2+y,z
1/2-x,-y,1/2+z
1/2+x,1/2-y,-z
1/2-x,y,1/2-z
1/2-x,1/2-y,-z
1/2+x,y,1/2-z
1/2-x,1/2+y,z
1/2+x,-y,1/2+z
loop_
_atom_site_type_symbol
_atom_site_label
_atom_site_fract_x
_atom_site_fract_y
_atom_site_fract_z
Si Si1 0.563318 0.023148 0.624094
Si Si2 0.065866 0.421907 0.172086
Si Si3 0.238358 0.000000 0.500000
Si Si4 0.372886 0.190634 0.333423
Si Si5 0.661538 0.346710 0.026172
Si Si6 0.849016 0.381845 0.866852
O O1 0.500000 0.036218 0.579185
O O2 0.567060 0.093983 0.717977
O O3 0.609485 0.067884 0.550503
O O4 0.572623 0.893061 0.655226
O O5 0.104799 0.316150 0.142987
O O6 0.093940 0.538586 0.133511
O O7 0.000000 0.417188 0.134372
O O8 0.277183 0.096221 0.552631
O O9 0.202265 0.046080 0.412669
O O10 0.328996 0.164589 0.416263
O O11 0.338729 0.165483 0.237515
O O12 0.644081 0.228343 0.070685
#
# Coordination Sequence:
#
# PCOD8264061 Si02
#       6
#    16  16   8  16  16  16
#     4  10  21  40  68 102 141 181 230 293 360 433
#     4  10  22  43  72 107 145 184 230 293 367 446
#     4  12  26  50  68  96 146 190 250 310 352 420
#     4  11  22  42  71 105 138 185 234 285 360 439
#     4  12  24  46  70 103 141 184 247 304 359 426
#     4  11  26  46  71 103 145 189 239 300 365 431
#
# _framework density 22.292805999999999
#
# number of rings (size 3 to 8) (size 9 to 14) (size 15 to 20)
#    0.000    1.091    3.636    2.182    0.000    4.364 
#    0.000    3.182    0.000    0.000    0.000    0.000 
#    0.000    0.000    0.000    0.000    0.000    0.000 
#
# Total GULP energy -545109.371782 kJ/mol
# GULP energy per Si atom -12388.849359 kJ/mol
# Density = 2.224207 g / cm^3
# Si number density = 22.292806 Si / 1000 Ang^3
#
#
#
# Elastic Constant Matrix: (Units=GPa)
#
#
# Indices 1 2 3 4 5 6 
#
# 1 127.2015 53.3322 58.8202 0.0000 0.0000 0.0000
# 2 53.3322 137.0606 44.5075 0.0000 0.0000 0.0000
# 3 58.8202 44.5075 127.2094 0.0000 0.0000 0.0000
# 4 0.0000 0.0000 0.0000 42.9448 0.0000 0.0000
# 5 0.0000 0.0000 0.0000 0.0000 53.6550 0.0000
# 6 0.0000 0.0000 0.0000 0.0000 0.0000 26.2796
#
#
#
# Elastic Compliance Matrix: (Units=1/GPa)
#
#
# Indices 1 2 3 4 5 6 
#
# 1 0.010968 -0.002957 -0.004037 0.000000 0.000000 0.000000
# 2 -0.002957 0.009028 -0.001792 0.000000 0.000000 0.000000
# 3 -0.004037 -0.001792 0.010355 0.000000 0.000000 0.000000
# 4 0.000000 0.000000 0.000000 0.023286 0.000000 0.000000
# 5 0.000000 0.000000 0.000000 0.000000 0.018638 0.000000
# 6 0.000000 0.000000 0.000000 0.000000 0.000000 0.038052
#
#
# Mechanical properties :
#
#
# Convention : Reuss Voigt Hill
#
# Bulk Modulus (GPa) = 78.24669 78.31016 78.27842
# Shear Modulus (GPa) = 37.83364 40.22998 39.03181
#
# Velocity S-wave (km/s) = 4.12408 4.25269 4.18888
# Velocity P-wave (km/s) = 7.60613 7.70182 7.65412
#
# Compressibility (1/GPa) = 0.01278009
#
# Stress axis : x y z
#
# Youngs Moduli (GPa) = 91.17387 110.76163 96.57611
#
# Poissons Ratio (x) = 0.32751 0.38987
# Poissons Ratio (y) = 0.26959 0.17302
# Poissons Ratio (z) = 0.36806 0.19844
#
# Static dielectric constant tensor:
#      x y z
#    x 3.820750 0.000000 0.000000 
#    y 0.000000 4.258670 0.000000 
#    z 0.000000 0.000000 4.111370 
# 
# 
# High freq. dielectric constant tensor:
#      x y z
#    x 1.861240 0.000000 0.000000 
#    y 0.000000 1.896530 0.000000 
#    z 0.000000 0.000000 1.885760 
# 
# From -- ./inp_files/27199.got.cif
#   From: 2010.03.12/outbox.cif.g09.slc.cpg/sg64_14_cif.got.tgz:27199.got - 2010.04.10 20:19:32.
