data_PCOD8264800
_publ_section_title
;
Structure prediction by ZEFSAII (Michael W. Deem and Ramdas Pophale) SiO2 
 PCOD8264800
Probable space group: C M C A
;
_chemical_formula_sum "Si O2"
_cell_formula_units_Z 72
_cell_length_a 19.811291
_cell_length_b 13.104307
_cell_length_c 13.125278
_cell_angle_alpha 90.000000
_cell_angle_beta 90.000000
_cell_angle_gamma 90.000000
_cell_volume 3407.495939
_symmetry_space_group_name_H-M "C M C A"
_symmetry_group_IT_number 64
_symmetry_cell_setting 'orthorhombic'
loop_
_space_group_symop_operation_xyz
x,y,z
-x,1/2-y,1/2+z
x,-y,-z
-x,1/2+y,1/2-z
-x,-y,-z
x,1/2+y,1/2-z
-x,y,z
x,1/2-y,1/2+z
1/2+x,1/2+y,z
1/2-x,-y,1/2+z
1/2+x,1/2-y,-z
1/2-x,y,1/2-z
1/2-x,1/2-y,-z
1/2+x,y,1/2-z
1/2-x,1/2+y,z
1/2+x,-y,1/2+z
loop_
_atom_site_type_symbol
_atom_site_label
_atom_site_fract_x
_atom_site_fract_y
_atom_site_fract_z
Si Si1 0.678876 0.807845 0.710894
Si Si2 0.773407 0.409073 0.144460
Si Si3 0.643660 0.612047 0.998093
Si Si4 0.874695 0.500000 0.000000
Si Si5 0.923331 0.697353 0.103012
O O1 0.750000 0.849955 0.750000
O O2 0.686614 0.693104 0.671700
O O3 0.658983 0.876523 0.616540
O O4 0.622921 0.814560 0.798468
O O5 0.750000 0.460738 0.250000
O O6 0.712533 0.384694 0.067265
O O7 0.827163 0.485456 0.097406
O O8 0.593961 0.699208 0.957932
O O9 0.609372 0.500000 0.000000
O O10 0.917999 0.399378 0.973957
O O11 0.000000 0.705264 0.140900
#
# Coordination Sequence:
#
# PCOD8264800 Si02
#       5
#    16  16  16   8  16
#     4  11  23  44  72 102 142 182 235 291 347 410
#     4  11  22  40  73 109 137 176 232 299 349 407
#     4  12  25  43  71 106 141 183 228 292 356 410
#     4  12  25  44  74 102 141 184 238 296 347 410
#     4  12  28  48  69 102 143 190 236 282 351 425
#
# _framework density 21.129884000000001
#
# number of rings (size 3 to 8) (size 9 to 14) (size 15 to 20)
#    0.000    0.444    7.778    2.333    3.111    1.333 
#    0.000    2.222    0.000    0.000    0.000    0.000 
#    0.000    0.000    0.000    0.000    0.000    0.000 
#
# Total GULP energy -446367.276064 kJ/mol
# GULP energy per Si atom -12399.091002 kJ/mol
# Density = 2.108179 g / cm^3
# Si number density = 21.129884 Si / 1000 Ang^3
#
#
#
# Elastic Constant Matrix: (Units=GPa)
#
#
# Indices 1 2 3 4 5 6 
#
# 1 136.4374 55.8870 52.7414 0.0000 0.0000 0.0000
# 2 55.8870 137.6261 64.8017 0.0000 0.0000 0.0000
# 3 52.7414 64.8017 148.0621 0.0000 0.0000 0.0000
# 4 0.0000 0.0000 0.0000 35.5430 0.0000 0.0000
# 5 0.0000 0.0000 0.0000 0.0000 23.1944 0.0000
# 6 0.0000 0.0000 0.0000 0.0000 0.0000 7.4249
#
#
#
# Elastic Compliance Matrix: (Units=1/GPa)
#
#
# Indices 1 2 3 4 5 6 
#
# 1 0.009276 -0.002785 -0.002085 0.000000 0.000000 0.000000
# 2 -0.002785 0.009988 -0.003379 0.000000 0.000000 0.000000
# 3 -0.002085 -0.003379 0.008976 0.000000 0.000000 0.000000
# 4 0.000000 0.000000 0.000000 0.028135 0.000000 0.000000
# 5 0.000000 0.000000 0.000000 0.000000 0.043114 0.000000
# 6 0.000000 0.000000 0.000000 0.000000 0.000000 0.134682
#
#
# Mechanical properties :
#
#
# Convention : Reuss Voigt Hill
#
# Bulk Modulus (GPa) = 85.17435 85.44288 85.30861
# Shear Modulus (GPa) = 19.63982 29.81216 24.72599
#
# Velocity S-wave (km/s) = 3.05205 3.76027 3.42452
# Velocity P-wave (km/s) = 7.26756 7.70569 7.48983
#
# Compressibility (1/GPa) = 0.01174062
#
# Stress axis : x y z
#
# Youngs Moduli (GPa) = 107.80179 100.11810 111.41002
#
# Poissons Ratio (x) = 0.27883 0.23234
# Poissons Ratio (y) = 0.30022 0.37651
# Poissons Ratio (z) = 0.22481 0.33835
#
# Static dielectric constant tensor:
#      x y z
#    x 3.547790 0.000000 0.000000 
#    y 0.000000 4.076070 0.000000 
#    z 0.000000 0.000000 4.234890 
# 
# 
# High freq. dielectric constant tensor:
#      x y z
#    x 1.796870 0.000000 0.000000 
#    y 0.000000 1.854070 0.000000 
#    z 0.000000 0.000000 1.846400 
# 
# From -- ./inp_files/25148.got.cif
#   From: 2010.03.12/outbox.cif.g09.slc.cpg/sg64_13_cif.got.tgz:25148.got - 2010.04.10 20:19:32.
