data_PCOD8264639
_publ_section_title
;
Structure prediction by ZEFSAII (Michael W. Deem and Ramdas Pophale) SiO2 
 PCOD8264639
Probable space group: C M C A
;
_chemical_formula_sum "Si O2"
_cell_formula_units_Z 96
_cell_length_a 19.296201
_cell_length_b 13.751903
_cell_length_c 19.408451
_cell_angle_alpha 90.000000
_cell_angle_beta 90.000000
_cell_angle_gamma 90.000000
_cell_volume 5150.216551
_symmetry_space_group_name_H-M "C M C A"
_symmetry_group_IT_number 64
_symmetry_cell_setting 'orthorhombic'
loop_
_space_group_symop_operation_xyz
x,y,z
-x,1/2-y,1/2+z
x,-y,-z
-x,1/2+y,1/2-z
-x,-y,-z
x,1/2+y,1/2-z
-x,y,z
x,1/2-y,1/2+z
1/2+x,1/2+y,z
1/2-x,-y,1/2+z
1/2+x,1/2-y,-z
1/2-x,y,1/2-z
1/2-x,1/2-y,-z
1/2+x,y,1/2-z
1/2-x,1/2+y,z
1/2+x,-y,1/2+z
loop_
_atom_site_type_symbol
_atom_site_label
_atom_site_fract_x
_atom_site_fract_y
_atom_site_fract_z
Si Si1 0.283194 0.091475 0.673393
Si Si2 0.683054 0.516694 0.423061
Si Si3 0.078093 0.396380 0.150837
Si Si4 0.790693 0.699557 0.150779
Si Si5 0.576389 0.499690 0.208052
Si Si6 0.143771 0.697348 0.295610
O O1 0.250000 0.108131 0.750000
O O2 0.279083 0.189138 0.627199
O O3 0.363227 0.060530 0.671678
O O4 0.238259 0.011753 0.634941
O O5 0.710807 0.500000 0.500000
O O6 0.614222 0.451011 0.413558
O O7 0.673864 0.632545 0.408223
O O8 0.079945 0.475748 0.211209
O O9 0.118445 0.298605 0.171865
O O10 0.000000 0.368733 0.129676
O O11 0.843220 0.709568 0.214662
O O12 0.714719 0.658527 0.170294
O O13 0.500000 0.470453 0.179156
O O14 0.585967 0.614531 0.194976
#
# Coordination Sequence:
#
# PCOD8264639 Si02
#       6
#    16  16  16  16  16  16
#     4  12  19  39  62  86 119 151 199 256 299 344
#     4  12  25  39  59  89 122 164 200 241 304 369
#     4  11  22  37  57  87 125 158 196 244 298 357
#     4  11  19  33  61  88 111 148 197 252 294 339
#     4  11  21  33  58  92 121 147 189 251 307 350
#     4  11  18  34  61  89 115 151 195 248 300 344
#
# _framework density 18.639991999999999
#
# number of rings (size 3 to 8) (size 9 to 14) (size 15 to 20)
#    0.000    0.667   10.000    0.500    0.000    1.000 
#    0.000    0.833    0.000    0.500    0.000    0.000 
#    0.000    0.000    0.000    0.000    0.000    0.000 
#
# Total GULP energy -594909.189790 kJ/mol
# GULP energy per Si atom -12393.941454 kJ/mol
# Density = 1.859757 g / cm^3
# Si number density = 18.639992 Si / 1000 Ang^3
#
#
#
# Elastic Constant Matrix: (Units=GPa)
#
#
# Indices 1 2 3 4 5 6 
#
# 1 119.0232 29.3071 18.4286 0.0000 0.0000 0.0000
# 2 29.3071 111.1005 26.3590 0.0000 0.0000 0.0000
# 3 18.4286 26.3590 51.0856 0.0000 0.0000 0.0000
# 4 0.0000 0.0000 0.0000 13.2470 0.0000 0.0000
# 5 0.0000 0.0000 0.0000 0.0000 11.0725 0.0000
# 6 0.0000 0.0000 0.0000 0.0000 0.0000 23.6759
#
#
#
# Elastic Compliance Matrix: (Units=1/GPa)
#
#
# Indices 1 2 3 4 5 6 
#
# 1 0.009229 -0.001874 -0.002362 0.000000 0.000000 0.000000
# 2 -0.001874 0.010637 -0.004812 0.000000 0.000000 0.000000
# 3 -0.002362 -0.004812 0.022910 0.000000 0.000000 0.000000
# 4 0.000000 0.000000 0.000000 0.075489 0.000000 0.000000
# 5 0.000000 0.000000 0.000000 0.000000 0.090314 0.000000
# 6 0.000000 0.000000 0.000000 0.000000 0.000000 0.042237
#
#
# Mechanical properties :
#
#
# Convention : Reuss Voigt Hill
#
# Bulk Modulus (GPa) = 40.52071 47.71096 44.11583
# Shear Modulus (GPa) = 18.04142 23.40671 20.72407
#
# Velocity S-wave (km/s) = 3.11446 3.54747 3.33799
# Velocity P-wave (km/s) = 5.89228 6.51390 6.21087
#
# Compressibility (1/GPa) = 0.02467874
#
# Stress axis : x y z
#
# Youngs Moduli (GPa) = 108.35507 94.01180 43.64858
#
# Poissons Ratio (x) = 0.17618 0.10311
# Poissons Ratio (y) = 0.20306 0.21005
# Poissons Ratio (z) = 0.25596 0.45242
#
# Static dielectric constant tensor:
#      x y z
#    x 3.607540 0.000000 0.000000 
#    y 0.000000 3.681900 0.000000 
#    z 0.000000 0.000000 2.872340 
# 
# 
# High freq. dielectric constant tensor:
#      x y z
#    x 1.726560 0.000000 0.000000 
#    y 0.000000 1.747460 0.000000 
#    z 0.000000 0.000000 1.659150 
# 
# From -- ./inp_files/40971.got.cif
#   From: 2010.03.12/outbox.cif.g09.slc.cpg/sg64_21_cif.got.tgz:40971.got - 2010.04.10 20:19:32.
