data_PCOD8264448
_publ_section_title
;
Structure prediction by ZEFSAII (Michael W. Deem and Ramdas Pophale) SiO2 
 PCOD8264448
Probable space group: C M C A
;
_chemical_formula_sum "Si O2"
_cell_formula_units_Z 112
_cell_length_a 17.073627
_cell_length_b 28.368626
_cell_length_c 11.029692
_cell_angle_alpha 90.000000
_cell_angle_beta 90.000000
_cell_angle_gamma 90.000000
_cell_volume 5342.290206
_symmetry_space_group_name_H-M "C M C A"
_symmetry_group_IT_number 64
_symmetry_cell_setting 'orthorhombic'
loop_
_space_group_symop_operation_xyz
x,y,z
-x,1/2-y,1/2+z
x,-y,-z
-x,1/2+y,1/2-z
-x,-y,-z
x,1/2+y,1/2-z
-x,y,z
x,1/2-y,1/2+z
1/2+x,1/2+y,z
1/2-x,-y,1/2+z
1/2+x,1/2-y,-z
1/2-x,y,1/2-z
1/2-x,1/2-y,-z
1/2+x,y,1/2-z
1/2-x,1/2+y,z
1/2+x,-y,1/2+z
loop_
_atom_site_type_symbol
_atom_site_label
_atom_site_fract_x
_atom_site_fract_y
_atom_site_fract_z
Si Si1 0.089531 0.916999 0.786901
Si Si2 0.671714 0.156282 0.126582
Si Si3 0.312681 0.494362 0.140367
Si Si4 0.845162 0.656860 0.450982
Si Si5 0.834696 0.391841 0.306909
Si Si6 0.589037 0.331834 0.378366
Si Si7 0.090687 0.770361 0.797949
O O1 0.136394 0.893095 0.675051
O O2 0.094750 0.882274 0.901340
O O3 0.000000 0.923942 0.746797
O O4 0.123029 0.967038 0.827733
O O5 0.765905 0.152902 0.129952
O O6 0.641431 0.202296 0.197709
O O7 0.647809 0.162787 0.988275
O O8 0.250000 0.497425 0.250000
O O9 0.355270 0.443520 0.142624
O O10 0.279663 0.500000 0.000000
O O11 0.831363 0.648399 0.591122
O O12 0.885379 0.707791 0.429493
O O13 0.750000 0.393176 0.250000
O O14 0.899724 0.376534 0.209610
O O15 0.500000 0.329958 0.425631
O O16 0.610250 0.284806 0.302324
O O17 0.000000 0.779450 0.768853
#
# Coordination Sequence:
#
# PCOD8264448 Si02
#       7
#    16  16  16  16  16  16  16
#     4  11  23  40  67  98 127 165 215 267 328 395
#     4  11  22  42  66  93 129 169 222 268 325 392
#     4  11  24  44  71  99 130 174 220 275 333 397
#     4  11  21  40  66  91 124 166 211 271 317 380
#     4  11  24  42  62  95 128 166 216 266 325 388
#     4  11  25  42  63  90 133 176 213 271 333 390
#     4  10  23  40  62  95 126 170 218 262 324 387
#
# _framework density 20.964791000000002
#
# number of rings (size 3 to 8) (size 9 to 14) (size 15 to 20)
#    0.000    1.143    2.857    5.143    2.000    3.714 
#    0.000    0.000    0.000    2.143    0.000    0.000 
#    0.000    0.000    0.000    0.000    0.000    0.000 
#
# Total GULP energy -694246.065614 kJ/mol
# GULP energy per Si atom -12397.251172 kJ/mol
# Density = 2.091707 g / cm^3
# Si number density = 20.964791 Si / 1000 Ang^3
#
#
#
# Elastic Constant Matrix: (Units=GPa)
#
#
# Indices 1 2 3 4 5 6 
#
# 1 73.3066 25.7752 16.1332 0.0000 0.0000 0.0000
# 2 25.7752 106.0901 38.8784 0.0000 0.0000 0.0000
# 3 16.1332 38.8784 97.1715 0.0000 0.0000 0.0000
# 4 0.0000 0.0000 0.0000 29.0831 0.0000 0.0000
# 5 0.0000 0.0000 0.0000 0.0000 21.2762 0.0000
# 6 0.0000 0.0000 0.0000 0.0000 0.0000 24.2070
#
#
#
# Elastic Compliance Matrix: (Units=1/GPa)
#
#
# Indices 1 2 3 4 5 6 
#
# 1 0.015036 -0.003209 -0.001213 0.000000 0.000000 0.000000
# 2 -0.003209 0.011730 -0.004161 0.000000 0.000000 0.000000
# 3 -0.001213 -0.004161 0.012157 0.000000 0.000000 0.000000
# 4 0.000000 0.000000 0.000000 0.034384 0.000000 0.000000
# 5 0.000000 0.000000 0.000000 0.000000 0.047001 0.000000
# 6 0.000000 0.000000 0.000000 0.000000 0.000000 0.041310
#
#
# Mechanical properties :
#
#
# Convention : Reuss Voigt Hill
#
# Bulk Modulus (GPa) = 45.95626 48.68241 47.31933
# Shear Modulus (GPa) = 26.87647 27.96537 27.42092
#
# Velocity S-wave (km/s) = 3.58436 3.65625 3.62048
# Velocity P-wave (km/s) = 6.25288 6.41059 6.33222
#
# Compressibility (1/GPa) = 0.02175982
#
# Stress axis : x y z
#
# Youngs Moduli (GPa) = 66.50505 85.24981 82.25688
#
# Poissons Ratio (x) = 0.27355 0.09975
# Poissons Ratio (y) = 0.21340 0.34223
# Poissons Ratio (z) = 0.08065 0.35468
#
# Static dielectric constant tensor:
#      x y z
#    x 3.665530 0.000000 0.000000 
#    y 0.000000 4.059220 0.000000 
#    z 0.000000 0.000000 3.873390 
# 
# 
# High freq. dielectric constant tensor:
#      x y z
#    x 1.815160 0.000000 0.000000 
#    y 0.000000 1.825590 0.000000 
#    z 0.000000 0.000000 1.826950 
# 
# From -- ./inp_files/15002.got.cif
#   From: 2010.03.12/outbox.cif.g09.slc.cpg/sg64_8_cif.got.tgz:15002.got - 2010.04.10 20:19:32.
