data_PCOD8264615
_publ_section_title
;
Structure prediction by ZEFSAII (Michael W. Deem and Ramdas Pophale) SiO2 
 PCOD8264615
Probable space group: C M C A
;
_chemical_formula_sum "Si O2"
_cell_formula_units_Z 96
_cell_length_a 14.266372
_cell_length_b 14.901044
_cell_length_c 21.684030
_cell_angle_alpha 90.000000
_cell_angle_beta 90.000000
_cell_angle_gamma 90.000000
_cell_volume 4609.674297
_symmetry_space_group_name_H-M "C M C A"
_symmetry_group_IT_number 64
_symmetry_cell_setting 'orthorhombic'
loop_
_space_group_symop_operation_xyz
x,y,z
-x,1/2-y,1/2+z
x,-y,-z
-x,1/2+y,1/2-z
-x,-y,-z
x,1/2+y,1/2-z
-x,y,z
x,1/2-y,1/2+z
1/2+x,1/2+y,z
1/2-x,-y,1/2+z
1/2+x,1/2-y,-z
1/2-x,y,1/2-z
1/2-x,1/2-y,-z
1/2+x,y,1/2-z
1/2-x,1/2+y,z
1/2+x,-y,1/2+z
loop_
_atom_site_type_symbol
_atom_site_label
_atom_site_fract_x
_atom_site_fract_y
_atom_site_fract_z
Si Si1 0.604886 0.895243 0.491557
Si Si2 0.605224 0.707974 0.115620
Si Si3 0.395621 0.023734 0.825112
Si Si4 0.247992 0.628644 0.885712
Si Si5 0.899021 0.845800 0.215364
Si Si6 0.642322 0.345983 0.752673
O O1 0.500000 0.865457 0.468465
O O2 0.627760 0.853188 0.557362
O O3 0.688332 0.866173 0.446286
O O4 0.607163 0.000000 0.500000
O O5 0.500000 0.749115 0.111219
O O6 0.682346 0.784999 0.116961
O O7 0.610955 0.644417 0.176139
O O8 0.500000 0.020482 0.853771
O O9 0.319056 0.039345 0.879998
O O10 0.381718 0.111223 0.782343
O O11 0.380588 0.934883 0.785232
O O12 0.316914 0.622702 0.828211
O O13 0.907867 0.738683 0.221601
O O14 0.000000 0.879708 0.189671
O O15 0.750000 0.323558 0.750000
#
# Coordination Sequence:
#
# PCOD8264615 Si02
#       6
#    16  16  16  16  16  16
#     4  10  25  44  64  93 121 162 221 271 318 375
#     4  11  23  42  65  89 125 168 211 261 317 378
#     4  11  24  38  60  95 131 167 207 254 316 382
#     4  12  22  41  64  92 126 168 213 263 315 380
#     4  11  22  38  59  92 131 165 205 259 314 377
#     4  12  22  39  63  95 132 168 208 257 318 388
#
# _framework density 20.825766000000002
#
# number of rings (size 3 to 8) (size 9 to 14) (size 15 to 20)
#    0.000    0.833    3.333    4.500    4.667    0.000 
#    0.000    0.000    0.000    2.000    0.000    0.000 
#    0.000    0.000    0.000    0.000    0.000    0.000 
#
# Total GULP energy -595018.030995 kJ/mol
# GULP energy per Si atom -12396.208979 kJ/mol
# Density = 2.077837 g / cm^3
# Si number density = 20.825766 Si / 1000 Ang^3
#
#
#
# Elastic Constant Matrix: (Units=GPa)
#
#
# Indices 1 2 3 4 5 6 
#
# 1 125.9537 2.2384 24.5799 0.0000 0.0000 0.0000
# 2 2.2384 69.4740 -8.0093 0.0000 0.0000 0.0000
# 3 24.5799 -8.0093 58.4426 0.0000 0.0000 0.0000
# 4 0.0000 0.0000 0.0000 27.4432 0.0000 0.0000
# 5 0.0000 0.0000 0.0000 0.0000 39.8761 0.0000
# 6 0.0000 0.0000 0.0000 0.0000 0.0000 24.5335
#
#
#
# Elastic Compliance Matrix: (Units=1/GPa)
#
#
# Indices 1 2 3 4 5 6 
#
# 1 0.008684 -0.000712 -0.003750 0.000000 0.000000 0.000000
# 2 -0.000712 0.014683 0.002312 0.000000 0.000000 0.000000
# 3 -0.003750 0.002312 0.019005 0.000000 0.000000 0.000000
# 4 0.000000 0.000000 0.000000 0.036439 0.000000 0.000000
# 5 0.000000 0.000000 0.000000 0.000000 0.025078 0.000000
# 6 0.000000 0.000000 0.000000 0.000000 0.000000 0.040761
#
#
# Mechanical properties :
#
#
# Convention : Reuss Voigt Hill
#
# Bulk Modulus (GPa) = 26.26632 32.38760 29.32696
# Shear Modulus (GPa) = 30.93296 34.04133 32.48714
#
# Velocity S-wave (km/s) = 3.85817 4.04738 3.95390
# Velocity P-wave (km/s) = 5.69974 6.11777 5.91245
#
# Compressibility (1/GPa) = 0.03807157
#
# Stress axis : x y z
#
# Youngs Moduli (GPa) = 115.15613 68.10446 52.61848
#
# Poissons Ratio (x) = 0.04850 0.19731
# Poissons Ratio (y) = 0.08200 -0.12164
# Poissons Ratio (z) = 0.43182 -0.15744
#
# Static dielectric constant tensor:
#      x y z
#    x 4.365600 0.000000 0.000000 
#    y 0.000000 4.512270 0.000000 
#    z 0.000000 0.000000 4.174970 
# 
# 
# High freq. dielectric constant tensor:
#      x y z
#    x 1.851030 0.000000 0.000000 
#    y 0.000000 1.809650 0.000000 
#    z 0.000000 0.000000 1.791030 
# 
# From -- ./inp_files/39163.got.cif
#   From: 2010.03.12/outbox.cif.g09.slc.cpg/sg64_20_cif.got.tgz:39163.got - 2010.04.10 20:19:32.
