data_PCOD8264149
_publ_section_title
;
Structure prediction by ZEFSAII (Michael W. Deem and Ramdas Pophale) SiO2 
 PCOD8264149
Probable space group: C M C A
;
_chemical_formula_sum "Si O2"
_cell_formula_units_Z 80
_cell_length_a 17.543950
_cell_length_b 24.445984
_cell_length_c 9.265878
_cell_angle_alpha 90.000000
_cell_angle_beta 90.000000
_cell_angle_gamma 90.000000
_cell_volume 3973.941612
_symmetry_space_group_name_H-M "C M C A"
_symmetry_group_IT_number 64
_symmetry_cell_setting 'orthorhombic'
loop_
_space_group_symop_operation_xyz
x,y,z
-x,1/2-y,1/2+z
x,-y,-z
-x,1/2+y,1/2-z
-x,-y,-z
x,1/2+y,1/2-z
-x,y,z
x,1/2-y,1/2+z
1/2+x,1/2+y,z
1/2-x,-y,1/2+z
1/2+x,1/2-y,-z
1/2-x,y,1/2-z
1/2-x,1/2-y,-z
1/2+x,y,1/2-z
1/2-x,1/2+y,z
1/2+x,-y,1/2+z
loop_
_atom_site_type_symbol
_atom_site_label
_atom_site_fract_x
_atom_site_fract_y
_atom_site_fract_z
Si Si1 0.854829 0.940468 0.842691
Si Si2 0.264956 0.194802 0.583107
Si Si3 0.917034 0.864419 0.067814
Si Si4 0.587285 0.452425 0.301334
Si Si5 0.303402 0.413022 0.541513
O O1 0.776189 0.944748 0.933769
O O2 0.844449 0.905951 0.695364
O O3 0.884451 0.000973 0.808492
O O4 0.915915 0.908149 0.937689
O O5 0.250000 0.204675 0.750000
O O6 0.250000 0.250000 0.500000
O O7 0.353068 0.181339 0.552132
O O8 0.210587 0.146603 0.525790
O O9 0.905606 0.895165 0.219354
O O10 0.000000 0.835839 0.064645
O O11 0.500000 0.463524 0.350360
O O12 0.642642 0.449840 0.439425
#
# Coordination Sequence:
#
# PCOD8264149 Si02
#       5
#    16  16  16  16  16
#     4  10  22  35  61  92 131 168 215 242 304 373
#     4  11  24  43  70  89 117 158 212 264 320 374
#     4  10  22  41  63  92 129 162 204 259 313 370
#     4  11  22  39  61  92 133 175 209 256 313 371
#     4  10  23  40  58  91 127 167 213 263 305 371
#
# _framework density 20.131146000000001
#
# number of rings (size 3 to 8) (size 9 to 14) (size 15 to 20)
#    0.000    1.600    2.000    1.800    5.600   15.200 
#    0.000    2.000    0.000    0.000    0.000    0.000 
#    0.000    0.000    0.000    0.000    0.000    0.000 
#
# Total GULP energy -496064.653155 kJ/mol
# GULP energy per Si atom -12401.616329 kJ/mol
# Density = 2.008533 g / cm^3
# Si number density = 20.131146 Si / 1000 Ang^3
#
#
#
# Elastic Constant Matrix: (Units=GPa)
#
#
# Indices 1 2 3 4 5 6 
#
# 1 141.1002 64.5066 53.8467 0.0000 0.0000 0.0000
# 2 64.5066 109.4033 38.4406 0.0000 0.0000 0.0000
# 3 53.8467 38.4406 97.4138 0.0000 0.0000 0.0000
# 4 0.0000 0.0000 0.0000 37.2755 0.0000 0.0000
# 5 0.0000 0.0000 0.0000 0.0000 29.4284 0.0000
# 6 0.0000 0.0000 0.0000 0.0000 0.0000 24.2532
#
#
#
# Elastic Compliance Matrix: (Units=1/GPa)
#
#
# Indices 1 2 3 4 5 6 
#
# 1 0.010932 -0.005018 -0.004062 0.000000 0.000000 0.000000
# 2 -0.005018 0.012915 -0.002323 0.000000 0.000000 0.000000
# 3 -0.004062 -0.002323 0.013428 0.000000 0.000000 0.000000
# 4 0.000000 0.000000 0.000000 0.026827 0.000000 0.000000
# 5 0.000000 0.000000 0.000000 0.000000 0.033981 0.000000
# 6 0.000000 0.000000 0.000000 0.000000 0.000000 0.041232
#
#
# Mechanical properties :
#
#
# Convention : Reuss Voigt Hill
#
# Bulk Modulus (GPa) = 69.11742 73.50058 71.30900
# Shear Modulus (GPa) = 29.95028 30.93300 30.44164
#
# Velocity S-wave (km/s) = 3.86133 3.92417 3.89288
# Velocity P-wave (km/s) = 7.36804 7.55793 7.46359
#
# Compressibility (1/GPa) = 0.01446813
#
# Stress axis : x y z
#
# Youngs Moduli (GPa) = 91.47819 77.42689 74.47359
#
# Poissons Ratio (x) = 0.38854 0.30254
# Poissons Ratio (y) = 0.45905 0.17298
# Poissons Ratio (z) = 0.37162 0.17984
#
# Static dielectric constant tensor:
#      x y z
#    x 3.818480 0.000000 0.000000 
#    y 0.000000 3.333890 0.000000 
#    z 0.000000 0.000000 3.837850 
# 
# 
# High freq. dielectric constant tensor:
#      x y z
#    x 1.791420 0.000000 0.000000 
#    y 0.000000 1.758230 0.000000 
#    z 0.000000 0.000000 1.804590 
# 
# From -- ./inp_files/7087.got.cif
#   From: 2010.03.12/outbox.cif.g09.slc.cpg/sg64_4_cif.got.tgz:7087.got - 2010.04.10 20:19:32.
