data_PCOD8264989
_publ_section_title
;
Structure prediction by ZEFSAII (Michael W. Deem and Ramdas Pophale) SiO2 
 PCOD8264989
Probable space group: C M C A
;
_chemical_formula_sum "Si O2"
_cell_formula_units_Z 96
_cell_length_a 15.368167
_cell_length_b 21.052360
_cell_length_c 14.699752
_cell_angle_alpha 90.000000
_cell_angle_beta 90.000000
_cell_angle_gamma 90.000000
_cell_volume 4755.901671
_symmetry_space_group_name_H-M "C M C A"
_symmetry_group_IT_number 64
_symmetry_cell_setting 'orthorhombic'
loop_
_space_group_symop_operation_xyz
x,y,z
-x,1/2-y,1/2+z
x,-y,-z
-x,1/2+y,1/2-z
-x,-y,-z
x,1/2+y,1/2-z
-x,y,z
x,1/2-y,1/2+z
1/2+x,1/2+y,z
1/2-x,-y,1/2+z
1/2+x,1/2-y,-z
1/2-x,y,1/2-z
1/2-x,1/2-y,-z
1/2+x,y,1/2-z
1/2-x,1/2+y,z
1/2+x,-y,1/2+z
loop_
_atom_site_type_symbol
_atom_site_label
_atom_site_fract_x
_atom_site_fract_y
_atom_site_fract_z
Si Si1 0.500000 0.813852 0.807021
Si Si2 0.347591 0.864725 0.108624
Si Si3 0.850965 0.463832 0.253176
Si Si4 0.658305 0.760541 0.264187
Si Si5 0.500000 0.063636 0.277875
Si Si6 0.845876 0.137984 0.907895
Si Si7 0.500000 0.796693 0.013310
Si Si8 0.500000 0.347849 0.955162
O O1 0.417117 0.790077 0.749263
O O2 0.500000 0.890088 0.809933
O O3 0.500000 0.784216 0.906591
O O4 0.375291 0.931431 0.155880
O O5 0.340565 0.816118 0.191104
O O6 0.254007 0.871530 0.058498
O O7 0.416618 0.839555 0.036680
O O8 0.750000 0.485152 0.250000
O O9 0.912322 0.523282 0.272623
O O10 0.869709 0.415445 0.334777
O O11 0.750000 0.724025 0.250000
O O12 0.645908 0.792150 0.363471
O O13 0.500000 0.110506 0.364426
O O14 0.912595 0.133012 0.990899
O O15 0.500000 0.728373 0.063991
#
# Coordination Sequence:
#
# PCOD8264989 Si02
#       8
#     8  16  16  16   8  16   8   8
#     4  12  24  40  51  83 126 164 195 236 306 359
#     4   9  19  37  66  88 110 158 210 239 289 349
#     4   9  20  42  66  86 116 157 209 248 288 354
#     4   9  17  36  62  85 113 156 200 240 289 354
#     4  12  26  39  57  89 122 160 197 248 309 360
#     4   9  18  37  64  92 115 151 198 253 291 351
#     4  12  23  38  58  90 127 160 192 250 296 357
#     4  12  23  37  59  96 132 148 192 251 313 356
#
# _framework density 20.185447
#
# number of rings (size 3 to 8) (size 9 to 14) (size 15 to 20)
#    0.000    2.000    1.667    4.500    0.000    5.333 
#    6.000    1.667    0.000    0.000    0.000    0.000 
#    0.000    0.000    0.000    0.000    0.000    0.000 
#
# Total GULP energy -594971.418997 kJ/mol
# GULP energy per Si atom -12395.237896 kJ/mol
# Density = 2.013950 g / cm^3
# Si number density = 20.185447 Si / 1000 Ang^3
#
#
#
# Elastic Constant Matrix: (Units=GPa)
#
#
# Indices 1 2 3 4 5 6 
#
# 1 157.4409 71.3756 43.6629 0.0000 0.0000 0.0000
# 2 71.3756 114.6543 25.9549 0.0000 0.0000 0.0000
# 3 43.6629 25.9549 56.0895 0.0000 0.0000 0.0000
# 4 0.0000 0.0000 0.0000 27.1847 0.0000 0.0000
# 5 0.0000 0.0000 0.0000 0.0000 22.1799 0.0000
# 6 0.0000 0.0000 0.0000 0.0000 0.0000 3.1704
#
#
#
# Elastic Compliance Matrix: (Units=1/GPa)
#
#
# Indices 1 2 3 4 5 6 
#
# 1 0.010210 -0.005090 -0.005593 0.000000 0.000000 0.000000
# 2 -0.005090 0.012280 -0.001720 0.000000 0.000000 0.000000
# 3 -0.005593 -0.001720 0.022978 0.000000 0.000000 0.000000
# 4 0.000000 0.000000 0.000000 0.036785 0.000000 0.000000
# 5 0.000000 0.000000 0.000000 0.000000 0.045086 0.000000
# 6 0.000000 0.000000 0.000000 0.000000 0.000000 0.315413
#
#
# Mechanical properties :
#
#
# Convention : Reuss Voigt Hill
#
# Bulk Modulus (GPa) = 48.39649 67.79682 58.09665
# Shear Modulus (GPa) = 10.53861 22.98643 16.76252
#
# Velocity S-wave (km/s) = 2.28741 3.37822 2.88484
# Velocity P-wave (km/s) = 5.56815 6.99116 6.31984
#
# Compressibility (1/GPa) = 0.02066266
#
# Stress axis : x y z
#
# Youngs Moduli (GPa) = 97.94130 81.43342 43.51936
#
# Poissons Ratio (x) = 0.41450 0.24339
# Poissons Ratio (y) = 0.49853 0.07486
# Poissons Ratio (z) = 0.54776 0.14007
#
# Static dielectric constant tensor:
#      x y z
#    x 4.251350 0.000000 0.000000 
#    y 0.000000 3.535720 0.000000 
#    z 0.000000 0.000000 3.440120 
# 
# 
# High freq. dielectric constant tensor:
#      x y z
#    x 1.808160 0.000000 0.000000 
#    y 0.000000 1.768930 0.000000 
#    z 0.000000 0.000000 1.766540 
# 
# From -- ./inp_files/24035.got.cif
#   From: 2010.03.12/outbox.cif.g09.slc.cpg/sg64_13_cif.got.tgz:24035.got - 2010.04.10 20:19:32.
