data_PCOD8264833
_publ_section_title
;
Structure prediction by ZEFSAII (Michael W. Deem and Ramdas Pophale) SiO2 
 PCOD8264833
Probable space group: C M C A
;
_chemical_formula_sum "Si O2"
_cell_formula_units_Z 112
_cell_length_a 27.160725
_cell_length_b 13.516938
_cell_length_c 13.541482
_cell_angle_alpha 90.000000
_cell_angle_beta 90.000000
_cell_angle_gamma 90.000000
_cell_volume 4971.482064
_symmetry_space_group_name_H-M "C M C A"
_symmetry_group_IT_number 64
_symmetry_cell_setting 'orthorhombic'
loop_
_space_group_symop_operation_xyz
x,y,z
-x,1/2-y,1/2+z
x,-y,-z
-x,1/2+y,1/2-z
-x,-y,-z
x,1/2+y,1/2-z
-x,y,z
x,1/2-y,1/2+z
1/2+x,1/2+y,z
1/2-x,-y,1/2+z
1/2+x,1/2-y,-z
1/2-x,y,1/2-z
1/2-x,1/2-y,-z
1/2+x,y,1/2-z
1/2-x,1/2+y,z
1/2+x,-y,1/2+z
loop_
_atom_site_type_symbol
_atom_site_label
_atom_site_fract_x
_atom_site_fract_y
_atom_site_fract_z
Si Si1 0.289036 0.162149 0.510734
Si Si2 0.397061 0.714951 0.947016
Si Si3 0.893994 0.992287 0.263147
Si Si4 0.942211 0.201621 0.732957
Si Si5 0.444273 0.905990 0.931872
Si Si6 0.710648 0.490872 0.834607
Si Si7 0.443981 0.104631 0.394306
O O1 0.250000 0.250000 0.500000
O O2 0.338551 0.218294 0.542591
O O3 0.274502 0.085633 0.598360
O O4 0.295174 0.104365 0.406328
O O5 0.415108 0.716306 0.835975
O O6 0.422898 0.813182 0.994140
O O7 0.415444 0.616157 0.002489
O O8 0.906404 0.078920 0.340894
O O9 0.924759 0.008979 0.162807
O O10 0.914157 0.892379 0.314628
O O11 0.837752 0.987923 0.230086
O O12 0.932737 0.297518 0.668416
O O13 0.000000 0.178546 0.744240
O O14 0.500000 0.882953 0.892250
O O15 0.446314 0.000000 0.000000
O O16 0.750000 0.468346 0.750000
O O17 0.500000 0.088783 0.420565
#
# Coordination Sequence:
#
# PCOD8264833 Si02
#       7
#    16  16  16  16  16  16  16
#     4  11  27  51  74 102 137 176 232 297 358 424
#     4  12  23  43  68  98 139 182 225 282 345 405
#     4  12  23  43  68  97 139 181 227 283 345 406
#     4  11  23  39  65 101 142 183 228 275 332 409
#     4  11  24  42  65 100 145 192 240 282 331 402
#     4  11  27  51  74 102 137 176 231 298 359 423
#     4  11  23  39  64 101 142 182 227 273 332 405
#
# _framework density 22.528493999999998
#
# number of rings (size 3 to 8) (size 9 to 14) (size 15 to 20)
#    0.000    0.714    4.286    3.429    2.000    5.714 
#    0.000    1.429    0.000    0.000    0.000    0.000 
#    0.000    0.000    0.000    0.000    0.000    0.000 
#
# Total GULP energy -694236.984279 kJ/mol
# GULP energy per Si atom -12397.089005 kJ/mol
# Density = 2.247722 g / cm^3
# Si number density = 22.528494 Si / 1000 Ang^3
#
#
#
# Elastic Constant Matrix: (Units=GPa)
#
#
# Indices 1 2 3 4 5 6 
#
# 1 123.4226 16.0534 31.8613 0.0000 0.0000 0.0000
# 2 16.0534 59.1345 -0.3267 0.0000 0.0000 0.0000
# 3 31.8613 -0.3267 76.6120 0.0000 0.0000 0.0000
# 4 0.0000 0.0000 0.0000 32.2475 0.0000 0.0000
# 5 0.0000 0.0000 0.0000 0.0000 0.5426 0.0000
# 6 0.0000 0.0000 0.0000 0.0000 0.0000 29.4838
#
#
#
# Elastic Compliance Matrix: (Units=1/GPa)
#
#
# Indices 1 2 3 4 5 6 
#
# 1 0.009457 -0.002589 -0.003944 0.000000 0.000000 0.000000
# 2 -0.002589 0.017620 0.001152 0.000000 0.000000 0.000000
# 3 -0.003944 0.001152 0.014698 0.000000 0.000000 0.000000
# 4 0.000000 0.000000 0.000000 0.031010 0.000000 0.000000
# 5 0.000000 0.000000 0.000000 0.000000 1.842905 0.000000
# 6 0.000000 0.000000 0.000000 0.000000 0.000000 0.033917
#
#
# Mechanical properties :
#
#
# Convention : Reuss Voigt Hill
#
# Bulk Modulus (GPa) = 32.24523 39.37168 35.80845
# Shear Modulus (GPa) = 2.53716 26.56018 14.54867
#
# Velocity S-wave (km/s) = 1.06238 3.43732 2.54400
# Velocity P-wave (km/s) = 3.98108 5.76783 4.95565
#
# Compressibility (1/GPa) = 0.03101234
#
# Stress axis : x y z
#
# Youngs Moduli (GPa) = 105.73982 56.75415 68.03662
#
# Poissons Ratio (x) = 0.14695 0.26834
# Poissons Ratio (y) = 0.27378 -0.07837
# Poissons Ratio (z) = 0.41705 -0.06538
#
# Static dielectric constant tensor:
#      x y z
#    x 4.330560 0.000000 0.000000 
#    y 0.000000 5.099440 0.000000 
#    z 0.000000 0.000000 4.121940 
# 
# 
# High freq. dielectric constant tensor:
#      x y z
#    x 1.878450 0.000000 0.000000 
#    y 0.000000 1.906850 0.000000 
#    z 0.000000 0.000000 1.901670 
# 
# From -- ./inp_files/28105.got.cif
#   From: 2010.03.12/outbox.cif.g09.slc.cpg/sg64_15_cif.got.tgz:28105.got - 2010.04.10 20:19:32.
