data_PCOD8264123
_publ_section_title
;
Structure prediction by ZEFSAII (Michael W. Deem and Ramdas Pophale) SiO2 
 PCOD8264123
Probable space group: C M C A
;
_chemical_formula_sum "Si O2"
_cell_formula_units_Z 88
_cell_length_a 28.685017
_cell_length_b 17.488795
_cell_length_c 9.083930
_cell_angle_alpha 90.000000
_cell_angle_beta 90.000000
_cell_angle_gamma 90.000000
_cell_volume 4557.102296
_symmetry_space_group_name_H-M "C M C A"
_symmetry_group_IT_number 64
_symmetry_cell_setting 'orthorhombic'
loop_
_space_group_symop_operation_xyz
x,y,z
-x,1/2-y,1/2+z
x,-y,-z
-x,1/2+y,1/2-z
-x,-y,-z
x,1/2+y,1/2-z
-x,y,z
x,1/2-y,1/2+z
1/2+x,1/2+y,z
1/2-x,-y,1/2+z
1/2+x,1/2-y,-z
1/2-x,y,1/2-z
1/2-x,1/2-y,-z
1/2+x,y,1/2-z
1/2-x,1/2+y,z
1/2+x,-y,1/2+z
loop_
_atom_site_type_symbol
_atom_site_label
_atom_site_fract_x
_atom_site_fract_y
_atom_site_fract_z
Si Si1 0.715238 0.843153 0.949106
Si Si2 0.100840 0.375472 0.540054
Si Si3 0.311142 0.711558 0.139345
Si Si4 0.899495 0.974212 0.238548
Si Si5 0.000000 0.620219 0.446957
Si Si6 0.000000 0.017778 0.766510
Si Si7 0.168714 0.000000 0.500000
O O1 0.691213 0.797313 0.814675
O O2 0.771275 0.841150 0.935819
O O3 0.698282 0.800132 0.097054
O O4 0.701335 0.931379 0.946974
O O5 0.138341 0.312021 0.580903
O O6 0.102317 0.444515 0.656600
O O7 0.111457 0.406840 0.376830
O O8 0.049312 0.333993 0.544664
O O9 0.951088 0.961293 0.313318
O O10 0.862091 0.969504 0.366525
O O11 0.000000 0.573194 0.294629
O O12 0.000000 0.559712 0.577835
#
# Coordination Sequence:
#
# PCOD8264123 Si02
#       7
#    16  16  16  16   8   8   8
#     4  10  24  40  59  83 115 149 192 231 276 344
#     4   9  16  33  56  81 107 151 188 228 279 342
#     4  10  21  43  59  79 111 155 188 224 292 339
#     4   9  18  29  53  82 116 146 186 232 283 328
#     4   7  12  24  52  80 104 136 193 230 265 330
#     4   7  12  27  44  76 112 149 181 221 276 343
#     4  12  22  37  52  92 118 139 188 250 270 324
#
# _framework density 19.310517000000001
#
# number of rings (size 3 to 8) (size 9 to 14) (size 15 to 20)
#    0.000    2.727    1.818    2.182    2.545    1.818 
#    0.000    0.000    0.000    3.273    0.000    0.000 
#    0.000    0.000    0.000    0.000    0.000    0.000 
#
# Total GULP energy -545172.439370 kJ/mol
# GULP energy per Si atom -12390.282713 kJ/mol
# Density = 1.926657 g / cm^3
# Si number density = 19.310517 Si / 1000 Ang^3
#
#
#
# Elastic Constant Matrix: (Units=GPa)
#
#
# Indices 1 2 3 4 5 6 
#
# 1 135.8962 26.3782 20.1470 0.0000 0.0000 0.0000
# 2 26.3782 50.1063 17.3238 0.0000 0.0000 0.0000
# 3 20.1470 17.3238 65.8700 0.0000 0.0000 0.0000
# 4 0.0000 0.0000 0.0000 17.8449 0.0000 0.0000
# 5 0.0000 0.0000 0.0000 0.0000 16.3548 0.0000
# 6 0.0000 0.0000 0.0000 0.0000 0.0000 20.3336
#
#
#
# Elastic Compliance Matrix: (Units=1/GPa)
#
#
# Indices 1 2 3 4 5 6 
#
# 1 0.008335 -0.003857 -0.001535 0.000000 0.000000 0.000000
# 2 -0.003857 0.023739 -0.005064 0.000000 0.000000 0.000000
# 3 -0.001535 -0.005064 0.016983 0.000000 0.000000 0.000000
# 4 0.000000 0.000000 0.000000 0.056039 0.000000 0.000000
# 5 0.000000 0.000000 0.000000 0.000000 0.061144 0.000000
# 6 0.000000 0.000000 0.000000 0.000000 0.000000 0.049180
#
#
# Mechanical properties :
#
#
# Convention : Reuss Voigt Hill
#
# Bulk Modulus (GPa) = 35.53019 42.17451 38.85235
# Shear Modulus (GPa) = 20.34910 23.44157 21.89533
#
# Velocity S-wave (km/s) = 3.24972 3.48793 3.37093
# Velocity P-wave (km/s) = 5.70266 6.17320 5.94259
#
# Compressibility (1/GPa) = 0.02814508
#
# Stress axis : x y z
#
# Youngs Moduli (GPa) = 119.97896 42.12513 58.88391
#
# Poissons Ratio (x) = 0.16248 0.09038
# Poissons Ratio (y) = 0.46278 0.29816
# Poissons Ratio (z) = 0.18415 0.21330
#
# Static dielectric constant tensor:
#      x y z
#    x 3.966310 0.000000 0.000000 
#    y 0.000000 3.003060 0.000000 
#    z 0.000000 0.000000 3.364910 
# 
# 
# High freq. dielectric constant tensor:
#      x y z
#    x 1.772110 0.000000 0.000000 
#    y 0.000000 1.704090 0.000000 
#    z 0.000000 0.000000 1.735270 
# 
# From -- ./inp_files/11113.got.cif
#   From: 2010.03.12/outbox.cif.g09.slc.cpg/sg64_6_cif.got.tgz:11113.got - 2010.04.10 20:19:32.
