data_PCOD8264976
_publ_section_title
;
Structure prediction by ZEFSAII (Michael W. Deem and Ramdas Pophale) SiO2 
 PCOD8264976
Probable space group: C M C A
;
_chemical_formula_sum "Si O2"
_cell_formula_units_Z 96
_cell_length_a 13.887827
_cell_length_b 23.049608
_cell_length_c 14.789373
_cell_angle_alpha 90.000000
_cell_angle_beta 90.000000
_cell_angle_gamma 90.000000
_cell_volume 4734.210933
_symmetry_space_group_name_H-M "C M C A"
_symmetry_group_IT_number 64
_symmetry_cell_setting 'orthorhombic'
loop_
_space_group_symop_operation_xyz
x,y,z
-x,1/2-y,1/2+z
x,-y,-z
-x,1/2+y,1/2-z
-x,-y,-z
x,1/2+y,1/2-z
-x,y,z
x,1/2-y,1/2+z
1/2+x,1/2+y,z
1/2-x,-y,1/2+z
1/2+x,1/2-y,-z
1/2-x,y,1/2-z
1/2-x,1/2-y,-z
1/2+x,y,1/2-z
1/2-x,1/2+y,z
1/2+x,-y,1/2+z
loop_
_atom_site_type_symbol
_atom_site_label
_atom_site_fract_x
_atom_site_fract_y
_atom_site_fract_z
Si Si1 0.805278 0.139328 0.667018
Si Si2 0.201055 0.747810 0.595528
Si Si3 0.292389 0.862735 0.659231
Si Si4 0.000000 0.395364 0.910981
Si Si5 0.500000 0.771335 0.975605
Si Si6 0.693658 0.434325 0.512974
Si Si7 0.000000 0.207714 0.678688
Si Si8 0.000000 0.166495 0.219604
O O1 0.750000 0.106607 0.750000
O O2 0.731163 0.190569 0.646696
O O3 0.818827 0.095712 0.584194
O O4 0.907623 0.167185 0.694058
O O5 0.250000 0.750000 0.500000
O O6 0.228921 0.804246 0.652761
O O7 0.088211 0.744886 0.578658
O O8 0.250000 0.893317 0.750000
O O9 0.275513 0.902316 0.571276
O O10 0.405691 0.849935 0.661912
O O11 0.906175 0.433779 0.931295
O O12 0.000000 0.372059 0.809415
O O13 0.000000 0.341078 0.978339
O O14 0.500000 0.757965 0.082285
O O15 0.727328 0.500000 0.500000
O O16 0.000000 0.264369 0.744951
#
# Coordination Sequence:
#
# PCOD8264976 Si02
#       8
#    16  16  16   8   8  16   8   8
#     4  12  26  43  64  99 139 178 225 271 344 412
#     4  12  20  37  64  98 139 178 211 266 342 416
#     4  12  22  41  66 101 138 171 219 277 342 404
#     4  12  21  43  70 100 128 171 235 280 327 394
#     4  12  20  35  67  95 139 177 220 255 326 416
#     4  12  26  47  71  92 130 183 240 293 326 379
#     4  12  22  39  64 100 143 175 205 270 339 424
#     4  12  24  35  69 111 138 171 210 271 351 418
#
# _framework density 20.277930000000001
#
# number of rings (size 3 to 8) (size 9 to 14) (size 15 to 20)
#    0.000    0.000   10.000    0.750    2.333    0.667 
#    0.000    1.250    0.000    0.000    0.000    0.000 
#    0.000    0.000    0.000    0.000    0.000    0.000 
#
# Total GULP energy -595283.101280 kJ/mol
# GULP energy per Si atom -12401.731277 kJ/mol
# Density = 2.023178 g / cm^3
# Si number density = 20.277930 Si / 1000 Ang^3
#
#
#
# Elastic Constant Matrix: (Units=GPa)
#
#
# Indices 1 2 3 4 5 6 
#
# 1 168.0196 27.5591 46.1335 0.0000 0.0000 0.0000
# 2 27.5591 96.2701 25.1229 0.0000 0.0000 0.0000
# 3 46.1335 25.1229 98.9111 0.0000 0.0000 0.0000
# 4 0.0000 0.0000 0.0000 6.0680 0.0000 0.0000
# 5 0.0000 0.0000 0.0000 0.0000 35.2747 0.0000
# 6 0.0000 0.0000 0.0000 0.0000 0.0000 3.4530
#
#
#
# Elastic Compliance Matrix: (Units=1/GPa)
#
#
# Indices 1 2 3 4 5 6 
#
# 1 0.006958 -0.001226 -0.002934 0.000000 0.000000 0.000000
# 2 -0.001226 0.011341 -0.002309 0.000000 0.000000 0.000000
# 3 -0.002934 -0.002309 0.012065 0.000000 0.000000 0.000000
# 4 0.000000 0.000000 0.000000 0.164798 0.000000 0.000000
# 5 0.000000 0.000000 0.000000 0.000000 0.028349 0.000000
# 6 0.000000 0.000000 0.000000 0.000000 0.000000 0.289601
#
#
# Mechanical properties :
#
#
# Convention : Reuss Voigt Hill
#
# Bulk Modulus (GPa) = 57.38392 62.31463 59.84928
# Shear Modulus (GPa) = 9.40099 26.58485 17.99292
#
# Velocity S-wave (km/s) = 2.15549 3.62473 2.98202
# Velocity P-wave (km/s) = 5.87835 6.95092 6.43701
#
# Compressibility (1/GPa) = 0.01742648
#
# Stress axis : x y z
#
# Youngs Moduli (GPa) = 143.71050 88.17605 82.88489
#
# Poissons Ratio (x) = 0.10813 0.24319
# Poissons Ratio (y) = 0.17623 0.19135
# Poissons Ratio (z) = 0.42165 0.20356
#
# Static dielectric constant tensor:
#      x y z
#    x 3.749230 0.000000 0.000000 
#    y 0.000000 3.309830 0.000000 
#    z 0.000000 0.000000 3.930830 
# 
# 
# High freq. dielectric constant tensor:
#      x y z
#    x 1.806770 0.000000 0.000000 
#    y 0.000000 1.749790 0.000000 
#    z 0.000000 0.000000 1.810430 
# 
# From -- ./inp_files/24174.got.cif
#   From: 2010.03.12/outbox.cif.g09.slc.cpg/sg64_13_cif.got.tgz:24174.got - 2010.04.10 20:19:32.
