data_PCOD8264029
_publ_section_title
;
Structure prediction by ZEFSAII (Michael W. Deem and Ramdas Pophale) SiO2 
 PCOD8264029
Probable space group: C M C A
;
_chemical_formula_sum "Si O2"
_cell_formula_units_Z 96
_cell_length_a 13.972611
_cell_length_b 20.045094
_cell_length_c 17.241607
_cell_angle_alpha 90.000000
_cell_angle_beta 90.000000
_cell_angle_gamma 90.000000
_cell_volume 4829.068960
_symmetry_space_group_name_H-M "C M C A"
_symmetry_group_IT_number 64
_symmetry_cell_setting 'orthorhombic'
loop_
_space_group_symop_operation_xyz
x,y,z
-x,1/2-y,1/2+z
x,-y,-z
-x,1/2+y,1/2-z
-x,-y,-z
x,1/2+y,1/2-z
-x,y,z
x,1/2-y,1/2+z
1/2+x,1/2+y,z
1/2-x,-y,1/2+z
1/2+x,1/2-y,-z
1/2-x,y,1/2-z
1/2-x,1/2-y,-z
1/2+x,y,1/2-z
1/2-x,1/2+y,z
1/2+x,-y,1/2+z
loop_
_atom_site_type_symbol
_atom_site_label
_atom_site_fract_x
_atom_site_fract_y
_atom_site_fract_z
Si Si1 0.792969 0.990291 0.333378
Si Si2 0.000000 0.108508 0.185282
Si Si3 0.699385 0.377716 0.071467
Si Si4 0.000000 0.363615 0.347963
Si Si5 0.204331 0.766632 0.331689
Si Si6 0.000000 0.023495 0.717411
Si Si7 0.701811 0.121162 0.388735
Si Si8 0.500000 0.755405 0.224556
O O1 0.750000 0.970950 0.250000
O O2 0.774617 0.067834 0.351687
O O3 0.740239 0.947405 0.398306
O O4 0.905496 0.972352 0.335692
O O5 0.092739 0.103413 0.131274
O O6 0.000000 0.175661 0.237138
O O7 0.000000 0.047816 0.243124
O O8 0.589865 0.371029 0.096178
O O9 0.759645 0.315711 0.102453
O O10 0.710681 0.377250 0.980200
O O11 0.000000 0.418194 0.280437
O O12 0.000000 0.290392 0.308588
O O13 0.250000 0.787271 0.250000
O O14 0.233756 0.691579 0.352972
O O15 0.090698 0.776823 0.326548
#
# Coordination Sequence:
#
# PCOD8264029 Si02
#       8
#    16   8  16   8  16   8  16   8
#     4  12  23  42  64  91 122 163 206 253 303 369
#     4  10  21  40  63  93 124 158 204 261 302 356
#     4  12  24  40  63  94 126 164 202 255 314 361
#     4  12  21  38  63  94 123 155 207 262 301 359
#     4  11  22  41  64  91 123 164 208 252 300 366
#     4  12  24  38  65  95 118 156 214 254 300 360
#     4  11  24  41  63  93 129 162 203 254 313 363
#     4  10  22  36  63  92 120 156 209 259 297 357
#
# _framework density 19.879608000000001
#
# number of rings (size 3 to 8) (size 9 to 14) (size 15 to 20)
#    0.000    0.667    5.000    3.500    2.333    0.000 
#    0.000    5.000    0.000    0.000    0.000    0.000 
#    0.000    0.000    0.000    0.000    0.000    0.000 
#
# Total GULP energy -595506.686625 kJ/mol
# GULP energy per Si atom -12406.389305 kJ/mol
# Density = 1.983436 g / cm^3
# Si number density = 19.879608 Si / 1000 Ang^3
#
#
#
# Elastic Constant Matrix: (Units=GPa)
#
#
# Indices 1 2 3 4 5 6 
#
# 1 113.2777 19.9730 29.2940 0.0000 0.0000 0.0000
# 2 19.9730 72.3680 3.9318 0.0000 0.0000 0.0000
# 3 29.2940 3.9318 77.0842 0.0000 0.0000 0.0000
# 4 0.0000 0.0000 0.0000 24.2711 0.0000 0.0000
# 5 0.0000 0.0000 0.0000 0.0000 -17.4472 0.0000
# 6 0.0000 0.0000 0.0000 0.0000 0.0000 26.6794
#
#
#
# Elastic Compliance Matrix: (Units=1/GPa)
#
#
# Indices 1 2 3 4 5 6 
#
# 1 0.010266 -0.002629 -0.003767 0.000000 0.000000 0.000000
# 2 -0.002629 0.014530 0.000258 0.000000 0.000000 0.000000
# 3 -0.003767 0.000258 0.014391 0.000000 0.000000 0.000000
# 4 0.000000 0.000000 0.000000 0.041201 0.000000 0.000000
# 5 0.000000 0.000000 0.000000 0.000000 -0.057316 0.000000
# 6 0.000000 0.000000 0.000000 0.000000 0.000000 0.037482
#
#
# Mechanical properties :
#
#
# Convention : Reuss Voigt Hill
#
# Bulk Modulus (GPa) = 37.15974 41.01417 39.08696
# Shear Modulus (GPa) = 61.12462 20.66939 40.89701
#
# Velocity S-wave (km/s) = 5.55105 3.22798 4.54059
# Velocity P-wave (km/s) = 7.73424 5.87956 6.86978
#
# Compressibility (1/GPa) = 0.02691084
#
# Stress axis : x y z
#
# Youngs Moduli (GPa) = 97.41360 68.82454 69.48655
#
# Poissons Ratio (x) = 0.18091 0.26176
# Poissons Ratio (y) = 0.25605 -0.01791
# Poissons Ratio (z) = 0.36697 -0.01774
#
# Static dielectric constant tensor:
#      x y z
#    x 3.611550 0.000000 0.000000 
#    y 0.000000 3.843740 0.000000 
#    z 0.000000 0.000000 3.412970 
# 
# 
# High freq. dielectric constant tensor:
#      x y z
#    x 1.789110 0.000000 0.000000 
#    y 0.000000 1.794760 0.000000 
#    z 0.000000 0.000000 1.760760 
# 
# From -- ./inp_files/24037.got.cif
#   From: 2010.03.12/outbox.cif.g09.slc.cpg/sg64_13_cif.got.tgz:24037.got - 2010.04.10 20:19:32.
