data_PCOD8264166
_publ_section_title
;
Structure prediction by ZEFSAII (Michael W. Deem and Ramdas Pophale) SiO2 
 PCOD8264166
Probable space group: C M C A
;
_chemical_formula_sum "Si O2"
_cell_formula_units_Z 96
_cell_length_a 19.605487
_cell_length_b 23.364766
_cell_length_c 11.386504
_cell_angle_alpha 90.000000
_cell_angle_beta 90.000000
_cell_angle_gamma 90.000000
_cell_volume 5215.902608
_symmetry_space_group_name_H-M "C M C A"
_symmetry_group_IT_number 64
_symmetry_cell_setting 'orthorhombic'
loop_
_space_group_symop_operation_xyz
x,y,z
-x,1/2-y,1/2+z
x,-y,-z
-x,1/2+y,1/2-z
-x,-y,-z
x,1/2+y,1/2-z
-x,y,z
x,1/2-y,1/2+z
1/2+x,1/2+y,z
1/2-x,-y,1/2+z
1/2+x,1/2-y,-z
1/2-x,y,1/2-z
1/2-x,1/2-y,-z
1/2+x,y,1/2-z
1/2-x,1/2+y,z
1/2+x,-y,1/2+z
loop_
_atom_site_type_symbol
_atom_site_label
_atom_site_fract_x
_atom_site_fract_y
_atom_site_fract_z
Si Si1 0.423317 0.157264 0.368280
Si Si2 0.079056 0.716052 0.881527
Si Si3 0.828661 0.628959 0.755629
Si Si4 0.424887 0.362251 0.599829
Si Si5 0.182371 0.935144 0.491169
Si Si6 0.161026 0.932381 0.011081
O O1 0.500000 0.148057 0.415029
O O2 0.394638 0.219368 0.405771
O O3 0.421412 0.162346 0.228886
O O4 0.380357 0.104186 0.416492
O O5 0.123435 0.684040 0.780453
O O6 0.000000 0.715597 0.839995
O O7 0.089611 0.687812 0.007609
O O8 0.750000 0.649703 0.750000
O O9 0.837594 0.584778 0.861459
O O10 0.852739 0.594018 0.640279
O O11 0.500000 0.389287 0.575330
O O12 0.365085 0.407865 0.589830
O O13 0.260532 0.923307 0.522745
O O14 0.163713 0.000000 0.500000
O O15 0.141057 0.000000 0.000000
#
# Coordination Sequence:
#
# PCOD8264166 Si02
#       6
#    16  16  16  16  16  16
#     4  10  22  37  56  82 113 144 181 230 274 329
#     4   9  19  37  59  80 106 148 187 223 277 327
#     4   9  19  37  55  82 115 141 183 232 270 325
#     4   9  19  36  55  81 111 140 186 232 270 322
#     4   9  19  36  59  80 107 146 186 227 269 323
#     4  10  22  37  56  83 114 150 184 221 279 335
#
# _framework density 18.405252000000001
#
# number of rings (size 3 to 8) (size 9 to 14) (size 15 to 20)
#    0.000    2.667    0.000    0.000    4.667    2.000 
#    3.000    2.500    0.000    0.000    0.000    0.000 
#    0.000    0.000    0.000    0.000    0.000    0.000 
#
# Total GULP energy -594970.595246 kJ/mol
# GULP energy per Si atom -12395.220734 kJ/mol
# Density = 1.836336 g / cm^3
# Si number density = 18.405252 Si / 1000 Ang^3
#
#
#
# Elastic Constant Matrix: (Units=GPa)
#
#
# Indices 1 2 3 4 5 6 
#
# 1 76.6966 75.5328 35.1548 0.0000 0.0000 0.0000
# 2 75.5328 146.3046 41.7824 0.0000 0.0000 0.0000
# 3 35.1548 41.7824 69.8571 0.0000 0.0000 0.0000
# 4 0.0000 0.0000 0.0000 23.1531 0.0000 0.0000
# 5 0.0000 0.0000 0.0000 0.0000 28.6149 0.0000
# 6 0.0000 0.0000 0.0000 0.0000 0.0000 31.6306
#
#
#
# Elastic Compliance Matrix: (Units=1/GPa)
#
#
# Indices 1 2 3 4 5 6 
#
# 1 0.028972 -0.013017 -0.006794 0.000000 0.000000 0.000000
# 2 -0.013017 0.014092 -0.001878 0.000000 0.000000 0.000000
# 3 -0.006794 -0.001878 0.018857 0.000000 0.000000 0.000000
# 4 0.000000 0.000000 0.000000 0.043191 0.000000 0.000000
# 5 0.000000 0.000000 0.000000 0.000000 0.034947 0.000000
# 6 0.000000 0.000000 0.000000 0.000000 0.000000 0.031615
#
#
# Mechanical properties :
#
#
# Convention : Reuss Voigt Hill
#
# Bulk Modulus (GPa) = 53.92896 66.42203 60.17550
# Shear Modulus (GPa) = 22.60063 26.03894 24.31978
#
# Velocity S-wave (km/s) = 3.50801 3.76540 3.63898
# Velocity P-wave (km/s) = 6.76554 7.42101 7.10084
#
# Compressibility (1/GPa) = 0.01854291
#
# Stress axis : x y z
#
# Youngs Moduli (GPa) = 34.51569 70.96379 53.03039
#
# Poissons Ratio (x) = 0.92375 0.36030
# Poissons Ratio (y) = 0.44930 0.09957
# Poissons Ratio (z) = 0.23451 0.13324
#
# Static dielectric constant tensor:
#      x y z
#    x 3.588300 0.000000 0.000000 
#    y 0.000000 3.482820 0.000000 
#    z 0.000000 0.000000 3.352610 
# 
# 
# High freq. dielectric constant tensor:
#      x y z
#    x 1.713460 0.000000 0.000000 
#    y 0.000000 1.713540 0.000000 
#    z 0.000000 0.000000 1.715200 
# 
# From -- ./inp_files/16174.got.cif
#   From: 2010.03.12/outbox.cif.g09.slc.cpg/sg64_9_cif.got.tgz:16174.got - 2010.04.10 20:19:32.
