data_PCOD8264735
_publ_section_title
;
Structure prediction by ZEFSAII (Michael W. Deem and Ramdas Pophale) SiO2 
 PCOD8264735
Probable space group: C M C A
;
_chemical_formula_sum "Si O2"
_cell_formula_units_Z 80
_cell_length_a 21.868591
_cell_length_b 13.716876
_cell_length_c 13.294966
_cell_angle_alpha 90.000000
_cell_angle_beta 90.000000
_cell_angle_gamma 90.000000
_cell_volume 3988.074346
_symmetry_space_group_name_H-M "C M C A"
_symmetry_group_IT_number 64
_symmetry_cell_setting 'orthorhombic'
loop_
_space_group_symop_operation_xyz
x,y,z
-x,1/2-y,1/2+z
x,-y,-z
-x,1/2+y,1/2-z
-x,-y,-z
x,1/2+y,1/2-z
-x,y,z
x,1/2-y,1/2+z
1/2+x,1/2+y,z
1/2-x,-y,1/2+z
1/2+x,1/2-y,-z
1/2-x,y,1/2-z
1/2-x,1/2-y,-z
1/2+x,y,1/2-z
1/2-x,1/2+y,z
1/2+x,-y,1/2+z
loop_
_atom_site_type_symbol
_atom_site_label
_atom_site_fract_x
_atom_site_fract_y
_atom_site_fract_z
Si Si1 0.500000 0.092721 0.129839
Si Si2 0.316535 0.588621 0.760787
Si Si3 0.123269 0.267186 0.121415
Si Si4 0.500000 0.129064 0.895447
Si Si5 0.128776 0.886631 0.720586
Si Si6 0.189313 0.247227 0.928609
O O1 0.438210 0.136272 0.176534
O O2 0.500000 0.977824 0.151061
O O3 0.500000 0.121079 0.014369
O O4 0.250000 0.541386 0.750000
O O5 0.324724 0.663783 0.669196
O O6 0.363688 0.500799 0.744209
O O7 0.320297 0.646569 0.866938
O O8 0.057932 0.312901 0.145992
O O9 0.131282 0.162050 0.170666
O O10 0.131836 0.254989 0.002970
O O11 0.181553 0.840469 0.646857
O O12 0.250000 0.250000 0.000000
#
# Coordination Sequence:
#
# PCOD8264735 Si02
#       6
#     8  16  16   8  16  16
#     4  11  21  40  66  97 122 166 226 269 320 388
#     4  11  24  41  64  96 128 168 215 260 325 390
#     4  11  23  43  65  91 132 170 208 269 320 383
#     4  11  21  40  68  93 126 168 220 265 330 386
#     4  11  25  41  67  95 132 172 215 271 328 381
#     4  11  24  43  64  93 132 169 216 265 325 391
#
# _framework density 20.059805999999998
#
# number of rings (size 3 to 8) (size 9 to 14) (size 15 to 20)
#    0.000    1.000    6.000    0.600    2.800    1.600 
#    0.000    1.000    0.000    2.400    0.000    0.000 
#    0.000    0.000    0.000    0.000    0.000    0.000 
#
# Total GULP energy -495772.905585 kJ/mol
# GULP energy per Si atom -12394.322640 kJ/mol
# Density = 2.001415 g / cm^3
# Si number density = 20.059806 Si / 1000 Ang^3
#
#
#
# Elastic Constant Matrix: (Units=GPa)
#
#
# Indices 1 2 3 4 5 6 
#
# 1 83.8994 11.6169 15.6869 0.0000 0.0000 0.0000
# 2 11.6169 105.0895 46.2925 0.0000 0.0000 0.0000
# 3 15.6869 46.2925 104.0428 0.0000 0.0000 0.0000
# 4 0.0000 0.0000 0.0000 20.3043 0.0000 0.0000
# 5 0.0000 0.0000 0.0000 0.0000 31.2965 0.0000
# 6 0.0000 0.0000 0.0000 0.0000 0.0000 27.1119
#
#
#
# Elastic Compliance Matrix: (Units=1/GPa)
#
#
# Indices 1 2 3 4 5 6 
#
# 1 0.012303 -0.000675 -0.001555 0.000000 0.000000 0.000000
# 2 -0.000675 0.011872 -0.005181 0.000000 0.000000 0.000000
# 3 -0.001555 -0.005181 0.012151 0.000000 0.000000 0.000000
# 4 0.000000 0.000000 0.000000 0.049251 0.000000 0.000000
# 5 0.000000 0.000000 0.000000 0.000000 0.031952 0.000000
# 6 0.000000 0.000000 0.000000 0.000000 0.000000 0.036884
#
#
# Mechanical properties :
#
#
# Convention : Reuss Voigt Hill
#
# Bulk Modulus (GPa) = 46.49958 48.91381 47.70669
# Shear Modulus (GPa) = 28.34414 30.37155 29.35784
#
# Velocity S-wave (km/s) = 3.76304 3.89530 3.82974
# Velocity P-wave (km/s) = 6.48933 6.68342 6.58709
#
# Compressibility (1/GPa) = 0.02150557
#
# Stress axis : x y z
#
# Youngs Moduli (GPa) = 81.27974 84.22850 82.29843
#
# Poissons Ratio (x) = 0.05687 0.12794
# Poissons Ratio (y) = 0.05488 0.42636
# Poissons Ratio (z) = 0.12635 0.43636
#
# Static dielectric constant tensor:
#      x y z
#    x 3.712880 0.000000 0.000000 
#    y 0.000000 3.472060 0.000000 
#    z 0.000000 0.000000 3.634370 
# 
# 
# High freq. dielectric constant tensor:
#      x y z
#    x 1.791210 0.000000 0.000000 
#    y 0.000000 1.777620 0.000000 
#    z 0.000000 0.000000 1.785500 
# 
# From -- ./inp_files/18109.got.cif
#   From: 2010.03.12/outbox.cif.g09.slc.cpg/sg64_10_cif.got.tgz:18109.got - 2010.04.10 20:19:32.
