data_PCOD8264137
_publ_section_title
;
Structure prediction by ZEFSAII (Michael W. Deem and Ramdas Pophale) SiO2 
 PCOD8264137
Probable space group: C M C A
;
_chemical_formula_sum "Si O2"
_cell_formula_units_Z 88
_cell_length_a 14.786210
_cell_length_b 15.696725
_cell_length_c 20.538168
_cell_angle_alpha 90.000000
_cell_angle_beta 90.000000
_cell_angle_gamma 90.000000
_cell_volume 4766.807584
_symmetry_space_group_name_H-M "C M C A"
_symmetry_group_IT_number 64
_symmetry_cell_setting 'orthorhombic'
loop_
_space_group_symop_operation_xyz
x,y,z
-x,1/2-y,1/2+z
x,-y,-z
-x,1/2+y,1/2-z
-x,-y,-z
x,1/2+y,1/2-z
-x,y,z
x,1/2-y,1/2+z
1/2+x,1/2+y,z
1/2-x,-y,1/2+z
1/2+x,1/2-y,-z
1/2-x,y,1/2-z
1/2-x,1/2-y,-z
1/2+x,y,1/2-z
1/2-x,1/2+y,z
1/2+x,-y,1/2+z
loop_
_atom_site_type_symbol
_atom_site_label
_atom_site_fract_x
_atom_site_fract_y
_atom_site_fract_z
Si Si1 0.750000 0.827727 0.250000
Si Si2 0.599157 0.725901 0.188352
Si Si3 0.395123 0.574257 0.101040
Si Si4 0.277146 0.592728 0.887236
Si Si5 0.400437 0.152934 0.935489
Si Si6 0.103523 0.807880 0.021402
O O1 0.665500 0.764464 0.241800
O O2 0.734679 0.889232 0.311030
O O3 0.500000 0.722487 0.220789
O O4 0.627703 0.631515 0.164468
O O5 0.596373 0.783724 0.124859
O O6 0.500000 0.545563 0.102559
O O7 0.331105 0.493213 0.102066
O O8 0.373997 0.625166 0.035414
O O9 0.178792 0.584153 0.922752
O O10 0.330952 0.672579 0.918128
O O11 0.500000 0.108853 0.942915
O O12 0.378617 0.210652 0.998812
O O13 0.000000 0.818377 0.043702
#
# Coordination Sequence:
#
# PCOD8264137 Si02
#       6
#     8  16  16  16  16  16
#     4  10  22  32  46  72  98 130 170 200 236 298
#     4   8  16  33  50  63  91 131 162 195 241 290
#     4   9  18  32  52  76  98 124 160 206 256 294
#     4  11  19  29  48  76 102 126 161 207 246 283
#     4   8  16  31  49  69  95 128 160 190 237 293
#     4   9  17  31  52  77 101 123 155 202 253 298
#
# _framework density 18.460992999999998
#
# number of rings (size 3 to 8) (size 9 to 14) (size 15 to 20)
#    0.000    2.909    0.000    3.818    0.000    3.636 
#    0.000    0.000    0.000    3.273    0.000    5.091 
#    0.000    0.000    0.000    0.000    0.000    0.000 
#
# Total GULP energy -545375.108363 kJ/mol
# GULP energy per Si atom -12394.888826 kJ/mol
# Density = 1.841897 g / cm^3
# Si number density = 18.460993 Si / 1000 Ang^3
#
#
#
# Elastic Constant Matrix: (Units=GPa)
#
#
# Indices 1 2 3 4 5 6 
#
# 1 102.6592 38.3982 26.4369 0.0000 0.0000 0.0000
# 2 38.3982 54.7910 5.9767 0.0000 0.0000 0.0000
# 3 26.4369 5.9767 54.1854 0.0000 0.0000 0.0000
# 4 0.0000 0.0000 0.0000 8.3437 0.0000 0.0000
# 5 0.0000 0.0000 0.0000 0.0000 27.4175 0.0000
# 6 0.0000 0.0000 0.0000 0.0000 0.0000 26.0445
#
#
#
# Elastic Compliance Matrix: (Units=1/GPa)
#
#
# Indices 1 2 3 4 5 6 
#
# 1 0.015037 -0.009856 -0.006249 0.000000 0.000000 0.000000
# 2 -0.009856 0.024934 0.002059 0.000000 0.000000 0.000000
# 3 -0.006249 0.002059 0.021277 0.000000 0.000000 0.000000
# 4 0.000000 0.000000 0.000000 0.119851 0.000000 0.000000
# 5 0.000000 0.000000 0.000000 0.000000 0.036473 0.000000
# 6 0.000000 0.000000 0.000000 0.000000 0.000000 0.038396
#
#
# Mechanical properties :
#
#
# Convention : Reuss Voigt Hill
#
# Bulk Modulus (GPa) = 30.16228 39.25103 34.70666
# Shear Modulus (GPa) = 16.94264 21.74939 19.34602
#
# Velocity S-wave (km/s) = 3.03273 3.43611 3.24070
# Velocity P-wave (km/s) = 5.35137 6.08689 5.73094
#
# Compressibility (1/GPa) = 0.03315399
#
# Stress axis : x y z
#
# Youngs Moduli (GPa) = 66.50293 40.10578 46.99892
#
# Poissons Ratio (x) = 0.39530 0.29371
# Poissons Ratio (y) = 0.65548 -0.09675
# Poissons Ratio (z) = 0.41560 -0.08256
#
# Static dielectric constant tensor:
#      x y z
#    x 4.003500 0.000000 0.000000 
#    y 0.000000 3.142010 0.000000 
#    z 0.000000 0.000000 3.229820 
# 
# 
# High freq. dielectric constant tensor:
#      x y z
#    x 1.731140 0.000000 0.000000 
#    y 0.000000 1.688380 0.000000 
#    z 0.000000 0.000000 1.694050 
# 
# From -- ./inp_files/39420.got.cif
#   From: 2010.03.12/outbox.cif.g09.slc.cpg/sg64_20_cif.got.tgz:39420.got - 2010.04.10 20:19:32.
