data_PCOD8264890
_publ_section_title
;
Structure prediction by ZEFSAII (Michael W. Deem and Ramdas Pophale) SiO2 
 PCOD8264890
Probable space group: C M C A
;
_chemical_formula_sum "Si O2"
_cell_formula_units_Z 96
_cell_length_a 14.604608
_cell_length_b 22.233758
_cell_length_c 14.576582
_cell_angle_alpha 90.000000
_cell_angle_beta 90.000000
_cell_angle_gamma 90.000000
_cell_volume 4733.239488
_symmetry_space_group_name_H-M "C M C A"
_symmetry_group_IT_number 64
_symmetry_cell_setting 'orthorhombic'
loop_
_space_group_symop_operation_xyz
x,y,z
-x,1/2-y,1/2+z
x,-y,-z
-x,1/2+y,1/2-z
-x,-y,-z
x,1/2+y,1/2-z
-x,y,z
x,1/2-y,1/2+z
1/2+x,1/2+y,z
1/2-x,-y,1/2+z
1/2+x,1/2-y,-z
1/2-x,y,1/2-z
1/2-x,1/2-y,-z
1/2+x,y,1/2-z
1/2-x,1/2+y,z
1/2+x,-y,1/2+z
loop_
_atom_site_type_symbol
_atom_site_label
_atom_site_fract_x
_atom_site_fract_y
_atom_site_fract_z
Si Si1 0.250000 0.479984 0.604210
Si Si2 0.604986 0.023199 0.750000
Si Si3 0.643319 0.340293 0.250000
Si Si4 0.604279 0.257628 0.897233
Si Si5 0.250000 0.148180 0.348729
Si Si6 0.895721 0.257628 0.897233
O O1 0.250000 0.500000 0.500000
O O2 0.341145 0.501486 0.658572
O O3 0.158855 0.501486 0.658571
O O4 0.250000 0.408221 0.584180
O O5 0.500000 0.997898 0.750000
O O6 0.595153 0.095407 0.750000
O O7 0.750000 0.352150 0.250000
O O8 0.614913 0.303991 0.340998
O O9 0.614913 0.303992 0.159001
O O10 0.500000 0.278777 0.897996
O O11 0.660467 0.311028 0.852733
O O12 0.641998 0.250000 1.000000
O O13 0.250000 0.116138 0.250000
O O14 0.160467 0.188972 0.352733
O O15 0.000000 0.278777 0.897996
#
# Coordination Sequence:
#
# PCOD8264890 Si02
#       6
#    16  16  16  16  16  16
#     4  11  27  47  68  96 130 176 228 272 326 385
#     4  11  25  46  68  95 132 176 225 271 322 390
#     4  12  22  41  68  92 129 172 206 262 320 381
#     4  11  24  39  63  98 130 165 207 257 322 387
#     4  12  23  42  64  92 127 170 210 266 324 370
#     4  11  24  39  63  98 130 165 207 257 322 387
#
# _framework density 20.282091999999999
#
# number of rings (size 3 to 8) (size 9 to 14) (size 15 to 20)
#    0.000    0.667    6.667    2.000    4.667    2.000 
#    0.000    0.000    0.000    0.000    0.000    0.000 
#    0.000    0.000    0.000    0.000    0.000    0.000 
#
# Total GULP energy -595135.631531 kJ/mol
# GULP energy per Si atom -12398.658990 kJ/mol
# Density = 2.023593 g / cm^3
# Si number density = 20.282092 Si / 1000 Ang^3
#
#
#
# Elastic Constant Matrix: (Units=GPa)
#
#
# Indices 1 2 3 4 5 6 
#
# 1 140.1036 28.0976 36.9711 0.0000 0.0000 0.0000
# 2 28.0976 123.6606 18.1128 0.0000 0.0000 0.0000
# 3 36.9711 18.1128 132.0047 0.0000 0.0000 0.0000
# 4 0.0000 0.0000 0.0000 10.7637 0.0000 0.0000
# 5 0.0000 0.0000 0.0000 0.0000 -1.5971 0.0000
# 6 0.0000 0.0000 0.0000 0.0000 0.0000 7.7400
#
#
#
# Elastic Compliance Matrix: (Units=1/GPa)
#
#
# Indices 1 2 3 4 5 6 
#
# 1 0.007976 -0.001516 -0.002026 0.000000 0.000000 0.000000
# 2 -0.001516 0.008540 -0.000747 0.000000 0.000000 0.000000
# 3 -0.002026 -0.000747 0.008245 0.000000 0.000000 0.000000
# 4 0.000000 0.000000 0.000000 0.092904 0.000000 0.000000
# 5 0.000000 0.000000 0.000000 0.000000 -0.626144 0.000000
# 6 0.000000 0.000000 0.000000 0.000000 0.000000 0.129199
#
#
# Mechanical properties :
#
#
# Convention : Reuss Voigt Hill
#
# Bulk Modulus (GPa) = 61.78845 62.45910 62.12377
# Shear Modulus (GPa) = -13.68715 24.22049 5.26667
#
# Velocity S-wave (km/s) = -2.60059 3.45944 1.61318
# Velocity P-wave (km/s) = 4.63824 6.84244 5.84518
#
# Compressibility (1/GPa) = 0.01618426
#
# Stress axis : x y z
#
# Youngs Moduli (GPa) = 125.37395 117.08941 121.27891
#
# Poissons Ratio (x) = 0.17746 0.24571
# Poissons Ratio (y) = 0.19001 0.09064
# Poissons Ratio (z) = 0.25400 0.08751
#
# Static dielectric constant tensor:
#      x y z
#    x 3.779470 0.000000 0.000000 
#    y 0.000000 3.624120 0.000000 
#    z 0.000000 0.000000 4.155950 
# 
# 
# High freq. dielectric constant tensor:
#      x y z
#    x 1.804530 0.000000 0.000000 
#    y 0.000000 1.793870 0.000000 
#    z 0.000000 0.000000 1.800330 
# 
# From -- ./inp_files/23844.got.cif
#   From: 2010.03.12/outbox.cif.g09.slc.cpg/sg64_12_cif.got.tgz:23844.got - 2010.04.10 20:19:32.
