data_PCOD8264596
_publ_section_title
;
Structure prediction by ZEFSAII (Michael W. Deem and Ramdas Pophale) SiO2 
 PCOD8264596
Probable space group: C M C A
;
_chemical_formula_sum "Si O2"
_cell_formula_units_Z 72
_cell_length_a 9.750524
_cell_length_b 22.844434
_cell_length_c 14.612126
_cell_angle_alpha 90.000000
_cell_angle_beta 90.000000
_cell_angle_gamma 90.000000
_cell_volume 3254.780957
_symmetry_space_group_name_H-M "C M C A"
_symmetry_group_IT_number 64
_symmetry_cell_setting 'orthorhombic'
loop_
_space_group_symop_operation_xyz
x,y,z
-x,1/2-y,1/2+z
x,-y,-z
-x,1/2+y,1/2-z
-x,-y,-z
x,1/2+y,1/2-z
-x,y,z
x,1/2-y,1/2+z
1/2+x,1/2+y,z
1/2-x,-y,1/2+z
1/2+x,1/2-y,-z
1/2-x,y,1/2-z
1/2-x,1/2-y,-z
1/2+x,y,1/2-z
1/2-x,1/2+y,z
1/2+x,-y,1/2+z
loop_
_atom_site_type_symbol
_atom_site_label
_atom_site_fract_x
_atom_site_fract_y
_atom_site_fract_z
Si Si1 0.250000 0.925449 0.750000
Si Si2 0.153492 0.382524 0.407483
Si Si3 0.650565 0.343154 0.897316
Si Si4 0.162348 0.753423 0.159774
Si Si5 0.344486 0.515955 0.602935
O O1 0.350510 0.882799 0.693842
O O2 0.332655 0.963414 0.824392
O O3 0.167564 0.386583 0.516883
O O4 0.193998 0.317426 0.377515
O O5 0.252732 0.429958 0.361206
O O6 0.000000 0.397717 0.374631
O O7 0.500000 0.312156 0.903046
O O8 0.773188 0.295747 0.906826
O O9 0.250000 0.743448 0.250000
O O10 0.000000 0.742346 0.174139
O O11 0.296752 0.500000 0.500000
O O12 0.500000 0.537863 0.600341
#
# Coordination Sequence:
#
# PCOD8264596 Si02
#       5
#     8  16  16  16  16
#     4  12  24  42  68  98 130 172 224 276 326 394
#     4  10  24  45  66  94 131 174 217 269 329 389
#     4  11  23  42  69  96 127 169 221 272 327 390
#     4  11  24  41  65  97 133 169 214 266 327 392
#     4  11  25  44  67  99 134 174 223 276 331 394
#
# _framework density 22.121303999999999
#
# number of rings (size 3 to 8) (size 9 to 14) (size 15 to 20)
#    0.000    1.111    3.333    2.000    1.556    5.778 
#    0.000    0.000    0.000    0.000    0.000    0.000 
#    0.000    0.000    0.000    0.000    0.000    0.000 
#
# Total GULP energy -446321.255285 kJ/mol
# GULP energy per Si atom -12397.812647 kJ/mol
# Density = 2.207095 g / cm^3
# Si number density = 22.121304 Si / 1000 Ang^3
#
#
#
# Elastic Constant Matrix: (Units=GPa)
#
#
# Indices 1 2 3 4 5 6 
#
# 1 138.8671 71.6022 9.3560 0.0000 0.0000 0.0000
# 2 71.6022 126.1385 11.8922 0.0000 0.0000 0.0000
# 3 9.3560 11.8922 35.8587 0.0000 0.0000 0.0000
# 4 0.0000 0.0000 0.0000 33.4252 0.0000 0.0000
# 5 0.0000 0.0000 0.0000 0.0000 24.3332 0.0000
# 6 0.0000 0.0000 0.0000 0.0000 0.0000 36.8437
#
#
#
# Elastic Compliance Matrix: (Units=1/GPa)
#
#
# Indices 1 2 3 4 5 6 
#
# 1 0.010201 -0.005719 -0.000765 0.000000 0.000000 0.000000
# 2 -0.005719 0.011389 -0.002285 0.000000 0.000000 0.000000
# 3 -0.000765 -0.002285 0.028845 0.000000 0.000000 0.000000
# 4 0.000000 0.000000 0.000000 0.029918 0.000000 0.000000
# 5 0.000000 0.000000 0.000000 0.000000 0.041096 0.000000
# 6 0.000000 0.000000 0.000000 0.000000 0.000000 0.027142
#
#
# Mechanical properties :
#
#
# Convention : Reuss Voigt Hill
#
# Bulk Modulus (GPa) = 30.39730 54.06280 42.23005
# Shear Modulus (GPa) = 28.23355 32.78802 30.51079
#
# Velocity S-wave (km/s) = 3.57642 3.85410 3.71785
# Velocity P-wave (km/s) = 5.55206 6.65566 6.12875
#
# Compressibility (1/GPa) = 0.03289766
#
# Stress axis : x y z
#
# Youngs Moduli (GPa) = 98.02692 87.80108 34.66840
#
# Poissons Ratio (x) = 0.50210 0.02653
# Poissons Ratio (y) = 0.56058 0.07922
# Poissons Ratio (z) = 0.07500 0.20064
#
# Static dielectric constant tensor:
#      x y z
#    x 3.921420 0.000000 0.000000 
#    y 0.000000 3.863400 0.000000 
#    z 0.000000 0.000000 4.090320 
# 
# 
# High freq. dielectric constant tensor:
#      x y z
#    x 1.869780 0.000000 0.000000 
#    y 0.000000 1.869690 0.000000 
#    z 0.000000 0.000000 1.876350 
# 
# From -- ./inp_files/21121.got.cif
#   From: 2010.03.12/outbox.cif.g09.slc.cpg/sg64_11_cif.got.tgz:21121.got - 2010.04.10 20:19:32.
