data_PCOD8264212
_publ_section_title
;
Structure prediction by ZEFSAII (Michael W. Deem and Ramdas Pophale) SiO2 
 PCOD8264212
Probable space group: C M C A
;
_chemical_formula_sum "Si O2"
_cell_formula_units_Z 88
_cell_length_a 25.271869
_cell_length_b 33.760075
_cell_length_c 5.125689
_cell_angle_alpha 90.000000
_cell_angle_beta 90.000000
_cell_angle_gamma 90.000000
_cell_volume 4373.136329
_symmetry_space_group_name_H-M "C M C A"
_symmetry_group_IT_number 64
_symmetry_cell_setting 'orthorhombic'
loop_
_space_group_symop_operation_xyz
x,y,z
-x,1/2-y,1/2+z
x,-y,-z
-x,1/2+y,1/2-z
-x,-y,-z
x,1/2+y,1/2-z
-x,y,z
x,1/2-y,1/2+z
1/2+x,1/2+y,z
1/2-x,-y,1/2+z
1/2+x,1/2-y,-z
1/2-x,y,1/2-z
1/2-x,1/2-y,-z
1/2+x,y,1/2-z
1/2-x,1/2+y,z
1/2+x,-y,1/2+z
loop_
_atom_site_type_symbol
_atom_site_label
_atom_site_fract_x
_atom_site_fract_y
_atom_site_fract_z
Si Si1 0.500000 0.121651 0.085392
Si Si2 0.847614 0.354979 0.329446
Si Si3 0.304757 0.958090 0.897311
Si Si4 0.750000 0.102023 0.750000
Si Si5 0.500000 0.325573 0.086304
Si Si6 0.613188 0.396397 0.689826
Si Si7 0.895064 0.224281 0.896241
O O1 0.500000 0.157740 0.292052
O O2 0.447893 0.094078 0.120810
O O3 0.500000 0.138905 0.794415
O O4 0.788528 0.369623 0.419004
O O5 0.888868 0.371547 0.542273
O O6 0.848427 0.307444 0.341033
O O7 0.861485 0.369530 0.038167
O O8 0.250000 0.966474 0.750000
O O9 0.353649 0.937036 0.747221
O O10 0.291878 0.926365 0.115021
O O11 0.326198 0.000000 0.000000
O O12 0.450174 0.297914 0.140859
O O13 0.889765 0.259441 0.688426
#
# Coordination Sequence:
#
# PCOD8264212 Si02
#       7
#     8  16  16   8   8  16  16
#     4  12  20  39  61  88 122 163 212 245 290 368
#     4  11  22  40  60  88 118 160 209 246 306 363
#     4  11  21  37  63  97 125 153 197 255 312 350
#     4  10  22  38  64  88 118 158 202 254 294 366
#     4  12  22  37  60  86 117 155 208 261 303 352
#     4  11  22  38  61  89 124 165 201 247 297 366
#     4  12  23  38  56  86 122 154 201 262 311 356
#
# _framework density 20.122857
#
# number of rings (size 3 to 8) (size 9 to 14) (size 15 to 20)
#    0.000    0.727    6.364    2.727    0.000    0.000 
#    0.000    1.364    0.000    0.000    0.000    5.727 
#    0.000    0.000    0.000    0.000    0.000    0.000 
#
# Total GULP energy -545322.609034 kJ/mol
# GULP energy per Si atom -12393.695660 kJ/mol
# Density = 2.007706 g / cm^3
# Si number density = 20.122857 Si / 1000 Ang^3
#
#
#
# Elastic Constant Matrix: (Units=GPa)
#
#
# Indices 1 2 3 4 5 6 
#
# 1 87.0746 49.0024 -1.5679 0.0000 0.0000 0.0000
# 2 49.0024 99.3606 13.4794 0.0000 0.0000 0.0000
# 3 -1.5679 13.4794 78.3386 0.0000 0.0000 0.0000
# 4 0.0000 0.0000 0.0000 20.6677 0.0000 0.0000
# 5 0.0000 0.0000 0.0000 0.0000 12.2179 0.0000
# 6 0.0000 0.0000 0.0000 0.0000 0.0000 8.3065
#
#
#
# Elastic Compliance Matrix: (Units=1/GPa)
#
#
# Indices 1 2 3 4 5 6 
#
# 1 0.016122 -0.008186 0.001731 0.000000 0.000000 0.000000
# 2 -0.008186 0.014461 -0.002652 0.000000 0.000000 0.000000
# 3 0.001731 -0.002652 0.013256 0.000000 0.000000 0.000000
# 4 0.000000 0.000000 0.000000 0.048385 0.000000 0.000000
# 5 0.000000 0.000000 0.000000 0.000000 0.081847 0.000000
# 6 0.000000 0.000000 0.000000 0.000000 0.000000 0.120387
#
#
# Mechanical properties :
#
#
# Convention : Reuss Voigt Hill
#
# Bulk Modulus (GPa) = 39.02305 42.95570 40.98938
# Shear Modulus (GPa) = 15.56591 21.82910 18.69750
#
# Velocity S-wave (km/s) = 2.78428 3.29719 3.05153
# Velocity P-wave (km/s) = 5.45626 5.99069 5.72971
#
# Compressibility (1/GPa) = 0.02562588
#
# Stress axis : x y z
#
# Youngs Moduli (GPa) = 62.02553 69.14998 75.43699
#
# Poissons Ratio (x) = 0.56607 -0.13060
# Poissons Ratio (y) = 0.50774 0.20007
# Poissons Ratio (z) = -0.10738 0.18340
#
# Static dielectric constant tensor:
#      x y z
#    x 4.330690 0.000000 0.000000 
#    y 0.000000 3.666140 0.000000 
#    z 0.000000 0.000000 3.624680 
# 
# 
# High freq. dielectric constant tensor:
#      x y z
#    x 1.785840 0.000000 0.000000 
#    y 0.000000 1.771510 0.000000 
#    z 0.000000 0.000000 1.787140 
# 
# From -- ./inp_files/2998.got.cif
#   From: 2010.03.12/outbox.cif.g09.slc.cpg/sg64_2_cif.got.tgz:2998.got - 2010.04.10 20:19:32.
