data_PCOD8264981
_publ_section_title
;
Structure prediction by ZEFSAII (Michael W. Deem and Ramdas Pophale) SiO2 
 PCOD8264981
Probable space group: C M C A
;
_chemical_formula_sum "Si O2"
_cell_formula_units_Z 64
_cell_length_a 18.229390
_cell_length_b 20.082592
_cell_length_c 9.026344
_cell_angle_alpha 90.000000
_cell_angle_beta 90.000000
_cell_angle_gamma 90.000000
_cell_volume 3304.484981
_symmetry_space_group_name_H-M "C M C A"
_symmetry_group_IT_number 64
_symmetry_cell_setting 'orthorhombic'
loop_
_space_group_symop_operation_xyz
x,y,z
-x,1/2-y,1/2+z
x,-y,-z
-x,1/2+y,1/2-z
-x,-y,-z
x,1/2+y,1/2-z
-x,y,z
x,1/2-y,1/2+z
1/2+x,1/2+y,z
1/2-x,-y,1/2+z
1/2+x,1/2-y,-z
1/2-x,y,1/2-z
1/2-x,1/2-y,-z
1/2+x,y,1/2-z
1/2-x,1/2+y,z
1/2+x,-y,1/2+z
loop_
_atom_site_type_symbol
_atom_site_label
_atom_site_fract_x
_atom_site_fract_y
_atom_site_fract_z
Si Si1 0.285333 0.939398 0.409131
Si Si2 0.082878 0.522090 0.763862
Si Si3 0.915844 0.106723 0.445488
Si Si4 0.728867 0.182850 0.081035
O O1 0.250000 0.929854 0.250000
O O2 0.369897 0.958275 0.379434
O O3 0.278504 0.873920 0.506901
O O4 0.247366 0.000000 0.500000
O O5 0.097709 0.445980 0.813419
O O6 0.000000 0.531206 0.712951
O O7 0.100861 0.571277 0.899316
O O8 0.858325 0.167362 0.431052
O O9 0.000000 0.133354 0.440045
O O10 0.750000 0.190199 0.250000
O O11 0.750000 0.250000 0.000000
#
# Coordination Sequence:
#
# PCOD8264981 Si02
#       4
#    16  16  16  16
#     4  12  22  36  61  92 125 163 207 260 313 369
#     4   9  18  34  62  95 124 159 205 255 308 369
#     4   9  18  38  64  91 125 164 205 253 315 374
#     4  12  26  43  62  90 126 166 214 266 316 380
#
# _framework density 19.367616999999999
#
# number of rings (size 3 to 8) (size 9 to 14) (size 15 to 20)
#    0.000    1.500    2.500    6.000    0.000    0.500 
#    0.000    3.750    0.000    0.000    0.000    0.000 
#    0.000    0.000    0.000    0.000    0.000    0.000 
#
# Total GULP energy -396759.265048 kJ/mol
# GULP energy per Si atom -12398.727033 kJ/mol
# Density = 1.932354 g / cm^3
# Si number density = 19.367617 Si / 1000 Ang^3
#
#
#
# Elastic Constant Matrix: (Units=GPa)
#
#
# Indices 1 2 3 4 5 6 
#
# 1 130.0977 63.0664 49.8283 0.0000 0.0000 0.0000
# 2 63.0664 145.2084 64.2308 0.0000 0.0000 0.0000
# 3 49.8283 64.2308 121.6569 0.0000 0.0000 0.0000
# 4 0.0000 0.0000 0.0000 37.1497 0.0000 0.0000
# 5 0.0000 0.0000 0.0000 0.0000 30.6124 0.0000
# 6 0.0000 0.0000 0.0000 0.0000 0.0000 31.2860
#
#
#
# Elastic Compliance Matrix: (Units=1/GPa)
#
#
# Indices 1 2 3 4 5 6 
#
# 1 0.010251 -0.003386 -0.002411 0.000000 0.000000 0.000000
# 2 -0.003386 0.010103 -0.003947 0.000000 0.000000 0.000000
# 3 -0.002411 -0.003947 0.011292 0.000000 0.000000 0.000000
# 4 0.000000 0.000000 0.000000 0.026918 0.000000 0.000000
# 5 0.000000 0.000000 0.000000 0.000000 0.032667 0.000000
# 6 0.000000 0.000000 0.000000 0.000000 0.000000 0.031963
#
#
# Mechanical properties :
#
#
# Convention : Reuss Voigt Hill
#
# Bulk Modulus (GPa) = 82.25483 83.46822 82.86153
# Shear Modulus (GPa) = 34.07501 34.46544 34.27023
#
# Velocity S-wave (km/s) = 4.19905 4.22304 4.21106
# Velocity P-wave (km/s) = 8.12846 8.18346 8.15601
#
# Compressibility (1/GPa) = 0.01215734
#
# Stress axis : x y z
#
# Youngs Moduli (GPa) = 97.54846 98.97818 88.56213
#
# Poissons Ratio (x) = 0.33512 0.21354
# Poissons Ratio (y) = 0.33028 0.34959
# Poissons Ratio (z) = 0.23520 0.39071
#
# Static dielectric constant tensor:
#      x y z
#    x 3.843390 0.000000 0.000000 
#    y 0.000000 3.324370 0.000000 
#    z 0.000000 0.000000 3.578070 
# 
# 
# High freq. dielectric constant tensor:
#      x y z
#    x 1.769150 0.000000 0.000000 
#    y 0.000000 1.723490 0.000000 
#    z 0.000000 0.000000 1.761240 
# 
# From -- ./inp_files/6565.got.cif
#   From: 2010.03.12/outbox.cif.g09.slc.cpg/sg64_4_cif.got.tgz:6565.got - 2010.04.10 20:19:32.
