data_PCOD8264055
_publ_section_title
;
Structure prediction by ZEFSAII (Michael W. Deem and Ramdas Pophale) SiO2 
 PCOD8264055
Probable space group: C M C A
;
_chemical_formula_sum "Si O2"
_cell_formula_units_Z 72
_cell_length_a 14.390977
_cell_length_b 27.240709
_cell_length_c 8.993448
_cell_angle_alpha 90.000000
_cell_angle_beta 90.000000
_cell_angle_gamma 90.000000
_cell_volume 3525.615232
_symmetry_space_group_name_H-M "C M C A"
_symmetry_group_IT_number 64
_symmetry_cell_setting 'orthorhombic'
loop_
_space_group_symop_operation_xyz
x,y,z
-x,1/2-y,1/2+z
x,-y,-z
-x,1/2+y,1/2-z
-x,-y,-z
x,1/2+y,1/2-z
-x,y,z
x,1/2-y,1/2+z
1/2+x,1/2+y,z
1/2-x,-y,1/2+z
1/2+x,1/2-y,-z
1/2-x,y,1/2-z
1/2-x,1/2-y,-z
1/2+x,y,1/2-z
1/2-x,1/2+y,z
1/2+x,-y,1/2+z
loop_
_atom_site_type_symbol
_atom_site_label
_atom_site_fract_x
_atom_site_fract_y
_atom_site_fract_z
Si Si1 0.149996 0.798535 0.824195
Si Si2 0.639044 0.095608 0.236090
Si Si3 0.000000 0.441147 0.995561
Si Si4 0.000000 0.054217 0.053307
Si Si5 0.351066 0.797754 0.319344
Si Si6 0.500000 0.622456 0.778556
O O1 0.250000 0.798888 0.750000
O O2 0.102437 0.849458 0.775471
O O3 0.099997 0.751075 0.750847
O O4 0.153476 0.793417 0.002234
O O5 0.750000 0.090686 0.250000
O O6 0.595274 0.079707 0.078239
O O7 0.594227 0.058648 0.352971
O O8 0.000000 0.500000 0.000000
O O9 0.000000 0.421049 0.160952
O O10 0.000000 0.096684 0.934957
O O11 0.000000 0.000000 0.000000
O O12 0.250000 0.805240 0.250000
O O13 0.408877 0.844325 0.265888
#
# Coordination Sequence:
#
# PCOD8264055 Si02
#       6
#    16  16   8   8  16   8
#     4  10  21  40  67  95 132 173 213 259 319 376
#     4  10  23  44  71  93 127 174 214 257 330 386
#     4  11  27  46  66  95 133 163 220 279 327 373
#     4  11  23  46  66  92 131 164 211 285 318 373
#     4  11  24  40  64  99 136 170 213 262 316 385
#     4  12  26  38  66  99 124 171 219 258 329 396
#
# _framework density 20.421966999999999
#
# number of rings (size 3 to 8) (size 9 to 14) (size 15 to 20)
#    0.000    1.333    2.222    4.000    9.333    3.556 
#    0.000    2.222    0.000    0.000    0.000    0.000 
#    0.000    0.000    0.000    0.000    0.000    0.000 
#
# Total GULP energy -446131.987811 kJ/mol
# GULP energy per Si atom -12392.555217 kJ/mol
# Density = 2.037549 g / cm^3
# Si number density = 20.421967 Si / 1000 Ang^3
#
#
#
# Elastic Constant Matrix: (Units=GPa)
#
#
# Indices 1 2 3 4 5 6 
#
# 1 110.2595 35.2126 27.5304 0.0000 0.0000 0.0000
# 2 35.2126 145.1733 41.4231 0.0000 0.0000 0.0000
# 3 27.5304 41.4231 127.7871 0.0000 0.0000 0.0000
# 4 0.0000 0.0000 0.0000 45.3898 0.0000 0.0000
# 5 0.0000 0.0000 0.0000 0.0000 40.1922 0.0000
# 6 0.0000 0.0000 0.0000 0.0000 0.0000 30.2005
#
#
#
# Elastic Compliance Matrix: (Units=1/GPa)
#
#
# Indices 1 2 3 4 5 6 
#
# 1 0.010093 -0.002014 -0.001522 0.000000 0.000000 0.000000
# 2 -0.002014 0.007992 -0.002157 0.000000 0.000000 0.000000
# 3 -0.001522 -0.002157 0.008852 0.000000 0.000000 0.000000
# 4 0.000000 0.000000 0.000000 0.022031 0.000000 0.000000
# 5 0.000000 0.000000 0.000000 0.000000 0.024880 0.000000
# 6 0.000000 0.000000 0.000000 0.000000 0.000000 0.033112
#
#
# Mechanical properties :
#
#
# Convention : Reuss Voigt Hill
#
# Bulk Modulus (GPa) = 64.29733 65.72800 65.01267
# Shear Modulus (GPa) = 40.47601 41.76008 41.11804
#
# Velocity S-wave (km/s) = 4.45678 4.52692 4.49199
# Velocity P-wave (km/s) = 7.61817 7.71873 7.66862
#
# Compressibility (1/GPa) = 0.01555275
#
# Stress axis : x y z
#
# Youngs Moduli (GPa) = 99.08279 125.12154 112.96268
#
# Poissons Ratio (x) = 0.25198 0.17188
# Poissons Ratio (y) = 0.19954 0.24365
# Poissons Ratio (z) = 0.15076 0.26987
#
# Static dielectric constant tensor:
#      x y z
#    x 3.553950 0.000000 0.000000 
#    y 0.000000 5.052160 0.000000 
#    z 0.000000 0.000000 3.699970 
# 
# 
# High freq. dielectric constant tensor:
#      x y z
#    x 1.792580 0.000000 0.000000 
#    y 0.000000 1.815410 0.000000 
#    z 0.000000 0.000000 1.809600 
# 
# From -- ./inp_files/5869.got.cif
#   From: 2010.03.12/outbox.cif.g09.slc.cpg/sg64_3_cif.got.tgz:5869.got - 2010.04.10 20:19:32.
