data_PCOD8264514
_publ_section_title
;
Structure prediction by ZEFSAII (Michael W. Deem and Ramdas Pophale) SiO2 
 PCOD8264514
Probable space group: C M C A
;
_chemical_formula_sum "Si O2"
_cell_formula_units_Z 88
_cell_length_a 15.669598
_cell_length_b 12.343729
_cell_length_c 20.928244
_cell_angle_alpha 90.000000
_cell_angle_beta 90.000000
_cell_angle_gamma 90.000000
_cell_volume 4047.967560
_symmetry_space_group_name_H-M "C M C A"
_symmetry_group_IT_number 64
_symmetry_cell_setting 'orthorhombic'
loop_
_space_group_symop_operation_xyz
x,y,z
-x,1/2-y,1/2+z
x,-y,-z
-x,1/2+y,1/2-z
-x,-y,-z
x,1/2+y,1/2-z
-x,y,z
x,1/2-y,1/2+z
1/2+x,1/2+y,z
1/2-x,-y,1/2+z
1/2+x,1/2-y,-z
1/2-x,y,1/2-z
1/2-x,1/2-y,-z
1/2+x,y,1/2-z
1/2-x,1/2+y,z
1/2+x,-y,1/2+z
loop_
_atom_site_type_symbol
_atom_site_label
_atom_site_fract_x
_atom_site_fract_y
_atom_site_fract_z
Si Si1 0.904861 0.349148 0.430666
Si Si2 0.900338 0.536632 0.338190
Si Si3 0.167832 0.348794 0.874275
Si Si4 0.750000 0.096396 0.250000
Si Si5 0.402102 0.555092 0.568386
Si Si6 0.161421 0.704715 0.433386
O O1 0.867437 0.443065 0.385904
O O2 0.906286 0.236683 0.390400
O O3 0.857442 0.343888 0.497554
O O4 0.000000 0.379907 0.448964
O O5 0.830509 0.529958 0.280636
O O6 0.894082 0.649412 0.376983
O O7 0.000000 0.521366 0.315132
O O8 0.206815 0.328843 0.804018
O O9 0.135210 0.472269 0.879046
O O10 0.239542 0.321827 0.926286
O O11 0.392153 0.500000 0.500000
O O12 0.500000 0.580509 0.584089
O O13 0.351390 0.666817 0.570670
#
# Coordination Sequence:
#
# PCOD8264514 Si02
#       6
#    16  16  16   8  16  16
#     4  11  22  40  68  98 132 167 210 272 337 401
#     4  10  23  43  68  97 128 174 222 269 331 391
#     4  11  25  41  64  95 129 177 220 270 326 387
#     4  10  26  46  64  86 132 178 228 278 308 384
#     4  11  23  40  66  99 134 168 211 267 332 400
#     4  11  23  40  68 100 137 169 207 272 335 404
#
# _framework density 21.739304000000001
#
# number of rings (size 3 to 8) (size 9 to 14) (size 15 to 20)
#    0.000    1.273    1.818    3.273    5.091    3.636 
#    3.273    0.000    0.000    0.000    0.000    0.000 
#    0.000    0.000    0.000    0.000    0.000    0.000 
#
# Total GULP energy -545443.667920 kJ/mol
# GULP energy per Si atom -12396.446998 kJ/mol
# Density = 2.168982 g / cm^3
# Si number density = 21.739304 Si / 1000 Ang^3
#
#
#
# Elastic Constant Matrix: (Units=GPa)
#
#
# Indices 1 2 3 4 5 6 
#
# 1 69.8074 30.1626 45.6290 0.0000 0.0000 0.0000
# 2 30.1626 114.7678 30.0436 0.0000 0.0000 0.0000
# 3 45.6290 30.0436 119.2198 0.0000 0.0000 0.0000
# 4 0.0000 0.0000 0.0000 15.3252 0.0000 0.0000
# 5 0.0000 0.0000 0.0000 0.0000 21.1371 0.0000
# 6 0.0000 0.0000 0.0000 0.0000 0.0000 19.4691
#
#
#
# Elastic Compliance Matrix: (Units=1/GPa)
#
#
# Indices 1 2 3 4 5 6 
#
# 1 0.020369 -0.003546 -0.006902 0.000000 0.000000 0.000000
# 2 -0.003546 0.009946 -0.001149 0.000000 0.000000 0.000000
# 3 -0.006902 -0.001149 0.011319 0.000000 0.000000 0.000000
# 4 0.000000 0.000000 0.000000 0.065252 0.000000 0.000000
# 5 0.000000 0.000000 0.000000 0.000000 0.047310 0.000000
# 6 0.000000 0.000000 0.000000 0.000000 0.000000 0.051363
#
#
# Mechanical properties :
#
#
# Convention : Reuss Voigt Hill
#
# Bulk Modulus (GPa) = 54.23327 57.27394 55.75360
# Shear Modulus (GPa) = 21.28550 24.38358 22.83454
#
# Velocity S-wave (km/s) = 3.13249 3.35272 3.24447
# Velocity P-wave (km/s) = 6.17127 6.43355 6.30378
#
# Compressibility (1/GPa) = 0.01843887
#
# Stress axis : x y z
#
# Youngs Moduli (GPa) = 49.09421 100.54180 88.34625
#
# Poissons Ratio (x) = 0.35656 0.60978
# Poissons Ratio (y) = 0.17411 0.10152
# Poissons Ratio (z) = 0.33885 0.11553
#
# Static dielectric constant tensor:
#      x y z
#    x 4.040730 0.000000 0.000000 
#    y 0.000000 4.116580 0.000000 
#    z 0.000000 0.000000 3.882680 
# 
# 
# High freq. dielectric constant tensor:
#      x y z
#    x 1.869760 0.000000 0.000000 
#    y 0.000000 1.849720 0.000000 
#    z 0.000000 0.000000 1.844660 
# 
# From -- ./inp_files/33137.got.cif
#   From: 2010.03.12/outbox.cif.g09.slc.cpg/sg64_17_cif.got.tgz:33137.got - 2010.04.10 20:19:32.
