data_PCOD8264473
_publ_section_title
;
Structure prediction by ZEFSAII (Michael W. Deem and Ramdas Pophale) SiO2 
 PCOD8264473
Probable space group: C M C A
;
_chemical_formula_sum "Si O2"
_cell_formula_units_Z 96
_cell_length_a 8.856033
_cell_length_b 20.168714
_cell_length_c 24.363772
_cell_angle_alpha 90.000000
_cell_angle_beta 90.000000
_cell_angle_gamma 90.000000
_cell_volume 4351.730184
_symmetry_space_group_name_H-M "C M C A"
_symmetry_group_IT_number 64
_symmetry_cell_setting 'orthorhombic'
loop_
_space_group_symop_operation_xyz
x,y,z
-x,1/2-y,1/2+z
x,-y,-z
-x,1/2+y,1/2-z
-x,-y,-z
x,1/2+y,1/2-z
-x,y,z
x,1/2-y,1/2+z
1/2+x,1/2+y,z
1/2-x,-y,1/2+z
1/2+x,1/2-y,-z
1/2-x,y,1/2-z
1/2-x,1/2-y,-z
1/2+x,y,1/2-z
1/2-x,1/2+y,z
1/2+x,-y,1/2+z
loop_
_atom_site_type_symbol
_atom_site_label
_atom_site_fract_x
_atom_site_fract_y
_atom_site_fract_z
Si Si1 0.831613 0.700259 0.539410
Si Si2 0.823524 0.601162 0.384765
Si Si3 0.326807 0.581797 0.499417
Si Si4 0.178286 0.142371 0.694848
Si Si5 0.324869 0.029162 0.886584
Si Si6 0.167600 0.268924 0.845451
O O1 0.750000 0.750000 0.500000
O O2 0.720894 0.637173 0.544541
O O3 0.847681 0.736823 0.595967
O O4 0.000000 0.680703 0.518234
O O5 0.782836 0.598867 0.449183
O O6 0.768438 0.530903 0.359746
O O7 0.746319 0.659684 0.350420
O O8 0.000000 0.609454 0.377556
O O9 0.500000 0.589600 0.480551
O O10 0.306239 0.520666 0.544670
O O11 0.250000 0.111168 0.750000
O O12 0.230516 0.096880 0.642779
O O13 0.235719 0.218052 0.690769
O O14 0.000000 0.143431 0.700172
O O15 0.500000 0.018861 0.873676
O O16 0.000000 0.278367 0.819801
#
# Coordination Sequence:
#
# PCOD8264473 Si02
#       6
#    16  16  16  16  16  16
#     4  11  21  32  54  86 123 165 207 252 300 358
#     4  12  25  38  59  92 131 169 209 255 307 372
#     4  11  21  36  58  86 125 171 213 253 300 364
#     4  11  24  45  71  97 122 155 203 259 316 373
#     4  10  23  42  63  88 125 169 210 254 307 371
#     4  11  23  40  63  90 124 163 206 257 309 365
#
# _framework density 22.060192000000001
#
# number of rings (size 3 to 8) (size 9 to 14) (size 15 to 20)
#    0.000    1.000    3.333    4.000    0.000    6.000 
#    0.000    0.833    0.000    2.000    0.000    0.000 
#    0.000    0.000    0.000    0.000    0.000    0.000 
#
# Total GULP energy -594836.682449 kJ/mol
# GULP energy per Si atom -12392.430884 kJ/mol
# Density = 2.200998 g / cm^3
# Si number density = 22.060192 Si / 1000 Ang^3
#
#
#
# Elastic Constant Matrix: (Units=GPa)
#
#
# Indices 1 2 3 4 5 6 
#
# 1 106.2234 39.9832 23.6165 0.0000 0.0000 0.0000
# 2 39.9832 95.8974 15.2021 0.0000 0.0000 0.0000
# 3 23.6165 15.2021 81.8631 0.0000 0.0000 0.0000
# 4 0.0000 0.0000 0.0000 22.6760 0.0000 0.0000
# 5 0.0000 0.0000 0.0000 0.0000 27.9246 0.0000
# 6 0.0000 0.0000 0.0000 0.0000 0.0000 41.0354
#
#
#
# Elastic Compliance Matrix: (Units=1/GPa)
#
#
# Indices 1 2 3 4 5 6 
#
# 1 0.011656 -0.004458 -0.002535 0.000000 0.000000 0.000000
# 2 -0.004458 0.012449 -0.001026 0.000000 0.000000 0.000000
# 3 -0.002535 -0.001026 0.013137 0.000000 0.000000 0.000000
# 4 0.000000 0.000000 0.000000 0.044099 0.000000 0.000000
# 5 0.000000 0.000000 0.000000 0.000000 0.035811 0.000000
# 6 0.000000 0.000000 0.000000 0.000000 0.000000 0.024369
#
#
# Mechanical properties :
#
#
# Convention : Reuss Voigt Hill
#
# Bulk Modulus (GPa) = 47.15799 49.06527 48.11163
# Shear Modulus (GPa) = 30.37181 32.00601 31.18891
#
# Velocity S-wave (km/s) = 3.71451 3.81313 3.76414
# Velocity P-wave (km/s) = 6.31032 6.45573 6.38344
#
# Compressibility (1/GPa) = 0.02120531
#
# Stress axis : x y z
#
# Youngs Moduli (GPa) = 85.79554 80.32731 76.11958
#
# Poissons Ratio (x) = 0.35809 0.19294
# Poissons Ratio (y) = 0.38246 0.07808
# Poissons Ratio (z) = 0.21746 0.08240
#
# Static dielectric constant tensor:
#      x y z
#    x 3.985230 0.000000 0.000000 
#    y 0.000000 4.365390 0.000000 
#    z 0.000000 0.000000 3.856020 
# 
# 
# High freq. dielectric constant tensor:
#      x y z
#    x 1.869560 0.000000 0.000000 
#    y 0.000000 1.889780 0.000000 
#    z 0.000000 0.000000 1.847340 
# 
# From -- ./inp_files/48148.got.cif
#   From: 2010.03.12/outbox.cif.g09.slc.cpg/sg64_25_cif.got.tgz:48148.got - 2010.04.10 20:19:32.
