data_PCOD8264791
_publ_section_title
;
Structure prediction by ZEFSAII (Michael W. Deem and Ramdas Pophale) SiO2 
 PCOD8264791
Probable space group: C M C A
;
_chemical_formula_sum "Si O2"
_cell_formula_units_Z 88
_cell_length_a 19.010586
_cell_length_b 23.976526
_cell_length_c 9.458055
_cell_angle_alpha 90.000000
_cell_angle_beta 90.000000
_cell_angle_gamma 90.000000
_cell_volume 4311.055332
_symmetry_space_group_name_H-M "C M C A"
_symmetry_group_IT_number 64
_symmetry_cell_setting 'orthorhombic'
loop_
_space_group_symop_operation_xyz
x,y,z
-x,1/2-y,1/2+z
x,-y,-z
-x,1/2+y,1/2-z
-x,-y,-z
x,1/2+y,1/2-z
-x,y,z
x,1/2-y,1/2+z
1/2+x,1/2+y,z
1/2-x,-y,1/2+z
1/2+x,1/2-y,-z
1/2-x,y,1/2-z
1/2-x,1/2-y,-z
1/2+x,y,1/2-z
1/2-x,1/2+y,z
1/2+x,-y,1/2+z
loop_
_atom_site_type_symbol
_atom_site_label
_atom_site_fract_x
_atom_site_fract_y
_atom_site_fract_z
Si Si1 0.278322 0.000000 0.000000
Si Si2 0.275473 0.302794 0.412389
Si Si3 0.873465 0.939280 0.721083
Si Si4 0.918556 0.135963 0.519024
Si Si5 0.815158 0.905423 0.015129
Si Si6 0.077446 0.058904 0.770013
O O1 0.317722 0.965351 0.883418
O O2 0.228492 0.043359 0.918430
O O3 0.250000 0.295704 0.250000
O O4 0.250000 0.250000 0.500000
O O5 0.359772 0.316484 0.438863
O O6 0.231819 0.351531 0.481661
O O7 0.913681 0.888654 0.640669
O O8 0.920195 0.991467 0.774678
O O9 0.835523 0.911816 0.852742
O O10 0.901837 0.081423 0.614817
O O11 0.000000 0.158092 0.540207
O O12 0.882276 0.904206 0.114954
O O13 0.000000 0.077266 0.807901
#
# Coordination Sequence:
#
# PCOD8264791 Si02
#       6
#     8  16  16  16  16  16
#     4  12  22  34  62  98 138 176 222 272 322 400
#     4  12  28  49  75  99 128 172 236 292 343 404
#     4  12  22  36  63  99 142 184 226 264 328 405
#     4  11  24  43  69  99 140 179 220 274 341 408
#     4  12  25  39  65  98 136 177 226 290 333 395
#     4  11  22  40  62  98 144 184 217 265 337 404
#
# _framework density 20.412635999999999
#
# number of rings (size 3 to 8) (size 9 to 14) (size 15 to 20)
#    0.000    0.364    7.273    1.091    2.545    3.636 
#    0.000    1.818    0.000    0.000    0.000    0.000 
#    0.000    0.000    0.000    0.000    0.000    0.000 
#
# Total GULP energy -545147.119436 kJ/mol
# GULP energy per Si atom -12389.707260 kJ/mol
# Density = 2.036618 g / cm^3
# Si number density = 20.412636 Si / 1000 Ang^3
#
#
#
# Elastic Constant Matrix: (Units=GPa)
#
#
# Indices 1 2 3 4 5 6 
#
# 1 135.6051 53.8532 62.0476 0.0000 0.0000 0.0000
# 2 53.8532 104.3540 25.6602 0.0000 0.0000 0.0000
# 3 62.0476 25.6602 113.6427 0.0000 0.0000 0.0000
# 4 0.0000 0.0000 0.0000 33.7961 0.0000 0.0000
# 5 0.0000 0.0000 0.0000 0.0000 38.6731 0.0000
# 6 0.0000 0.0000 0.0000 0.0000 0.0000 20.8672
#
#
#
# Elastic Compliance Matrix: (Units=1/GPa)
#
#
# Indices 1 2 3 4 5 6 
#
# 1 0.011679 -0.004721 -0.005311 0.000000 0.000000 0.000000
# 2 -0.004721 0.012055 -0.000144 0.000000 0.000000 0.000000
# 3 -0.005311 -0.000144 0.011732 0.000000 0.000000 0.000000
# 4 0.000000 0.000000 0.000000 0.029589 0.000000 0.000000
# 5 0.000000 0.000000 0.000000 0.000000 0.025858 0.000000
# 6 0.000000 0.000000 0.000000 0.000000 0.000000 0.047922
#
#
# Mechanical properties :
#
#
# Convention : Reuss Voigt Hill
#
# Bulk Modulus (GPa) = 66.16685 70.74708 68.45697
# Shear Modulus (GPa) = 30.44607 32.80335 31.62471
#
# Velocity S-wave (km/s) = 3.86622 4.01310 3.94035
# Velocity P-wave (km/s) = 7.23984 7.49714 7.36961
#
# Compressibility (1/GPa) = 0.01511331
#
# Stress axis : x y z
#
# Youngs Moduli (GPa) = 85.62132 82.95502 85.23972
#
# Poissons Ratio (x) = 0.39166 0.45268
# Poissons Ratio (y) = 0.40425 0.01228
# Poissons Ratio (z) = 0.45471 0.01195
#
# Static dielectric constant tensor:
#      x y z
#    x 4.014890 0.000000 0.000000 
#    y 0.000000 3.797640 0.000000 
#    z 0.000000 0.000000 3.909500 
# 
# 
# High freq. dielectric constant tensor:
#      x y z
#    x 1.812040 0.000000 0.000000 
#    y 0.000000 1.766490 0.000000 
#    z 0.000000 0.000000 1.810250 
# 
# From -- ./inp_files/8241.got.cif
#   From: 2010.03.12/outbox.cif.g09.slc.cpg/sg64_5_cif.got.tgz:8241.got - 2010.04.10 20:19:32.
