data_PCOD8264812
_publ_section_title
;
Structure prediction by ZEFSAII (Michael W. Deem and Ramdas Pophale) SiO2 
 PCOD8264812
Probable space group: C M C A
;
_chemical_formula_sum "Si O2"
_cell_formula_units_Z 56
_cell_length_a 21.622921
_cell_length_b 7.626442
_cell_length_c 16.802487
_cell_angle_alpha 90.000000
_cell_angle_beta 90.000000
_cell_angle_gamma 90.000000
_cell_volume 2770.830129
_symmetry_space_group_name_H-M "C M C A"
_symmetry_group_IT_number 64
_symmetry_cell_setting 'orthorhombic'
loop_
_space_group_symop_operation_xyz
x,y,z
-x,1/2-y,1/2+z
x,-y,-z
-x,1/2+y,1/2-z
-x,-y,-z
x,1/2+y,1/2-z
-x,y,z
x,1/2-y,1/2+z
1/2+x,1/2+y,z
1/2-x,-y,1/2+z
1/2+x,1/2-y,-z
1/2-x,y,1/2-z
1/2-x,1/2-y,-z
1/2+x,y,1/2-z
1/2-x,1/2+y,z
1/2+x,-y,1/2+z
loop_
_atom_site_type_symbol
_atom_site_label
_atom_site_fract_x
_atom_site_fract_y
_atom_site_fract_z
Si Si1 0.193060 0.138570 0.149985
Si Si2 0.070828 0.848564 0.561035
Si Si3 0.124200 0.500000 0.500000
Si Si4 0.328919 0.536990 0.323052
O O1 0.267399 0.138037 0.148838
O O2 0.170891 0.337917 0.147746
O O3 0.166316 0.040121 0.227561
O O4 0.168596 0.037194 0.073861
O O5 0.079922 0.662816 0.518336
O O6 0.112654 0.863409 0.639678
O O7 0.000000 0.868808 0.587959
O O8 0.090451 0.000000 0.500000
#
# Coordination Sequence:
#
# PCOD8264812 Si02
#       4
#    16  16   8  16
#     4  11  23  38  68  94 131 166 211 278 322 383
#     4  11  24  43  65  91 129 168 212 261 310 384
#     4  12  23  42  68  98 127 168 218 268 330 368
#     4  11  22  43  61  97 131 168 217 263 326 385
#
# _framework density 20.210550000000001
#
# number of rings (size 3 to 8) (size 9 to 14) (size 15 to 20)
#    0.000    0.857    2.857    7.286    2.000    2.286 
#    0.000    7.143    0.000    0.000    0.000    0.000 
#    0.000    0.000    0.000    0.000    0.000    0.000 
#
# Total GULP energy -347421.396135 kJ/mol
# GULP energy per Si atom -12407.907005 kJ/mol
# Density = 2.016455 g / cm^3
# Si number density = 20.210550 Si / 1000 Ang^3
#
#
#
# Elastic Constant Matrix: (Units=GPa)
#
#
# Indices 1 2 3 4 5 6 
#
# 1 112.8931 28.4587 73.7702 0.0000 0.0000 0.0000
# 2 28.4587 124.7714 38.2893 0.0000 0.0000 0.0000
# 3 73.7702 38.2893 126.7813 0.0000 0.0000 0.0000
# 4 0.0000 0.0000 0.0000 37.0224 0.0000 0.0000
# 5 0.0000 0.0000 0.0000 0.0000 29.6365 0.0000
# 6 0.0000 0.0000 0.0000 0.0000 0.0000 25.5430
#
#
#
# Elastic Compliance Matrix: (Units=1/GPa)
#
#
# Indices 1 2 3 4 5 6 
#
# 1 0.014361 -0.000784 -0.008120 0.000000 0.000000 0.000000
# 2 -0.000784 0.008876 -0.002225 0.000000 0.000000 0.000000
# 3 -0.008120 -0.002225 0.013284 0.000000 0.000000 0.000000
# 4 0.000000 0.000000 0.000000 0.027011 0.000000 0.000000
# 5 0.000000 0.000000 0.000000 0.000000 0.033742 0.000000
# 6 0.000000 0.000000 0.000000 0.000000 0.000000 0.039150
#
#
# Mechanical properties :
#
#
# Convention : Reuss Voigt Hill
#
# Bulk Modulus (GPa) = 70.10053 71.72023 70.91038
# Shear Modulus (GPa) = 30.59313 33.36890 31.98102
#
# Velocity S-wave (km/s) = 3.89488 4.06774 3.98224
# Velocity P-wave (km/s) = 7.41533 7.59115 7.50376
#
# Compressibility (1/GPa) = 0.01426523
#
# Stress axis : x y z
#
# Youngs Moduli (GPa) = 69.63116 112.66186 75.27827
#
# Poissons Ratio (x) = 0.08832 0.61124
# Poissons Ratio (y) = 0.05458 0.16746
# Poissons Ratio (z) = 0.56538 0.25062
#
# Static dielectric constant tensor:
#      x y z
#    x 3.462910 0.000000 0.000000 
#    y 0.000000 3.908840 0.000000 
#    z 0.000000 0.000000 3.660300 
# 
# 
# High freq. dielectric constant tensor:
#      x y z
#    x 1.776660 0.000000 0.000000 
#    y 0.000000 1.811940 0.000000 
#    z 0.000000 0.000000 1.791230 
# 
# From -- ./inp_files/32688.got.cif
#   From: 2010.03.12/outbox.cif.g09.slc.cpg/sg64_17_cif.got.tgz:32688.got - 2010.04.10 20:19:32.
