data_PCOD8264594
_publ_section_title
;
Structure prediction by ZEFSAII (Michael W. Deem and Ramdas Pophale) SiO2 
 PCOD8264594
Probable space group: C M C A
;
_chemical_formula_sum "Si O2"
_cell_formula_units_Z 72
_cell_length_a 13.714653
_cell_length_b 17.959661
_cell_length_c 13.952706
_cell_angle_alpha 90.000000
_cell_angle_beta 90.000000
_cell_angle_gamma 90.000000
_cell_volume 3436.698251
_symmetry_space_group_name_H-M "C M C A"
_symmetry_group_IT_number 64
_symmetry_cell_setting 'orthorhombic'
loop_
_space_group_symop_operation_xyz
x,y,z
-x,1/2-y,1/2+z
x,-y,-z
-x,1/2+y,1/2-z
-x,-y,-z
x,1/2+y,1/2-z
-x,y,z
x,1/2-y,1/2+z
1/2+x,1/2+y,z
1/2-x,-y,1/2+z
1/2+x,1/2-y,-z
1/2-x,y,1/2-z
1/2-x,1/2-y,-z
1/2+x,y,1/2-z
1/2-x,1/2+y,z
1/2+x,-y,1/2+z
loop_
_atom_site_type_symbol
_atom_site_label
_atom_site_fract_x
_atom_site_fract_y
_atom_site_fract_z
Si Si1 0.000000 0.428290 0.812126
Si Si2 0.000000 0.743006 0.138037
Si Si3 0.000000 0.082111 0.097277
Si Si4 0.671652 0.500000 0.000000
Si Si5 0.500000 0.253159 0.413105
Si Si6 0.814593 0.016090 0.668555
Si Si7 0.643731 0.679780 0.730171
O O1 0.903555 0.462335 0.863044
O O2 0.000000 0.339352 0.817365
O O3 0.000000 0.456255 0.701684
O O4 0.089947 0.792470 0.174152
O O5 0.000000 0.732649 0.025199
O O6 0.900568 0.063054 0.040798
O O7 0.000000 0.168451 0.114444
O O8 0.743615 0.534918 0.920365
O O9 0.596754 0.288299 0.366766
O O10 0.750000 0.974463 0.750000
O O11 0.856998 0.090784 0.717496
O O12 0.750000 0.711920 0.750000
#
# Coordination Sequence:
#
# PCOD8264594 Si02
#       7
#     8   8   8   8   8  16  16
#     4  12  23  44  67  99 135 177 218 290 321 382
#     4  11  26  42  67  95 135 176 219 269 332 394
#     4  11  24  45  70  97 134 173 224 277 324 400
#     4  11  26  43  70 104 128 173 230 269 332 396
#     4  11  25  44  66  97 133 177 218 270 331 397
#     4  11  25  43  70  97 135 177 220 275 333 391
#     4  10  24  45  64  95 134 175 216 269 334 394
#
# _framework density 20.950341000000002
#
# number of rings (size 3 to 8) (size 9 to 14) (size 15 to 20)
#    0.000    1.111    4.444    1.333    9.333    4.000 
#    0.000    0.000    0.000    0.000    0.000    0.000 
#    0.000    0.000    0.000    0.000    0.000    0.000 
#
# Total GULP energy -446252.339381 kJ/mol
# GULP energy per Si atom -12395.898316 kJ/mol
# Density = 2.090266 g / cm^3
# Si number density = 20.950341 Si / 1000 Ang^3
#
#
#
# Elastic Constant Matrix: (Units=GPa)
#
#
# Indices 1 2 3 4 5 6 
#
# 1 171.9842 50.3399 51.9272 0.0000 0.0000 0.0000
# 2 50.3399 92.6978 13.4041 0.0000 0.0000 0.0000
# 3 51.9272 13.4041 133.9127 0.0000 0.0000 0.0000
# 4 0.0000 0.0000 0.0000 27.0640 0.0000 0.0000
# 5 0.0000 0.0000 0.0000 0.0000 46.2067 0.0000
# 6 0.0000 0.0000 0.0000 0.0000 0.0000 15.3222
#
#
#
# Elastic Compliance Matrix: (Units=1/GPa)
#
#
# Indices 1 2 3 4 5 6 
#
# 1 0.007719 -0.003814 -0.002612 0.000000 0.000000 0.000000
# 2 -0.003814 0.012831 0.000195 0.000000 0.000000 0.000000
# 3 -0.002612 0.000195 0.008461 0.000000 0.000000 0.000000
# 4 0.000000 0.000000 0.000000 0.036949 0.000000 0.000000
# 5 0.000000 0.000000 0.000000 0.000000 0.021642 0.000000
# 6 0.000000 0.000000 0.000000 0.000000 0.000000 0.065265
#
#
# Mechanical properties :
#
#
# Convention : Reuss Voigt Hill
#
# Bulk Modulus (GPa) = 60.42737 69.99302 65.21019
# Shear Modulus (GPa) = 29.26609 36.58015 32.92312
#
# Velocity S-wave (km/s) = 3.74160 4.18310 3.96850
# Velocity P-wave (km/s) = 6.89724 7.53741 7.22442
#
# Compressibility (1/GPa) = 0.01654879
#
# Stress axis : x y z
#
# Youngs Moduli (GPa) = 129.54215 77.93607 118.19294
#
# Poissons Ratio (x) = 0.29728 0.30867
# Poissons Ratio (y) = 0.49413 -0.02302
# Poissons Ratio (z) = 0.33831 -0.01518
#
# Static dielectric constant tensor:
#      x y z
#    x 4.284660 0.000000 0.000000 
#    y 0.000000 3.564490 0.000000 
#    z 0.000000 0.000000 4.482610 
# 
# 
# High freq. dielectric constant tensor:
#      x y z
#    x 1.837390 0.000000 0.000000 
#    y 0.000000 1.811250 0.000000 
#    z 0.000000 0.000000 1.825410 
# 
# From -- ./inp_files/23589.got.cif
#   From: 2010.03.12/outbox.cif.g09.slc.cpg/sg64_12_cif.got.tgz:23589.got - 2010.04.10 20:19:32.
