data_PCOD8264195
_publ_section_title
;
Structure prediction by ZEFSAII (Michael W. Deem and Ramdas Pophale) SiO2 
 PCOD8264195
Probable space group: C M C A
;
_chemical_formula_sum "Si O2"
_cell_formula_units_Z 64
_cell_length_a 13.840497
_cell_length_b 9.738203
_cell_length_c 26.313948
_cell_angle_alpha 90.000000
_cell_angle_beta 90.000000
_cell_angle_gamma 90.000000
_cell_volume 3546.635209
_symmetry_space_group_name_H-M "C M C A"
_symmetry_group_IT_number 64
_symmetry_cell_setting 'orthorhombic'
loop_
_space_group_symop_operation_xyz
x,y,z
-x,1/2-y,1/2+z
x,-y,-z
-x,1/2+y,1/2-z
-x,-y,-z
x,1/2+y,1/2-z
-x,y,z
x,1/2-y,1/2+z
1/2+x,1/2+y,z
1/2-x,-y,1/2+z
1/2+x,1/2-y,-z
1/2-x,y,1/2-z
1/2-x,1/2-y,-z
1/2+x,y,1/2-z
1/2-x,1/2+y,z
1/2+x,-y,1/2+z
loop_
_atom_site_type_symbol
_atom_site_label
_atom_site_fract_x
_atom_site_fract_y
_atom_site_fract_z
Si Si1 0.343248 0.526310 0.120016
Si Si2 0.846556 0.705469 0.114289
Si Si3 0.500000 0.359472 0.529735
Si Si4 0.500000 0.486138 0.796071
Si Si5 0.000000 0.203883 0.300721
Si Si6 0.000000 0.388959 0.542527
O O1 0.246097 0.612085 0.122194
O O2 0.320630 0.366351 0.109173
O O3 0.403356 0.544616 0.171885
O O4 0.404005 0.591530 0.074885
O O5 0.906785 0.678556 0.164957
O O6 0.904791 0.659400 0.064172
O O7 0.500000 0.500000 0.500000
O O8 0.500000 0.258086 0.482541
O O9 0.500000 0.643333 0.778356
O O10 0.500000 0.398133 0.745815
O O11 0.000000 0.500000 0.500000
#
# Coordination Sequence:
#
# PCOD8264195 Si02
#       6
#    16  16   8   8   8   8
#     4  10  22  38  60  84 115 148 190 232 282 333
#     4  10  22  40  57  85 117 148 187 236 279 334
#     4  11  24  39  57  84 116 150 194 231 280 333
#     4   9  20  40  59  83 112 151 183 230 286 336
#     4   9  20  40  61  80 116 147 185 232 283 336
#     4  11  20  41  59  78 116 156 184 230 283 329
#
# _framework density 18.045273999999999
#
# number of rings (size 3 to 8) (size 9 to 14) (size 15 to 20)
#    0.000    2.000    2.500    1.500    3.500    5.000 
#    4.500    5.000    0.000    0.000    0.000    0.000 
#    0.000    0.000    0.000    0.000    0.000    0.000 
#
# Total GULP energy -396764.314277 kJ/mol
# GULP energy per Si atom -12398.884821 kJ/mol
# Density = 1.800420 g / cm^3
# Si number density = 18.045274 Si / 1000 Ang^3
#
#
#
# Elastic Constant Matrix: (Units=GPa)
#
#
# Indices 1 2 3 4 5 6 
#
# 1 153.2062 95.3326 61.6329 0.0000 0.0000 0.0000
# 2 95.3326 178.1384 101.1465 0.0000 0.0000 0.0000
# 3 61.6329 101.1465 138.0602 0.0000 0.0000 0.0000
# 4 0.0000 0.0000 0.0000 45.5505 0.0000 0.0000
# 5 0.0000 0.0000 0.0000 0.0000 5.9143 0.0000
# 6 0.0000 0.0000 0.0000 0.0000 0.0000 33.5798
#
#
#
# Elastic Compliance Matrix: (Units=1/GPa)
#
#
# Indices 1 2 3 4 5 6 
#
# 1 0.009853 -0.004752 -0.000917 0.000000 0.000000 0.000000
# 2 -0.004752 0.011904 -0.006600 0.000000 0.000000 0.000000
# 3 -0.000917 -0.006600 0.012488 0.000000 0.000000 0.000000
# 4 0.000000 0.000000 0.000000 0.021954 0.000000 0.000000
# 5 0.000000 0.000000 0.000000 0.000000 0.169081 0.000000
# 6 0.000000 0.000000 0.000000 0.000000 0.000000 0.029780
#
#
# Mechanical properties :
#
#
# Convention : Reuss Voigt Hill
#
# Bulk Modulus (GPa) = 103.01925 109.51430 106.26678
# Shear Modulus (GPa) = 17.67822 31.09511 24.38666
#
# Velocity S-wave (km/s) = 3.13335 4.15561 3.68015
# Velocity P-wave (km/s) = 8.38473 9.15674 8.77923
#
# Compressibility (1/GPa) = 0.00970692
#
# Stress axis : x y z
#
# Youngs Moduli (GPa) = 101.48969 84.00341 80.07853
#
# Poissons Ratio (x) = 0.39922 0.07343
# Poissons Ratio (y) = 0.48232 0.52850
# Poissons Ratio (z) = 0.09306 0.55441
#
# Static dielectric constant tensor:
#      x y z
#    x 3.391020 0.000000 0.000000 
#    y 0.000000 3.362920 0.000000 
#    z 0.000000 0.000000 3.303590 
# 
# 
# High freq. dielectric constant tensor:
#      x y z
#    x 1.701740 0.000000 0.000000 
#    y 0.000000 1.711950 0.000000 
#    z 0.000000 0.000000 1.707080 
# 
# From -- ./inp_files/44819.got.cif
#   From: 2010.03.12/outbox.cif.g09.slc.cpg/sg64_23_cif.got.tgz:44819.got - 2010.04.10 20:19:32.
