data_PCOD8264690
_publ_section_title
;
Structure prediction by ZEFSAII (Michael W. Deem and Ramdas Pophale) SiO2 
 PCOD8264690
Probable space group: C M C A
;
_chemical_formula_sum "Si O2"
_cell_formula_units_Z 80
_cell_length_a 25.834786
_cell_length_b 12.509638
_cell_length_c 13.607516
_cell_angle_alpha 90.000000
_cell_angle_beta 90.000000
_cell_angle_gamma 90.000000
_cell_volume 4397.729011
_symmetry_space_group_name_H-M "C M C A"
_symmetry_group_IT_number 64
_symmetry_cell_setting 'orthorhombic'
loop_
_space_group_symop_operation_xyz
x,y,z
-x,1/2-y,1/2+z
x,-y,-z
-x,1/2+y,1/2-z
-x,-y,-z
x,1/2+y,1/2-z
-x,y,z
x,1/2-y,1/2+z
1/2+x,1/2+y,z
1/2-x,-y,1/2+z
1/2+x,1/2-y,-z
1/2-x,y,1/2-z
1/2-x,1/2-y,-z
1/2+x,y,1/2-z
1/2-x,1/2+y,z
1/2+x,-y,1/2+z
loop_
_atom_site_type_symbol
_atom_site_label
_atom_site_fract_x
_atom_site_fract_y
_atom_site_fract_z
Si Si1 0.781921 0.599473 0.430203
Si Si2 0.664486 0.068645 0.096620
Si Si3 0.860080 0.703128 0.557417
Si Si4 0.138082 0.496929 0.301504
Si Si5 0.056891 0.097888 0.072121
O O1 0.790591 0.500000 0.500000
O O2 0.723275 0.611652 0.396016
O O3 0.806439 0.697934 0.493068
O O4 0.815975 0.576059 0.334488
O O5 0.631351 0.177588 0.098060
O O6 0.645768 0.990617 0.184226
O O7 0.655186 0.000000 0.000000
O O8 0.858862 0.620561 0.649239
O O9 0.907728 0.683959 0.483405
O O10 0.083950 0.554489 0.328544
O O11 0.000000 0.145783 0.097949
O O12 0.050144 0.000000 0.000000
#
# Coordination Sequence:
#
# PCOD8264690 Si02
#       5
#    16  16  16  16  16
#     4   8  16  32  50  71  98 133 172 207 241 290
#     4  11  21  31  47  74 109 139 165 201 251 303
#     4   9  18  33  52  73 100 132 171 213 251 293
#     4   9  18  32  50  74 101 129 170 212 246 295
#     4   8  15  32  58  78  91 120 169 215 250 292
#
# _framework density 18.191206999999999
#
# number of rings (size 3 to 8) (size 9 to 14) (size 15 to 20)
#    0.000    3.000    0.000    3.600    0.000    3.200 
#    0.000    7.000    0.000    7.200    0.000    0.000 
#    0.000    0.000    0.000    0.000    0.000    0.000 
#
# Total GULP energy -495593.399313 kJ/mol
# GULP energy per Si atom -12389.834983 kJ/mol
# Density = 1.814980 g / cm^3
# Si number density = 18.191207 Si / 1000 Ang^3
#
#
#
# Elastic Constant Matrix: (Units=GPa)
#
#
# Indices 1 2 3 4 5 6 
#
# 1 107.1546 30.8558 58.4520 0.0000 0.0000 0.0000
# 2 30.8558 84.2693 30.8924 0.0000 0.0000 0.0000
# 3 58.4520 30.8924 107.0928 0.0000 0.0000 0.0000
# 4 0.0000 0.0000 0.0000 13.9862 0.0000 0.0000
# 5 0.0000 0.0000 0.0000 0.0000 3.6497 0.0000
# 6 0.0000 0.0000 0.0000 0.0000 0.0000 13.5250
#
#
#
# Elastic Compliance Matrix: (Units=1/GPa)
#
#
# Indices 1 2 3 4 5 6 
#
# 1 0.013764 -0.002556 -0.006775 0.000000 0.000000 0.000000
# 2 -0.002556 0.013745 -0.002570 0.000000 0.000000 0.000000
# 3 -0.006775 -0.002570 0.013777 0.000000 0.000000 0.000000
# 4 0.000000 0.000000 0.000000 0.071499 0.000000 0.000000
# 5 0.000000 0.000000 0.000000 0.000000 0.273994 0.000000
# 6 0.000000 0.000000 0.000000 0.000000 0.000000 0.073937
#
#
# Mechanical properties :
#
#
# Convention : Reuss Voigt Hill
#
# Bulk Modulus (GPa) = 57.19614 59.87969 58.53792
# Shear Modulus (GPa) = 10.19687 18.11994 14.15840
#
# Velocity S-wave (km/s) = 2.37014 3.15950 2.79285
# Velocity P-wave (km/s) = 6.24500 6.80428 6.53063
#
# Compressibility (1/GPa) = 0.01748370
#
# Stress axis : x y z
#
# Youngs Moduli (GPa) = 72.65218 72.75533 72.58507
#
# Poissons Ratio (x) = 0.18597 0.49178
# Poissons Ratio (y) = 0.18571 0.18652
# Poissons Ratio (z) = 0.49224 0.18696
#
# Static dielectric constant tensor:
#      x y z
#    x 4.197970 0.000000 0.000000 
#    y 0.000000 3.024070 0.000000 
#    z 0.000000 0.000000 3.197890 
# 
# 
# High freq. dielectric constant tensor:
#      x y z
#    x 1.693840 0.000000 0.000000 
#    y 0.000000 1.680870 0.000000 
#    z 0.000000 0.000000 1.693610 
# 
# From -- ./inp_files/18087.got.cif
#   From: 2010.03.12/outbox.cif.g09.slc.cpg/sg64_10_cif.got.tgz:18087.got - 2010.04.10 20:19:32.
