data_PCOD8264433
_publ_section_title
;
Structure prediction by ZEFSAII (Michael W. Deem and Ramdas Pophale) SiO2 
 PCOD8264433
Probable space group: C M C A
;
_chemical_formula_sum "Si O2"
_cell_formula_units_Z 72
_cell_length_a 14.028013
_cell_length_b 10.085889
_cell_length_c 24.080473
_cell_angle_alpha 90.000000
_cell_angle_beta 90.000000
_cell_angle_gamma 90.000000
_cell_volume 3407.025289
_symmetry_space_group_name_H-M "C M C A"
_symmetry_group_IT_number 64
_symmetry_cell_setting 'orthorhombic'
loop_
_space_group_symop_operation_xyz
x,y,z
-x,1/2-y,1/2+z
x,-y,-z
-x,1/2+y,1/2-z
-x,-y,-z
x,1/2+y,1/2-z
-x,y,z
x,1/2-y,1/2+z
1/2+x,1/2+y,z
1/2-x,-y,1/2+z
1/2+x,1/2-y,-z
1/2-x,y,1/2-z
1/2-x,1/2-y,-z
1/2+x,y,1/2-z
1/2-x,1/2+y,z
1/2+x,-y,1/2+z
loop_
_atom_site_type_symbol
_atom_site_label
_atom_site_fract_x
_atom_site_fract_y
_atom_site_fract_z
Si Si1 0.500000 0.392817 0.856121
Si Si2 0.000000 0.830759 0.083441
Si Si3 0.199966 0.941210 0.808305
Si Si4 0.000000 0.777316 0.465053
Si Si5 0.796246 0.628401 0.969601
Si Si6 0.304318 0.789963 0.365003
O O1 0.500000 0.520095 0.895409
O O2 0.591700 0.385946 0.815254
O O3 0.500000 0.278575 0.902377
O O4 0.907058 0.758142 0.108277
O O5 0.000000 0.829368 0.016046
O O6 0.250000 0.911004 0.750000
O O7 0.263061 0.854602 0.850922
O O8 0.194273 0.100988 0.815564
O O9 0.090300 0.871185 0.472341
O O10 0.763069 0.629819 0.906644
O O11 0.755167 0.500000 0.000000
O O12 0.750000 0.750000 0.000000
#
# Coordination Sequence:
#
# PCOD8264433 Si02
#       6
#     8   8  16   8  16  16
#     4  10  23  42  65  99 128 172 220 267 329 393
#     4  10  23  36  66  96 138 171 211 255 327 411
#     4  11  24  45  69  92 127 172 225 279 327 377
#     4  12  22  40  63  99 135 175 210 270 317 400
#     4  12  25  40  64  99 137 176 215 261 329 396
#     4  11  23  43  64  98 130 171 219 269 324 389
#
# _framework density 21.132805000000001
#
# number of rings (size 3 to 8) (size 9 to 14) (size 15 to 20)
#    0.000    0.889    4.444    2.667    3.111    0.889 
#    0.000    5.556    0.000    0.000    0.000    0.000 
#    0.000    0.000    0.000    0.000    0.000    0.000 
#
# Total GULP energy -446172.059813 kJ/mol
# GULP energy per Si atom -12393.668328 kJ/mol
# Density = 2.108471 g / cm^3
# Si number density = 21.132805 Si / 1000 Ang^3
#
#
#
# Elastic Constant Matrix: (Units=GPa)
#
#
# Indices 1 2 3 4 5 6 
#
# 1 161.3582 25.6139 45.2340 0.0000 0.0000 0.0000
# 2 25.6139 70.7642 9.0408 0.0000 0.0000 0.0000
# 3 45.2340 9.0408 103.9256 0.0000 0.0000 0.0000
# 4 0.0000 0.0000 0.0000 28.2743 0.0000 0.0000
# 5 0.0000 0.0000 0.0000 0.0000 30.4395 0.0000
# 6 0.0000 0.0000 0.0000 0.0000 0.0000 31.8199
#
#
#
# Elastic Compliance Matrix: (Units=1/GPa)
#
#
# Indices 1 2 3 4 5 6 
#
# 1 0.007410 -0.002296 -0.003026 0.000000 0.000000 0.000000
# 2 -0.002296 0.015001 -0.000306 0.000000 0.000000 0.000000
# 3 -0.003026 -0.000306 0.010966 0.000000 0.000000 0.000000
# 4 0.000000 0.000000 0.000000 0.035368 0.000000 0.000000
# 5 0.000000 0.000000 0.000000 0.000000 0.032852 0.000000
# 6 0.000000 0.000000 0.000000 0.000000 0.000000 0.031427
#
#
# Mechanical properties :
#
#
# Convention : Reuss Voigt Hill
#
# Bulk Modulus (GPa) = 45.20141 55.09174 50.14658
# Shear Modulus (GPa) = 32.97020 35.18403 34.07712
#
# Velocity S-wave (km/s) = 3.95415 4.08475 4.01998
# Velocity P-wave (km/s) = 6.50252 6.95505 6.73259
#
# Compressibility (1/GPa) = 0.02212320
#
# Stress axis : x y z
#
# Youngs Moduli (GPa) = 134.95385 66.66034 91.19313
#
# Poissons Ratio (x) = 0.15302 0.27591
# Poissons Ratio (y) = 0.30980 0.02789
# Poissons Ratio (z) = 0.40830 0.02039
#
# Static dielectric constant tensor:
#      x y z
#    x -5.966120 0.000000 0.000000 
#    y 0.000000 3.596230 0.000000 
#    z 0.000000 0.000000 3.836660 
# 
# 
# High freq. dielectric constant tensor:
#      x y z
#    x 1.845800 0.000000 0.000000 
#    y 0.000000 1.822790 0.000000 
#    z 0.000000 0.000000 1.820180 
# 
# From -- ./inp_files/49835.got.cif
#   From: 2010.03.12/outbox.cif.g09.slc.cpg/sg64_25_cif.got.tgz:49835.got - 2010.04.10 20:19:32.
