data_PCOD8264511
_publ_section_title
;
Structure prediction by ZEFSAII (Michael W. Deem and Ramdas Pophale) SiO2 
 PCOD8264511
Probable space group: C M C A
;
_chemical_formula_sum "Si O2"
_cell_formula_units_Z 112
_cell_length_a 14.290780
_cell_length_b 28.752041
_cell_length_c 12.462437
_cell_angle_alpha 90.000000
_cell_angle_beta 90.000000
_cell_angle_gamma 90.000000
_cell_volume 5120.679429
_symmetry_space_group_name_H-M "C M C A"
_symmetry_group_IT_number 64
_symmetry_cell_setting 'orthorhombic'
loop_
_space_group_symop_operation_xyz
x,y,z
-x,1/2-y,1/2+z
x,-y,-z
-x,1/2+y,1/2-z
-x,-y,-z
x,1/2+y,1/2-z
-x,y,z
x,1/2-y,1/2+z
1/2+x,1/2+y,z
1/2-x,-y,1/2+z
1/2+x,1/2-y,-z
1/2-x,y,1/2-z
1/2-x,1/2-y,-z
1/2+x,y,1/2-z
1/2-x,1/2+y,z
1/2+x,-y,1/2+z
loop_
_atom_site_type_symbol
_atom_site_label
_atom_site_fract_x
_atom_site_fract_y
_atom_site_fract_z
Si Si1 0.103067 0.825138 0.200072
Si Si2 0.236421 0.098854 0.134018
Si Si3 0.640439 0.427426 0.259591
Si Si4 0.110392 0.723309 0.924717
Si Si5 0.707840 0.688010 0.011662
Si Si6 0.105941 0.052437 0.498632
Si Si7 0.104514 0.485330 0.615737
O O1 0.101468 0.880881 0.206930
O O2 0.129647 0.801895 0.312460
O O3 0.176163 0.808382 0.111719
O O4 0.000000 0.808588 0.164333
O O5 0.250000 0.122685 0.250000
O O6 0.333776 0.082894 0.082516
O O7 0.169323 0.055528 0.158477
O O8 0.188771 0.136593 0.056570
O O9 0.750000 0.428395 0.250000
O O10 0.609249 0.426782 0.382565
O O11 0.600557 0.472072 0.198494
O O12 0.180097 0.699558 0.013368
O O13 0.000000 0.719491 0.957691
O O14 0.145227 0.776752 0.917083
O O15 0.000000 0.053555 0.454957
O O16 0.145219 0.000000 0.500000
O O17 0.145169 0.500000 0.500000
O O18 0.000000 0.465633 0.601853
#
# Coordination Sequence:
#
# PCOD8264511 Si02
#       7
#    16  16  16  16  16  16  16
#     4  11  22  39  66  97 127 162 209 264 324 390
#     4  12  26  42  61  90 128 171 216 266 330 401
#     4  12  22  37  64  95 129 170 218 268 321 385
#     4  10  23  43  67  95 125 161 210 269 330 390
#     4  11  24  42  66  93 128 167 209 262 327 399
#     4  11  23  40  62  89 125 172 224 275 326 382
#     4  11  23  39  61  91 130 173 217 267 322 384
#
# _framework density 21.872098000000001
#
# number of rings (size 3 to 8) (size 9 to 14) (size 15 to 20)
#    0.000    0.857    0.000    9.000    0.000    8.000 
#    0.000    0.000    0.000    0.000    0.000    0.000 
#    0.000    0.000    0.000    0.000    0.000    0.000 
#
# Total GULP energy -694511.006656 kJ/mol
# GULP energy per Si atom -12401.982262 kJ/mol
# Density = 2.182232 g / cm^3
# Si number density = 21.872098 Si / 1000 Ang^3
#
#
#
# Elastic Constant Matrix: (Units=GPa)
#
#
# Indices 1 2 3 4 5 6 
#
# 1 121.5955 32.6080 30.9608 0.0000 0.0000 0.0000
# 2 32.6080 123.1780 31.1433 0.0000 0.0000 0.0000
# 3 30.9608 31.1433 89.9747 0.0000 0.0000 0.0000
# 4 0.0000 0.0000 0.0000 41.8261 0.0000 0.0000
# 5 0.0000 0.0000 0.0000 0.0000 33.9673 0.0000
# 6 0.0000 0.0000 0.0000 0.0000 0.0000 32.3497
#
#
#
# Elastic Compliance Matrix: (Units=1/GPa)
#
#
# Indices 1 2 3 4 5 6 
#
# 1 0.009374 -0.001826 -0.002594 0.000000 0.000000 0.000000
# 2 -0.001826 0.009253 -0.002574 0.000000 0.000000 0.000000
# 3 -0.002594 -0.002574 0.012898 0.000000 0.000000 0.000000
# 4 0.000000 0.000000 0.000000 0.023908 0.000000 0.000000
# 5 0.000000 0.000000 0.000000 0.000000 0.029440 0.000000
# 6 0.000000 0.000000 0.000000 0.000000 0.000000 0.030912
#
#
# Mechanical properties :
#
#
# Convention : Reuss Voigt Hill
#
# Bulk Modulus (GPa) = 57.02314 58.24138 57.63226
# Shear Modulus (GPa) = 36.86816 37.63102 37.24959
#
# Velocity S-wave (km/s) = 4.11009 4.15240 4.13130
# Velocity P-wave (km/s) = 6.97507 7.04811 7.01168
#
# Compressibility (1/GPa) = 0.01753674
#
# Stress axis : x y z
#
# Youngs Moduli (GPa) = 106.67802 108.07852 77.53250
#
# Poissons Ratio (x) = 0.19732 0.20110
# Poissons Ratio (y) = 0.19477 0.19960
# Poissons Ratio (z) = 0.27669 0.27823
#
# Static dielectric constant tensor:
#      x y z
#    x 4.149470 0.000000 0.000000 
#    y 0.000000 4.062310 0.000000 
#    z 0.000000 0.000000 3.853200 
# 
# 
# High freq. dielectric constant tensor:
#      x y z
#    x 1.877370 0.000000 0.000000 
#    y 0.000000 1.858300 0.000000 
#    z 0.000000 0.000000 1.853220 
# 
# From -- ./inp_files/14957.got.cif
#   From: 2010.03.12/outbox.cif.g09.slc.cpg/sg64_8_cif.got.tgz:14957.got - 2010.04.10 20:19:32.
