data_PCOD8264956
_publ_section_title
;
Structure prediction by ZEFSAII (Michael W. Deem and Ramdas Pophale) SiO2 
 PCOD8264956
Probable space group: C M C A
;
_chemical_formula_sum "Si O2"
_cell_formula_units_Z 64
_cell_length_a 10.217536
_cell_length_b 20.613151
_cell_length_c 14.598352
_cell_angle_alpha 90.000000
_cell_angle_beta 90.000000
_cell_angle_gamma 90.000000
_cell_volume 3074.640847
_symmetry_space_group_name_H-M "C M C A"
_symmetry_group_IT_number 64
_symmetry_cell_setting 'orthorhombic'
loop_
_space_group_symop_operation_xyz
x,y,z
-x,1/2-y,1/2+z
x,-y,-z
-x,1/2+y,1/2-z
-x,-y,-z
x,1/2+y,1/2-z
-x,y,z
x,1/2-y,1/2+z
1/2+x,1/2+y,z
1/2-x,-y,1/2+z
1/2+x,1/2-y,-z
1/2-x,y,1/2-z
1/2-x,1/2-y,-z
1/2+x,y,1/2-z
1/2-x,1/2+y,z
1/2+x,-y,1/2+z
loop_
_atom_site_type_symbol
_atom_site_label
_atom_site_fract_x
_atom_site_fract_y
_atom_site_fract_z
Si Si1 0.500000 0.684784 0.719697
Si Si2 0.746359 0.855208 0.645848
Si Si3 0.750000 0.096545 0.750000
Si Si4 0.500000 0.782129 0.885466
Si Si5 0.347216 0.506329 0.108449
Si Si6 0.500000 0.715772 0.068956
O O1 0.372322 0.641605 0.728908
O O2 0.500000 0.745643 0.788616
O O3 0.500000 0.714915 0.618445
O O4 0.750000 0.830988 0.750000
O O5 0.877300 0.829240 0.599138
O O6 0.736715 0.932573 0.642091
O O7 0.625404 0.826275 0.591994
O O8 0.716536 0.054669 0.660035
O O9 0.500000 0.725756 0.960527
O O10 0.500000 0.513332 0.135749
O O11 0.330969 0.500000 0.000000
#
# Coordination Sequence:
#
# PCOD8264956 Si02
#       6
#     8  16   8   8  16   8
#     4  12  26  44  66 102 144 174 224 280 346 406
#     4  12  23  46  71  98 137 180 230 283 335 400
#     4  12  26  44  72  98 140 182 220 280 348 402
#     4  12  28  43  70 104 138 179 229 283 339 402
#     4  11  26  46  71 101 136 182 228 279 344 407
#     4  12  26  45  70  98 138 185 225 277 339 406
#
# _framework density 20.815439000000001
#
# number of rings (size 3 to 8) (size 9 to 14) (size 15 to 20)
#    0.000    0.250    6.250    2.250    7.000    1.000 
#    0.000    1.250    0.000    0.000    0.000    0.000 
#    0.000    0.000    0.000    0.000    0.000    0.000 
#
# Total GULP energy -397000.523333 kJ/mol
# GULP energy per Si atom -12406.266354 kJ/mol
# Density = 2.076806 g / cm^3
# Si number density = 20.815439 Si / 1000 Ang^3
#
#
#
# Elastic Constant Matrix: (Units=GPa)
#
#
# Indices 1 2 3 4 5 6 
#
# 1 156.0620 49.9417 11.3941 0.0000 0.0000 0.0000
# 2 49.9417 105.3493 0.6267 0.0000 0.0000 0.0000
# 3 11.3941 0.6267 64.8426 0.0000 0.0000 0.0000
# 4 0.0000 0.0000 0.0000 35.3648 0.0000 0.0000
# 5 0.0000 0.0000 0.0000 0.0000 40.1015 0.0000
# 6 0.0000 0.0000 0.0000 0.0000 0.0000 49.4141
#
#
#
# Elastic Compliance Matrix: (Units=1/GPa)
#
#
# Indices 1 2 3 4 5 6 
#
# 1 0.007664 -0.003625 -0.001312 0.000000 0.000000 0.000000
# 2 -0.003625 0.011208 0.000529 0.000000 0.000000 0.000000
# 3 -0.001312 0.000529 0.015647 0.000000 0.000000 0.000000
# 4 0.000000 0.000000 0.000000 0.028277 0.000000 0.000000
# 5 0.000000 0.000000 0.000000 0.000000 0.024937 0.000000
# 6 0.000000 0.000000 0.000000 0.000000 0.000000 0.020237
#
#
# Mechanical properties :
#
#
# Convention : Reuss Voigt Hill
#
# Bulk Modulus (GPa) = 38.90695 50.01988 44.46342
# Shear Modulus (GPa) = 39.88745 42.59550 41.24148
#
# Velocity S-wave (km/s) = 4.38224 4.52856 4.45600
# Velocity P-wave (km/s) = 6.65863 7.17120 6.91966
#
# Compressibility (1/GPa) = 0.02570235
#
# Stress axis : x y z
#
# Youngs Moduli (GPa) = 130.48752 89.22492 63.90872
#
# Poissons Ratio (x) = 0.32346 0.08382
# Poissons Ratio (y) = 0.47304 -0.03379
# Poissons Ratio (z) = 0.17115 -0.04717
#
# Static dielectric constant tensor:
#      x y z
#    x 3.936630 0.000000 0.000000 
#    y 0.000000 3.856710 0.000000 
#    z 0.000000 0.000000 3.830700 
# 
# 
# High freq. dielectric constant tensor:
#      x y z
#    x 1.828890 0.000000 0.000000 
#    y 0.000000 1.828340 0.000000 
#    z 0.000000 0.000000 1.820490 
# 
# From -- ./inp_files/20951.got.cif
#   From: 2010.03.12/outbox.cif.g09.slc.cpg/sg64_11_cif.got.tgz:20951.got - 2010.04.10 20:19:32.
