data_PCOD8264918
_publ_section_title
;
Structure prediction by ZEFSAII (Michael W. Deem and Ramdas Pophale) SiO2 
 PCOD8264918
Probable space group: C M C A
;
_chemical_formula_sum "Si O2"
_cell_formula_units_Z 96
_cell_length_a 14.086823
_cell_length_b 18.714309
_cell_length_c 17.482620
_cell_angle_alpha 90.000000
_cell_angle_beta 90.000000
_cell_angle_gamma 90.000000
_cell_volume 4608.858468
_symmetry_space_group_name_H-M "C M C A"
_symmetry_group_IT_number 64
_symmetry_cell_setting 'orthorhombic'
loop_
_space_group_symop_operation_xyz
x,y,z
-x,1/2-y,1/2+z
x,-y,-z
-x,1/2+y,1/2-z
-x,-y,-z
x,1/2+y,1/2-z
-x,y,z
x,1/2-y,1/2+z
1/2+x,1/2+y,z
1/2-x,-y,1/2+z
1/2+x,1/2-y,-z
1/2-x,y,1/2-z
1/2-x,1/2-y,-z
1/2+x,y,1/2-z
1/2-x,1/2+y,z
1/2+x,-y,1/2+z
loop_
_atom_site_type_symbol
_atom_site_label
_atom_site_fract_x
_atom_site_fract_y
_atom_site_fract_z
Si Si1 0.189317 0.311298 0.462968
Si Si2 0.311362 0.348261 0.320708
Si Si3 0.000000 0.222473 0.621664
Si Si4 0.500000 0.270846 0.550760
Si Si5 0.687453 0.488213 0.678942
Si Si6 0.000000 0.103518 0.326370
Si Si7 0.000000 0.382793 0.654361
Si Si8 0.338795 0.553877 0.064044
O O1 0.250000 0.250000 0.500000
O O2 0.243113 0.346796 0.392973
O O3 0.178633 0.369416 0.528217
O O4 0.089942 0.279636 0.434412
O O5 0.250000 0.316940 0.250000
O O6 0.406412 0.302053 0.332736
O O7 0.341219 0.429871 0.305068
O O8 0.000000 0.307841 0.609599
O O9 0.000000 0.193490 0.534317
O O10 0.500000 0.335246 0.610461
O O11 0.750000 0.458558 0.750000
O O12 0.592506 0.444475 0.665515
O O13 0.744739 0.480618 0.599805
O O14 0.000000 0.138816 0.242871
O O15 0.088261 0.433255 0.633044
O O16 0.380163 0.500000 0.000000
#
# Coordination Sequence:
#
# PCOD8264918 Si02
#       8
#    16  16   8   8  16   8   8  16
#     4  12  23  45  67  99 142 180 230 282 339 416
#     4  11  26  45  71 100 136 181 225 288 353 416
#     4  12  25  49  66  99 141 180 235 282 345 417
#     4  12  26  43  69 102 141 180 232 284 345 406
#     4  11  24  46  68 101 140 174 228 288 346 413
#     4  12  27  43  71 105 138 181 229 290 349 408
#     4  12  25  45  68 102 138 186 230 284 337 406
#     4  12  23  44  72 101 136 182 234 280 340 410
#
# _framework density 20.829453000000001
#
# number of rings (size 3 to 8) (size 9 to 14) (size 15 to 20)
#    0.000    0.333    6.667    1.750    2.333    0.000 
#    0.000    2.083    0.000    0.000    0.000    0.000 
#    0.000    0.000    0.000    0.000    0.000    0.000 
#
# Total GULP energy -595393.378159 kJ/mol
# GULP energy per Si atom -12404.028712 kJ/mol
# Density = 2.078204 g / cm^3
# Si number density = 20.829453 Si / 1000 Ang^3
#
#
#
# Elastic Constant Matrix: (Units=GPa)
#
#
# Indices 1 2 3 4 5 6 
#
# 1 135.2157 37.3198 35.3582 0.0000 0.0000 0.0000
# 2 37.3198 96.3245 26.1742 0.0000 0.0000 0.0000
# 3 35.3582 26.1742 115.0019 0.0000 0.0000 0.0000
# 4 0.0000 0.0000 0.0000 40.4714 0.0000 0.0000
# 5 0.0000 0.0000 0.0000 0.0000 12.6926 0.0000
# 6 0.0000 0.0000 0.0000 0.0000 0.0000 19.2484
#
#
#
# Elastic Compliance Matrix: (Units=1/GPa)
#
#
# Indices 1 2 3 4 5 6 
#
# 1 0.008706 -0.002820 -0.002035 0.000000 0.000000 0.000000
# 2 -0.002820 0.011979 -0.001859 0.000000 0.000000 0.000000
# 3 -0.002035 -0.001859 0.009744 0.000000 0.000000 0.000000
# 4 0.000000 0.000000 0.000000 0.024709 0.000000 0.000000
# 5 0.000000 0.000000 0.000000 0.000000 0.078786 0.000000
# 6 0.000000 0.000000 0.000000 0.000000 0.000000 0.051952
#
#
# Mechanical properties :
#
#
# Convention : Reuss Voigt Hill
#
# Bulk Modulus (GPa) = 58.82014 60.47185 59.64599
# Shear Modulus (GPa) = 24.39347 30.99515 27.69431
#
# Velocity S-wave (km/s) = 3.42585 3.86170 3.65029
# Velocity P-wave (km/s) = 6.62939 6.99847 6.81643
#
# Compressibility (1/GPa) = 0.01700098
#
# Stress axis : x y z
#
# Youngs Moduli (GPa) = 114.86251 83.47623 102.62350
#
# Poissons Ratio (x) = 0.23541 0.20883
# Poissons Ratio (y) = 0.32393 0.19082
# Poissons Ratio (z) = 0.23373 0.15522
#
# Static dielectric constant tensor:
#      x y z
#    x 3.902410 0.000000 0.000000 
#    y 0.000000 3.715770 0.000000 
#    z 0.000000 0.000000 3.319630 
# 
# 
# High freq. dielectric constant tensor:
#      x y z
#    x 1.827060 0.000000 0.000000 
#    y 0.000000 1.818180 0.000000 
#    z 0.000000 0.000000 1.826560 
# 
# From -- ./inp_files/24033.got.cif
#   From: 2010.03.12/outbox.cif.g09.slc.cpg/sg64_13_cif.got.tgz:24033.got - 2010.04.10 20:19:32.
