data_PCOD8264183
_publ_section_title
;
Structure prediction by ZEFSAII (Michael W. Deem and Ramdas Pophale) SiO2 
 PCOD8264183
Probable space group: C M C A
;
_chemical_formula_sum "Si O2"
_cell_formula_units_Z 96
_cell_length_a 17.012143
_cell_length_b 19.240813
_cell_length_c 15.465634
_cell_angle_alpha 90.000000
_cell_angle_beta 90.000000
_cell_angle_gamma 90.000000
_cell_volume 5062.326728
_symmetry_space_group_name_H-M "C M C A"
_symmetry_group_IT_number 64
_symmetry_cell_setting 'orthorhombic'
loop_
_space_group_symop_operation_xyz
x,y,z
-x,1/2-y,1/2+z
x,-y,-z
-x,1/2+y,1/2-z
-x,-y,-z
x,1/2+y,1/2-z
-x,y,z
x,1/2-y,1/2+z
1/2+x,1/2+y,z
1/2-x,-y,1/2+z
1/2+x,1/2-y,-z
1/2-x,y,1/2-z
1/2-x,1/2-y,-z
1/2+x,y,1/2-z
1/2-x,1/2+y,z
1/2+x,-y,1/2+z
loop_
_atom_site_type_symbol
_atom_site_label
_atom_site_fract_x
_atom_site_fract_y
_atom_site_fract_z
Si Si1 0.675982 0.622659 0.810873
Si Si2 0.909357 0.769636 0.293574
Si Si3 0.821539 0.068448 0.450133
Si Si4 0.189548 0.529415 0.328618
Si Si5 0.590982 0.622590 0.281550
Si Si6 0.215780 0.195365 0.565010
O O1 0.750000 0.611051 0.750000
O O2 0.604307 0.660178 0.761603
O O3 0.649879 0.546381 0.843465
O O4 0.705267 0.671411 0.887404
O O5 0.889692 0.704149 0.231488
O O6 0.850009 0.768757 0.374568
O O7 0.000000 0.767555 0.325366
O O8 0.874107 0.090958 0.369144
O O9 0.824416 0.130169 0.518773
O O10 0.854483 0.000000 0.500000
O O11 0.733268 0.053029 0.416286
O O12 0.250000 0.527723 0.250000
O O13 0.122009 0.583930 0.304370
O O14 0.500000 0.608608 0.287521
O O15 0.250000 0.250000 0.500000
#
# Coordination Sequence:
#
# PCOD8264183 Si02
#       6
#    16  16  16  16  16  16
#     4   9  18  34  55  79 107 144 193 233 275 340
#     4  10  22  39  57  81 115 154 197 240 280 342
#     4  11  21  36  59  90 118 143 184 248 298 332
#     4   9  18  35  57  80 112 150 190 232 277 344
#     4  10  22  38  57  81 116 157 193 229 283 349
#     4  11  21  35  60  88 113 150 189 238 296 348
#
# _framework density 18.963612000000001
#
# number of rings (size 3 to 8) (size 9 to 14) (size 15 to 20)
#    0.000    2.000    1.667    2.000    2.333    6.333 
#    0.000    0.833    0.000    1.500    0.000    0.000 
#    0.000    0.000    0.000    0.000    0.000    0.000 
#
# Total GULP energy -595019.436358 kJ/mol
# GULP energy per Si atom -12396.238257 kJ/mol
# Density = 1.892045 g / cm^3
# Si number density = 18.963612 Si / 1000 Ang^3
#
#
#
# Elastic Constant Matrix: (Units=GPa)
#
#
# Indices 1 2 3 4 5 6 
#
# 1 80.1373 51.8274 41.2760 0.0000 0.0000 0.0000
# 2 51.8274 115.4142 31.5258 0.0000 0.0000 0.0000
# 3 41.2760 31.5258 76.5296 0.0000 0.0000 0.0000
# 4 0.0000 0.0000 0.0000 30.2640 0.0000 0.0000
# 5 0.0000 0.0000 0.0000 0.0000 21.6609 0.0000
# 6 0.0000 0.0000 0.0000 0.0000 0.0000 10.2793
#
#
#
# Elastic Compliance Matrix: (Units=1/GPa)
#
#
# Indices 1 2 3 4 5 6 
#
# 1 0.021722 -0.007385 -0.008674 0.000000 0.000000 0.000000
# 2 -0.007385 0.012274 -0.001073 0.000000 0.000000 0.000000
# 3 -0.008674 -0.001073 0.018187 0.000000 0.000000 0.000000
# 4 0.000000 0.000000 0.000000 0.033043 0.000000 0.000000
# 5 0.000000 0.000000 0.000000 0.000000 0.046166 0.000000
# 6 0.000000 0.000000 0.000000 0.000000 0.000000 0.097283
#
#
# Mechanical properties :
#
#
# Convention : Reuss Voigt Hill
#
# Bulk Modulus (GPa) = 55.80487 57.92664 56.86575
# Shear Modulus (GPa) = 18.59345 22.27095 20.43220
#
# Velocity S-wave (km/s) = 3.13466 3.43068 3.28600
# Velocity P-wave (km/s) = 6.52631 6.80479 6.66701
#
# Compressibility (1/GPa) = 0.01791958
#
# Stress axis : x y z
#
# Youngs Moduli (GPa) = 46.03547 81.47344 54.98464
#
# Poissons Ratio (x) = 0.60171 0.47691
# Poissons Ratio (y) = 0.33999 0.05899
# Poissons Ratio (z) = 0.39929 0.08741
#
# Static dielectric constant tensor:
#      x y z
#    x 3.156200 0.000000 0.000000 
#    y 0.000000 3.794670 0.000000 
#    z 0.000000 0.000000 3.517330 
# 
# 
# High freq. dielectric constant tensor:
#      x y z
#    x 1.707900 0.000000 0.000000 
#    y 0.000000 1.759120 0.000000 
#    z 0.000000 0.000000 1.734550 
# 
# From -- ./inp_files/23959.got.cif
#   From: 2010.03.12/outbox.cif.g09.slc.cpg/sg64_12_cif.got.tgz:23959.got - 2010.04.10 20:19:32.
