data_PCOD8264279
_publ_section_title
;
Structure prediction by ZEFSAII (Michael W. Deem and Ramdas Pophale) SiO2 
 PCOD8264279
Probable space group: C M C A
;
_chemical_formula_sum "Si O2"
_cell_formula_units_Z 56
_cell_length_a 23.704761
_cell_length_b 23.626664
_cell_length_c 4.986952
_cell_angle_alpha 90.000000
_cell_angle_beta 90.000000
_cell_angle_gamma 90.000000
_cell_volume 2793.014396
_symmetry_space_group_name_H-M "C M C A"
_symmetry_group_IT_number 64
_symmetry_cell_setting 'orthorhombic'
loop_
_space_group_symop_operation_xyz
x,y,z
-x,1/2-y,1/2+z
x,-y,-z
-x,1/2+y,1/2-z
-x,-y,-z
x,1/2+y,1/2-z
-x,y,z
x,1/2-y,1/2+z
1/2+x,1/2+y,z
1/2-x,-y,1/2+z
1/2+x,1/2-y,-z
1/2-x,y,1/2-z
1/2-x,1/2-y,-z
1/2+x,y,1/2-z
1/2-x,1/2+y,z
1/2+x,-y,1/2+z
loop_
_atom_site_type_symbol
_atom_site_label
_atom_site_fract_x
_atom_site_fract_y
_atom_site_fract_z
Si Si1 0.628368 0.100587 0.957278
Si Si2 0.064614 0.434431 0.528588
Si Si3 0.316230 0.215642 0.771159
Si Si4 0.712199 0.000000 0.000000
O O1 0.575186 0.092705 0.760925
O O2 0.655023 0.160436 0.889575
O O3 0.605399 0.096429 0.259415
O O4 0.674789 0.052654 0.903918
O O5 0.080345 0.500000 0.500000
O O6 0.000000 0.425840 0.614930
O O7 0.334540 0.233413 0.472074
O O8 0.250000 0.204510 0.750000
O O9 0.750000 0.019751 0.250000
#
# Coordination Sequence:
#
# PCOD8264279 Si02
#       4
#    16  16  16   8
#     4  12  22  40  62  89 124 159 198 253 307 361
#     4  11  22  39  62  90 122 158 205 249 302 372
#     4  10  22  40  62  88 118 163 210 244 289 359
#     4  12  24  36  55  90 127 154 184 238 312 366
#
# _framework density 20.050022999999999
#
# number of rings (size 3 to 8) (size 9 to 14) (size 15 to 20)
#    0.000    0.857    2.857    5.143    0.000    5.714 
#    0.000    0.000    0.000   17.143    0.000    0.000 
#    0.000    0.000    0.000    0.000    0.000    0.000 
#
# Total GULP energy -347212.727571 kJ/mol
# GULP energy per Si atom -12400.454556 kJ/mol
# Density = 2.000439 g / cm^3
# Si number density = 20.050023 Si / 1000 Ang^3
#
#
#
# Elastic Constant Matrix: (Units=GPa)
#
#
# Indices 1 2 3 4 5 6 
#
# 1 74.7179 46.6167 37.9098 0.0000 0.0000 0.0000
# 2 46.6167 110.8039 18.2071 0.0000 0.0000 0.0000
# 3 37.9098 18.2071 102.9140 0.0000 0.0000 0.0000
# 4 0.0000 0.0000 0.0000 35.6231 0.0000 0.0000
# 5 0.0000 0.0000 0.0000 0.0000 10.4278 0.0000
# 6 0.0000 0.0000 0.0000 0.0000 0.0000 23.5366
#
#
#
# Elastic Compliance Matrix: (Units=1/GPa)
#
#
# Indices 1 2 3 4 5 6 
#
# 1 0.021764 -0.008074 -0.006589 0.000000 0.000000 0.000000
# 2 -0.008074 0.012290 0.000800 0.000000 0.000000 0.000000
# 3 -0.006589 0.000800 0.012002 0.000000 0.000000 0.000000
# 4 0.000000 0.000000 0.000000 0.028072 0.000000 0.000000
# 5 0.000000 0.000000 0.000000 0.000000 0.095898 0.000000
# 6 0.000000 0.000000 0.000000 0.000000 0.000000 0.042487
#
#
# Mechanical properties :
#
#
# Convention : Reuss Voigt Hill
#
# Bulk Modulus (GPa) = 54.55176 54.87810 54.71493
# Shear Modulus (GPa) = 20.29646 26.29763 23.29705
#
# Velocity S-wave (km/s) = 3.18510 3.62553 3.41243
# Velocity P-wave (km/s) = 6.38697 6.70492 6.54788
#
# Compressibility (1/GPa) = 0.01833122
#
# Stress axis : x y z
#
# Youngs Moduli (GPa) = 45.94798 81.36523 83.31681
#
# Poissons Ratio (x) = 0.65692 0.54894
# Poissons Ratio (y) = 0.37097 -0.06663
# Poissons Ratio (z) = 0.30273 -0.06507
#
# Static dielectric constant tensor:
#      x y z
#    x 3.508030 0.000000 0.000000 
#    y 0.000000 3.492420 0.000000 
#    z 0.000000 0.000000 4.043840 
# 
# 
# High freq. dielectric constant tensor:
#      x y z
#    x 1.773620 0.000000 0.000000 
#    y 0.000000 1.770760 0.000000 
#    z 0.000000 0.000000 1.805520 
# 
# From -- ./inp_files/2104.got.cif
#   From: 2010.03.12/outbox.cif.g09.slc.cpg/sg64_2_cif.got.tgz:2104.got - 2010.04.10 20:19:32.
