data_PCOD8264203
_publ_section_title
;
Structure prediction by ZEFSAII (Michael W. Deem and Ramdas Pophale) SiO2 
 PCOD8264203
Probable space group: C M C A
;
_chemical_formula_sum "Si O2"
_cell_formula_units_Z 112
_cell_length_a 13.619919
_cell_length_b 11.355903
_cell_length_c 33.105719
_cell_angle_alpha 90.000000
_cell_angle_beta 90.000000
_cell_angle_gamma 90.000000
_cell_volume 5120.344994
_symmetry_space_group_name_H-M "C M C A"
_symmetry_group_IT_number 64
_symmetry_cell_setting 'orthorhombic'
loop_
_space_group_symop_operation_xyz
x,y,z
-x,1/2-y,1/2+z
x,-y,-z
-x,1/2+y,1/2-z
-x,-y,-z
x,1/2+y,1/2-z
-x,y,z
x,1/2-y,1/2+z
1/2+x,1/2+y,z
1/2-x,-y,1/2+z
1/2+x,1/2-y,-z
1/2-x,y,1/2-z
1/2-x,1/2-y,-z
1/2+x,y,1/2-z
1/2-x,1/2+y,z
1/2+x,-y,1/2+z
loop_
_atom_site_type_symbol
_atom_site_label
_atom_site_fract_x
_atom_site_fract_y
_atom_site_fract_z
Si Si1 0.758143 0.978952 0.884072
Si Si2 0.690626 0.345502 0.807104
Si Si3 0.109453 0.608986 0.834562
Si Si4 0.886825 0.577842 0.058367
Si Si5 0.115409 0.437897 0.541828
Si Si6 0.885455 0.674846 0.975410
Si Si7 0.110144 0.393222 0.775919
O O1 0.694898 0.090605 0.867926
O O2 0.818128 0.922018 0.847655
O O3 0.675651 0.887546 0.901950
O O4 0.832616 0.007038 0.921046
O O5 0.625658 0.231486 0.812878
O O6 0.804794 0.312424 0.796545
O O7 0.639036 0.416710 0.770671
O O8 0.116010 0.516528 0.798534
O O9 0.000000 0.605809 0.854655
O O10 0.864492 0.437006 0.053053
O O11 0.000000 0.605038 0.066342
O O12 0.842354 0.648968 0.020284
O O13 0.146815 0.500000 0.500000
O O14 0.150456 0.300550 0.541897
O O15 0.000000 0.449513 0.548763
O O16 0.000000 0.682767 0.983413
O O17 0.000000 0.338347 0.779933
#
# Coordination Sequence:
#
# PCOD8264203 Si02
#       7
#    16  16  16  16  16  16  16
#     4  11  24  36  56  91 126 160 206 263 310 371
#     4  10  22  38  61  96 127 159 206 250 310 376
#     4  10  22  42  67  94 127 166 202 251 316 379
#     4   9  18  35  59  88 115 148 204 271 324 376
#     4  10  23  41  57  79 120 172 219 266 321 382
#     4   8  17  35  59  82 107 150 212 269 317 375
#     4   9  20  41  66  91 123 159 202 255 304 367
#
# _framework density 21.873525999999998
#
# number of rings (size 3 to 8) (size 9 to 14) (size 15 to 20)
#    0.000    2.429    0.000    1.714    4.000    8.000 
#    0.000    0.714    0.000    0.857    0.000    0.000 
#    0.000    0.000    0.000    0.000    0.000    0.000 
#
# Total GULP energy -693765.239431 kJ/mol
# GULP energy per Si atom -12388.664990 kJ/mol
# Density = 2.182374 g / cm^3
# Si number density = 21.873526 Si / 1000 Ang^3
#
#
#
# Elastic Constant Matrix: (Units=GPa)
#
#
# Indices 1 2 3 4 5 6 
#
# 1 110.6450 25.9170 40.8512 0.0000 0.0000 0.0000
# 2 25.9170 55.4457 17.1773 0.0000 0.0000 0.0000
# 3 40.8512 17.1773 126.1619 0.0000 0.0000 0.0000
# 4 0.0000 0.0000 0.0000 14.5554 0.0000 0.0000
# 5 0.0000 0.0000 0.0000 0.0000 38.4544 0.0000
# 6 0.0000 0.0000 0.0000 0.0000 0.0000 13.6043
#
#
#
# Elastic Compliance Matrix: (Units=1/GPa)
#
#
# Indices 1 2 3 4 5 6 
#
# 1 0.011159 -0.004277 -0.003031 0.000000 0.000000 0.000000
# 2 -0.004277 0.020469 -0.001402 0.000000 0.000000 0.000000
# 3 -0.003031 -0.001402 0.009099 0.000000 0.000000 0.000000
# 4 0.000000 0.000000 0.000000 0.068703 0.000000 0.000000
# 5 0.000000 0.000000 0.000000 0.000000 0.026005 0.000000
# 6 0.000000 0.000000 0.000000 0.000000 0.000000 0.073506
#
#
# Mechanical properties :
#
#
# Convention : Reuss Voigt Hill
#
# Bulk Modulus (GPa) = 42.90598 51.12705 47.01652
# Shear Modulus (GPa) = 21.35576 27.20998 24.28287
#
# Velocity S-wave (km/s) = 3.12802 3.53082 3.33550
# Velocity P-wave (km/s) = 5.71875 6.32827 6.03121
#
# Compressibility (1/GPa) = 0.02330677
#
# Stress axis : x y z
#
# Youngs Moduli (GPa) = 89.61567 48.85392 109.90683
#
# Poissons Ratio (x) = 0.20895 0.33312
# Poissons Ratio (y) = 0.38328 0.15410
# Poissons Ratio (z) = 0.27161 0.06850
#
# Static dielectric constant tensor:
#      x y z
#    x 4.336500 0.000000 0.000000 
#    y 0.000000 3.912090 0.000000 
#    z 0.000000 0.000000 4.067660 
# 
# 
# High freq. dielectric constant tensor:
#      x y z
#    x 1.876770 0.000000 0.000000 
#    y 0.000000 1.814140 0.000000 
#    z 0.000000 0.000000 1.869100 
# 
# From -- ./inp_files/53232.got.cif
#   From: 2010.03.12/outbox.cif.g09.slc.cpg/sg64_27_cif.got.tgz:53232.got - 2010.04.10 20:19:32.
