data_PCOD8264755
_publ_section_title
;
Structure prediction by ZEFSAII (Michael W. Deem and Ramdas Pophale) SiO2 
 PCOD8264755
Probable space group: C M C A
;
_chemical_formula_sum "Si O2"
_cell_formula_units_Z 64
_cell_length_a 9.010823
_cell_length_b 19.280525
_cell_length_c 22.860484
_cell_angle_alpha 90.000000
_cell_angle_beta 90.000000
_cell_angle_gamma 90.000000
_cell_volume 3971.629568
_symmetry_space_group_name_H-M "C M C A"
_symmetry_group_IT_number 64
_symmetry_cell_setting 'orthorhombic'
loop_
_space_group_symop_operation_xyz
x,y,z
-x,1/2-y,1/2+z
x,-y,-z
-x,1/2+y,1/2-z
-x,-y,-z
x,1/2+y,1/2-z
-x,y,z
x,1/2-y,1/2+z
1/2+x,1/2+y,z
1/2-x,-y,1/2+z
1/2+x,1/2-y,-z
1/2-x,y,1/2-z
1/2-x,1/2-y,-z
1/2+x,y,1/2-z
1/2-x,1/2+y,z
1/2+x,-y,1/2+z
loop_
_atom_site_type_symbol
_atom_site_label
_atom_site_fract_x
_atom_site_fract_y
_atom_site_fract_z
Si Si1 0.167449 0.494598 0.809105
Si Si2 0.168254 0.935398 0.424115
Si Si3 0.327924 0.067106 0.407499
Si Si4 0.672535 0.823349 0.496613
O O1 0.250000 0.515104 0.750000
O O2 0.169387 0.561501 0.852664
O O3 0.249031 0.430895 0.656958
O O4 0.000000 0.471191 0.794890
O O5 0.254885 0.867349 0.444444
O O6 0.000000 0.933898 0.448265
O O7 0.250892 0.005828 0.446102
O O8 0.500000 0.049233 0.400097
O O9 0.302889 0.139126 0.441048
O O10 0.500000 0.813840 0.482424
O O11 0.750000 0.750000 0.500000
#
# Coordination Sequence:
#
# PCOD8264755 Si02
#       4
#    16  16  16  16
#     4   9  18  30  50  76  99 127 161 205 247 285
#     4   9  19  32  50  74 100 129 163 204 246 290
#     4   9  18  32  50  73 100 129 164 203 245 290
#     4  11  22  33  49  72 102 136 165 201 246 295
#
# _framework density 16.114293
#
# number of rings (size 3 to 8) (size 9 to 14) (size 15 to 20)
#    1.500    1.000    0.000    3.000    0.000    7.000 
#    0.000    0.000    0.000    1.500    0.000    7.000 
#    0.000    0.000    0.000    0.000    0.000    0.000 
#
# Total GULP energy -396451.398097 kJ/mol
# GULP energy per Si atom -12389.106191 kJ/mol
# Density = 1.607762 g / cm^3
# Si number density = 16.114293 Si / 1000 Ang^3
#
#
#
# Elastic Constant Matrix: (Units=GPa)
#
#
# Indices 1 2 3 4 5 6 
#
# 1 160.0270 60.6982 46.4387 0.0000 0.0000 0.0000
# 2 60.6982 102.1999 22.1397 0.0000 0.0000 0.0000
# 3 46.4387 22.1397 59.6211 0.0000 0.0000 0.0000
# 4 0.0000 0.0000 0.0000 4.1457 0.0000 0.0000
# 5 0.0000 0.0000 0.0000 0.0000 30.6641 0.0000
# 6 0.0000 0.0000 0.0000 0.0000 0.0000 28.7198
#
#
#
# Elastic Compliance Matrix: (Units=1/GPa)
#
#
# Indices 1 2 3 4 5 6 
#
# 1 0.009637 -0.004456 -0.005852 0.000000 0.000000 0.000000
# 2 -0.004456 0.012701 -0.001246 0.000000 0.000000 0.000000
# 3 -0.005852 -0.001246 0.021793 0.000000 0.000000 0.000000
# 4 0.000000 0.000000 0.000000 0.241213 0.000000 0.000000
# 5 0.000000 0.000000 0.000000 0.000000 0.032611 0.000000
# 6 0.000000 0.000000 0.000000 0.000000 0.000000 0.034819
#
#
# Mechanical properties :
#
#
# Convention : Reuss Voigt Hill
#
# Bulk Modulus (GPa) = 47.56334 64.48901 56.02618
# Shear Modulus (GPa) = 13.05858 25.54403 19.30130
#
# Velocity S-wave (km/s) = 2.84979 3.98575 3.46464
# Velocity P-wave (km/s) = 6.35679 7.82868 7.13081
#
# Compressibility (1/GPa) = 0.02102460
#
# Stress axis : x y z
#
# Youngs Moduli (GPa) = 103.76401 78.73320 45.88629
#
# Poissons Ratio (x) = 0.35084 0.26851
# Poissons Ratio (y) = 0.46238 0.05716
# Poissons Ratio (z) = 0.60720 0.09807
#
# Static dielectric constant tensor:
#      x y z
#    x 3.696760 0.000000 0.000000 
#    y 0.000000 2.688820 0.000000 
#    z 0.000000 0.000000 2.907650 
# 
# 
# High freq. dielectric constant tensor:
#      x y z
#    x 1.646220 0.000000 0.000000 
#    y 0.000000 1.577350 0.000000 
#    z 0.000000 0.000000 1.609710 
# 
# From -- ./inp_files/37806.got.cif
#   From: 2010.03.12/outbox.cif.g09.slc.cpg/sg64_19_cif.got.tgz:37806.got - 2010.04.10 20:19:32.
