data_PCOD8264374
_publ_section_title
;
Structure prediction by ZEFSAII (Michael W. Deem and Ramdas Pophale) SiO2 
 PCOD8264374
Probable space group: C M C A
;
_chemical_formula_sum "Si O2"
_cell_formula_units_Z 64
_cell_length_a 9.944808
_cell_length_b 23.125238
_cell_length_c 12.709445
_cell_angle_alpha 90.000000
_cell_angle_beta 90.000000
_cell_angle_gamma 90.000000
_cell_volume 2922.867982
_symmetry_space_group_name_H-M "C M C A"
_symmetry_group_IT_number 64
_symmetry_cell_setting 'orthorhombic'
loop_
_space_group_symop_operation_xyz
x,y,z
-x,1/2-y,1/2+z
x,-y,-z
-x,1/2+y,1/2-z
-x,-y,-z
x,1/2+y,1/2-z
-x,y,z
x,1/2-y,1/2+z
1/2+x,1/2+y,z
1/2-x,-y,1/2+z
1/2+x,1/2-y,-z
1/2-x,y,1/2-z
1/2-x,1/2-y,-z
1/2+x,y,1/2-z
1/2-x,1/2+y,z
1/2+x,-y,1/2+z
loop_
_atom_site_type_symbol
_atom_site_label
_atom_site_fract_x
_atom_site_fract_y
_atom_site_fract_z
Si Si1 0.500000 0.756983 0.869693
Si Si2 0.750000 0.003569 0.250000
Si Si3 0.000000 0.072727 0.706977
Si Si4 0.250000 0.698564 0.250000
Si Si5 0.500000 0.373099 0.511872
Si Si6 0.000000 0.371376 0.431466
Si Si7 0.282477 0.399712 0.906747
O O1 0.633010 0.761184 0.797355
O O2 0.500000 0.697760 0.933932
O O3 0.500000 0.805351 0.960627
O O4 0.681264 0.043376 0.339780
O O5 0.866240 0.965397 0.302032
O O6 0.000000 0.119409 0.613257
O O7 0.000000 0.109220 0.812357
O O8 0.315326 0.657614 0.160851
O O9 0.373526 0.404192 0.564545
O O10 0.869063 0.397385 0.487598
#
# Coordination Sequence:
#
# PCOD8264374 Si02
#       7
#     8   8   8   8   8   8  16
#     4  10  23  41  66  93 128 166 199 257 312 357
#     4  11  24  43  66  90 122 163 206 265 316 356
#     4  12  26  39  60  95 128 161 206 256 312 368
#     4   9  20  41  68  94 120 163 214 253 300 368
#     4  10  23  42  63  92 126 166 211 250 302 374
#     4  12  26  40  61  96 130 162 204 254 310 374
#     4  10  22  42  66  91 121 164 215 252 302 376
#
# _framework density 21.896301000000001
#
# number of rings (size 3 to 8) (size 9 to 14) (size 15 to 20)
#    0.000    1.500    0.000    3.750    0.000   19.000 
#    0.000    0.000    0.000    0.000    0.000    0.000 
#    0.000    0.000    0.000    0.000    0.000    0.000 
#
# Total GULP energy -397001.960654 kJ/mol
# GULP energy per Si atom -12406.311270 kJ/mol
# Density = 2.184646 g / cm^3
# Si number density = 21.896301 Si / 1000 Ang^3
#
#
#
# Elastic Constant Matrix: (Units=GPa)
#
#
# Indices 1 2 3 4 5 6 
#
# 1 132.7349 45.1185 40.3310 0.0000 0.0000 0.0000
# 2 45.1185 99.3618 52.1847 0.0000 0.0000 0.0000
# 3 40.3310 52.1847 144.9664 0.0000 0.0000 0.0000
# 4 0.0000 0.0000 0.0000 36.8289 0.0000 0.0000
# 5 0.0000 0.0000 0.0000 0.0000 37.8180 0.0000
# 6 0.0000 0.0000 0.0000 0.0000 0.0000 -12.0832
#
#
#
# Elastic Compliance Matrix: (Units=1/GPa)
#
#
# Indices 1 2 3 4 5 6 
#
# 1 0.009100 -0.003456 -0.001288 0.000000 0.000000 0.000000
# 2 -0.003456 0.013723 -0.003979 0.000000 0.000000 0.000000
# 3 -0.001288 -0.003979 0.008689 0.000000 0.000000 0.000000
# 4 0.000000 0.000000 0.000000 0.027153 0.000000 0.000000
# 5 0.000000 0.000000 0.000000 0.000000 0.026442 0.000000
# 6 0.000000 0.000000 0.000000 0.000000 0.000000 -0.082759
#
#
# Mechanical properties :
#
#
# Convention : Reuss Voigt Hill
#
# Bulk Modulus (GPa) = 71.08640 72.48125 71.78383
# Shear Modulus (GPa) = 204.24820 28.47466 116.36143
#
# Velocity S-wave (km/s) = 9.66862 3.61006 7.29777
# Velocity P-wave (km/s) = 12.53709 7.10990 10.19140
#
# Compressibility (1/GPa) = 0.01406739
#
# Stress axis : x y z
#
# Youngs Moduli (GPa) = 109.89351 72.87058 115.09385
#
# Poissons Ratio (x) = 0.25182 0.14820
# Poissons Ratio (y) = 0.37977 0.45790
# Poissons Ratio (z) = 0.14150 0.28992
#
# Static dielectric constant tensor:
#      x y z
#    x 3.949630 0.000000 0.000000 
#    y 0.000000 3.795350 0.000000 
#    z 0.000000 0.000000 3.954760 
# 
# 
# High freq. dielectric constant tensor:
#      x y z
#    x 1.868790 0.000000 0.000000 
#    y 0.000000 1.853250 0.000000 
#    z 0.000000 0.000000 1.869000 
# 
# From -- ./inp_files/12991.got.cif
#   From: 2010.03.12/outbox.cif.g09.slc.cpg/sg64_7_cif.got.tgz:12991.got - 2010.04.10 20:19:32.
