data_PCOD8264350
_publ_section_title
;
Structure prediction by ZEFSAII (Michael W. Deem and Ramdas Pophale) SiO2 
 PCOD8264350
Probable space group: C M C A
;
_chemical_formula_sum "Si O2"
_cell_formula_units_Z 72
_cell_length_a 9.235302
_cell_length_b 23.294867
_cell_length_c 15.325394
_cell_angle_alpha 90.000000
_cell_angle_beta 90.000000
_cell_angle_gamma 90.000000
_cell_volume 3297.030658
_symmetry_space_group_name_H-M "C M C A"
_symmetry_group_IT_number 64
_symmetry_cell_setting 'orthorhombic'
loop_
_space_group_symop_operation_xyz
x,y,z
-x,1/2-y,1/2+z
x,-y,-z
-x,1/2+y,1/2-z
-x,-y,-z
x,1/2+y,1/2-z
-x,y,z
x,1/2-y,1/2+z
1/2+x,1/2+y,z
1/2-x,-y,1/2+z
1/2+x,1/2-y,-z
1/2-x,y,1/2-z
1/2-x,1/2-y,-z
1/2+x,y,1/2-z
1/2-x,1/2+y,z
1/2+x,-y,1/2+z
loop_
_atom_site_type_symbol
_atom_site_label
_atom_site_fract_x
_atom_site_fract_y
_atom_site_fract_z
Si Si1 0.328072 0.866807 0.936961
Si Si2 0.250000 0.055292 0.750000
Si Si3 0.841632 0.648350 0.873066
Si Si4 0.326129 0.272872 0.835280
Si Si5 0.835720 0.974871 0.906290
O O1 0.500000 0.861021 0.920808
O O2 0.241552 0.809159 0.913884
O O3 0.269092 0.921635 0.883159
O O4 0.279238 0.877955 0.037453
O O5 0.143413 0.099193 0.700251
O O6 0.171187 0.018636 0.824647
O O7 0.764857 0.707368 0.843383
O O8 0.000000 0.670574 0.897743
O O9 0.500000 0.279257 0.830132
O O10 0.250000 0.299362 0.750000
O O11 0.000000 0.952997 0.913958
O O12 0.785701 0.000000 0.000000
#
# Coordination Sequence:
#
# PCOD8264350 Si02
#       5
#    16   8  16  16  16
#     4  11  24  44  67  94 132 176 221 272 332 395
#     4  12  22  44  68  96 130 176 224 280 332 396
#     4  10  22  41  67  97 127 169 221 274 331 396
#     4  11  23  42  67  99 134 169 216 270 332 399
#     4  11  25  44  68 100 135 175 224 280 337 397
#
# _framework density 21.837831000000001
#
# number of rings (size 3 to 8) (size 9 to 14) (size 15 to 20)
#    0.000    1.111    3.333    2.667    1.556    2.222 
#    0.000    3.333    0.000    0.000    0.000    0.000 
#    0.000    0.000    0.000    0.000    0.000    0.000 
#
# Total GULP energy -446051.049047 kJ/mol
# GULP energy per Si atom -12390.306918 kJ/mol
# Density = 2.178813 g / cm^3
# Si number density = 21.837831 Si / 1000 Ang^3
#
#
#
# Elastic Constant Matrix: (Units=GPa)
#
#
# Indices 1 2 3 4 5 6 
#
# 1 111.3064 49.8754 31.1063 0.0000 0.0000 0.0000
# 2 49.8754 144.7777 59.1071 0.0000 0.0000 0.0000
# 3 31.1063 59.1071 131.4703 0.0000 0.0000 0.0000
# 4 0.0000 0.0000 0.0000 40.9901 0.0000 0.0000
# 5 0.0000 0.0000 0.0000 0.0000 26.6214 0.0000
# 6 0.0000 0.0000 0.0000 0.0000 0.0000 26.8578
#
#
#
# Elastic Compliance Matrix: (Units=1/GPa)
#
#
# Indices 1 2 3 4 5 6 
#
# 1 0.010747 -0.003263 -0.001076 0.000000 0.000000 0.000000
# 2 -0.003263 0.009451 -0.003477 0.000000 0.000000 0.000000
# 3 -0.001076 -0.003477 0.009424 0.000000 0.000000 0.000000
# 4 0.000000 0.000000 0.000000 0.024396 0.000000 0.000000
# 5 0.000000 0.000000 0.000000 0.000000 0.037564 0.000000
# 6 0.000000 0.000000 0.000000 0.000000 0.000000 0.037233
#
#
# Mechanical properties :
#
#
# Convention : Reuss Voigt Hill
#
# Bulk Modulus (GPa) = 71.47814 74.19245 72.83530
# Shear Modulus (GPa) = 33.53240 35.39157 34.46199
#
# Velocity S-wave (km/s) = 3.92282 4.03010 3.97682
# Velocity P-wave (km/s) = 7.30208 7.46349 7.38323
#
# Compressibility (1/GPa) = 0.01399029
#
# Stress axis : x y z
#
# Youngs Moduli (GPa) = 93.04906 105.81181 106.11274
#
# Poissons Ratio (x) = 0.34528 0.11415
# Poissons Ratio (y) = 0.30363 0.36894
# Poissons Ratio (z) = 0.10010 0.36789
#
# Static dielectric constant tensor:
#      x y z
#    x 3.599120 0.000000 0.000000 
#    y 0.000000 3.899330 0.000000 
#    z 0.000000 0.000000 4.057430 
# 
# 
# High freq. dielectric constant tensor:
#      x y z
#    x 1.840620 0.000000 0.000000 
#    y 0.000000 1.867270 0.000000 
#    z 0.000000 0.000000 1.868890 
# 
# From -- ./inp_files/21166.got.cif
#   From: 2010.03.12/outbox.cif.g09.slc.cpg/sg64_11_cif.got.tgz:21166.got - 2010.04.10 20:19:32.
