data_PCOD8264234
_publ_section_title
;
Structure prediction by ZEFSAII (Michael W. Deem and Ramdas Pophale) SiO2 
 PCOD8264234
Probable space group: C M C A
;
_chemical_formula_sum "Si O2"
_cell_formula_units_Z 88
_cell_length_a 13.610938
_cell_length_b 23.704286
_cell_length_c 13.511693
_cell_angle_alpha 90.000000
_cell_angle_beta 90.000000
_cell_angle_gamma 90.000000
_cell_volume 4359.379757
_symmetry_space_group_name_H-M "C M C A"
_symmetry_group_IT_number 64
_symmetry_cell_setting 'orthorhombic'
loop_
_space_group_symop_operation_xyz
x,y,z
-x,1/2-y,1/2+z
x,-y,-z
-x,1/2+y,1/2-z
-x,-y,-z
x,1/2+y,1/2-z
-x,y,z
x,1/2-y,1/2+z
1/2+x,1/2+y,z
1/2-x,-y,1/2+z
1/2+x,1/2-y,-z
1/2-x,y,1/2-z
1/2-x,1/2-y,-z
1/2+x,y,1/2-z
1/2-x,1/2+y,z
1/2+x,-y,1/2+z
loop_
_atom_site_type_symbol
_atom_site_label
_atom_site_fract_x
_atom_site_fract_y
_atom_site_fract_z
Si Si1 0.109282 0.777684 0.271378
Si Si2 0.891795 0.130595 0.898477
Si Si3 0.388539 0.495763 0.116179
Si Si4 0.286409 0.309727 0.468494
Si Si5 0.886060 0.664285 0.162926
Si Si6 0.250000 0.929199 0.750000
O O1 0.108745 0.823338 0.186156
O O2 0.175520 0.803964 0.356967
O O3 0.150184 0.718770 0.226364
O O4 0.000000 0.767658 0.313306
O O5 0.873732 0.069203 0.851397
O O6 0.000000 0.131257 0.951661
O O7 0.805013 0.146225 0.975214
O O8 0.500000 0.515921 0.140732
O O9 0.308771 0.532669 0.172641
O O10 0.367760 0.500000 0.000000
O O11 0.250000 0.250000 0.500000
O O12 0.370079 0.328133 0.545297
O O13 0.828128 0.609013 0.193927
O O14 0.000000 0.653797 0.181627
#
# Coordination Sequence:
#
# PCOD8264234 Si02
#       6
#    16  16  16  16  16   8
#     4  10  22  39  60  90 128 164 201 253 315 377
#     4  10  22  40  63  92 126 163 210 260 308 372
#     4  10  23  44  68  94 124 165 218 266 310 367
#     4  12  22  35  64  92 128 164 204 247 315 381
#     4  11  24  42  61  93 131 163 206 259 317 376
#     4  12  24  42  68  94 124 170 212 264 316 370
#
# _framework density 20.186357999999998
#
# number of rings (size 3 to 8) (size 9 to 14) (size 15 to 20)
#    0.000    1.273    1.818    3.818    2.545    0.727 
#    0.000    4.545    0.000    2.182    0.000    0.000 
#    0.000    0.000    0.000    0.000    0.000    0.000 
#
# Total GULP energy -545507.949550 kJ/mol
# GULP energy per Si atom -12397.907944 kJ/mol
# Density = 2.014041 g / cm^3
# Si number density = 20.186358 Si / 1000 Ang^3
#
#
#
# Elastic Constant Matrix: (Units=GPa)
#
#
# Indices 1 2 3 4 5 6 
#
# 1 136.9804 65.2063 48.4725 0.0000 0.0000 0.0000
# 2 65.2063 133.7751 33.2226 0.0000 0.0000 0.0000
# 3 48.4725 33.2226 68.4663 0.0000 0.0000 0.0000
# 4 0.0000 0.0000 0.0000 25.9261 0.0000 0.0000
# 5 0.0000 0.0000 0.0000 0.0000 33.2767 0.0000
# 6 0.0000 0.0000 0.0000 0.0000 0.0000 41.2863
#
#
#
# Elastic Compliance Matrix: (Units=1/GPa)
#
#
# Indices 1 2 3 4 5 6 
#
# 1 0.011377 -0.004031 -0.006099 0.000000 0.000000 0.000000
# 2 -0.004031 0.009928 -0.001963 0.000000 0.000000 0.000000
# 3 -0.006099 -0.001963 0.019876 0.000000 0.000000 0.000000
# 4 0.000000 0.000000 0.000000 0.038571 0.000000 0.000000
# 5 0.000000 0.000000 0.000000 0.000000 0.030051 0.000000
# 6 0.000000 0.000000 0.000000 0.000000 0.000000 0.024221
#
#
# Mechanical properties :
#
#
# Convention : Reuss Voigt Hill
#
# Bulk Modulus (GPa) = 58.84198 70.33605 64.58901
# Shear Modulus (GPa) = 30.51079 32.91917 31.71498
#
# Velocity S-wave (km/s) = 3.89196 4.04265 3.96802
# Velocity P-wave (km/s) = 7.02916 7.53058 7.28419
#
# Compressibility (1/GPa) = 0.01699467
#
# Stress axis : x y z
#
# Youngs Moduli (GPa) = 87.89367 100.72816 50.31116
#
# Poissons Ratio (x) = 0.40604 0.30684
# Poissons Ratio (y) = 0.35431 0.09878
# Poissons Ratio (z) = 0.53605 0.19777
#
# Static dielectric constant tensor:
#      x y z
#    x 3.976750 0.000000 0.000000 
#    y 0.000000 4.052470 0.000000 
#    z 0.000000 0.000000 -0.718370 
# 
# 
# High freq. dielectric constant tensor:
#      x y z
#    x 1.807790 0.000000 0.000000 
#    y 0.000000 1.794250 0.000000 
#    z 0.000000 0.000000 1.775540 
# 
# From -- ./inp_files/14620.got.cif
#   From: 2010.03.12/outbox.cif.g09.slc.cpg/sg64_8_cif.got.tgz:14620.got - 2010.04.10 20:19:32.
