data_PCOD8264120
_publ_section_title
;
Structure prediction by ZEFSAII (Michael W. Deem and Ramdas Pophale) SiO2 
 PCOD8264120
Probable space group: C M C A
;
_chemical_formula_sum "Si O2"
_cell_formula_units_Z 64
_cell_length_a 17.154740
_cell_length_b 15.256991
_cell_length_c 11.035573
_cell_angle_alpha 90.000000
_cell_angle_beta 90.000000
_cell_angle_gamma 90.000000
_cell_volume 2888.337363
_symmetry_space_group_name_H-M "C M C A"
_symmetry_group_IT_number 64
_symmetry_cell_setting 'orthorhombic'
loop_
_space_group_symop_operation_xyz
x,y,z
-x,1/2-y,1/2+z
x,-y,-z
-x,1/2+y,1/2-z
-x,-y,-z
x,1/2+y,1/2-z
-x,y,z
x,1/2-y,1/2+z
1/2+x,1/2+y,z
1/2-x,-y,1/2+z
1/2+x,1/2-y,-z
1/2-x,y,1/2-z
1/2-x,1/2-y,-z
1/2+x,y,1/2-z
1/2-x,1/2+y,z
1/2+x,-y,1/2+z
loop_
_atom_site_type_symbol
_atom_site_label
_atom_site_fract_x
_atom_site_fract_y
_atom_site_fract_z
Si Si1 0.090399 0.649905 0.253732
Si Si2 0.838040 0.334079 0.234972
Si Si3 0.812199 0.999601 0.860644
Si Si4 0.414188 0.898792 0.007131
O O1 0.103783 0.752695 0.271773
O O2 0.134395 0.586756 0.348688
O O3 0.000000 0.627214 0.266911
O O4 0.121809 0.632562 0.119296
O O5 0.750000 0.299247 0.250000
O O6 0.858672 0.407838 0.337750
O O7 0.848094 0.379319 0.104950
O O8 0.750000 0.999330 0.750000
O O9 0.779434 0.000000 0.000000
O O10 0.500000 0.855075 0.033312
O O11 0.429045 0.000000 0.000000
#
# Coordination Sequence:
#
# PCOD8264120 Si02
#       4
#    16  16  16  16
#     4  11  25  44  69 100 139 184 231 285 346 415
#     4  11  25  41  67 100 138 180 229 285 344 409
#     4  11  27  47  72 102 141 183 231 292 352 413
#     4  10  21  42  68  94 133 183 232 280 343 416
#
# _framework density 22.158076999999999
#
# number of rings (size 3 to 8) (size 9 to 14) (size 15 to 20)
#    0.000    1.250    2.500    1.500   10.500    2.500 
#    0.000    0.000    0.000    0.000    0.000    0.000 
#    0.000    0.000    0.000    0.000    0.000    0.000 
#
# Total GULP energy -396513.611690 kJ/mol
# GULP energy per Si atom -12391.050365 kJ/mol
# Density = 2.210764 g / cm^3
# Si number density = 22.158077 Si / 1000 Ang^3
#
#
#
# Elastic Constant Matrix: (Units=GPa)
#
#
# Indices 1 2 3 4 5 6 
#
# 1 67.0535 11.9430 49.6095 0.0000 0.0000 0.0000
# 2 11.9430 130.8448 37.9043 0.0000 0.0000 0.0000
# 3 49.6095 37.9043 165.9821 0.0000 0.0000 0.0000
# 4 0.0000 0.0000 0.0000 26.1556 0.0000 0.0000
# 5 0.0000 0.0000 0.0000 0.0000 35.6234 0.0000
# 6 0.0000 0.0000 0.0000 0.0000 0.0000 22.3150
#
#
#
# Elastic Compliance Matrix: (Units=1/GPa)
#
#
# Indices 1 2 3 4 5 6 
#
# 1 0.019149 -0.000096 -0.005701 0.000000 0.000000 0.000000
# 2 -0.000096 0.008185 -0.001840 0.000000 0.000000 0.000000
# 3 -0.005701 -0.001840 0.008149 0.000000 0.000000 0.000000
# 4 0.000000 0.000000 0.000000 0.038233 0.000000 0.000000
# 5 0.000000 0.000000 0.000000 0.000000 0.028071 0.000000
# 6 0.000000 0.000000 0.000000 0.000000 0.000000 0.044813
#
#
# Mechanical properties :
#
#
# Convention : Reuss Voigt Hill
#
# Bulk Modulus (GPa) = 49.48861 62.53268 56.01065
# Shear Modulus (GPa) = 29.65416 34.44705 32.05061
#
# Velocity S-wave (km/s) = 3.66225 3.94713 3.80735
# Velocity P-wave (km/s) = 6.34552 7.00396 6.68285
#
# Compressibility (1/GPa) = 0.02020667
#
# Stress axis : x y z
#
# Youngs Moduli (GPa) = 52.22287 122.18167 122.71408
#
# Poissons Ratio (x) = 0.01176 0.69963
# Poissons Ratio (y) = 0.00503 0.22583
# Poissons Ratio (z) = 0.29774 0.22485
#
# Static dielectric constant tensor:
#      x y z
#    x 3.790760 0.000000 0.000000 
#    y 0.000000 5.578510 0.000000 
#    z 0.000000 0.000000 3.950990 
# 
# 
# High freq. dielectric constant tensor:
#      x y z
#    x 1.861600 0.000000 0.000000 
#    y 0.000000 1.883160 0.000000 
#    z 0.000000 0.000000 1.870080 
# 
# From -- ./inp_files/15469.got.cif
#   From: 2010.03.12/outbox.cif.g09.slc.cpg/sg64_8_cif.got.tgz:15469.got - 2010.04.10 20:19:32.
