data_PCOD8264675
_publ_section_title
;
Structure prediction by ZEFSAII (Michael W. Deem and Ramdas Pophale) SiO2 
 PCOD8264675
Probable space group: C M C A
;
_chemical_formula_sum "Si O2"
_cell_formula_units_Z 72
_cell_length_a 23.565136
_cell_length_b 29.492667
_cell_length_c 4.899207
_cell_angle_alpha 90.000000
_cell_angle_beta 90.000000
_cell_angle_gamma 90.000000
_cell_volume 3404.942539
_symmetry_space_group_name_H-M "C M C A"
_symmetry_group_IT_number 64
_symmetry_cell_setting 'orthorhombic'
loop_
_space_group_symop_operation_xyz
x,y,z
-x,1/2-y,1/2+z
x,-y,-z
-x,1/2+y,1/2-z
-x,-y,-z
x,1/2+y,1/2-z
-x,y,z
x,1/2-y,1/2+z
1/2+x,1/2+y,z
1/2-x,-y,1/2+z
1/2+x,1/2-y,-z
1/2-x,y,1/2-z
1/2-x,1/2-y,-z
1/2+x,y,1/2-z
1/2-x,1/2+y,z
1/2+x,-y,1/2+z
loop_
_atom_site_type_symbol
_atom_site_label
_atom_site_fract_x
_atom_site_fract_y
_atom_site_fract_z
Si Si1 0.090495 0.855323 0.885962
Si Si2 0.500000 0.219625 0.475193
Si Si3 0.663417 0.029433 0.760454
Si Si4 0.213236 0.379584 0.481395
Si Si5 0.436999 0.087302 0.884280
O O1 0.057598 0.808304 0.922931
O O2 0.083325 0.871628 0.576435
O O3 0.157563 0.850029 0.950310
O O4 0.063256 0.893629 0.077293
O O5 0.500000 0.235949 0.786679
O O6 0.698929 0.072363 0.660835
O O7 0.605468 0.045219 0.909352
O O8 0.647535 0.000000 0.500000
O O9 0.695616 0.000000 0.000000
O O10 0.250000 0.353042 0.250000
O O11 0.250000 0.388471 0.750000
O O12 0.500000 0.070817 0.961111
#
# Coordination Sequence:
#
# PCOD8264675 Si02
#       5
#    16   8  16  16  16
#     4  11  22  41  63  93 126 154 203 248 291 377
#     4  12  24  40  70 104 128 150 180 242 322 364
#     4  11  23  37  54  86 122 158 213 272 313 345
#     4  11  23  41  64  85 115 171 217 249 298 352
#     4  11  20  37  61  82 120 171 205 245 309 366
#
# _framework density 21.145731999999999
#
# number of rings (size 3 to 8) (size 9 to 14) (size 15 to 20)
#    0.000    0.889    2.222    8.000    0.000    2.667 
#    0.000    2.222    0.000    4.000    0.000    0.000 
#    0.000    0.000    0.000    0.000    0.000    0.000 
#
# Total GULP energy -446398.772812 kJ/mol
# GULP energy per Si atom -12399.965911 kJ/mol
# Density = 2.109760 g / cm^3
# Si number density = 21.145732 Si / 1000 Ang^3
#
#
#
# Elastic Constant Matrix: (Units=GPa)
#
#
# Indices 1 2 3 4 5 6 
#
# 1 172.0218 31.2455 37.8591 0.0000 0.0000 0.0000
# 2 31.2455 64.8954 17.3499 0.0000 0.0000 0.0000
# 3 37.8591 17.3499 104.2562 0.0000 0.0000 0.0000
# 4 0.0000 0.0000 0.0000 33.7336 0.0000 0.0000
# 5 0.0000 0.0000 0.0000 0.0000 33.4971 0.0000
# 6 0.0000 0.0000 0.0000 0.0000 0.0000 14.4395
#
#
#
# Elastic Compliance Matrix: (Units=1/GPa)
#
#
# Indices 1 2 3 4 5 6 
#
# 1 0.006746 -0.002714 -0.001998 0.000000 0.000000 0.000000
# 2 -0.002714 0.017219 -0.001880 0.000000 0.000000 0.000000
# 3 -0.001998 -0.001880 0.010630 0.000000 0.000000 0.000000
# 4 0.000000 0.000000 0.000000 0.029644 0.000000 0.000000
# 5 0.000000 0.000000 0.000000 0.000000 0.029853 0.000000
# 6 0.000000 0.000000 0.000000 0.000000 0.000000 0.069254
#
#
# Mechanical properties :
#
#
# Convention : Reuss Voigt Hill
#
# Bulk Modulus (GPa) = 46.70486 57.12029 51.91258
# Shear Modulus (GPa) = 27.22317 33.31530 30.26923
#
# Velocity S-wave (km/s) = 3.59194 3.97357 3.78757
# Velocity P-wave (km/s) = 6.27198 6.93713 6.61292
#
# Compressibility (1/GPa) = 0.02141105
#
# Stress axis : x y z
#
# Youngs Moduli (GPa) = 148.23864 58.07658 94.07183
#
# Poissons Ratio (x) = 0.15761 0.18796
# Poissons Ratio (y) = 0.40229 0.17685
# Poissons Ratio (z) = 0.29619 0.10918
#
# Static dielectric constant tensor:
#      x y z
#    x 4.232330 0.000000 0.000000 
#    y 0.000000 3.378730 0.000000 
#    z 0.000000 0.000000 4.082530 
# 
# 
# High freq. dielectric constant tensor:
#      x y z
#    x 1.844210 0.000000 0.000000 
#    y 0.000000 1.777400 0.000000 
#    z 0.000000 0.000000 1.857070 
# 
# From -- ./inp_files/2247.got.cif
#   From: 2010.03.12/outbox.cif.g09.slc.cpg/sg64_2_cif.got.tgz:2247.got - 2010.04.10 20:19:32.
