data_PCOD8264988
_publ_section_title
;
Structure prediction by ZEFSAII (Michael W. Deem and Ramdas Pophale) SiO2 
 PCOD8264988
Probable space group: C M C A
;
_chemical_formula_sum "Si O2"
_cell_formula_units_Z 96
_cell_length_a 8.858558
_cell_length_b 23.635359
_cell_length_c 25.773821
_cell_angle_alpha 90.000000
_cell_angle_beta 90.000000
_cell_angle_gamma 90.000000
_cell_volume 5396.398889
_symmetry_space_group_name_H-M "C M C A"
_symmetry_group_IT_number 64
_symmetry_cell_setting 'orthorhombic'
loop_
_space_group_symop_operation_xyz
x,y,z
-x,1/2-y,1/2+z
x,-y,-z
-x,1/2+y,1/2-z
-x,-y,-z
x,1/2+y,1/2-z
-x,y,z
x,1/2-y,1/2+z
1/2+x,1/2+y,z
1/2-x,-y,1/2+z
1/2+x,1/2-y,-z
1/2-x,y,1/2-z
1/2-x,1/2-y,-z
1/2+x,y,1/2-z
1/2-x,1/2+y,z
1/2+x,-y,1/2+z
loop_
_atom_site_type_symbol
_atom_site_label
_atom_site_fract_x
_atom_site_fract_y
_atom_site_fract_z
Si Si1 0.677516 0.231932 0.945661
Si Si2 0.167508 0.075618 0.471398
Si Si3 0.170325 0.327464 0.887149
Si Si4 0.325279 0.487568 0.384156
Si Si5 0.679148 0.917509 0.806128
Si Si6 0.175368 0.113167 0.930257
O O1 0.500000 0.230725 0.953965
O O2 0.719950 0.275540 0.899961
O O3 0.732848 0.171084 0.926847
O O4 0.750000 0.250000 0.000000
O O5 0.173862 0.129004 0.434091
O O6 0.294287 0.083005 0.514792
O O7 0.000000 0.072939 0.497084
O O8 0.197950 0.018407 0.439569
O O9 0.228230 0.359786 0.835478
O O10 0.000000 0.304582 0.879319
O O11 0.500000 0.473564 0.374743
O O12 0.263144 0.527755 0.338175
O O13 0.230909 0.429265 0.384754
O O14 0.500000 0.919582 0.802866
O O15 0.750000 0.918318 0.750000
O O16 0.000000 0.126205 0.923552
#
# Coordination Sequence:
#
# PCOD8264988 Si02
#       6
#    16  16  16  16  16  16
#     4  12  23  35  52  75 106 146 184 221 262 314
#     4   9  17  31  51  71 101 143 178 213 258 308
#     4   9  18  34  54  78 107 141 180 219 262 314
#     4   9  19  35  52  74 104 141 178 214 265 319
#     4   9  19  36  60  85 108 137 172 218 274 323
#     4  12  23  32  47  74 107 144 181 218 260 308
#
# _framework density 17.789642000000001
#
# number of rings (size 3 to 8) (size 9 to 14) (size 15 to 20)
#    0.000    2.000    1.667    5.500    0.000    4.000 
#    0.000    3.333    0.000    1.000    0.000    7.000 
#    0.000    0.000    0.000    0.000    0.000    0.000 
#
# Total GULP energy -595163.830603 kJ/mol
# GULP energy per Si atom -12399.246471 kJ/mol
# Density = 1.774915 g / cm^3
# Si number density = 17.789642 Si / 1000 Ang^3
#
#
#
# Elastic Constant Matrix: (Units=GPa)
#
#
# Indices 1 2 3 4 5 6 
#
# 1 102.6626 57.4097 36.0973 0.0000 0.0000 0.0000
# 2 57.4097 130.5464 43.3590 0.0000 0.0000 0.0000
# 3 36.0973 43.3590 76.4360 0.0000 0.0000 0.0000
# 4 0.0000 0.0000 0.0000 5.1582 0.0000 0.0000
# 5 0.0000 0.0000 0.0000 0.0000 28.3635 0.0000
# 6 0.0000 0.0000 0.0000 0.0000 0.0000 29.0603
#
#
#
# Elastic Compliance Matrix: (Units=1/GPa)
#
#
# Indices 1 2 3 4 5 6 
#
# 1 0.013747 -0.004792 -0.003774 0.000000 0.000000 0.000000
# 2 -0.004792 0.011109 -0.004038 0.000000 0.000000 0.000000
# 3 -0.003774 -0.004038 0.017156 0.000000 0.000000 0.000000
# 4 0.000000 0.000000 0.000000 0.193867 0.000000 0.000000
# 5 0.000000 0.000000 0.000000 0.000000 0.035257 0.000000
# 6 0.000000 0.000000 0.000000 0.000000 0.000000 0.034411
#
#
# Mechanical properties :
#
#
# Convention : Reuss Voigt Hill
#
# Bulk Modulus (GPa) = 59.51269 64.81967 62.16618
# Shear Modulus (GPa) = 14.86515 24.03500 19.45008
#
# Velocity S-wave (km/s) = 2.89382 3.67967 3.31015
# Velocity P-wave (km/s) = 6.68519 7.38710 7.04489
#
# Compressibility (1/GPa) = 0.01680314
#
# Stress axis : x y z
#
# Youngs Moduli (GPa) = 72.74104 90.01827 58.28895
#
# Poissons Ratio (x) = 0.43138 0.21997
# Poissons Ratio (y) = 0.34859 0.23540
# Poissons Ratio (z) = 0.27451 0.36354
#
# Static dielectric constant tensor:
#      x y z
#    x 3.207990 0.000000 0.000000 
#    y 0.000000 3.566840 0.000000 
#    z 0.000000 0.000000 4.080000 
# 
# 
# High freq. dielectric constant tensor:
#      x y z
#    x 1.681260 0.000000 0.000000 
#    y 0.000000 1.698650 0.000000 
#    z 0.000000 0.000000 1.652920 
# 
# From -- ./inp_files/48357.got.cif
#   From: 2010.03.12/outbox.cif.g09.slc.cpg/sg64_25_cif.got.tgz:48357.got - 2010.04.10 20:19:32.
