data_PCOD8264035
_publ_section_title
;
Structure prediction by ZEFSAII (Michael W. Deem and Ramdas Pophale) SiO2 
 PCOD8264035
Probable space group: C M C A
;
_chemical_formula_sum "Si O2"
_cell_formula_units_Z 88
_cell_length_a 16.653989
_cell_length_b 8.255917
_cell_length_c 30.656819
_cell_angle_alpha 90.000000
_cell_angle_beta 90.000000
_cell_angle_gamma 90.000000
_cell_volume 4215.127166
_symmetry_space_group_name_H-M "C M C A"
_symmetry_group_IT_number 64
_symmetry_cell_setting 'orthorhombic'
loop_
_space_group_symop_operation_xyz
x,y,z
-x,1/2-y,1/2+z
x,-y,-z
-x,1/2+y,1/2-z
-x,-y,-z
x,1/2+y,1/2-z
-x,y,z
x,1/2-y,1/2+z
1/2+x,1/2+y,z
1/2-x,-y,1/2+z
1/2+x,1/2-y,-z
1/2-x,y,1/2-z
1/2-x,1/2-y,-z
1/2+x,y,1/2-z
1/2-x,1/2+y,z
1/2+x,-y,1/2+z
loop_
_atom_site_type_symbol
_atom_site_label
_atom_site_fract_x
_atom_site_fract_y
_atom_site_fract_z
Si Si1 0.093987 0.096701 0.210731
Si Si2 0.297661 0.771758 0.644063
Si Si3 0.728607 0.539590 0.918435
Si Si4 0.657596 0.500000 0.500000
Si Si5 0.908297 0.335356 0.472358
Si Si6 0.318427 0.272521 0.216815
O O1 0.121438 0.224098 0.173264
O O2 0.121208 0.150334 0.258963
O O3 0.000000 0.080600 0.210161
O O4 0.132851 0.925150 0.198489
O O5 0.279617 0.597649 0.623552
O O6 0.223425 0.819881 0.676316
O O7 0.309157 0.875648 0.600059
O O8 0.655203 0.658619 0.932405
O O9 0.786471 0.502902 0.958186
O O10 0.605342 0.333325 0.501060
O O11 0.892204 0.500000 0.500000
O O12 0.000000 0.335525 0.455150
O O13 0.250000 0.336289 0.250000
#
# Coordination Sequence:
#
# PCOD8264035 Si02
#       6
#    16  16  16   8  16  16
#     4  11  23  40  63  93 127 163 207 265 323 379
#     4  11  23  39  66  93 124 171 216 264 311 392
#     4  12  22  42  67  93 126 171 226 261 320 396
#     4  12  23  44  71  96 128 182 228 270 329 410
#     4  11  24  42  66  97 130 167 216 278 336 384
#     4  10  21  40  64  90 123 169 212 253 315 392
#
# _framework density 20.877188
#
# number of rings (size 3 to 8) (size 9 to 14) (size 15 to 20)
#    0.000    0.909    4.545    4.091    2.545    0.727 
#    0.000    1.818    0.000    0.000    0.000    0.000 
#    0.000    0.000    0.000    0.000    0.000    0.000 
#
# Total GULP energy -545337.734509 kJ/mol
# GULP energy per Si atom -12394.039421 kJ/mol
# Density = 2.082967 g / cm^3
# Si number density = 20.877188 Si / 1000 Ang^3
#
#
#
# Elastic Constant Matrix: (Units=GPa)
#
#
# Indices 1 2 3 4 5 6 
#
# 1 128.6667 35.2909 35.2303 0.0000 0.0000 0.0000
# 2 35.2909 85.8177 22.5780 0.0000 0.0000 0.0000
# 3 35.2303 22.5780 102.3463 0.0000 0.0000 0.0000
# 4 0.0000 0.0000 0.0000 33.4447 0.0000 0.0000
# 5 0.0000 0.0000 0.0000 0.0000 21.0917 0.0000
# 6 0.0000 0.0000 0.0000 0.0000 0.0000 23.9755
#
#
#
# Elastic Compliance Matrix: (Units=1/GPa)
#
#
# Indices 1 2 3 4 5 6 
#
# 1 0.009331 -0.003176 -0.002511 0.000000 0.000000 0.000000
# 2 -0.003176 0.013452 -0.001874 0.000000 0.000000 0.000000
# 3 -0.002511 -0.001874 0.011049 0.000000 0.000000 0.000000
# 4 0.000000 0.000000 0.000000 0.029900 0.000000 0.000000
# 5 0.000000 0.000000 0.000000 0.000000 0.047412 0.000000
# 6 0.000000 0.000000 0.000000 0.000000 0.000000 0.041709
#
#
# Mechanical properties :
#
#
# Convention : Reuss Voigt Hill
#
# Bulk Modulus (GPa) = 53.45353 55.89213 54.67283
# Shear Modulus (GPa) = 28.70062 30.61780 29.65921
#
# Velocity S-wave (km/s) = 3.71177 3.83373 3.77324
# Velocity P-wave (km/s) = 6.63543 6.81371 6.72516
#
# Compressibility (1/GPa) = 0.01870784
#
# Stress axis : x y z
#
# Youngs Moduli (GPa) = 107.17129 74.33870 90.50917
#
# Poissons Ratio (x) = 0.23613 0.22729
# Poissons Ratio (y) = 0.34043 0.16963
# Poissons Ratio (z) = 0.26913 0.13932
#
# Static dielectric constant tensor:
#      x y z
#    x 3.697740 0.000000 0.000000 
#    y 0.000000 3.935830 0.000000 
#    z 0.000000 0.000000 2.057320 
# 
# 
# High freq. dielectric constant tensor:
#      x y z
#    x 1.801190 0.000000 0.000000 
#    y 0.000000 1.821950 0.000000 
#    z 0.000000 0.000000 1.818330 
# 
# From -- ./inp_files/53551.got.cif
#   From: 2010.03.12/outbox.cif.g09.slc.cpg/sg64_27_cif.got.tgz:53551.got - 2010.04.10 20:19:32.
