data_PCOD8264240
_publ_section_title
;
Structure prediction by ZEFSAII (Michael W. Deem and Ramdas Pophale) SiO2 
 PCOD8264240
Probable space group: C M C A
;
_chemical_formula_sum "Si O2"
_cell_formula_units_Z 96
_cell_length_a 19.028831
_cell_length_b 14.544226
_cell_length_c 17.143490
_cell_angle_alpha 90.000000
_cell_angle_beta 90.000000
_cell_angle_gamma 90.000000
_cell_volume 4744.625754
_symmetry_space_group_name_H-M "C M C A"
_symmetry_group_IT_number 64
_symmetry_cell_setting 'orthorhombic'
loop_
_space_group_symop_operation_xyz
x,y,z
-x,1/2-y,1/2+z
x,-y,-z
-x,1/2+y,1/2-z
-x,-y,-z
x,1/2+y,1/2-z
-x,y,z
x,1/2-y,1/2+z
1/2+x,1/2+y,z
1/2-x,-y,1/2+z
1/2+x,1/2-y,-z
1/2-x,y,1/2-z
1/2-x,1/2-y,-z
1/2+x,y,1/2-z
1/2-x,1/2+y,z
1/2+x,-y,1/2+z
loop_
_atom_site_type_symbol
_atom_site_label
_atom_site_fract_x
_atom_site_fract_y
_atom_site_fract_z
Si Si1 0.916252 0.437615 0.216821
Si Si2 0.672858 0.281220 0.224225
Si Si3 0.175137 0.907564 0.788994
Si Si4 0.581850 0.088329 0.958245
Si Si5 0.209346 0.900233 0.965602
Si Si6 0.339466 0.232454 0.046735
O O1 0.885192 0.359976 0.273261
O O2 0.885021 0.533819 0.246465
O O3 0.888613 0.410435 0.130347
O O4 0.000000 0.441669 0.224270
O O5 0.750000 0.319512 0.250000
O O6 0.653400 0.198788 0.282178
O O7 0.668214 0.237288 0.139016
O O8 0.250000 0.928622 0.750000
O O9 0.181118 0.924588 0.880415
O O10 0.500000 0.072631 0.950016
O O11 0.593652 0.179702 0.010065
O O12 0.616703 0.000000 0.000000
O O13 0.276843 0.835651 0.978394
O O14 0.154014 0.836194 0.012342
O O15 0.223404 0.000000 0.000000
#
# Coordination Sequence:
#
# PCOD8264240 Si02
#       6
#    16  16  16  16  16  16
#     4  11  25  41  63  91 126 171 208 254 315 374
#     4  11  22  41  62  93 124 161 211 262 314 371
#     4  11  22  40  61  92 123 158 206 259 310 365
#     4  10  22  39  61  92 125 164 210 256 307 371
#     4  11  23  37  59  92 121 156 199 252 315 371
#     4  11  22  38  62  90 122 160 203 255 316 372
#
# _framework density 20.233419000000001
#
# number of rings (size 3 to 8) (size 9 to 14) (size 15 to 20)
#    0.000    1.167    3.333    4.000    4.667    1.333 
#    0.000    0.833    0.000    2.000    0.000    0.000 
#    0.000    0.000    0.000    0.000    0.000    0.000 
#
# Total GULP energy -594845.325200 kJ/mol
# GULP energy per Si atom -12392.610942 kJ/mol
# Density = 2.018737 g / cm^3
# Si number density = 20.233419 Si / 1000 Ang^3
#
#
#
# Elastic Constant Matrix: (Units=GPa)
#
#
# Indices 1 2 3 4 5 6 
#
# 1 69.8568 38.4273 14.8719 0.0000 0.0000 0.0000
# 2 38.4273 119.7895 17.2288 0.0000 0.0000 0.0000
# 3 14.8719 17.2288 95.5394 0.0000 0.0000 0.0000
# 4 0.0000 0.0000 0.0000 15.0780 0.0000 0.0000
# 5 0.0000 0.0000 0.0000 0.0000 22.8598 0.0000
# 6 0.0000 0.0000 0.0000 0.0000 0.0000 45.4574
#
#
#
# Elastic Compliance Matrix: (Units=1/GPa)
#
#
# Indices 1 2 3 4 5 6 
#
# 1 0.017671 -0.005413 -0.001774 0.000000 0.000000 0.000000
# 2 -0.005413 0.010229 -0.001002 0.000000 0.000000 0.000000
# 3 -0.001774 -0.001002 0.010924 0.000000 0.000000 0.000000
# 4 0.000000 0.000000 0.000000 0.066322 0.000000 0.000000
# 5 0.000000 0.000000 0.000000 0.000000 0.043745 0.000000
# 6 0.000000 0.000000 0.000000 0.000000 0.000000 0.021999
#
#
# Mechanical properties :
#
#
# Convention : Reuss Voigt Hill
#
# Bulk Modulus (GPa) = 44.55612 47.36020 45.95816
# Shear Modulus (GPa) = 25.67410 30.98955 28.33183
#
# Velocity S-wave (km/s) = 3.56602 3.91781 3.74605
# Velocity P-wave (km/s) = 6.24693 6.62748 6.44002
#
# Compressibility (1/GPa) = 0.02244361
#
# Stress axis : x y z
#
# Youngs Moduli (GPa) = 56.59125 97.76492 91.54344
#
# Poissons Ratio (x) = 0.52923 0.16244
# Poissons Ratio (y) = 0.30635 0.09172
# Poissons Ratio (z) = 0.10042 0.09795
#
# Static dielectric constant tensor:
#      x y z
#    x 3.424240 0.000000 0.000000 
#    y 0.000000 3.978020 0.000000 
#    z 0.000000 0.000000 3.815840 
# 
# 
# High freq. dielectric constant tensor:
#      x y z
#    x 1.761030 0.000000 0.000000 
#    y 0.000000 1.804110 0.000000 
#    z 0.000000 0.000000 1.804480 
# 
# From -- ./inp_files/26319.got.cif
#   From: 2010.03.12/outbox.cif.g09.slc.cpg/sg64_14_cif.got.tgz:26319.got - 2010.04.10 20:19:32.
