data_PCOD8264001
_publ_section_title
;
Structure prediction by ZEFSAII (Michael W. Deem and Ramdas Pophale) SiO2 
 PCOD8264001
Probable space group: C M C A
;
_chemical_formula_sum "Si O2"
_cell_formula_units_Z 88
_cell_length_a 21.921757
_cell_length_b 12.906972
_cell_length_c 14.544265
_cell_angle_alpha 90.000000
_cell_angle_beta 90.000000
_cell_angle_gamma 90.000000
_cell_volume 4115.205299
_symmetry_space_group_name_H-M "C M C A"
_symmetry_group_IT_number 64
_symmetry_cell_setting 'orthorhombic'
loop_
_space_group_symop_operation_xyz
x,y,z
-x,1/2-y,1/2+z
x,-y,-z
-x,1/2+y,1/2-z
-x,-y,-z
x,1/2+y,1/2-z
-x,y,z
x,1/2-y,1/2+z
1/2+x,1/2+y,z
1/2-x,-y,1/2+z
1/2+x,1/2-y,-z
1/2-x,y,1/2-z
1/2-x,1/2-y,-z
1/2+x,y,1/2-z
1/2-x,1/2+y,z
1/2+x,-y,1/2+z
loop_
_atom_site_type_symbol
_atom_site_label
_atom_site_fract_x
_atom_site_fract_y
_atom_site_fract_z
Si Si1 0.568679 0.724497 0.146910
Si Si2 0.627228 0.794089 0.318530
Si Si3 0.266108 0.602938 0.049147
Si Si4 0.929775 0.504497 0.608847
Si Si5 0.750000 0.688860 0.250000
Si Si6 0.847525 0.706794 0.001123
O O1 0.500000 0.726507 0.110302
O O2 0.573096 0.765680 0.249492
O O3 0.594036 0.607327 0.143123
O O4 0.607635 0.803755 0.084680
O O5 0.617494 0.914344 0.346025
O O6 0.693651 0.766617 0.274243
O O7 0.613652 0.721660 0.406124
O O8 0.265639 0.615372 0.161461
O O9 0.305896 0.691879 0.004746
O O10 0.293119 0.500000 0.000000
O O11 0.196732 0.608611 0.010254
O O12 0.925024 0.500000 0.500000
O O13 0.000000 0.526832 0.639001
#
# Coordination Sequence:
#
# PCOD8264001 Si02
#       6
#    16  16  16  16   8  16
#     4  11  23  41  64  95 130 166 217 265 318 386
#     4  11  22  40  65  92 136 168 210 274 319 382
#     4  10  22  43  66  94 132 170 214 268 323 386
#     4  10  21  39  67  97 122 166 221 265 324 387
#     4  10  22  42  66 102 132 170 224 256 332 394
#     4  10  22  41  62  95 126 167 216 262 328 382
#
# _framework density 21.38411
#
# number of rings (size 3 to 8) (size 9 to 14) (size 15 to 20)
#    0.000    1.636    3.636    0.545    2.545    0.727 
#    9.818    0.909    0.000    0.545    0.000    0.000 
#    0.000    0.000    0.000    0.000    0.000    0.000 
#
# Total GULP energy -545220.413433 kJ/mol
# GULP energy per Si atom -12391.373033 kJ/mol
# Density = 2.133544 g / cm^3
# Si number density = 21.384110 Si / 1000 Ang^3
#
#
#
# Elastic Constant Matrix: (Units=GPa)
#
#
# Indices 1 2 3 4 5 6 
#
# 1 66.1468 12.7300 26.0097 0.0000 0.0000 0.0000
# 2 12.7300 53.5879 32.8685 0.0000 0.0000 0.0000
# 3 26.0097 32.8685 126.8655 0.0000 0.0000 0.0000
# 4 0.0000 0.0000 0.0000 33.7130 0.0000 0.0000
# 5 0.0000 0.0000 0.0000 0.0000 26.7620 0.0000
# 6 0.0000 0.0000 0.0000 0.0000 0.0000 30.8798
#
#
#
# Elastic Compliance Matrix: (Units=1/GPa)
#
#
# Indices 1 2 3 4 5 6 
#
# 1 0.016662 -0.002215 -0.002842 0.000000 0.000000 0.000000
# 2 -0.002215 0.022481 -0.005370 0.000000 0.000000 0.000000
# 3 -0.002842 -0.005370 0.009856 0.000000 0.000000 0.000000
# 4 0.000000 0.000000 0.000000 0.029662 0.000000 0.000000
# 5 0.000000 0.000000 0.000000 0.000000 0.037366 0.000000
# 6 0.000000 0.000000 0.000000 0.000000 0.000000 0.032384
#
#
# Mechanical properties :
#
#
# Convention : Reuss Voigt Hill
#
# Bulk Modulus (GPa) = 35.53085 43.31294 39.42190
# Shear Modulus (GPa) = 27.98810 29.93709 28.96259
#
# Velocity S-wave (km/s) = 3.62170 3.74568 3.68421
# Velocity P-wave (km/s) = 5.84299 6.24544 6.04756
#
# Compressibility (1/GPa) = 0.02814456
#
# Stress axis : x y z
#
# Youngs Moduli (GPa) = 60.01796 44.48199 101.45691
#
# Poissons Ratio (x) = 0.09852 0.28835
# Poissons Ratio (y) = 0.13293 0.54486
# Poissons Ratio (z) = 0.17058 0.23888
#
# Static dielectric constant tensor:
#      x y z
#    x 4.076230 0.000000 0.000000 
#    y 0.000000 2.818780 0.000000 
#    z 0.000000 0.000000 4.110050 
# 
# 
# High freq. dielectric constant tensor:
#      x y z
#    x 1.847010 0.000000 0.000000 
#    y 0.000000 1.808990 0.000000 
#    z 0.000000 0.000000 1.849390 
# 
# From -- ./inp_files/27211.got.cif
#   From: 2010.03.12/outbox.cif.g09.slc.cpg/sg64_14_cif.got.tgz:27211.got - 2010.04.10 20:19:32.
