data_PCOD8264145
_publ_section_title
;
Structure prediction by ZEFSAII (Michael W. Deem and Ramdas Pophale) SiO2 
 PCOD8264145
Probable space group: C M C A
;
_chemical_formula_sum "Si O2"
_cell_formula_units_Z 64
_cell_length_a 13.694671
_cell_length_b 22.142610
_cell_length_c 11.012721
_cell_angle_alpha 90.000000
_cell_angle_beta 90.000000
_cell_angle_gamma 90.000000
_cell_volume 3339.450811
_symmetry_space_group_name_H-M "C M C A"
_symmetry_group_IT_number 64
_symmetry_cell_setting 'orthorhombic'
loop_
_space_group_symop_operation_xyz
x,y,z
-x,1/2-y,1/2+z
x,-y,-z
-x,1/2+y,1/2-z
-x,-y,-z
x,1/2+y,1/2-z
-x,y,z
x,1/2-y,1/2+z
1/2+x,1/2+y,z
1/2-x,-y,1/2+z
1/2+x,1/2-y,-z
1/2-x,y,1/2-z
1/2-x,1/2-y,-z
1/2+x,y,1/2-z
1/2-x,1/2+y,z
1/2+x,-y,1/2+z
loop_
_atom_site_type_symbol
_atom_site_label
_atom_site_fract_x
_atom_site_fract_y
_atom_site_fract_z
Si Si1 0.389926 0.907791 0.191024
Si Si2 0.269960 0.170916 0.385443
Si Si3 0.111408 0.785495 0.436130
Si Si4 0.702541 0.062650 0.558677
O O1 0.500000 0.928571 0.158738
O O2 0.376138 0.836205 0.168210
O O3 0.368860 0.920853 0.331152
O O4 0.314530 0.943597 0.104821
O O5 0.250000 0.148073 0.250000
O O6 0.170749 0.196426 0.443749
O O7 0.351136 0.223013 0.380634
O O8 0.311080 0.114265 0.458981
O O9 0.000000 0.778367 0.477192
O O10 0.669104 0.000000 0.500000
#
# Coordination Sequence:
#
# PCOD8264145 Si02
#       4
#    16  16  16  16
#     4   9  20  39  61  83 111 149 191 233 286 342
#     4  10  22  35  58  88 115 145 188 235 279 338
#     4   9  20  38  59  84 115 149 183 230 291 341
#     4  10  22  38  61  83 114 155 191 232 281 330
#
# _framework density 19.164829000000001
#
# number of rings (size 3 to 8) (size 9 to 14) (size 15 to 20)
#    0.000    2.500    0.000    0.000   14.000    3.000 
#    0.000    0.000    0.000    0.000    0.000    0.000 
#    0.000    0.000    0.000    0.000    0.000    0.000 
#
# Total GULP energy -396882.917136 kJ/mol
# GULP energy per Si atom -12402.591160 kJ/mol
# Density = 1.912121 g / cm^3
# Si number density = 19.164829 Si / 1000 Ang^3
#
#
#
# Elastic Constant Matrix: (Units=GPa)
#
#
# Indices 1 2 3 4 5 6 
#
# 1 95.1508 25.8127 15.7396 0.0000 0.0000 0.0000
# 2 25.8127 101.5256 46.2629 0.0000 0.0000 0.0000
# 3 15.7396 46.2629 114.7300 0.0000 0.0000 0.0000
# 4 0.0000 0.0000 0.0000 24.8418 0.0000 0.0000
# 5 0.0000 0.0000 0.0000 0.0000 16.4315 0.0000
# 6 0.0000 0.0000 0.0000 0.0000 0.0000 19.0603
#
#
#
# Elastic Compliance Matrix: (Units=1/GPa)
#
#
# Indices 1 2 3 4 5 6 
#
# 1 0.011310 -0.002657 -0.000480 0.000000 0.000000 0.000000
# 2 -0.002657 0.012691 -0.004753 0.000000 0.000000 0.000000
# 3 -0.000480 -0.004753 0.010699 0.000000 0.000000 0.000000
# 4 0.000000 0.000000 0.000000 0.040255 0.000000 0.000000
# 5 0.000000 0.000000 0.000000 0.000000 0.060859 0.000000
# 6 0.000000 0.000000 0.000000 0.000000 0.000000 0.052465
#
#
# Mechanical properties :
#
#
# Convention : Reuss Voigt Hill
#
# Bulk Modulus (GPa) = 52.85553 54.11522 53.48538
# Shear Modulus (GPa) = 23.76830 26.97280 25.37055
#
# Velocity S-wave (km/s) = 3.52547 3.75562 3.64236
# Velocity P-wave (km/s) = 6.64916 6.86325 6.75705
#
# Compressibility (1/GPa) = 0.01891950
#
# Stress axis : x y z
#
# Youngs Moduli (GPa) = 88.41908 78.79603 93.47049
#
# Poissons Ratio (x) = 0.20933 0.04490
# Poissons Ratio (y) = 0.23490 0.44426
# Poissons Ratio (z) = 0.04247 0.37452
#
# Static dielectric constant tensor:
#      x y z
#    x 3.572010 0.000000 0.000000 
#    y 0.000000 3.409610 0.000000 
#    z 0.000000 0.000000 3.391380 
# 
# 
# High freq. dielectric constant tensor:
#      x y z
#    x 1.743340 0.000000 0.000000 
#    y 0.000000 1.739360 0.000000 
#    z 0.000000 0.000000 1.743980 
# 
# From -- ./inp_files/5551.got.cif
#   From: 2010.03.12/outbox.cif.g09.slc.cpg/sg64_3_cif.got.tgz:5551.got - 2010.04.10 20:19:32.
