data_PCOD8264259
_publ_section_title
;
Structure prediction by ZEFSAII (Michael W. Deem and Ramdas Pophale) SiO2 
 PCOD8264259
Probable space group: C M C A
;
_chemical_formula_sum "Si O2"
_cell_formula_units_Z 48
_cell_length_a 28.280185
_cell_length_b 5.081597
_cell_length_c 16.165828
_cell_angle_alpha 90.000000
_cell_angle_beta 90.000000
_cell_angle_gamma 90.000000
_cell_volume 2323.166946
_symmetry_space_group_name_H-M "C M C A"
_symmetry_group_IT_number 64
_symmetry_cell_setting 'orthorhombic'
loop_
_space_group_symop_operation_xyz
x,y,z
-x,1/2-y,1/2+z
x,-y,-z
-x,1/2+y,1/2-z
-x,-y,-z
x,1/2+y,1/2-z
-x,y,z
x,1/2-y,1/2+z
1/2+x,1/2+y,z
1/2-x,-y,1/2+z
1/2+x,1/2-y,-z
1/2-x,y,1/2-z
1/2-x,1/2-y,-z
1/2+x,y,1/2-z
1/2-x,1/2+y,z
1/2+x,-y,1/2+z
loop_
_atom_site_type_symbol
_atom_site_label
_atom_site_fract_x
_atom_site_fract_y
_atom_site_fract_z
Si Si1 0.226809 0.439351 0.904911
Si Si2 0.126416 0.255262 0.945560
Si Si3 0.945633 0.774077 0.197006
O O1 0.238988 0.719742 0.862426
O O2 0.172529 0.351607 0.895169
O O3 0.240285 0.500000 0.000000
O O4 0.085553 0.170768 0.883209
O O5 0.107857 0.500000 0.000000
O O6 0.139720 0.000000 0.000000
O O7 0.933804 0.488209 0.233062
O O8 0.000000 0.798591 0.169129
#
# Coordination Sequence:
#
# PCOD8264259 Si02
#       3
#    16  16  16
#     4   9  16  28  47  74 107 138 169 209 259 312
#     4  11  21  33  56  86 108 134 179 229 264 298
#     4  10  22  40  58  76 106 147 179 210 268 334
#
# _framework density 20.661453000000002
#
# number of rings (size 3 to 8) (size 9 to 14) (size 15 to 20)
#    0.000    2.000    0.000    7.000    0.000    1.333 
#    0.000    0.000    0.000    6.000    0.000    0.000 
#    0.000    0.000    0.000    0.000    0.000    0.000 
#
# Total GULP energy -297522.314423 kJ/mol
# GULP energy per Si atom -12396.763101 kJ/mol
# Density = 2.061443 g / cm^3
# Si number density = 20.661453 Si / 1000 Ang^3
#
#
#
# Elastic Constant Matrix: (Units=GPa)
#
#
# Indices 1 2 3 4 5 6 
#
# 1 116.0066 39.8043 42.1568 0.0000 0.0000 0.0000
# 2 39.8043 121.1872 5.4443 0.0000 0.0000 0.0000
# 3 42.1568 5.4443 32.4559 0.0000 0.0000 0.0000
# 4 0.0000 0.0000 0.0000 13.3897 0.0000 0.0000
# 5 0.0000 0.0000 0.0000 0.0000 3.1028 0.0000
# 6 0.0000 0.0000 0.0000 0.0000 0.0000 30.4883
#
#
#
# Elastic Compliance Matrix: (Units=1/GPa)
#
#
# Indices 1 2 3 4 5 6 
#
# 1 0.019105 -0.005200 -0.023944 0.000000 0.000000 0.000000
# 2 -0.005200 0.009729 0.005122 0.000000 0.000000 0.000000
# 3 -0.023944 0.005122 0.061052 0.000000 0.000000 0.000000
# 4 0.000000 0.000000 0.000000 0.074684 0.000000 0.000000
# 5 0.000000 0.000000 0.000000 0.000000 0.322290 0.000000
# 6 0.000000 0.000000 0.000000 0.000000 0.000000 0.032800
#
#
# Mechanical properties :
#
#
# Convention : Reuss Voigt Hill
#
# Bulk Modulus (GPa) = 23.89836 49.38447 36.64142
# Shear Modulus (GPa) = 8.59621 21.54578 15.07099
#
# Velocity S-wave (km/s) = 2.04194 3.23275 2.70372
# Velocity P-wave (km/s) = 4.14139 6.15531 5.24590
#
# Compressibility (1/GPa) = 0.04184387
#
# Stress axis : x y z
#
# Youngs Moduli (GPa) = 52.34105 102.78091 16.37938
#
# Poissons Ratio (x) = 0.53442 0.39218
# Poissons Ratio (y) = 0.27215 -0.08389
# Poissons Ratio (z) = 1.25324 -0.52641
#
# Static dielectric constant tensor:
#      x y z
#    x 3.604300 0.000000 0.000000 
#    y 0.000000 4.327140 0.000000 
#    z 0.000000 0.000000 3.083610 
# 
# 
# High freq. dielectric constant tensor:
#      x y z
#    x 1.808550 0.000000 0.000000 
#    y 0.000000 1.843100 0.000000 
#    z 0.000000 0.000000 1.746970 
# 
# From -- ./inp_files/27671.got.cif
#   From: 2010.03.12/outbox.cif.g09.slc.cpg/sg64_14_cif.got.tgz:27671.got - 2010.04.10 20:19:32.
