data_PCOD8264731
_publ_section_title
;
Structure prediction by ZEFSAII (Michael W. Deem and Ramdas Pophale) SiO2 
 PCOD8264731
Probable space group: C M C A
;
_chemical_formula_sum "Si O2"
_cell_formula_units_Z 96
_cell_length_a 19.320721
_cell_length_b 14.559709
_cell_length_c 16.703431
_cell_angle_alpha 90.000000
_cell_angle_beta 90.000000
_cell_angle_gamma 90.000000
_cell_volume 4698.743214
_symmetry_space_group_name_H-M "C M C A"
_symmetry_group_IT_number 64
_symmetry_cell_setting 'orthorhombic'
loop_
_space_group_symop_operation_xyz
x,y,z
-x,1/2-y,1/2+z
x,-y,-z
-x,1/2+y,1/2-z
-x,-y,-z
x,1/2+y,1/2-z
-x,y,z
x,1/2-y,1/2+z
1/2+x,1/2+y,z
1/2-x,-y,1/2+z
1/2+x,1/2-y,-z
1/2-x,y,1/2-z
1/2-x,1/2-y,-z
1/2+x,y,1/2-z
1/2-x,1/2+y,z
1/2+x,-y,1/2+z
loop_
_atom_site_type_symbol
_atom_site_label
_atom_site_fract_x
_atom_site_fract_y
_atom_site_fract_z
Si Si1 0.721156 0.121390 0.335861
Si Si2 0.861972 0.132095 0.781912
Si Si3 0.922942 0.560423 0.292429
Si Si4 0.225686 0.833032 0.363421
Si Si5 0.179833 0.903660 0.529015
Si Si6 0.922429 0.685080 0.144137
O O1 0.750000 0.085842 0.250000
O O2 0.638538 0.105684 0.345077
O O3 0.741985 0.226954 0.345937
O O4 0.761111 0.067954 0.406486
O O5 0.840957 0.137665 0.688482
O O6 0.793809 0.111348 0.835251
O O7 0.898097 0.225606 0.808310
O O8 0.915451 0.049235 0.792107
O O9 0.916320 0.597828 0.202435
O O10 0.000000 0.584422 0.326888
O O11 0.213215 0.847378 0.456569
O O12 0.122512 0.836428 0.565980
O O13 0.146746 0.000000 0.500000
O O14 0.000000 0.701001 0.113959
#
# Coordination Sequence:
#
# PCOD8264731 Si02
#       6
#    16  16  16  16  16  16
#     4  12  21  43  65  95 128 170 221 271 321 390
#     4  11  21  41  66  97 124 171 221 267 329 390
#     4  11  23  39  65  94 128 171 219 265 319 393
#     4  11  21  38  67  95 126 163 217 278 320 382
#     4  12  24  39  63  99 128 165 215 277 333 390
#     4  11  23  42  62  89 135 173 212 270 329 392
#
# _framework density 20.430996
#
# number of rings (size 3 to 8) (size 9 to 14) (size 15 to 20)
#    0.000    0.667    6.667    3.000    2.333    0.333 
#    0.000    2.500    0.000    1.500    0.000    0.000 
#    0.000    0.000    0.000    0.000    0.000    0.000 
#
# Total GULP energy -595311.453677 kJ/mol
# GULP energy per Si atom -12402.321952 kJ/mol
# Density = 2.038449 g / cm^3
# Si number density = 20.430996 Si / 1000 Ang^3
#
#
#
# Elastic Constant Matrix: (Units=GPa)
#
#
# Indices 1 2 3 4 5 6 
#
# 1 142.8355 20.8344 60.5059 0.0000 0.0000 0.0000
# 2 20.8344 78.3499 30.3481 0.0000 0.0000 0.0000
# 3 60.5059 30.3481 131.2296 0.0000 0.0000 0.0000
# 4 0.0000 0.0000 0.0000 21.5196 0.0000 0.0000
# 5 0.0000 0.0000 0.0000 0.0000 17.1103 0.0000
# 6 0.0000 0.0000 0.0000 0.0000 0.0000 31.6846
#
#
#
# Elastic Compliance Matrix: (Units=1/GPa)
#
#
# Indices 1 2 3 4 5 6 
#
# 1 0.008750 -0.000839 -0.003840 0.000000 0.000000 0.000000
# 2 -0.000839 0.014100 -0.002874 0.000000 0.000000 0.000000
# 3 -0.003840 -0.002874 0.010055 0.000000 0.000000 0.000000
# 4 0.000000 0.000000 0.000000 0.046469 0.000000 0.000000
# 5 0.000000 0.000000 0.000000 0.000000 0.058444 0.000000
# 6 0.000000 0.000000 0.000000 0.000000 0.000000 0.031561
#
#
# Mechanical properties :
#
#
# Convention : Reuss Voigt Hill
#
# Bulk Modulus (GPa) = 56.18428 63.97687 60.08058
# Shear Modulus (GPa) = 26.25779 30.11133 28.18456
#
# Velocity S-wave (km/s) = 3.58885 3.84318 3.71819
# Velocity P-wave (km/s) = 6.68822 7.14668 6.92125
#
# Compressibility (1/GPa) = 0.01779857
#
# Stress axis : x y z
#
# Youngs Moduli (GPa) = 114.28194 70.92435 99.44825
#
# Poissons Ratio (x) = 0.05953 0.38192
# Poissons Ratio (y) = 0.09592 0.28578
# Poissons Ratio (z) = 0.43889 0.20381
#
# Static dielectric constant tensor:
#      x y z
#    x 3.827930 0.000000 0.000000 
#    y 0.000000 3.674640 0.000000 
#    z 0.000000 0.000000 3.682360 
# 
# 
# High freq. dielectric constant tensor:
#      x y z
#    x 1.796810 0.000000 0.000000 
#    y 0.000000 1.811290 0.000000 
#    z 0.000000 0.000000 1.779220 
# 
# From -- ./inp_files/26337.got.cif
#   From: 2010.03.12/outbox.cif.g09.slc.cpg/sg64_14_cif.got.tgz:26337.got - 2010.04.10 20:19:32.
