data_PCOD8264536
_publ_section_title
;
Structure prediction by ZEFSAII (Michael W. Deem and Ramdas Pophale) SiO2 
 PCOD8264536
Probable space group: C M C A
;
_chemical_formula_sum "Si O2"
_cell_formula_units_Z 96
_cell_length_a 12.536164
_cell_length_b 13.734501
_cell_length_c 22.937713
_cell_angle_alpha 90.000000
_cell_angle_beta 90.000000
_cell_angle_gamma 90.000000
_cell_volume 3949.368562
_symmetry_space_group_name_H-M "C M C A"
_symmetry_group_IT_number 64
_symmetry_cell_setting 'orthorhombic'
loop_
_space_group_symop_operation_xyz
x,y,z
-x,1/2-y,1/2+z
x,-y,-z
-x,1/2+y,1/2-z
-x,-y,-z
x,1/2+y,1/2-z
-x,y,z
x,1/2-y,1/2+z
1/2+x,1/2+y,z
1/2-x,-y,1/2+z
1/2+x,1/2-y,-z
1/2-x,y,1/2-z
1/2-x,1/2-y,-z
1/2+x,y,1/2-z
1/2-x,1/2+y,z
1/2+x,-y,1/2+z
loop_
_atom_site_type_symbol
_atom_site_label
_atom_site_fract_x
_atom_site_fract_y
_atom_site_fract_z
Si Si1 0.627415 0.821013 0.716031
Si Si2 0.627208 0.122761 0.838811
Si Si3 0.809553 0.400069 0.032302
Si Si4 0.626192 0.266732 0.165720
Si Si5 0.882658 0.227351 0.962301
Si Si6 0.126846 0.964349 0.218097
O O1 0.500000 0.813043 0.718052
O O2 0.667847 0.735338 0.671894
O O3 0.672611 0.802880 0.782643
O O4 0.663057 0.928850 0.695901
O O5 0.500000 0.119779 0.840683
O O6 0.672005 0.082988 0.899433
O O7 0.668795 0.055057 0.784768
O O8 0.690794 0.362055 0.017214
O O9 0.833342 0.500000 0.000000
O O10 0.887181 0.315808 0.008008
O O11 0.500000 0.265458 0.173703
O O12 0.657954 0.232357 0.100810
O O13 0.668255 0.378903 0.174515
O O14 0.000000 0.182227 0.956529
O O15 0.000000 0.958217 0.220836
#
# Coordination Sequence:
#
# PCOD8264536 Si02
#       6
#    16  16  16  16  16  16
#     4   8  14  27  51  85 123 161 200 248 309 374
#     4   9  18  33  56  90 131 164 201 259 317 371
#     4  11  25  43  64  96 128 160 217 270 311 380
#     4   8  15  30  54  84 115 154 205 250 301 373
#     4  10  23  45  67  88 124 170 211 262 321 376
#     4   8  14  27  51  87 123 161 205 247 306 377
#
# _framework density 24.307683000000001
#
# number of rings (size 3 to 8) (size 9 to 14) (size 15 to 20)
#    0.000    3.000    0.000    2.500    2.333    1.667 
#    6.000    3.333    0.000    2.000    0.000    0.000 
#    0.000    0.000    0.000    0.000    0.000    0.000 
#
# Total GULP energy -595171.038470 kJ/mol
# GULP energy per Si atom -12399.396635 kJ/mol
# Density = 2.425236 g / cm^3
# Si number density = 24.307683 Si / 1000 Ang^3
#
#
#
# Elastic Constant Matrix: (Units=GPa)
#
#
# Indices 1 2 3 4 5 6 
#
# 1 46.6543 10.6904 15.5360 0.0000 0.0000 0.0000
# 2 10.6904 142.1453 42.6513 0.0000 0.0000 0.0000
# 3 15.5360 42.6513 129.8981 0.0000 0.0000 0.0000
# 4 0.0000 0.0000 0.0000 33.2016 0.0000 0.0000
# 5 0.0000 0.0000 0.0000 0.0000 31.1662 0.0000
# 6 0.0000 0.0000 0.0000 0.0000 0.0000 20.5024
#
#
#
# Elastic Compliance Matrix: (Units=1/GPa)
#
#
# Indices 1 2 3 4 5 6 
#
# 1 0.022446 -0.000979 -0.002363 0.000000 0.000000 0.000000
# 2 -0.000979 0.007847 -0.002459 0.000000 0.000000 0.000000
# 3 -0.002363 -0.002459 0.008788 0.000000 0.000000 0.000000
# 4 0.000000 0.000000 0.000000 0.030119 0.000000 0.000000
# 5 0.000000 0.000000 0.000000 0.000000 0.032086 0.000000
# 6 0.000000 0.000000 0.000000 0.000000 0.000000 0.048775
#
#
# Mechanical properties :
#
#
# Convention : Reuss Voigt Hill
#
# Bulk Modulus (GPa) = 36.39301 50.71702 43.55501
# Shear Modulus (GPa) = 29.27016 33.62870 31.44943
#
# Velocity S-wave (km/s) = 3.47385 3.72352 3.60085
# Velocity P-wave (km/s) = 5.57625 6.27663 5.93678
#
# Compressibility (1/GPa) = 0.02747781
#
# Stress axis : x y z
#
# Youngs Moduli (GPa) = 44.55235 127.44364 113.78550
#
# Poissons Ratio (x) = 0.12477 0.26888
# Poissons Ratio (y) = 0.04362 0.27983
# Poissons Ratio (z) = 0.10528 0.31342
#
# Static dielectric constant tensor:
#      x y z
#    x 4.849120 0.000000 0.000000 
#    y 0.000000 4.326750 0.000000 
#    z 0.000000 0.000000 4.339980 
# 
# 
# High freq. dielectric constant tensor:
#      x y z
#    x 2.023910 0.000000 0.000000 
#    y 0.000000 1.944170 0.000000 
#    z 0.000000 0.000000 1.946440 
# 
# From -- ./inp_files/39207.got.cif
#   From: 2010.03.12/outbox.cif.g09.slc.cpg/sg64_20_cif.got.tgz:39207.got - 2010.04.10 20:19:32.
