data_PCOD8264584
_publ_section_title
;
Structure prediction by ZEFSAII (Michael W. Deem and Ramdas Pophale) SiO2 
 PCOD8264584
Probable space group: C M C A
;
_chemical_formula_sum "Si O2"
_cell_formula_units_Z 88
_cell_length_a 21.573654
_cell_length_b 9.334475
_cell_length_c 20.171394
_cell_angle_alpha 90.000000
_cell_angle_beta 90.000000
_cell_angle_gamma 90.000000
_cell_volume 4062.089785
_symmetry_space_group_name_H-M "C M C A"
_symmetry_group_IT_number 64
_symmetry_cell_setting 'orthorhombic'
loop_
_space_group_symop_operation_xyz
x,y,z
-x,1/2-y,1/2+z
x,-y,-z
-x,1/2+y,1/2-z
-x,-y,-z
x,1/2+y,1/2-z
-x,y,z
x,1/2-y,1/2+z
1/2+x,1/2+y,z
1/2-x,-y,1/2+z
1/2+x,1/2-y,-z
1/2-x,y,1/2-z
1/2-x,1/2-y,-z
1/2+x,y,1/2-z
1/2-x,1/2+y,z
1/2+x,-y,1/2+z
loop_
_atom_site_type_symbol
_atom_site_label
_atom_site_fract_x
_atom_site_fract_y
_atom_site_fract_z
Si Si1 0.000000 0.057278 0.293801
Si Si2 0.670346 0.444399 0.202296
Si Si3 0.809907 0.500000 0.500000
Si Si4 0.782184 0.434654 0.116519
Si Si5 0.131931 0.873580 0.675317
Si Si6 0.500000 0.760590 0.663297
Si Si7 0.627778 0.173813 0.396655
O O1 0.000000 0.884851 0.293753
O O2 0.058479 0.116593 0.335044
O O3 0.000000 0.110817 0.217240
O O4 0.743233 0.448917 0.185007
O O5 0.653067 0.504484 0.273287
O O6 0.648054 0.281578 0.200759
O O7 0.632002 0.534617 0.148959
O O8 0.765627 0.569123 0.555682
O O9 0.855823 0.377013 0.528576
O O10 0.828579 0.573822 0.110650
O O11 0.820547 0.289291 0.122449
O O12 0.558831 0.764451 0.613514
#
# Coordination Sequence:
#
# PCOD8264584 Si02
#       7
#     8  16   8  16  16   8  16
#     4  12  24  42  64  94 134 173 205 256 317 401
#     4  11  23  38  61  97 132 169 210 264 328 394
#     4  10  24  43  70  93 126 168 224 284 326 372
#     4  11  23  43  66  94 127 168 217 273 329 383
#     4  12  23  39  63  94 132 171 212 260 327 397
#     4  12  24  43  68  94 138 172 212 260 320 400
#     4  11  23  42  67  96 127 175 219 266 329 382
#
# _framework density 21.663727000000002
#
# number of rings (size 3 to 8) (size 9 to 14) (size 15 to 20)
#    0.000    0.727    3.636    5.455    0.000    3.273 
#    0.000    0.000    0.000    6.545    0.000    0.000 
#    0.000    0.000    0.000    0.000    0.000    0.000 
#
# Total GULP energy -545460.908739 kJ/mol
# GULP energy per Si atom -12396.838835 kJ/mol
# Density = 2.161442 g / cm^3
# Si number density = 21.663727 Si / 1000 Ang^3
#
#
#
# Elastic Constant Matrix: (Units=GPa)
#
#
# Indices 1 2 3 4 5 6 
#
# 1 152.4756 26.7819 17.5322 0.0000 0.0000 0.0000
# 2 26.7819 127.6525 5.5167 0.0000 0.0000 0.0000
# 3 17.5322 5.5167 42.2713 0.0000 0.0000 0.0000
# 4 0.0000 0.0000 0.0000 28.1908 0.0000 0.0000
# 5 0.0000 0.0000 0.0000 0.0000 31.2371 0.0000
# 6 0.0000 0.0000 0.0000 0.0000 0.0000 20.6268
#
#
#
# Elastic Compliance Matrix: (Units=1/GPa)
#
#
# Indices 1 2 3 4 5 6 
#
# 1 0.007119 -0.001374 -0.002773 0.000000 0.000000 0.000000
# 2 -0.001374 0.008143 -0.000493 0.000000 0.000000 0.000000
# 3 -0.002773 -0.000493 0.024871 0.000000 0.000000 0.000000
# 4 0.000000 0.000000 0.000000 0.035473 0.000000 0.000000
# 5 0.000000 0.000000 0.000000 0.000000 0.032013 0.000000
# 6 0.000000 0.000000 0.000000 0.000000 0.000000 0.048481
#
#
# Mechanical properties :
#
#
# Convention : Reuss Voigt Hill
#
# Bulk Modulus (GPa) = 32.41139 46.89567 39.65353
# Shear Modulus (GPa) = 28.46346 34.18217 31.32282
#
# Velocity S-wave (km/s) = 3.62868 3.97653 3.80658
# Velocity P-wave (km/s) = 5.70526 6.54047 6.13709
#
# Compressibility (1/GPa) = 0.03085335
#
# Stress axis : x y z
#
# Youngs Moduli (GPa) = 140.47756 122.80079 40.20709
#
# Poissons Ratio (x) = 0.16869 0.11150
# Poissons Ratio (y) = 0.19297 0.01982
# Poissons Ratio (z) = 0.38957 0.06054
#
# Static dielectric constant tensor:
#      x y z
#    x 4.354450 0.000000 0.000000 
#    y 0.000000 3.956370 0.000000 
#    z 0.000000 0.000000 3.969260 
# 
# 
# High freq. dielectric constant tensor:
#      x y z
#    x 1.869740 0.000000 0.000000 
#    y 0.000000 1.863430 0.000000 
#    z 0.000000 0.000000 1.822360 
# 
# From -- ./inp_files/46235.got.cif
#   From: 2010.03.12/outbox.cif.g09.slc.cpg/sg64_24_cif.got.tgz:46235.got - 2010.04.10 20:19:32.
