data_PCOD8264893
_publ_section_title
;
Structure prediction by ZEFSAII (Michael W. Deem and Ramdas Pophale) SiO2 
 PCOD8264893
Probable space group: C M C A
;
_chemical_formula_sum "Si O2"
_cell_formula_units_Z 64
_cell_length_a 8.702742
_cell_length_b 10.173496
_cell_length_c 35.288307
_cell_angle_alpha 90.000000
_cell_angle_beta 90.000000
_cell_angle_gamma 90.000000
_cell_volume 3124.331809
_symmetry_space_group_name_H-M "C M C A"
_symmetry_group_IT_number 64
_symmetry_cell_setting 'orthorhombic'
loop_
_space_group_symop_operation_xyz
x,y,z
-x,1/2-y,1/2+z
x,-y,-z
-x,1/2+y,1/2-z
-x,-y,-z
x,1/2+y,1/2-z
-x,y,z
x,1/2-y,1/2+z
1/2+x,1/2+y,z
1/2-x,-y,1/2+z
1/2+x,1/2-y,-z
1/2-x,y,1/2-z
1/2-x,1/2-y,-z
1/2+x,y,1/2-z
1/2-x,1/2+y,z
1/2+x,-y,1/2+z
loop_
_atom_site_type_symbol
_atom_site_label
_atom_site_fract_x
_atom_site_fract_y
_atom_site_fract_z
Si Si1 0.680060 0.502190 0.084498
Si Si2 0.320855 0.718551 0.789853
Si Si3 0.678253 0.983558 0.834355
Si Si4 0.320026 0.243220 0.041260
O O1 0.500000 0.526259 0.079359
O O2 0.720094 0.499002 0.128499
O O3 0.734688 0.365996 0.066195
O O4 0.771089 0.613867 0.062955
O O5 0.500000 0.685739 0.785236
O O6 0.250000 0.762306 0.750000
O O7 0.232766 0.589262 0.803704
O O8 0.294403 0.837346 0.818913
O O9 0.500000 0.006747 0.843954
O O10 0.500000 0.243322 0.036234
O O11 0.250000 0.250000 0.000000
#
# Coordination Sequence:
#
# PCOD8264893 Si02
#       4
#    16  16  16  16
#     4  11  24  41  62  90 123 158 200 249 299 356
#     4  11  24  41  62  90 122 157 200 247 296 354
#     4  11  24  41  63  91 122 159 202 247 299 357
#     4  11  24  41  62  90 122 158 202 249 300 359
#
# _framework density 20.484379000000001
#
# number of rings (size 3 to 8) (size 9 to 14) (size 15 to 20)
#    0.000    1.000    0.000    6.000    0.000   19.000 
#    0.000    0.000    0.000    0.000    0.000    0.000 
#    0.000    0.000    0.000    0.000    0.000    0.000 
#
# Total GULP energy -397051.162886 kJ/mol
# GULP energy per Si atom -12407.848840 kJ/mol
# Density = 2.043776 g / cm^3
# Si number density = 20.484379 Si / 1000 Ang^3
#
#
#
# Elastic Constant Matrix: (Units=GPa)
#
#
# Indices 1 2 3 4 5 6 
#
# 1 58.6374 33.8679 15.3346 0.0000 0.0000 0.0000
# 2 33.8679 127.0034 26.9851 0.0000 0.0000 0.0000
# 3 15.3346 26.9851 112.8613 0.0000 0.0000 0.0000
# 4 0.0000 0.0000 0.0000 32.7798 0.0000 0.0000
# 5 0.0000 0.0000 0.0000 0.0000 43.3518 0.0000
# 6 0.0000 0.0000 0.0000 0.0000 0.0000 33.4499
#
#
#
# Elastic Compliance Matrix: (Units=1/GPa)
#
#
# Indices 1 2 3 4 5 6 
#
# 1 0.020413 -0.005114 -0.001551 0.000000 0.000000 0.000000
# 2 -0.005114 0.009576 -0.001595 0.000000 0.000000 0.000000
# 3 -0.001551 -0.001595 0.009452 0.000000 0.000000 0.000000
# 4 0.000000 0.000000 0.000000 0.030507 0.000000 0.000000
# 5 0.000000 0.000000 0.000000 0.000000 0.023067 0.000000
# 6 0.000000 0.000000 0.000000 0.000000 0.000000 0.029895
#
#
# Mechanical properties :
#
#
# Convention : Reuss Voigt Hill
#
# Bulk Modulus (GPa) = 43.62485 50.09749 46.86117
# Shear Modulus (GPa) = 33.99697 36.73725 35.36711
#
# Velocity S-wave (km/s) = 4.07830 4.23948 4.15967
# Velocity P-wave (km/s) = 6.59694 6.96231 6.78209
#
# Compressibility (1/GPa) = 0.02292271
#
# Stress axis : x y z
#
# Youngs Moduli (GPa) = 48.98753 104.42281 105.79241
#
# Poissons Ratio (x) = 0.53403 0.16406
# Poissons Ratio (y) = 0.25053 0.16872
# Poissons Ratio (z) = 0.07597 0.16654
#
# Static dielectric constant tensor:
#      x y z
#    x 3.844960 0.000000 0.000000 
#    y 0.000000 3.881690 0.000000 
#    z 0.000000 0.000000 3.721420 
# 
# 
# High freq. dielectric constant tensor:
#      x y z
#    x 1.815820 0.000000 0.000000 
#    y 0.000000 1.818500 0.000000 
#    z 0.000000 0.000000 1.818330 
# 
# From -- ./inp_files/51531.got.cif
#   From: 2010.03.12/outbox.cif.g09.slc.cpg/sg64_26_cif.got.tgz:51531.got - 2010.04.10 20:19:32.
