data_PCOD8264804
_publ_section_title
;
Structure prediction by ZEFSAII (Michael W. Deem and Ramdas Pophale) SiO2 
 PCOD8264804
Probable space group: C M C A
;
_chemical_formula_sum "Si O2"
_cell_formula_units_Z 112
_cell_length_a 26.198941
_cell_length_b 14.796403
_cell_length_c 14.610076
_cell_angle_alpha 90.000000
_cell_angle_beta 90.000000
_cell_angle_gamma 90.000000
_cell_volume 5663.597265
_symmetry_space_group_name_H-M "C M C A"
_symmetry_group_IT_number 64
_symmetry_cell_setting 'orthorhombic'
loop_
_space_group_symop_operation_xyz
x,y,z
-x,1/2-y,1/2+z
x,-y,-z
-x,1/2+y,1/2-z
-x,-y,-z
x,1/2+y,1/2-z
-x,y,z
x,1/2-y,1/2+z
1/2+x,1/2+y,z
1/2-x,-y,1/2+z
1/2+x,1/2-y,-z
1/2-x,y,1/2-z
1/2-x,1/2-y,-z
1/2+x,y,1/2-z
1/2-x,1/2+y,z
1/2+x,-y,1/2+z
loop_
_atom_site_type_symbol
_atom_site_label
_atom_site_fract_x
_atom_site_fract_y
_atom_site_fract_z
Si Si1 0.233114 0.785756 0.901584
Si Si2 0.500000 0.012765 0.846318
Si Si3 0.000000 0.146523 0.489180
Si Si4 0.641621 0.078077 0.430198
Si Si5 0.342345 0.820542 0.849591
Si Si6 0.110080 0.992497 0.736715
Si Si7 0.400238 0.245097 0.983331
Si Si8 0.149830 0.183138 0.693214
O O1 0.192717 0.867304 0.905726
O O2 0.280909 0.823652 0.843926
O O3 0.206601 0.703329 0.846020
O O4 0.250000 0.750000 0.000000
O O5 0.449319 0.013372 0.783922
O O6 0.500000 0.100057 0.911620
O O7 0.500000 0.924079 0.907781
O O8 0.047102 0.212854 0.474805
O O9 0.614819 0.038855 0.340688
O O10 0.601172 0.146079 0.477392
O O11 0.656734 0.000000 0.500000
O O12 0.367489 0.917774 0.832109
O O13 0.364004 0.748372 0.777548
O O14 0.354917 0.789095 0.951846
O O15 0.145623 0.080046 0.724402
O O16 0.392510 0.201527 0.883894
#
# Coordination Sequence:
#
# PCOD8264804 Si02
#       8
#    16   8   8  16  16  16  16  16
#     4  11  23  44  68  95 136 183 227 280 344 402
#     4  11  24  41  68 105 135 166 228 289 337 414
#     4  11  22  41  70 101 131 172 224 287 351 392
#     4  11  25  47  66  98 144 179 222 280 341 419
#     4  12  23  45  68  96 140 175 227 281 342 409
#     4  12  25  43  71 102 134 178 228 284 345 408
#     4  11  22  44  70  96 134 178 220 286 342 398
#     4  11  24  43  65  98 137 178 225 286 335 412
#
# _framework density 19.775417000000001
#
# number of rings (size 3 to 8) (size 9 to 14) (size 15 to 20)
#    0.000    0.714    8.571    1.286    0.000    2.286 
#    2.571    5.000    0.000    0.000    0.000    0.000 
#    0.000    0.000    0.000    0.000    0.000    0.000 
#
# Total GULP energy -694508.730757 kJ/mol
# GULP energy per Si atom -12401.941621 kJ/mol
# Density = 1.973041 g / cm^3
# Si number density = 19.775417 Si / 1000 Ang^3
#
#
#
# Elastic Constant Matrix: (Units=GPa)
#
#
# Indices 1 2 3 4 5 6 
#
# 1 129.7857 45.8956 32.8298 0.0000 0.0000 0.0000
# 2 45.8956 141.9895 43.5037 0.0000 0.0000 0.0000
# 3 32.8298 43.5037 84.5870 0.0000 0.0000 0.0000
# 4 0.0000 0.0000 0.0000 36.5226 0.0000 0.0000
# 5 0.0000 0.0000 0.0000 0.0000 21.1188 0.0000
# 6 0.0000 0.0000 0.0000 0.0000 0.0000 24.9393
#
#
#
# Elastic Compliance Matrix: (Units=1/GPa)
#
#
# Indices 1 2 3 4 5 6 
#
# 1 0.009090 -0.002205 -0.002394 0.000000 0.000000 0.000000
# 2 -0.002205 0.008895 -0.003719 0.000000 0.000000 0.000000
# 3 -0.002394 -0.003719 0.014664 0.000000 0.000000 0.000000
# 4 0.000000 0.000000 0.000000 0.027380 0.000000 0.000000
# 5 0.000000 0.000000 0.000000 0.000000 0.047351 0.000000
# 6 0.000000 0.000000 0.000000 0.000000 0.000000 0.040097
#
#
# Mechanical properties :
#
#
# Convention : Reuss Voigt Hill
#
# Bulk Modulus (GPa) = 62.44775 66.75781 64.60278
# Shear Modulus (GPa) = 29.50693 32.12501 30.81597
#
# Velocity S-wave (km/s) = 3.86696 4.03487 3.95181
# Velocity P-wave (km/s) = 7.18226 7.45239 7.31858
#
# Compressibility (1/GPa) = 0.01601339
#
# Stress axis : x y z
#
# Youngs Moduli (GPa) = 110.00761 112.42444 68.19378
#
# Poissons Ratio (x) = 0.24786 0.16327
# Poissons Ratio (y) = 0.24254 0.25361
# Poissons Ratio (z) = 0.26338 0.41811
#
# Static dielectric constant tensor:
#      x y z
#    x 3.648700 0.000000 0.000000 
#    y 0.000000 3.672210 0.000000 
#    z 0.000000 0.000000 3.657740 
# 
# 
# High freq. dielectric constant tensor:
#      x y z
#    x 1.769220 0.000000 0.000000 
#    y 0.000000 1.771910 0.000000 
#    z 0.000000 0.000000 1.784230 
# 
# From -- ./inp_files/28122.got.cif
#   From: 2010.03.12/outbox.cif.g09.slc.cpg/sg64_15_cif.got.tgz:28122.got - 2010.04.10 20:19:32.
