data_PCOD8264381
_publ_section_title
;
Structure prediction by ZEFSAII (Michael W. Deem and Ramdas Pophale) SiO2 
 PCOD8264381
Probable space group: C M C A
;
_chemical_formula_sum "Si O2"
_cell_formula_units_Z 72
_cell_length_a 27.116044
_cell_length_b 8.379374
_cell_length_c 12.952489
_cell_angle_alpha 90.000000
_cell_angle_beta 90.000000
_cell_angle_gamma 90.000000
_cell_volume 2943.005929
_symmetry_space_group_name_H-M "C M C A"
_symmetry_group_IT_number 64
_symmetry_cell_setting 'orthorhombic'
loop_
_space_group_symop_operation_xyz
x,y,z
-x,1/2-y,1/2+z
x,-y,-z
-x,1/2+y,1/2-z
-x,-y,-z
x,1/2+y,1/2-z
-x,y,z
x,1/2-y,1/2+z
1/2+x,1/2+y,z
1/2-x,-y,1/2+z
1/2+x,1/2-y,-z
1/2-x,y,1/2-z
1/2-x,1/2-y,-z
1/2+x,y,1/2-z
1/2-x,1/2+y,z
1/2+x,-y,1/2+z
loop_
_atom_site_type_symbol
_atom_site_label
_atom_site_fract_x
_atom_site_fract_y
_atom_site_fract_z
Si Si1 0.107487 0.849225 0.788003
Si Si2 0.232075 0.000000 0.500000
Si Si3 0.285956 0.234919 0.345744
Si Si4 0.444655 0.350874 0.441495
Si Si5 0.055842 0.160588 0.866210
O O1 0.166367 0.840133 0.790051
O O2 0.082860 0.822852 0.676037
O O3 0.089125 0.008194 0.842463
O O4 0.088196 0.687189 0.843044
O O5 0.265467 0.896876 0.576650
O O6 0.201145 0.887187 0.420359
O O7 0.250000 0.281357 0.250000
O O8 0.420601 0.500000 0.500000
O O9 0.500000 0.395807 0.405680
O O10 0.445770 0.190305 0.511423
O O11 0.000000 0.140957 0.822936
#
# Coordination Sequence:
#
# PCOD8264381 Si02
#       5
#    16   8  16  16  16
#     4  12  26  40  72  99 138 185 239 283 361 426
#     4  10  26  50  74 102 148 182 238 308 374 426
#     4  11  27  47  77 105 146 184 242 307 366 441
#     4  10  22  42  67  99 142 184 228 284 346 421
#     4  11  24  42  66 102 146 187 235 287 347 425
#
# _framework density 24.464780999999999
#
# number of rings (size 3 to 8) (size 9 to 14) (size 15 to 20)
#    0.000    1.111    0.000    4.667   10.889    5.333 
#    0.000    0.000    0.000    0.000    0.000    0.000 
#    0.000    0.000    0.000    0.000    0.000    0.000 
#
# Total GULP energy -446188.579223 kJ/mol
# GULP energy per Si atom -12394.127201 kJ/mol
# Density = 2.440910 g / cm^3
# Si number density = 24.464781 Si / 1000 Ang^3
#
#
#
# Elastic Constant Matrix: (Units=GPa)
#
#
# Indices 1 2 3 4 5 6 
#
# 1 114.5526 1.7616 19.1021 0.0000 0.0000 0.0000
# 2 1.7616 67.2258 -1.3896 0.0000 0.0000 0.0000
# 3 19.1021 -1.3896 89.8651 0.0000 0.0000 0.0000
# 4 0.0000 0.0000 0.0000 44.7394 0.0000 0.0000
# 5 0.0000 0.0000 0.0000 0.0000 8.4885 0.0000
# 6 0.0000 0.0000 0.0000 0.0000 0.0000 15.9176
#
#
#
# Elastic Compliance Matrix: (Units=1/GPa)
#
#
# Indices 1 2 3 4 5 6 
#
# 1 0.009056 -0.000277 -0.001929 0.000000 0.000000 0.000000
# 2 -0.000277 0.014888 0.000289 0.000000 0.000000 0.000000
# 3 -0.001929 0.000289 0.011542 0.000000 0.000000 0.000000
# 4 0.000000 0.000000 0.000000 0.022352 0.000000 0.000000
# 5 0.000000 0.000000 0.000000 0.000000 0.117807 0.000000
# 6 0.000000 0.000000 0.000000 0.000000 0.000000 0.062823
#
#
# Mechanical properties :
#
#
# Convention : Reuss Voigt Hill
#
# Bulk Modulus (GPa) = 31.59359 34.51018 33.05189
# Shear Modulus (GPa) = 19.77430 30.64040 25.20735
#
# Velocity S-wave (km/s) = 2.84610 3.54281 3.21339
# Velocity P-wave (km/s) = 4.87261 5.55626 5.22563
#
# Compressibility (1/GPa) = 0.03165199
#
# Stress axis : x y z
#
# Youngs Moduli (GPa) = 110.42926 67.16603 86.63757
#
# Poissons Ratio (x) = 0.01862 0.16714
# Poissons Ratio (y) = 0.03061 -0.02505
# Poissons Ratio (z) = 0.21304 -0.01942
#
# Static dielectric constant tensor:
#      x y z
#    x 4.066490 0.000000 0.000000 
#    y 0.000000 4.476480 0.000000 
#    z 0.000000 0.000000 4.693920 
# 
# 
# High freq. dielectric constant tensor:
#      x y z
#    x 1.945110 0.000000 0.000000 
#    y 0.000000 1.988810 0.000000 
#    z 0.000000 0.000000 1.991190 
# 
# From -- ./inp_files/27792.got.cif
#   From: 2010.03.12/outbox.cif.g09.slc.cpg/sg64_14_cif.got.tgz:27792.got - 2010.04.10 20:19:32.
