data_PCOD8264323
_publ_section_title
;
Structure prediction by ZEFSAII (Michael W. Deem and Ramdas Pophale) SiO2 
 PCOD8264323
Probable space group: C M C A
;
_chemical_formula_sum "Si O2"
_cell_formula_units_Z 56
_cell_length_a 9.687501
_cell_length_b 9.086329
_cell_length_c 28.886172
_cell_angle_alpha 90.000000
_cell_angle_beta 90.000000
_cell_angle_gamma 90.000000
_cell_volume 2542.671241
_symmetry_space_group_name_H-M "C M C A"
_symmetry_group_IT_number 64
_symmetry_cell_setting 'orthorhombic'
loop_
_space_group_symop_operation_xyz
x,y,z
-x,1/2-y,1/2+z
x,-y,-z
-x,1/2+y,1/2-z
-x,-y,-z
x,1/2+y,1/2-z
-x,y,z
x,1/2-y,1/2+z
1/2+x,1/2+y,z
1/2-x,-y,1/2+z
1/2+x,1/2-y,-z
1/2-x,y,1/2-z
1/2-x,1/2-y,-z
1/2+x,y,1/2-z
1/2-x,1/2+y,z
1/2+x,-y,1/2+z
loop_
_atom_site_type_symbol
_atom_site_label
_atom_site_fract_x
_atom_site_fract_y
_atom_site_fract_z
Si Si1 0.750000 0.997029 0.250000
Si Si2 0.649977 0.746439 0.312923
Si Si3 0.155961 0.428088 0.452085
Si Si4 0.657322 0.717559 0.101004
O O1 0.654161 0.101639 0.218896
O O2 0.656626 0.893573 0.282254
O O3 0.500000 0.747018 0.337915
O O4 0.772351 0.745922 0.349872
O O5 0.204563 0.500000 0.500000
O O6 0.262250 0.299237 0.440260
O O7 0.160885 0.545062 0.410262
O O8 0.000000 0.365644 0.457437
O O9 0.500000 0.775705 0.103423
#
# Coordination Sequence:
#
# PCOD8264323 Si02
#       4
#     8  16  16  16
#     4  10  24  40  62  90 116 152 202 248 292 350
#     4  11  23  41  63  87 119 157 197 244 297 351
#     4  10  22  41  63  88 120 158 200 246 296 351
#     4  11  24  39  60  91 122 155 198 244 294 355
#
# _framework density 22.024080000000001
#
# number of rings (size 3 to 8) (size 9 to 14) (size 15 to 20)
#    0.000    1.429    0.000    4.286    0.000   14.286 
#    0.000    0.000    0.000    0.000    0.000    0.000 
#    0.000    0.000    0.000    0.000    0.000    0.000 
#
# Total GULP energy -347289.409427 kJ/mol
# GULP energy per Si atom -12403.193194 kJ/mol
# Density = 2.197395 g / cm^3
# Si number density = 22.024080 Si / 1000 Ang^3
#
#
#
# Elastic Constant Matrix: (Units=GPa)
#
#
# Indices 1 2 3 4 5 6 
#
# 1 147.1474 29.5023 29.9874 0.0000 0.0000 0.0000
# 2 29.5023 86.1401 8.5779 0.0000 0.0000 0.0000
# 3 29.9874 8.5779 86.1929 0.0000 0.0000 0.0000
# 4 0.0000 0.0000 0.0000 16.6497 0.0000 0.0000
# 5 0.0000 0.0000 0.0000 0.0000 35.5568 0.0000
# 6 0.0000 0.0000 0.0000 0.0000 0.0000 18.5553
#
#
#
# Elastic Compliance Matrix: (Units=1/GPa)
#
#
# Indices 1 2 3 4 5 6 
#
# 1 0.007784 -0.002420 -0.002467 0.000000 0.000000 0.000000
# 2 -0.002420 0.012478 -0.000400 0.000000 0.000000 0.000000
# 3 -0.002467 -0.000400 0.012500 0.000000 0.000000 0.000000
# 4 0.000000 0.000000 0.000000 0.060061 0.000000 0.000000
# 5 0.000000 0.000000 0.000000 0.000000 0.028124 0.000000
# 6 0.000000 0.000000 0.000000 0.000000 0.000000 0.053893
#
#
# Mechanical properties :
#
#
# Convention : Reuss Voigt Hill
#
# Bulk Modulus (GPa) = 45.07101 50.62396 47.84749
# Shear Modulus (GPa) = 25.93224 30.91321 28.42272
#
# Velocity S-wave (km/s) = 3.43512 3.75054 3.59629
# Velocity P-wave (km/s) = 6.02015 6.46460 6.24633
#
# Compressibility (1/GPa) = 0.02218721
#
# Stress axis : x y z
#
# Youngs Moduli (GPa) = 128.46925 80.14286 79.99966
#
# Poissons Ratio (x) = 0.19397 0.19738
# Poissons Ratio (y) = 0.31093 0.03198
# Poissons Ratio (z) = 0.31697 0.03204
#
# Static dielectric constant tensor:
#      x y z
#    x 3.871370 0.000000 0.000000 
#    y 0.000000 4.003910 0.000000 
#    z 0.000000 0.000000 3.889640 
# 
# 
# High freq. dielectric constant tensor:
#      x y z
#    x 1.867740 0.000000 0.000000 
#    y 0.000000 1.868680 0.000000 
#    z 0.000000 0.000000 1.871860 
# 
# From -- ./inp_files/48944.got.cif
#   From: 2010.03.12/outbox.cif.g09.slc.cpg/sg64_25_cif.got.tgz:48944.got - 2010.04.10 20:19:32.
