data_PCOD8264671
_publ_section_title
;
Structure prediction by ZEFSAII (Michael W. Deem and Ramdas Pophale) SiO2 
 PCOD8264671
Probable space group: C M C A
;
_chemical_formula_sum "Si O2"
_cell_formula_units_Z 128
_cell_length_a 24.211631
_cell_length_b 21.248601
_cell_length_c 12.134555
_cell_angle_alpha 90.000000
_cell_angle_beta 90.000000
_cell_angle_gamma 90.000000
_cell_volume 6242.783048
_symmetry_space_group_name_H-M "C M C A"
_symmetry_group_IT_number 64
_symmetry_cell_setting 'orthorhombic'
loop_
_space_group_symop_operation_xyz
x,y,z
-x,1/2-y,1/2+z
x,-y,-z
-x,1/2+y,1/2-z
-x,-y,-z
x,1/2+y,1/2-z
-x,y,z
x,1/2-y,1/2+z
1/2+x,1/2+y,z
1/2-x,-y,1/2+z
1/2+x,1/2-y,-z
1/2-x,y,1/2-z
1/2-x,1/2-y,-z
1/2+x,y,1/2-z
1/2-x,1/2+y,z
1/2+x,-y,1/2+z
loop_
_atom_site_type_symbol
_atom_site_label
_atom_site_fract_x
_atom_site_fract_y
_atom_site_fract_z
Si Si1 0.262332 0.117220 0.502872
Si Si2 0.192089 0.460981 0.313885
Si Si3 0.435917 0.161399 0.479725
Si Si4 0.063407 0.194162 0.561180
Si Si5 0.709213 0.768414 0.344713
Si Si6 0.843463 0.147225 0.412406
Si Si7 0.151099 0.399856 0.669408
Si Si8 0.112660 0.150659 0.781801
O O1 0.292785 0.058747 0.561307
O O2 0.263615 0.175960 0.585469
O O3 0.199033 0.098189 0.471227
O O4 0.296391 0.131797 0.391201
O O5 0.250000 0.464418 0.250000
O O6 0.160154 0.526303 0.314809
O O7 0.149741 0.411292 0.258778
O O8 0.500000 0.149769 0.458509
O O9 0.418951 0.232795 0.448228
O O10 0.403658 0.113069 0.401412
O O11 0.421829 0.145004 0.605749
O O12 0.099497 0.152682 0.477335
O O13 0.070840 0.165399 0.682712
O O14 0.000000 0.186280 0.525589
O O15 0.750000 0.745613 0.250000
O O16 0.693928 0.710258 0.422748
O O17 0.652607 0.789707 0.287618
O O18 0.857392 0.131160 0.287773
#
# Coordination Sequence:
#
# PCOD8264671 Si02
#       8
#    16  16  16  16  16  16  16  16
#     4  11  21  37  61  90 131 168 210 264 326 390
#     4  11  23  41  66  93 133 175 218 264 328 384
#     4  11  24  43  67  97 130 171 217 277 334 381
#     4  11  24  43  68  96 129 170 215 271 334 397
#     4  11  20  34  59  92 134 163 203 262 332 394
#     4  12  23  38  60  96 133 165 218 258 336 394
#     4  12  24  41  61  95 131 175 218 271 314 394
#     4  11  21  43  66  95 128 168 221 265 322 396
#
# _framework density 20.503675000000001
#
# number of rings (size 3 to 8) (size 9 to 14) (size 15 to 20)
#    0.000    0.750    3.750    6.750    0.000    0.500 
#    0.000    3.750    0.000    0.750    0.000    0.000 
#    0.000    0.000    0.000    0.000    0.000    0.000 
#
# Total GULP energy -793680.338701 kJ/mol
# GULP energy per Si atom -12401.255292 kJ/mol
# Density = 2.045701 g / cm^3
# Si number density = 20.503675 Si / 1000 Ang^3
#
#
#
# Elastic Constant Matrix: (Units=GPa)
#
#
# Indices 1 2 3 4 5 6 
#
# 1 120.0909 36.4112 45.0308 0.0000 0.0000 0.0000
# 2 36.4112 74.3084 34.6512 0.0000 0.0000 0.0000
# 3 45.0308 34.6512 127.1149 0.0000 0.0000 0.0000
# 4 0.0000 0.0000 0.0000 20.1093 0.0000 0.0000
# 5 0.0000 0.0000 0.0000 0.0000 33.2277 0.0000
# 6 0.0000 0.0000 0.0000 0.0000 0.0000 26.4151
#
#
#
# Elastic Compliance Matrix: (Units=1/GPa)
#
#
# Indices 1 2 3 4 5 6 
#
# 1 0.010509 -0.003910 -0.002657 0.000000 0.000000 0.000000
# 2 -0.003910 0.016872 -0.003214 0.000000 0.000000 0.000000
# 3 -0.002657 -0.003214 0.009684 0.000000 0.000000 0.000000
# 4 0.000000 0.000000 0.000000 0.049728 0.000000 0.000000
# 5 0.000000 0.000000 0.000000 0.000000 0.030095 0.000000
# 6 0.000000 0.000000 0.000000 0.000000 0.000000 0.037857
#
#
# Mechanical properties :
#
#
# Convention : Reuss Voigt Hill
#
# Bulk Modulus (GPa) = 57.13381 61.52229 59.32805
# Shear Modulus (GPa) = 27.75570 29.64515 28.70043
#
# Velocity S-wave (km/s) = 3.68325 3.80655 3.74541
# Velocity P-wave (km/s) = 6.78337 7.02783 6.90668
#
# Compressibility (1/GPa) = 0.01750277
#
# Stress axis : x y z
#
# Youngs Moduli (GPa) = 95.15746 59.26862 103.26067
#
# Poissons Ratio (x) = 0.23177 0.27435
# Poissons Ratio (y) = 0.37211 0.33189
# Poissons Ratio (z) = 0.25282 0.19049
#
# Static dielectric constant tensor:
#      x y z
#    x 3.732500 0.000000 0.000000 
#    y 0.000000 3.665300 0.000000 
#    z 0.000000 0.000000 3.811190 
# 
# 
# High freq. dielectric constant tensor:
#      x y z
#    x 1.799980 0.000000 0.000000 
#    y 0.000000 1.786000 0.000000 
#    z 0.000000 0.000000 1.814360 
# 
# From -- ./inp_files/18696.got.cif
#   From: 2010.03.12/outbox.cif.g09.slc.cpg/sg64_10_cif.got.tgz:18696.got - 2010.04.10 20:19:32.
