data_PCOD8264729
_publ_section_title
;
Structure prediction by ZEFSAII (Michael W. Deem and Ramdas Pophale) SiO2 
 PCOD8264729
Probable space group: C M C A
;
_chemical_formula_sum "Si O2"
_cell_formula_units_Z 80
_cell_length_a 20.563921
_cell_length_b 11.591523
_cell_length_c 16.965159
_cell_angle_alpha 90.000000
_cell_angle_beta 90.000000
_cell_angle_gamma 90.000000
_cell_volume 4043.936825
_symmetry_space_group_name_H-M "C M C A"
_symmetry_group_IT_number 64
_symmetry_cell_setting 'orthorhombic'
loop_
_space_group_symop_operation_xyz
x,y,z
-x,1/2-y,1/2+z
x,-y,-z
-x,1/2+y,1/2-z
-x,-y,-z
x,1/2+y,1/2-z
-x,y,z
x,1/2-y,1/2+z
1/2+x,1/2+y,z
1/2-x,-y,1/2+z
1/2+x,1/2-y,-z
1/2-x,y,1/2-z
1/2-x,1/2-y,-z
1/2+x,y,1/2-z
1/2-x,1/2+y,z
1/2+x,-y,1/2+z
loop_
_atom_site_type_symbol
_atom_site_label
_atom_site_fract_x
_atom_site_fract_y
_atom_site_fract_z
Si Si1 0.138077 0.868341 0.345828
Si Si2 0.315909 0.500000 0.000000
Si Si3 0.368768 0.256950 0.004706
Si Si4 0.250000 0.249546 0.250000
Si Si5 0.789886 0.091562 0.392436
Si Si6 0.500000 0.063932 0.865326
Si Si7 0.000000 0.654984 0.043658
O O1 0.134228 0.768767 0.411602
O O2 0.189791 0.829950 0.279053
O O3 0.063212 0.888577 0.317388
O O4 0.156643 0.993046 0.380285
O O5 0.359787 0.608686 0.978492
O O6 0.274662 0.528062 0.078042
O O7 0.311400 0.179279 0.039893
O O8 0.435735 0.231748 0.048987
O O9 0.222069 0.165598 0.315342
O O10 0.500000 0.925730 0.878037
O O11 0.500000 0.098713 0.957258
#
# Coordination Sequence:
#
# PCOD8264729 Si02
#       7
#    16   8  16   8  16   8   8
#     4  11  21  41  64  93 125 164 215 271 319 388
#     4  12  22  35  60  91 134 168 212 272 324 366
#     4  11  21  38  65  93 124 165 217 267 322 372
#     4  12  26  38  58  98 132 164 208 266 340 388
#     4  12  22  39  63  90 127 168 215 268 322 386
#     4   9  18  36  67  91 121 161 209 262 317 378
#     4   9  18  35  63  97 117 157 213 261 314 381
#
# _framework density 19.782702
#
# number of rings (size 3 to 8) (size 9 to 14) (size 15 to 20)
#    0.000    1.000    6.000    2.400    0.000    0.400 
#    0.000    2.000    0.000    0.000    0.000    0.000 
#    0.000    0.000    0.000    0.000    0.000    0.000 
#
# Total GULP energy -495848.642200 kJ/mol
# GULP energy per Si atom -12396.216055 kJ/mol
# Density = 1.973768 g / cm^3
# Si number density = 19.782702 Si / 1000 Ang^3
#
#
#
# Elastic Constant Matrix: (Units=GPa)
#
#
# Indices 1 2 3 4 5 6 
#
# 1 146.3523 68.9551 41.4823 0.0000 0.0000 0.0000
# 2 68.9551 145.6630 29.1108 0.0000 0.0000 0.0000
# 3 41.4823 29.1108 60.3726 0.0000 0.0000 0.0000
# 4 0.0000 0.0000 0.0000 33.7100 0.0000 0.0000
# 5 0.0000 0.0000 0.0000 0.0000 20.7521 0.0000
# 6 0.0000 0.0000 0.0000 0.0000 0.0000 76.3360
#
#
#
# Elastic Compliance Matrix: (Units=1/GPa)
#
#
# Indices 1 2 3 4 5 6 
#
# 1 0.010036 -0.003732 -0.005096 0.000000 0.000000 0.000000
# 2 -0.003732 0.008985 -0.001768 0.000000 0.000000 0.000000
# 3 -0.005096 -0.001768 0.020918 0.000000 0.000000 0.000000
# 4 0.000000 0.000000 0.000000 0.029665 0.000000 0.000000
# 5 0.000000 0.000000 0.000000 0.000000 0.048188 0.000000
# 6 0.000000 0.000000 0.000000 0.000000 0.000000 0.013100
#
#
# Mechanical properties :
#
#
# Convention : Reuss Voigt Hill
#
# Bulk Modulus (GPa) = 53.34428 70.16493 61.75460
# Shear Modulus (GPa) = 31.57901 40.34894 35.96398
#
# Velocity S-wave (km/s) = 3.99970 4.52110 4.26837
# Velocity P-wave (km/s) = 6.95369 7.92456 7.45494
#
# Compressibility (1/GPa) = 0.01874615
#
# Stress axis : x y z
#
# Youngs Moduli (GPa) = 99.64359 111.29193 47.80623
#
# Poissons Ratio (x) = 0.41538 0.24362
# Poissons Ratio (y) = 0.37191 0.08452
# Poissons Ratio (z) = 0.50778 0.19677
#
# Static dielectric constant tensor:
#      x y z
#    x 3.870790 0.000000 0.000000 
#    y 0.000000 3.702060 0.000000 
#    z 0.000000 0.000000 3.464730 
# 
# 
# High freq. dielectric constant tensor:
#      x y z
#    x 1.781560 0.000000 0.000000 
#    y 0.000000 1.778960 0.000000 
#    z 0.000000 0.000000 1.735690 
# 
# From -- ./inp_files/34908.got.cif
#   From: 2010.03.12/outbox.cif.g09.slc.cpg/sg64_18_cif.got.tgz:34908.got - 2010.04.10 20:19:32.
