data_PCOD8264376
_publ_section_title
;
Structure prediction by ZEFSAII (Michael W. Deem and Ramdas Pophale) SiO2 
 PCOD8264376
Probable space group: C M C A
;
_chemical_formula_sum "Si O2"
_cell_formula_units_Z 80
_cell_length_a 7.789487
_cell_length_b 16.193002
_cell_length_c 28.368040
_cell_angle_alpha 90.000000
_cell_angle_beta 90.000000
_cell_angle_gamma 90.000000
_cell_volume 3578.207791
_symmetry_space_group_name_H-M "C M C A"
_symmetry_group_IT_number 64
_symmetry_cell_setting 'orthorhombic'
loop_
_space_group_symop_operation_xyz
x,y,z
-x,1/2-y,1/2+z
x,-y,-z
-x,1/2+y,1/2-z
-x,-y,-z
x,1/2+y,1/2-z
-x,y,z
x,1/2-y,1/2+z
1/2+x,1/2+y,z
1/2-x,-y,1/2+z
1/2+x,1/2-y,-z
1/2-x,y,1/2-z
1/2-x,1/2-y,-z
1/2+x,y,1/2-z
1/2-x,1/2+y,z
1/2+x,-y,1/2+z
loop_
_atom_site_type_symbol
_atom_site_label
_atom_site_fract_x
_atom_site_fract_y
_atom_site_fract_z
Si Si1 0.701043 0.598425 0.195948
Si Si2 0.304325 0.765844 0.150725
Si Si3 0.803441 0.436756 0.359061
Si Si4 0.191863 0.708803 0.451889
Si Si5 0.000000 0.069732 0.568523
Si Si6 0.000000 0.106414 0.468929
O O1 0.500000 0.601653 0.188925
O O2 0.750000 0.596465 0.250000
O O3 0.779487 0.681388 0.171754
O O4 0.767068 0.513520 0.172013
O O5 0.500000 0.773210 0.168114
O O6 0.204918 0.848401 0.168895
O O7 0.297604 0.767803 0.093683
O O8 0.674011 0.424771 0.402158
O O9 0.000000 0.452302 0.375675
O O10 0.250000 0.750000 0.500000
O O11 0.328282 0.636408 0.442489
O O12 0.000000 0.671306 0.456493
O O13 0.000000 0.136844 0.525033
O O14 0.000000 0.989791 0.536994
#
# Coordination Sequence:
#
# PCOD8264376 Si02
#       6
#    16  16  16  16   8   8
#     4  10  24  44  67  98 132 169 219 277 338 401
#     4  10  22  42  66  95 133 177 221 270 333 395
#     4  11  24  43  68  95 131 175 218 269 334 397
#     4  11  22  38  61  93 135 174 222 275 326 393
#     4  11  24  42  62  90 133 171 221 277 327 391
#     4  11  24  38  60  94 125 177 227 269 333 390
#
# _framework density 22.357562000000001
#
# number of rings (size 3 to 8) (size 9 to 14) (size 15 to 20)
#    0.000    1.400    2.000    2.400    2.800    6.400 
#    0.000    6.000    0.000    0.000    0.000    0.000 
#    0.000    0.000    0.000    0.000    0.000    0.000 
#
# Total GULP energy -495640.423953 kJ/mol
# GULP energy per Si atom -12391.010599 kJ/mol
# Density = 2.230668 g / cm^3
# Si number density = 22.357562 Si / 1000 Ang^3
#
#
#
# Elastic Constant Matrix: (Units=GPa)
#
#
# Indices 1 2 3 4 5 6 
#
# 1 124.8708 35.5382 27.0030 0.0000 0.0000 0.0000
# 2 35.5382 166.0478 51.5479 0.0000 0.0000 0.0000
# 3 27.0030 51.5479 83.7505 0.0000 0.0000 0.0000
# 4 0.0000 0.0000 0.0000 33.2883 0.0000 0.0000
# 5 0.0000 0.0000 0.0000 0.0000 26.5284 0.0000
# 6 0.0000 0.0000 0.0000 0.0000 0.0000 25.2099
#
#
#
# Elastic Compliance Matrix: (Units=1/GPa)
#
#
# Indices 1 2 3 4 5 6 
#
# 1 0.008811 -0.001241 -0.002077 0.000000 0.000000 0.000000
# 2 -0.001241 0.007620 -0.004290 0.000000 0.000000 0.000000
# 3 -0.002077 -0.004290 0.015250 0.000000 0.000000 0.000000
# 4 0.000000 0.000000 0.000000 0.030041 0.000000 0.000000
# 5 0.000000 0.000000 0.000000 0.000000 0.037696 0.000000
# 6 0.000000 0.000000 0.000000 0.000000 0.000000 0.039667
#
#
# Mechanical properties :
#
#
# Convention : Reuss Voigt Hill
#
# Bulk Modulus (GPa) = 60.73412 66.98303 63.85857
# Shear Modulus (GPa) = 31.29162 34.37730 32.83446
#
# Velocity S-wave (km/s) = 3.74518 3.92550 3.83640
# Velocity P-wave (km/s) = 6.77685 7.11133 6.94610
#
# Compressibility (1/GPa) = 0.01646521
#
# Stress axis : x y z
#
# Youngs Moduli (GPa) = 113.49994 131.23939 65.57286
#
# Poissons Ratio (x) = 0.16286 0.13619
# Poissons Ratio (y) = 0.14084 0.28129
# Poissons Ratio (z) = 0.23573 0.56299
#
# Static dielectric constant tensor:
#      x y z
#    x 4.074190 0.000000 0.000000 
#    y 0.000000 4.743550 0.000000 
#    z 0.000000 0.000000 3.739620 
# 
# 
# High freq. dielectric constant tensor:
#      x y z
#    x 1.877420 0.000000 0.000000 
#    y 0.000000 1.902710 0.000000 
#    z 0.000000 0.000000 1.862130 
# 
# From -- ./inp_files/47912.got.cif
#   From: 2010.03.12/outbox.cif.g09.slc.cpg/sg64_24_cif.got.tgz:47912.got - 2010.04.10 20:19:32.
