data_PCOD8264447
_publ_section_title
;
Structure prediction by ZEFSAII (Michael W. Deem and Ramdas Pophale) SiO2 
 PCOD8264447
Probable space group: C M C A
;
_chemical_formula_sum "Si O2"
_cell_formula_units_Z 96
_cell_length_a 19.205309
_cell_length_b 18.267931
_cell_length_c 14.002760
_cell_angle_alpha 90.000000
_cell_angle_beta 90.000000
_cell_angle_gamma 90.000000
_cell_volume 4912.745957
_symmetry_space_group_name_H-M "C M C A"
_symmetry_group_IT_number 64
_symmetry_cell_setting 'orthorhombic'
loop_
_space_group_symop_operation_xyz
x,y,z
-x,1/2-y,1/2+z
x,-y,-z
-x,1/2+y,1/2-z
-x,-y,-z
x,1/2+y,1/2-z
-x,y,z
x,1/2-y,1/2+z
1/2+x,1/2+y,z
1/2-x,-y,1/2+z
1/2+x,1/2-y,-z
1/2-x,y,1/2-z
1/2-x,1/2-y,-z
1/2+x,y,1/2-z
1/2-x,1/2+y,z
1/2+x,-y,1/2+z
loop_
_atom_site_type_symbol
_atom_site_label
_atom_site_fract_x
_atom_site_fract_y
_atom_site_fract_z
Si Si1 0.419876 0.463292 0.092196
Si Si2 0.329757 0.237790 0.284927
Si Si3 0.710403 0.942940 0.913877
Si Si4 0.678544 0.209358 0.986542
Si Si5 0.846315 0.070511 0.209539
Si Si6 0.416655 0.300107 0.115450
O O1 0.500000 0.449536 0.072225
O O2 0.410895 0.519326 0.180152
O O3 0.387619 0.383029 0.108018
O O4 0.383927 0.500000 0.000000
O O5 0.250000 0.230125 0.250000
O O6 0.334453 0.293977 0.373242
O O7 0.358436 0.156585 0.307134
O O8 0.382780 0.270064 0.210449
O O9 0.689200 0.867047 0.961865
O O10 0.785752 0.950858 0.865639
O O11 0.661636 0.951098 0.820712
O O12 0.699019 0.000000 0.000000
O O13 0.612372 0.252719 0.027972
O O14 0.750000 0.250000 0.000000
O O15 0.500000 0.293555 0.119400
#
# Coordination Sequence:
#
# PCOD8264447 Si02
#       6
#    16  16  16  16  16  16
#     4  10  23  40  62  92 124 165 213 260 322 388
#     4  12  22  40  66  97 126 167 217 268 321 382
#     4  11  24  38  59  98 128 162 211 262 316 382
#     4  12  22  41  69  93 127 168 215 268 320 379
#     4  11  20  40  61  88 129 161 207 259 317 381
#     4  11  25  44  64  96 131 165 217 270 320 387
#
# _framework density 19.541007
#
# number of rings (size 3 to 8) (size 9 to 14) (size 15 to 20)
#    0.000    0.833    6.667    1.500    4.667    1.333 
#    0.000    0.000    0.000    1.000    0.000    0.000 
#    0.000    0.000    0.000    0.000    0.000    0.000 
#
# Total GULP energy -594711.515874 kJ/mol
# GULP energy per Si atom -12389.823247 kJ/mol
# Density = 1.949653 g / cm^3
# Si number density = 19.541007 Si / 1000 Ang^3
#
#
#
# Elastic Constant Matrix: (Units=GPa)
#
#
# Indices 1 2 3 4 5 6 
#
# 1 62.5644 39.1609 24.7803 0.0000 0.0000 0.0000
# 2 39.1609 135.4696 59.3740 0.0000 0.0000 0.0000
# 3 24.7803 59.3740 135.9772 0.0000 0.0000 0.0000
# 4 0.0000 0.0000 0.0000 41.9400 0.0000 0.0000
# 5 0.0000 0.0000 0.0000 0.0000 28.7820 0.0000
# 6 0.0000 0.0000 0.0000 0.0000 0.0000 17.9962
#
#
#
# Elastic Compliance Matrix: (Units=1/GPa)
#
#
# Indices 1 2 3 4 5 6 
#
# 1 0.019718 -0.005101 -0.001366 0.000000 0.000000 0.000000
# 2 -0.005101 0.010449 -0.003633 0.000000 0.000000 0.000000
# 3 -0.001366 -0.003633 0.009189 0.000000 0.000000 0.000000
# 4 0.000000 0.000000 0.000000 0.023844 0.000000 0.000000
# 5 0.000000 0.000000 0.000000 0.000000 0.034744 0.000000
# 6 0.000000 0.000000 0.000000 0.000000 0.000000 0.055567
#
#
# Mechanical properties :
#
#
# Convention : Reuss Voigt Hill
#
# Bulk Modulus (GPa) = 52.20348 64.51573 58.35961
# Shear Modulus (GPa) = 27.76312 31.79003 29.77657
#
# Velocity S-wave (km/s) = 3.77339 4.03778 3.90782
# Velocity P-wave (km/s) = 6.76443 7.40442 7.09165
#
# Compressibility (1/GPa) = 0.01915581
#
# Stress axis : x y z
#
# Youngs Moduli (GPa) = 50.71637 95.70751 108.82241
#
# Poissons Ratio (x) = 0.48822 0.14864
# Poissons Ratio (y) = 0.25871 0.39532
# Poissons Ratio (z) = 0.06927 0.34767
#
# Static dielectric constant tensor:
#      x y z
#    x 3.399680 0.000000 0.000000 
#    y 0.000000 3.772040 0.000000 
#    z 0.000000 0.000000 3.642010 
# 
# 
# High freq. dielectric constant tensor:
#      x y z
#    x 1.739330 0.000000 0.000000 
#    y 0.000000 1.769910 0.000000 
#    z 0.000000 0.000000 1.782050 
# 
# From -- ./inp_files/26328.got.cif
#   From: 2010.03.12/outbox.cif.g09.slc.cpg/sg64_14_cif.got.tgz:26328.got - 2010.04.10 20:19:32.
