data_PCOD8264926
_publ_section_title
;
Structure prediction by ZEFSAII (Michael W. Deem and Ramdas Pophale) SiO2 
 PCOD8264926
Probable space group: C M C A
;
_chemical_formula_sum "Si O2"
_cell_formula_units_Z 48
_cell_length_a 18.502769
_cell_length_b 10.680027
_cell_length_c 9.920837
_cell_angle_alpha 90.000000
_cell_angle_beta 90.000000
_cell_angle_gamma 90.000000
_cell_volume 1960.457319
_symmetry_space_group_name_H-M "C M C A"
_symmetry_group_IT_number 64
_symmetry_cell_setting 'orthorhombic'
loop_
_space_group_symop_operation_xyz
x,y,z
-x,1/2-y,1/2+z
x,-y,-z
-x,1/2+y,1/2-z
-x,-y,-z
x,1/2+y,1/2-z
-x,y,z
x,1/2-y,1/2+z
1/2+x,1/2+y,z
1/2-x,-y,1/2+z
1/2+x,1/2-y,-z
1/2-x,y,1/2-z
1/2-x,1/2-y,-z
1/2+x,y,1/2-z
1/2-x,1/2+y,z
1/2+x,-y,1/2+z
loop_
_atom_site_type_symbol
_atom_site_label
_atom_site_fract_x
_atom_site_fract_y
_atom_site_fract_z
Si Si1 0.500000 0.026641 0.838751
Si Si2 0.376631 0.203097 0.858959
Si Si3 0.712598 0.000000 0.000000
Si Si4 0.500000 0.622753 0.088485
Si Si5 0.750000 0.144178 0.250000
O O1 0.430003 0.104057 0.787137
O O2 0.500000 0.900748 0.751150
O O3 0.500000 0.000000 0.000000
O O4 0.427021 0.299910 0.942014
O O5 0.322065 0.269485 0.752635
O O6 0.332681 0.123983 0.967976
O O7 0.759476 0.049044 0.124806
O O8 0.500000 0.500000 0.000000
#
# Coordination Sequence:
#
# PCOD8264926 Si02
#       5
#     8  16   8   8   8
#     4  11  24  49  75 109 149 198 253 320 378 458
#     4  11  26  45  79 107 152 200 258 313 391 446
#     4  12  26  49  76 107 160 200 262 318 388 457
#     4  11  28  44  78 110 150 193 265 315 387 460
#     4  12  28  48  76 116 156 208 256 320 388 470
#
# _framework density 24.484082000000001
#
# number of rings (size 3 to 8) (size 9 to 14) (size 15 to 20)
#    0.000    0.667    1.667    4.000    7.000    2.667 
#    0.000    0.000    0.000    0.000    0.000    0.000 
#    0.000    0.000    0.000    0.000    0.000    0.000 
#
# Total GULP energy -297425.298728 kJ/mol
# GULP energy per Si atom -12392.720780 kJ/mol
# Density = 2.442836 g / cm^3
# Si number density = 24.484082 Si / 1000 Ang^3
#
#
#
# Elastic Constant Matrix: (Units=GPa)
#
#
# Indices 1 2 3 4 5 6 
#
# 1 133.1917 44.4418 25.4864 0.0000 0.0000 0.0000
# 2 44.4418 139.6100 50.5598 0.0000 0.0000 0.0000
# 3 25.4864 50.5598 110.9428 0.0000 0.0000 0.0000
# 4 0.0000 0.0000 0.0000 49.6873 0.0000 0.0000
# 5 0.0000 0.0000 0.0000 0.0000 21.7669 0.0000
# 6 0.0000 0.0000 0.0000 0.0000 0.0000 28.8121
#
#
#
# Elastic Compliance Matrix: (Units=1/GPa)
#
#
# Indices 1 2 3 4 5 6 
#
# 1 0.008468 -0.002385 -0.000859 0.000000 0.000000 0.000000
# 2 -0.002385 0.009250 -0.003668 0.000000 0.000000 0.000000
# 3 -0.000859 -0.003668 0.010882 0.000000 0.000000 0.000000
# 4 0.000000 0.000000 0.000000 0.020126 0.000000 0.000000
# 5 0.000000 0.000000 0.000000 0.000000 0.045941 0.000000
# 6 0.000000 0.000000 0.000000 0.000000 0.000000 0.034708
#
#
# Mechanical properties :
#
#
# Convention : Reuss Voigt Hill
#
# Bulk Modulus (GPa) = 67.66545 69.41339 68.53942
# Shear Modulus (GPa) = 33.75562 37.60369 35.67965
#
# Velocity S-wave (km/s) = 3.71708 3.92323 3.82155
# Velocity P-wave (km/s) = 6.79108 6.99531 6.89395
#
# Compressibility (1/GPa) = 0.01477859
#
# Stress axis : x y z
#
# Youngs Moduli (GPa) = 118.09243 108.10585 91.89160
#
# Poissons Ratio (x) = 0.25780 0.07889
# Poissons Ratio (y) = 0.28161 0.33704
# Poissons Ratio (z) = 0.10139 0.39651
#
# Static dielectric constant tensor:
#      x y z
#    x 4.569330 0.000000 0.000000 
#    y 0.000000 4.736320 0.000000 
#    z 0.000000 0.000000 3.878560 
# 
# 
# High freq. dielectric constant tensor:
#      x y z
#    x 1.981310 0.000000 0.000000 
#    y 0.000000 1.996240 0.000000 
#    z 0.000000 0.000000 1.946430 
# 
# From -- ./inp_files/15258.got.cif
#   From: 2010.03.12/outbox.cif.g09.slc.cpg/sg64_8_cif.got.tgz:15258.got - 2010.04.10 20:19:32.
