data_PCOD8264921
_publ_section_title
;
Structure prediction by ZEFSAII (Michael W. Deem and Ramdas Pophale) SiO2 
 PCOD8264921
Probable space group: C M C A
;
_chemical_formula_sum "Si O2"
_cell_formula_units_Z 48
_cell_length_a 24.752744
_cell_length_b 9.302127
_cell_length_c 8.924230
_cell_angle_alpha 90.000000
_cell_angle_beta 90.000000
_cell_angle_gamma 90.000000
_cell_volume 2054.832232
_symmetry_space_group_name_H-M "C M C A"
_symmetry_group_IT_number 64
_symmetry_cell_setting 'orthorhombic'
loop_
_space_group_symop_operation_xyz
x,y,z
-x,1/2-y,1/2+z
x,-y,-z
-x,1/2+y,1/2-z
-x,-y,-z
x,1/2+y,1/2-z
-x,y,z
x,1/2-y,1/2+z
1/2+x,1/2+y,z
1/2-x,-y,1/2+z
1/2+x,1/2-y,-z
1/2-x,y,1/2-z
1/2-x,1/2-y,-z
1/2+x,y,1/2-z
1/2-x,1/2+y,z
1/2+x,-y,1/2+z
loop_
_atom_site_type_symbol
_atom_site_label
_atom_site_fract_x
_atom_site_fract_y
_atom_site_fract_z
Si Si1 0.782711 0.859289 0.098599
Si Si2 0.061306 0.576109 0.810424
Si Si3 0.396666 0.783370 0.899934
O O1 0.750000 0.899884 0.250000
O O2 0.750000 0.750000 0.000000
O O3 0.837709 0.776842 0.137758
O O4 0.794459 0.000000 0.000000
O O5 0.062139 0.657917 0.652159
O O6 0.091605 0.681436 0.927789
O O7 0.000000 0.545052 0.860913
O O8 0.093960 0.427324 0.801696
#
# Coordination Sequence:
#
# PCOD8264921 Si02
#       3
#    16  16  16
#     4  12  29  49  77 110 149 197 250 312 378 446
#     4  11  24  46  73 106 149 193 242 303 365 440
#     4  11  26  44  72 106 144 189 246 297 369 438
#
# _framework density 23.359570999999999
#
# number of rings (size 3 to 8) (size 9 to 14) (size 15 to 20)
#    0.000    0.667    0.000    7.000   18.667    0.000 
#    0.000    3.333    0.000    0.000    0.000    0.000 
#    0.000    0.000    0.000    0.000    0.000    0.000 
#
# Total GULP energy -297581.178431 kJ/mol
# GULP energy per Si atom -12399.215768 kJ/mol
# Density = 2.330640 g / cm^3
# Si number density = 23.359571 Si / 1000 Ang^3
#
#
#
# Elastic Constant Matrix: (Units=GPa)
#
#
# Indices 1 2 3 4 5 6 
#
# 1 156.9458 77.0497 49.3241 0.0000 0.0000 0.0000
# 2 77.0497 175.6950 62.6516 0.0000 0.0000 0.0000
# 3 49.3241 62.6516 67.0241 0.0000 0.0000 0.0000
# 4 0.0000 0.0000 0.0000 57.8365 0.0000 0.0000
# 5 0.0000 0.0000 0.0000 0.0000 30.6864 0.0000
# 6 0.0000 0.0000 0.0000 0.0000 0.0000 37.2457
#
#
#
# Elastic Compliance Matrix: (Units=1/GPa)
#
#
# Indices 1 2 3 4 5 6 
#
# 1 0.008891 -0.002349 -0.004347 0.000000 0.000000 0.000000
# 2 -0.002349 0.009158 -0.006832 0.000000 0.000000 0.000000
# 3 -0.004347 -0.006832 0.024506 0.000000 0.000000 0.000000
# 4 0.000000 0.000000 0.000000 0.017290 0.000000 0.000000
# 5 0.000000 0.000000 0.000000 0.000000 0.032588 0.000000
# 6 0.000000 0.000000 0.000000 0.000000 0.000000 0.026849
#
#
# Mechanical properties :
#
#
# Convention : Reuss Voigt Hill
#
# Bulk Modulus (GPa) = 64.52399 86.41289 75.46844
# Shear Modulus (GPa) = 33.00244 39.19635 36.09940
#
# Velocity S-wave (km/s) = 3.76280 4.10073 3.93540
# Velocity P-wave (km/s) = 6.82351 7.71324 7.28198
#
# Compressibility (1/GPa) = 0.01549811
#
# Stress axis : x y z
#
# Youngs Moduli (GPa) = 112.47278 109.19432 40.80685
#
# Poissons Ratio (x) = 0.25648 0.17741
# Poissons Ratio (y) = 0.26418 0.27879
# Poissons Ratio (z) = 0.48897 0.74602
#
# Static dielectric constant tensor:
#      x y z
#    x 15.762870 0.000000 0.000000 
#    y 0.000000 4.055540 0.000000 
#    z 0.000000 0.000000 6.412140 
# 
# 
# High freq. dielectric constant tensor:
#      x y z
#    x 1.931300 0.000000 0.000000 
#    y 0.000000 1.943920 0.000000 
#    z 0.000000 0.000000 1.925910 
# 
# From -- ./inp_files/10793.got.cif
#   From: 2010.03.12/outbox.cif.g09.slc.cpg/sg64_6_cif.got.tgz:10793.got - 2010.04.10 20:19:32.
