data_PCOD8264233
_publ_section_title
;
Structure prediction by ZEFSAII (Michael W. Deem and Ramdas Pophale) SiO2 
 PCOD8264233
Probable space group: C M C A
;
_chemical_formula_sum "Si O2"
_cell_formula_units_Z 64
_cell_length_a 26.630032
_cell_length_b 17.471836
_cell_length_c 4.798829
_cell_angle_alpha 90.000000
_cell_angle_beta 90.000000
_cell_angle_gamma 90.000000
_cell_volume 2232.777811
_symmetry_space_group_name_H-M "C M C A"
_symmetry_group_IT_number 64
_symmetry_cell_setting 'orthorhombic'
loop_
_space_group_symop_operation_xyz
x,y,z
-x,1/2-y,1/2+z
x,-y,-z
-x,1/2+y,1/2-z
-x,-y,-z
x,1/2+y,1/2-z
-x,y,z
x,1/2-y,1/2+z
1/2+x,1/2+y,z
1/2-x,-y,1/2+z
1/2+x,1/2-y,-z
1/2-x,y,1/2-z
1/2-x,1/2-y,-z
1/2+x,y,1/2-z
1/2-x,1/2+y,z
1/2+x,-y,1/2+z
loop_
_atom_site_type_symbol
_atom_site_label
_atom_site_fract_x
_atom_site_fract_y
_atom_site_fract_z
Si Si1 0.387632 0.695637 0.925699
Si Si2 0.250000 0.444290 0.750000
Si Si3 0.555238 0.555513 0.243211
Si Si4 0.000000 0.698506 0.615215
Si Si5 0.152253 0.908710 0.505730
O O1 0.377566 0.730135 0.230515
O O2 0.444946 0.657125 0.919423
O O3 0.351301 0.628818 0.802953
O O4 0.232169 0.500000 0.500000
O O5 0.204636 0.387243 0.843886
O O6 0.546309 0.500000 0.500000
O O7 0.500000 0.597504 0.189942
O O8 0.602312 0.614203 0.306261
O O9 0.571652 0.500000 0.000000
O O10 0.000000 0.723452 0.938278
O O11 0.152247 0.000000 0.500000
#
# Coordination Sequence:
#
# PCOD8264233 Si02
#       5
#    16   8  16   8  16
#     4  10  22  39  60  87 123 161 202 247 304 364
#     4  10  22  40  62  90 122 160 202 254 310 366
#     4   9  18  32  51  81 116 146 183 240 297 343
#     4   8  16  34  55  78 115 162 196 230 292 368
#     4  10  22  40  65  90 121 160 209 252 306 361
#
# _framework density 28.663844999999998
#
# number of rings (size 3 to 8) (size 9 to 14) (size 15 to 20)
#    0.000    2.500    0.000    0.750    1.750    8.000 
#    0.000    1.250    0.000    0.000    0.000    0.000 
#    0.000    0.000    0.000    0.000    0.000    0.000 
#
# Total GULP energy -396577.061246 kJ/mol
# GULP energy per Si atom -12393.033164 kJ/mol
# Density = 2.859861 g / cm^3
# Si number density = 28.663845 Si / 1000 Ang^3
#
#
#
# Elastic Constant Matrix: (Units=GPa)
#
#
# Indices 1 2 3 4 5 6 
#
# 1 184.6048 19.9344 11.9702 0.0000 0.0000 0.0000
# 2 19.9344 102.6554 9.9820 0.0000 0.0000 0.0000
# 3 11.9702 9.9820 107.0078 0.0000 0.0000 0.0000
# 4 0.0000 0.0000 0.0000 37.7080 0.0000 0.0000
# 5 0.0000 0.0000 0.0000 0.0000 56.5257 0.0000
# 6 0.0000 0.0000 0.0000 0.0000 0.0000 12.3570
#
#
#
# Elastic Compliance Matrix: (Units=1/GPa)
#
#
# Indices 1 2 3 4 5 6 
#
# 1 0.005562 -0.001029 -0.000526 0.000000 0.000000 0.000000
# 2 -0.001029 0.010021 -0.000820 0.000000 0.000000 0.000000
# 3 -0.000526 -0.000820 0.009480 0.000000 0.000000 0.000000
# 4 0.000000 0.000000 0.000000 0.026520 0.000000 0.000000
# 5 0.000000 0.000000 0.000000 0.000000 0.017691 0.000000
# 6 0.000000 0.000000 0.000000 0.000000 0.000000 0.080926
#
#
# Mechanical properties :
#
#
# Convention : Reuss Voigt Hill
#
# Bulk Modulus (GPa) = 49.22759 53.11569 51.17164
# Shear Modulus (GPa) = 30.91744 44.81022 37.86383
#
# Velocity S-wave (km/s) = 3.28780 3.95815 3.63845
# Velocity P-wave (km/s) = 5.62354 6.28172 5.96172
#
# Compressibility (1/GPa) = 0.02031381
#
# Stress axis : x y z
#
# Youngs Moduli (GPa) = 179.78469 99.79202 105.48033
#
# Poissons Ratio (x) = 0.10268 0.05551
# Poissons Ratio (y) = 0.18499 0.08646
# Poissons Ratio (z) = 0.09461 0.08180
#
# Static dielectric constant tensor:
#      x y z
#    x 7.224020 0.000000 0.000000 
#    y 0.000000 4.980810 0.000000 
#    z 0.000000 0.000000 5.936750 
# 
# 
# High freq. dielectric constant tensor:
#      x y z
#    x 2.151500 0.000000 0.000000 
#    y 0.000000 2.177050 0.000000 
#    z 0.000000 0.000000 2.206160 
# 
# From -- ./inp_files/2736.got.cif
#   From: 2010.03.12/outbox.cif.g09.slc.cpg/sg64_2_cif.got.tgz:2736.got - 2010.04.10 20:19:32.
