data_PCOD8264927
_publ_section_title
;
Structure prediction by ZEFSAII (Michael W. Deem and Ramdas Pophale) SiO2 
 PCOD8264927
Probable space group: C M C A
;
_chemical_formula_sum "Si O2"
_cell_formula_units_Z 64
_cell_length_a 19.428922
_cell_length_b 15.418489
_cell_length_c 10.195462
_cell_angle_alpha 90.000000
_cell_angle_beta 90.000000
_cell_angle_gamma 90.000000
_cell_volume 3054.199701
_symmetry_space_group_name_H-M "C M C A"
_symmetry_group_IT_number 64
_symmetry_cell_setting 'orthorhombic'
loop_
_space_group_symop_operation_xyz
x,y,z
-x,1/2-y,1/2+z
x,-y,-z
-x,1/2+y,1/2-z
-x,-y,-z
x,1/2+y,1/2-z
-x,y,z
x,1/2-y,1/2+z
1/2+x,1/2+y,z
1/2-x,-y,1/2+z
1/2+x,1/2-y,-z
1/2-x,y,1/2-z
1/2-x,1/2-y,-z
1/2+x,y,1/2-z
1/2-x,1/2+y,z
1/2+x,-y,1/2+z
loop_
_atom_site_type_symbol
_atom_site_label
_atom_site_fract_x
_atom_site_fract_y
_atom_site_fract_z
Si Si1 0.077577 0.143246 0.037309
Si Si2 0.075328 0.530679 0.699535
Si Si3 0.198344 0.459000 0.138155
Si Si4 0.294849 0.743457 0.627095
O O1 0.072252 0.056029 0.117410
O O2 0.132687 0.207082 0.105055
O O3 0.000000 0.185329 0.032660
O O4 0.101666 0.112490 0.890671
O O5 0.122571 0.509266 0.824102
O O6 0.000000 0.554284 0.753134
O O7 0.250000 0.493140 0.250000
O O8 0.190524 0.356807 0.143496
O O9 0.222088 0.500000 0.000000
O O10 0.250000 0.780650 0.750000
O O11 0.250000 0.750000 0.500000
#
# Coordination Sequence:
#
# PCOD8264927 Si02
#       4
#    16  16  16  16
#     4   9  19  39  68  92 121 167 207 251 316 384
#     4   9  20  40  65  93 123 160 210 255 308 382
#     4  11  26  41  63  92 126 169 208 262 317 373
#     4  11  25  41  60  95 127 158 210 264 311 374
#
# _framework density 20.954751999999999
#
# number of rings (size 3 to 8) (size 9 to 14) (size 15 to 20)
#    0.000    2.000    0.000    4.500   10.500    1.500 
#    0.000    1.250    0.000    0.000    0.000    0.000 
#    0.000    0.000    0.000    0.000    0.000    0.000 
#
# Total GULP energy -396477.682861 kJ/mol
# GULP energy per Si atom -12389.927589 kJ/mol
# Density = 2.090706 g / cm^3
# Si number density = 20.954752 Si / 1000 Ang^3
#
#
#
# Elastic Constant Matrix: (Units=GPa)
#
#
# Indices 1 2 3 4 5 6 
#
# 1 147.1577 44.5816 73.8978 0.0000 0.0000 0.0000
# 2 44.5816 56.0778 24.1806 0.0000 0.0000 0.0000
# 3 73.8978 24.1806 141.2964 0.0000 0.0000 0.0000
# 4 0.0000 0.0000 0.0000 26.4927 0.0000 0.0000
# 5 0.0000 0.0000 0.0000 0.0000 40.7779 0.0000
# 6 0.0000 0.0000 0.0000 0.0000 0.0000 38.0449
#
#
#
# Elastic Compliance Matrix: (Units=1/GPa)
#
#
# Indices 1 2 3 4 5 6 
#
# 1 0.011252 -0.006918 -0.004701 0.000000 0.000000 0.000000
# 2 -0.006918 0.023507 -0.000405 0.000000 0.000000 0.000000
# 3 -0.004701 -0.000405 0.009605 0.000000 0.000000 0.000000
# 4 0.000000 0.000000 0.000000 0.037746 0.000000 0.000000
# 5 0.000000 0.000000 0.000000 0.000000 0.024523 0.000000
# 6 0.000000 0.000000 0.000000 0.000000 0.000000 0.026285
#
#
# Mechanical properties :
#
#
# Convention : Reuss Voigt Hill
#
# Bulk Modulus (GPa) = 49.22093 69.98354 59.60223
# Shear Modulus (GPa) = 30.53674 34.52124 32.52899
#
# Velocity S-wave (km/s) = 3.82156 4.06324 3.94425
# Velocity P-wave (km/s) = 6.55840 7.44871 7.01769
#
# Compressibility (1/GPa) = 0.02031656
#
# Stress axis : x y z
#
# Youngs Moduli (GPa) = 88.87386 42.54084 104.11182
#
# Poissons Ratio (x) = 0.29431 0.48941
# Poissons Ratio (y) = 0.61485 0.04212
# Poissons Ratio (z) = 0.41778 0.01721
#
# Static dielectric constant tensor:
#      x y z
#    x 4.261760 0.000000 0.000000 
#    y 0.000000 3.578040 0.000000 
#    z 0.000000 0.000000 3.766160 
# 
# 
# High freq. dielectric constant tensor:
#      x y z
#    x 1.837980 0.000000 0.000000 
#    y 0.000000 1.805790 0.000000 
#    z 0.000000 0.000000 1.815780 
# 
# From -- ./inp_files/15494.got.cif
#   From: 2010.03.12/outbox.cif.g09.slc.cpg/sg64_8_cif.got.tgz:15494.got - 2010.04.10 20:19:32.
