data_PCOD8264168
_publ_section_title
;
Structure prediction by ZEFSAII (Michael W. Deem and Ramdas Pophale) SiO2 
 PCOD8264168
Probable space group: C M C A
;
_chemical_formula_sum "Si O2"
_cell_formula_units_Z 96
_cell_length_a 19.504899
_cell_length_b 22.725179
_cell_length_c 10.991540
_cell_angle_alpha 90.000000
_cell_angle_beta 90.000000
_cell_angle_gamma 90.000000
_cell_volume 4872.025618
_symmetry_space_group_name_H-M "C M C A"
_symmetry_group_IT_number 64
_symmetry_cell_setting 'orthorhombic'
loop_
_space_group_symop_operation_xyz
x,y,z
-x,1/2-y,1/2+z
x,-y,-z
-x,1/2+y,1/2-z
-x,-y,-z
x,1/2+y,1/2-z
-x,y,z
x,1/2-y,1/2+z
1/2+x,1/2+y,z
1/2-x,-y,1/2+z
1/2+x,1/2-y,-z
1/2-x,y,1/2-z
1/2-x,1/2-y,-z
1/2+x,y,1/2-z
1/2-x,1/2+y,z
1/2+x,-y,1/2+z
loop_
_atom_site_type_symbol
_atom_site_label
_atom_site_fract_x
_atom_site_fract_y
_atom_site_fract_z
Si Si1 0.193174 0.640595 0.925524
Si Si2 0.921783 0.632389 0.266665
Si Si3 0.074222 0.432190 0.976031
Si Si4 0.163162 0.849132 0.158968
Si Si5 0.580993 0.066738 0.505584
Si Si6 0.184473 0.780009 0.660256
O O1 0.162746 0.667851 0.801808
O O2 0.268859 0.617353 0.891245
O O3 0.140587 0.588750 0.952588
O O4 0.200893 0.684993 0.037140
O O5 0.915821 0.581491 0.165975
O O6 0.892486 0.602728 0.388676
O O7 0.876977 0.689019 0.233036
O O8 0.000000 0.653960 0.283658
O O9 0.000000 0.404130 0.017322
O O10 0.069734 0.500000 0.000000
O O11 0.159729 0.782879 0.105844
O O12 0.103009 0.894408 0.122904
O O13 0.500000 0.062299 0.508009
O O14 0.611265 0.000000 0.500000
O O15 0.250000 0.775211 0.750000
#
# Coordination Sequence:
#
# PCOD8264168 Si02
#       6
#    16  16  16  16  16  16
#     4  10  22  37  56  92 120 153 199 244 296 356
#     4   9  20  38  58  86 117 151 200 249 297 359
#     4   9  19  36  61  85 113 152 194 246 300 352
#     4  11  23  37  60  86 122 156 196 249 294 357
#     4  10  23  41  62  87 119 162 205 246 303 363
#     4  11  21  38  65  86 119 160 199 243 305 362
#
# _framework density 19.704331
#
# number of rings (size 3 to 8) (size 9 to 14) (size 15 to 20)
#    0.000    2.000    1.667    1.500    4.667    2.000 
#    0.000    0.000    0.000    0.000    0.000    0.000 
#    0.000    0.000    0.000    0.000    0.000    0.000 
#
# Total GULP energy -594660.460583 kJ/mol
# GULP energy per Si atom -12388.759595 kJ/mol
# Density = 1.965948 g / cm^3
# Si number density = 19.704331 Si / 1000 Ang^3
#
#
#
# Elastic Constant Matrix: (Units=GPa)
#
#
# Indices 1 2 3 4 5 6 
#
# 1 55.0856 50.1194 35.9934 0.0000 0.0000 0.0000
# 2 50.1194 108.5610 36.7191 0.0000 0.0000 0.0000
# 3 35.9934 36.7191 92.7851 0.0000 0.0000 0.0000
# 4 0.0000 0.0000 0.0000 23.0906 0.0000 0.0000
# 5 0.0000 0.0000 0.0000 0.0000 29.5066 0.0000
# 6 0.0000 0.0000 0.0000 0.0000 0.0000 13.7657
#
#
#
# Elastic Compliance Matrix: (Units=1/GPa)
#
#
# Indices 1 2 3 4 5 6 
#
# 1 0.036449 -0.013907 -0.008636 0.000000 0.000000 0.000000
# 2 -0.013907 0.015941 -0.000914 0.000000 0.000000 0.000000
# 3 -0.008636 -0.000914 0.014489 0.000000 0.000000 0.000000
# 4 0.000000 0.000000 0.000000 0.043308 0.000000 0.000000
# 5 0.000000 0.000000 0.000000 0.000000 0.033891 0.000000
# 6 0.000000 0.000000 0.000000 0.000000 0.000000 0.072644
#
#
# Mechanical properties :
#
#
# Convention : Reuss Voigt Hill
#
# Bulk Modulus (GPa) = 50.08373 55.78838 52.93605
# Shear Modulus (GPa) = 18.49864 22.17924 20.33894
#
# Velocity S-wave (km/s) = 3.06733 3.35864 3.21628
# Velocity P-wave (km/s) = 6.16583 6.58899 6.38092
#
# Compressibility (1/GPa) = 0.01996656
#
# Stress axis : x y z
#
# Youngs Moduli (GPa) = 27.43538 62.73236 69.01627
#
# Poissons Ratio (x) = 0.87239 0.59603
# Poissons Ratio (y) = 0.38153 0.06307
# Poissons Ratio (z) = 0.23693 0.05732
#
# Static dielectric constant tensor:
#      x y z
#    x 3.794040 0.000000 0.000000 
#    y 0.000000 3.503550 0.000000 
#    z 0.000000 0.000000 3.824490 
# 
# 
# High freq. dielectric constant tensor:
#      x y z
#    x 1.767810 0.000000 0.000000 
#    y 0.000000 1.756510 0.000000 
#    z 0.000000 0.000000 1.778430 
# 
# From -- ./inp_files/17364.got.cif
#   From: 2010.03.12/outbox.cif.g09.slc.cpg/sg64_9_cif.got.tgz:17364.got - 2010.04.10 20:19:32.
