data_PCOD8264014
_publ_section_title
;
Structure prediction by ZEFSAII (Michael W. Deem and Ramdas Pophale) SiO2 
 PCOD8264014
Probable space group: C M C A
;
_chemical_formula_sum "Si O2"
_cell_formula_units_Z 72
_cell_length_a 21.150466
_cell_length_b 19.628868
_cell_length_c 7.263878
_cell_angle_alpha 90.000000
_cell_angle_beta 90.000000
_cell_angle_gamma 90.000000
_cell_volume 3015.669449
_symmetry_space_group_name_H-M "C M C A"
_symmetry_group_IT_number 64
_symmetry_cell_setting 'orthorhombic'
loop_
_space_group_symop_operation_xyz
x,y,z
-x,1/2-y,1/2+z
x,-y,-z
-x,1/2+y,1/2-z
-x,-y,-z
x,1/2+y,1/2-z
-x,y,z
x,1/2-y,1/2+z
1/2+x,1/2+y,z
1/2-x,-y,1/2+z
1/2+x,1/2-y,-z
1/2-x,y,1/2-z
1/2-x,1/2-y,-z
1/2+x,y,1/2-z
1/2-x,1/2+y,z
1/2+x,-y,1/2+z
loop_
_atom_site_type_symbol
_atom_site_label
_atom_site_fract_x
_atom_site_fract_y
_atom_site_fract_z
Si Si1 0.112948 0.186651 0.945413
Si Si2 0.430402 0.423843 0.786520
Si Si3 0.328861 0.500000 0.000000
Si Si4 0.241010 0.138241 0.953164
Si Si5 0.379832 0.162283 0.980845
O O1 0.183557 0.182716 0.037589
O O2 0.112761 0.155972 0.738724
O O3 0.092725 0.265195 0.949683
O O4 0.068748 0.139112 0.068854
O O5 0.500000 0.458096 0.795167
O O6 0.375635 0.478638 0.832563
O O7 0.420849 0.395798 0.579368
O O8 0.281768 0.560024 0.944246
O O9 0.250000 0.166752 0.750000
O O10 0.307670 0.149590 0.055396
#
# Coordination Sequence:
#
# PCOD8264014 Si02
#       5
#    16  16   8  16  16
#     4  10  21  40  61  97 133 164 208 263 325 389
#     4  11  25  43  65  90 129 179 223 265 311 382
#     4  10  23  42  64  92 125 170 216 276 324 378
#     4   9  21  36  62  95 129 162 207 268 327 389
#     4  11  21  40  65  99 130 167 208 262 333 388
#
# _framework density 23.875297
#
# number of rings (size 3 to 8) (size 9 to 14) (size 15 to 20)
#    0.000    1.778    2.222    1.000    3.111    4.444 
#    0.000    0.000    0.000   13.333    0.000    0.000 
#    0.000    0.000    0.000    0.000    0.000    0.000 
#
# Total GULP energy -446170.823193 kJ/mol
# GULP energy per Si atom -12393.633978 kJ/mol
# Density = 2.382096 g / cm^3
# Si number density = 23.875297 Si / 1000 Ang^3
#
#
#
# Elastic Constant Matrix: (Units=GPa)
#
#
# Indices 1 2 3 4 5 6 
#
# 1 75.9019 -4.1939 19.4346 0.0000 0.0000 0.0000
# 2 -4.1939 69.2733 0.4948 0.0000 0.0000 0.0000
# 3 19.4346 0.4948 97.5299 0.0000 0.0000 0.0000
# 4 0.0000 0.0000 0.0000 32.0640 0.0000 0.0000
# 5 0.0000 0.0000 0.0000 0.0000 22.5141 0.0000
# 6 0.0000 0.0000 0.0000 0.0000 0.0000 18.9179
#
#
#
# Elastic Compliance Matrix: (Units=1/GPa)
#
#
# Indices 1 2 3 4 5 6 
#
# 1 0.013935 0.000863 -0.002781 0.000000 0.000000 0.000000
# 2 0.000863 0.014490 -0.000246 0.000000 0.000000 0.000000
# 3 -0.002781 -0.000246 0.010809 0.000000 0.000000 0.000000
# 4 0.000000 0.000000 0.000000 0.031188 0.000000 0.000000
# 5 0.000000 0.000000 0.000000 0.000000 0.044417 0.000000
# 6 0.000000 0.000000 0.000000 0.000000 0.000000 0.052860
#
#
# Mechanical properties :
#
#
# Convention : Reuss Voigt Hill
#
# Bulk Modulus (GPa) = 28.64787 30.46401 29.55594
# Shear Modulus (GPa) = 27.22431 29.83049 28.52740
#
# Velocity S-wave (km/s) = 3.38045 3.53856 3.46041
# Velocity P-wave (km/s) = 5.22127 5.42978 5.32655
#
# Compressibility (1/GPa) = 0.03490661
#
# Stress axis : x y z
#
# Youngs Moduli (GPa) = 71.76318 69.01495 92.51809
#
# Poissons Ratio (x) = -0.05959 0.25730
# Poissons Ratio (y) = -0.06197 0.02272
# Poissons Ratio (z) = 0.19958 0.01695
#
# Static dielectric constant tensor:
#      x y z
#    x 4.335810 0.000000 0.000000 
#    y 0.000000 4.124040 0.000000 
#    z 0.000000 0.000000 4.054810 
# 
# 
# High freq. dielectric constant tensor:
#      x y z
#    x 1.939820 0.000000 0.000000 
#    y 0.000000 1.936390 0.000000 
#    z 0.000000 0.000000 1.937340 
# 
# From -- ./inp_files/8039.got.cif
#   From: 2010.03.12/outbox.cif.g09.slc.cpg/sg64_5_cif.got.tgz:8039.got - 2010.04.10 20:19:32.
