data_PCOD8264228
_publ_section_title
;
Structure prediction by ZEFSAII (Michael W. Deem and Ramdas Pophale) SiO2 
 PCOD8264228
Probable space group: C M C A
;
_chemical_formula_sum "Si O2"
_cell_formula_units_Z 96
_cell_length_a 16.545688
_cell_length_b 11.917356
_cell_length_c 24.446939
_cell_angle_alpha 90.000000
_cell_angle_beta 90.000000
_cell_angle_gamma 90.000000
_cell_volume 4820.468314
_symmetry_space_group_name_H-M "C M C A"
_symmetry_group_IT_number 64
_symmetry_cell_setting 'orthorhombic'
loop_
_space_group_symop_operation_xyz
x,y,z
-x,1/2-y,1/2+z
x,-y,-z
-x,1/2+y,1/2-z
-x,-y,-z
x,1/2+y,1/2-z
-x,y,z
x,1/2-y,1/2+z
1/2+x,1/2+y,z
1/2-x,-y,1/2+z
1/2+x,1/2-y,-z
1/2-x,y,1/2-z
1/2-x,1/2-y,-z
1/2+x,y,1/2-z
1/2-x,1/2+y,z
1/2+x,-y,1/2+z
loop_
_atom_site_type_symbol
_atom_site_label
_atom_site_fract_x
_atom_site_fract_y
_atom_site_fract_z
Si Si1 0.591539 0.811435 0.304653
Si Si2 0.091119 0.717736 0.309749
Si Si3 0.702326 0.015667 0.304893
Si Si4 0.906282 0.663368 0.099798
Si Si5 0.909882 0.872870 0.483030
Si Si6 0.155349 0.074743 0.626790
O O1 0.500000 0.848765 0.316961
O O2 0.593803 0.721102 0.255933
O O3 0.639534 0.921145 0.287101
O O4 0.633267 0.750766 0.357245
O O5 0.154198 0.622667 0.329348
O O6 0.116918 0.840467 0.330024
O O7 0.000000 0.689725 0.330050
O O8 0.750000 0.050749 0.250000
O O9 0.756347 0.965184 0.353921
O O10 0.872582 0.685530 0.038014
O O11 0.897647 0.536943 0.121644
O O12 0.000000 0.689753 0.098052
O O13 0.847105 0.861487 0.432439
O O14 0.000000 0.825333 0.467380
O O15 0.922245 0.000000 0.500000
#
# Coordination Sequence:
#
# PCOD8264228 Si02
#       6
#    16  16  16  16  16  16
#     4  10  22  39  59  83 114 157 201 237 290 357
#     4  11  24  40  60  85 117 159 201 237 286 361
#     4  12  25  38  56  82 125 156 189 239 306 351
#     4   9  18  35  63  90 116 150 196 247 293 344
#     4   8  15  32  58  89 116 147 194 246 291 339
#     4  11  21  34  62  88 119 148 194 242 295 341
#
# _framework density 19.915077
#
# number of rings (size 3 to 8) (size 9 to 14) (size 15 to 20)
#    0.000    1.833    1.667    4.000    4.667    0.000 
#    0.000    0.833    3.667    0.000    0.000    4.667 
#    0.000    0.000    0.000    0.000    0.000    0.000 
#
# Total GULP energy -594817.769037 kJ/mol
# GULP energy per Si atom -12392.036855 kJ/mol
# Density = 1.986975 g / cm^3
# Si number density = 19.915077 Si / 1000 Ang^3
#
#
#
# Elastic Constant Matrix: (Units=GPa)
#
#
# Indices 1 2 3 4 5 6 
#
# 1 91.6703 36.4965 45.0234 0.0000 0.0000 0.0000
# 2 36.4965 67.2285 27.1686 0.0000 0.0000 0.0000
# 3 45.0234 27.1686 108.7011 0.0000 0.0000 0.0000
# 4 0.0000 0.0000 0.0000 24.9554 0.0000 0.0000
# 5 0.0000 0.0000 0.0000 0.0000 23.1660 0.0000
# 6 0.0000 0.0000 0.0000 0.0000 0.0000 30.2081
#
#
#
# Elastic Compliance Matrix: (Units=1/GPa)
#
#
# Indices 1 2 3 4 5 6 
#
# 1 0.016006 -0.006685 -0.004959 0.000000 0.000000 0.000000
# 2 -0.006685 0.019338 -0.002064 0.000000 0.000000 0.000000
# 3 -0.004959 -0.002064 0.011769 0.000000 0.000000 0.000000
# 4 0.000000 0.000000 0.000000 0.040071 0.000000 0.000000
# 5 0.000000 0.000000 0.000000 0.000000 0.043167 0.000000
# 6 0.000000 0.000000 0.000000 0.000000 0.000000 0.033104
#
#
# Mechanical properties :
#
#
# Convention : Reuss Voigt Hill
#
# Bulk Modulus (GPa) = 50.76956 53.88632 52.32794
# Shear Modulus (GPa) = 25.32460 26.26000 25.79230
#
# Velocity S-wave (km/s) = 3.56986 3.63519 3.60267
# Velocity P-wave (km/s) = 6.52229 6.68852 6.60593
#
# Compressibility (1/GPa) = 0.01969684
#
# Stress axis : x y z
#
# Youngs Moduli (GPa) = 62.47837 51.71155 84.96671
#
# Poissons Ratio (x) = 0.34570 0.42131
# Poissons Ratio (y) = 0.41767 0.17540
# Poissons Ratio (z) = 0.30980 0.10675
#
# Static dielectric constant tensor:
#      x y z
#    x 3.528730 0.000000 0.000000 
#    y 0.000000 3.366430 0.000000 
#    z 0.000000 0.000000 4.266910 
# 
# 
# High freq. dielectric constant tensor:
#      x y z
#    x 1.761210 0.000000 0.000000 
#    y 0.000000 1.753190 0.000000 
#    z 0.000000 0.000000 1.780280 
# 
# From -- ./inp_files/46299.got.cif
#   From: 2010.03.12/outbox.cif.g09.slc.cpg/sg64_24_cif.got.tgz:46299.got - 2010.04.10 20:19:32.
