data_PCOD8264171
_publ_section_title
;
Structure prediction by ZEFSAII (Michael W. Deem and Ramdas Pophale) SiO2 
 PCOD8264171
Probable space group: C M C A
;
_chemical_formula_sum "Si O2"
_cell_formula_units_Z 112
_cell_length_a 14.595123
_cell_length_b 25.826809
_cell_length_c 14.172336
_cell_angle_alpha 90.000000
_cell_angle_beta 90.000000
_cell_angle_gamma 90.000000
_cell_volume 5342.197629
_symmetry_space_group_name_H-M "C M C A"
_symmetry_group_IT_number 64
_symmetry_cell_setting 'orthorhombic'
loop_
_space_group_symop_operation_xyz
x,y,z
-x,1/2-y,1/2+z
x,-y,-z
-x,1/2+y,1/2-z
-x,-y,-z
x,1/2+y,1/2-z
-x,y,z
x,1/2-y,1/2+z
1/2+x,1/2+y,z
1/2-x,-y,1/2+z
1/2+x,1/2-y,-z
1/2-x,y,1/2-z
1/2-x,1/2-y,-z
1/2+x,y,1/2-z
1/2-x,1/2+y,z
1/2+x,-y,1/2+z
loop_
_atom_site_type_symbol
_atom_site_label
_atom_site_fract_x
_atom_site_fract_y
_atom_site_fract_z
Si Si1 0.394013 0.231589 0.277530
Si Si2 0.395997 0.483620 0.770177
Si Si3 0.396099 0.791015 0.400550
Si Si4 0.672883 0.881211 0.677292
Si Si5 0.759248 0.372054 0.470119
Si Si6 0.732637 0.020251 0.894731
Si Si7 0.601863 0.295048 0.452663
O O1 0.500000 0.217756 0.269956
O O2 0.355239 0.251325 0.177412
O O3 0.346905 0.179104 0.310551
O O4 0.375677 0.280569 0.345127
O O5 0.500000 0.506151 0.771556
O O6 0.406128 0.421778 0.792380
O O7 0.349146 0.497244 0.669500
O O8 0.332995 0.507684 0.852764
O O9 0.500000 0.807383 0.374116
O O10 0.336721 0.842358 0.410606
O O11 0.391934 0.760679 0.498204
O O12 0.750000 0.898620 0.750000
O O13 0.702065 0.892737 0.569526
O O14 0.725019 0.417626 0.401941
O O15 0.673324 0.335458 0.494135
O O16 0.721054 0.000000 0.000000
O O17 0.500000 0.318725 0.465095
#
# Coordination Sequence:
#
# PCOD8264171 Si02
#       7
#    16  16  16  16  16  16  16
#     4  10  22  37  59  92 134 173 212 264 320 393
#     4  11  25  46  72  99 134 176 226 288 353 405
#     4  10  22  39  60  97 136 169 215 264 322 401
#     4  12  22  40  68  97 127 169 229 279 328 400
#     4  12  24  40  69  93 129 180 219 274 340 398
#     4  11  24  48  67 101 138 170 231 292 342 414
#     4  10  22  40  59  92 135 170 216 264 317 396
#
# _framework density 20.965154999999999
#
# number of rings (size 3 to 8) (size 9 to 14) (size 15 to 20)
#    0.000    1.143    4.286    1.714    2.000    4.571 
#    0.000    5.000    0.000    0.000    0.000    0.000 
#    0.000    0.000    0.000    0.000    0.000    0.000 
#
# Total GULP energy -694246.469056 kJ/mol
# GULP energy per Si atom -12397.258376 kJ/mol
# Density = 2.091744 g / cm^3
# Si number density = 20.965155 Si / 1000 Ang^3
#
#
#
# Elastic Constant Matrix: (Units=GPa)
#
#
# Indices 1 2 3 4 5 6 
#
# 1 109.2063 41.9445 35.8649 0.0000 0.0000 0.0000
# 2 41.9445 104.1766 32.8535 0.0000 0.0000 0.0000
# 3 35.8649 32.8535 102.6598 0.0000 0.0000 0.0000
# 4 0.0000 0.0000 0.0000 25.2721 0.0000 0.0000
# 5 0.0000 0.0000 0.0000 0.0000 21.9908 0.0000
# 6 0.0000 0.0000 0.0000 0.0000 0.0000 0.8959
#
#
#
# Elastic Compliance Matrix: (Units=1/GPa)
#
#
# Indices 1 2 3 4 5 6 
#
# 1 0.011525 -0.003749 -0.002827 0.000000 0.000000 0.000000
# 2 -0.003749 0.011896 -0.002497 0.000000 0.000000 0.000000
# 3 -0.002827 -0.002497 0.011528 0.000000 0.000000 0.000000
# 4 0.000000 0.000000 0.000000 0.039569 0.000000 0.000000
# 5 0.000000 0.000000 0.000000 0.000000 0.045474 0.000000
# 6 0.000000 0.000000 0.000000 0.000000 0.000000 1.116185
#
#
# Mechanical properties :
#
#
# Convention : Reuss Voigt Hill
#
# Bulk Modulus (GPa) = 59.51287 59.70760 59.61023
# Shear Modulus (GPa) = 3.96849 23.32374 13.64612
#
# Velocity S-wave (km/s) = 1.37732 3.33903 2.55403
# Velocity P-wave (km/s) = 5.56575 6.58838 6.09854
#
# Compressibility (1/GPa) = 0.01680309
#
# Stress axis : x y z
#
# Youngs Moduli (GPa) = 86.76627 84.06131 86.74822
#
# Poissons Ratio (x) = 0.31514 0.24521
# Poissons Ratio (y) = 0.32528 0.21664
# Poissons Ratio (z) = 0.24526 0.20993
#
# Static dielectric constant tensor:
#      x y z
#    x 3.761510 0.000000 0.000000 
#    y 0.000000 3.752760 0.000000 
#    z 0.000000 0.000000 3.879250 
# 
# 
# High freq. dielectric constant tensor:
#      x y z
#    x 1.816630 0.000000 0.000000 
#    y 0.000000 1.817400 0.000000 
#    z 0.000000 0.000000 1.831810 
# 
# From -- ./inp_files/24252.got.cif
#   From: 2010.03.12/outbox.cif.g09.slc.cpg/sg64_13_cif.got.tgz:24252.got - 2010.04.10 20:19:32.
