data_PCOD8264336
_publ_section_title
;
Structure prediction by ZEFSAII (Michael W. Deem and Ramdas Pophale) SiO2 
 PCOD8264336
Probable space group: C M C A
;
_chemical_formula_sum "Si O2"
_cell_formula_units_Z 96
_cell_length_a 21.853241
_cell_length_b 8.777829
_cell_length_c 24.552189
_cell_angle_alpha 90.000000
_cell_angle_beta 90.000000
_cell_angle_gamma 90.000000
_cell_volume 4709.699412
_symmetry_space_group_name_H-M "C M C A"
_symmetry_group_IT_number 64
_symmetry_cell_setting 'orthorhombic'
loop_
_space_group_symop_operation_xyz
x,y,z
-x,1/2-y,1/2+z
x,-y,-z
-x,1/2+y,1/2-z
-x,-y,-z
x,1/2+y,1/2-z
-x,y,z
x,1/2-y,1/2+z
1/2+x,1/2+y,z
1/2-x,-y,1/2+z
1/2+x,1/2-y,-z
1/2-x,y,1/2-z
1/2-x,1/2-y,-z
1/2+x,y,1/2-z
1/2-x,1/2+y,z
1/2+x,-y,1/2+z
loop_
_atom_site_type_symbol
_atom_site_label
_atom_site_fract_x
_atom_site_fract_y
_atom_site_fract_z
Si Si1 0.067655 0.827757 0.001274
Si Si2 0.928748 0.723228 0.682751
Si Si3 0.070373 0.371645 0.704995
Si Si4 0.230180 0.129594 0.041967
Si Si5 0.638762 0.126487 0.085442
Si Si6 0.383109 0.220629 0.899105
O O1 0.113230 0.709448 0.031119
O O2 0.000000 0.821520 0.028139
O O3 0.062634 0.779245 0.938123
O O4 0.093174 0.000000 0.000000
O O5 0.910477 0.826665 0.734071
O O6 0.916026 0.548542 0.696925
O O7 0.881913 0.765126 0.634789
O O8 0.000000 0.748656 0.665856
O O9 0.108365 0.269224 0.663093
O O10 0.000000 0.330938 0.695594
O O11 0.288549 0.096096 0.080765
O O12 0.178089 0.195408 0.080666
O O13 0.250000 0.250000 0.000000
O O14 0.207533 0.000000 0.000000
O O15 0.612040 0.960563 0.096030
#
# Coordination Sequence:
#
# PCOD8264336 Si02
#       6
#    16  16  16  16  16  16
#     4  11  23  37  56  86 122 158 200 251 308 370
#     4  10  22  41  65  92 125 163 205 255 313 375
#     4  10  22  41  65  93 125 164 205 253 314 374
#     4  12  24  43  63  89 124 167 211 254 307 370
#     4  12  24  39  61  91 121 161 208 255 312 372
#     4  12  24  38  62  90 122 162 206 255 311 371
#
# _framework density 20.383465999999999
#
# number of rings (size 3 to 8) (size 9 to 14) (size 15 to 20)
#    0.000    0.833    3.333    4.000    2.333    7.333 
#    0.000    0.833    0.000    4.000    0.000    0.000 
#    0.000    0.000    0.000    0.000    0.000    0.000 
#
# Total GULP energy -594870.349342 kJ/mol
# GULP energy per Si atom -12393.132278 kJ/mol
# Density = 2.033707 g / cm^3
# Si number density = 20.383466 Si / 1000 Ang^3
#
#
#
# Elastic Constant Matrix: (Units=GPa)
#
#
# Indices 1 2 3 4 5 6 
#
# 1 84.6448 17.4490 23.6613 0.0000 0.0000 0.0000
# 2 17.4490 107.2369 10.0923 0.0000 0.0000 0.0000
# 3 23.6613 10.0923 87.0242 0.0000 0.0000 0.0000
# 4 0.0000 0.0000 0.0000 44.1435 0.0000 0.0000
# 5 0.0000 0.0000 0.0000 0.0000 29.7516 0.0000
# 6 0.0000 0.0000 0.0000 0.0000 0.0000 23.8487
#
#
#
# Elastic Compliance Matrix: (Units=1/GPa)
#
#
# Indices 1 2 3 4 5 6 
#
# 1 0.013128 -0.001820 -0.003358 0.000000 0.000000 0.000000
# 2 -0.001820 0.009680 -0.000628 0.000000 0.000000 0.000000
# 3 -0.003358 -0.000628 0.012477 0.000000 0.000000 0.000000
# 4 0.000000 0.000000 0.000000 0.022653 0.000000 0.000000
# 5 0.000000 0.000000 0.000000 0.000000 0.033612 0.000000
# 6 0.000000 0.000000 0.000000 0.000000 0.000000 0.041931
#
#
# Mechanical properties :
#
#
# Convention : Reuss Voigt Hill
#
# Bulk Modulus (GPa) = 42.24219 42.36789 42.30504
# Shear Modulus (GPa) = 32.68297 34.72898 33.70597
#
# Velocity S-wave (km/s) = 4.00860 4.13217 4.07085
# Velocity P-wave (km/s) = 6.49568 6.60280 6.54946
#
# Compressibility (1/GPa) = 0.02367301
#
# Stress axis : x y z
#
# Youngs Moduli (GPa) = 76.17284 103.30170 80.14768
#
# Poissons Ratio (x) = 0.18802 0.26916
# Poissons Ratio (y) = 0.13864 0.05032
# Poissons Ratio (z) = 0.25581 0.06485
#
# Static dielectric constant tensor:
#      x y z
#    x 5.213390 0.000000 0.000000 
#    y 0.000000 3.848060 0.000000 
#    z 0.000000 0.000000 3.717570 
# 
# 
# High freq. dielectric constant tensor:
#      x y z
#    x 1.788670 0.000000 0.000000 
#    y 0.000000 1.819430 0.000000 
#    z 0.000000 0.000000 1.793380 
# 
# From -- ./inp_files/46577.got.cif
#   From: 2010.03.12/outbox.cif.g09.slc.cpg/sg64_24_cif.got.tgz:46577.got - 2010.04.10 20:19:32.
