data_PCOD8264752
_publ_section_title
;
Structure prediction by ZEFSAII (Michael W. Deem and Ramdas Pophale) SiO2 
 PCOD8264752
Probable space group: C M C A
;
_chemical_formula_sum "Si O2"
_cell_formula_units_Z 64
_cell_length_a 14.329598
_cell_length_b 11.727885
_cell_length_c 16.397885
_cell_angle_alpha 90.000000
_cell_angle_beta 90.000000
_cell_angle_gamma 90.000000
_cell_volume 2755.760952
_symmetry_space_group_name_H-M "C M C A"
_symmetry_group_IT_number 64
_symmetry_cell_setting 'orthorhombic'
loop_
_space_group_symop_operation_xyz
x,y,z
-x,1/2-y,1/2+z
x,-y,-z
-x,1/2+y,1/2-z
-x,-y,-z
x,1/2+y,1/2-z
-x,y,z
x,1/2-y,1/2+z
1/2+x,1/2+y,z
1/2-x,-y,1/2+z
1/2+x,1/2-y,-z
1/2-x,y,1/2-z
1/2-x,1/2-y,-z
1/2+x,y,1/2-z
1/2-x,1/2+y,z
1/2+x,-y,1/2+z
loop_
_atom_site_type_symbol
_atom_site_label
_atom_site_fract_x
_atom_site_fract_y
_atom_site_fract_z
Si Si1 0.500000 0.667913 0.440294
Si Si2 0.892140 0.916336 0.892975
Si Si3 0.341558 0.844707 0.431760
Si Si4 0.500000 0.083261 0.876421
Si Si5 0.679940 0.796737 0.176358
O O1 0.408688 0.738050 0.414273
O O2 0.500000 0.552017 0.388770
O O3 0.500000 0.648045 0.537254
O O4 0.855463 0.834911 0.820137
O O5 0.000000 0.891432 0.909040
O O6 0.874969 0.049162 0.874402
O O7 0.838599 0.881958 0.975071
O O8 0.236148 0.813774 0.407908
O O9 0.591497 0.118241 0.824507
O O10 0.750000 0.823106 0.250000
#
# Coordination Sequence:
#
# PCOD8264752 Si02
#       5
#     8  16  16   8  16
#     4  11  22  43  77 108 141 175 233 303 354 413
#     4  11  21  45  72 102 144 176 236 302 347 412
#     4  11  22  41  74 106 134 186 235 287 355 418
#     4  11  26  46  68 107 148 183 235 294 353 426
#     4  12  27  45  67  99 146 190 234 290 357 430
#
# _framework density 23.224077000000001
#
# number of rings (size 3 to 8) (size 9 to 14) (size 15 to 20)
#    0.000    0.750    6.250    1.500    3.500    4.000 
#    0.000    0.000    0.000    0.000    0.000    0.000 
#    0.000    0.000    0.000    0.000    0.000    0.000 
#
# Total GULP energy -396833.183255 kJ/mol
# GULP energy per Si atom -12401.036977 kJ/mol
# Density = 2.317122 g / cm^3
# Si number density = 23.224077 Si / 1000 Ang^3
#
#
#
# Elastic Constant Matrix: (Units=GPa)
#
#
# Indices 1 2 3 4 5 6 
#
# 1 144.0865 57.6792 41.6067 0.0000 0.0000 0.0000
# 2 57.6792 190.5146 33.5600 0.0000 0.0000 0.0000
# 3 41.6067 33.5600 53.2109 0.0000 0.0000 0.0000
# 4 0.0000 0.0000 0.0000 16.5164 0.0000 0.0000
# 5 0.0000 0.0000 0.0000 0.0000 38.0682 0.0000
# 6 0.0000 0.0000 0.0000 0.0000 0.0000 34.0122
#
#
#
# Elastic Compliance Matrix: (Units=1/GPa)
#
#
# Indices 1 2 3 4 5 6 
#
# 1 0.009459 -0.001756 -0.006289 0.000000 0.000000 0.000000
# 2 -0.001756 0.006231 -0.002557 0.000000 0.000000 0.000000
# 3 -0.006289 -0.002557 0.025323 0.000000 0.000000 0.000000
# 4 0.000000 0.000000 0.000000 0.060546 0.000000 0.000000
# 5 0.000000 0.000000 0.000000 0.000000 0.026269 0.000000
# 6 0.000000 0.000000 0.000000 0.000000 0.000000 0.029401
#
#
# Mechanical properties :
#
#
# Convention : Reuss Voigt Hill
#
# Bulk Modulus (GPa) = 50.47963 72.61154 61.54559
# Shear Modulus (GPa) = 27.02183 34.71710 30.86946
#
# Velocity S-wave (km/s) = 3.41475 3.87056 3.64978
# Velocity P-wave (km/s) = 6.10987 7.16299 6.65729
#
# Compressibility (1/GPa) = 0.01980997
#
# Stress axis : x y z
#
# Youngs Moduli (GPa) = 105.71716 160.48856 39.48967
#
# Poissons Ratio (x) = 0.28182 0.24834
# Poissons Ratio (y) = 0.18564 0.10097
# Poissons Ratio (z) = 0.66484 0.41034
#
# Static dielectric constant tensor:
#      x y z
#    x 4.175100 0.000000 0.000000 
#    y 0.000000 4.612870 0.000000 
#    z 0.000000 0.000000 3.694820 
# 
# 
# High freq. dielectric constant tensor:
#      x y z
#    x 1.928620 0.000000 0.000000 
#    y 0.000000 1.938650 0.000000 
#    z 0.000000 0.000000 1.882180 
# 
# From -- ./inp_files/31691.got.cif
#   From: 2010.03.12/outbox.cif.g09.slc.cpg/sg64_16_cif.got.tgz:31691.got - 2010.04.10 20:19:32.
