data_PCOD8264436
_publ_section_title
;
Structure prediction by ZEFSAII (Michael W. Deem and Ramdas Pophale) SiO2 
 PCOD8264436
Probable space group: C M C A
;
_chemical_formula_sum "Si O2"
_cell_formula_units_Z 88
_cell_length_a 13.885568
_cell_length_b 13.680818
_cell_length_c 23.055907
_cell_angle_alpha 90.000000
_cell_angle_beta 90.000000
_cell_angle_gamma 90.000000
_cell_volume 4379.836784
_symmetry_space_group_name_H-M "C M C A"
_symmetry_group_IT_number 64
_symmetry_cell_setting 'orthorhombic'
loop_
_space_group_symop_operation_xyz
x,y,z
-x,1/2-y,1/2+z
x,-y,-z
-x,1/2+y,1/2-z
-x,-y,-z
x,1/2+y,1/2-z
-x,y,z
x,1/2-y,1/2+z
1/2+x,1/2+y,z
1/2-x,-y,1/2+z
1/2+x,1/2-y,-z
1/2-x,y,1/2-z
1/2-x,1/2-y,-z
1/2+x,y,1/2-z
1/2-x,1/2+y,z
1/2+x,-y,1/2+z
loop_
_atom_site_type_symbol
_atom_site_label
_atom_site_fract_x
_atom_site_fract_y
_atom_site_fract_z
Si Si1 0.710321 0.101566 0.968072
Si Si2 0.609184 0.731215 0.965138
Si Si3 0.394786 0.710140 0.836090
Si Si4 0.608410 0.194964 0.283158
Si Si5 0.250000 0.458630 0.750000
Si Si6 0.299007 0.887261 0.164859
O O1 0.819351 0.140293 0.976547
O O2 0.679011 0.086461 0.901453
O O3 0.635221 0.177530 0.995022
O O4 0.699871 0.000000 0.000000
O O5 0.500000 0.697767 0.979288
O O6 0.620425 0.763775 0.897922
O O7 0.500000 0.658885 0.833958
O O8 0.387099 0.790441 0.786052
O O9 0.315253 0.627822 0.826413
O O10 0.500000 0.168985 0.303563
O O11 0.682089 0.105771 0.293121
O O12 0.641518 0.291078 0.317755
O O13 0.320356 0.523079 0.708324
#
# Coordination Sequence:
#
# PCOD8264436 Si02
#       6
#    16  16  16  16   8  16
#     4  10  23  38  61  91 120 158 203 250 295 355
#     4   9  20  39  61  85 120 162 197 242 299 358
#     4   9  17  36  62  84 116 156 196 241 297 354
#     4  11  23  39  59  88 121 158 198 246 301 358
#     4  12  22  36  62  90 116 162 200 248 296 362
#     4  11  22  40  60  86 128 158 197 249 305 348
#
# _framework density 20.092072999999999
#
# number of rings (size 3 to 8) (size 9 to 14) (size 15 to 20)
#    0.000    1.818    3.636    0.000    2.545    4.364 
#    0.000    0.000    0.000    0.000    0.000    0.000 
#    0.000    0.000    0.000    0.000    0.000    0.000 
#
# Total GULP energy -545462.918947 kJ/mol
# GULP energy per Si atom -12396.884522 kJ/mol
# Density = 2.004634 g / cm^3
# Si number density = 20.092073 Si / 1000 Ang^3
#
#
#
# Elastic Constant Matrix: (Units=GPa)
#
#
# Indices 1 2 3 4 5 6 
#
# 1 98.7875 20.2724 15.6598 0.0000 0.0000 0.0000
# 2 20.2724 97.7589 37.3932 0.0000 0.0000 0.0000
# 3 15.6598 37.3932 100.3543 0.0000 0.0000 0.0000
# 4 0.0000 0.0000 0.0000 28.2127 0.0000 0.0000
# 5 0.0000 0.0000 0.0000 0.0000 26.4032 0.0000
# 6 0.0000 0.0000 0.0000 0.0000 0.0000 13.5029
#
#
#
# Elastic Compliance Matrix: (Units=1/GPa)
#
#
# Indices 1 2 3 4 5 6 
#
# 1 0.010654 -0.001835 -0.000979 0.000000 0.000000 0.000000
# 2 -0.001835 0.012246 -0.004276 0.000000 0.000000 0.000000
# 3 -0.000979 -0.004276 0.011711 0.000000 0.000000 0.000000
# 4 0.000000 0.000000 0.000000 0.035445 0.000000 0.000000
# 5 0.000000 0.000000 0.000000 0.000000 0.037874 0.000000
# 6 0.000000 0.000000 0.000000 0.000000 0.000000 0.074058
#
#
# Mechanical properties :
#
#
# Convention : Reuss Voigt Hill
#
# Bulk Modulus (GPa) = 48.94704 49.28350 49.11527
# Shear Modulus (GPa) = 24.63311 28.52880 26.58095
#
# Velocity S-wave (km/s) = 3.50524 3.77225 3.64119
# Velocity P-wave (km/s) = 6.38722 6.59964 6.49430
#
# Compressibility (1/GPa) = 0.02043024
#
# Stress axis : x y z
#
# Youngs Moduli (GPa) = 93.85732 81.66231 85.39052
#
# Poissons Ratio (x) = 0.14985 0.08358
# Poissons Ratio (y) = 0.17223 0.36517
# Poissons Ratio (z) = 0.09187 0.34923
#
# Static dielectric constant tensor:
#      x y z
#    x 3.836250 0.000000 0.000000 
#    y 0.000000 3.431160 0.000000 
#    z 0.000000 0.000000 3.832000 
# 
# 
# High freq. dielectric constant tensor:
#      x y z
#    x 1.787710 0.000000 0.000000 
#    y 0.000000 1.758920 0.000000 
#    z 0.000000 0.000000 1.789380 
# 
# From -- ./inp_files/39049.got.cif
#   From: 2010.03.12/outbox.cif.g09.slc.cpg/sg64_20_cif.got.tgz:39049.got - 2010.04.10 20:19:32.
