data_PCOD8264945
_publ_section_title
;
Structure prediction by ZEFSAII (Michael W. Deem and Ramdas Pophale) SiO2 
 PCOD8264945
Probable space group: C M C A
;
_chemical_formula_sum "Si O2"
_cell_formula_units_Z 40
_cell_length_a 9.438722
_cell_length_b 26.759904
_cell_length_c 6.730517
_cell_angle_alpha 90.000000
_cell_angle_beta 90.000000
_cell_angle_gamma 90.000000
_cell_volume 1699.989236
_symmetry_space_group_name_H-M "C M C A"
_symmetry_group_IT_number 64
_symmetry_cell_setting 'orthorhombic'
loop_
_space_group_symop_operation_xyz
x,y,z
-x,1/2-y,1/2+z
x,-y,-z
-x,1/2+y,1/2-z
-x,-y,-z
x,1/2+y,1/2-z
-x,y,z
x,1/2-y,1/2+z
1/2+x,1/2+y,z
1/2-x,-y,1/2+z
1/2+x,1/2-y,-z
1/2-x,y,1/2-z
1/2-x,1/2-y,-z
1/2+x,y,1/2-z
1/2-x,1/2+y,z
1/2+x,-y,1/2+z
loop_
_atom_site_type_symbol
_atom_site_label
_atom_site_fract_x
_atom_site_fract_y
_atom_site_fract_z
Si Si1 0.158409 0.553331 0.568456
Si Si2 0.250000 0.872631 0.750000
Si Si3 0.838103 0.798180 0.434140
O O1 0.222656 0.500000 0.500000
O O2 0.250000 0.574796 0.750000
O O3 0.153520 0.592398 0.387841
O O4 0.000000 0.545506 0.648360
O O5 0.151588 0.837926 0.612235
O O6 0.750000 0.821640 0.250000
O O7 0.750000 0.750000 0.500000
O O8 0.000000 0.784108 0.372320
#
# Coordination Sequence:
#
# PCOD8264945 Si02
#       3
#    16   8  16
#     4  11  25  46  73 107 145 189 240 294 355 426
#     4  12  26  46  76 108 144 188 242 290 364 420
#     4  12  27  47  75 107 146 189 242 298 360 429
#
# _framework density 23.529561999999999
#
# number of rings (size 3 to 8) (size 9 to 14) (size 15 to 20)
#    0.000    0.400    4.000    3.600    0.000   12.000 
#    0.000    0.000    0.000    0.000    0.000    0.000 
#    0.000    0.000    0.000    0.000    0.000    0.000 
#
# Total GULP energy -248039.941667 kJ/mol
# GULP energy per Si atom -12401.997083 kJ/mol
# Density = 2.347601 g / cm^3
# Si number density = 23.529562 Si / 1000 Ang^3
#
#
#
# Elastic Constant Matrix: (Units=GPa)
#
#
# Indices 1 2 3 4 5 6 
#
# 1 164.6302 37.6082 61.6375 0.0000 0.0000 0.0000
# 2 37.6082 137.9906 63.7530 0.0000 0.0000 0.0000
# 3 61.6375 63.7530 161.1562 0.0000 0.0000 0.0000
# 4 0.0000 0.0000 0.0000 48.1092 0.0000 0.0000
# 5 0.0000 0.0000 0.0000 0.0000 31.2240 0.0000
# 6 0.0000 0.0000 0.0000 0.0000 0.0000 -49.9731
#
#
#
# Elastic Compliance Matrix: (Units=1/GPa)
#
#
# Indices 1 2 3 4 5 6 
#
# 1 0.007168 -0.000841 -0.002409 0.000000 0.000000 0.000000
# 2 -0.000841 0.008966 -0.003225 0.000000 0.000000 0.000000
# 3 -0.002409 -0.003225 0.008403 0.000000 0.000000 0.000000
# 4 0.000000 0.000000 0.000000 0.020786 0.000000 0.000000
# 5 0.000000 0.000000 0.000000 0.000000 0.032027 0.000000
# 6 0.000000 0.000000 0.000000 0.000000 0.000000 -0.020011
#
#
# Mechanical properties :
#
#
# Convention : Reuss Voigt Hill
#
# Bulk Modulus (GPa) = 86.30679 87.75270 87.02975
# Shear Modulus (GPa) = 67.42954 25.92390 46.67672
#
# Velocity S-wave (km/s) = 5.35907 3.32288 4.45876
# Velocity P-wave (km/s) = 8.66329 7.21787 7.97340
#
# Compressibility (1/GPa) = 0.01158657
#
# Stress axis : x y z
#
# Youngs Moduli (GPa) = 139.50483 111.53020 119.01133
#
# Poissons Ratio (x) = 0.09375 0.28671
# Poissons Ratio (y) = 0.11727 0.38387
# Poissons Ratio (z) = 0.33608 0.35974
#
# Static dielectric constant tensor:
#      x y z
#    x 3.985560 0.000000 0.000000 
#    y 0.000000 4.305120 0.000000 
#    z 0.000000 0.000000 4.676250 
# 
# 
# High freq. dielectric constant tensor:
#      x y z
#    x 1.918450 0.000000 0.000000 
#    y 0.000000 1.944560 0.000000 
#    z 0.000000 0.000000 1.940930 
# 
# From -- ./inp_files/3761.got.cif
#   From: 2010.03.12/outbox.cif.g09.slc.cpg/sg64_2_cif.got.tgz:3761.got - 2010.04.10 20:19:32.
