data_PCOD8264078
_publ_section_title
;
Structure prediction by ZEFSAII (Michael W. Deem and Ramdas Pophale) SiO2 
 PCOD8264078
Probable space group: C M C A
;
_chemical_formula_sum "Si O2"
_cell_formula_units_Z 64
_cell_length_a 19.499301
_cell_length_b 9.231258
_cell_length_c 18.288474
_cell_angle_alpha 90.000000
_cell_angle_beta 90.000000
_cell_angle_gamma 90.000000
_cell_volume 3291.981618
_symmetry_space_group_name_H-M "C M C A"
_symmetry_group_IT_number 64
_symmetry_cell_setting 'orthorhombic'
loop_
_space_group_symop_operation_xyz
x,y,z
-x,1/2-y,1/2+z
x,-y,-z
-x,1/2+y,1/2-z
-x,-y,-z
x,1/2+y,1/2-z
-x,y,z
x,1/2-y,1/2+z
1/2+x,1/2+y,z
1/2-x,-y,1/2+z
1/2+x,1/2-y,-z
1/2-x,y,1/2-z
1/2-x,1/2-y,-z
1/2+x,y,1/2-z
1/2-x,1/2+y,z
1/2+x,-y,1/2+z
loop_
_atom_site_type_symbol
_atom_site_label
_atom_site_fract_x
_atom_site_fract_y
_atom_site_fract_z
Si Si1 0.684816 0.207826 0.667130
Si Si2 0.818772 0.050588 0.681139
Si Si3 0.423395 0.901358 0.060877
Si Si4 0.077901 0.860984 0.040229
O O1 0.756387 0.135782 0.640797
O O2 0.666215 0.115557 0.739049
O O3 0.695098 0.377860 0.685396
O O4 0.626040 0.190500 0.606344
O O5 0.886735 0.086888 0.637607
O O6 0.500000 0.961559 0.074889
O O7 0.423406 0.742313 0.029415
O O8 0.385798 0.000000 0.000000
O O9 0.000000 0.882760 0.070529
O O10 0.108703 0.000000 0.000000
#
# Coordination Sequence:
#
# PCOD8264078 Si02
#       4
#    16  16  16  16
#     4  11  24  41  61  88 121 157 200 244 294 353
#     4  11  24  40  62  87 120 159 197 246 295 351
#     4  10  21  41  63  87 119 155 195 242 296 351
#     4  10  23  41  63  90 121 155 197 247 295 351
#
# _framework density 19.441177
#
# number of rings (size 3 to 8) (size 9 to 14) (size 15 to 20)
#    0.000    1.500    2.500    3.000    7.000    3.000 
#    0.000    0.000    0.000    0.000    0.000    0.000 
#    0.000    0.000    0.000    0.000    0.000    0.000 
#
# Total GULP energy -396552.544195 kJ/mol
# GULP energy per Si atom -12392.267006 kJ/mol
# Density = 1.939693 g / cm^3
# Si number density = 19.441177 Si / 1000 Ang^3
#
#
#
# Elastic Constant Matrix: (Units=GPa)
#
#
# Indices 1 2 3 4 5 6 
#
# 1 93.5916 35.5869 55.7892 0.0000 0.0000 0.0000
# 2 35.5869 147.0956 41.5975 0.0000 0.0000 0.0000
# 3 55.7892 41.5975 71.3532 0.0000 0.0000 0.0000
# 4 0.0000 0.0000 0.0000 33.9567 0.0000 0.0000
# 5 0.0000 0.0000 0.0000 0.0000 25.7904 0.0000
# 6 0.0000 0.0000 0.0000 0.0000 0.0000 10.3468
#
#
#
# Elastic Compliance Matrix: (Units=1/GPa)
#
#
# Indices 1 2 3 4 5 6 
#
# 1 0.020042 -0.000500 -0.015379 0.000000 0.000000 0.000000
# 2 -0.000500 0.008153 -0.004362 0.000000 0.000000 0.000000
# 3 -0.015379 -0.004362 0.028582 0.000000 0.000000 0.000000
# 4 0.000000 0.000000 0.000000 0.029449 0.000000 0.000000
# 5 0.000000 0.000000 0.000000 0.000000 0.038774 0.000000
# 6 0.000000 0.000000 0.000000 0.000000 0.000000 0.096648
#
#
# Mechanical properties :
#
#
# Convention : Reuss Voigt Hill
#
# Bulk Modulus (GPa) = 61.36746 64.22083 62.79414
# Shear Modulus (GPa) = 18.68721 25.95655 22.32188
#
# Velocity S-wave (km/s) = 3.10371 3.65791 3.39215
# Velocity P-wave (km/s) = 6.66921 7.13761 6.90738
#
# Compressibility (1/GPa) = 0.01629528
#
# Stress axis : x y z
#
# Youngs Moduli (GPa) = 49.89512 122.65731 34.98665
#
# Poissons Ratio (x) = 0.06129 0.53806
# Poissons Ratio (y) = 0.02493 0.15262
# Poissons Ratio (z) = 0.76734 0.53506
#
# Static dielectric constant tensor:
#      x y z
#    x 3.666990 0.000000 0.000000 
#    y 0.000000 3.869930 0.000000 
#    z 0.000000 0.000000 3.772560 
# 
# 
# High freq. dielectric constant tensor:
#      x y z
#    x 1.754350 0.000000 0.000000 
#    y 0.000000 1.782380 0.000000 
#    z 0.000000 0.000000 1.749130 
# 
# From -- ./inp_files/26934.got.cif
#   From: 2010.03.12/outbox.cif.g09.slc.cpg/sg64_14_cif.got.tgz:26934.got - 2010.04.10 20:19:32.
