data_PCOD8264586
_publ_section_title
;
Structure prediction by ZEFSAII (Michael W. Deem and Ramdas Pophale) SiO2 
 PCOD8264586
Probable space group: C M C A
;
_chemical_formula_sum "Si O2"
_cell_formula_units_Z 64
_cell_length_a 22.180137
_cell_length_b 14.357100
_cell_length_c 8.688670
_cell_angle_alpha 90.000000
_cell_angle_beta 90.000000
_cell_angle_gamma 90.000000
_cell_volume 2766.841318
_symmetry_space_group_name_H-M "C M C A"
_symmetry_group_IT_number 64
_symmetry_cell_setting 'orthorhombic'
loop_
_space_group_symop_operation_xyz
x,y,z
-x,1/2-y,1/2+z
x,-y,-z
-x,1/2+y,1/2-z
-x,-y,-z
x,1/2+y,1/2-z
-x,y,z
x,1/2-y,1/2+z
1/2+x,1/2+y,z
1/2-x,-y,1/2+z
1/2+x,1/2-y,-z
1/2-x,y,1/2-z
1/2-x,1/2-y,-z
1/2+x,y,1/2-z
1/2-x,1/2+y,z
1/2+x,-y,1/2+z
loop_
_atom_site_type_symbol
_atom_site_label
_atom_site_fract_x
_atom_site_fract_y
_atom_site_fract_z
Si Si1 0.180394 0.274468 0.994065
Si Si2 0.500000 0.866064 0.721930
Si Si3 0.121756 0.553419 0.156920
Si Si4 0.370069 0.629749 0.788519
Si Si5 0.500000 0.831430 0.360550
O O1 0.165030 0.357805 0.873163
O O2 0.147787 0.177220 0.949710
O O3 0.250000 0.250000 0.000000
O O4 0.156528 0.300911 0.160787
O O5 0.560205 0.921605 0.759243
O O6 0.500000 0.844278 0.542416
O O7 0.500000 0.777805 0.832335
O O8 0.155246 0.475707 0.265876
O O9 0.105744 0.500000 0.000000
O O10 0.442368 0.622593 0.778565
#
# Coordination Sequence:
#
# PCOD8264586 Si02
#       5
#    16   8  16  16   8
#     4  11  24  47  72  99 141 195 241 293 355 422
#     4  12  24  43  72 109 147 187 237 294 379 442
#     4  10  24  43  73 105 142 190 236 297 371 431
#     4  11  24  46  72 104 144 183 239 297 365 433
#     4  12  25  41  77 106 145 186 229 303 376 435
#
# _framework density 23.131069
#
# number of rings (size 3 to 8) (size 9 to 14) (size 15 to 20)
#    0.000    1.000    2.500    3.375    3.500    2.000 
#    0.000   15.000    0.000    0.000    0.000    0.000 
#    0.000    0.000    0.000    0.000    0.000    0.000 
#
# Total GULP energy -396705.395263 kJ/mol
# GULP energy per Si atom -12397.043602 kJ/mol
# Density = 2.307842 g / cm^3
# Si number density = 23.131069 Si / 1000 Ang^3
#
#
#
# Elastic Constant Matrix: (Units=GPa)
#
#
# Indices 1 2 3 4 5 6 
#
# 1 160.5857 44.4749 44.4598 0.0000 0.0000 0.0000
# 2 44.4749 145.5166 41.3275 0.0000 0.0000 0.0000
# 3 44.4598 41.3275 61.8867 0.0000 0.0000 0.0000
# 4 0.0000 0.0000 0.0000 35.0769 0.0000 0.0000
# 5 0.0000 0.0000 0.0000 0.0000 14.8775 0.0000
# 6 0.0000 0.0000 0.0000 0.0000 0.0000 19.8229
#
#
#
# Elastic Compliance Matrix: (Units=1/GPa)
#
#
# Indices 1 2 3 4 5 6 
#
# 1 0.007887 -0.000989 -0.005006 0.000000 0.000000 0.000000
# 2 -0.000989 0.008604 -0.005036 0.000000 0.000000 0.000000
# 3 -0.005006 -0.005036 0.023117 0.000000 0.000000 0.000000
# 4 0.000000 0.000000 0.000000 0.028509 0.000000 0.000000
# 5 0.000000 0.000000 0.000000 0.000000 0.067216 0.000000
# 6 0.000000 0.000000 0.000000 0.000000 0.000000 0.050447
#
#
# Mechanical properties :
#
#
# Convention : Reuss Voigt Hill
#
# Bulk Modulus (GPa) = 56.98478 69.83481 63.40980
# Shear Modulus (GPa) = 23.39842 29.80392 26.60117
#
# Velocity S-wave (km/s) = 3.18395 3.59343 3.39487
# Velocity P-wave (km/s) = 6.18108 6.89010 6.54520
#
# Compressibility (1/GPa) = 0.01754854
#
# Stress axis : x y z
#
# Youngs Moduli (GPa) = 126.79180 116.21916 43.25750
#
# Poissons Ratio (x) = 0.11493 0.21653
# Poissons Ratio (y) = 0.12538 0.21783
# Poissons Ratio (z) = 0.63468 0.58523
#
# Static dielectric constant tensor:
#      x y z
#    x 4.078500 0.000000 0.000000 
#    y 0.000000 4.668480 0.000000 
#    z 0.000000 0.000000 4.211980 
# 
# 
# High freq. dielectric constant tensor:
#      x y z
#    x 1.900300 0.000000 0.000000 
#    y 0.000000 1.937300 0.000000 
#    z 0.000000 0.000000 1.918270 
# 
# From -- ./inp_files/9013.got.cif
#   From: 2010.03.12/outbox.cif.g09.slc.cpg/sg64_5_cif.got.tgz:9013.got - 2010.04.10 20:19:32.
