data_PCOD8264700
_publ_section_title
;
Structure prediction by ZEFSAII (Michael W. Deem and Ramdas Pophale) SiO2 
 PCOD8264700
Probable space group: C M C A
;
_chemical_formula_sum "Si O2"
_cell_formula_units_Z 80
_cell_length_a 17.154114
_cell_length_b 9.922019
_cell_length_c 28.622490
_cell_angle_alpha 90.000000
_cell_angle_beta 90.000000
_cell_angle_gamma 90.000000
_cell_volume 4871.646404
_symmetry_space_group_name_H-M "C M C A"
_symmetry_group_IT_number 64
_symmetry_cell_setting 'orthorhombic'
loop_
_space_group_symop_operation_xyz
x,y,z
-x,1/2-y,1/2+z
x,-y,-z
-x,1/2+y,1/2-z
-x,-y,-z
x,1/2+y,1/2-z
-x,y,z
x,1/2-y,1/2+z
1/2+x,1/2+y,z
1/2-x,-y,1/2+z
1/2+x,1/2-y,-z
1/2-x,y,1/2-z
1/2-x,1/2-y,-z
1/2+x,y,1/2-z
1/2-x,1/2+y,z
1/2+x,-y,1/2+z
loop_
_atom_site_type_symbol
_atom_site_label
_atom_site_fract_x
_atom_site_fract_y
_atom_site_fract_z
Si Si1 0.205946 0.898778 0.878452
Si Si2 0.832337 0.883106 0.775104
Si Si3 0.832035 0.312482 0.381176
Si Si4 0.909473 0.998944 0.053458
Si Si5 0.409486 0.165852 0.715335
O O1 0.175668 0.840546 0.829245
O O2 0.282058 0.818090 0.895207
O O3 0.225535 0.058525 0.872034
O O4 0.137937 0.885922 0.917756
O O5 0.750000 0.865545 0.750000
O O6 0.894937 0.782730 0.752720
O O7 0.862274 0.034440 0.768916
O O8 0.890021 0.351936 0.423978
O O9 0.882537 0.281743 0.335326
O O10 0.000000 0.032884 0.058060
O O11 0.881914 0.000000 0.000000
O O12 0.500000 0.129291 0.713283
#
# Coordination Sequence:
#
# PCOD8264700 Si02
#       5
#    16  16  16  16  16
#     4   9  20  33  55  78 104 136 175 215 260 303
#     4  11  21  34  53  74 106 142 176 210 255 313
#     4   9  19  34  52  76 105 133 170 215 256 307
#     4   9  19  35  57  80 104 137 174 215 264 311
#     4  11  22  33  50  76 105 138 176 215 256 304
#
# _framework density 16.421554
#
# number of rings (size 3 to 8) (size 9 to 14) (size 15 to 20)
#    1.200    1.000    2.000    1.800    2.800    1.600 
#    0.000    0.000    0.000    2.400    0.000    2.800 
#    0.000    0.000    0.000    0.000    0.000    0.000 
#
# Total GULP energy -495756.447229 kJ/mol
# GULP energy per Si atom -12393.911181 kJ/mol
# Density = 1.638418 g / cm^3
# Si number density = 16.421554 Si / 1000 Ang^3
#
#
#
# Elastic Constant Matrix: (Units=GPa)
#
#
# Indices 1 2 3 4 5 6 
#
# 1 64.3505 16.4002 30.6457 0.0000 0.0000 0.0000
# 2 16.4002 40.7795 19.2344 0.0000 0.0000 0.0000
# 3 30.6457 19.2344 124.9280 0.0000 0.0000 0.0000
# 4 0.0000 0.0000 0.0000 11.4740 0.0000 0.0000
# 5 0.0000 0.0000 0.0000 0.0000 28.4032 0.0000
# 6 0.0000 0.0000 0.0000 0.0000 0.0000 25.2797
#
#
#
# Elastic Compliance Matrix: (Units=1/GPa)
#
#
# Indices 1 2 3 4 5 6 
#
# 1 0.018788 -0.005804 -0.003715 0.000000 0.000000 0.000000
# 2 -0.005804 0.028235 -0.002924 0.000000 0.000000 0.000000
# 3 -0.003715 -0.002924 0.009366 0.000000 0.000000 0.000000
# 4 0.000000 0.000000 0.000000 0.087154 0.000000 0.000000
# 5 0.000000 0.000000 0.000000 0.000000 0.035207 0.000000
# 6 0.000000 0.000000 0.000000 0.000000 0.000000 0.039558
#
#
# Mechanical properties :
#
#
# Convention : Reuss Voigt Hill
#
# Bulk Modulus (GPa) = 31.74143 40.29094 36.01619
# Shear Modulus (GPa) = 19.70872 23.94987 21.82930
#
# Velocity S-wave (km/s) = 3.46811 3.82310 3.64992
# Velocity P-wave (km/s) = 5.95047 6.63903 6.30416
#
# Compressibility (1/GPa) = 0.03150456
#
# Stress axis : x y z
#
# Youngs Moduli (GPa) = 53.22435 35.41687 106.76761
#
# Poissons Ratio (x) = 0.20555 0.39668
# Poissons Ratio (y) = 0.30890 0.31214
# Poissons Ratio (z) = 0.19775 0.10354
#
# Static dielectric constant tensor:
#      x y z
#    x 2.934520 0.000000 0.000000 
#    y 0.000000 2.890050 0.000000 
#    z 0.000000 0.000000 3.142080 
# 
# 
# High freq. dielectric constant tensor:
#      x y z
#    x 1.624570 0.000000 0.000000 
#    y 0.000000 1.612030 0.000000 
#    z 0.000000 0.000000 1.635060 
# 
# From -- ./inp_files/53153.got.cif
#   From: 2010.03.12/outbox.cif.g09.slc.cpg/sg64_27_cif.got.tgz:53153.got - 2010.04.10 20:19:32.
