data_PCOD8264688
_publ_section_title
;
Structure prediction by ZEFSAII (Michael W. Deem and Ramdas Pophale) SiO2 
 PCOD8264688
Probable space group: C M C A
;
_chemical_formula_sum "Si O2"
_cell_formula_units_Z 96
_cell_length_a 17.554612
_cell_length_b 13.549649
_cell_length_c 24.230218
_cell_angle_alpha 90.000000
_cell_angle_beta 90.000000
_cell_angle_gamma 90.000000
_cell_volume 5763.371327
_symmetry_space_group_name_H-M "C M C A"
_symmetry_group_IT_number 64
_symmetry_cell_setting 'orthorhombic'
loop_
_space_group_symop_operation_xyz
x,y,z
-x,1/2-y,1/2+z
x,-y,-z
-x,1/2+y,1/2-z
-x,-y,-z
x,1/2+y,1/2-z
-x,y,z
x,1/2-y,1/2+z
1/2+x,1/2+y,z
1/2-x,-y,1/2+z
1/2+x,1/2-y,-z
1/2-x,y,1/2-z
1/2-x,1/2-y,-z
1/2+x,y,1/2-z
1/2-x,1/2+y,z
1/2+x,-y,1/2+z
loop_
_atom_site_type_symbol
_atom_site_label
_atom_site_fract_x
_atom_site_fract_y
_atom_site_fract_z
Si Si1 0.912737 0.585797 0.276045
Si Si2 0.090468 0.105829 0.435763
Si Si3 0.412194 0.283531 0.670750
Si Si4 0.338103 0.617052 0.762827
Si Si5 0.090579 0.384802 0.057415
Si Si6 0.090163 0.222550 0.663413
O O1 0.905600 0.628308 0.214560
O O2 0.858387 0.492397 0.283000
O O3 0.882148 0.668019 0.319601
O O4 0.000000 0.555970 0.288720
O O5 0.121295 0.176578 0.387360
O O6 0.116729 0.147323 0.495789
O O7 0.000000 0.102838 0.431611
O O8 0.121864 0.994315 0.428592
O O9 0.500000 0.248519 0.666078
O O10 0.360388 0.191400 0.688033
O O11 0.250000 0.626777 0.750000
O O12 0.383941 0.641178 0.707402
O O13 0.121839 0.307059 0.102815
O O14 0.000000 0.387519 0.059630
O O15 0.000000 0.220817 0.665200
#
# Coordination Sequence:
#
# PCOD8264688 Si02
#       6
#    16  16  16  16  16  16
#     4   9  17  29  45  64  86 116 150 182 221 266
#     4   8  13  22  42  71  96 115 140 182 228 265
#     4   9  17  30  48  68  90 116 146 183 226 269
#     4  11  21  30  43  64  91 119 150 185 222 265
#     4   8  13  23  42  70  96 114 141 183 227 265
#     4   9  17  30  48  67  89 116 146 184 227 269
#
# _framework density 16.656917
#
# number of rings (size 3 to 8) (size 9 to 14) (size 15 to 20)
#    0.000    3.000    0.000    4.500    0.000    5.333 
#    0.000    0.000    0.000    2.000    0.000    8.167 
#    0.000    0.000    0.000    0.000    0.000    0.000 
#
# Total GULP energy -594936.775341 kJ/mol
# GULP energy per Si atom -12394.516153 kJ/mol
# Density = 1.661901 g / cm^3
# Si number density = 16.656917 Si / 1000 Ang^3
#
#
#
# Elastic Constant Matrix: (Units=GPa)
#
#
# Indices 1 2 3 4 5 6 
#
# 1 29.0329 36.7932 24.3291 0.0000 0.0000 0.0000
# 2 36.7932 116.1740 76.0147 0.0000 0.0000 0.0000
# 3 24.3291 76.0147 150.6093 0.0000 0.0000 0.0000
# 4 0.0000 0.0000 0.0000 29.4857 0.0000 0.0000
# 5 0.0000 0.0000 0.0000 0.0000 7.5976 0.0000
# 6 0.0000 0.0000 0.0000 0.0000 0.0000 4.9669
#
#
#
# Elastic Compliance Matrix: (Units=1/GPa)
#
#
# Indices 1 2 3 4 5 6 
#
# 1 0.057539 -0.018128 -0.000145 0.000000 0.000000 0.000000
# 2 -0.018128 0.018563 -0.006441 0.000000 0.000000 0.000000
# 3 -0.000145 -0.006441 0.009914 0.000000 0.000000 0.000000
# 4 0.000000 0.000000 0.000000 0.033915 0.000000 0.000000
# 5 0.000000 0.000000 0.000000 0.000000 0.131621 0.000000
# 6 0.000000 0.000000 0.000000 0.000000 0.000000 0.201332
#
#
# Mechanical properties :
#
#
# Convention : Reuss Voigt Hill
#
# Bulk Modulus (GPa) = 27.33129 63.34333 45.33731
# Shear Modulus (GPa) = 9.71802 18.98865 14.35334
#
# Velocity S-wave (km/s) = 2.41803 3.38003 2.93866
# Velocity P-wave (km/s) = 4.92340 7.30367 6.22830
#
# Compressibility (1/GPa) = 0.03658810
#
# Stress axis : x y z
#
# Youngs Moduli (GPa) = 17.37954 53.86938 100.86783
#
# Poissons Ratio (x) = 0.97654 0.01465
# Poissons Ratio (y) = 0.31506 0.64968
# Poissons Ratio (z) = 0.00252 0.34697
#
# Static dielectric constant tensor:
#      x y z
#    x 2.688520 0.000000 0.000000 
#    y 0.000000 3.155190 0.000000 
#    z 0.000000 0.000000 3.487820 
# 
# 
# High freq. dielectric constant tensor:
#      x y z
#    x 1.593880 0.000000 0.000000 
#    y 0.000000 1.634930 0.000000 
#    z 0.000000 0.000000 1.641160 
# 
# From -- ./inp_files/45748.got.cif
#   From: 2010.03.12/outbox.cif.g09.slc.cpg/sg64_23_cif.got.tgz:45748.got - 2010.04.10 20:19:32.
