data_PCOD8264701
_publ_section_title
;
Structure prediction by ZEFSAII (Michael W. Deem and Ramdas Pophale) SiO2 
 PCOD8264701
Probable space group: C M C A
;
_chemical_formula_sum "Si O2"
_cell_formula_units_Z 96
_cell_length_a 9.117579
_cell_length_b 19.065646
_cell_length_c 30.705804
_cell_angle_alpha 90.000000
_cell_angle_beta 90.000000
_cell_angle_gamma 90.000000
_cell_volume 5337.667705
_symmetry_space_group_name_H-M "C M C A"
_symmetry_group_IT_number 64
_symmetry_cell_setting 'orthorhombic'
loop_
_space_group_symop_operation_xyz
x,y,z
-x,1/2-y,1/2+z
x,-y,-z
-x,1/2+y,1/2-z
-x,-y,-z
x,1/2+y,1/2-z
-x,y,z
x,1/2-y,1/2+z
1/2+x,1/2+y,z
1/2-x,-y,1/2+z
1/2+x,1/2-y,-z
1/2-x,y,1/2-z
1/2-x,1/2-y,-z
1/2+x,y,1/2-z
1/2-x,1/2+y,z
1/2+x,-y,1/2+z
loop_
_atom_site_type_symbol
_atom_site_label
_atom_site_fract_x
_atom_site_fract_y
_atom_site_fract_z
Si Si1 0.173001 0.577858 0.985207
Si Si2 0.667100 0.257849 0.370406
Si Si3 0.830037 0.637110 0.436515
Si Si4 0.329480 0.850394 0.705218
Si Si5 0.671508 0.460076 0.860901
Si Si6 0.171787 0.107006 0.894831
O O1 0.241178 0.595605 0.938976
O O2 0.000000 0.586798 0.981856
O O3 0.219476 0.500000 0.000000
O O4 0.235382 0.634130 0.019580
O O5 0.500000 0.284881 0.368846
O O6 0.691846 0.212568 0.414089
O O7 0.703881 0.212979 0.327711
O O8 0.776241 0.323378 0.370500
O O9 0.765623 0.577058 0.404302
O O10 0.000000 0.623802 0.448116
O O11 0.500000 0.856463 0.715682
O O12 0.250000 0.835108 0.750000
O O13 0.268042 0.922644 0.682996
O O14 0.500000 0.442471 0.861823
O O15 0.706447 0.542534 0.861849
O O16 0.000000 0.110946 0.905353
#
# Coordination Sequence:
#
# PCOD8264701 Si02
#       6
#    16  16  16  16  16  16
#     4  11  22  33  49  77 110 140 176 227 272 307
#     4   9  20  37  55  77 109 142 173 218 271 312
#     4   9  17  34  56  73  97 141 186 219 255 307
#     4   9  18  36  60  82 104 133 170 213 260 316
#     4   8  16  32  54  77 101 132 172 214 257 303
#     4  11  21  34  55  78 105 142 181 220 261 317
#
# _framework density 17.985384
#
# number of rings (size 3 to 8) (size 9 to 14) (size 15 to 20)
#    0.000    2.500    1.667    3.000    0.000    2.667 
#    0.000    5.000    0.000    4.000    0.000    0.000 
#    0.000    0.000    0.000    0.000    0.000    0.000 
#
# Total GULP energy -595118.666706 kJ/mol
# GULP energy per Si atom -12398.305556 kJ/mol
# Density = 1.794445 g / cm^3
# Si number density = 17.985384 Si / 1000 Ang^3
#
#
#
# Elastic Constant Matrix: (Units=GPa)
#
#
# Indices 1 2 3 4 5 6 
#
# 1 68.7268 46.7288 46.8551 0.0000 0.0000 0.0000
# 2 46.7288 105.2213 43.8207 0.0000 0.0000 0.0000
# 3 46.8551 43.8207 111.3867 0.0000 0.0000 0.0000
# 4 0.0000 0.0000 0.0000 17.1707 0.0000 0.0000
# 5 0.0000 0.0000 0.0000 0.0000 29.1429 0.0000
# 6 0.0000 0.0000 0.0000 0.0000 0.0000 26.9809
#
#
#
# Elastic Compliance Matrix: (Units=1/GPa)
#
#
# Indices 1 2 3 4 5 6 
#
# 1 0.025052 -0.008057 -0.007368 0.000000 0.000000 0.000000
# 2 -0.008057 0.013957 -0.002102 0.000000 0.000000 0.000000
# 3 -0.007368 -0.002102 0.012904 0.000000 0.000000 0.000000
# 4 0.000000 0.000000 0.000000 0.058239 0.000000 0.000000
# 5 0.000000 0.000000 0.000000 0.000000 0.034314 0.000000
# 6 0.000000 0.000000 0.000000 0.000000 0.000000 0.037063
#
#
# Mechanical properties :
#
#
# Convention : Reuss Voigt Hill
#
# Bulk Modulus (GPa) = 59.31545 62.23819 60.77682
# Shear Modulus (GPa) = 22.50196 24.52091 23.51143
#
# Velocity S-wave (km/s) = 3.54096 3.69640 3.61952
# Velocity P-wave (km/s) = 7.05473 7.27309 7.16474
#
# Compressibility (1/GPa) = 0.01685901
#
# Stress axis : x y z
#
# Youngs Moduli (GPa) = 39.91708 71.64795 77.49440
#
# Poissons Ratio (x) = 0.57726 0.57102
# Poissons Ratio (y) = 0.32161 0.16287
# Poissons Ratio (z) = 0.29413 0.15059
#
# Static dielectric constant tensor:
#      x y z
#    x 3.135950 0.000000 0.000000 
#    y 0.000000 3.381790 0.000000 
#    z 0.000000 0.000000 3.200440 
# 
# 
# High freq. dielectric constant tensor:
#      x y z
#    x 1.681790 0.000000 0.000000 
#    y 0.000000 1.696120 0.000000 
#    z 0.000000 0.000000 1.686310 
# 
# From -- ./inp_files/48102.got.cif
#   From: 2010.03.12/outbox.cif.g09.slc.cpg/sg64_25_cif.got.tgz:48102.got - 2010.04.10 20:19:32.
