data_PCOD8264823
_publ_section_title
;
Structure prediction by ZEFSAII (Michael W. Deem and Ramdas Pophale) SiO2 
 PCOD8264823
Probable space group: C M C A
;
_chemical_formula_sum "Si O2"
_cell_formula_units_Z 64
_cell_length_a 18.191273
_cell_length_b 14.511743
_cell_length_c 11.388496
_cell_angle_alpha 90.000000
_cell_angle_beta 90.000000
_cell_angle_gamma 90.000000
_cell_volume 3006.415789
_symmetry_space_group_name_H-M "C M C A"
_symmetry_group_IT_number 64
_symmetry_cell_setting 'orthorhombic'
loop_
_space_group_symop_operation_xyz
x,y,z
-x,1/2-y,1/2+z
x,-y,-z
-x,1/2+y,1/2-z
-x,-y,-z
x,1/2+y,1/2-z
-x,y,z
x,1/2-y,1/2+z
1/2+x,1/2+y,z
1/2-x,-y,1/2+z
1/2+x,1/2-y,-z
1/2-x,y,1/2-z
1/2-x,1/2-y,-z
1/2+x,y,1/2-z
1/2-x,1/2+y,z
1/2+x,-y,1/2+z
loop_
_atom_site_type_symbol
_atom_site_label
_atom_site_fract_x
_atom_site_fract_y
_atom_site_fract_z
Si Si1 0.836285 0.907994 0.546422
Si Si2 0.174908 0.852665 0.290462
Si Si3 0.914560 0.818756 0.749626
Si Si4 0.180514 0.032349 0.129480
O O1 0.810983 0.856413 0.429641
O O2 0.894288 0.847452 0.617225
O O3 0.766203 0.935813 0.628362
O O4 0.877306 0.000000 0.500000
O O5 0.250000 0.802675 0.250000
O O6 0.105162 0.788759 0.263952
O O7 0.166405 0.951103 0.224654
O O8 0.870686 0.881156 0.841795
O O9 0.000000 0.832132 0.772674
O O10 0.157560 0.000000 0.000000
#
# Coordination Sequence:
#
# PCOD8264823 Si02
#       4
#    16  16  16  16
#     4  11  22  46  75 100 127 177 235 293 337 395
#     4  12  23  43  74 104 132 174 233 291 343 394
#     4  12  29  44  62 102 148 185 223 273 347 426
#     4  11  23  45  75 100 129 176 237 296 341 392
#
# _framework density 21.287806
#
# number of rings (size 3 to 8) (size 9 to 14) (size 15 to 20)
#    0.000    0.500    7.500    2.250    3.500    5.000 
#    0.000    0.000    0.000    0.000    0.000    0.000 
#    0.000    0.000    0.000    0.000    0.000    0.000 
#
# Total GULP energy -396730.249308 kJ/mol
# GULP energy per Si atom -12397.820291 kJ/mol
# Density = 2.123935 g / cm^3
# Si number density = 21.287806 Si / 1000 Ang^3
#
#
#
# Elastic Constant Matrix: (Units=GPa)
#
#
# Indices 1 2 3 4 5 6 
#
# 1 103.4351 57.2275 29.7236 0.0000 0.0000 0.0000
# 2 57.2275 116.2660 34.2357 0.0000 0.0000 0.0000
# 3 29.7236 34.2357 91.9640 0.0000 0.0000 0.0000
# 4 0.0000 0.0000 0.0000 24.3240 0.0000 0.0000
# 5 0.0000 0.0000 0.0000 0.0000 13.2356 0.0000
# 6 0.0000 0.0000 0.0000 0.0000 0.0000 19.9286
#
#
#
# Elastic Compliance Matrix: (Units=1/GPa)
#
#
# Indices 1 2 3 4 5 6 
#
# 1 0.013653 -0.006088 -0.002146 0.000000 0.000000 0.000000
# 2 -0.006088 0.012375 -0.002639 0.000000 0.000000 0.000000
# 3 -0.002146 -0.002639 0.012550 0.000000 0.000000 0.000000
# 4 0.000000 0.000000 0.000000 0.041112 0.000000 0.000000
# 5 0.000000 0.000000 0.000000 0.000000 0.075554 0.000000
# 6 0.000000 0.000000 0.000000 0.000000 0.000000 0.050179
#
#
# Mechanical properties :
#
#
# Convention : Reuss Voigt Hill
#
# Bulk Modulus (GPa) = 59.41525 61.55986 60.48755
# Shear Modulus (GPa) = 21.47952 24.19619 22.83785
#
# Velocity S-wave (km/s) = 3.17993 3.37504 3.27894
# Velocity P-wave (km/s) = 6.43845 6.64594 6.54302
#
# Compressibility (1/GPa) = 0.01683070
#
# Stress axis : x y z
#
# Youngs Moduli (GPa) = 73.24345 80.80975 79.68147
#
# Poissons Ratio (x) = 0.49199 0.17102
# Poissons Ratio (y) = 0.44592 0.21028
# Poissons Ratio (z) = 0.15720 0.21326
#
# Static dielectric constant tensor:
#      x y z
#    x 3.489040 0.000000 0.000000 
#    y 0.000000 3.937280 0.000000 
#    z 0.000000 0.000000 4.134520 
# 
# 
# High freq. dielectric constant tensor:
#      x y z
#    x 1.796780 0.000000 0.000000 
#    y 0.000000 1.840050 0.000000 
#    z 0.000000 0.000000 1.863550 
# 
# From -- ./inp_files/15445.got.cif
#   From: 2010.03.12/outbox.cif.g09.slc.cpg/sg64_8_cif.got.tgz:15445.got - 2010.04.10 20:19:32.
