data_PCOD8264181
_publ_section_title
;
Structure prediction by ZEFSAII (Michael W. Deem and Ramdas Pophale) SiO2 
 PCOD8264181
Probable space group: C M C A
;
_chemical_formula_sum "Si O2"
_cell_formula_units_Z 96
_cell_length_a 14.061810
_cell_length_b 20.048011
_cell_length_c 17.173516
_cell_angle_alpha 90.000000
_cell_angle_beta 90.000000
_cell_angle_gamma 90.000000
_cell_volume 4841.408591
_symmetry_space_group_name_H-M "C M C A"
_symmetry_group_IT_number 64
_symmetry_cell_setting 'orthorhombic'
loop_
_space_group_symop_operation_xyz
x,y,z
-x,1/2-y,1/2+z
x,-y,-z
-x,1/2+y,1/2-z
-x,-y,-z
x,1/2+y,1/2-z
-x,y,z
x,1/2-y,1/2+z
1/2+x,1/2+y,z
1/2-x,-y,1/2+z
1/2+x,1/2-y,-z
1/2-x,y,1/2-z
1/2-x,1/2-y,-z
1/2+x,y,1/2-z
1/2-x,1/2+y,z
1/2+x,-y,1/2+z
loop_
_atom_site_type_symbol
_atom_site_label
_atom_site_fract_x
_atom_site_fract_y
_atom_site_fract_z
Si Si1 0.822113 0.994934 0.411519
Si Si2 0.000000 0.102990 0.192681
Si Si3 0.688777 0.371560 0.075430
Si Si4 0.000000 0.368193 0.327808
Si Si5 0.206867 0.760636 0.333611
Si Si6 0.000000 0.019667 0.696757
Si Si7 0.691425 0.118105 0.395084
Si Si8 0.500000 0.754458 0.213616
O O1 0.774240 0.063934 0.384387
O O2 0.859540 0.000000 0.500000
O O3 0.744046 0.938160 0.403440
O O4 0.907737 0.974906 0.356395
O O5 0.093235 0.091252 0.140627
O O6 0.000000 0.175884 0.232046
O O7 0.000000 0.051245 0.262243
O O8 0.590107 0.378776 0.118807
O O9 0.746860 0.306609 0.101075
O O10 0.669890 0.364868 0.984265
O O11 0.000000 0.419460 0.256485
O O12 0.000000 0.292763 0.295583
O O13 0.250000 0.779839 0.250000
O O14 0.229752 0.683771 0.351692
O O15 0.093416 0.773798 0.335858
#
# Coordination Sequence:
#
# PCOD8264181 Si02
#       8
#    16   8  16   8  16   8  16   8
#     4  10  24  42  62  88 124 162 204 252 306 370
#     4  10  23  39  61  93 120 160 201 256 300 366
#     4  11  23  41  63  90 124 165 203 251 312 363
#     4  12  23  37  61  93 120 160 203 256 300 370
#     4  11  22  39  64  91 124 159 208 256 302 363
#     4  12  25  38  63  92 122 160 208 248 315 356
#     4  10  23  42  63  90 124 164 203 252 308 366
#     4  10  22  38  56  90 126 152 200 258 302 346
#
# _framework density 19.828939999999999
#
# number of rings (size 3 to 8) (size 9 to 14) (size 15 to 20)
#    0.000    1.333    1.667    3.250    4.667    1.333 
#    0.000    4.167    0.000    2.000    0.000    0.000 
#    0.000    0.000    0.000    0.000    0.000    0.000 
#
# Total GULP energy -595468.117186 kJ/mol
# GULP energy per Si atom -12405.585775 kJ/mol
# Density = 1.978381 g / cm^3
# Si number density = 19.828940 Si / 1000 Ang^3
#
#
#
# Elastic Constant Matrix: (Units=GPa)
#
#
# Indices 1 2 3 4 5 6 
#
# 1 112.5774 19.6462 45.8690 0.0000 0.0000 0.0000
# 2 19.6462 61.4774 19.5635 0.0000 0.0000 0.0000
# 3 45.8690 19.5635 79.2689 0.0000 0.0000 0.0000
# 4 0.0000 0.0000 0.0000 38.0171 0.0000 0.0000
# 5 0.0000 0.0000 0.0000 0.0000 157.1257 0.0000
# 6 0.0000 0.0000 0.0000 0.0000 0.0000 -37.7921
#
#
#
# Elastic Compliance Matrix: (Units=1/GPa)
#
#
# Indices 1 2 3 4 5 6 
#
# 1 0.011791 -0.001733 -0.006395 0.000000 0.000000 0.000000
# 2 -0.001733 0.017907 -0.003417 0.000000 0.000000 0.000000
# 3 -0.006395 -0.003417 0.017159 0.000000 0.000000 0.000000
# 4 0.000000 0.000000 0.000000 0.026304 0.000000 0.000000
# 5 0.000000 0.000000 0.000000 0.000000 0.006364 0.000000
# 6 0.000000 0.000000 0.000000 0.000000 0.000000 -0.026461
#
#
# Mechanical properties :
#
#
# Convention : Reuss Voigt Hill
#
# Bulk Modulus (GPa) = 42.07403 47.05345 44.56374
# Shear Modulus (GPa) = 59.46936 42.68646 51.07791
#
# Velocity S-wave (km/s) = 5.48236 4.64479 5.08087
# Velocity P-wave (km/s) = 7.83196 7.24891 7.54607
#
# Compressibility (1/GPa) = 0.02376763
#
# Stress axis : x y z
#
# Youngs Moduli (GPa) = 84.81165 55.84340 58.27821
#
# Poissons Ratio (x) = 0.09677 0.37269
# Poissons Ratio (y) = 0.14697 0.19912
# Poissons Ratio (z) = 0.54238 0.19080
#
# Static dielectric constant tensor:
#      x y z
#    x 3.591920 0.000000 0.000000 
#    y 0.000000 3.728220 0.000000 
#    z 0.000000 0.000000 3.692830 
# 
# 
# High freq. dielectric constant tensor:
#      x y z
#    x 1.785800 0.000000 0.000000 
#    y 0.000000 1.787060 0.000000 
#    z 0.000000 0.000000 1.776000 
# 
# From -- ./inp_files/24038.got.cif
#   From: 2010.03.12/outbox.cif.g09.slc.cpg/sg64_13_cif.got.tgz:24038.got - 2010.04.10 20:19:32.
