data_PCOD8264726
_publ_section_title
;
Structure prediction by ZEFSAII (Michael W. Deem and Ramdas Pophale) SiO2 
 PCOD8264726
Probable space group: C M C A
;
_chemical_formula_sum "Si O2"
_cell_formula_units_Z 96
_cell_length_a 28.795872
_cell_length_b 12.491373
_cell_length_c 13.932922
_cell_angle_alpha 90.000000
_cell_angle_beta 90.000000
_cell_angle_gamma 90.000000
_cell_volume 5011.671737
_symmetry_space_group_name_H-M "C M C A"
_symmetry_group_IT_number 64
_symmetry_cell_setting 'orthorhombic'
loop_
_space_group_symop_operation_xyz
x,y,z
-x,1/2-y,1/2+z
x,-y,-z
-x,1/2+y,1/2-z
-x,-y,-z
x,1/2+y,1/2-z
-x,y,z
x,1/2-y,1/2+z
1/2+x,1/2+y,z
1/2-x,-y,1/2+z
1/2+x,1/2-y,-z
1/2-x,y,1/2-z
1/2-x,1/2-y,-z
1/2+x,y,1/2-z
1/2-x,1/2+y,z
1/2+x,-y,1/2+z
loop_
_atom_site_type_symbol
_atom_site_label
_atom_site_fract_x
_atom_site_fract_y
_atom_site_fract_z
Si Si1 0.299283 0.381771 0.960310
Si Si2 0.000000 0.257220 0.392189
Si Si3 0.436206 0.614653 0.271447
Si Si4 0.000000 0.283415 0.619545
Si Si5 0.500000 0.576546 0.730728
Si Si6 0.669179 0.106858 0.262885
Si Si7 0.750000 0.062827 0.750000
Si Si8 0.279645 0.253896 0.127648
O O1 0.338087 0.380301 0.877371
O O2 0.251290 0.344500 0.909730
O O3 0.292100 0.500000 0.000000
O O4 0.313240 0.295815 0.041981
O O5 0.954673 0.188614 0.359521
O O6 0.000000 0.290720 0.504085
O O7 0.000000 0.368545 0.335035
O O8 0.454330 0.662973 0.169253
O O9 0.454312 0.494549 0.280840
O O10 0.381418 0.599086 0.282198
O O11 0.000000 0.158551 0.643028
O O12 0.691798 0.214144 0.219245
O O13 0.702699 0.005943 0.242316
O O14 0.749390 0.140014 0.656758
#
# Coordination Sequence:
#
# PCOD8264726 Si02
#       8
#    16   8  16   8   8  16   8  16
#     4  11  21  38  59  84 111 159 210 252 295 350
#     4   9  19  41  68  84 116 155 189 239 308 368
#     4   9  22  36  60  92 118 150 195 243 300 363
#     4   9  19  41  66  86 118 151 193 239 306 368
#     4   8  18  42  58  86 114 150 180 248 298 360
#     4  12  22  39  57  88 124 160 206 249 303 347
#     4  12  20  38  58  78 122 174 196 250 304 342
#     4  11  22  38  60  80 116 167 209 250 297 343
#
# _framework density 19.155286
#
# number of rings (size 3 to 8) (size 9 to 14) (size 15 to 20)
#    0.000    2.000    5.000    0.000    0.000    6.667 
#    3.000    0.000   11.000    0.000    0.000    0.000 
#    0.000    0.000    0.000    0.000    0.000    0.000 
#
# Total GULP energy -594724.799359 kJ/mol
# GULP energy per Si atom -12390.099987 kJ/mol
# Density = 1.911169 g / cm^3
# Si number density = 19.155286 Si / 1000 Ang^3
#
#
#
# Elastic Constant Matrix: (Units=GPa)
#
#
# Indices 1 2 3 4 5 6 
#
# 1 100.7678 37.0075 8.8309 0.0000 0.0000 0.0000
# 2 37.0075 90.0777 19.8952 0.0000 0.0000 0.0000
# 3 8.8309 19.8952 101.8757 0.0000 0.0000 0.0000
# 4 0.0000 0.0000 0.0000 35.4894 0.0000 0.0000
# 5 0.0000 0.0000 0.0000 0.0000 17.9912 0.0000
# 6 0.0000 0.0000 0.0000 0.0000 0.0000 11.0497
#
#
#
# Elastic Compliance Matrix: (Units=1/GPa)
#
#
# Indices 1 2 3 4 5 6 
#
# 1 0.011688 -0.004784 -0.000079 0.000000 0.000000 0.000000
# 2 -0.004784 0.013560 -0.002233 0.000000 0.000000 0.000000
# 3 -0.000079 -0.002233 0.010259 0.000000 0.000000 0.000000
# 4 0.000000 0.000000 0.000000 0.028177 0.000000 0.000000
# 5 0.000000 0.000000 0.000000 0.000000 0.055583 0.000000
# 6 0.000000 0.000000 0.000000 0.000000 0.000000 0.090501
#
#
# Mechanical properties :
#
#
# Convention : Reuss Voigt Hill
#
# Bulk Modulus (GPa) = 46.91797 47.13201 47.02499
# Shear Modulus (GPa) = 21.63885 28.03856 24.83871
#
# Velocity S-wave (km/s) = 3.36468 3.83005 3.60488
# Velocity P-wave (km/s) = 6.29614 6.64964 6.47530
#
# Compressibility (1/GPa) = 0.02131380
#
# Stress axis : x y z
#
# Youngs Moduli (GPa) = 85.55924 73.74382 97.47647
#
# Poissons Ratio (x) = 0.35282 0.00768
# Poissons Ratio (y) = 0.40935 0.21771
# Poissons Ratio (z) = 0.00674 0.16471
#
# Static dielectric constant tensor:
#      x y z
#    x 3.138230 0.000000 0.000000 
#    y 0.000000 3.649120 0.000000 
#    z 0.000000 0.000000 3.763050 
# 
# 
# High freq. dielectric constant tensor:
#      x y z
#    x 1.705330 0.000000 0.000000 
#    y 0.000000 1.763740 0.000000 
#    z 0.000000 0.000000 1.752580 
# 
# From -- ./inp_files/28359.got.cif
#   From: 2010.03.12/outbox.cif.g09.slc.cpg/sg64_15_cif.got.tgz:28359.got - 2010.04.10 20:19:32.
