data_PCOD8264851
_publ_section_title
;
Structure prediction by ZEFSAII (Michael W. Deem and Ramdas Pophale) SiO2 
 PCOD8264851
Probable space group: C M C A
;
_chemical_formula_sum "Si O2"
_cell_formula_units_Z 112
_cell_length_a 13.465876
_cell_length_b 14.021000
_cell_length_c 26.642597
_cell_angle_alpha 90.000000
_cell_angle_beta 90.000000
_cell_angle_gamma 90.000000
_cell_volume 5030.256789
_symmetry_space_group_name_H-M "C M C A"
_symmetry_group_IT_number 64
_symmetry_cell_setting 'orthorhombic'
loop_
_space_group_symop_operation_xyz
x,y,z
-x,1/2-y,1/2+z
x,-y,-z
-x,1/2+y,1/2-z
-x,-y,-z
x,1/2+y,1/2-z
-x,y,z
x,1/2-y,1/2+z
1/2+x,1/2+y,z
1/2-x,-y,1/2+z
1/2+x,1/2-y,-z
1/2-x,y,1/2-z
1/2-x,1/2-y,-z
1/2+x,y,1/2-z
1/2-x,1/2+y,z
1/2+x,-y,1/2+z
loop_
_atom_site_type_symbol
_atom_site_label
_atom_site_fract_x
_atom_site_fract_y
_atom_site_fract_z
Si Si1 0.888623 0.628896 0.274523
Si Si2 0.749888 0.400966 0.980169
Si Si3 0.315292 0.210171 0.836125
Si Si4 0.389438 0.072353 0.110996
Si Si5 0.615235 0.530089 0.707732
Si Si6 0.382164 0.272293 0.448446
Si Si7 0.605553 0.248345 0.674376
O O1 0.822741 0.679667 0.317395
O O2 0.844542 0.523996 0.258307
O O3 0.883666 0.691150 0.224516
O O4 0.000000 0.622220 0.296236
O O5 0.817471 0.436740 0.935189
O O6 0.661160 0.331999 0.962002
O O7 0.701783 0.500000 0.000000
O O8 0.822588 0.350671 0.020077
O O9 0.368036 0.143940 0.793468
O O10 0.365801 0.201171 0.890103
O O11 0.199264 0.179219 0.835281
O O12 0.500000 0.034107 0.096864
O O13 0.396578 0.182325 0.126619
O O14 0.340071 0.009767 0.155688
O O15 0.500000 0.501961 0.707582
O O16 0.500000 0.274634 0.460483
O O17 0.500000 0.190689 0.675751
#
# Coordination Sequence:
#
# PCOD8264851 Si02
#       7
#    16  16  16  16  16  16  16
#     4   9  19  36  59  88 121 157 198 253 315 369
#     4  11  23  41  65  94 129 172 214 267 325 392
#     4  12  20  37  64  92 126 168 206 262 317 374
#     4   9  17  36  62  86 117 157 205 266 314 360
#     4   9  19  34  60  94 121 156 208 258 309 371
#     4  11  25  41  64 101 130 165 220 271 326 388
#     4   9  19  36  58  85 118 160 207 251 309 368
#
# _framework density 22.265266
#
# number of rings (size 3 to 8) (size 9 to 14) (size 15 to 20)
#    0.000    2.000    1.429    4.714    0.000    2.571 
#    0.000    5.714    0.000    6.857    0.000    0.000 
#    0.000    0.000    0.000    0.000    0.000    0.000 
#
# Total GULP energy -693907.001255 kJ/mol
# GULP energy per Si atom -12391.196451 kJ/mol
# Density = 2.221459 g / cm^3
# Si number density = 22.265266 Si / 1000 Ang^3
#
#
#
# Elastic Constant Matrix: (Units=GPa)
#
#
# Indices 1 2 3 4 5 6 
#
# 1 99.6953 17.1406 9.9609 0.0000 0.0000 0.0000
# 2 17.1406 90.7212 19.3066 0.0000 0.0000 0.0000
# 3 9.9609 19.3066 60.9724 0.0000 0.0000 0.0000
# 4 0.0000 0.0000 0.0000 34.4532 0.0000 0.0000
# 5 0.0000 0.0000 0.0000 0.0000 57.3484 0.0000
# 6 0.0000 0.0000 0.0000 0.0000 0.0000 22.1993
#
#
#
# Elastic Compliance Matrix: (Units=1/GPa)
#
#
# Indices 1 2 3 4 5 6 
#
# 1 0.010443 -0.001726 -0.001159 0.000000 0.000000 0.000000
# 2 -0.001726 0.012105 -0.003551 0.000000 0.000000 0.000000
# 3 -0.001159 -0.003551 0.017715 0.000000 0.000000 0.000000
# 4 0.000000 0.000000 0.000000 0.029025 0.000000 0.000000
# 5 0.000000 0.000000 0.000000 0.000000 0.017437 0.000000
# 6 0.000000 0.000000 0.000000 0.000000 0.000000 0.045046
#
#
# Mechanical properties :
#
#
# Convention : Reuss Voigt Hill
#
# Bulk Modulus (GPa) = 36.51075 38.24502 37.37788
# Shear Modulus (GPa) = 32.51524 36.46558 34.49041
#
# Velocity S-wave (km/s) = 3.82561 4.05134 3.94009
# Velocity P-wave (km/s) = 5.99561 6.25290 6.12561
#
# Compressibility (1/GPa) = 0.02738920
#
# Stress axis : x y z
#
# Youngs Moduli (GPa) = 95.75593 82.61311 56.45050
#
# Poissons Ratio (x) = 0.14262 0.06545
# Poissons Ratio (y) = 0.16531 0.20045
# Poissons Ratio (z) = 0.11102 0.29335
#
# Static dielectric constant tensor:
#      x y z
#    x 4.141440 0.000000 0.000000 
#    y 0.000000 4.068680 0.000000 
#    z 0.000000 0.000000 3.947940 
# 
# 
# High freq. dielectric constant tensor:
#      x y z
#    x 1.879900 0.000000 0.000000 
#    y 0.000000 1.860080 0.000000 
#    z 0.000000 0.000000 1.865820 
# 
# From -- ./inp_files/45277.got.cif
#   From: 2010.03.12/outbox.cif.g09.slc.cpg/sg64_23_cif.got.tgz:45277.got - 2010.04.10 20:19:32.
