data_PCOD8264146
_publ_section_title
;
Structure prediction by ZEFSAII (Michael W. Deem and Ramdas Pophale) SiO2 
 PCOD8264146
Probable space group: C M C A
;
_chemical_formula_sum "Si O2"
_cell_formula_units_Z 64
_cell_length_a 17.311889
_cell_length_b 14.781149
_cell_length_c 14.431672
_cell_angle_alpha 90.000000
_cell_angle_beta 90.000000
_cell_angle_gamma 90.000000
_cell_volume 3692.914931
_symmetry_space_group_name_H-M "C M C A"
_symmetry_group_IT_number 64
_symmetry_cell_setting 'orthorhombic'
loop_
_space_group_symop_operation_xyz
x,y,z
-x,1/2-y,1/2+z
x,-y,-z
-x,1/2+y,1/2-z
-x,-y,-z
x,1/2+y,1/2-z
-x,y,z
x,1/2-y,1/2+z
1/2+x,1/2+y,z
1/2-x,-y,1/2+z
1/2+x,1/2-y,-z
1/2-x,y,1/2-z
1/2-x,1/2-y,-z
1/2+x,y,1/2-z
1/2-x,1/2+y,z
1/2+x,-y,1/2+z
loop_
_atom_site_type_symbol
_atom_site_label
_atom_site_fract_x
_atom_site_fract_y
_atom_site_fract_z
Si Si1 0.408958 0.379248 0.147000
Si Si2 0.821863 0.691401 0.468796
Si Si3 0.409496 0.232213 0.298095
Si Si4 0.821758 0.438632 0.687580
O O1 0.500000 0.386432 0.131258
O O2 0.386930 0.314506 0.232022
O O3 0.376808 0.477252 0.169950
O O4 0.371612 0.339189 0.055485
O O5 0.750000 0.750000 0.500000
O O6 0.875906 0.752462 0.401064
O O7 0.793536 0.602382 0.411578
O O8 0.500000 0.217228 0.304119
O O9 0.370775 0.139481 0.259118
O O10 0.750000 0.469281 0.750000
#
# Coordination Sequence:
#
# PCOD8264146 Si02
#       4
#    16  16  16  16
#     4  11  22  38  63  87 119 163 203 247 305 364
#     4  10  22  36  60  85 120 153 198 250 299 359
#     4   9  21  38  58  85 120 154 196 249 298 358
#     4  10  22  35  59  87 122 152 198 248 295 359
#
# _framework density 17.330483000000001
#
# number of rings (size 3 to 8) (size 9 to 14) (size 15 to 20)
#    1.500    0.500    0.000    3.750    3.500    1.000 
#    0.000    0.000    0.000    0.000    0.000   10.500 
#    0.000    0.000    0.000    0.000    0.000    0.000 
#
# Total GULP energy -396598.465525 kJ/mol
# GULP energy per Si atom -12393.702048 kJ/mol
# Density = 1.729104 g / cm^3
# Si number density = 17.330483 Si / 1000 Ang^3
#
#
#
# Elastic Constant Matrix: (Units=GPa)
#
#
# Indices 1 2 3 4 5 6 
#
# 1 97.1607 61.8238 58.9975 0.0000 0.0000 0.0000
# 2 61.8238 128.7728 55.5551 0.0000 0.0000 0.0000
# 3 58.9975 55.5551 64.5364 0.0000 0.0000 0.0000
# 4 0.0000 0.0000 0.0000 22.7221 0.0000 0.0000
# 5 0.0000 0.0000 0.0000 0.0000 38.5613 0.0000
# 6 0.0000 0.0000 0.0000 0.0000 0.0000 37.1012
#
#
#
# Elastic Compliance Matrix: (Units=1/GPa)
#
#
# Indices 1 2 3 4 5 6 
#
# 1 0.023968 -0.003268 -0.019098 0.000000 0.000000 0.000000
# 2 -0.003268 0.012799 -0.008030 0.000000 0.000000 0.000000
# 3 -0.019098 -0.008030 0.039867 0.000000 0.000000 0.000000
# 4 0.000000 0.000000 0.000000 0.044010 0.000000 0.000000
# 5 0.000000 0.000000 0.000000 0.000000 0.025933 0.000000
# 6 0.000000 0.000000 0.000000 0.000000 0.000000 0.026953
#
#
# Mechanical properties :
#
#
# Convention : Reuss Voigt Hill
#
# Bulk Modulus (GPa) = 63.12533 71.46917 67.29725
# Shear Modulus (GPa) = 20.86784 27.28316 24.07550
#
# Velocity S-wave (km/s) = 3.47380 3.97203 3.73124
# Velocity P-wave (km/s) = 7.25212 7.89712 7.58148
#
# Compressibility (1/GPa) = 0.01584150
#
# Stress axis : x y z
#
# Youngs Moduli (GPa) = 41.72196 78.13114 25.08349
#
# Poissons Ratio (x) = 0.25532 0.47904
# Poissons Ratio (y) = 0.13634 0.20143
# Poissons Ratio (z) = 0.79681 0.62742
#
# Static dielectric constant tensor:
#      x y z
#    x 3.219630 0.000000 0.000000 
#    y 0.000000 3.250810 0.000000 
#    z 0.000000 0.000000 3.330220 
# 
# 
# High freq. dielectric constant tensor:
#      x y z
#    x 1.676070 0.000000 0.000000 
#    y 0.000000 1.667680 0.000000 
#    z 0.000000 0.000000 1.670670 
# 
# From -- ./inp_files/15460.got.cif
#   From: 2010.03.12/outbox.cif.g09.slc.cpg/sg64_8_cif.got.tgz:15460.got - 2010.04.10 20:19:32.
