data_PCOD8264792
_publ_section_title
;
Structure prediction by ZEFSAII (Michael W. Deem and Ramdas Pophale) SiO2 
 PCOD8264792
Probable space group: C M C A
;
_chemical_formula_sum "Si O2"
_cell_formula_units_Z 64
_cell_length_a 25.227488
_cell_length_b 19.648348
_cell_length_c 5.136695
_cell_angle_alpha 90.000000
_cell_angle_beta 90.000000
_cell_angle_gamma 90.000000
_cell_volume 2546.149085
_symmetry_space_group_name_H-M "C M C A"
_symmetry_group_IT_number 64
_symmetry_cell_setting 'orthorhombic'
loop_
_space_group_symop_operation_xyz
x,y,z
-x,1/2-y,1/2+z
x,-y,-z
-x,1/2+y,1/2-z
-x,-y,-z
x,1/2+y,1/2-z
-x,y,z
x,1/2-y,1/2+z
1/2+x,1/2+y,z
1/2-x,-y,1/2+z
1/2+x,1/2-y,-z
1/2-x,y,1/2-z
1/2-x,1/2-y,-z
1/2+x,y,1/2-z
1/2-x,1/2+y,z
1/2+x,-y,1/2+z
loop_
_atom_site_type_symbol
_atom_site_label
_atom_site_fract_x
_atom_site_fract_y
_atom_site_fract_z
Si Si1 0.558711 0.654452 0.568201
Si Si2 0.808768 0.566030 0.155715
Si Si3 0.667910 0.289773 0.471407
Si Si4 0.412968 0.425823 0.924331
O O1 0.500000 0.687595 0.559382
O O2 0.603488 0.710965 0.510606
O O3 0.569310 0.625954 0.855074
O O4 0.562187 0.594659 0.353438
O O5 0.750000 0.551093 0.250000
O O6 0.810264 0.633124 0.974577
O O7 0.848630 0.576584 0.399175
O O8 0.829614 0.500000 0.000000
O O9 0.689814 0.253560 0.213759
O O10 0.434077 0.500000 0.000000
#
# Coordination Sequence:
#
# PCOD8264792 Si02
#       4
#    16  16  16  16
#     4  11  24  41  65  97 134 182 235 286 346 417
#     4  11  25  45  75 107 141 187 239 293 357 426
#     4  11  25  46  70 101 142 183 229 287 348 415
#     4  11  22  40  64  97 141 180 227 290 351 418
#
# _framework density 25.135999000000002
#
# number of rings (size 3 to 8) (size 9 to 14) (size 15 to 20)
#    0.000    1.000    0.000    8.250    0.000    7.000 
#    0.000    0.000    0.000    0.000    0.000    0.000 
#    0.000    0.000    0.000    0.000    0.000    0.000 
#
# Total GULP energy -396914.992919 kJ/mol
# GULP energy per Si atom -12403.593529 kJ/mol
# Density = 2.507879 g / cm^3
# Si number density = 25.135999 Si / 1000 Ang^3
#
#
#
# Elastic Constant Matrix: (Units=GPa)
#
#
# Indices 1 2 3 4 5 6 
#
# 1 88.8674 -16.0476 12.2021 0.0000 0.0000 0.0000
# 2 -16.0476 127.3351 39.4685 0.0000 0.0000 0.0000
# 3 12.2021 39.4685 140.0542 0.0000 0.0000 0.0000
# 4 0.0000 0.0000 0.0000 37.4334 0.0000 0.0000
# 5 0.0000 0.0000 0.0000 0.0000 25.0795 0.0000
# 6 0.0000 0.0000 0.0000 0.0000 0.0000 4.4549
#
#
#
# Elastic Compliance Matrix: (Units=1/GPa)
#
#
# Indices 1 2 3 4 5 6 
#
# 1 0.011829 0.001983 -0.001590 0.000000 0.000000 0.000000
# 2 0.001983 0.008938 -0.002691 0.000000 0.000000 0.000000
# 3 -0.001590 -0.002691 0.008037 0.000000 0.000000 0.000000
# 4 0.000000 0.000000 0.000000 0.026714 0.000000 0.000000
# 5 0.000000 0.000000 0.000000 0.000000 0.039873 0.000000
# 6 0.000000 0.000000 0.000000 0.000000 0.000000 0.224472
#
#
# Mechanical properties :
#
#
# Convention : Reuss Voigt Hill
#
# Bulk Modulus (GPa) = 41.30759 47.50028 44.40393
# Shear Modulus (GPa) = 15.03635 34.76913 24.90274
#
# Velocity S-wave (km/s) = 2.44847 3.72323 3.15099
# Velocity P-wave (km/s) = 4.94597 6.11732 5.56256
#
# Compressibility (1/GPa) = 0.02420863
#
# Stress axis : x y z
#
# Youngs Moduli (GPa) = 84.53685 111.88795 124.42359
#
# Poissons Ratio (x) = -0.22193 0.19778
# Poissons Ratio (y) = -0.16768 0.33488
# Poissons Ratio (z) = 0.13438 0.30114
#
# Static dielectric constant tensor:
#      x y z
#    x 4.570600 0.000000 0.000000 
#    y 0.000000 4.400410 0.000000 
#    z 0.000000 0.000000 4.582300 
# 
# 
# High freq. dielectric constant tensor:
#      x y z
#    x 1.998490 0.000000 0.000000 
#    y 0.000000 1.997450 0.000000 
#    z 0.000000 0.000000 2.010560 
# 
# From -- ./inp_files/2134.got.cif
#   From: 2010.03.12/outbox.cif.g09.slc.cpg/sg64_2_cif.got.tgz:2134.got - 2010.04.10 20:19:32.
