data_PCOD8264450
_publ_section_title
;
Structure prediction by ZEFSAII (Michael W. Deem and Ramdas Pophale) SiO2 
 PCOD8264450
Probable space group: C M C A
;
_chemical_formula_sum "Si O2"
_cell_formula_units_Z 80
_cell_length_a 13.315959
_cell_length_b 13.603431
_cell_length_c 22.757003
_cell_angle_alpha 90.000000
_cell_angle_beta 90.000000
_cell_angle_gamma 90.000000
_cell_volume 4122.265638
_symmetry_space_group_name_H-M "C M C A"
_symmetry_group_IT_number 64
_symmetry_cell_setting 'orthorhombic'
loop_
_space_group_symop_operation_xyz
x,y,z
-x,1/2-y,1/2+z
x,-y,-z
-x,1/2+y,1/2-z
-x,-y,-z
x,1/2+y,1/2-z
-x,y,z
x,1/2-y,1/2+z
1/2+x,1/2+y,z
1/2-x,-y,1/2+z
1/2+x,1/2-y,-z
1/2-x,y,1/2-z
1/2-x,1/2-y,-z
1/2+x,y,1/2-z
1/2-x,1/2+y,z
1/2+x,-y,1/2+z
loop_
_atom_site_type_symbol
_atom_site_label
_atom_site_fract_x
_atom_site_fract_y
_atom_site_fract_z
Si Si1 0.000000 0.857644 0.293863
Si Si2 0.500000 0.660245 0.367424
Si Si3 0.791719 0.398330 0.020144
Si Si4 0.500000 0.048601 0.920891
Si Si5 0.000000 0.435806 0.740092
Si Si6 0.796767 0.262375 0.907467
Si Si7 0.835010 0.802465 0.798211
O O1 0.000000 0.897632 0.359230
O O2 0.099033 0.793381 0.283604
O O3 0.000000 0.946857 0.247255
O O4 0.500000 0.569175 0.412698
O O5 0.500000 0.620030 0.301969
O O6 0.595778 0.730511 0.376139
O O7 0.903552 0.419113 0.042715
O O8 0.725547 0.349432 0.072055
O O9 0.739716 0.500000 0.000000
O O10 0.795887 0.329551 0.964197
O O11 0.098558 0.401777 0.704325
O O12 0.710207 0.297621 0.863262
O O13 0.750000 0.809683 0.750000
#
# Coordination Sequence:
#
# PCOD8264450 Si02
#       7
#     8   8  16   8   8  16  16
#     4  10  23  41  61  93 122 165 203 251 305 370
#     4  11  20  39  64  92 123 163 209 257 298 366
#     4  11  22  39  61  95 123 161 210 256 307 374
#     4  11  19  39  67  89 120 160 216 253 295 375
#     4  10  23  40  64  93 121 157 211 250 306 367
#     4  11  23  38  63  92 126 161 203 259 313 359
#     4  11  22  42  63  90 127 160 202 256 312 370
#
# _framework density 19.406803
#
# number of rings (size 3 to 8) (size 9 to 14) (size 15 to 20)
#    0.000    1.200    6.000    0.900    0.000    0.800 
#    3.600    0.500    0.000    0.000    0.000    0.000 
#    0.000    0.000    0.000    0.000    0.000    0.000 
#
# Total GULP energy -496028.463064 kJ/mol
# GULP energy per Si atom -12400.711577 kJ/mol
# Density = 1.936263 g / cm^3
# Si number density = 19.406803 Si / 1000 Ang^3
#
#
#
# Elastic Constant Matrix: (Units=GPa)
#
#
# Indices 1 2 3 4 5 6 
#
# 1 126.3469 50.7248 28.1665 0.0000 0.0000 0.0000
# 2 50.7248 98.9579 21.0995 0.0000 0.0000 0.0000
# 3 28.1665 21.0995 62.7587 0.0000 0.0000 0.0000
# 4 0.0000 0.0000 0.0000 36.8797 0.0000 0.0000
# 5 0.0000 0.0000 0.0000 0.0000 17.9118 0.0000
# 6 0.0000 0.0000 0.0000 0.0000 0.0000 35.4117
#
#
#
# Elastic Compliance Matrix: (Units=1/GPa)
#
#
# Indices 1 2 3 4 5 6 
#
# 1 0.010507 -0.004718 -0.003129 0.000000 0.000000 0.000000
# 2 -0.004718 0.013005 -0.002255 0.000000 0.000000 0.000000
# 3 -0.003129 -0.002255 0.018096 0.000000 0.000000 0.000000
# 4 0.000000 0.000000 0.000000 0.027115 0.000000 0.000000
# 5 0.000000 0.000000 0.000000 0.000000 0.055829 0.000000
# 6 0.000000 0.000000 0.000000 0.000000 0.000000 0.028239
#
#
# Mechanical properties :
#
#
# Convention : Reuss Voigt Hill
#
# Bulk Modulus (GPa) = 46.72120 54.22724 50.47422
# Shear Modulus (GPa) = 27.75779 30.57882 29.16831
#
# Velocity S-wave (km/s) = 3.78605 3.97378 3.88105
# Velocity P-wave (km/s) = 6.57565 7.00412 6.79326
#
# Compressibility (1/GPa) = 0.02140356
#
# Stress axis : x y z
#
# Youngs Moduli (GPa) = 95.17834 76.89588 55.25969
#
# Poissons Ratio (x) = 0.36282 0.17291
# Poissons Ratio (y) = 0.44909 0.12458
# Poissons Ratio (z) = 0.29782 0.17336
#
# Static dielectric constant tensor:
#      x y z
#    x 3.696450 0.000000 0.000000 
#    y 0.000000 3.842260 0.000000 
#    z 0.000000 0.000000 3.769410 
# 
# 
# High freq. dielectric constant tensor:
#      x y z
#    x 1.755290 0.000000 0.000000 
#    y 0.000000 1.751470 0.000000 
#    z 0.000000 0.000000 1.770990 
# 
# From -- ./inp_files/44015.got.cif
#   From: 2010.03.12/outbox.cif.g09.slc.cpg/sg64_23_cif.got.tgz:44015.got - 2010.04.10 20:19:32.
