data_PCOD8264523
_publ_section_title
;
Structure prediction by ZEFSAII (Michael W. Deem and Ramdas Pophale) SiO2 
 PCOD8264523
Probable space group: C M C A
;
_chemical_formula_sum "Si O2"
_cell_formula_units_Z 64
_cell_length_a 26.281747
_cell_length_b 11.627379
_cell_length_c 9.711370
_cell_angle_alpha 90.000000
_cell_angle_beta 90.000000
_cell_angle_gamma 90.000000
_cell_volume 2967.676515
_symmetry_space_group_name_H-M "C M C A"
_symmetry_group_IT_number 64
_symmetry_cell_setting 'orthorhombic'
loop_
_space_group_symop_operation_xyz
x,y,z
-x,1/2-y,1/2+z
x,-y,-z
-x,1/2+y,1/2-z
-x,-y,-z
x,1/2+y,1/2-z
-x,y,z
x,1/2-y,1/2+z
1/2+x,1/2+y,z
1/2-x,-y,1/2+z
1/2+x,1/2-y,-z
1/2-x,y,1/2-z
1/2-x,1/2-y,-z
1/2+x,y,1/2-z
1/2-x,1/2+y,z
1/2+x,-y,1/2+z
loop_
_atom_site_type_symbol
_atom_site_label
_atom_site_fract_x
_atom_site_fract_y
_atom_site_fract_z
Si Si1 0.000000 0.304903 0.442924
Si Si2 0.186575 0.170389 0.359577
Si Si3 0.925659 0.394522 0.907249
Si Si4 0.000000 0.972348 0.808703
Si Si5 0.793714 0.120573 0.050416
O O1 0.050254 0.226609 0.455805
O O2 0.000000 0.386815 0.306184
O O3 0.000000 0.408373 0.547933
O O4 0.134821 0.114704 0.412665
O O5 0.194737 0.297794 0.420653
O O6 0.183382 0.172316 0.192522
O O7 0.233853 0.097840 0.419126
O O8 0.948232 0.425005 0.759159
O O9 0.943956 0.500000 0.000000
O O10 0.817764 0.000000 0.000000
#
# Coordination Sequence:
#
# PCOD8264523 Si02
#       5
#     8  16  16   8  16
#     4  10  24  43  65  91 126 168 217 266 338 389
#     4  10  24  42  67  99 134 175 230 273 331 408
#     4  11  25  40  68  94 129 169 217 274 331 400
#     4  10  24  43  63  91 128 168 209 276 322 397
#     4  10  23  44  67  97 138 180 220 280 335 395
#
# _framework density 21.565693
#
# number of rings (size 3 to 8) (size 9 to 14) (size 15 to 20)
#    0.000    1.750    0.000    2.250   10.500   12.000 
#    0.000    0.000    0.000    0.000    0.000    0.000 
#    0.000    0.000    0.000    0.000    0.000    0.000 
#
# Total GULP energy -396497.960641 kJ/mol
# GULP energy per Si atom -12390.561270 kJ/mol
# Density = 2.151661 g / cm^3
# Si number density = 21.565693 Si / 1000 Ang^3
#
#
#
# Elastic Constant Matrix: (Units=GPa)
#
#
# Indices 1 2 3 4 5 6 
#
# 1 112.3673 25.0545 17.9571 0.0000 0.0000 0.0000
# 2 25.0545 155.8770 70.3567 0.0000 0.0000 0.0000
# 3 17.9571 70.3567 113.5189 0.0000 0.0000 0.0000
# 4 0.0000 0.0000 0.0000 40.7505 0.0000 0.0000
# 5 0.0000 0.0000 0.0000 0.0000 15.1538 0.0000
# 6 0.0000 0.0000 0.0000 0.0000 0.0000 23.8293
#
#
#
# Elastic Compliance Matrix: (Units=1/GPa)
#
#
# Indices 1 2 3 4 5 6 
#
# 1 0.009276 -0.001151 -0.000754 0.000000 0.000000 0.000000
# 2 -0.001151 0.009050 -0.005427 0.000000 0.000000 0.000000
# 3 -0.000754 -0.005427 0.012292 0.000000 0.000000 0.000000
# 4 0.000000 0.000000 0.000000 0.024540 0.000000 0.000000
# 5 0.000000 0.000000 0.000000 0.000000 0.065990 0.000000
# 6 0.000000 0.000000 0.000000 0.000000 0.000000 0.041965
#
#
# Mechanical properties :
#
#
# Convention : Reuss Voigt Hill
#
# Bulk Modulus (GPa) = 62.67767 67.61108 65.14437
# Shear Modulus (GPa) = 27.30832 33.83971 30.57402
#
# Velocity S-wave (km/s) = 3.56235 3.96554 3.76934
# Velocity P-wave (km/s) = 6.78581 7.23786 7.01548
#
# Compressibility (1/GPa) = 0.01595465
#
# Stress axis : x y z
#
# Youngs Moduli (GPa) = 107.79961 110.50097 81.35471
#
# Poissons Ratio (x) = 0.12714 0.06137
# Poissons Ratio (y) = 0.12403 0.44150
# Poissons Ratio (z) = 0.08131 0.59967
#
# Static dielectric constant tensor:
#      x y z
#    x 3.775780 0.000000 0.000000 
#    y 0.000000 3.848760 0.000000 
#    z 0.000000 0.000000 3.948860 
# 
# 
# High freq. dielectric constant tensor:
#      x y z
#    x 1.839080 0.000000 0.000000 
#    y 0.000000 1.855780 0.000000 
#    z 0.000000 0.000000 1.849240 
# 
# From -- ./inp_files/10897.got.cif
#   From: 2010.03.12/outbox.cif.g09.slc.cpg/sg64_6_cif.got.tgz:10897.got - 2010.04.10 20:19:32.
