data_PCOD8264705
_publ_section_title
;
Structure prediction by ZEFSAII (Michael W. Deem and Ramdas Pophale) SiO2 
 PCOD8264705
Probable space group: C M C A
;
_chemical_formula_sum "Si O2"
_cell_formula_units_Z 80
_cell_length_a 17.911548
_cell_length_b 25.278461
_cell_length_c 9.528252
_cell_angle_alpha 90.000000
_cell_angle_beta 90.000000
_cell_angle_gamma 90.000000
_cell_volume 4314.167330
_symmetry_space_group_name_H-M "C M C A"
_symmetry_group_IT_number 64
_symmetry_cell_setting 'orthorhombic'
loop_
_space_group_symop_operation_xyz
x,y,z
-x,1/2-y,1/2+z
x,-y,-z
-x,1/2+y,1/2-z
-x,-y,-z
x,1/2+y,1/2-z
-x,y,z
x,1/2-y,1/2+z
1/2+x,1/2+y,z
1/2-x,-y,1/2+z
1/2+x,1/2-y,-z
1/2-x,y,1/2-z
1/2-x,1/2-y,-z
1/2+x,y,1/2-z
1/2-x,1/2+y,z
1/2+x,-y,1/2+z
loop_
_atom_site_type_symbol
_atom_site_label
_atom_site_fract_x
_atom_site_fract_y
_atom_site_fract_z
Si Si1 0.586316 0.942123 0.972263
Si Si2 0.585371 0.351143 0.317638
Si Si3 0.166271 0.632694 0.235108
Si Si4 0.085232 0.169797 0.993687
Si Si5 0.331861 0.224565 0.013974
O O1 0.500000 0.948006 0.934974
O O2 0.622403 0.914605 0.837731
O O3 0.600280 0.907443 0.110660
O O4 0.621651 0.000000 0.000000
O O5 0.500000 0.331884 0.347786
O O6 0.598020 0.360566 0.152841
O O7 0.645267 0.308689 0.375806
O O8 0.250000 0.612775 0.250000
O O9 0.135135 0.641844 0.390118
O O10 0.162547 0.687648 0.150336
O O11 0.107144 0.230271 0.966687
O O12 0.000000 0.167544 0.043709
O O13 0.250000 0.250000 0.000000
#
# Coordination Sequence:
#
# PCOD8264705 Si02
#       5
#    16  16  16  16  16
#     4   9  19  40  65  82 105 150 199 243 293 347
#     4   9  20  36  55  82 113 146 192 237 280 337
#     4  11  22  38  56  85 120 149 192 240 292 348
#     4  11  22  35  55  84 118 154 193 236 284 342
#     4  11  21  35  54  81 116 157 188 224 275 343
#
# _framework density 18.543555000000001
#
# number of rings (size 3 to 8) (size 9 to 14) (size 15 to 20)
#    0.000    1.800    2.000    2.400    0.000    4.000 
#    0.000    3.000    0.000    4.800    0.000    0.000 
#    0.000    0.000    0.000    0.000    0.000    0.000 
#
# Total GULP energy -496088.842684 kJ/mol
# GULP energy per Si atom -12402.221067 kJ/mol
# Density = 1.850135 g / cm^3
# Si number density = 18.543555 Si / 1000 Ang^3
#
#
#
# Elastic Constant Matrix: (Units=GPa)
#
#
# Indices 1 2 3 4 5 6 
#
# 1 102.7807 46.2506 53.9828 0.0000 0.0000 0.0000
# 2 46.2506 121.0748 53.6761 0.0000 0.0000 0.0000
# 3 53.9828 53.6761 125.6617 0.0000 0.0000 0.0000
# 4 0.0000 0.0000 0.0000 14.2850 0.0000 0.0000
# 5 0.0000 0.0000 0.0000 0.0000 26.5129 0.0000
# 6 0.0000 0.0000 0.0000 0.0000 0.0000 25.1927
#
#
#
# Elastic Compliance Matrix: (Units=1/GPa)
#
#
# Indices 1 2 3 4 5 6 
#
# 1 0.013493 -0.003188 -0.004435 0.000000 0.000000 0.000000
# 2 -0.003188 0.010942 -0.003304 0.000000 0.000000 0.000000
# 3 -0.004435 -0.003304 0.011274 0.000000 0.000000 0.000000
# 4 0.000000 0.000000 0.000000 0.070003 0.000000 0.000000
# 5 0.000000 0.000000 0.000000 0.000000 0.037718 0.000000
# 6 0.000000 0.000000 0.000000 0.000000 0.000000 0.039694
#
#
# Mechanical properties :
#
#
# Convention : Reuss Voigt Hill
#
# Bulk Modulus (GPa) = 72.17463 73.03733 72.60598
# Shear Modulus (GPa) = 23.85518 26.23865 25.04692
#
# Velocity S-wave (km/s) = 3.59059 3.76569 3.67918
# Velocity P-wave (km/s) = 7.49640 7.64066 7.56887
#
# Compressibility (1/GPa) = 0.01385528
#
# Stress axis : x y z
#
# Youngs Moduli (GPa) = 74.11014 91.38923 88.69702
#
# Poissons Ratio (x) = 0.29139 0.39334
# Poissons Ratio (y) = 0.23630 0.29307
# Poissons Ratio (z) = 0.32865 0.30197
#
# Static dielectric constant tensor:
#      x y z
#    x 3.501810 0.000000 0.000000 
#    y 0.000000 3.385160 0.000000 
#    z 0.000000 0.000000 3.444250 
# 
# 
# High freq. dielectric constant tensor:
#      x y z
#    x 1.724950 0.000000 0.000000 
#    y 0.000000 1.701730 0.000000 
#    z 0.000000 0.000000 1.727180 
# 
# From -- ./inp_files/7033.got.cif
#   From: 2010.03.12/outbox.cif.g09.slc.cpg/sg64_4_cif.got.tgz:7033.got - 2010.04.10 20:19:32.
