data_PCOD8264343
_publ_section_title
;
Structure prediction by ZEFSAII (Michael W. Deem and Ramdas Pophale) SiO2 
 PCOD8264343
Probable space group: C M C A
;
_chemical_formula_sum "Si O2"
_cell_formula_units_Z 112
_cell_length_a 18.559751
_cell_length_b 11.694009
_cell_length_c 24.415736
_cell_angle_alpha 90.000000
_cell_angle_beta 90.000000
_cell_angle_gamma 90.000000
_cell_volume 5299.139952
_symmetry_space_group_name_H-M "C M C A"
_symmetry_group_IT_number 64
_symmetry_cell_setting 'orthorhombic'
loop_
_space_group_symop_operation_xyz
x,y,z
-x,1/2-y,1/2+z
x,-y,-z
-x,1/2+y,1/2-z
-x,-y,-z
x,1/2+y,1/2-z
-x,y,z
x,1/2-y,1/2+z
1/2+x,1/2+y,z
1/2-x,-y,1/2+z
1/2+x,1/2-y,-z
1/2-x,y,1/2-z
1/2-x,1/2-y,-z
1/2+x,y,1/2-z
1/2-x,1/2+y,z
1/2+x,-y,1/2+z
loop_
_atom_site_type_symbol
_atom_site_label
_atom_site_fract_x
_atom_site_fract_y
_atom_site_fract_z
Si Si1 0.849551 0.462182 0.592916
Si Si2 0.083631 0.200187 0.907799
Si Si3 0.586035 0.210870 0.321827
Si Si4 0.832641 0.737980 0.485619
Si Si5 0.419100 0.183521 0.200906
Si Si6 0.695210 0.962092 0.062125
Si Si7 0.079810 0.536876 0.859552
O O1 0.907308 0.563382 0.589827
O O2 0.867746 0.382908 0.644852
O O3 0.854376 0.385232 0.538183
O O4 0.770407 0.522173 0.594668
O O5 0.116927 0.248871 0.850563
O O6 0.000000 0.232788 0.912345
O O7 0.122536 0.260399 0.959290
O O8 0.500000 0.184411 0.326328
O O9 0.616763 0.206497 0.259754
O O10 0.604665 0.337606 0.341926
O O11 0.750000 0.750000 0.500000
O O12 0.840574 0.834650 0.439172
O O13 0.500000 0.231350 0.204840
O O14 0.418285 0.046617 0.192708
O O15 0.633176 0.024757 0.096703
O O16 0.704756 0.000000 0.000000
O O17 0.000000 0.540073 0.885450
#
# Coordination Sequence:
#
# PCOD8264343 Si02
#       7
#    16  16  16  16  16  16  16
#     4  12  24  40  66  97 131 175 218 265 335 397
#     4  11  24  41  68 101 131 167 223 281 331 396
#     4  10  22  41  67  95 128 168 216 275 330 386
#     4  12  23  42  62  92 131 177 214 257 332 395
#     4   9  21  41  67  96 127 169 217 270 334 390
#     4  12  23  39  66  88 130 178 210 258 322 397
#     4  10  22  41  66  95 125 165 220 272 320 390
#
# _framework density 21.135504999999998
#
# number of rings (size 3 to 8) (size 9 to 14) (size 15 to 20)
#    0.000    1.143    4.286    1.714    2.000    2.571 
#    0.000    0.714    0.000    0.000    0.000    0.000 
#    0.000    0.000    0.000    0.000    0.000    0.000 
#
# Total GULP energy -693882.184453 kJ/mol
# GULP energy per Si atom -12390.753294 kJ/mol
# Density = 2.108740 g / cm^3
# Si number density = 21.135505 Si / 1000 Ang^3
#
#
#
# Elastic Constant Matrix: (Units=GPa)
#
#
# Indices 1 2 3 4 5 6 
#
# 1 82.0173 22.9302 62.6185 0.0000 0.0000 0.0000
# 2 22.9302 108.7602 46.0178 0.0000 0.0000 0.0000
# 3 62.6185 46.0178 152.0933 0.0000 0.0000 0.0000
# 4 0.0000 0.0000 0.0000 28.9408 0.0000 0.0000
# 5 0.0000 0.0000 0.0000 0.0000 30.6756 0.0000
# 6 0.0000 0.0000 0.0000 0.0000 0.0000 28.9373
#
#
#
# Elastic Compliance Matrix: (Units=1/GPa)
#
#
# Indices 1 2 3 4 5 6 
#
# 1 0.017835 -0.000749 -0.007116 0.000000 0.000000 0.000000
# 2 -0.000749 0.010576 -0.002891 0.000000 0.000000 0.000000
# 3 -0.007116 -0.002891 0.010380 0.000000 0.000000 0.000000
# 4 0.000000 0.000000 0.000000 0.034553 0.000000 0.000000
# 5 0.000000 0.000000 0.000000 0.000000 0.032599 0.000000
# 6 0.000000 0.000000 0.000000 0.000000 0.000000 0.034558
#
#
# Mechanical properties :
#
#
# Convention : Reuss Voigt Hill
#
# Bulk Modulus (GPa) = 57.88097 67.33373 62.60735
# Shear Modulus (GPa) = 29.80211 31.79767 30.79989
#
# Velocity S-wave (km/s) = 3.75914 3.88295 3.82155
# Velocity P-wave (km/s) = 6.80342 7.21321 7.01131
#
# Compressibility (1/GPa) = 0.01727684
#
# Stress axis : x y z
#
# Youngs Moduli (GPa) = 56.06919 94.55462 96.34316
#
# Poissons Ratio (x) = 0.07085 0.68560
# Poissons Ratio (y) = 0.04201 0.27857
# Poissons Ratio (z) = 0.39900 0.27340
#
# Static dielectric constant tensor:
#      x y z
#    x 3.662720 0.000000 0.000000 
#    y 0.000000 2.995410 0.000000 
#    z 0.000000 0.000000 4.102250 
# 
# 
# High freq. dielectric constant tensor:
#      x y z
#    x 1.806150 0.000000 0.000000 
#    y 0.000000 1.846360 0.000000 
#    z 0.000000 0.000000 1.829420 
# 
# From -- ./inp_files/46323.got.cif
#   From: 2010.03.12/outbox.cif.g09.slc.cpg/sg64_24_cif.got.tgz:46323.got - 2010.04.10 20:19:32.
