data_PCOD8264500
_publ_section_title
;
Structure prediction by ZEFSAII (Michael W. Deem and Ramdas Pophale) SiO2 
 PCOD8264500
Probable space group: C M C A
;
_chemical_formula_sum "Si O2"
_cell_formula_units_Z 64
_cell_length_a 12.521792
_cell_length_b 9.242307
_cell_length_c 23.007941
_cell_angle_alpha 90.000000
_cell_angle_beta 90.000000
_cell_angle_gamma 90.000000
_cell_volume 2662.714669
_symmetry_space_group_name_H-M "C M C A"
_symmetry_group_IT_number 64
_symmetry_cell_setting 'orthorhombic'
loop_
_space_group_symop_operation_xyz
x,y,z
-x,1/2-y,1/2+z
x,-y,-z
-x,1/2+y,1/2-z
-x,-y,-z
x,1/2+y,1/2-z
-x,y,z
x,1/2-y,1/2+z
1/2+x,1/2+y,z
1/2-x,-y,1/2+z
1/2+x,1/2-y,-z
1/2-x,y,1/2-z
1/2-x,1/2-y,-z
1/2+x,y,1/2-z
1/2-x,1/2+y,z
1/2+x,-y,1/2+z
loop_
_atom_site_type_symbol
_atom_site_label
_atom_site_fract_x
_atom_site_fract_y
_atom_site_fract_z
Si Si1 0.874929 0.374233 0.092916
Si Si2 0.124345 0.972563 0.181912
Si Si3 0.626485 0.779366 0.217319
Si Si4 0.192161 0.554677 0.439220
O O1 0.849412 0.384254 0.162057
O O2 0.818349 0.511648 0.062433
O O3 0.000000 0.380029 0.079633
O O4 0.827122 0.224833 0.067144
O O5 0.174329 0.841779 0.221169
O O6 0.140265 0.959028 0.112732
O O7 0.000000 0.971569 0.195704
O O8 0.176001 0.122066 0.204742
O O9 0.500000 0.762423 0.222112
O O10 0.142031 0.500000 0.500000
#
# Coordination Sequence:
#
# PCOD8264500 Si02
#       4
#    16  16  16  16
#     4  10  23  43  64  90 127 163 205 267 316 362
#     4   9  18  34  59  90 124 160 202 257 310 366
#     4   8  16  33  56  85 119 155 200 253 313 370
#     4  11  23  41  64  93 127 169 216 252 306 383
#
# _framework density 24.035620000000002
#
# number of rings (size 3 to 8) (size 9 to 14) (size 15 to 20)
#    0.000    2.500    0.000    3.000    0.000    5.500 
#    0.000   10.000    0.000    0.000    0.000    0.000 
#    0.000    0.000    0.000    0.000    0.000    0.000 
#
# Total GULP energy -396643.924620 kJ/mol
# GULP energy per Si atom -12395.122644 kJ/mol
# Density = 2.398091 g / cm^3
# Si number density = 24.035620 Si / 1000 Ang^3
#
#
#
# Elastic Constant Matrix: (Units=GPa)
#
#
# Indices 1 2 3 4 5 6 
#
# 1 56.2547 24.0566 19.4951 0.0000 0.0000 0.0000
# 2 24.0566 69.0139 44.0229 0.0000 0.0000 0.0000
# 3 19.4951 44.0229 158.3040 0.0000 0.0000 0.0000
# 4 0.0000 0.0000 0.0000 33.3567 0.0000 0.0000
# 5 0.0000 0.0000 0.0000 0.0000 28.9484 0.0000
# 6 0.0000 0.0000 0.0000 0.0000 0.0000 29.8175
#
#
#
# Elastic Compliance Matrix: (Units=1/GPa)
#
#
# Indices 1 2 3 4 5 6 
#
# 1 0.020948 -0.006876 -0.000668 0.000000 0.000000 0.000000
# 2 -0.006876 0.019872 -0.004679 0.000000 0.000000 0.000000
# 3 -0.000668 -0.004679 0.007700 0.000000 0.000000 0.000000
# 4 0.000000 0.000000 0.000000 0.029979 0.000000 0.000000
# 5 0.000000 0.000000 0.000000 0.000000 0.034544 0.000000
# 6 0.000000 0.000000 0.000000 0.000000 0.000000 0.033537
#
#
# Mechanical properties :
#
#
# Convention : Reuss Voigt Hill
#
# Bulk Modulus (GPa) = 41.53851 50.96909 46.25380
# Shear Modulus (GPa) = 27.92494 31.49107 29.70800
#
# Velocity S-wave (km/s) = 3.41224 3.62357 3.51949
# Velocity P-wave (km/s) = 5.73098 6.22565 5.98343
#
# Compressibility (1/GPa) = 0.02407404
#
# Stress axis : x y z
#
# Youngs Moduli (GPa) = 47.73692 50.32322 129.86279
#
# Poissons Ratio (x) = 0.34603 0.08669
# Poissons Ratio (y) = 0.32825 0.60767
# Poissons Ratio (z) = 0.03187 0.23548
#
# Static dielectric constant tensor:
#      x y z
#    x 4.384680 0.000000 0.000000 
#    y 0.000000 4.247520 0.000000 
#    z 0.000000 0.000000 4.529760 
# 
# 
# High freq. dielectric constant tensor:
#      x y z
#    x 1.969090 0.000000 0.000000 
#    y 0.000000 1.931560 0.000000 
#    z 0.000000 0.000000 1.963880 
# 
# From -- ./inp_files/44780.got.cif
#   From: 2010.03.12/outbox.cif.g09.slc.cpg/sg64_23_cif.got.tgz:44780.got - 2010.04.10 20:19:32.
