data_PCOD8264938
_publ_section_title
;
Structure prediction by ZEFSAII (Michael W. Deem and Ramdas Pophale) SiO2 
 PCOD8264938
Probable space group: C M C A
;
_chemical_formula_sum "Si O2"
_cell_formula_units_Z 56
_cell_length_a 14.656111
_cell_length_b 17.480001
_cell_length_c 9.290525
_cell_angle_alpha 90.000000
_cell_angle_beta 90.000000
_cell_angle_gamma 90.000000
_cell_volume 2380.128776
_symmetry_space_group_name_H-M "C M C A"
_symmetry_group_IT_number 64
_symmetry_cell_setting 'orthorhombic'
loop_
_space_group_symop_operation_xyz
x,y,z
-x,1/2-y,1/2+z
x,-y,-z
-x,1/2+y,1/2-z
-x,-y,-z
x,1/2+y,1/2-z
-x,y,z
x,1/2-y,1/2+z
1/2+x,1/2+y,z
1/2-x,-y,1/2+z
1/2+x,1/2-y,-z
1/2-x,y,1/2-z
1/2-x,1/2-y,-z
1/2+x,y,1/2-z
1/2-x,1/2+y,z
1/2+x,-y,1/2+z
loop_
_atom_site_type_symbol
_atom_site_label
_atom_site_fract_x
_atom_site_fract_y
_atom_site_fract_z
Si Si1 0.402972 0.490583 0.665234
Si Si2 0.750000 0.121469 0.250000
Si Si3 0.100442 0.208322 0.065160
Si Si4 0.356264 0.841637 0.250711
O O1 0.420064 0.500000 0.500000
O O2 0.500000 0.460844 0.731832
O O3 0.320916 0.431529 0.668531
O O4 0.381743 0.569458 0.748068
O O5 0.811059 0.169263 0.138231
O O6 0.102757 0.297693 0.111609
O O7 0.000000 0.175582 0.111094
O O8 0.106639 0.200127 0.893731
O O9 0.250000 0.832012 0.250000
#
# Coordination Sequence:
#
# PCOD8264938 Si02
#       4
#    16   8  16  16
#     4  11  25  45  71 102 141 186 233 292 359 428
#     4  12  26  44  70 102 144 188 236 298 352 430
#     4  12  27  46  74 109 145 191 244 302 359 427
#     4  12  25  49  74 105 146 190 242 298 364 432
#
# _framework density 23.528137999999998
#
# number of rings (size 3 to 8) (size 9 to 14) (size 15 to 20)
#    0.000    0.286    2.857    6.000    4.000    0.000 
#    0.000    2.857    0.000    0.000    0.000    0.000 
#    0.000    0.000    0.000    0.000    0.000    0.000 
#
# Total GULP energy -346908.154479 kJ/mol
# GULP energy per Si atom -12389.576946 kJ/mol
# Density = 2.347459 g / cm^3
# Si number density = 23.528138 Si / 1000 Ang^3
#
#
#
# Elastic Constant Matrix: (Units=GPa)
#
#
# Indices 1 2 3 4 5 6 
#
# 1 216.8201 42.1005 24.3071 0.0000 0.0000 0.0000
# 2 42.1005 74.8058 8.3943 0.0000 0.0000 0.0000
# 3 24.3071 8.3943 67.8809 0.0000 0.0000 0.0000
# 4 0.0000 0.0000 0.0000 28.7429 0.0000 0.0000
# 5 0.0000 0.0000 0.0000 0.0000 15.5833 0.0000
# 6 0.0000 0.0000 0.0000 0.0000 0.0000 -27.8583
#
#
#
# Elastic Compliance Matrix: (Units=1/GPa)
#
#
# Indices 1 2 3 4 5 6 
#
# 1 0.005336 -0.002828 -0.001561 0.000000 0.000000 0.000000
# 2 -0.002828 0.015055 -0.000849 0.000000 0.000000 0.000000
# 3 -0.001561 -0.000849 0.015396 0.000000 0.000000 0.000000
# 4 0.000000 0.000000 0.000000 0.034791 0.000000 0.000000
# 5 0.000000 0.000000 0.000000 0.000000 0.064171 0.000000
# 6 0.000000 0.000000 0.000000 0.000000 0.000000 -0.035896
#
#
# Mechanical properties :
#
#
# Convention : Reuss Voigt Hill
#
# Bulk Modulus (GPa) = 39.50944 56.56785 48.03865
# Shear Modulus (GPa) = 42.45689 22.27390 32.36540
#
# Velocity S-wave (km/s) = 4.25257 3.08017 3.71294
# Velocity P-wave (km/s) = 6.39854 6.06175 6.23242
#
# Compressibility (1/GPa) = 0.02531040
#
# Stress axis : x y z
#
# Youngs Moduli (GPa) = 187.39707 66.42380 64.95328
#
# Poissons Ratio (x) = 0.18785 0.10140
# Poissons Ratio (y) = 0.52997 0.05515
# Poissons Ratio (z) = 0.29255 0.05640
#
# Static dielectric constant tensor:
#      x y z
#    x 5.427320 0.000000 0.000000 
#    y 0.000000 4.362590 0.000000 
#    z 0.000000 0.000000 4.713210 
# 
# 
# High freq. dielectric constant tensor:
#      x y z
#    x 1.977760 0.000000 0.000000 
#    y 0.000000 1.925790 0.000000 
#    z 0.000000 0.000000 1.918420 
# 
# From -- ./inp_files/5340.got.cif
#   From: 2010.03.12/outbox.cif.g09.slc.cpg/sg64_3_cif.got.tgz:5340.got - 2010.04.10 20:19:32.
