data_PCOD8264978
_publ_section_title
;
Structure prediction by ZEFSAII (Michael W. Deem and Ramdas Pophale) SiO2 
 PCOD8264978
Probable space group: C M C A
;
_chemical_formula_sum "Si O2"
_cell_formula_units_Z 104
_cell_length_a 21.296222
_cell_length_b 8.828299
_cell_length_c 27.627209
_cell_angle_alpha 90.000000
_cell_angle_beta 90.000000
_cell_angle_gamma 90.000000
_cell_volume 5194.175413
_symmetry_space_group_name_H-M "C M C A"
_symmetry_group_IT_number 64
_symmetry_cell_setting 'orthorhombic'
loop_
_space_group_symop_operation_xyz
x,y,z
-x,1/2-y,1/2+z
x,-y,-z
-x,1/2+y,1/2-z
-x,-y,-z
x,1/2+y,1/2-z
-x,y,z
x,1/2-y,1/2+z
1/2+x,1/2+y,z
1/2-x,-y,1/2+z
1/2+x,1/2-y,-z
1/2-x,y,1/2-z
1/2-x,1/2-y,-z
1/2+x,y,1/2-z
1/2-x,1/2+y,z
1/2+x,-y,1/2+z
loop_
_atom_site_type_symbol
_atom_site_label
_atom_site_fract_x
_atom_site_fract_y
_atom_site_fract_z
Si Si1 0.724629 0.318001 0.695784
Si Si2 0.893659 0.523552 0.554089
Si Si3 0.173636 0.487853 0.350889
Si Si4 0.500000 0.000206 0.877256
Si Si5 0.500000 0.261397 0.542785
Si Si6 0.070543 0.151836 0.204429
Si Si7 0.602062 0.006120 0.800326
Si Si8 0.000000 0.213188 0.064918
O O1 0.750000 0.293320 0.750000
O O2 0.778856 0.374462 0.659541
O O3 0.673051 0.450084 0.695524
O O4 0.696548 0.162467 0.676003
O O5 0.865873 0.500000 0.500000
O O6 0.835343 0.538659 0.591504
O O7 0.937087 0.671021 0.556317
O O8 0.936556 0.382238 0.568662
O O9 0.105750 0.534964 0.330565
O O10 0.500000 0.914245 0.927567
O O11 0.563081 0.962047 0.847990
O O12 0.500000 0.176937 0.889546
O O13 0.500000 0.301165 0.486198
O O14 0.105208 0.313500 0.207921
O O15 0.067123 0.077063 0.256891
O O16 0.000000 0.175302 0.184929
#
# Coordination Sequence:
#
# PCOD8264978 Si02
#       8
#    16  16  16   8   8  16  16   8
#     4  12  26  45  63  93 124 179 223 263 306 383
#     4   9  20  41  65  93 122 164 213 264 323 385
#     4  12  25  42  70  89 130 170 224 265 321 375
#     4  12  21  36  60  98 132 160 207 262 328 370
#     4   9  19  35  61  95 127 162 210 255 321 388
#     4  12  24  42  60  94 131 168 207 260 325 374
#     4  12  25  40  61  90 130 170 214 259 312 383
#     4   9  19  37  63  91 129 166 202 259 321 388
#
# _framework density 20.022427
#
# number of rings (size 3 to 8) (size 9 to 14) (size 15 to 20)
#    0.000    0.923    3.077    5.308    2.154    0.000 
#    1.385    0.769    0.000    1.846    0.000    0.000 
#    0.000    0.000    0.000    0.000    0.000    0.000 
#
# Total GULP energy -644951.449045 kJ/mol
# GULP energy per Si atom -12402.912482 kJ/mol
# Density = 1.997685 g / cm^3
# Si number density = 20.022427 Si / 1000 Ang^3
#
#
#
# Elastic Constant Matrix: (Units=GPa)
#
#
# Indices 1 2 3 4 5 6 
#
# 1 98.7379 38.6550 64.1518 0.0000 0.0000 0.0000
# 2 38.6550 103.1314 43.6681 0.0000 0.0000 0.0000
# 3 64.1518 43.6681 128.9239 0.0000 0.0000 0.0000
# 4 0.0000 0.0000 0.0000 29.7677 0.0000 0.0000
# 5 0.0000 0.0000 0.0000 0.0000 35.3947 0.0000
# 6 0.0000 0.0000 0.0000 0.0000 0.0000 34.1138
#
#
#
# Elastic Compliance Matrix: (Units=1/GPa)
#
#
# Indices 1 2 3 4 5 6 
#
# 1 0.015730 -0.003014 -0.006806 0.000000 0.000000 0.000000
# 2 -0.003014 0.011897 -0.002530 0.000000 0.000000 0.000000
# 3 -0.006806 -0.002530 0.012000 0.000000 0.000000 0.000000
# 4 0.000000 0.000000 0.000000 0.033593 0.000000 0.000000
# 5 0.000000 0.000000 0.000000 0.000000 0.028253 0.000000
# 6 0.000000 0.000000 0.000000 0.000000 0.000000 0.029314
#
#
# Mechanical properties :
#
#
# Convention : Reuss Voigt Hill
#
# Bulk Modulus (GPa) = 66.99262 69.30477 68.14869
# Shear Modulus (GPa) = 31.15976 32.14313 31.65145
#
# Velocity S-wave (km/s) = 3.94920 4.01104 3.98024
# Velocity P-wave (km/s) = 7.37064 7.49266 7.43190
#
# Compressibility (1/GPa) = 0.01492702
#
# Stress axis : x y z
#
# Youngs Moduli (GPa) = 63.57327 84.05275 83.33160
#
# Poissons Ratio (x) = 0.25332 0.56718
# Poissons Ratio (y) = 0.19160 0.21084
# Poissons Ratio (z) = 0.43270 0.21266
#
# Static dielectric constant tensor:
#      x y z
#    x 3.592560 0.000000 0.000000 
#    y 0.000000 3.602720 0.000000 
#    z 0.000000 0.000000 3.707500 
# 
# 
# High freq. dielectric constant tensor:
#      x y z
#    x 1.772110 0.000000 0.000000 
#    y 0.000000 1.789000 0.000000 
#    z 0.000000 0.000000 1.787400 
# 
# From -- ./inp_files/50811.got.cif
#   From: 2010.03.12/outbox.cif.g09.slc.cpg/sg64_26_cif.got.tgz:50811.got - 2010.04.10 20:19:32.
