data_PCOD8264742
_publ_section_title
;
Structure prediction by ZEFSAII (Michael W. Deem and Ramdas Pophale) SiO2 
 PCOD8264742
Probable space group: C M C A
;
_chemical_formula_sum "Si O2"
_cell_formula_units_Z 96
_cell_length_a 22.963919
_cell_length_b 17.477690
_cell_length_c 11.757927
_cell_angle_alpha 90.000000
_cell_angle_beta 90.000000
_cell_angle_gamma 90.000000
_cell_volume 4719.117576
_symmetry_space_group_name_H-M "C M C A"
_symmetry_group_IT_number 64
_symmetry_cell_setting 'orthorhombic'
loop_
_space_group_symop_operation_xyz
x,y,z
-x,1/2-y,1/2+z
x,-y,-z
-x,1/2+y,1/2-z
-x,-y,-z
x,1/2+y,1/2-z
-x,y,z
x,1/2-y,1/2+z
1/2+x,1/2+y,z
1/2-x,-y,1/2+z
1/2+x,1/2-y,-z
1/2-x,y,1/2-z
1/2-x,1/2-y,-z
1/2+x,y,1/2-z
1/2-x,1/2+y,z
1/2+x,-y,1/2+z
loop_
_atom_site_type_symbol
_atom_site_label
_atom_site_fract_x
_atom_site_fract_y
_atom_site_fract_z
Si Si1 0.000000 0.114086 0.565043
Si Si2 0.611377 0.877786 0.718532
Si Si3 0.807812 0.160307 0.805002
Si Si4 0.889208 0.711398 0.878544
Si Si5 0.000000 0.544478 0.184305
Si Si6 0.687916 0.317306 0.590351
Si Si7 0.299223 0.583541 0.029538
O O1 0.054797 0.168334 0.577965
O O2 0.000000 0.085411 0.436688
O O3 0.000000 0.046531 0.659151
O O4 0.593406 0.795048 0.668210
O O5 0.555580 0.931115 0.740299
O O6 0.643278 0.869927 0.839766
O O7 0.654075 0.920301 0.630699
O O8 0.750000 0.121732 0.750000
O O9 0.861838 0.158487 0.719426
O O10 0.790401 0.247675 0.832573
O O11 0.829612 0.116124 0.916308
O O12 0.842132 0.718534 0.978941
O O13 0.744108 0.365455 0.559450
O O14 0.275562 0.500000 0.000000
#
# Coordination Sequence:
#
# PCOD8264742 Si02
#       7
#     8  16  16  16   8  16  16
#     4  11  25  44  67 100 126 173 235 269 328 395
#     4  11  24  44  68  96 134 173 219 277 333 385
#     4  11  22  39  67  94 129 170 215 268 321 390
#     4  11  22  42  71  96 126 169 229 274 317 394
#     4  11  25  44  68  93 134 175 212 285 332 388
#     4  11  21  42  68  96 130 170 215 276 321 386
#     4  12  26  40  62  99 137 173 211 261 341 404
#
# _framework density 20.342787000000001
#
# number of rings (size 3 to 8) (size 9 to 14) (size 15 to 20)
#    0.000    0.833    5.000    3.500    2.333    2.667 
#    0.000    1.250    0.000    0.000    0.000    0.000 
#    0.000    0.000    0.000    0.000    0.000    0.000 
#
# Total GULP energy -595339.287812 kJ/mol
# GULP energy per Si atom -12402.901829 kJ/mol
# Density = 2.029649 g / cm^3
# Si number density = 20.342787 Si / 1000 Ang^3
#
#
#
# Elastic Constant Matrix: (Units=GPa)
#
#
# Indices 1 2 3 4 5 6 
#
# 1 101.6901 22.0260 33.7611 0.0000 0.0000 0.0000
# 2 22.0260 37.7645 6.3564 0.0000 0.0000 0.0000
# 3 33.7611 6.3564 99.6080 0.0000 0.0000 0.0000
# 4 0.0000 0.0000 0.0000 21.9723 0.0000 0.0000
# 5 0.0000 0.0000 0.0000 0.0000 36.4209 0.0000
# 6 0.0000 0.0000 0.0000 0.0000 0.0000 85.9738
#
#
#
# Elastic Compliance Matrix: (Units=1/GPa)
#
#
# Indices 1 2 3 4 5 6 
#
# 1 0.012551 -0.006676 -0.003828 0.000000 0.000000 0.000000
# 2 -0.006676 0.030318 0.000328 0.000000 0.000000 0.000000
# 3 -0.003828 0.000328 0.011316 0.000000 0.000000 0.000000
# 4 0.000000 0.000000 0.000000 0.045512 0.000000 0.000000
# 5 0.000000 0.000000 0.000000 0.000000 0.027457 0.000000
# 6 0.000000 0.000000 0.000000 0.000000 0.000000 0.011631
#
#
# Mechanical properties :
#
#
# Convention : Reuss Voigt Hill
#
# Bulk Modulus (GPa) = 29.55667 40.37218 34.96443
# Shear Modulus (GPa) = 29.34029 40.66802 35.00416
#
# Velocity S-wave (km/s) = 3.80188 4.47602 4.15265
# Velocity P-wave (km/s) = 5.81663 6.82657 6.34174
#
# Compressibility (1/GPa) = 0.03383331
#
# Stress axis : x y z
#
# Youngs Moduli (GPa) = 79.67719 32.98334 88.37162
#
# Poissons Ratio (x) = 0.22019 0.33828
# Poissons Ratio (y) = 0.53191 -0.02898
# Poissons Ratio (z) = 0.30500 -0.01082
#
# Static dielectric constant tensor:
#      x y z
#    x 3.594400 0.000000 0.000000 
#    y 0.000000 3.617770 0.000000 
#    z 0.000000 0.000000 4.113960 
# 
# 
# High freq. dielectric constant tensor:
#      x y z
#    x 1.789480 0.000000 0.000000 
#    y 0.000000 1.787280 0.000000 
#    z 0.000000 0.000000 1.814260 
# 
# From -- ./inp_files/18386.got.cif
#   From: 2010.03.12/outbox.cif.g09.slc.cpg/sg64_10_cif.got.tgz:18386.got - 2010.04.10 20:19:32.
