data_PCOD8264283
_publ_section_title
;
Structure prediction by ZEFSAII (Michael W. Deem and Ramdas Pophale) SiO2 
 PCOD8264283
Probable space group: C M C A
;
_chemical_formula_sum "Si O2"
_cell_formula_units_Z 80
_cell_length_a 15.638207
_cell_length_b 9.657739
_cell_length_c 25.802052
_cell_angle_alpha 90.000000
_cell_angle_beta 90.000000
_cell_angle_gamma 90.000000
_cell_volume 3896.876731
_symmetry_space_group_name_H-M "C M C A"
_symmetry_group_IT_number 64
_symmetry_cell_setting 'orthorhombic'
loop_
_space_group_symop_operation_xyz
x,y,z
-x,1/2-y,1/2+z
x,-y,-z
-x,1/2+y,1/2-z
-x,-y,-z
x,1/2+y,1/2-z
-x,y,z
x,1/2-y,1/2+z
1/2+x,1/2+y,z
1/2-x,-y,1/2+z
1/2+x,1/2-y,-z
1/2-x,y,1/2-z
1/2-x,1/2-y,-z
1/2+x,y,1/2-z
1/2-x,1/2+y,z
1/2+x,-y,1/2+z
loop_
_atom_site_type_symbol
_atom_site_label
_atom_site_fract_x
_atom_site_fract_y
_atom_site_fract_z
Si Si1 0.903398 0.101628 0.546765
Si Si2 0.721872 0.475324 0.624963
Si Si3 0.096958 0.357954 0.790800
Si Si4 0.829412 0.573926 0.715769
Si Si5 0.311077 0.855331 0.529250
O O1 0.898907 0.265455 0.532475
O O2 0.000000 0.063258 0.562493
O O3 0.872903 0.000000 0.500000
O O4 0.838697 0.081922 0.594417
O O5 0.660541 0.387797 0.662070
O O6 0.795793 0.552079 0.657422
O O7 0.771582 0.376429 0.585760
O O8 0.128070 0.435252 0.738770
O O9 0.000000 0.401004 0.804512
O O10 0.099713 0.193664 0.781475
O O11 0.750000 0.624447 0.750000
O O12 0.250000 0.750000 0.500000
O O13 0.327946 0.000000 0.500000
#
# Coordination Sequence:
#
# PCOD8264283 Si02
#       5
#    16  16  16  16  16
#     4  11  23  40  62  92 128 164 209 263 317 368
#     4  11  21  39  67  90 120 168 214 252 307 385
#     4  11  23  40  63  93 125 160 202 263 318 367
#     4  10  22  40  62  89 119 160 210 250 306 379
#     4  12  22  41  66  94 125 169 216 261 310 379
#
# _framework density 20.529261000000002
#
# number of rings (size 3 to 8) (size 9 to 14) (size 15 to 20)
#    0.000    1.000    4.000    4.200    0.000    2.000 
#    0.000    6.000    0.000    0.000    0.000    0.000 
#    0.000    0.000    0.000    0.000    0.000    0.000 
#
# Total GULP energy -495899.371137 kJ/mol
# GULP energy per Si atom -12397.484278 kJ/mol
# Density = 2.048254 g / cm^3
# Si number density = 20.529261 Si / 1000 Ang^3
#
#
#
# Elastic Constant Matrix: (Units=GPa)
#
#
# Indices 1 2 3 4 5 6 
#
# 1 87.2248 44.8075 40.8771 0.0000 0.0000 0.0000
# 2 44.8075 151.4182 60.8593 0.0000 0.0000 0.0000
# 3 40.8771 60.8593 124.1811 0.0000 0.0000 0.0000
# 4 0.0000 0.0000 0.0000 22.7109 0.0000 0.0000
# 5 0.0000 0.0000 0.0000 0.0000 21.4508 0.0000
# 6 0.0000 0.0000 0.0000 0.0000 0.0000 31.3552
#
#
#
# Elastic Compliance Matrix: (Units=1/GPa)
#
#
# Indices 1 2 3 4 5 6 
#
# 1 0.014551 -0.002965 -0.003337 0.000000 0.000000 0.000000
# 2 -0.002965 0.008828 -0.003351 0.000000 0.000000 0.000000
# 3 -0.003337 -0.003351 0.010793 0.000000 0.000000 0.000000
# 4 0.000000 0.000000 0.000000 0.044032 0.000000 0.000000
# 5 0.000000 0.000000 0.000000 0.000000 0.046618 0.000000
# 6 0.000000 0.000000 0.000000 0.000000 0.000000 0.031893
#
#
# Mechanical properties :
#
#
# Convention : Reuss Voigt Hill
#
# Bulk Modulus (GPa) = 67.25769 72.87909 70.06839
# Shear Modulus (GPa) = 27.62785 29.52205 28.57495
#
# Velocity S-wave (km/s) = 3.67247 3.79627 3.73488
# Velocity P-wave (km/s) = 7.12851 7.40221 7.26665
#
# Compressibility (1/GPa) = 0.01486819
#
# Stress axis : x y z
#
# Youngs Moduli (GPa) = 68.72144 113.27195 92.65003
#
# Poissons Ratio (x) = 0.33583 0.30917
# Poissons Ratio (y) = 0.20375 0.31044
# Poissons Ratio (z) = 0.22932 0.37954
#
# Static dielectric constant tensor:
#      x y z
#    x 3.737390 0.000000 0.000000 
#    y 0.000000 4.286480 0.000000 
#    z 0.000000 0.000000 5.240370 
# 
# 
# High freq. dielectric constant tensor:
#      x y z
#    x 1.796590 0.000000 0.000000 
#    y 0.000000 1.809060 0.000000 
#    z 0.000000 0.000000 1.804070 
# 
# From -- ./inp_files/53521.got.cif
#   From: 2010.03.12/outbox.cif.g09.slc.cpg/sg64_27_cif.got.tgz:53521.got - 2010.04.10 20:19:32.
