data_PCOD8264354
_publ_section_title
;
Structure prediction by ZEFSAII (Michael W. Deem and Ramdas Pophale) SiO2 
 PCOD8264354
Probable space group: C M C A
;
_chemical_formula_sum "Si O2"
_cell_formula_units_Z 104
_cell_length_a 21.781990
_cell_length_b 25.745440
_cell_length_c 9.144934
_cell_angle_alpha 90.000000
_cell_angle_beta 90.000000
_cell_angle_gamma 90.000000
_cell_volume 5128.359341
_symmetry_space_group_name_H-M "C M C A"
_symmetry_group_IT_number 64
_symmetry_cell_setting 'orthorhombic'
loop_
_space_group_symop_operation_xyz
x,y,z
-x,1/2-y,1/2+z
x,-y,-z
-x,1/2+y,1/2-z
-x,-y,-z
x,1/2+y,1/2-z
-x,y,z
x,1/2-y,1/2+z
1/2+x,1/2+y,z
1/2-x,-y,1/2+z
1/2+x,1/2-y,-z
1/2-x,y,1/2-z
1/2-x,1/2-y,-z
1/2+x,y,1/2-z
1/2-x,1/2+y,z
1/2+x,-y,1/2+z
loop_
_atom_site_type_symbol
_atom_site_label
_atom_site_fract_x
_atom_site_fract_y
_atom_site_fract_z
Si Si1 0.629495 0.806818 0.449273
Si Si2 0.759979 0.848077 0.417262
Si Si3 0.404917 0.080594 0.458905
Si Si4 0.500000 0.938444 0.780674
Si Si5 0.000000 0.448895 0.310168
Si Si6 0.887237 0.204145 0.612365
Si Si7 0.733277 0.550903 0.081944
Si Si8 0.000000 0.131999 0.561124
O O1 0.703131 0.812135 0.466571
O O2 0.597226 0.859734 0.494486
O O3 0.609484 0.792947 0.286047
O O4 0.603871 0.762193 0.553972
O O5 0.750000 0.865895 0.250000
O O6 0.821697 0.816256 0.442620
O O7 0.766874 0.899204 0.515145
O O8 0.439327 0.079075 0.304944
O O9 0.440290 0.048968 0.585578
O O10 0.339083 0.055012 0.441750
O O11 0.500000 0.001072 0.795289
O O12 0.500000 0.911996 0.937751
O O13 0.000000 0.396676 0.216343
O O14 0.939856 0.167453 0.547000
O O15 0.750000 0.546234 0.250000
O O16 0.758438 0.500000 0.000000
#
# Coordination Sequence:
#
# PCOD8264354 Si02
#       8
#    16  16  16   8   8  16  16   8
#     4  10  22  41  69  90 126 165 211 264 325 378
#     4   9  21  42  64  91 126 168 214 265 318 386
#     4  10  22  44  67  93 124 168 215 264 315 396
#     4  11  25  40  68  93 122 170 216 264 314 385
#     4  11  21  48  68  88 126 173 217 258 323 385
#     4  11  24  41  62  94 129 170 210 264 323 379
#     4  11  23  39  63  97 130 168 213 266 329 376
#     4  12  27  40  62  97 136 159 216 274 319 371
#
# _framework density 20.279388999999998
#
# number of rings (size 3 to 8) (size 9 to 14) (size 15 to 20)
#    0.000    1.538    1.538    3.000    4.308    3.077 
#    2.769    0.769    0.000    0.000    0.000    0.000 
#    0.000    0.000    0.000    0.000    0.000    0.000 
#
# Total GULP energy -645078.098607 kJ/mol
# GULP energy per Si atom -12405.348050 kJ/mol
# Density = 2.023323 g / cm^3
# Si number density = 20.279389 Si / 1000 Ang^3
#
#
#
# Elastic Constant Matrix: (Units=GPa)
#
#
# Indices 1 2 3 4 5 6 
#
# 1 67.0849 37.7204 10.2055 0.0000 0.0000 0.0000
# 2 37.7204 131.1640 57.8488 0.0000 0.0000 0.0000
# 3 10.2055 57.8488 89.4574 0.0000 0.0000 0.0000
# 4 0.0000 0.0000 0.0000 42.4778 0.0000 0.0000
# 5 0.0000 0.0000 0.0000 0.0000 13.4594 0.0000
# 6 0.0000 0.0000 0.0000 0.0000 0.0000 17.9346
#
#
#
# Elastic Compliance Matrix: (Units=1/GPa)
#
#
# Indices 1 2 3 4 5 6 
#
# 1 0.017989 -0.005971 0.001809 0.000000 0.000000 0.000000
# 2 -0.005971 0.012648 -0.007498 0.000000 0.000000 0.000000
# 3 0.001809 -0.007498 0.015821 0.000000 0.000000 0.000000
# 4 0.000000 0.000000 0.000000 0.023542 0.000000 0.000000
# 5 0.000000 0.000000 0.000000 0.000000 0.074298 0.000000
# 6 0.000000 0.000000 0.000000 0.000000 0.000000 0.055758
#
#
# Mechanical properties :
#
#
# Convention : Reuss Voigt Hill
#
# Bulk Modulus (GPa) = 43.21935 55.47283 49.34609
# Shear Modulus (GPa) = 21.63685 26.90313 24.26999
#
# Velocity S-wave (km/s) = 3.26995 3.64624 3.46321
# Velocity P-wave (km/s) = 5.96783 6.71866 6.35434
#
# Compressibility (1/GPa) = 0.02313778
#
# Stress axis : x y z
#
# Youngs Moduli (GPa) = 55.59045 79.06326 63.20826
#
# Poissons Ratio (x) = 0.47210 -0.11435
# Poissons Ratio (y) = 0.33194 0.47393
# Poissons Ratio (z) = -0.10057 0.59281
#
# Static dielectric constant tensor:
#      x y z
#    x 3.694700 0.000000 0.000000 
#    y 0.000000 3.691500 0.000000 
#    z 0.000000 0.000000 3.580780 
# 
# 
# High freq. dielectric constant tensor:
#      x y z
#    x 1.795080 0.000000 0.000000 
#    y 0.000000 1.805960 0.000000 
#    z 0.000000 0.000000 1.791300 
# 
# From -- ./inp_files/8567.got.cif
#   From: 2010.03.12/outbox.cif.g09.slc.cpg/sg64_5_cif.got.tgz:8567.got - 2010.04.10 20:19:32.
