data_PCOD8264104
_publ_section_title
;
Structure prediction by ZEFSAII (Michael W. Deem and Ramdas Pophale) SiO2 
 PCOD8264104
Probable space group: C M C A
;
_chemical_formula_sum "Si O2"
_cell_formula_units_Z 88
_cell_length_a 23.402346
_cell_length_b 34.554078
_cell_length_c 5.079865
_cell_angle_alpha 90.000000
_cell_angle_beta 90.000000
_cell_angle_gamma 90.000000
_cell_volume 4107.814997
_symmetry_space_group_name_H-M "C M C A"
_symmetry_group_IT_number 64
_symmetry_cell_setting 'orthorhombic'
loop_
_space_group_symop_operation_xyz
x,y,z
-x,1/2-y,1/2+z
x,-y,-z
-x,1/2+y,1/2-z
-x,-y,-z
x,1/2+y,1/2-z
-x,y,z
x,1/2-y,1/2+z
1/2+x,1/2+y,z
1/2-x,-y,1/2+z
1/2+x,1/2-y,-z
1/2-x,y,1/2-z
1/2-x,1/2-y,-z
1/2+x,y,1/2-z
1/2-x,1/2+y,z
1/2+x,-y,1/2+z
loop_
_atom_site_type_symbol
_atom_site_label
_atom_site_fract_x
_atom_site_fract_y
_atom_site_fract_z
Si Si1 0.654784 0.162640 0.714350
Si Si2 0.500000 0.026231 0.250731
Si Si3 0.374853 0.460570 0.676788
Si Si4 0.316325 0.884771 0.789445
Si Si5 0.710882 0.000000 0.500000
Si Si6 0.067205 0.225525 0.795215
Si Si7 0.250000 0.223559 0.750000
O O1 0.658066 0.129280 0.490544
O O2 0.591983 0.181829 0.716097
O O3 0.696586 0.197844 0.667398
O O4 0.673923 0.148430 0.000696
O O5 0.559487 0.049884 0.253714
O O6 0.500000 0.000000 0.500000
O O7 0.500000 0.000000 0.000000
O O8 0.370088 0.500000 0.500000
O O9 0.349110 0.420901 0.566853
O O10 0.333294 0.465500 0.931279
O O11 0.250000 0.895404 0.750000
O O12 0.750000 0.988314 0.250000
O O13 0.088192 0.251454 0.551695
O O14 0.000000 0.219462 0.792281
O O15 0.250000 0.250000 0.500000
#
# Coordination Sequence:
#
# PCOD8264104 Si02
#       7
#    16   8  16  16   8  16   8
#     4  12  24  44  62  99 137 174 214 268 334 392
#     4  10  22  44  70  96 128 160 226 294 334 388
#     4  11  26  46  73  99 131 180 233 284 338 406
#     4  12  26  44  64  93 144 175 212 277 338 390
#     4  12  24  39  66 103 130 162 230 270 322 398
#     4  10  21  41  70  99 129 170 221 275 320 384
#     4  12  22  38  68  92 126 172 220 258 314 392
#
# _framework density 21.42258
#
# number of rings (size 3 to 8) (size 9 to 14) (size 15 to 20)
#    0.000    0.727    3.636    3.818    2.545    0.000 
#    3.273    0.000    0.000    0.000    0.000    0.000 
#    0.000    0.000    0.000    0.000    0.000    0.000 
#
# Total GULP energy -545086.956876 kJ/mol
# GULP energy per Si atom -12388.339929 kJ/mol
# Density = 2.137382 g / cm^3
# Si number density = 21.422580 Si / 1000 Ang^3
#
#
#
# Elastic Constant Matrix: (Units=GPa)
#
#
# Indices 1 2 3 4 5 6 
#
# 1 151.8664 59.0595 40.4257 0.0000 0.0000 0.0000
# 2 59.0595 106.9948 31.1972 0.0000 0.0000 0.0000
# 3 40.4257 31.1972 128.0813 0.0000 0.0000 0.0000
# 4 0.0000 0.0000 0.0000 33.3641 0.0000 0.0000
# 5 0.0000 0.0000 0.0000 0.0000 16.1530 0.0000
# 6 0.0000 0.0000 0.0000 0.0000 0.0000 -355.7320
#
#
#
# Elastic Compliance Matrix: (Units=1/GPa)
#
#
# Indices 1 2 3 4 5 6 
#
# 1 0.008715 -0.004315 -0.001700 0.000000 0.000000 0.000000
# 2 -0.004315 0.012197 -0.001609 0.000000 0.000000 0.000000
# 3 -0.001700 -0.001609 0.008736 0.000000 0.000000 0.000000
# 4 0.000000 0.000000 0.000000 0.029972 0.000000 0.000000
# 5 0.000000 0.000000 0.000000 0.000000 0.061908 0.000000
# 6 0.000000 0.000000 0.000000 0.000000 0.000000 -0.002811
#
#
# Mechanical properties :
#
#
# Convention : Reuss Voigt Hill
#
# Bulk Modulus (GPa) = 69.44023 72.03413 70.73718
# Shear Modulus (GPa) = 36.03202 -44.15895 -4.06346
#
# Velocity S-wave (km/s) = 4.10563 -4.54511 -1.37874
# Velocity P-wave (km/s) = 7.41348 2.48079 5.52784
#
# Compressibility (1/GPa) = 0.01440087
#
# Stress axis : x y z
#
# Youngs Moduli (GPa) = 114.74080 81.98562 114.46999
#
# Poissons Ratio (x) = 0.35378 0.19457
# Poissons Ratio (y) = 0.49512 0.18418
# Poissons Ratio (z) = 0.19503 0.13191
#
# Static dielectric constant tensor:
#      x y z
#    x 4.367460 0.000000 0.000000 
#    y 0.000000 3.924980 0.000000 
#    z 0.000000 0.000000 3.969670 
# 
# 
# High freq. dielectric constant tensor:
#      x y z
#    x 1.854920 0.000000 0.000000 
#    y 0.000000 1.830390 0.000000 
#    z 0.000000 0.000000 1.851360 
# 
# From -- ./inp_files/2459.got.cif
#   From: 2010.03.12/outbox.cif.g09.slc.cpg/sg64_2_cif.got.tgz:2459.got - 2010.04.10 20:19:32.
