data_PCOD8264138
_publ_section_title
;
Structure prediction by ZEFSAII (Michael W. Deem and Ramdas Pophale) SiO2 
 PCOD8264138
Probable space group: C M C A
;
_chemical_formula_sum "Si O2"
_cell_formula_units_Z 96
_cell_length_a 24.615001
_cell_length_b 9.553341
_cell_length_c 23.644636
_cell_angle_alpha 90.000000
_cell_angle_beta 90.000000
_cell_angle_gamma 90.000000
_cell_volume 5560.166160
_symmetry_space_group_name_H-M "C M C A"
_symmetry_group_IT_number 64
_symmetry_cell_setting 'orthorhombic'
loop_
_space_group_symop_operation_xyz
x,y,z
-x,1/2-y,1/2+z
x,-y,-z
-x,1/2+y,1/2-z
-x,-y,-z
x,1/2+y,1/2-z
-x,y,z
x,1/2-y,1/2+z
1/2+x,1/2+y,z
1/2-x,-y,1/2+z
1/2+x,1/2-y,-z
1/2-x,y,1/2-z
1/2-x,1/2-y,-z
1/2+x,y,1/2-z
1/2-x,1/2+y,z
1/2+x,-y,1/2+z
loop_
_atom_site_type_symbol
_atom_site_label
_atom_site_fract_x
_atom_site_fract_y
_atom_site_fract_z
Si Si1 0.308534 0.858597 0.225271
Si Si2 0.562025 0.551397 0.093715
Si Si3 0.751957 0.032790 0.620344
Si Si4 0.847243 0.073494 0.184924
Si Si5 0.388915 0.644614 0.987988
Si Si6 0.787988 0.286702 0.948870
O O1 0.250000 0.813422 0.250000
O O2 0.298056 0.943282 0.167475
O O3 0.345323 0.723156 0.215304
O O4 0.343021 0.952713 0.268249
O O5 0.500000 0.572018 0.111759
O O6 0.596831 0.560867 0.150808
O O7 0.578867 0.672782 0.047284
O O8 0.570010 0.398853 0.063256
O O9 0.726054 0.180226 0.601764
O O10 0.703429 0.935127 0.642414
O O11 0.780789 0.947190 0.569917
O O12 0.353387 0.500000 0.000000
O O13 0.350425 0.771016 0.969365
O O14 0.750000 0.250000 0.000000
#
# Coordination Sequence:
#
# PCOD8264138 Si02
#       6
#    16  16  16  16  16  16
#     4  10  22  34  53  76 107 150 173 214 262 327
#     4   9  18  34  56  77 101 138 181 235 273 304
#     4  11  21  33  52  76 119 147 174 202 265 321
#     4  11  20  36  52  77 105 137 188 220 262 317
#     4   8  17  31  50  77 107 135 176 213 259 323
#     4  12  20  31  49  83 117 148 170 211 250 322
#
# _framework density 17.265671000000001
#
# number of rings (size 3 to 8) (size 9 to 14) (size 15 to 20)
#    1.000    0.667    3.333    5.000    2.333    0.000 
#    0.000    0.833    0.000    0.000    0.000    3.500 
#    0.000    0.000    0.000    0.000    0.000    0.000 
#
# Total GULP energy -594829.310352 kJ/mol
# GULP energy per Si atom -12392.277299 kJ/mol
# Density = 1.722637 g / cm^3
# Si number density = 17.265671 Si / 1000 Ang^3
#
#
#
# Elastic Constant Matrix: (Units=GPa)
#
#
# Indices 1 2 3 4 5 6 
#
# 1 105.8401 35.7405 54.0139 0.0000 0.0000 0.0000
# 2 35.7405 55.4747 28.6076 0.0000 0.0000 0.0000
# 3 54.0139 28.6076 103.0853 0.0000 0.0000 0.0000
# 4 0.0000 0.0000 0.0000 28.5316 0.0000 0.0000
# 5 0.0000 0.0000 0.0000 0.0000 24.1459 0.0000
# 6 0.0000 0.0000 0.0000 0.0000 0.0000 16.0386
#
#
#
# Elastic Compliance Matrix: (Units=1/GPa)
#
#
# Indices 1 2 3 4 5 6 
#
# 1 0.014603 -0.006375 -0.005882 0.000000 0.000000 0.000000
# 2 -0.006375 0.023820 -0.003270 0.000000 0.000000 0.000000
# 3 -0.005882 -0.003270 0.013690 0.000000 0.000000 0.000000
# 4 0.000000 0.000000 0.000000 0.035049 0.000000 0.000000
# 5 0.000000 0.000000 0.000000 0.000000 0.041415 0.000000
# 6 0.000000 0.000000 0.000000 0.000000 0.000000 0.062350
#
#
# Mechanical properties :
#
#
# Convention : Reuss Voigt Hill
#
# Bulk Modulus (GPa) = 47.48686 55.68046 51.58366
# Shear Modulus (GPa) = 21.83406 23.47909 22.65658
#
# Velocity S-wave (km/s) = 3.55997 3.69164 3.62640
# Velocity P-wave (km/s) = 6.66792 7.10565 6.89026
#
# Compressibility (1/GPa) = 0.02105846
#
# Stress axis : x y z
#
# Youngs Moduli (GPa) = 68.47983 41.98230 73.04363
#
# Poissons Ratio (x) = 0.26762 0.42967
# Poissons Ratio (y) = 0.43653 0.23886
# Poissons Ratio (z) = 0.40283 0.13729
#
# Static dielectric constant tensor:
#      x y z
#    x 2.891340 0.000000 0.000000 
#    y 0.000000 3.083150 0.000000 
#    z 0.000000 0.000000 3.350370 
# 
# 
# High freq. dielectric constant tensor:
#      x y z
#    x 1.626010 0.000000 0.000000 
#    y 0.000000 1.641140 0.000000 
#    z 0.000000 0.000000 1.681440 
# 
# From -- ./inp_files/46587.got.cif
#   From: 2010.03.12/outbox.cif.g09.slc.cpg/sg64_24_cif.got.tgz:46587.got - 2010.04.10 20:19:32.
