data_PCOD8264322
_publ_section_title
;
Structure prediction by ZEFSAII (Michael W. Deem and Ramdas Pophale) SiO2 
 PCOD8264322
Probable space group: C M C A
;
_chemical_formula_sum "Si O2"
_cell_formula_units_Z 96
_cell_length_a 13.961591
_cell_length_b 12.874642
_cell_length_c 27.199211
_cell_angle_alpha 90.000000
_cell_angle_beta 90.000000
_cell_angle_gamma 90.000000
_cell_volume 4889.071393
_symmetry_space_group_name_H-M "C M C A"
_symmetry_group_IT_number 64
_symmetry_cell_setting 'orthorhombic'
loop_
_space_group_symop_operation_xyz
x,y,z
-x,1/2-y,1/2+z
x,-y,-z
-x,1/2+y,1/2-z
-x,-y,-z
x,1/2+y,1/2-z
-x,y,z
x,1/2-y,1/2+z
1/2+x,1/2+y,z
1/2-x,-y,1/2+z
1/2+x,1/2-y,-z
1/2-x,y,1/2-z
1/2-x,1/2-y,-z
1/2+x,y,1/2-z
1/2-x,1/2+y,z
1/2+x,-y,1/2+z
loop_
_atom_site_type_symbol
_atom_site_label
_atom_site_fract_x
_atom_site_fract_y
_atom_site_fract_z
Si Si1 0.888514 0.971880 0.554975
Si Si2 0.111969 0.673555 0.882277
Si Si3 0.798798 0.564332 0.300013
Si Si4 0.610060 0.226039 0.776407
Si Si5 0.386503 0.355060 0.174817
Si Si6 0.718707 0.809664 0.884778
O O1 0.863250 0.067771 0.590261
O O2 0.000000 0.944003 0.558210
O O3 0.857665 0.000000 0.500000
O O4 0.829705 0.870206 0.570282
O O5 0.143512 0.660406 0.824680
O O6 0.176417 0.769079 0.902774
O O7 0.000000 0.703902 0.887718
O O8 0.750000 0.522684 0.250000
O O9 0.874650 0.652330 0.284723
O O10 0.855904 0.474738 0.328554
O O11 0.722478 0.613369 0.337891
O O12 0.500000 0.201920 0.768559
O O13 0.660012 0.189671 0.725816
O O14 0.500000 0.344729 0.172304
O O15 0.344116 0.291014 0.129186
#
# Coordination Sequence:
#
# PCOD8264322 Si02
#       6
#    16  16  16  16  16  16
#     4  10  22  41  63  88 115 148 197 253 300 343
#     4   9  20  37  58  83 114 152 189 233 294 352
#     4  11  22  33  53  77 116 152 194 233 277 341
#     4   9  19  35  52  76 111 153 193 229 280 342
#     4  11  23  35  52  81 115 153 195 237 282 334
#     4  11  22  38  60  85 114 154 196 241 287 349
#
# _framework density 19.635632000000001
#
# number of rings (size 3 to 8) (size 9 to 14) (size 15 to 20)
#    0.000    1.833    1.667    2.000    7.000    1.333 
#    0.000    0.000    0.000    0.500    0.000    0.000 
#    0.000    0.000    0.000    0.000    0.000    0.000 
#
# Total GULP energy -595160.968035 kJ/mol
# GULP energy per Si atom -12399.186834 kJ/mol
# Density = 1.959094 g / cm^3
# Si number density = 19.635632 Si / 1000 Ang^3
#
#
#
# Elastic Constant Matrix: (Units=GPa)
#
#
# Indices 1 2 3 4 5 6 
#
# 1 59.6716 34.1715 29.5423 0.0000 0.0000 0.0000
# 2 34.1715 107.7617 40.4716 0.0000 0.0000 0.0000
# 3 29.5423 40.4716 72.1365 0.0000 0.0000 0.0000
# 4 0.0000 0.0000 0.0000 24.8461 0.0000 0.0000
# 5 0.0000 0.0000 0.0000 0.0000 22.7141 0.0000
# 6 0.0000 0.0000 0.0000 0.0000 0.0000 35.0254
#
#
#
# Elastic Compliance Matrix: (Units=1/GPa)
#
#
# Indices 1 2 3 4 5 6 
#
# 1 0.022762 -0.004709 -0.006680 0.000000 0.000000 0.000000
# 2 -0.004709 0.012731 -0.005214 0.000000 0.000000 0.000000
# 3 -0.006680 -0.005214 0.019524 0.000000 0.000000 0.000000
# 4 0.000000 0.000000 0.000000 0.040248 0.000000 0.000000
# 5 0.000000 0.000000 0.000000 0.000000 0.044025 0.000000
# 6 0.000000 0.000000 0.000000 0.000000 0.000000 0.028551
#
#
# Mechanical properties :
#
#
# Convention : Reuss Voigt Hill
#
# Bulk Modulus (GPa) = 45.84922 49.77117 47.81020
# Shear Modulus (GPa) = 24.00179 25.54276 24.77227
#
# Velocity S-wave (km/s) = 3.50002 3.61062 3.55575
# Velocity P-wave (km/s) = 6.30351 6.54099 6.42335
#
# Compressibility (1/GPa) = 0.02181062
#
# Stress axis : x y z
#
# Youngs Moduli (GPa) = 43.93244 78.54646 51.22009
#
# Poissons Ratio (x) = 0.36989 0.34214
# Poissons Ratio (y) = 0.20689 0.26707
# Poissons Ratio (z) = 0.29346 0.40956
#
# Static dielectric constant tensor:
#      x y z
#    x 3.588580 0.000000 0.000000 
#    y 0.000000 3.499800 0.000000 
#    z 0.000000 0.000000 3.458600 
# 
# 
# High freq. dielectric constant tensor:
#      x y z
#    x 1.770160 0.000000 0.000000 
#    y 0.000000 1.765430 0.000000 
#    z 0.000000 0.000000 1.738600 
# 
# From -- ./inp_files/50375.got.cif
#   From: 2010.03.12/outbox.cif.g09.slc.cpg/sg64_26_cif.got.tgz:50375.got - 2010.04.10 20:19:32.
