data_PCOD8264284
_publ_section_title
;
Structure prediction by ZEFSAII (Michael W. Deem and Ramdas Pophale) SiO2 
 PCOD8264284
Probable space group: C M C A
;
_chemical_formula_sum "Si O2"
_cell_formula_units_Z 80
_cell_length_a 17.958567
_cell_length_b 9.330779
_cell_length_c 23.471782
_cell_angle_alpha 90.000000
_cell_angle_beta 90.000000
_cell_angle_gamma 90.000000
_cell_volume 3933.105949
_symmetry_space_group_name_H-M "C M C A"
_symmetry_group_IT_number 64
_symmetry_cell_setting 'orthorhombic'
loop_
_space_group_symop_operation_xyz
x,y,z
-x,1/2-y,1/2+z
x,-y,-z
-x,1/2+y,1/2-z
-x,-y,-z
x,1/2+y,1/2-z
-x,y,z
x,1/2-y,1/2+z
1/2+x,1/2+y,z
1/2-x,-y,1/2+z
1/2+x,1/2-y,-z
1/2-x,y,1/2-z
1/2-x,1/2-y,-z
1/2+x,y,1/2-z
1/2-x,1/2+y,z
1/2+x,-y,1/2+z
loop_
_atom_site_type_symbol
_atom_site_label
_atom_site_fract_x
_atom_site_fract_y
_atom_site_fract_z
Si Si1 0.836996 0.129706 0.698172
Si Si2 0.205612 0.172898 0.344493
Si Si3 0.084588 0.676970 0.383210
Si Si4 0.087671 0.381731 0.319930
Si Si5 0.214210 0.634574 0.460483
O O1 0.764203 0.229761 0.690809
O O2 0.896863 0.177637 0.650774
O O3 0.877055 0.145942 0.758325
O O4 0.814901 0.964334 0.693012
O O5 0.131895 0.267260 0.359230
O O6 0.237554 0.112459 0.403586
O O7 0.103403 0.541282 0.342586
O O8 0.130733 0.674236 0.441645
O O9 0.000000 0.676807 0.402627
O O10 0.000000 0.346471 0.319388
O O11 0.210891 0.500000 0.500000
O O12 0.250000 0.750000 0.500000
#
# Coordination Sequence:
#
# PCOD8264284 Si02
#       5
#    16  16  16  16  16
#     4  11  22  38  61  89 124 160 194 235 291 356
#     4  11  23  39  60  89 120 155 202 247 289 350
#     4  10  22  40  62  90 121 155 198 244 293 352
#     4  11  23  39  60  89 125 159 191 235 295 359
#     4  11  22  40  62  84 113 153 201 251 299 342
#
# _framework density 20.340159
#
# number of rings (size 3 to 8) (size 9 to 14) (size 15 to 20)
#    0.000    1.200    0.000    8.400    0.000    6.800 
#    0.000    1.000    0.000    2.400    0.000    0.000 
#    0.000    0.000    0.000    0.000    0.000    0.000 
#
# Total GULP energy -495969.837097 kJ/mol
# GULP energy per Si atom -12399.245927 kJ/mol
# Density = 2.029386 g / cm^3
# Si number density = 20.340159 Si / 1000 Ang^3
#
#
#
# Elastic Constant Matrix: (Units=GPa)
#
#
# Indices 1 2 3 4 5 6 
#
# 1 154.5900 50.0487 61.3946 0.0000 0.0000 0.0000
# 2 50.0487 85.8297 11.8674 0.0000 0.0000 0.0000
# 3 61.3946 11.8674 72.2371 0.0000 0.0000 0.0000
# 4 0.0000 0.0000 0.0000 39.2113 0.0000 0.0000
# 5 0.0000 0.0000 0.0000 0.0000 26.9836 0.0000
# 6 0.0000 0.0000 0.0000 0.0000 0.0000 32.2644
#
#
#
# Elastic Compliance Matrix: (Units=1/GPa)
#
#
# Indices 1 2 3 4 5 6 
#
# 1 0.011995 -0.005714 -0.009255 0.000000 0.000000 0.000000
# 2 -0.005714 0.014644 0.002451 0.000000 0.000000 0.000000
# 3 -0.009255 0.002451 0.021307 0.000000 0.000000 0.000000
# 4 0.000000 0.000000 0.000000 0.025503 0.000000 0.000000
# 5 0.000000 0.000000 0.000000 0.000000 0.037059 0.000000
# 6 0.000000 0.000000 0.000000 0.000000 0.000000 0.030994
#
#
# Mechanical properties :
#
#
# Convention : Reuss Voigt Hill
#
# Bulk Modulus (GPa) = 43.65328 62.14201 52.89765
# Shear Modulus (GPa) = 28.70664 32.31494 30.51079
#
# Velocity S-wave (km/s) = 3.76084 3.99021 3.87722
# Velocity P-wave (km/s) = 6.35348 7.20047 6.79019
#
# Compressibility (1/GPa) = 0.02290779
#
# Stress axis : x y z
#
# Youngs Moduli (GPa) = 83.37145 68.28591 46.93330
#
# Poissons Ratio (x) = 0.39022 0.43439
# Poissons Ratio (y) = 0.47642 -0.11503
# Poissons Ratio (z) = 0.77163 -0.16736
#
# Static dielectric constant tensor:
#      x y z
#    x 4.070400 0.000000 0.000000 
#    y 0.000000 3.947040 0.000000 
#    z 0.000000 0.000000 4.015680 
# 
# 
# High freq. dielectric constant tensor:
#      x y z
#    x 1.805860 0.000000 0.000000 
#    y 0.000000 1.803320 0.000000 
#    z 0.000000 0.000000 1.788980 
# 
# From -- ./inp_files/50306.got.cif
#   From: 2010.03.12/outbox.cif.g09.slc.cpg/sg64_26_cif.got.tgz:50306.got - 2010.04.10 20:19:32.
