data_PCOD8264911
_publ_section_title
;
Structure prediction by ZEFSAII (Michael W. Deem and Ramdas Pophale) SiO2 
 PCOD8264911
Probable space group: C M C A
;
_chemical_formula_sum "Si O2"
_cell_formula_units_Z 104
_cell_length_a 26.157131
_cell_length_b 8.604368
_cell_length_c 20.986025
_cell_angle_alpha 90.000000
_cell_angle_beta 90.000000
_cell_angle_gamma 90.000000
_cell_volume 4723.231908
_symmetry_space_group_name_H-M "C M C A"
_symmetry_group_IT_number 64
_symmetry_cell_setting 'orthorhombic'
loop_
_space_group_symop_operation_xyz
x,y,z
-x,1/2-y,1/2+z
x,-y,-z
-x,1/2+y,1/2-z
-x,-y,-z
x,1/2+y,1/2-z
-x,y,z
x,1/2-y,1/2+z
1/2+x,1/2+y,z
1/2-x,-y,1/2+z
1/2+x,1/2-y,-z
1/2-x,y,1/2-z
1/2-x,1/2-y,-z
1/2+x,y,1/2-z
1/2-x,1/2+y,z
1/2+x,-y,1/2+z
loop_
_atom_site_type_symbol
_atom_site_label
_atom_site_fract_x
_atom_site_fract_y
_atom_site_fract_z
Si Si1 0.500000 0.915219 0.818514
Si Si2 0.080268 0.310887 0.361434
Si Si3 0.200239 0.169962 0.528812
Si Si4 0.500000 0.463553 0.822199
Si Si5 0.590136 0.184899 0.000825
Si Si6 0.000000 0.692931 0.906456
Si Si7 0.315620 0.402307 0.200450
Si Si8 0.208495 0.764622 0.325191
O O1 0.500000 0.007233 0.752275
O O2 0.500000 0.015262 0.883423
O O3 0.448484 0.812669 0.816409
O O4 0.072292 0.252481 0.432651
O O5 0.138508 0.334032 0.341094
O O6 0.051223 0.473050 0.355076
O O7 0.250000 0.250000 0.500000
O O8 0.147141 0.254225 0.510045
O O9 0.198125 0.170478 0.604891
O O10 0.201027 0.000000 0.500000
O O11 0.500000 0.282374 0.839110
O O12 0.550200 0.237169 0.946904
O O13 0.591895 0.000000 0.000000
O O14 0.268574 0.288459 0.185451
O O15 0.304897 0.582097 0.183677
O O16 0.324747 0.372954 0.276399
#
# Coordination Sequence:
#
# PCOD8264911 Si02
#       8
#     8  16  16   8  16   8  16  16
#     4  11  24  47  75  95 142 178 238 289 356 438
#     4  11  25  46  69 102 142 179 234 294 356 423
#     4  11  25  44  69 104 142 185 239 293 356 431
#     4  11  28  44  63 112 137 178 226 303 359 417
#     4  11  24  43  74  98 131 189 234 291 349 429
#     4  12  23  46  74 101 135 184 243 291 360 434
#     4  11  25  44  74 102 147 187 238 292 358 423
#     4  11  24  45  69 107 142 193 240 295 351 429
#
# _framework density 22.018820999999999
#
# number of rings (size 3 to 8) (size 9 to 14) (size 15 to 20)
#    0.000    0.923    1.538    5.769    4.308    6.154 
#    0.000    0.000    0.000    0.000    0.000    0.000 
#    0.000    0.000    0.000    0.000    0.000    0.000 
#
# Total GULP energy -644564.794431 kJ/mol
# GULP energy per Si atom -12395.476816 kJ/mol
# Density = 2.196871 g / cm^3
# Si number density = 22.018821 Si / 1000 Ang^3
#
#
#
# Elastic Constant Matrix: (Units=GPa)
#
#
# Indices 1 2 3 4 5 6 
#
# 1 137.0566 44.0104 40.1010 0.0000 0.0000 0.0000
# 2 44.0104 106.6487 60.0514 0.0000 0.0000 0.0000
# 3 40.1010 60.0514 160.7927 0.0000 0.0000 0.0000
# 4 0.0000 0.0000 0.0000 36.6898 0.0000 0.0000
# 5 0.0000 0.0000 0.0000 0.0000 35.5320 0.0000
# 6 0.0000 0.0000 0.0000 0.0000 0.0000 12.3843
#
#
#
# Elastic Compliance Matrix: (Units=1/GPa)
#
#
# Indices 1 2 3 4 5 6 
#
# 1 0.008544 -0.002945 -0.001031 0.000000 0.000000 0.000000
# 2 -0.002945 0.012889 -0.004079 0.000000 0.000000 0.000000
# 3 -0.001031 -0.004079 0.008000 0.000000 0.000000 0.000000
# 4 0.000000 0.000000 0.000000 0.027256 0.000000 0.000000
# 5 0.000000 0.000000 0.000000 0.000000 0.028144 0.000000
# 6 0.000000 0.000000 0.000000 0.000000 0.000000 0.080748
#
#
# Mechanical properties :
#
#
# Convention : Reuss Voigt Hill
#
# Bulk Modulus (GPa) = 75.06434 76.98038 76.02236
# Shear Modulus (GPa) = 26.86301 34.27691 30.56996
#
# Velocity S-wave (km/s) = 3.49664 3.94980 3.73011
# Velocity P-wave (km/s) = 7.10401 7.47250 7.29059
#
# Compressibility (1/GPa) = 0.01332191
#
# Stress axis : x y z
#
# Youngs Moduli (GPa) = 117.04663 77.58660 125.00518
#
# Poissons Ratio (x) = 0.22851 0.12885
# Poissons Ratio (y) = 0.34473 0.50990
# Poissons Ratio (z) = 0.12065 0.31648
#
# Static dielectric constant tensor:
#      x y z
#    x 4.443920 0.000000 0.000000 
#    y 0.000000 4.040710 0.000000 
#    z 0.000000 0.000000 4.215370 
# 
# 
# High freq. dielectric constant tensor:
#      x y z
#    x 1.876940 0.000000 0.000000 
#    y 0.000000 1.862260 0.000000 
#    z 0.000000 0.000000 1.881440 
# 
# From -- ./inp_files/41915.got.cif
#   From: 2010.03.12/outbox.cif.g09.slc.cpg/sg64_21_cif.got.tgz:41915.got - 2010.04.10 20:19:32.
