data_PCOD8264888
_publ_section_title
;
Structure prediction by ZEFSAII (Michael W. Deem and Ramdas Pophale) SiO2 
 PCOD8264888
Probable space group: C M C A
;
_chemical_formula_sum "Si O2"
_cell_formula_units_Z 48
_cell_length_a 7.461765
_cell_length_b 18.449473
_cell_length_c 19.193207
_cell_angle_alpha 90.000000
_cell_angle_beta 90.000000
_cell_angle_gamma 90.000000
_cell_volume 2642.244970
_symmetry_space_group_name_H-M "C M C A"
_symmetry_group_IT_number 64
_symmetry_cell_setting 'orthorhombic'
loop_
_space_group_symop_operation_xyz
x,y,z
-x,1/2-y,1/2+z
x,-y,-z
-x,1/2+y,1/2-z
-x,-y,-z
x,1/2+y,1/2-z
-x,y,z
x,1/2-y,1/2+z
1/2+x,1/2+y,z
1/2-x,-y,1/2+z
1/2+x,1/2-y,-z
1/2-x,y,1/2-z
1/2-x,1/2-y,-z
1/2+x,y,1/2-z
1/2-x,1/2+y,z
1/2+x,-y,1/2+z
loop_
_atom_site_type_symbol
_atom_site_label
_atom_site_fract_x
_atom_site_fract_y
_atom_site_fract_z
Si Si1 0.000000 0.562214 0.901549
Si Si2 0.704615 0.214407 0.426626
Si Si3 0.500000 0.898837 0.938608
Si Si4 0.293148 0.846385 0.330456
O O1 0.000000 0.475809 0.901017
O O2 0.821823 0.588327 0.862450
O O3 0.000000 0.595245 0.978355
O O4 0.500000 0.188816 0.425442
O O5 0.750000 0.250000 0.500000
O O6 0.741012 0.270856 0.365467
O O7 0.823694 0.143554 0.413899
O O8 0.500000 0.865310 0.343548
O O9 0.250000 0.837809 0.250000
#
# Coordination Sequence:
#
# PCOD8264888 Si02
#       4
#     8  16   8  16
#     4  11  24  41  58  96 125 159 202 259 305 366
#     4  12  20  37  64  95 120 160 205 255 300 361
#     4  11  24  39  62  92 130 153 204 261 310 354
#     4  12  22  39  67  90 120 164 211 249 304 372
#
# _framework density 18.166371000000002
#
# number of rings (size 3 to 8) (size 9 to 14) (size 15 to 20)
#    0.000    0.333   10.000    0.000    0.000    1.333 
#    0.000    5.000    0.000    0.000    0.000    0.000 
#    0.000    0.000    0.000    0.000    0.000    0.000 
#
# Total GULP energy -297739.199414 kJ/mol
# GULP energy per Si atom -12405.799976 kJ/mol
# Density = 1.812502 g / cm^3
# Si number density = 18.166371 Si / 1000 Ang^3
#
#
#
# Elastic Constant Matrix: (Units=GPa)
#
#
# Indices 1 2 3 4 5 6 
#
# 1 209.4969 83.1682 46.1546 0.0000 0.0000 0.0000
# 2 83.1682 149.5468 69.2876 0.0000 0.0000 0.0000
# 3 46.1546 69.2876 114.6840 0.0000 0.0000 0.0000
# 4 0.0000 0.0000 0.0000 22.9460 0.0000 0.0000
# 5 0.0000 0.0000 0.0000 0.0000 19.9599 0.0000
# 6 0.0000 0.0000 0.0000 0.0000 0.0000 37.5375
#
#
#
# Elastic Compliance Matrix: (Units=1/GPa)
#
#
# Indices 1 2 3 4 5 6 
#
# 1 0.006152 -0.003158 -0.000568 0.000000 0.000000 0.000000
# 2 -0.003158 0.010908 -0.005319 0.000000 0.000000 0.000000
# 3 -0.000568 -0.005319 0.012162 0.000000 0.000000 0.000000
# 4 0.000000 0.000000 0.000000 0.043581 0.000000 0.000000
# 5 0.000000 0.000000 0.000000 0.000000 0.050100 0.000000
# 6 0.000000 0.000000 0.000000 0.000000 0.000000 0.026640
#
#
# Mechanical properties :
#
#
# Convention : Reuss Voigt Hill
#
# Bulk Modulus (GPa) = 89.83637 96.77206 93.30421
# Shear Modulus (GPa) = 29.18118 34.42984 31.80551
#
# Velocity S-wave (km/s) = 4.01225 4.35817 4.18878
# Velocity P-wave (km/s) = 8.42755 8.87189 8.65257
#
# Compressibility (1/GPa) = 0.01113135
#
# Stress axis : x y z
#
# Youngs Moduli (GPa) = 162.54074 91.67802 82.22601
#
# Poissons Ratio (x) = 0.28956 0.04669
# Poissons Ratio (y) = 0.51338 0.43735
# Poissons Ratio (z) = 0.09229 0.48763
#
# Static dielectric constant tensor:
#      x y z
#    x 5.911970 0.000000 0.000000 
#    y 0.000000 3.250160 0.000000 
#    z 0.000000 0.000000 3.438420 
# 
# 
# High freq. dielectric constant tensor:
#      x y z
#    x 1.727790 0.000000 0.000000 
#    y 0.000000 1.694360 0.000000 
#    z 0.000000 0.000000 1.706330 
# 
# From -- ./inp_files/29003.got.cif
#   From: 2010.03.12/outbox.cif.g09.slc.cpg/sg64_15_cif.got.tgz:29003.got - 2010.04.10 20:19:32.
