data_PCOD8264157
_publ_section_title
;
Structure prediction by ZEFSAII (Michael W. Deem and Ramdas Pophale) SiO2 
 PCOD8264157
Probable space group: C M C A
;
_chemical_formula_sum "Si O2"
_cell_formula_units_Z 88
_cell_length_a 19.983510
_cell_length_b 14.645058
_cell_length_c 15.683194
_cell_angle_alpha 90.000000
_cell_angle_beta 90.000000
_cell_angle_gamma 90.000000
_cell_volume 4589.838271
_symmetry_space_group_name_H-M "C M C A"
_symmetry_group_IT_number 64
_symmetry_cell_setting 'orthorhombic'
loop_
_space_group_symop_operation_xyz
x,y,z
-x,1/2-y,1/2+z
x,-y,-z
-x,1/2+y,1/2-z
-x,-y,-z
x,1/2+y,1/2-z
-x,y,z
x,1/2-y,1/2+z
1/2+x,1/2+y,z
1/2-x,-y,1/2+z
1/2+x,1/2-y,-z
1/2-x,y,1/2-z
1/2-x,1/2-y,-z
1/2+x,y,1/2-z
1/2-x,1/2+y,z
1/2+x,-y,1/2+z
loop_
_atom_site_type_symbol
_atom_site_label
_atom_site_fract_x
_atom_site_fract_y
_atom_site_fract_z
Si Si1 0.126583 0.212066 0.318551
Si Si2 0.743380 0.500000 0.500000
Si Si3 0.500000 0.591648 0.588693
Si Si4 0.809910 0.973212 0.687805
Si Si5 0.266471 0.683111 0.925745
Si Si6 0.000000 0.109487 0.391812
Si Si7 0.627667 0.651920 0.671950
O O1 0.169493 0.127629 0.283210
O O2 0.169879 0.279713 0.376380
O O3 0.063816 0.169858 0.367614
O O4 0.104217 0.273007 0.239480
O O5 0.700497 0.528631 0.415846
O O6 0.787260 0.585947 0.531690
O O7 0.500000 0.582145 0.488949
O O8 0.500000 0.495429 0.643496
O O9 0.566575 0.650723 0.606454
O O10 0.750000 0.002094 0.750000
O O11 0.865928 0.049151 0.709729
O O12 0.200332 0.674862 0.867670
O O13 0.250000 0.750000 0.000000
#
# Coordination Sequence:
#
# PCOD8264157 Si02
#       7
#    16   8   8  16  16   8  16
#     4  12  23  41  64  93 128 171 218 270 329 390
#     4  10  22  36  62  92 136 168 208 264 330 374
#     4  11  23  42  66  93 124 169 220 272 326 398
#     4  11  22  38  62  96 130 170 212 268 326 392
#     4  11  21  37  62  94 128 167 211 264 323 390
#     4  11  25  42  68  90 123 172 223 274 326 396
#     4  11  23  39  61  92 130 165 212 269 325 386
#
# _framework density 19.172789999999999
#
# number of rings (size 3 to 8) (size 9 to 14) (size 15 to 20)
#    0.000    0.909    3.636    5.455    2.545    0.000 
#    0.000    0.000    0.000    0.545    0.000    0.000 
#    0.000    0.000    0.000    0.000    0.000    0.000 
#
# Total GULP energy -545095.476790 kJ/mol
# GULP energy per Si atom -12388.533563 kJ/mol
# Density = 1.912915 g / cm^3
# Si number density = 19.172790 Si / 1000 Ang^3
#
#
#
# Elastic Constant Matrix: (Units=GPa)
#
#
# Indices 1 2 3 4 5 6 
#
# 1 105.3933 28.2488 36.6148 0.0000 0.0000 0.0000
# 2 28.2488 135.6906 44.2381 0.0000 0.0000 0.0000
# 3 36.6148 44.2381 84.0157 0.0000 0.0000 0.0000
# 4 0.0000 0.0000 0.0000 41.2006 0.0000 0.0000
# 5 0.0000 0.0000 0.0000 0.0000 30.8589 0.0000
# 6 0.0000 0.0000 0.0000 0.0000 0.0000 41.5209
#
#
#
# Elastic Compliance Matrix: (Units=1/GPa)
#
#
# Indices 1 2 3 4 5 6 
#
# 1 0.011271 -0.000899 -0.004439 0.000000 0.000000 0.000000
# 2 -0.000899 0.008969 -0.004330 0.000000 0.000000 0.000000
# 3 -0.004439 -0.004330 0.016117 0.000000 0.000000 0.000000
# 4 0.000000 0.000000 0.000000 0.024271 0.000000 0.000000
# 5 0.000000 0.000000 0.000000 0.000000 0.032406 0.000000
# 6 0.000000 0.000000 0.000000 0.000000 0.000000 0.024084
#
#
# Mechanical properties :
#
#
# Convention : Reuss Voigt Hill
#
# Bulk Modulus (GPa) = 58.75354 60.36699 59.56027
# Shear Modulus (GPa) = 35.17933 37.11595 36.14764
#
# Velocity S-wave (km/s) = 4.28817 4.40462 4.34679
# Velocity P-wave (km/s) = 7.43160 7.57771 7.50501
#
# Compressibility (1/GPa) = 0.01702025
#
# Stress axis : x y z
#
# Youngs Moduli (GPa) = 88.72046 111.49768 62.04591
#
# Poissons Ratio (x) = 0.10029 0.27539
# Poissons Ratio (y) = 0.07980 0.26869
# Poissons Ratio (z) = 0.39379 0.48284
#
# Static dielectric constant tensor:
#      x y z
#    x 3.487910 0.000000 0.000000 
#    y 0.000000 4.004990 0.000000 
#    z 0.000000 0.000000 3.440870 
# 
# 
# High freq. dielectric constant tensor:
#      x y z
#    x 1.728790 0.000000 0.000000 
#    y 0.000000 1.771540 0.000000 
#    z 0.000000 0.000000 1.740900 
# 
# From -- ./inp_files/26276.got.cif
#   From: 2010.03.12/outbox.cif.g09.slc.cpg/sg64_14_cif.got.tgz:26276.got - 2010.04.10 20:19:32.
