data_PCOD8264389
_publ_section_title
;
Structure prediction by ZEFSAII (Michael W. Deem and Ramdas Pophale) SiO2 
 PCOD8264389
Probable space group: C M C A
;
_chemical_formula_sum "Si O2"
_cell_formula_units_Z 88
_cell_length_a 15.797117
_cell_length_b 9.739886
_cell_length_c 25.714942
_cell_angle_alpha 90.000000
_cell_angle_beta 90.000000
_cell_angle_gamma 90.000000
_cell_volume 3956.555459
_symmetry_space_group_name_H-M "C M C A"
_symmetry_group_IT_number 64
_symmetry_cell_setting 'orthorhombic'
loop_
_space_group_symop_operation_xyz
x,y,z
-x,1/2-y,1/2+z
x,-y,-z
-x,1/2+y,1/2-z
-x,-y,-z
x,1/2+y,1/2-z
-x,y,z
x,1/2-y,1/2+z
1/2+x,1/2+y,z
1/2-x,-y,1/2+z
1/2+x,1/2-y,-z
1/2-x,y,1/2-z
1/2-x,1/2-y,-z
1/2+x,y,1/2-z
1/2-x,1/2+y,z
1/2+x,-y,1/2+z
loop_
_atom_site_type_symbol
_atom_site_label
_atom_site_fract_x
_atom_site_fract_y
_atom_site_fract_z
Si Si1 0.908140 0.864137 0.127153
Si Si2 0.596338 0.653043 0.074161
Si Si3 0.093001 0.245541 0.263116
Si Si4 0.207450 0.500000 0.500000
Si Si5 0.817842 0.965544 0.291966
Si Si6 0.269968 0.869259 0.099904
O O1 0.905384 0.851653 0.188904
O O2 0.823121 0.793366 0.103228
O O3 0.000000 0.804359 0.106700
O O4 0.902525 0.023983 0.112638
O O5 0.500000 0.701418 0.062797
O O6 0.650134 0.770091 0.102223
O O7 0.644079 0.619686 0.019862
O O8 0.116005 0.338311 0.212782
O O9 0.000000 0.184395 0.253556
O O10 0.151307 0.116051 0.276116
O O11 0.269866 0.453180 0.453931
O O12 0.750000 0.917214 0.250000
O O13 0.780719 0.970713 0.350511
#
# Coordination Sequence:
#
# PCOD8264389 Si02
#       6
#    16  16  16   8  16  16
#     4   9  21  39  63  94 130 172 221 275 332 403
#     4  10  22  42  70 100 129 174 229 282 339 408
#     4  11  25  43  64  97 134 178 226 278 340 409
#     4  10  23  42  67  96 136 178 227 288 345 404
#     4  12  26  42  67  98 136 180 228 278 345 415
#     4  11  24  42  70  98 137 178 231 282 350 408
#
# _framework density 22.241568999999998
#
# number of rings (size 3 to 8) (size 9 to 14) (size 15 to 20)
#    0.000    1.455    1.818    1.909    7.636    2.182 
#    0.000    0.455    0.000    0.000    0.000    0.000 
#    0.000    0.000    0.000    0.000    0.000    0.000 
#
# Total GULP energy -545155.143036 kJ/mol
# GULP energy per Si atom -12389.889614 kJ/mol
# Density = 2.219095 g / cm^3
# Si number density = 22.241569 Si / 1000 Ang^3
#
#
#
# Elastic Constant Matrix: (Units=GPa)
#
#
# Indices 1 2 3 4 5 6 
#
# 1 124.9152 47.5832 36.8454 0.0000 0.0000 0.0000
# 2 47.5832 79.6309 39.4723 0.0000 0.0000 0.0000
# 3 36.8454 39.4723 122.8877 0.0000 0.0000 0.0000
# 4 0.0000 0.0000 0.0000 27.3240 0.0000 0.0000
# 5 0.0000 0.0000 0.0000 0.0000 30.4138 0.0000
# 6 0.0000 0.0000 0.0000 0.0000 0.0000 32.8703
#
#
#
# Elastic Compliance Matrix: (Units=1/GPa)
#
#
# Indices 1 2 3 4 5 6 
#
# 1 0.010551 -0.005633 -0.001354 0.000000 0.000000 0.000000
# 2 -0.005633 0.017944 -0.004075 0.000000 0.000000 0.000000
# 3 -0.001354 -0.004075 0.009852 0.000000 0.000000 0.000000
# 4 0.000000 0.000000 0.000000 0.036598 0.000000 0.000000
# 5 0.000000 0.000000 0.000000 0.000000 0.032880 0.000000
# 6 0.000000 0.000000 0.000000 0.000000 0.000000 0.030423
#
#
# Mechanical properties :
#
#
# Convention : Reuss Voigt Hill
#
# Bulk Modulus (GPa) = 61.64115 63.91508 62.77812
# Shear Modulus (GPa) = 30.16069 31.69048 30.92558
#
# Velocity S-wave (km/s) = 3.68645 3.77879 3.73291
# Velocity P-wave (km/s) = 6.77455 6.91651 6.84590
#
# Compressibility (1/GPa) = 0.01622293
#
# Stress axis : x y z
#
# Youngs Moduli (GPa) = 94.78057 55.72919 101.49960
#
# Poissons Ratio (x) = 0.31394 0.13742
# Poissons Ratio (y) = 0.53394 0.41357
# Poissons Ratio (z) = 0.12833 0.22708
#
# Static dielectric constant tensor:
#      x y z
#    x 4.616370 0.000000 0.000000 
#    y 0.000000 3.555820 0.000000 
#    z 0.000000 0.000000 3.995400 
# 
# 
# High freq. dielectric constant tensor:
#      x y z
#    x 1.895270 0.000000 0.000000 
#    y 0.000000 1.841660 0.000000 
#    z 0.000000 0.000000 1.875470 
# 
# From -- ./inp_files/49956.got.cif
#   From: 2010.03.12/outbox.cif.g09.slc.cpg/sg64_25_cif.got.tgz:49956.got - 2010.04.10 20:19:32.
