data_PCOD8264368
_publ_section_title
;
Structure prediction by ZEFSAII (Michael W. Deem and Ramdas Pophale) SiO2 
 PCOD8264368
Probable space group: C M C A
;
_chemical_formula_sum "Si O2"
_cell_formula_units_Z 64
_cell_length_a 13.677951
_cell_length_b 10.112495
_cell_length_c 21.721026
_cell_angle_alpha 90.000000
_cell_angle_beta 90.000000
_cell_angle_gamma 90.000000
_cell_volume 3004.413460
_symmetry_space_group_name_H-M "C M C A"
_symmetry_group_IT_number 64
_symmetry_cell_setting 'orthorhombic'
loop_
_space_group_symop_operation_xyz
x,y,z
-x,1/2-y,1/2+z
x,-y,-z
-x,1/2+y,1/2-z
-x,-y,-z
x,1/2+y,1/2-z
-x,y,z
x,1/2-y,1/2+z
1/2+x,1/2+y,z
1/2-x,-y,1/2+z
1/2+x,1/2-y,-z
1/2-x,y,1/2-z
1/2-x,1/2-y,-z
1/2+x,y,1/2-z
1/2-x,1/2+y,z
1/2+x,-y,1/2+z
loop_
_atom_site_type_symbol
_atom_site_label
_atom_site_fract_x
_atom_site_fract_y
_atom_site_fract_z
Si Si1 0.330449 0.000000 0.000000
Si Si2 0.205085 0.665588 0.684884
Si Si3 0.000000 0.196239 0.488678
Si Si4 0.500000 0.414352 0.917665
Si Si5 0.213663 0.405599 0.617545
Si Si6 0.500000 0.311461 0.135715
O O1 0.402111 0.123990 0.985914
O O2 0.256644 0.964738 0.945259
O O3 0.250000 0.707258 0.750000
O O4 0.236411 0.515917 0.669503
O O5 0.088498 0.681908 0.683751
O O6 0.238030 0.766519 0.632275
O O7 0.000000 0.346181 0.515104
O O8 0.000000 0.188989 0.413122
O O9 0.401221 0.371627 0.883169
O O10 0.500000 0.573087 0.915911
#
# Coordination Sequence:
#
# PCOD8264368 Si02
#       6
#     8  16   8   8  16   8
#     4  11  24  37  66  94 134 165 206 263 332 390
#     4  11  24  44  66  90 127 170 219 264 312 374
#     4  11  21  40  59  99 128 167 201 262 322 392
#     4  10  24  36  63  94 133 163 208 259 325 381
#     4  11  24  42  64  97 128 172 212 264 325 383
#     4  10  22  42  64  93 122 167 213 262 313 377
#
# _framework density 21.301995000000002
#
# number of rings (size 3 to 8) (size 9 to 14) (size 15 to 20)
#    0.000    1.250    2.500    2.625    7.000    3.000 
#    0.000    6.250    0.000    0.000    0.000    0.000 
#    0.000    0.000    0.000    0.000    0.000    0.000 
#
# Total GULP energy -396544.342428 kJ/mol
# GULP energy per Si atom -12392.010701 kJ/mol
# Density = 2.125351 g / cm^3
# Si number density = 21.301995 Si / 1000 Ang^3
#
#
#
# Elastic Constant Matrix: (Units=GPa)
#
#
# Indices 1 2 3 4 5 6 
#
# 1 153.7138 50.1551 45.5506 0.0000 0.0000 0.0000
# 2 50.1551 61.4677 32.4488 0.0000 0.0000 0.0000
# 3 45.5506 32.4488 102.9565 0.0000 0.0000 0.0000
# 4 0.0000 0.0000 0.0000 32.1401 0.0000 0.0000
# 5 0.0000 0.0000 0.0000 0.0000 404.0977 0.0000
# 6 0.0000 0.0000 0.0000 0.0000 0.0000 26.4323
#
#
#
# Elastic Compliance Matrix: (Units=1/GPa)
#
#
# Indices 1 2 3 4 5 6 
#
# 1 0.009212 -0.006436 -0.002047 0.000000 0.000000 0.000000
# 2 -0.006436 0.024012 -0.004720 0.000000 0.000000 0.000000
# 3 -0.002047 -0.004720 0.012106 0.000000 0.000000 0.000000
# 4 0.000000 0.000000 0.000000 0.031114 0.000000 0.000000
# 5 0.000000 0.000000 0.000000 0.000000 0.002475 0.000000
# 6 0.000000 0.000000 0.000000 0.000000 0.000000 0.037832
#
#
# Mechanical properties :
#
#
# Convention : Reuss Voigt Hill
#
# Bulk Modulus (GPa) = 52.84510 63.82745 58.33627
# Shear Modulus (GPa) = 33.45215 105.19959 69.32587
#
# Velocity S-wave (km/s) = 3.96710 7.03506 5.71095
# Velocity P-wave (km/s) = 6.77091 9.79886 8.42208
#
# Compressibility (1/GPa) = 0.01892323
#
# Stress axis : x y z
#
# Youngs Moduli (GPa) = 108.55036 41.64545 82.60126
#
# Poissons Ratio (x) = 0.26803 0.16911
# Poissons Ratio (y) = 0.69864 0.38991
# Poissons Ratio (z) = 0.22224 0.19658
#
# Static dielectric constant tensor:
#      x y z
#    x 4.788710 0.000000 0.000000 
#    y 0.000000 3.965130 0.000000 
#    z 0.000000 0.000000 3.399860 
# 
# 
# High freq. dielectric constant tensor:
#      x y z
#    x 1.851910 0.000000 0.000000 
#    y 0.000000 1.842870 0.000000 
#    z 0.000000 0.000000 1.810790 
# 
# From -- ./inp_files/31711.got.cif
#   From: 2010.03.12/outbox.cif.g09.slc.cpg/sg64_16_cif.got.tgz:31711.got - 2010.04.10 20:19:32.
