data_PCOD8264841
_publ_section_title
;
Structure prediction by ZEFSAII (Michael W. Deem and Ramdas Pophale) SiO2 
 PCOD8264841
Probable space group: C M C A
;
_chemical_formula_sum "Si O2"
_cell_formula_units_Z 64
_cell_length_a 17.900634
_cell_length_b 11.937802
_cell_length_c 13.451562
_cell_angle_alpha 90.000000
_cell_angle_beta 90.000000
_cell_angle_gamma 90.000000
_cell_volume 2874.521108
_symmetry_space_group_name_H-M "C M C A"
_symmetry_group_IT_number 64
_symmetry_cell_setting 'orthorhombic'
loop_
_space_group_symop_operation_xyz
x,y,z
-x,1/2-y,1/2+z
x,-y,-z
-x,1/2+y,1/2-z
-x,-y,-z
x,1/2+y,1/2-z
-x,y,z
x,1/2-y,1/2+z
1/2+x,1/2+y,z
1/2-x,-y,1/2+z
1/2+x,1/2-y,-z
1/2-x,y,1/2-z
1/2-x,1/2-y,-z
1/2+x,y,1/2-z
1/2-x,1/2+y,z
1/2+x,-y,1/2+z
loop_
_atom_site_type_symbol
_atom_site_label
_atom_site_fract_x
_atom_site_fract_y
_atom_site_fract_z
Si Si1 0.914795 0.954755 0.610115
Si Si2 0.330734 0.461627 0.217203
Si Si3 0.173716 0.258341 0.436047
Si Si4 0.581181 0.602954 0.073592
O O1 0.854321 0.854338 0.617099
O O2 0.000000 0.919234 0.637448
O O3 0.911719 0.000000 0.500000
O O4 0.885588 0.051330 0.686801
O O5 0.250000 0.500264 0.250000
O O6 0.322525 0.350327 0.151305
O O7 0.361694 0.569493 0.159138
O O8 0.250000 0.250000 0.500000
O O9 0.110016 0.289047 0.515277
O O10 0.500000 0.632377 0.119104
O O11 0.573464 0.500000 0.000000
#
# Coordination Sequence:
#
# PCOD8264841 Si02
#       4
#    16  16  16  16
#     4  11  25  43  63  92 132 174 218 272 331 398
#     4  11  23  40  64  93 126 167 216 268 329 399
#     4  11  23  41  66  96 130 169 215 274 339 398
#     4   9  19  38  64  91 121 161 210 262 316 380
#
# _framework density 22.264578
#
# number of rings (size 3 to 8) (size 9 to 14) (size 15 to 20)
#    0.000    1.500    0.000    4.500    0.000   10.000 
#    0.000    2.500    0.000    0.000    0.000    0.000 
#    0.000    0.000    0.000    0.000    0.000    0.000 
#
# Total GULP energy -396617.775613 kJ/mol
# GULP energy per Si atom -12394.305488 kJ/mol
# Density = 2.221390 g / cm^3
# Si number density = 22.264578 Si / 1000 Ang^3
#
#
#
# Elastic Constant Matrix: (Units=GPa)
#
#
# Indices 1 2 3 4 5 6 
#
# 1 197.0373 52.6748 72.0922 0.0000 0.0000 0.0000
# 2 52.6748 77.3666 41.4620 0.0000 0.0000 0.0000
# 3 72.0922 41.4620 135.4460 0.0000 0.0000 0.0000
# 4 0.0000 0.0000 0.0000 38.4006 0.0000 0.0000
# 5 0.0000 0.0000 0.0000 0.0000 39.0455 0.0000
# 6 0.0000 0.0000 0.0000 0.0000 0.0000 4.7411
#
#
#
# Elastic Compliance Matrix: (Units=1/GPa)
#
#
# Indices 1 2 3 4 5 6 
#
# 1 0.006936 -0.003282 -0.002687 0.000000 0.000000 0.000000
# 2 -0.003282 0.017015 -0.003462 0.000000 0.000000 0.000000
# 3 -0.002687 -0.003462 0.009873 0.000000 0.000000 0.000000
# 4 0.000000 0.000000 0.000000 0.026041 0.000000 0.000000
# 5 0.000000 0.000000 0.000000 0.000000 0.025611 0.000000
# 6 0.000000 0.000000 0.000000 0.000000 0.000000 0.210921
#
#
# Mechanical properties :
#
#
# Convention : Reuss Voigt Hill
#
# Bulk Modulus (GPa) = 66.83440 82.47866 74.65653
# Shear Modulus (GPa) = 15.61298 32.67883 24.14590
#
# Velocity S-wave (km/s) = 2.65098 3.83528 3.29675
# Velocity P-wave (km/s) = 6.28122 7.53244 6.93511
#
# Compressibility (1/GPa) = 0.01496236
#
# Stress axis : x y z
#
# Youngs Moduli (GPa) = 144.18160 58.77052 101.28869
#
# Poissons Ratio (x) = 0.19290 0.27215
# Poissons Ratio (y) = 0.47324 0.35063
# Poissons Ratio (z) = 0.38739 0.20344
#
# Static dielectric constant tensor:
#      x y z
#    x 4.395330 0.000000 0.000000 
#    y 0.000000 3.836780 0.000000 
#    z 0.000000 0.000000 4.284090 
# 
# 
# High freq. dielectric constant tensor:
#      x y z
#    x 1.896470 0.000000 0.000000 
#    y 0.000000 1.853160 0.000000 
#    z 0.000000 0.000000 1.891370 
# 
# From -- ./inp_files/15439.got.cif
#   From: 2010.03.12/outbox.cif.g09.slc.cpg/sg64_8_cif.got.tgz:15439.got - 2010.04.10 20:19:32.
