data_PCOD8264959
_publ_section_title
;
Structure prediction by ZEFSAII (Michael W. Deem and Ramdas Pophale) SiO2 
 PCOD8264959
Probable space group: C M C A
;
_chemical_formula_sum "Si O2"
_cell_formula_units_Z 88
_cell_length_a 14.450748
_cell_length_b 22.455897
_cell_length_c 13.573981
_cell_angle_alpha 90.000000
_cell_angle_beta 90.000000
_cell_angle_gamma 90.000000
_cell_volume 4404.818035
_symmetry_space_group_name_H-M "C M C A"
_symmetry_group_IT_number 64
_symmetry_cell_setting 'orthorhombic'
loop_
_space_group_symop_operation_xyz
x,y,z
-x,1/2-y,1/2+z
x,-y,-z
-x,1/2+y,1/2-z
-x,-y,-z
x,1/2+y,1/2-z
-x,y,z
x,1/2-y,1/2+z
1/2+x,1/2+y,z
1/2-x,-y,1/2+z
1/2+x,1/2-y,-z
1/2-x,y,1/2-z
1/2-x,1/2-y,-z
1/2+x,y,1/2-z
1/2-x,1/2+y,z
1/2+x,-y,1/2+z
loop_
_atom_site_type_symbol
_atom_site_label
_atom_site_fract_x
_atom_site_fract_y
_atom_site_fract_z
Si Si1 0.837204 0.868315 0.298774
Si Si2 0.605430 0.069545 0.994512
Si Si3 0.000000 0.818363 0.737369
Si Si4 0.500000 0.292307 0.949087
Si Si5 0.304910 0.751120 0.598117
Si Si6 0.695451 0.363151 0.664248
Si Si7 0.000000 0.180670 0.824466
O O1 0.750000 0.903114 0.250000
O O2 0.882391 0.908360 0.383164
O O3 0.790628 0.807905 0.339519
O O4 0.910979 0.854240 0.214099
O O5 0.500000 0.083842 0.028361
O O6 0.683243 0.100155 0.063656
O O7 0.624674 0.000000 0.000000
O O8 0.091729 0.844264 0.689879
O O9 0.000000 0.747367 0.718869
O O10 0.000000 0.836337 0.853861
O O11 0.500000 0.323193 0.056128
O O12 0.588600 0.250820 0.935361
O O13 0.250000 0.750000 0.500000
O O14 0.268274 0.808467 0.656135
O O15 0.750000 0.400937 0.750000
#
# Coordination Sequence:
#
# PCOD8264959 Si02
#       7
#    16  16   8   8  16  16   8
#     4  12  23  40  64  96 132 169 214 267 327 392
#     4  11  26  47  69  91 120 174 236 279 318 379
#     4  12  22  38  58  93 134 172 207 249 322 393
#     4  12  24  36  56  90 146 172 203 253 316 406
#     4  12  22  37  60  97 134 170 207 252 322 404
#     4  12  23  39  66  97 129 168 215 268 326 395
#     4  12  24  36  56  95 136 172 205 247 322 391
#
# _framework density 19.978124999999999
#
# number of rings (size 3 to 8) (size 9 to 14) (size 15 to 20)
#    0.000    0.182    7.273    3.818    0.000    0.727 
#    0.000    0.000    0.000    0.000    0.000    3.182 
#    0.000    0.000    0.000    0.000    0.000    0.000 
#
# Total GULP energy -545322.223627 kJ/mol
# GULP energy per Si atom -12393.686901 kJ/mol
# Density = 1.993265 g / cm^3
# Si number density = 19.978125 Si / 1000 Ang^3
#
#
#
# Elastic Constant Matrix: (Units=GPa)
#
#
# Indices 1 2 3 4 5 6 
#
# 1 130.9164 23.0590 33.3195 0.0000 0.0000 0.0000
# 2 23.0590 68.6766 28.0701 0.0000 0.0000 0.0000
# 3 33.3195 28.0701 128.6374 0.0000 0.0000 0.0000
# 4 0.0000 0.0000 0.0000 5.0435 0.0000 0.0000
# 5 0.0000 0.0000 0.0000 0.0000 45.9674 0.0000
# 6 0.0000 0.0000 0.0000 0.0000 0.0000 11.9061
#
#
#
# Elastic Compliance Matrix: (Units=1/GPa)
#
#
# Indices 1 2 3 4 5 6 
#
# 1 0.008453 -0.002134 -0.001724 0.000000 0.000000 0.000000
# 2 -0.002134 0.016525 -0.003053 0.000000 0.000000 0.000000
# 3 -0.001724 -0.003053 0.008887 0.000000 0.000000 0.000000
# 4 0.000000 0.000000 0.000000 0.198274 0.000000 0.000000
# 5 0.000000 0.000000 0.000000 0.000000 0.021755 0.000000
# 6 0.000000 0.000000 0.000000 0.000000 0.000000 0.083991
#
#
# Mechanical properties :
#
#
# Convention : Reuss Voigt Hill
#
# Bulk Modulus (GPa) = 49.89217 55.23640 52.56428
# Shear Modulus (GPa) = 13.95139 28.83553 21.39346
#
# Velocity S-wave (km/s) = 2.64547 3.80327 3.27593
# Velocity P-wave (km/s) = 5.86165 6.85529 6.37785
#
# Compressibility (1/GPa) = 0.02004322
#
# Stress axis : x y z
#
# Youngs Moduli (GPa) = 118.30098 60.51297 112.52902
#
# Poissons Ratio (x) = 0.12911 0.19399
# Poissons Ratio (y) = 0.25241 0.34359
# Poissons Ratio (z) = 0.20394 0.18477
#
# Static dielectric constant tensor:
#      x y z
#    x 3.818910 0.000000 0.000000 
#    y 0.000000 1.583950 0.000000 
#    z 0.000000 0.000000 4.036970 
# 
# 
# High freq. dielectric constant tensor:
#      x y z
#    x 1.806070 0.000000 0.000000 
#    y 0.000000 1.720930 0.000000 
#    z 0.000000 0.000000 1.808050 
# 
# From -- ./inp_files/23812.got.cif
#   From: 2010.03.12/outbox.cif.g09.slc.cpg/sg64_12_cif.got.tgz:23812.got - 2010.04.10 20:19:32.
