data_PCOD8264630
_publ_section_title
;
Structure prediction by ZEFSAII (Michael W. Deem and Ramdas Pophale) SiO2 
 PCOD8264630
Probable space group: C M C A
;
_chemical_formula_sum "Si O2"
_cell_formula_units_Z 88
_cell_length_a 15.376829
_cell_length_b 22.522207
_cell_length_c 12.404045
_cell_angle_alpha 90.000000
_cell_angle_beta 90.000000
_cell_angle_gamma 90.000000
_cell_volume 4295.770424
_symmetry_space_group_name_H-M "C M C A"
_symmetry_group_IT_number 64
_symmetry_cell_setting 'orthorhombic'
loop_
_space_group_symop_operation_xyz
x,y,z
-x,1/2-y,1/2+z
x,-y,-z
-x,1/2+y,1/2-z
-x,-y,-z
x,1/2+y,1/2-z
-x,y,z
x,1/2-y,1/2+z
1/2+x,1/2+y,z
1/2-x,-y,1/2+z
1/2+x,1/2-y,-z
1/2-x,y,1/2-z
1/2-x,1/2-y,-z
1/2+x,y,1/2-z
1/2-x,1/2+y,z
1/2+x,-y,1/2+z
loop_
_atom_site_type_symbol
_atom_site_label
_atom_site_fract_x
_atom_site_fract_y
_atom_site_fract_z
Si Si1 0.167602 0.132443 0.310523
Si Si2 0.643548 0.919811 0.408046
Si Si3 0.401769 0.546389 0.144598
Si Si4 0.000000 0.373064 0.091379
Si Si5 0.000000 0.833619 0.170876
Si Si6 0.825731 0.430965 0.032001
Si Si7 0.500000 0.697623 0.370732
O O1 0.250000 0.163456 0.250000
O O2 0.147524 0.071879 0.247142
O O3 0.188184 0.112935 0.431286
O O4 0.085899 0.176887 0.306431
O O5 0.641658 0.929926 0.536242
O O6 0.588557 0.862812 0.373832
O O7 0.747225 0.915380 0.384305
O O8 0.601716 0.975367 0.346078
O O9 0.500000 0.568600 0.146182
O O10 0.000000 0.334160 0.199679
O O11 0.083495 0.416237 0.089953
O O12 0.000000 0.328056 0.991453
O O13 0.000000 0.767976 0.124059
O O14 0.823971 0.500000 0.000000
#
# Coordination Sequence:
#
# PCOD8264630 Si02
#       7
#    16  16  16   8   8  16   8
#     4  11  21  39  67  93 124 171 218 254 328 392
#     4  11  21  37  61  98 133 158 212 262 326 384
#     4  11  19  36  63  98 129 162 201 264 323 400
#     4  10  27  46  61  94 131 172 224 260 326 390
#     4  12  26  45  68  91 125 178 219 276 328 362
#     4  11  22  40  63  98 137 167 201 266 328 401
#     4  10  26  48  63  88 128 172 228 273 306 377
#
# _framework density 20.485265999999999
#
# number of rings (size 3 to 8) (size 9 to 14) (size 15 to 20)
#    0.000    1.091    6.364    0.818    2.545    2.182 
#    3.273    1.818    0.000    0.000    0.000    0.000 
#    0.000    0.000    0.000    0.000    0.000    0.000 
#
# Total GULP energy -545633.556533 kJ/mol
# GULP energy per Si atom -12400.762648 kJ/mol
# Density = 2.043864 g / cm^3
# Si number density = 20.485266 Si / 1000 Ang^3
#
#
#
# Elastic Constant Matrix: (Units=GPa)
#
#
# Indices 1 2 3 4 5 6 
#
# 1 179.4517 56.6510 23.7748 0.0000 0.0000 0.0000
# 2 56.6510 117.5733 23.4000 0.0000 0.0000 0.0000
# 3 23.7748 23.4000 47.7108 0.0000 0.0000 0.0000
# 4 0.0000 0.0000 0.0000 18.9462 0.0000 0.0000
# 5 0.0000 0.0000 0.0000 0.0000 18.7920 0.0000
# 6 0.0000 0.0000 0.0000 0.0000 0.0000 12.1914
#
#
#
# Elastic Compliance Matrix: (Units=1/GPa)
#
#
# Indices 1 2 3 4 5 6 
#
# 1 0.006733 -0.002855 -0.001955 0.000000 0.000000 0.000000
# 2 -0.002855 0.010636 -0.003794 0.000000 0.000000 0.000000
# 3 -0.001955 -0.003794 0.023794 0.000000 0.000000 0.000000
# 4 0.000000 0.000000 0.000000 0.052781 0.000000 0.000000
# 5 0.000000 0.000000 0.000000 0.000000 0.053214 0.000000
# 6 0.000000 0.000000 0.000000 0.000000 0.000000 0.082025
#
#
# Mechanical properties :
#
#
# Convention : Reuss Voigt Hill
#
# Bulk Modulus (GPa) = 41.74316 61.37637 51.55977
# Shear Modulus (GPa) = 19.65592 26.04658 22.85125
#
# Velocity S-wave (km/s) = 3.10096 3.56965 3.34353
# Velocity P-wave (km/s) = 5.76565 6.85683 6.33478
#
# Compressibility (1/GPa) = 0.02395602
#
# Stress axis : x y z
#
# Youngs Moduli (GPa) = 148.52615 94.01971 42.02678
#
# Poissons Ratio (x) = 0.26843 0.08215
# Poissons Ratio (y) = 0.42405 0.15944
# Poissons Ratio (z) = 0.29033 0.35669
#
# Static dielectric constant tensor:
#      x y z
#    x 4.210080 0.000000 0.000000 
#    y 0.000000 3.342350 0.000000 
#    z 0.000000 0.000000 3.649080 
# 
# 
# High freq. dielectric constant tensor:
#      x y z
#    x 1.829990 0.000000 0.000000 
#    y 0.000000 1.763840 0.000000 
#    z 0.000000 0.000000 1.797280 
# 
# From -- ./inp_files/14629.got.cif
#   From: 2010.03.12/outbox.cif.g09.slc.cpg/sg64_8_cif.got.tgz:14629.got - 2010.04.10 20:19:32.
