data_PCOD8264483
_publ_section_title
;
Structure prediction by ZEFSAII (Michael W. Deem and Ramdas Pophale) SiO2 
 PCOD8264483
Probable space group: C M C A
;
_chemical_formula_sum "Si O2"
_cell_formula_units_Z 80
_cell_length_a 8.643897
_cell_length_b 15.545254
_cell_length_c 28.843473
_cell_angle_alpha 90.000000
_cell_angle_beta 90.000000
_cell_angle_gamma 90.000000
_cell_volume 3875.742879
_symmetry_space_group_name_H-M "C M C A"
_symmetry_group_IT_number 64
_symmetry_cell_setting 'orthorhombic'
loop_
_space_group_symop_operation_xyz
x,y,z
-x,1/2-y,1/2+z
x,-y,-z
-x,1/2+y,1/2-z
-x,-y,-z
x,1/2+y,1/2-z
-x,y,z
x,1/2-y,1/2+z
1/2+x,1/2+y,z
1/2-x,-y,1/2+z
1/2+x,1/2-y,-z
1/2-x,y,1/2-z
1/2-x,1/2-y,-z
1/2+x,y,1/2-z
1/2-x,1/2+y,z
1/2+x,-y,1/2+z
loop_
_atom_site_type_symbol
_atom_site_label
_atom_site_fract_x
_atom_site_fract_y
_atom_site_fract_z
Si Si1 0.321854 0.278715 0.358696
Si Si2 0.179165 0.470826 0.136266
Si Si3 0.181569 0.127351 0.300689
Si Si4 0.181242 0.277680 0.951303
Si Si5 0.820422 0.959344 0.951011
O O1 0.500000 0.250359 0.357005
O O2 0.299309 0.376665 0.340779
O O3 0.226337 0.215087 0.326312
O O4 0.262648 0.277191 0.411360
O O5 0.241568 0.543636 0.171465
O O6 0.280880 0.473474 0.089468
O O7 0.000000 0.486721 0.123542
O O8 0.250000 0.125716 0.250000
O O9 0.000000 0.124148 0.296108
O O10 0.213346 0.377350 0.941800
O O11 0.000000 0.258595 0.950473
O O12 0.250000 0.250000 0.000000
O O13 0.000000 0.932782 0.949835
O O14 0.775541 0.000000 0.000000
#
# Coordination Sequence:
#
# PCOD8264483 Si02
#       5
#    16  16  16  16  16
#     4  11  23  42  67  97 131 170 214 269 327 386
#     4  10  23  42  65  94 130 169 213 265 324 386
#     4  11  24  44  68  96 129 171 217 271 329 386
#     4  12  24  39  60  90 129 173 218 267 321 383
#     4  11  23  38  60  92 128 169 217 264 318 384
#
# _framework density 20.641203999999998
#
# number of rings (size 3 to 8) (size 9 to 14) (size 15 to 20)
#    0.000    1.000    2.000    4.800    0.000    8.000 
#    0.000    2.000    0.000    0.000    0.000    0.000 
#    0.000    0.000    0.000    0.000    0.000    0.000 
#
# Total GULP energy -496228.918116 kJ/mol
# GULP energy per Si atom -12405.722953 kJ/mol
# Density = 2.059422 g / cm^3
# Si number density = 20.641204 Si / 1000 Ang^3
#
#
#
# Elastic Constant Matrix: (Units=GPa)
#
#
# Indices 1 2 3 4 5 6 
#
# 1 45.5522 18.6999 22.6381 0.0000 0.0000 0.0000
# 2 18.6999 125.4963 49.2045 0.0000 0.0000 0.0000
# 3 22.6381 49.2045 144.0272 0.0000 0.0000 0.0000
# 4 0.0000 0.0000 0.0000 57.8430 0.0000 0.0000
# 5 0.0000 0.0000 0.0000 0.0000 36.2842 0.0000
# 6 0.0000 0.0000 0.0000 0.0000 0.0000 31.0092
#
#
#
# Elastic Compliance Matrix: (Units=1/GPa)
#
#
# Indices 1 2 3 4 5 6 
#
# 1 0.024457 -0.002468 -0.003001 0.000000 0.000000 0.000000
# 2 -0.002468 0.009450 -0.002840 0.000000 0.000000 0.000000
# 3 -0.003001 -0.002840 0.008385 0.000000 0.000000 0.000000
# 4 0.000000 0.000000 0.000000 0.017288 0.000000 0.000000
# 5 0.000000 0.000000 0.000000 0.000000 0.027560 0.000000
# 6 0.000000 0.000000 0.000000 0.000000 0.000000 0.032248
#
#
# Mechanical properties :
#
#
# Convention : Reuss Voigt Hill
#
# Bulk Modulus (GPa) = 38.95023 55.12897 47.03960
# Shear Modulus (GPa) = 34.58633 39.99615 37.29124
#
# Velocity S-wave (km/s) = 4.09785 4.40669 4.25507
# Velocity P-wave (km/s) = 6.42658 7.25659 6.85416
#
# Compressibility (1/GPa) = 0.02567379
#
# Stress axis : x y z
#
# Youngs Moduli (GPa) = 40.88749 105.82278 119.25684
#
# Poissons Ratio (x) = 0.26113 0.35791
# Poissons Ratio (y) = 0.10090 0.33875
# Poissons Ratio (z) = 0.12271 0.30059
#
# Static dielectric constant tensor:
#      x y z
#    x 3.754810 0.000000 0.000000 
#    y 0.000000 3.881790 0.000000 
#    z 0.000000 0.000000 3.801030 
# 
# 
# High freq. dielectric constant tensor:
#      x y z
#    x 1.814320 0.000000 0.000000 
#    y 0.000000 1.821080 0.000000 
#    z 0.000000 0.000000 1.805020 
# 
# From -- ./inp_files/47806.got.cif
#   From: 2010.03.12/outbox.cif.g09.slc.cpg/sg64_24_cif.got.tgz:47806.got - 2010.04.10 20:19:32.
