data_PCOD8264901
_publ_section_title
;
Structure prediction by ZEFSAII (Michael W. Deem and Ramdas Pophale) SiO2 
 PCOD8264901
Probable space group: C M C A
;
_chemical_formula_sum "Si O2"
_cell_formula_units_Z 56
_cell_length_a 18.373226
_cell_length_b 13.513644
_cell_length_c 8.098927
_cell_angle_alpha 90.000000
_cell_angle_beta 90.000000
_cell_angle_gamma 90.000000
_cell_volume 2010.876392
_symmetry_space_group_name_H-M "C M C A"
_symmetry_group_IT_number 64
_symmetry_cell_setting 'orthorhombic'
loop_
_space_group_symop_operation_xyz
x,y,z
-x,1/2-y,1/2+z
x,-y,-z
-x,1/2+y,1/2-z
-x,-y,-z
x,1/2+y,1/2-z
-x,y,z
x,1/2-y,1/2+z
1/2+x,1/2+y,z
1/2-x,-y,1/2+z
1/2+x,1/2-y,-z
1/2-x,y,1/2-z
1/2-x,1/2-y,-z
1/2+x,y,1/2-z
1/2-x,1/2+y,z
1/2+x,-y,1/2+z
loop_
_atom_site_type_symbol
_atom_site_label
_atom_site_fract_x
_atom_site_fract_y
_atom_site_fract_z
Si Si1 0.000000 0.538188 0.727343
Si Si2 0.653654 0.602964 0.848495
Si Si3 0.250000 0.932302 0.750000
Si Si4 0.500000 0.145650 0.073712
Si Si5 0.156368 0.300413 0.990962
O O1 0.069855 0.573194 0.623730
O O2 0.000000 0.420228 0.759340
O O3 0.000000 0.581405 0.909522
O O4 0.699727 0.502972 0.863887
O O5 0.683472 0.684808 0.982583
O O6 0.665974 0.654676 0.670862
O O7 0.196680 0.869403 0.637762
O O8 0.572842 0.211202 0.071728
#
# Coordination Sequence:
#
# PCOD8264901 Si02
#       5
#     8  16   8   8  16
#     4   9  17  38  69  94 121 162 215 265 316 375
#     4  11  24  42  67  96 127 168 214 266 322 380
#     4  12  24  38  62  92 128 170 212 256 308 378
#     4   9  17  38  69  94 121 162 215 265 316 375
#     4  11  24  42  67  96 127 168 214 266 322 380
#
# _framework density 27.848555000000001
#
# number of rings (size 3 to 8) (size 9 to 14) (size 15 to 20)
#    0.000    1.429    2.857    2.571    0.000    6.857 
#    0.000    0.000    0.000    1.714    0.000    0.000 
#    0.000    0.000    0.000    0.000    0.000    0.000 
#
# Total GULP energy -347250.691127 kJ/mol
# GULP energy per Si atom -12401.810397 kJ/mol
# Density = 2.778517 g / cm^3
# Si number density = 27.848555 Si / 1000 Ang^3
#
#
#
# Elastic Constant Matrix: (Units=GPa)
#
#
# Indices 1 2 3 4 5 6 
#
# 1 117.6627 9.5750 5.9972 0.0000 0.0000 0.0000
# 2 9.5750 119.3272 -13.7517 0.0000 0.0000 0.0000
# 3 5.9972 -13.7517 70.0074 0.0000 0.0000 0.0000
# 4 0.0000 0.0000 0.0000 7.2812 0.0000 0.0000
# 5 0.0000 0.0000 0.0000 0.0000 21.6072 0.0000
# 6 0.0000 0.0000 0.0000 0.0000 0.0000 69.9798
#
#
#
# Elastic Compliance Matrix: (Units=1/GPa)
#
#
# Indices 1 2 3 4 5 6 
#
# 1 0.008609 -0.000794 -0.000893 0.000000 0.000000 0.000000
# 2 -0.000794 0.008648 0.001767 0.000000 0.000000 0.000000
# 3 -0.000893 0.001767 0.014708 0.000000 0.000000 0.000000
# 4 0.000000 0.000000 0.000000 0.137340 0.000000 0.000000
# 5 0.000000 0.000000 0.000000 0.000000 0.046281 0.000000
# 6 0.000000 0.000000 0.000000 0.000000 0.000000 0.014290
#
#
# Mechanical properties :
#
#
# Convention : Reuss Voigt Hill
#
# Bulk Modulus (GPa) = 31.12998 34.51536 32.82267
# Shear Modulus (GPa) = 20.79663 40.11876 30.45770
#
# Velocity S-wave (km/s) = 2.73568 3.79965 3.31069
# Velocity P-wave (km/s) = 4.60230 5.62767 5.14061
#
# Compressibility (1/GPa) = 0.03212338
#
# Stress axis : x y z
#
# Youngs Moduli (GPa) = 116.15751 115.63890 67.99128
#
# Poissons Ratio (x) = 0.09179 0.06074
# Poissons Ratio (y) = 0.09220 -0.12012
# Poissons Ratio (z) = 0.10378 -0.20430
#
# Static dielectric constant tensor:
#      x y z
#    x 5.857380 0.000000 0.000000 
#    y 0.000000 5.324380 0.000000 
#    z 0.000000 0.000000 4.904020 
# 
# 
# High freq. dielectric constant tensor:
#      x y z
#    x 2.150570 0.000000 0.000000 
#    y 0.000000 2.137060 0.000000 
#    z 0.000000 0.000000 2.126390 
# 
# From -- ./inp_files/7650.got.cif
#   From: 2010.03.12/outbox.cif.g09.slc.cpg/sg64_4_cif.got.tgz:7650.got - 2010.04.10 20:19:32.
