data_PCOD8264285
_publ_section_title
;
Structure prediction by ZEFSAII (Michael W. Deem and Ramdas Pophale) SiO2 
 PCOD8264285
Probable space group: C M C A
;
_chemical_formula_sum "Si O2"
_cell_formula_units_Z 96
_cell_length_a 23.003074
_cell_length_b 9.030388
_cell_length_c 24.610790
_cell_angle_alpha 90.000000
_cell_angle_beta 90.000000
_cell_angle_gamma 90.000000
_cell_volume 5112.317783
_symmetry_space_group_name_H-M "C M C A"
_symmetry_group_IT_number 64
_symmetry_cell_setting 'orthorhombic'
loop_
_space_group_symop_operation_xyz
x,y,z
-x,1/2-y,1/2+z
x,-y,-z
-x,1/2+y,1/2-z
-x,-y,-z
x,1/2+y,1/2-z
-x,y,z
x,1/2-y,1/2+z
1/2+x,1/2+y,z
1/2-x,-y,1/2+z
1/2+x,1/2-y,-z
1/2-x,y,1/2-z
1/2-x,1/2-y,-z
1/2+x,y,1/2-z
1/2-x,1/2+y,z
1/2+x,-y,1/2+z
loop_
_atom_site_type_symbol
_atom_site_label
_atom_site_fract_x
_atom_site_fract_y
_atom_site_fract_z
Si Si1 0.936602 0.673636 0.989127
Si Si2 0.141786 0.091559 0.603113
Si Si3 0.760830 0.127358 0.957008
Si Si4 0.932216 0.764950 0.304749
Si Si5 0.124790 0.744874 0.592699
Si Si6 0.065982 0.580916 0.690736
O O1 0.891156 0.693371 0.940987
O O2 0.000000 0.731410 0.971031
O O3 0.938855 0.500000 0.000000
O O4 0.917481 0.770585 0.040862
O O5 0.209492 0.104401 0.587299
O O6 0.118197 0.159402 0.659139
O O7 0.127933 0.918494 0.605369
O O8 0.814574 0.167901 0.919584
O O9 0.750000 0.250000 0.000000
O O10 0.772789 0.000000 0.000000
O O11 0.921582 0.832724 0.245908
O O12 0.918562 0.591161 0.302208
O O13 0.000000 0.795470 0.323456
O O14 0.102906 0.655325 0.643884
O O15 0.000000 0.600364 0.672828
#
# Coordination Sequence:
#
# PCOD8264285 Si02
#       6
#    16  16  16  16  16  16
#     4   9  17  30  51  82 116 149 189 235 289 355
#     4  11  21  37  58  87 118 160 203 243 301 361
#     4  12  23  41  60  86 122 163 206 246 296 359
#     4  10  22  40  63  90 122 158 199 248 305 367
#     4  11  22  36  60  87 120 158 202 250 300 357
#     4  10  22  40  62  90 121 157 198 247 307 363
#
# _framework density 18.778175000000001
#
# number of rings (size 3 to 8) (size 9 to 14) (size 15 to 20)
#    0.000    1.500    3.333    2.500    2.333    3.333 
#    0.000    0.833    0.000    8.000    0.000    0.000 
#    0.000    0.000    0.000    0.000    0.000    0.000 
#
# Total GULP energy -594685.078031 kJ/mol
# GULP energy per Si atom -12389.272459 kJ/mol
# Density = 1.873543 g / cm^3
# Si number density = 18.778175 Si / 1000 Ang^3
#
#
#
# Elastic Constant Matrix: (Units=GPa)
#
#
# Indices 1 2 3 4 5 6 
#
# 1 110.1824 46.9682 70.4516 0.0000 0.0000 0.0000
# 2 46.9682 116.9150 65.3266 0.0000 0.0000 0.0000
# 3 70.4516 65.3266 125.6022 0.0000 0.0000 0.0000
# 4 0.0000 0.0000 0.0000 39.8280 0.0000 0.0000
# 5 0.0000 0.0000 0.0000 0.0000 74.9527 0.0000
# 6 0.0000 0.0000 0.0000 0.0000 0.0000 26.6071
#
#
#
# Elastic Compliance Matrix: (Units=1/GPa)
#
#
# Indices 1 2 3 4 5 6 
#
# 1 0.014413 -0.001794 -0.007151 0.000000 0.000000 0.000000
# 2 -0.001794 0.012281 -0.005381 0.000000 0.000000 0.000000
# 3 -0.007151 -0.005381 0.014771 0.000000 0.000000 0.000000
# 4 0.000000 0.000000 0.000000 0.025108 0.000000 0.000000
# 5 0.000000 0.000000 0.000000 0.000000 0.013342 0.000000
# 6 0.000000 0.000000 0.000000 0.000000 0.000000 0.037584
#
#
# Mechanical properties :
#
#
# Convention : Reuss Voigt Hill
#
# Bulk Modulus (GPa) = 78.04892 79.79917 78.92405
# Shear Modulus (GPa) = 33.23960 39.60775 36.42367
#
# Velocity S-wave (km/s) = 4.21184 4.59763 4.40896
# Velocity P-wave (km/s) = 8.08126 8.41263 8.24860
#
# Compressibility (1/GPa) = 0.01281248
#
# Stress axis : x y z
#
# Youngs Moduli (GPa) = 69.37977 81.42927 67.69821
#
# Poissons Ratio (x) = 0.14612 0.48413
# Poissons Ratio (y) = 0.12450 0.36426
# Poissons Ratio (z) = 0.49616 0.43815
#
# Static dielectric constant tensor:
#      x y z
#    x 5.314050 0.000000 0.000000 
#    y 0.000000 3.468150 0.000000 
#    z 0.000000 0.000000 3.448860 
# 
# 
# High freq. dielectric constant tensor:
#      x y z
#    x 1.728660 0.000000 0.000000 
#    y 0.000000 1.735480 0.000000 
#    z 0.000000 0.000000 1.729320 
# 
# From -- ./inp_files/46612.got.cif
#   From: 2010.03.12/outbox.cif.g09.slc.cpg/sg64_24_cif.got.tgz:46612.got - 2010.04.10 20:19:32.
