data_PCOD8264856
_publ_section_title
;
Structure prediction by ZEFSAII (Michael W. Deem and Ramdas Pophale) SiO2 
 PCOD8264856
Probable space group: C M C A
;
_chemical_formula_sum "Si O2"
_cell_formula_units_Z 80
_cell_length_a 25.078283
_cell_length_b 17.448819
_cell_length_c 8.559349
_cell_angle_alpha 90.000000
_cell_angle_beta 90.000000
_cell_angle_gamma 90.000000
_cell_volume 3745.454894
_symmetry_space_group_name_H-M "C M C A"
_symmetry_group_IT_number 64
_symmetry_cell_setting 'orthorhombic'
loop_
_space_group_symop_operation_xyz
x,y,z
-x,1/2-y,1/2+z
x,-y,-z
-x,1/2+y,1/2-z
-x,-y,-z
x,1/2+y,1/2-z
-x,y,z
x,1/2-y,1/2+z
1/2+x,1/2+y,z
1/2-x,-y,1/2+z
1/2+x,1/2-y,-z
1/2-x,y,1/2-z
1/2-x,1/2-y,-z
1/2+x,y,1/2-z
1/2-x,1/2+y,z
1/2+x,-y,1/2+z
loop_
_atom_site_type_symbol
_atom_site_label
_atom_site_fract_x
_atom_site_fract_y
_atom_site_fract_z
Si Si1 0.562751 0.158406 0.601432
Si Si2 0.693991 0.904688 0.837816
Si Si3 0.299886 0.341579 0.335725
Si Si4 0.858390 0.963206 0.165944
Si Si5 0.880243 0.280674 0.693029
O O1 0.500000 0.153616 0.587234
O O2 0.582592 0.076253 0.672575
O O3 0.577711 0.233076 0.702800
O O4 0.588065 0.166674 0.428889
O O5 0.750000 0.913796 0.750000
O O6 0.659810 0.830481 0.795626
O O7 0.653959 0.975984 0.803382
O O8 0.710761 0.898663 0.019527
O O9 0.250000 0.300163 0.250000
O O10 0.320026 0.390752 0.188116
O O11 0.342250 0.279514 0.396541
O O12 0.845697 0.000000 0.000000
#
# Coordination Sequence:
#
# PCOD8264856 Si02
#       5
#    16  16  16  16  16
#     4  11  24  45  70  95 128 174 227 281 334 381
#     4  12  24  40  66  97 138 176 213 262 330 400
#     4  11  24  40  65  96 135 176 214 265 328 396
#     4  11  23  42  64  95 133 172 221 262 319 395
#     4  11  23  42  68  97 131 168 223 277 327 395
#
# _framework density 21.359221999999999
#
# number of rings (size 3 to 8) (size 9 to 14) (size 15 to 20)
#    0.000    0.800    4.000    3.600    2.800    2.000 
#    0.000    0.000    0.000    2.400    0.000    0.000 
#    0.000    0.000    0.000    0.000    0.000    0.000 
#
# Total GULP energy -495678.319440 kJ/mol
# GULP energy per Si atom -12391.957986 kJ/mol
# Density = 2.131061 g / cm^3
# Si number density = 21.359222 Si / 1000 Ang^3
#
#
#
# Elastic Constant Matrix: (Units=GPa)
#
#
# Indices 1 2 3 4 5 6 
#
# 1 148.8059 54.5097 59.3214 0.0000 0.0000 0.0000
# 2 54.5097 98.0363 28.3498 0.0000 0.0000 0.0000
# 3 59.3214 28.3498 78.4244 0.0000 0.0000 0.0000
# 4 0.0000 0.0000 0.0000 26.4715 0.0000 0.0000
# 5 0.0000 0.0000 0.0000 0.0000 27.2620 0.0000
# 6 0.0000 0.0000 0.0000 0.0000 0.0000 27.8861
#
#
#
# Elastic Compliance Matrix: (Units=1/GPa)
#
#
# Indices 1 2 3 4 5 6 
#
# 1 0.010931 -0.004117 -0.006780 0.000000 0.000000 0.000000
# 2 -0.004117 0.012942 -0.001564 0.000000 0.000000 0.000000
# 3 -0.006780 -0.001564 0.018445 0.000000 0.000000 0.000000
# 4 0.000000 0.000000 0.000000 0.037776 0.000000 0.000000
# 5 0.000000 0.000000 0.000000 0.000000 0.036681 0.000000
# 6 0.000000 0.000000 0.000000 0.000000 0.000000 0.035860
#
#
# Mechanical properties :
#
#
# Convention : Reuss Voigt Hill
#
# Bulk Modulus (GPa) = 57.48685 67.73650 62.61168
# Shear Modulus (GPa) = 27.26912 28.52964 27.89938
#
# Velocity S-wave (km/s) = 3.57696 3.65870 3.61806
# Velocity P-wave (km/s) = 6.63568 7.04485 6.84332
#
# Compressibility (1/GPa) = 0.01739528
#
# Stress axis : x y z
#
# Youngs Moduli (GPa) = 91.48007 77.26871 54.21464
#
# Poissons Ratio (x) = 0.31814 0.36759
# Poissons Ratio (y) = 0.37665 0.08479
# Poissons Ratio (z) = 0.62026 0.12085
#
# Static dielectric constant tensor:
#      x y z
#    x 3.826400 0.000000 0.000000 
#    y 0.000000 4.108810 0.000000 
#    z 0.000000 0.000000 3.785490 
# 
# 
# High freq. dielectric constant tensor:
#      x y z
#    x 1.823690 0.000000 0.000000 
#    y 0.000000 1.849300 0.000000 
#    z 0.000000 0.000000 1.839130 
# 
# From -- ./inp_files/10190.got.cif
#   From: 2010.03.12/outbox.cif.g09.slc.cpg/sg64_6_cif.got.tgz:10190.got - 2010.04.10 20:19:32.
