data_PCOD8264421
_publ_section_title
;
Structure prediction by ZEFSAII (Michael W. Deem and Ramdas Pophale) SiO2 
 PCOD8264421
Probable space group: C M C A
;
_chemical_formula_sum "Si O2"
_cell_formula_units_Z 112
_cell_length_a 23.078453
_cell_length_b 14.339199
_cell_length_c 15.262367
_cell_angle_alpha 90.000000
_cell_angle_beta 90.000000
_cell_angle_gamma 90.000000
_cell_volume 5050.722154
_symmetry_space_group_name_H-M "C M C A"
_symmetry_group_IT_number 64
_symmetry_cell_setting 'orthorhombic'
loop_
_space_group_symop_operation_xyz
x,y,z
-x,1/2-y,1/2+z
x,-y,-z
-x,1/2+y,1/2-z
-x,-y,-z
x,1/2+y,1/2-z
-x,y,z
x,1/2-y,1/2+z
1/2+x,1/2+y,z
1/2-x,-y,1/2+z
1/2+x,1/2-y,-z
1/2-x,y,1/2-z
1/2-x,1/2-y,-z
1/2+x,y,1/2-z
1/2-x,1/2+y,z
1/2+x,-y,1/2+z
loop_
_atom_site_type_symbol
_atom_site_label
_atom_site_fract_x
_atom_site_fract_y
_atom_site_fract_z
Si Si1 0.120098 0.070973 0.422634
Si Si2 0.065834 0.447759 0.414093
Si Si3 0.250362 0.182184 0.848333
Si Si4 0.248096 0.523575 0.402557
Si Si5 0.634544 0.779750 0.444246
Si Si6 0.933837 0.591850 0.258528
Si Si7 0.842649 0.822374 0.869377
O O1 0.188250 0.066243 0.405221
O O2 0.105585 0.177846 0.447366
O O3 0.084170 0.048224 0.334863
O O4 0.100949 0.000000 0.500000
O O5 0.091409 0.500000 0.500000
O O6 0.098813 0.352896 0.385260
O O7 0.073499 0.512741 0.330456
O O8 0.000000 0.420190 0.432799
O O9 0.250000 0.221281 0.750000
O O10 0.200121 0.225917 0.908507
O O11 0.311822 0.221371 0.881856
O O12 0.248951 0.070967 0.847186
O O13 0.225677 0.500000 0.500000
O O14 0.204976 0.595859 0.355734
O O15 0.625984 0.830390 0.537842
O O16 0.889164 0.674150 0.289199
O O17 0.000000 0.629237 0.254772
#
# Coordination Sequence:
#
# PCOD8264421 Si02
#       7
#    16  16  16  16  16  16  16
#     4  11  26  47  70 101 150 190 236 286 368 448
#     4  10  22  44  72 103 135 177 238 302 355 406
#     4  12  26  38  62 102 141 180 228 280 353 434
#     4  11  23  41  65  98 138 183 220 278 356 426
#     4  12  23  44  71 102 139 190 236 292 358 427
#     4  11  26  47  72 102 141 187 244 304 359 420
#     4  12  23  42  69 101 143 182 228 295 357 422
#
# _framework density 22.175046999999999
#
# number of rings (size 3 to 8) (size 9 to 14) (size 15 to 20)
#    0.000    0.714    4.286    3.857    4.000    0.857 
#    2.571    0.000    0.000    0.000    0.000    0.000 
#    0.000    0.000    0.000    0.000    0.000    0.000 
#
# Total GULP energy -694306.571552 kJ/mol
# GULP energy per Si atom -12398.331635 kJ/mol
# Density = 2.212458 g / cm^3
# Si number density = 22.175047 Si / 1000 Ang^3
#
#
#
# Elastic Constant Matrix: (Units=GPa)
#
#
# Indices 1 2 3 4 5 6 
#
# 1 98.0655 31.8183 45.0932 0.0000 0.0000 0.0000
# 2 31.8183 125.9272 29.4927 0.0000 0.0000 0.0000
# 3 45.0932 29.4927 129.3009 0.0000 0.0000 0.0000
# 4 0.0000 0.0000 0.0000 21.7978 0.0000 0.0000
# 5 0.0000 0.0000 0.0000 0.0000 28.8408 0.0000
# 6 0.0000 0.0000 0.0000 0.0000 0.0000 28.8201
#
#
#
# Elastic Compliance Matrix: (Units=1/GPa)
#
#
# Indices 1 2 3 4 5 6 
#
# 1 0.012747 -0.002303 -0.003920 0.000000 0.000000 0.000000
# 2 -0.002303 0.008805 -0.001205 0.000000 0.000000 0.000000
# 3 -0.003920 -0.001205 0.009376 0.000000 0.000000 0.000000
# 4 0.000000 0.000000 0.000000 0.045876 0.000000 0.000000
# 5 0.000000 0.000000 0.000000 0.000000 0.034673 0.000000
# 6 0.000000 0.000000 0.000000 0.000000 0.000000 0.034698
#
#
# Mechanical properties :
#
#
# Convention : Reuss Voigt Hill
#
# Bulk Modulus (GPa) = 62.22130 62.90023 62.56076
# Shear Modulus (GPa) = 30.05002 32.35105 31.20054
#
# Velocity S-wave (km/s) = 3.68520 3.82369 3.75508
# Velocity P-wave (km/s) = 6.79909 6.92250 6.86108
#
# Compressibility (1/GPa) = 0.01607167
#
# Stress axis : x y z
#
# Youngs Moduli (GPa) = 78.44971 113.56900 106.65522
#
# Poissons Ratio (x) = 0.26151 0.41811
# Poissons Ratio (y) = 0.18064 0.12856
# Poissons Ratio (z) = 0.30754 0.13689
#
# Static dielectric constant tensor:
#      x y z
#    x 4.033420 0.000000 0.000000 
#    y 0.000000 3.944850 0.000000 
#    z 0.000000 0.000000 4.220930 
# 
# 
# High freq. dielectric constant tensor:
#      x y z
#    x 1.861370 0.000000 0.000000 
#    y 0.000000 1.873700 0.000000 
#    z 0.000000 0.000000 1.875640 
# 
# From -- ./inp_files/27431.got.cif
#   From: 2010.03.12/outbox.cif.g09.slc.cpg/sg64_14_cif.got.tgz:27431.got - 2010.04.10 20:19:32.
