data_PCOD8264334
_publ_section_title
;
Structure prediction by ZEFSAII (Michael W. Deem and Ramdas Pophale) SiO2 
 PCOD8264334
Probable space group: C M C A
;
_chemical_formula_sum "Si O2"
_cell_formula_units_Z 64
_cell_length_a 18.050277
_cell_length_b 9.612779
_cell_length_c 18.199573
_cell_angle_alpha 90.000000
_cell_angle_beta 90.000000
_cell_angle_gamma 90.000000
_cell_volume 3157.868401
_symmetry_space_group_name_H-M "C M C A"
_symmetry_group_IT_number 64
_symmetry_cell_setting 'orthorhombic'
loop_
_space_group_symop_operation_xyz
x,y,z
-x,1/2-y,1/2+z
x,-y,-z
-x,1/2+y,1/2-z
-x,-y,-z
x,1/2+y,1/2-z
-x,y,z
x,1/2-y,1/2+z
1/2+x,1/2+y,z
1/2-x,-y,1/2+z
1/2+x,1/2-y,-z
1/2-x,y,1/2-z
1/2-x,1/2-y,-z
1/2+x,y,1/2-z
1/2-x,1/2+y,z
1/2+x,-y,1/2+z
loop_
_atom_site_type_symbol
_atom_site_label
_atom_site_fract_x
_atom_site_fract_y
_atom_site_fract_z
Si Si1 0.808579 0.852155 0.038223
Si Si2 0.586325 0.879456 0.779781
Si Si3 0.176748 0.889504 0.205028
Si Si4 0.585120 0.885036 0.947022
O O1 0.791727 0.884971 0.122743
O O2 0.885428 0.768591 0.035514
O O3 0.750000 0.750000 0.000000
O O4 0.816101 0.000000 0.000000
O O5 0.500000 0.887077 0.756546
O O6 0.613024 0.721078 0.776181
O O7 0.598374 0.933630 0.863122
O O8 0.638194 0.963961 0.723801
O O9 0.250000 0.860001 0.250000
O O10 0.500000 0.874820 0.967064
O O11 0.623919 0.000000 0.000000
#
# Coordination Sequence:
#
# PCOD8264334 Si02
#       4
#    16  16  16  16
#     4  11  26  41  64  90 129 169 215 266 322 380
#     4  10  22  41  64  93 127 167 210 263 321 383
#     4  11  25  40  66  94 128 165 215 265 320 387
#     4   9  20  40  65  93 127 166 210 258 319 387
#
# _framework density 20.266836000000001
#
# number of rings (size 3 to 8) (size 9 to 14) (size 15 to 20)
#    0.000    1.750    0.000    2.250   14.000    1.500 
#    0.000    2.500    0.000    0.000    0.000    0.000 
#    0.000    0.000    0.000    0.000    0.000    0.000 
#
# Total GULP energy -396717.900100 kJ/mol
# GULP energy per Si atom -12397.434378 kJ/mol
# Density = 2.022071 g / cm^3
# Si number density = 20.266836 Si / 1000 Ang^3
#
#
#
# Elastic Constant Matrix: (Units=GPa)
#
#
# Indices 1 2 3 4 5 6 
#
# 1 82.8739 24.4576 57.2228 0.0000 0.0000 0.0000
# 2 24.4576 111.5060 68.1581 0.0000 0.0000 0.0000
# 3 57.2228 68.1581 125.3851 0.0000 0.0000 0.0000
# 4 0.0000 0.0000 0.0000 34.8616 0.0000 0.0000
# 5 0.0000 0.0000 0.0000 0.0000 28.5582 0.0000
# 6 0.0000 0.0000 0.0000 0.0000 0.0000 20.5935
#
#
#
# Elastic Compliance Matrix: (Units=1/GPa)
#
#
# Indices 1 2 3 4 5 6 
#
# 1 0.017805 0.001590 -0.008990 0.000000 0.000000 0.000000
# 2 0.001590 0.013573 -0.008104 0.000000 0.000000 0.000000
# 3 -0.008990 -0.008104 0.016483 0.000000 0.000000 0.000000
# 4 0.000000 0.000000 0.000000 0.028685 0.000000 0.000000
# 5 0.000000 0.000000 0.000000 0.000000 0.035016 0.000000
# 6 0.000000 0.000000 0.000000 0.000000 0.000000 0.048559
#
#
# Mechanical properties :
#
#
# Convention : Reuss Voigt Hill
#
# Bulk Modulus (GPa) = 59.33522 68.82688 64.08105
# Shear Modulus (GPa) = 25.41355 28.13111 26.77233
#
# Velocity S-wave (km/s) = 3.54495 3.72968 3.63849
# Velocity P-wave (km/s) = 6.78942 7.25130 7.02416
#
# Compressibility (1/GPa) = 0.01685340
#
# Stress axis : x y z
#
# Youngs Moduli (GPa) = 56.16523 73.67719 60.66797
#
# Poissons Ratio (x) = -0.11713 0.54539
# Poissons Ratio (y) = -0.08929 0.49163
# Poissons Ratio (z) = 0.50491 0.59705
#
# Static dielectric constant tensor:
#      x y z
#    x 3.775510 0.000000 0.000000 
#    y 0.000000 3.860410 0.000000 
#    z 0.000000 0.000000 5.286610 
# 
# 
# High freq. dielectric constant tensor:
#      x y z
#    x 1.799460 0.000000 0.000000 
#    y 0.000000 1.796660 0.000000 
#    z 0.000000 0.000000 1.796570 
# 
# From -- ./inp_files/33883.got.cif
#   From: 2010.03.12/outbox.cif.g09.slc.cpg/sg64_17_cif.got.tgz:33883.got - 2010.04.10 20:19:32.
