data_PCOD8264863
_publ_section_title
;
Structure prediction by ZEFSAII (Michael W. Deem and Ramdas Pophale) SiO2 
 PCOD8264863
Probable space group: C M C A
;
_chemical_formula_sum "Si O2"
_cell_formula_units_Z 80
_cell_length_a 15.626026
_cell_length_b 9.246090
_cell_length_c 25.889777
_cell_angle_alpha 90.000000
_cell_angle_beta 90.000000
_cell_angle_gamma 90.000000
_cell_volume 3740.545732
_symmetry_space_group_name_H-M "C M C A"
_symmetry_group_IT_number 64
_symmetry_cell_setting 'orthorhombic'
loop_
_space_group_symop_operation_xyz
x,y,z
-x,1/2-y,1/2+z
x,-y,-z
-x,1/2+y,1/2-z
-x,-y,-z
x,1/2+y,1/2-z
-x,y,z
x,1/2-y,1/2+z
1/2+x,1/2+y,z
1/2-x,-y,1/2+z
1/2+x,1/2-y,-z
1/2-x,y,1/2-z
1/2-x,1/2-y,-z
1/2+x,y,1/2-z
1/2-x,1/2+y,z
1/2+x,-y,1/2+z
loop_
_atom_site_type_symbol
_atom_site_label
_atom_site_fract_x
_atom_site_fract_y
_atom_site_fract_z
Si Si1 0.403819 0.034491 0.277276
Si Si2 0.662807 0.267866 0.861307
Si Si3 0.096754 0.534556 0.100718
Si Si4 0.243640 0.882775 0.963059
Si Si5 0.657902 0.275788 0.690040
O O1 0.500000 0.046506 0.255782
O O2 0.398206 0.123330 0.330584
O O3 0.340769 0.100916 0.234163
O O4 0.383841 0.867316 0.286667
O O5 0.616257 0.116751 0.870968
O O6 0.684778 0.349790 0.914251
O O7 0.746703 0.236654 0.827399
O O8 0.162755 0.559658 0.054045
O O9 0.104855 0.665912 0.141191
O O10 0.000000 0.532292 0.078921
O O11 0.250000 0.750000 0.000000
O O12 0.198397 0.000000 0.000000
#
# Coordination Sequence:
#
# PCOD8264863 Si02
#       5
#    16  16  16  16  16
#     4  12  24  40  62  93 130 165 207 262 315 369
#     4  11  24  42  67  92 125 167 217 260 316 389
#     4  11  23  42  68  98 128 166 216 272 327 380
#     4  11  23  44  67  93 127 170 214 266 322 390
#     4  11  24  42  63  91 130 173 210 255 316 388
#
# _framework density 21.387253000000001
#
# number of rings (size 3 to 8) (size 9 to 14) (size 15 to 20)
#    0.000    0.800    2.000    6.600    2.800    2.000 
#    0.000    0.000    0.000    3.000    0.000    0.000 
#    0.000    0.000    0.000    0.000    0.000    0.000 
#
# Total GULP energy -496100.239815 kJ/mol
# GULP energy per Si atom -12402.505995 kJ/mol
# Density = 2.133857 g / cm^3
# Si number density = 21.387253 Si / 1000 Ang^3
#
#
#
# Elastic Constant Matrix: (Units=GPa)
#
#
# Indices 1 2 3 4 5 6 
#
# 1 71.9812 9.5959 1.1020 0.0000 0.0000 0.0000
# 2 9.5959 119.5755 26.3071 0.0000 0.0000 0.0000
# 3 1.1020 26.3071 93.5018 0.0000 0.0000 0.0000
# 4 0.0000 0.0000 0.0000 50.5870 0.0000 0.0000
# 5 0.0000 0.0000 0.0000 0.0000 22.6784 0.0000
# 6 0.0000 0.0000 0.0000 0.0000 0.0000 16.3669
#
#
#
# Elastic Compliance Matrix: (Units=1/GPa)
#
#
# Indices 1 2 3 4 5 6 
#
# 1 0.014045 -0.001163 0.000162 0.000000 0.000000 0.000000
# 2 -0.001163 0.009011 -0.002522 0.000000 0.000000 0.000000
# 3 0.000162 -0.002522 0.011403 0.000000 0.000000 0.000000
# 4 0.000000 0.000000 0.000000 0.019768 0.000000 0.000000
# 5 0.000000 0.000000 0.000000 0.000000 0.044095 0.000000
# 6 0.000000 0.000000 0.000000 0.000000 0.000000 0.061099
#
#
# Mechanical properties :
#
#
# Convention : Reuss Voigt Hill
#
# Bulk Modulus (GPa) = 36.47870 39.89650 38.18760
# Shear Modulus (GPa) = 28.47329 34.46335 31.46832
#
# Velocity S-wave (km/s) = 3.65268 4.01858 3.83999
# Velocity P-wave (km/s) = 5.90617 6.34246 6.12820
#
# Compressibility (1/GPa) = 0.02741325
#
# Stress axis : x y z
#
# Youngs Moduli (GPa) = 71.19952 110.97572 87.69979
#
# Poissons Ratio (x) = 0.12903 -0.01417
# Poissons Ratio (y) = 0.08278 0.22114
# Poissons Ratio (z) = -0.01150 0.27983
#
# Static dielectric constant tensor:
#      x y z
#    x 3.745500 0.000000 0.000000 
#    y 0.000000 3.952450 0.000000 
#    z 0.000000 0.000000 3.886220 
# 
# 
# High freq. dielectric constant tensor:
#      x y z
#    x 1.825890 0.000000 0.000000 
#    y 0.000000 1.857140 0.000000 
#    z 0.000000 0.000000 1.849890 
# 
# From -- ./inp_files/50287.got.cif
#   From: 2010.03.12/outbox.cif.g09.slc.cpg/sg64_26_cif.got.tgz:50287.got - 2010.04.10 20:19:32.
