data_PCOD8264577
_publ_section_title
;
Structure prediction by ZEFSAII (Michael W. Deem and Ramdas Pophale) SiO2 
 PCOD8264577
Probable space group: C M C A
;
_chemical_formula_sum "Si O2"
_cell_formula_units_Z 72
_cell_length_a 26.357261
_cell_length_b 8.455798
_cell_length_c 14.624835
_cell_angle_alpha 90.000000
_cell_angle_beta 90.000000
_cell_angle_gamma 90.000000
_cell_volume 3259.461471
_symmetry_space_group_name_H-M "C M C A"
_symmetry_group_IT_number 64
_symmetry_cell_setting 'orthorhombic'
loop_
_space_group_symop_operation_xyz
x,y,z
-x,1/2-y,1/2+z
x,-y,-z
-x,1/2+y,1/2-z
-x,-y,-z
x,1/2+y,1/2-z
-x,y,z
x,1/2-y,1/2+z
1/2+x,1/2+y,z
1/2-x,-y,1/2+z
1/2+x,1/2-y,-z
1/2-x,y,1/2-z
1/2-x,1/2-y,-z
1/2+x,y,1/2-z
1/2-x,1/2+y,z
1/2+x,-y,1/2+z
loop_
_atom_site_type_symbol
_atom_site_label
_atom_site_fract_x
_atom_site_fract_y
_atom_site_fract_z
Si Si1 0.676413 0.144155 0.306852
Si Si2 0.250000 0.105173 0.750000
Si Si3 0.103207 0.889627 0.634686
Si Si4 0.898864 0.766960 0.440376
Si Si5 0.500000 0.722083 0.809741
Si Si6 0.000000 0.638360 0.380646
O O1 0.712961 0.294999 0.314150
O O2 0.713674 0.995955 0.315698
O O3 0.644371 0.144974 0.212636
O O4 0.639726 0.144298 0.393592
O O5 0.121969 0.811426 0.540081
O O6 0.049415 0.812947 0.656195
O O7 0.096115 0.077549 0.623319
O O8 0.952029 0.673148 0.445671
O O9 0.500000 0.539363 0.840850
O O10 0.500000 0.732567 0.700182
#
# Coordination Sequence:
#
# PCOD8264577 Si02
#       6
#    16   8  16  16   8   8
#     4  11  22  45  66  96 126 173 212 273 330 384
#     4  10  24  42  70  92 128 164 220 278 330 376
#     4  11  24  43  68  99 135 173 214 266 325 390
#     4  11  24  43  68  99 135 173 214 266 325 390
#     4  12  25  40  65 100 136 176 215 259 318 389
#     4  12  25  40  65 100 136 176 215 259 318 389
#
# _framework density 22.089538000000001
#
# number of rings (size 3 to 8) (size 9 to 14) (size 15 to 20)
#    0.000    0.889    4.444    2.667    3.111    3.556 
#    0.000    6.667    0.000    0.000    0.000    0.000 
#    0.000    0.000    0.000    0.000    0.000    0.000 
#
# Total GULP energy -446399.288970 kJ/mol
# GULP energy per Si atom -12399.980249 kJ/mol
# Density = 2.203926 g / cm^3
# Si number density = 22.089538 Si / 1000 Ang^3
#
#
#
# Elastic Constant Matrix: (Units=GPa)
#
#
# Indices 1 2 3 4 5 6 
#
# 1 146.5387 34.2804 28.6364 0.0000 0.0000 0.0000
# 2 34.2804 77.4669 -2.5243 0.0000 0.0000 0.0000
# 3 28.6364 -2.5243 78.2753 0.0000 0.0000 0.0000
# 4 0.0000 0.0000 0.0000 28.5382 0.0000 0.0000
# 5 0.0000 0.0000 0.0000 0.0000 3.6849 0.0000
# 6 0.0000 0.0000 0.0000 0.0000 0.0000 102.2605
#
#
#
# Elastic Compliance Matrix: (Units=1/GPa)
#
#
# Indices 1 2 3 4 5 6 
#
# 1 0.008330 -0.003789 -0.003170 0.000000 0.000000 0.000000
# 2 -0.003789 0.014646 0.001859 0.000000 0.000000 0.000000
# 3 -0.003170 0.001859 0.013995 0.000000 0.000000 0.000000
# 4 0.000000 0.000000 0.000000 0.035041 0.000000 0.000000
# 5 0.000000 0.000000 0.000000 0.000000 0.271380 0.000000
# 6 0.000000 0.000000 0.000000 0.000000 0.000000 0.009779
#
#
# Mechanical properties :
#
#
# Convention : Reuss Voigt Hill
#
# Bulk Modulus (GPa) = 37.35492 47.00733 42.18113
# Shear Modulus (GPa) = 13.43018 43.02260 28.22639
#
# Velocity S-wave (km/s) = 2.46842 4.41800 3.57853
# Velocity P-wave (km/s) = 5.00715 6.88125 6.01760
#
# Compressibility (1/GPa) = 0.02677023
#
# Stress axis : x y z
#
# Youngs Moduli (GPa) = 120.04750 68.27711 71.45427
#
# Poissons Ratio (x) = 0.25873 0.22649
# Poissons Ratio (y) = 0.45492 -0.13281
# Poissons Ratio (z) = 0.38051 -0.12690
#
# Static dielectric constant tensor:
#      x y z
#    x 4.170130 0.000000 0.000000 
#    y 0.000000 4.251340 0.000000 
#    z 0.000000 0.000000 3.832470 
# 
# 
# High freq. dielectric constant tensor:
#      x y z
#    x 1.880740 0.000000 0.000000 
#    y 0.000000 1.884210 0.000000 
#    z 0.000000 0.000000 1.850820 
# 
# From -- ./inp_files/10049.got.cif
#   From: 2010.03.12/outbox.cif.g09.slc.cpg/sg64_6_cif.got.tgz:10049.got - 2010.04.10 20:19:32.
