data_PCOD8264375
_publ_section_title
;
Structure prediction by ZEFSAII (Michael W. Deem and Ramdas Pophale) SiO2 
 PCOD8264375
Probable space group: C M C A
;
_chemical_formula_sum "Si O2"
_cell_formula_units_Z 104
_cell_length_a 24.747051
_cell_length_b 9.221384
_cell_length_c 21.557158
_cell_angle_alpha 90.000000
_cell_angle_beta 90.000000
_cell_angle_gamma 90.000000
_cell_volume 4919.387866
_symmetry_space_group_name_H-M "C M C A"
_symmetry_group_IT_number 64
_symmetry_cell_setting 'orthorhombic'
loop_
_space_group_symop_operation_xyz
x,y,z
-x,1/2-y,1/2+z
x,-y,-z
-x,1/2+y,1/2-z
-x,-y,-z
x,1/2+y,1/2-z
-x,y,z
x,1/2-y,1/2+z
1/2+x,1/2+y,z
1/2-x,-y,1/2+z
1/2+x,1/2-y,-z
1/2-x,y,1/2-z
1/2-x,1/2-y,-z
1/2+x,y,1/2-z
1/2-x,1/2+y,z
1/2+x,-y,1/2+z
loop_
_atom_site_type_symbol
_atom_site_label
_atom_site_fract_x
_atom_site_fract_y
_atom_site_fract_z
Si Si1 0.288190 0.342355 0.455837
Si Si2 0.437991 0.963118 0.429721
Si Si3 0.884466 0.500000 0.000000
Si Si4 0.647396 0.821857 0.795909
Si Si5 0.250207 0.098244 0.378281
Si Si6 0.939467 0.135113 0.390385
Si Si7 0.854964 0.497270 0.674458
O O1 0.250000 0.250000 0.500000
O O2 0.348017 0.356234 0.485002
O O3 0.283915 0.245676 0.393454
O O4 0.272462 0.511389 0.439317
O O5 0.500000 0.014119 0.418308
O O6 0.431705 0.792597 0.420092
O O7 0.419802 0.000000 0.500000
O O8 0.398167 0.040210 0.380041
O O9 0.923786 0.521034 0.057432
O O10 0.703469 0.865199 0.829151
O O11 0.598887 0.897516 0.832616
O O12 0.634504 0.651702 0.794234
O O13 0.644050 0.871613 0.725356
O O14 0.294086 0.988951 0.350629
O O15 0.000000 0.107667 0.367460
#
# Coordination Sequence:
#
# PCOD8264375 Si02
#       7
#    16  16   8  16  16  16  16
#     4  12  23  39  61  95 137 178 212 264 324 395
#     4   9  21  44  68  95 128 164 216 274 333 396
#     4  12  23  38  64  96 136 164 229 260 328 398
#     4  11  24  45  61  95 130 171 222 273 323 396
#     4  12  24  41  63  94 134 175 220 265 325 393
#     4  10  22  42  66  91 128 171 212 277 335 381
#     4  11  26  40  69  94 129 175 219 266 331 390
#
# _framework density 21.140841000000002
#
# number of rings (size 3 to 8) (size 9 to 14) (size 15 to 20)
#    0.000    1.077    4.615    0.692    6.462    1.846 
#    0.000    0.000    0.000    0.000    0.000    0.000 
#    0.000    0.000    0.000    0.000    0.000    0.000 
#
# Total GULP energy -644654.880487 kJ/mol
# GULP energy per Si atom -12397.209240 kJ/mol
# Density = 2.109272 g / cm^3
# Si number density = 21.140841 Si / 1000 Ang^3
#
#
#
# Elastic Constant Matrix: (Units=GPa)
#
#
# Indices 1 2 3 4 5 6 
#
# 1 125.3769 12.8124 56.6622 0.0000 0.0000 0.0000
# 2 12.8124 54.2398 17.6095 0.0000 0.0000 0.0000
# 3 56.6622 17.6095 109.3128 0.0000 0.0000 0.0000
# 4 0.0000 0.0000 0.0000 39.7914 0.0000 0.0000
# 5 0.0000 0.0000 0.0000 0.0000 20.5838 0.0000
# 6 0.0000 0.0000 0.0000 0.0000 0.0000 28.1329
#
#
#
# Elastic Compliance Matrix: (Units=1/GPa)
#
#
# Indices 1 2 3 4 5 6 
#
# 1 0.010445 -0.000749 -0.005293 0.000000 0.000000 0.000000
# 2 -0.000749 0.019508 -0.002754 0.000000 0.000000 0.000000
# 3 -0.005293 -0.002754 0.012336 0.000000 0.000000 0.000000
# 4 0.000000 0.000000 0.000000 0.025131 0.000000 0.000000
# 5 0.000000 0.000000 0.000000 0.000000 0.048582 0.000000
# 6 0.000000 0.000000 0.000000 0.000000 0.000000 0.035546
#
#
# Mechanical properties :
#
#
# Convention : Reuss Voigt Hill
#
# Bulk Modulus (GPa) = 40.49405 51.45530 45.97467
# Shear Modulus (GPa) = 28.18943 31.15799 29.67371
#
# Velocity S-wave (km/s) = 3.65555 3.84321 3.75056
# Velocity P-wave (km/s) = 6.08386 6.63972 6.36786
#
# Compressibility (1/GPa) = 0.02469498
#
# Stress axis : x y z
#
# Youngs Moduli (GPa) = 95.74205 51.26165 81.06603
#
# Poissons Ratio (x) = 0.03838 0.42912
# Poissons Ratio (y) = 0.07168 0.22330
# Poissons Ratio (z) = 0.50680 0.14120
#
# Static dielectric constant tensor:
#      x y z
#    x 3.890520 0.000000 0.000000 
#    y 0.000000 3.971100 0.000000 
#    z 0.000000 0.000000 3.931120 
# 
# 
# High freq. dielectric constant tensor:
#      x y z
#    x 1.829680 0.000000 0.000000 
#    y 0.000000 1.823680 0.000000 
#    z 0.000000 0.000000 1.831880 
# 
# From -- ./inp_files/41881.got.cif
#   From: 2010.03.12/outbox.cif.g09.slc.cpg/sg64_21_cif.got.tgz:41881.got - 2010.04.10 20:19:32.
