data_PCOD8264782
_publ_section_title
;
Structure prediction by ZEFSAII (Michael W. Deem and Ramdas Pophale) SiO2 
 PCOD8264782
Probable space group: C M C A
;
_chemical_formula_sum "Si O2"
_cell_formula_units_Z 64
_cell_length_a 15.796131
_cell_length_b 9.126811
_cell_length_c 19.827896
_cell_angle_alpha 90.000000
_cell_angle_beta 90.000000
_cell_angle_gamma 90.000000
_cell_volume 2858.554102
_symmetry_space_group_name_H-M "C M C A"
_symmetry_group_IT_number 64
_symmetry_cell_setting 'orthorhombic'
loop_
_space_group_symop_operation_xyz
x,y,z
-x,1/2-y,1/2+z
x,-y,-z
-x,1/2+y,1/2-z
-x,-y,-z
x,1/2+y,1/2-z
-x,y,z
x,1/2-y,1/2+z
1/2+x,1/2+y,z
1/2-x,-y,1/2+z
1/2+x,1/2-y,-z
1/2-x,y,1/2-z
1/2-x,1/2-y,-z
1/2+x,y,1/2-z
1/2-x,1/2+y,z
1/2+x,-y,1/2+z
loop_
_atom_site_type_symbol
_atom_site_label
_atom_site_fract_x
_atom_site_fract_y
_atom_site_fract_z
Si Si1 0.595097 0.382342 0.179339
Si Si2 0.400036 0.317942 0.563213
Si Si3 0.100542 0.855329 0.412550
Si Si4 0.337977 0.689785 0.213516
O O1 0.500000 0.438945 0.165430
O O2 0.635405 0.311242 0.111237
O O3 0.591017 0.258456 0.237475
O O4 0.651620 0.516738 0.204251
O O5 0.500000 0.322918 0.570465
O O6 0.368162 0.476298 0.589186
O O7 0.375569 0.288007 0.485731
O O8 0.155880 0.766300 0.359148
O O9 0.000000 0.840011 0.398516
O O10 0.250000 0.724573 0.250000
#
# Coordination Sequence:
#
# PCOD8264782 Si02
#       4
#    16  16  16  16
#     4  11  22  39  62  89 118 160 210 254 298 360
#     4   8  17  34  63  97 124 151 201 261 311 362
#     4   9  17  36  64  95 126 160 200 254 314 371
#     4  12  25  39  57  87 127 165 202 251 305 359
#
# _framework density 22.388940999999999
#
# number of rings (size 3 to 8) (size 9 to 14) (size 15 to 20)
#    0.000    2.000    0.000    6.000    0.000    3.000 
#    0.000    6.250    0.000    3.000    0.000    0.000 
#    0.000    0.000    0.000    0.000    0.000    0.000 
#
# Total GULP energy -396756.496292 kJ/mol
# GULP energy per Si atom -12398.640509 kJ/mol
# Density = 2.233798 g / cm^3
# Si number density = 22.388941 Si / 1000 Ang^3
#
#
#
# Elastic Constant Matrix: (Units=GPa)
#
#
# Indices 1 2 3 4 5 6 
#
# 1 48.7054 39.2846 37.7502 0.0000 0.0000 0.0000
# 2 39.2846 126.1491 92.5410 0.0000 0.0000 0.0000
# 3 37.7502 92.5410 182.8565 0.0000 0.0000 0.0000
# 4 0.0000 0.0000 0.0000 52.6869 0.0000 0.0000
# 5 0.0000 0.0000 0.0000 0.0000 32.6920 0.0000
# 6 0.0000 0.0000 0.0000 0.0000 0.0000 24.0526
#
#
#
# Elastic Compliance Matrix: (Units=1/GPa)
#
#
# Indices 1 2 3 4 5 6 
#
# 1 0.027950 -0.007111 -0.002171 0.000000 0.000000 0.000000
# 2 -0.007111 0.014417 -0.005828 0.000000 0.000000 0.000000
# 3 -0.002171 -0.005828 0.008867 0.000000 0.000000 0.000000
# 4 0.000000 0.000000 0.000000 0.018980 0.000000 0.000000
# 5 0.000000 0.000000 0.000000 0.000000 0.030588 0.000000
# 6 0.000000 0.000000 0.000000 0.000000 0.000000 0.041576
#
#
# Mechanical properties :
#
#
# Convention : Reuss Voigt Hill
#
# Bulk Modulus (GPa) = 47.59084 77.42917 62.51001
# Shear Modulus (GPa) = 27.83902 34.42866 31.13384
#
# Velocity S-wave (km/s) = 3.53005 3.92567 3.73311
# Velocity P-wave (km/s) = 6.15772 7.43012 6.82364
#
# Compressibility (1/GPa) = 0.02101245
#
# Stress axis : x y z
#
# Youngs Moduli (GPa) = 35.77774 69.36179 112.78270
#
# Poissons Ratio (x) = 0.49325 0.24489
# Poissons Ratio (y) = 0.25443 0.65732
# Poissons Ratio (z) = 0.07769 0.40426
#
# Static dielectric constant tensor:
#      x y z
#    x 3.492900 0.000000 0.000000 
#    y 0.000000 4.032210 0.000000 
#    z 0.000000 0.000000 4.528720 
# 
# 
# High freq. dielectric constant tensor:
#      x y z
#    x 1.848020 0.000000 0.000000 
#    y 0.000000 1.879780 0.000000 
#    z 0.000000 0.000000 1.898620 
# 
# From -- ./inp_files/39800.got.cif
#   From: 2010.03.12/outbox.cif.g09.slc.cpg/sg64_20_cif.got.tgz:39800.got - 2010.04.10 20:19:32.
