data_PCOD8264292
_publ_section_title
;
Structure prediction by ZEFSAII (Michael W. Deem and Ramdas Pophale) SiO2 
 PCOD8264292
Probable space group: C M C A
;
_chemical_formula_sum "Si O2"
_cell_formula_units_Z 88
_cell_length_a 24.013282
_cell_length_b 16.321705
_cell_length_c 10.361738
_cell_angle_alpha 90.000000
_cell_angle_beta 90.000000
_cell_angle_gamma 90.000000
_cell_volume 4061.155810
_symmetry_space_group_name_H-M "C M C A"
_symmetry_group_IT_number 64
_symmetry_cell_setting 'orthorhombic'
loop_
_space_group_symop_operation_xyz
x,y,z
-x,1/2-y,1/2+z
x,-y,-z
-x,1/2+y,1/2-z
-x,-y,-z
x,1/2+y,1/2-z
-x,y,z
x,1/2-y,1/2+z
1/2+x,1/2+y,z
1/2-x,-y,1/2+z
1/2+x,1/2-y,-z
1/2-x,y,1/2-z
1/2-x,1/2-y,-z
1/2+x,y,1/2-z
1/2-x,1/2+y,z
1/2+x,-y,1/2+z
loop_
_atom_site_type_symbol
_atom_site_label
_atom_site_fract_x
_atom_site_fract_y
_atom_site_fract_z
Si Si1 0.500000 0.698419 0.323539
Si Si2 0.808478 0.773262 0.061287
Si Si3 0.113499 0.621082 0.088379
Si Si4 0.000000 0.839598 0.969294
Si Si5 0.859590 0.449096 0.179764
Si Si6 0.385998 0.089101 0.537567
Si Si7 0.750000 0.384186 0.250000
O O1 0.446539 0.647664 0.364705
O O2 0.500000 0.710549 0.167026
O O3 0.500000 0.782524 0.403841
O O4 0.842083 0.693633 0.103241
O O5 0.847400 0.836710 0.979420
O O6 0.794827 0.826153 0.185087
O O7 0.750000 0.750000 0.000000
O O8 0.131495 0.546533 0.179788
O O9 0.109860 0.594181 0.939526
O O10 0.946714 0.898699 0.976823
O O11 0.887058 0.409050 0.306589
O O12 0.791922 0.439123 0.164205
O O13 0.361429 0.000000 0.500000
#
# Coordination Sequence:
#
# PCOD8264292 Si02
#       7
#     8  16  16   8  16  16   8
#     4  12  28  45  76 110 142 189 248 300 369 428
#     4  11  23  40  68  97 136 185 233 296 356 433
#     4  11  24  45  70 103 144 186 248 293 375 432
#     4  12  27  46  76 107 148 189 242 304 359 441
#     4  10  24  43  69 102 143 190 237 304 357 437
#     4  11  25  44  69 103 142 184 241 291 363 428
#     4  10  22  40  64 102 140 180 244 290 358 430
#
# _framework density 21.668707999999999
#
# number of rings (size 3 to 8) (size 9 to 14) (size 15 to 20)
#    0.000    1.091    3.636    1.364    2.545    8.727 
#    0.000    0.000    0.000    0.000    0.000    0.000 
#    0.000    0.000    0.000    0.000    0.000    0.000 
#
# Total GULP energy -545296.569790 kJ/mol
# GULP energy per Si atom -12393.103859 kJ/mol
# Density = 2.161939 g / cm^3
# Si number density = 21.668708 Si / 1000 Ang^3
#
#
#
# Elastic Constant Matrix: (Units=GPa)
#
#
# Indices 1 2 3 4 5 6 
#
# 1 163.9779 65.8701 28.7978 0.0000 0.0000 0.0000
# 2 65.8701 125.7084 8.5389 0.0000 0.0000 0.0000
# 3 28.7978 8.5389 81.8655 0.0000 0.0000 0.0000
# 4 0.0000 0.0000 0.0000 24.9100 0.0000 0.0000
# 5 0.0000 0.0000 0.0000 0.0000 29.0838 0.0000
# 6 0.0000 0.0000 0.0000 0.0000 0.0000 155.6167
#
#
#
# Elastic Compliance Matrix: (Units=1/GPa)
#
#
# Indices 1 2 3 4 5 6 
#
# 1 0.008184 -0.004122 -0.002449 0.000000 0.000000 0.000000
# 2 -0.004122 0.010088 0.000398 0.000000 0.000000 0.000000
# 3 -0.002449 0.000398 0.013035 0.000000 0.000000 0.000000
# 4 0.000000 0.000000 0.000000 0.040145 0.000000 0.000000
# 5 0.000000 0.000000 0.000000 0.000000 0.034383 0.000000
# 6 0.000000 0.000000 0.000000 0.000000 0.000000 0.006426
#
#
# Mechanical properties :
#
#
# Convention : Reuss Voigt Hill
#
# Bulk Modulus (GPa) = 52.74083 64.21837 58.47960
# Shear Modulus (GPa) = 38.18880 59.81175 49.00027
#
# Velocity S-wave (km/s) = 4.20264 5.25954 4.76051
# Velocity P-wave (km/s) = 6.92402 8.15993 7.56725
#
# Compressibility (1/GPa) = 0.01896064
#
# Stress axis : x y z
#
# Youngs Moduli (GPa) = 122.18413 99.12887 76.71559
#
# Poissons Ratio (x) = 0.40863 0.18788
# Poissons Ratio (y) = 0.50366 -0.03052
# Poissons Ratio (z) = 0.29923 -0.03944
#
# Static dielectric constant tensor:
#      x y z
#    x -53.574550 0.000000 0.000000 
#    y 0.000000 4.339750 0.000000 
#    z 0.000000 0.000000 4.066530 
# 
# 
# High freq. dielectric constant tensor:
#      x y z
#    x 1.865210 0.000000 0.000000 
#    y 0.000000 1.865950 0.000000 
#    z 0.000000 0.000000 1.841210 
# 
# From -- ./inp_files/18257.got.cif
#   From: 2010.03.12/outbox.cif.g09.slc.cpg/sg64_10_cif.got.tgz:18257.got - 2010.04.10 20:19:32.
