data_PCOD8264806
_publ_section_title
;
Structure prediction by ZEFSAII (Michael W. Deem and Ramdas Pophale) SiO2 
 PCOD8264806
Probable space group: C M C A
;
_chemical_formula_sum "Si O2"
_cell_formula_units_Z 88
_cell_length_a 9.810997
_cell_length_b 19.512927
_cell_length_c 22.355487
_cell_angle_alpha 90.000000
_cell_angle_beta 90.000000
_cell_angle_gamma 90.000000
_cell_volume 4279.762784
_symmetry_space_group_name_H-M "C M C A"
_symmetry_group_IT_number 64
_symmetry_cell_setting 'orthorhombic'
loop_
_space_group_symop_operation_xyz
x,y,z
-x,1/2-y,1/2+z
x,-y,-z
-x,1/2+y,1/2-z
-x,-y,-z
x,1/2+y,1/2-z
-x,y,z
x,1/2-y,1/2+z
1/2+x,1/2+y,z
1/2-x,-y,1/2+z
1/2+x,1/2-y,-z
1/2-x,y,1/2-z
1/2-x,1/2-y,-z
1/2+x,y,1/2-z
1/2-x,1/2+y,z
1/2+x,-y,1/2+z
loop_
_atom_site_type_symbol
_atom_site_label
_atom_site_fract_x
_atom_site_fract_y
_atom_site_fract_z
Si Si1 0.500000 0.667857 0.389820
Si Si2 0.714806 0.400236 0.421466
Si Si3 0.155771 0.835297 0.300887
Si Si4 0.500000 0.668270 0.096900
Si Si5 0.000000 0.923291 0.018893
Si Si6 0.268051 0.317408 0.815034
Si Si7 0.000000 0.307818 0.021639
Si Si8 0.500000 0.009625 0.070372
O O1 0.373753 0.689427 0.349241
O O2 0.500000 0.713500 0.451316
O O3 0.500000 0.587215 0.406266
O O4 0.723772 0.357071 0.361953
O O5 0.867267 0.410063 0.442332
O O6 0.632968 0.355147 0.469996
O O7 0.637722 0.471951 0.407056
O O8 0.250000 0.869110 0.250000
O O9 0.160964 0.753710 0.297342
O O10 0.000000 0.860805 0.294811
O O11 0.370412 0.647869 0.137621
O O12 0.500000 0.746391 0.070461
O O13 0.500000 0.621507 0.039728
O O14 0.000000 0.000000 0.000000
O O15 0.250000 0.356175 0.750000
O O16 0.500000 0.000000 0.000000
#
# Coordination Sequence:
#
# PCOD8264806 Si02
#       8
#     8  16  16   8   8  16   8   8
#     4  12  26  38  70  98 123 182 230 260 337 396
#     4  11  22  44  66  95 134 166 225 269 327 400
#     4  11  23  43  69  98 133 175 216 274 337 388
#     4  12  24  44  66  98 144 165 216 288 330 393
#     4  12  30  40  65 101 140 176 209 273 348 396
#     4  11  24  42  66  96 134 171 220 272 337 398
#     4  11  22  42  67 101 128 170 220 279 331 391
#     4  11  22  43  69  87 128 182 223 262 328 414
#
# _framework density 20.561888
#
# number of rings (size 3 to 8) (size 9 to 14) (size 15 to 20)
#    0.000    0.727    6.364    2.182   10.182    1.455 
#    0.000    0.909    4.000    0.000    0.000    0.000 
#    0.000    0.000    0.000    0.000    0.000    0.000 
#
# Total GULP energy -545415.024992 kJ/mol
# GULP energy per Si atom -12395.796023 kJ/mol
# Density = 2.051509 g / cm^3
# Si number density = 20.561888 Si / 1000 Ang^3
#
#
#
# Elastic Constant Matrix: (Units=GPa)
#
#
# Indices 1 2 3 4 5 6 
#
# 1 197.1339 19.5297 74.2612 0.0000 0.0000 0.0000
# 2 19.5297 52.2219 2.9490 0.0000 0.0000 0.0000
# 3 74.2612 2.9490 128.0433 0.0000 0.0000 0.0000
# 4 0.0000 0.0000 0.0000 15.0817 0.0000 0.0000
# 5 0.0000 0.0000 0.0000 0.0000 43.7397 0.0000
# 6 0.0000 0.0000 0.0000 0.0000 0.0000 66.8066
#
#
#
# Elastic Compliance Matrix: (Units=1/GPa)
#
#
# Indices 1 2 3 4 5 6 
#
# 1 0.006758 -0.002309 -0.003866 0.000000 0.000000 0.000000
# 2 -0.002309 0.019963 0.000879 0.000000 0.000000 0.000000
# 3 -0.003866 0.000879 0.010032 0.000000 0.000000 0.000000
# 4 0.000000 0.000000 0.000000 0.066306 0.000000 0.000000
# 5 0.000000 0.000000 0.000000 0.000000 0.022863 0.000000
# 6 0.000000 0.000000 0.000000 0.000000 0.000000 0.014969
#
#
# Mechanical properties :
#
#
# Convention : Reuss Voigt Hill
#
# Bulk Modulus (GPa) = 38.22473 63.43098 50.82786
# Shear Modulus (GPa) = 31.21077 43.83621 37.52349
#
# Velocity S-wave (km/s) = 3.90024 4.62228 4.27652
# Velocity P-wave (km/s) = 6.23803 7.70734 7.01128
#
# Compressibility (1/GPa) = 0.02616107
#
# Stress axis : x y z
#
# Youngs Moduli (GPa) = 147.97631 50.09295 99.68236
#
# Poissons Ratio (x) = 0.11566 0.38539
# Poissons Ratio (y) = 0.34167 -0.08766
# Poissons Ratio (z) = 0.57210 -0.04405
#
# Static dielectric constant tensor:
#      x y z
#    x 4.019640 0.000000 0.000000 
#    y 0.000000 3.622280 0.000000 
#    z 0.000000 0.000000 4.151100 
# 
# 
# High freq. dielectric constant tensor:
#      x y z
#    x 1.819920 0.000000 0.000000 
#    y 0.000000 1.772330 0.000000 
#    z 0.000000 0.000000 1.821450 
# 
# From -- ./inp_files/42905.got.cif
#   From: 2010.03.12/outbox.cif.g09.slc.cpg/sg64_22_cif.got.tgz:42905.got - 2010.04.10 20:19:32.
