data_PCOD8264763
_publ_section_title
;
Structure prediction by ZEFSAII (Michael W. Deem and Ramdas Pophale) SiO2 
 PCOD8264763
Probable space group: C M C A
;
_chemical_formula_sum "Si O2"
_cell_formula_units_Z 80
_cell_length_a 17.566423
_cell_length_b 25.379595
_cell_length_c 8.722798
_cell_angle_alpha 90.000000
_cell_angle_beta 90.000000
_cell_angle_gamma 90.000000
_cell_volume 3888.873704
_symmetry_space_group_name_H-M "C M C A"
_symmetry_group_IT_number 64
_symmetry_cell_setting 'orthorhombic'
loop_
_space_group_symop_operation_xyz
x,y,z
-x,1/2-y,1/2+z
x,-y,-z
-x,1/2+y,1/2-z
-x,-y,-z
x,1/2+y,1/2-z
-x,y,z
x,1/2-y,1/2+z
1/2+x,1/2+y,z
1/2-x,-y,1/2+z
1/2+x,1/2-y,-z
1/2-x,y,1/2-z
1/2-x,1/2-y,-z
1/2+x,y,1/2-z
1/2-x,1/2+y,z
1/2+x,-y,1/2+z
loop_
_atom_site_type_symbol
_atom_site_label
_atom_site_fract_x
_atom_site_fract_y
_atom_site_fract_z
Si Si1 0.412724 0.059829 0.458908
Si Si2 0.185461 0.283504 0.631054
Si Si3 0.816019 0.357690 0.365482
Si Si4 0.588512 0.316147 0.393143
Si Si5 0.086070 0.132263 0.303502
O O1 0.500000 0.073378 0.507645
O O2 0.348959 0.091755 0.549460
O O3 0.401749 0.074518 0.276289
O O4 0.394736 0.000000 0.500000
O O5 0.250000 0.263729 0.750000
O O6 0.219576 0.313804 0.481726
O O7 0.136814 0.235476 0.563403
O O8 0.132728 0.324878 0.713206
O O9 0.750000 0.375646 0.250000
O O10 0.888037 0.334264 0.275349
O O11 0.500000 0.301311 0.392732
O O12 0.606681 0.363650 0.515706
O O13 0.000000 0.150342 0.282298
#
# Coordination Sequence:
#
# PCOD8264763 Si02
#       5
#    16  16  16  16  16
#     4   9  19  40  66  85 106 145 194 240 289 346
#     4  11  22  36  55  79 114 158 196 229 277 343
#     4  11  23  38  56  83 117 150 187 235 291 347
#     4  11  22  36  56  84 116 150 191 239 288 341
#     4   9  19  35  55  81 111 144 187 235 282 339
#
# _framework density 20.571508999999999
#
# number of rings (size 3 to 8) (size 9 to 14) (size 15 to 20)
#    0.000    1.800    0.000    4.200    0.000    6.400 
#    0.000    7.000    0.000    4.800    0.000    0.000 
#    0.000    0.000    0.000    0.000    0.000    0.000 
#
# Total GULP energy -495662.884967 kJ/mol
# GULP energy per Si atom -12391.572124 kJ/mol
# Density = 2.052469 g / cm^3
# Si number density = 20.571509 Si / 1000 Ang^3
#
#
#
# Elastic Constant Matrix: (Units=GPa)
#
#
# Indices 1 2 3 4 5 6 
#
# 1 94.5623 49.1140 55.3550 0.0000 0.0000 0.0000
# 2 49.1140 93.4450 48.0393 0.0000 0.0000 0.0000
# 3 55.3550 48.0393 121.8192 0.0000 0.0000 0.0000
# 4 0.0000 0.0000 0.0000 27.3520 0.0000 0.0000
# 5 0.0000 0.0000 0.0000 0.0000 36.4539 0.0000
# 6 0.0000 0.0000 0.0000 0.0000 0.0000 16.4043
#
#
#
# Elastic Compliance Matrix: (Units=1/GPa)
#
#
# Indices 1 2 3 4 5 6 
#
# 1 0.016830 -0.006164 -0.005217 0.000000 0.000000 0.000000
# 2 -0.006164 0.015680 -0.003383 0.000000 0.000000 0.000000
# 3 -0.005217 -0.003383 0.011913 0.000000 0.000000 0.000000
# 4 0.000000 0.000000 0.000000 0.036560 0.000000 0.000000
# 5 0.000000 0.000000 0.000000 0.000000 0.027432 0.000000
# 6 0.000000 0.000000 0.000000 0.000000 0.000000 0.060960
#
#
# Mechanical properties :
#
#
# Convention : Reuss Voigt Hill
#
# Bulk Modulus (GPa) = 67.12779 68.31591 67.72185
# Shear Modulus (GPa) = 24.52560 26.52992 25.52776
#
# Velocity S-wave (km/s) = 3.45659 3.59506 3.52650
# Velocity P-wave (km/s) = 6.97373 7.10730 7.04083
#
# Compressibility (1/GPa) = 0.01489696
#
# Stress axis : x y z
#
# Youngs Moduli (GPa) = 59.41617 63.77500 83.93880
#
# Poissons Ratio (x) = 0.39310 0.43791
# Poissons Ratio (y) = 0.36624 0.28393
# Poissons Ratio (z) = 0.30998 0.21572
#
# Static dielectric constant tensor:
#      x y z
#    x 3.840430 0.000000 0.000000 
#    y 0.000000 3.628700 0.000000 
#    z 0.000000 0.000000 4.280350 
# 
# 
# High freq. dielectric constant tensor:
#      x y z
#    x 1.818230 0.000000 0.000000 
#    y 0.000000 1.772390 0.000000 
#    z 0.000000 0.000000 1.817590 
# 
# From -- ./inp_files/7020.got.cif
#   From: 2010.03.12/outbox.cif.g09.slc.cpg/sg64_4_cif.got.tgz:7020.got - 2010.04.10 20:19:32.
