data_PCOD8264019
_publ_section_title
;
Structure prediction by ZEFSAII (Michael W. Deem and Ramdas Pophale) SiO2 
 PCOD8264019
Probable space group: C M C A
;
_chemical_formula_sum "Si O2"
_cell_formula_units_Z 88
_cell_length_a 23.701709
_cell_length_b 15.721500
_cell_length_c 11.006971
_cell_angle_alpha 90.000000
_cell_angle_beta 90.000000
_cell_angle_gamma 90.000000
_cell_volume 4101.488177
_symmetry_space_group_name_H-M "C M C A"
_symmetry_group_IT_number 64
_symmetry_cell_setting 'orthorhombic'
loop_
_space_group_symop_operation_xyz
x,y,z
-x,1/2-y,1/2+z
x,-y,-z
-x,1/2+y,1/2-z
-x,-y,-z
x,1/2+y,1/2-z
-x,y,z
x,1/2-y,1/2+z
1/2+x,1/2+y,z
1/2-x,-y,1/2+z
1/2+x,1/2-y,-z
1/2-x,y,1/2-z
1/2-x,1/2-y,-z
1/2+x,y,1/2-z
1/2-x,1/2+y,z
1/2+x,-y,1/2+z
loop_
_atom_site_type_symbol
_atom_site_label
_atom_site_fract_x
_atom_site_fract_y
_atom_site_fract_z
Si Si1 0.936935 0.209889 0.810047
Si Si2 0.121894 0.751143 0.446161
Si Si3 0.750000 0.493609 0.250000
Si Si4 0.935106 0.022897 0.748584
Si Si5 0.340097 0.072986 0.913316
Si Si6 0.345364 0.431984 0.897118
O O1 0.903948 0.238991 0.689053
O O2 0.933234 0.107925 0.831362
O O3 0.000000 0.239631 0.784365
O O4 0.919160 0.253055 0.937180
O O5 0.162329 0.832565 0.469617
O O6 0.156012 0.663283 0.449182
O O7 0.702968 0.429294 0.301398
O O8 0.716575 0.555470 0.159141
O O9 0.904715 0.048981 0.622400
O O10 0.000000 0.993338 0.726774
O O11 0.898659 0.945588 0.805767
O O12 0.316143 0.000000 0.000000
O O13 0.355423 0.500000 0.000000
#
# Coordination Sequence:
#
# PCOD8264019 Si02
#       6
#    16  16   8  16  16  16
#     4  10  21  40  62  97 138 177 220 265 321 394
#     4  11  24  40  67  96 134 175 219 274 333 393
#     4  10  24  44  68  90 126 172 222 286 336 392
#     4   9  20  38  63  93 134 173 212 269 327 389
#     4  10  23  44  64  93 131 170 224 272 334 397
#     4  11  22  42  65  96 130 170 226 274 331 397
#
# _framework density 21.455627
#
# number of rings (size 3 to 8) (size 9 to 14) (size 15 to 20)
#    0.000    1.818    1.818    1.091    5.091    3.636 
#    0.000    3.636    0.000    0.000    0.000    0.000 
#    0.000    0.000    0.000    0.000    0.000    0.000 
#
# Total GULP energy -545207.416112 kJ/mol
# GULP energy per Si atom -12391.077639 kJ/mol
# Density = 2.140679 g / cm^3
# Si number density = 21.455627 Si / 1000 Ang^3
#
#
#
# Elastic Constant Matrix: (Units=GPa)
#
#
# Indices 1 2 3 4 5 6 
#
# 1 104.7463 24.2643 13.6529 0.0000 0.0000 0.0000
# 2 24.2643 146.6353 28.7018 0.0000 0.0000 0.0000
# 3 13.6529 28.7018 81.2652 0.0000 0.0000 0.0000
# 4 0.0000 0.0000 0.0000 -133.9103 0.0000 0.0000
# 5 0.0000 0.0000 0.0000 0.0000 24.1874 0.0000
# 6 0.0000 0.0000 0.0000 0.0000 0.0000 12.1288
#
#
#
# Elastic Compliance Matrix: (Units=1/GPa)
#
#
# Indices 1 2 3 4 5 6 
#
# 1 0.010032 -0.001429 -0.001181 0.000000 0.000000 0.000000
# 2 -0.001429 0.007530 -0.002419 0.000000 0.000000 0.000000
# 3 -0.001181 -0.002419 0.013358 0.000000 0.000000 0.000000
# 4 0.000000 0.000000 0.000000 -0.007468 0.000000 0.000000
# 5 0.000000 0.000000 0.000000 0.000000 0.041344 0.000000
# 6 0.000000 0.000000 0.000000 0.000000 0.000000 0.082448
#
#
# Mechanical properties :
#
#
# Convention : Reuss Voigt Hill
#
# Bulk Modulus (GPa) = 47.93451 51.76500 49.84976
# Shear Modulus (GPa) = 30.44033 -1.78363 14.32835
#
# Velocity S-wave (km/s) = 3.77073 -0.91275 2.58701
# Velocity P-wave (km/s) = 6.43021 4.80293 5.67519
#
# Compressibility (1/GPa) = 0.02086179
#
# Stress axis : x y z
#
# Youngs Moduli (GPa) = 99.68322 132.80870 74.86030
#
# Poissons Ratio (x) = 0.18977 0.08839
# Poissons Ratio (y) = 0.14244 0.18111
# Poissons Ratio (z) = 0.11770 0.32130
#
# Static dielectric constant tensor:
#      x y z
#    x 3.780660 0.000000 0.000000 
#    y 0.000000 3.990060 0.000000 
#    z 0.000000 0.000000 3.884680 
# 
# 
# High freq. dielectric constant tensor:
#      x y z
#    x 1.834660 0.000000 0.000000 
#    y 0.000000 1.839800 0.000000 
#    z 0.000000 0.000000 1.839210 
# 
# From -- ./inp_files/18190.got.cif
#   From: 2010.03.12/outbox.cif.g09.slc.cpg/sg64_10_cif.got.tgz:18190.got - 2010.04.10 20:19:32.
