data_PCOD8264751
_publ_section_title
;
Structure prediction by ZEFSAII (Michael W. Deem and Ramdas Pophale) SiO2 
 PCOD8264751
Probable space group: C M C A
;
_chemical_formula_sum "Si O2"
_cell_formula_units_Z 112
_cell_length_a 29.886533
_cell_length_b 12.177491
_cell_length_c 14.143834
_cell_angle_alpha 90.000000
_cell_angle_beta 90.000000
_cell_angle_gamma 90.000000
_cell_volume 5147.549188
_symmetry_space_group_name_H-M "C M C A"
_symmetry_group_IT_number 64
_symmetry_cell_setting 'orthorhombic'
loop_
_space_group_symop_operation_xyz
x,y,z
-x,1/2-y,1/2+z
x,-y,-z
-x,1/2+y,1/2-z
-x,-y,-z
x,1/2+y,1/2-z
-x,y,z
x,1/2-y,1/2+z
1/2+x,1/2+y,z
1/2-x,-y,1/2+z
1/2+x,1/2-y,-z
1/2-x,y,1/2-z
1/2-x,1/2-y,-z
1/2+x,y,1/2-z
1/2-x,1/2+y,z
1/2+x,-y,1/2+z
loop_
_atom_site_type_symbol
_atom_site_label
_atom_site_fract_x
_atom_site_fract_y
_atom_site_fract_z
Si Si1 0.814968 0.988746 0.604860
Si Si2 0.415022 0.079801 0.115190
Si Si3 0.191070 0.852901 0.233984
Si Si4 0.949495 0.856086 0.423735
Si Si5 0.609312 0.293570 0.794711
Si Si6 0.745389 0.294281 0.605592
Si Si7 0.829702 0.552527 0.396335
O O1 0.796405 0.092864 0.664062
O O2 0.795344 0.000000 0.500000
O O3 0.868137 0.984476 0.607905
O O4 0.796002 0.871247 0.634595
O O5 0.418568 0.148106 0.211177
O O6 0.451608 0.982882 0.110697
O O7 0.423294 0.157644 0.023920
O O8 0.151898 0.764937 0.247324
O O9 0.235179 0.805081 0.179078
O O10 0.171422 0.953092 0.175371
O O11 0.924383 0.788697 0.343550
O O12 0.000000 0.812197 0.434690
O O13 0.624759 0.381723 0.874320
O O14 0.750000 0.250000 0.500000
O O15 0.790466 0.360498 0.627269
O O16 0.828190 0.500000 0.500000
#
# Coordination Sequence:
#
# PCOD8264751 Si02
#       7
#    16  16  16  16  16  16  16
#     4  12  24  44  68  99 137 185 241 294 350 414
#     4  11  21  44  71 104 141 178 232 291 348 429
#     4  12  25  47  68  99 140 185 244 289 349 421
#     4  11  25  45  75 108 139 182 233 297 365 437
#     4  12  25  44  75 105 136 192 232 287 366 431
#     4  12  28  44  67  99 140 191 241 295 351 409
#     4  12  27  45  66 102 144 188 237 300 347 410
#
# _framework density 21.757928
#
# number of rings (size 3 to 8) (size 9 to 14) (size 15 to 20)
#    0.000    0.286    7.143    1.286    6.000    4.571 
#    0.000    0.000    0.000    0.429    0.000    0.000 
#    0.000    0.000    0.000    0.000    0.000    0.000 
#
# Total GULP energy -694155.316272 kJ/mol
# GULP energy per Si atom -12395.630648 kJ/mol
# Density = 2.170841 g / cm^3
# Si number density = 21.757928 Si / 1000 Ang^3
#
#
#
# Elastic Constant Matrix: (Units=GPa)
#
#
# Indices 1 2 3 4 5 6 
#
# 1 85.2268 40.5436 66.1971 0.0000 0.0000 0.0000
# 2 40.5436 70.1424 43.9883 0.0000 0.0000 0.0000
# 3 66.1971 43.9883 140.1256 0.0000 0.0000 0.0000
# 4 0.0000 0.0000 0.0000 52.1087 0.0000 0.0000
# 5 0.0000 0.0000 0.0000 0.0000 22.2493 0.0000
# 6 0.0000 0.0000 0.0000 0.0000 0.0000-2067.5707
#
#
#
# Elastic Compliance Matrix: (Units=1/GPa)
#
#
# Indices 1 2 3 4 5 6 
#
# 1 0.021267 -0.007461 -0.007705 0.000000 0.000000 0.000000
# 2 -0.007461 0.020369 -0.002870 0.000000 0.000000 0.000000
# 3 -0.007705 -0.002870 0.011677 0.000000 0.000000 0.000000
# 4 0.000000 0.000000 0.000000 0.019191 0.000000 0.000000
# 5 0.000000 0.000000 0.000000 0.000000 0.044945 0.000000
# 6 0.000000 0.000000 0.000000 0.000000 0.000000 -0.000484
#
#
# Mechanical properties :
#
#
# Convention : Reuss Voigt Hill
#
# Bulk Modulus (GPa) = 57.99588 66.32810 62.16199
# Shear Modulus (GPa) = 31.48950 -388.99150 -178.75100
#
# Velocity S-wave (km/s) = 3.80842 -13.38543 -9.07374
# Velocity P-wave (km/s) = 6.78614 14.43406 9.00806
#
# Compressibility (1/GPa) = 0.01724260
#
# Stress axis : x y z
#
# Youngs Moduli (GPa) = 47.02113 49.09462 85.63802
#
# Poissons Ratio (x) = 0.36629 0.65981
# Poissons Ratio (y) = 0.35082 0.24574
# Poissons Ratio (z) = 0.36228 0.14088
#
# Static dielectric constant tensor:
#      x y z
#    x 3.653780 0.000000 0.000000 
#    y 0.000000 4.118160 0.000000 
#    z 0.000000 0.000000 3.443550 
# 
# 
# High freq. dielectric constant tensor:
#      x y z
#    x 1.834790 0.000000 0.000000 
#    y 0.000000 1.866340 0.000000 
#    z 0.000000 0.000000 1.875820 
# 
# From -- ./inp_files/28403.got.cif
#   From: 2010.03.12/outbox.cif.g09.slc.cpg/sg64_15_cif.got.tgz:28403.got - 2010.04.10 20:19:32.
