data_PCOD8264347
_publ_section_title
;
Structure prediction by ZEFSAII (Michael W. Deem and Ramdas Pophale) SiO2 
 PCOD8264347
Probable space group: C M C A
;
_chemical_formula_sum "Si O2"
_cell_formula_units_Z 88
_cell_length_a 15.781199
_cell_length_b 27.967450
_cell_length_c 9.199460
_cell_angle_alpha 90.000000
_cell_angle_beta 90.000000
_cell_angle_gamma 90.000000
_cell_volume 4060.272690
_symmetry_space_group_name_H-M "C M C A"
_symmetry_group_IT_number 64
_symmetry_cell_setting 'orthorhombic'
loop_
_space_group_symop_operation_xyz
x,y,z
-x,1/2-y,1/2+z
x,-y,-z
-x,1/2+y,1/2-z
-x,-y,-z
x,1/2+y,1/2-z
-x,y,z
x,1/2-y,1/2+z
1/2+x,1/2+y,z
1/2-x,-y,1/2+z
1/2+x,1/2-y,-z
1/2-x,y,1/2-z
1/2-x,1/2-y,-z
1/2+x,y,1/2-z
1/2-x,1/2+y,z
1/2+x,-y,1/2+z
loop_
_atom_site_type_symbol
_atom_site_label
_atom_site_fract_x
_atom_site_fract_y
_atom_site_fract_z
Si Si1 0.401993 0.423486 0.347267
Si Si2 0.099295 0.897129 0.674622
Si Si3 0.822076 0.218409 0.937187
Si Si4 0.400643 0.014233 0.343716
Si Si5 0.250000 0.139847 0.750000
Si Si6 0.902333 0.294676 0.734474
O O1 0.500000 0.408388 0.313864
O O2 0.383165 0.420287 0.517965
O O3 0.383117 0.475967 0.283724
O O4 0.336191 0.389035 0.270472
O O5 0.138032 0.934820 0.791583
O O6 0.138283 0.843839 0.698202
O O7 0.000000 0.892551 0.702498
O O8 0.774051 0.170863 0.889107
O O9 0.862302 0.246943 0.802301
O O10 0.750000 0.250000 0.000000
O O11 0.890795 0.206057 0.060684
O O12 0.500000 0.020411 0.366589
O O13 0.359334 0.000000 0.500000
O O14 0.000000 0.292891 0.774056
#
# Coordination Sequence:
#
# PCOD8264347 Si02
#       6
#    16  16  16  16   8  16
#     4  10  22  41  67  93 130 176 217 267 326 394
#     4   9  19  37  64  97 128 169 217 264 326 396
#     4  12  24  45  63  90 133 176 213 279 342 386
#     4   9  18  35  62  96 133 170 213 269 329 386
#     4  12  26  42  68  96 134 166 230 270 328 402
#     4  11  24  41  68  99 128 171 228 274 334 407
#
# _framework density 21.673421999999999
#
# number of rings (size 3 to 8) (size 9 to 14) (size 15 to 20)
#    0.000    1.636    1.818    2.182    2.545    3.636 
#    0.000    1.818    4.000    0.000    0.000    0.000 
#    0.000    0.000    0.000    0.000    0.000    0.000 
#
# Total GULP energy -545345.935220 kJ/mol
# GULP energy per Si atom -12394.225800 kJ/mol
# Density = 2.162409 g / cm^3
# Si number density = 21.673422 Si / 1000 Ang^3
#
#
#
# Elastic Constant Matrix: (Units=GPa)
#
#
# Indices 1 2 3 4 5 6 
#
# 1 59.4155 26.6766 12.0351 0.0000 0.0000 0.0000
# 2 26.6766 101.3030 27.9240 0.0000 0.0000 0.0000
# 3 12.0351 27.9240 99.5081 0.0000 0.0000 0.0000
# 4 0.0000 0.0000 0.0000 36.4525 0.0000 0.0000
# 5 0.0000 0.0000 0.0000 0.0000 29.6689 0.0000
# 6 0.0000 0.0000 0.0000 0.0000 0.0000 25.8510
#
#
#
# Elastic Compliance Matrix: (Units=1/GPa)
#
#
# Indices 1 2 3 4 5 6 
#
# 1 0.019175 -0.004780 -0.000978 0.000000 0.000000 0.000000
# 2 -0.004780 0.011890 -0.002759 0.000000 0.000000 0.000000
# 3 -0.000978 -0.002759 0.010942 0.000000 0.000000 0.000000
# 4 0.000000 0.000000 0.000000 0.027433 0.000000 0.000000
# 5 0.000000 0.000000 0.000000 0.000000 0.033705 0.000000
# 6 0.000000 0.000000 0.000000 0.000000 0.000000 0.038683
#
#
# Mechanical properties :
#
#
# Convention : Reuss Voigt Hill
#
# Bulk Modulus (GPa) = 40.04072 43.72198 41.88135
# Shear Modulus (GPa) = 29.90682 31.30054 30.60368
#
# Velocity S-wave (km/s) = 3.71871 3.80437 3.76178
# Velocity P-wave (km/s) = 6.07890 6.28606 6.18335
#
# Compressibility (1/GPa) = 0.02497457
#
# Stress axis : x y z
#
# Youngs Moduli (GPa) = 52.15185 84.10088 91.39253
#
# Poissons Ratio (x) = 0.40199 0.08936
# Poissons Ratio (y) = 0.24928 0.25212
# Poissons Ratio (z) = 0.05099 0.23200
#
# Static dielectric constant tensor:
#      x y z
#    x 4.009340 0.000000 0.000000 
#    y 0.000000 2.774830 0.000000 
#    z 0.000000 0.000000 6.620700 
# 
# 
# High freq. dielectric constant tensor:
#      x y z
#    x 1.828380 0.000000 0.000000 
#    y 0.000000 1.862490 0.000000 
#    z 0.000000 0.000000 1.858110 
# 
# From -- ./inp_files/7323.got.cif
#   From: 2010.03.12/outbox.cif.g09.slc.cpg/sg64_4_cif.got.tgz:7323.got - 2010.04.10 20:19:32.
