data_PCOD8264000
_publ_section_title
;
Structure prediction by ZEFSAII (Michael W. Deem and Ramdas Pophale) SiO2 
 PCOD8264000
Probable space group: C M C A
;
_chemical_formula_sum "Si O2"
_cell_formula_units_Z 88
_cell_length_a 26.855752
_cell_length_b 5.217632
_cell_length_c 26.301105
_cell_angle_alpha 90.000000
_cell_angle_beta 90.000000
_cell_angle_gamma 90.000000
_cell_volume 3685.401072
_symmetry_space_group_name_H-M "C M C A"
_symmetry_group_IT_number 64
_symmetry_cell_setting 'orthorhombic'
loop_
_space_group_symop_operation_xyz
x,y,z
-x,1/2-y,1/2+z
x,-y,-z
-x,1/2+y,1/2-z
-x,-y,-z
x,1/2+y,1/2-z
-x,y,z
x,1/2-y,1/2+z
1/2+x,1/2+y,z
1/2-x,-y,1/2+z
1/2+x,1/2-y,-z
1/2-x,y,1/2-z
1/2-x,1/2-y,-z
1/2+x,y,1/2-z
1/2-x,1/2+y,z
1/2+x,-y,1/2+z
loop_
_atom_site_type_symbol
_atom_site_label
_atom_site_fract_x
_atom_site_fract_y
_atom_site_fract_z
Si Si1 0.000000 0.248984 0.535165
Si Si2 0.944150 0.917176 0.271836
Si Si3 0.417114 0.278941 0.380190
Si Si4 0.724915 0.985325 0.440304
Si Si5 0.644090 0.283284 0.124037
Si Si6 0.306533 0.782848 0.771863
O O1 0.000000 0.500000 0.500000
O O2 0.048923 0.247223 0.570160
O O3 0.000000 0.000000 0.500000
O O4 0.916236 0.684180 0.242002
O O5 0.947870 0.877550 0.331930
O O6 0.000000 0.946661 0.249453
O O7 0.375816 0.500204 0.389717
O O8 0.397592 0.996965 0.363874
O O9 0.761659 0.764322 0.417602
O O10 0.669415 0.901593 0.426140
O O11 0.729989 0.000000 0.500000
O O12 0.686400 0.268454 0.168206
O O13 0.333271 0.553030 0.740775
O O14 0.250000 0.815965 0.750000
#
# Coordination Sequence:
#
# PCOD8264000 Si02
#       6
#     8  16  16  16  16  16
#     4  12  28  52  78 102 144 198 238 302 386 436
#     4  10  21  39  67  95 132 182 221 275 340 408
#     4  12  26  46  68 109 140 182 245 291 353 437
#     4  10  23  43  68  94 126 172 227 285 356 420
#     4  12  26  40  72 102 141 183 234 300 344 418
#     4  10  23  40  62  97 140 194 233 277 348 430
#
# _framework density 23.878
#
# number of rings (size 3 to 8) (size 9 to 14) (size 15 to 20)
#    0.000    1.091    0.909    4.364    5.091    6.545 
#    0.000    0.000    0.000    0.000    0.000    0.000 
#    0.000    0.000    0.000    0.000    0.000    0.000 
#
# Total GULP energy -545318.114540 kJ/mol
# GULP energy per Si atom -12393.593512 kJ/mol
# Density = 2.382365 g / cm^3
# Si number density = 23.878000 Si / 1000 Ang^3
#
#
#
# Elastic Constant Matrix: (Units=GPa)
#
#
# Indices 1 2 3 4 5 6 
#
# 1 65.9865 34.3488 40.6354 0.0000 0.0000 0.0000
# 2 34.3488 202.9152 69.7620 0.0000 0.0000 0.0000
# 3 40.6354 69.7620 102.8387 0.0000 0.0000 0.0000
# 4 0.0000 0.0000 0.0000 40.8415 0.0000 0.0000
# 5 0.0000 0.0000 0.0000 0.0000 33.6428 0.0000
# 6 0.0000 0.0000 0.0000 0.0000 0.0000 19.4798
#
#
#
# Elastic Compliance Matrix: (Units=1/GPa)
#
#
# Indices 1 2 3 4 5 6 
#
# 1 0.020147 -0.000878 -0.007365 0.000000 0.000000 0.000000
# 2 -0.000878 0.006465 -0.004039 0.000000 0.000000 0.000000
# 3 -0.007365 -0.004039 0.015374 0.000000 0.000000 0.000000
# 4 0.000000 0.000000 0.000000 0.024485 0.000000 0.000000
# 5 0.000000 0.000000 0.000000 0.000000 0.029724 0.000000
# 6 0.000000 0.000000 0.000000 0.000000 0.000000 0.051335
#
#
# Mechanical properties :
#
#
# Convention : Reuss Voigt Hill
#
# Bulk Modulus (GPa) = 57.39816 73.47029 65.43423
# Shear Modulus (GPa) = 28.10522 33.92578 31.01550
#
# Velocity S-wave (km/s) = 3.43452 3.77343 3.60796
# Velocity P-wave (km/s) = 6.31016 7.05839 6.69474
#
# Compressibility (1/GPa) = 0.01742216
#
# Stress axis : x y z
#
# Youngs Moduli (GPa) = 49.63424 154.66963 65.04491
#
# Poissons Ratio (x) = 0.13585 0.47906
# Poissons Ratio (y) = 0.04360 0.26270
# Poissons Ratio (z) = 0.36556 0.62468
#
# Static dielectric constant tensor:
#      x y z
#    x 4.093130 0.000000 0.000000 
#    y 0.000000 5.421400 0.000000 
#    z 0.000000 0.000000 4.065410 
# 
# 
# High freq. dielectric constant tensor:
#      x y z
#    x 1.941590 0.000000 0.000000 
#    y 0.000000 1.988050 0.000000 
#    z 0.000000 0.000000 1.935440 
# 
# From -- ./inp_files/47104.got.cif
#   From: 2010.03.12/outbox.cif.g09.slc.cpg/sg64_24_cif.got.tgz:47104.got - 2010.04.10 20:19:32.
