data_PCOD8264442
_publ_section_title
;
Structure prediction by ZEFSAII (Michael W. Deem and Ramdas Pophale) SiO2 
 PCOD8264442
Probable space group: C M C A
;
_chemical_formula_sum "Si O2"
_cell_formula_units_Z 56
_cell_length_a 24.928687
_cell_length_b 17.669647
_cell_length_c 4.968062
_cell_angle_alpha 90.000000
_cell_angle_beta 90.000000
_cell_angle_gamma 90.000000
_cell_volume 2188.337412
_symmetry_space_group_name_H-M "C M C A"
_symmetry_group_IT_number 64
_symmetry_cell_setting 'orthorhombic'
loop_
_space_group_symop_operation_xyz
x,y,z
-x,1/2-y,1/2+z
x,-y,-z
-x,1/2+y,1/2-z
-x,-y,-z
x,1/2+y,1/2-z
-x,y,z
x,1/2-y,1/2+z
1/2+x,1/2+y,z
1/2-x,-y,1/2+z
1/2+x,1/2-y,-z
1/2-x,y,1/2-z
1/2-x,1/2-y,-z
1/2+x,y,1/2-z
1/2-x,1/2+y,z
1/2+x,-y,1/2+z
loop_
_atom_site_type_symbol
_atom_site_label
_atom_site_fract_x
_atom_site_fract_y
_atom_site_fract_z
Si Si1 0.687958 0.799616 0.291031
Si Si2 0.937452 0.299272 0.689098
Si Si3 0.640964 0.913681 0.924345
Si Si4 0.750000 0.448007 0.750000
O O1 0.674664 0.771501 0.592379
O O2 0.750000 0.824097 0.250000
O O3 0.651834 0.871332 0.207733
O O4 0.921597 0.268968 0.393259
O O5 0.908079 0.377715 0.759766
O O6 0.000000 0.317800 0.711989
O O7 0.694494 0.900818 0.731906
O O8 0.626931 0.000000 0.000000
O O9 0.739549 0.500000 0.500000
#
# Coordination Sequence:
#
# PCOD8264442 Si02
#       4
#    16  16  16   8
#     4  10  23  40  59  85 123 169 218 261 310 380
#     4  10  23  47  73  97 130 173 224 282 340 397
#     4  11  25  41  68  98 137 177 221 276 331 402
#     4  10  26  42  58  92 144 184 210 260 334 398
#
# _framework density 25.590202999999999
#
# number of rings (size 3 to 8) (size 9 to 14) (size 15 to 20)
#    0.000    1.714    0.000    1.714   14.000    5.143 
#    0.000    0.000    0.000    6.000    0.000    0.000 
#    0.000    0.000    0.000    0.000    0.000    0.000 
#
# Total GULP energy -347311.295881 kJ/mol
# GULP energy per Si atom -12403.974853 kJ/mol
# Density = 2.553196 g / cm^3
# Si number density = 25.590203 Si / 1000 Ang^3
#
#
#
# Elastic Constant Matrix: (Units=GPa)
#
#
# Indices 1 2 3 4 5 6 
#
# 1 80.1466 37.5459 10.8725 0.0000 0.0000 0.0000
# 2 37.5459 157.8000 23.9091 0.0000 0.0000 0.0000
# 3 10.8725 23.9091 96.2781 0.0000 0.0000 0.0000
# 4 0.0000 0.0000 0.0000 -0.0452 0.0000 0.0000
# 5 0.0000 0.0000 0.0000 0.0000 37.4787 0.0000
# 6 0.0000 0.0000 0.0000 0.0000 0.0000 38.1367
#
#
#
# Elastic Compliance Matrix: (Units=1/GPa)
#
#
# Indices 1 2 3 4 5 6 
#
# 1 0.014100 -0.003235 -0.000789 0.000000 0.000000 0.000000
# 2 -0.003235 0.007327 -0.001454 0.000000 0.000000 0.000000
# 3 -0.000789 -0.001454 0.010837 0.000000 0.000000 0.000000
# 4 0.000000 0.000000 0.000000-22.103708 0.000000 0.000000
# 5 0.000000 0.000000 0.000000 0.000000 0.026682 0.000000
# 6 0.000000 0.000000 0.000000 0.000000 0.000000 0.026221
#
#
# Mechanical properties :
#
#
# Convention : Reuss Voigt Hill
#
# Bulk Modulus (GPa) = 46.93274 53.20887 50.07080
# Shear Modulus (GPa) = -0.22727 32.57384 16.17329
#
# Velocity S-wave (km/s) = -0.29833 3.57165 2.51671
# Velocity P-wave (km/s) = 4.27332 6.15197 5.29660
#
# Compressibility (1/GPa) = 0.02130709
#
# Stress axis : x y z
#
# Youngs Moduli (GPa) = 70.92315 136.47672 92.27820
#
# Poissons Ratio (x) = 0.44154 0.07279
# Poissons Ratio (y) = 0.22946 0.13420
# Poissons Ratio (z) = 0.05595 0.19847
#
# Static dielectric constant tensor:
#      x y z
#    x 5.161810 0.000000 0.000000 
#    y 0.000000 4.513610 0.000000 
#    z 0.000000 0.000000 4.777290 
# 
# 
# High freq. dielectric constant tensor:
#      x y z
#    x 2.032200 0.000000 0.000000 
#    y 0.000000 2.022640 0.000000 
#    z 0.000000 0.000000 2.036140 
# 
# From -- ./inp_files/2634.got.cif
#   From: 2010.03.12/outbox.cif.g09.slc.cpg/sg64_2_cif.got.tgz:2634.got - 2010.04.10 20:19:32.
