data_PCOD8264818
_publ_section_title
;
Structure prediction by ZEFSAII (Michael W. Deem and Ramdas Pophale) SiO2 
 PCOD8264818
Probable space group: C M C A
;
_chemical_formula_sum "Si O2"
_cell_formula_units_Z 120
_cell_length_a 20.462626
_cell_length_b 11.980787
_cell_length_c 22.397746
_cell_angle_alpha 90.000000
_cell_angle_beta 90.000000
_cell_angle_gamma 90.000000
_cell_volume 5490.994757
_symmetry_space_group_name_H-M "C M C A"
_symmetry_group_IT_number 64
_symmetry_cell_setting 'orthorhombic'
loop_
_space_group_symop_operation_xyz
x,y,z
-x,1/2-y,1/2+z
x,-y,-z
-x,1/2+y,1/2-z
-x,-y,-z
x,1/2+y,1/2-z
-x,y,z
x,1/2-y,1/2+z
1/2+x,1/2+y,z
1/2-x,-y,1/2+z
1/2+x,1/2-y,-z
1/2-x,y,1/2-z
1/2-x,1/2-y,-z
1/2+x,y,1/2-z
1/2-x,1/2+y,z
1/2+x,-y,1/2+z
loop_
_atom_site_type_symbol
_atom_site_label
_atom_site_fract_x
_atom_site_fract_y
_atom_site_fract_z
Si Si1 0.867606 0.591283 0.395387
Si Si2 0.685306 0.419863 0.276190
Si Si3 0.074747 0.073633 0.231931
Si Si4 0.639792 0.500000 0.500000
Si Si5 0.215238 0.448245 0.882123
Si Si6 0.424862 0.227489 0.976783
Si Si7 0.355144 0.239330 0.193875
Si Si8 0.074787 0.364760 0.406437
O O1 0.901598 0.614325 0.332366
O O2 0.792106 0.562406 0.389153
O O3 0.877669 0.702882 0.433650
O O4 0.902577 0.486953 0.428601
O O5 0.750000 0.482281 0.250000
O O6 0.617489 0.470644 0.254278
O O7 0.694037 0.435950 0.347902
O O8 0.685054 0.293965 0.249551
O O9 0.083114 0.173947 0.278979
O O10 0.000000 0.035098 0.230190
O O11 0.684417 0.449617 0.552279
O O12 0.594053 0.402268 0.474349
O O13 0.191144 0.344042 0.842744
O O14 0.500000 0.241311 0.956411
O O15 0.414597 0.271809 0.043598
O O16 0.381231 0.336004 0.150738
O O17 0.000000 0.370459 0.386315
#
# Coordination Sequence:
#
# PCOD8264818 Si02
#       8
#    16  16  16   8  16  16  16  16
#     4  12  25  44  70 101 144 176 240 299 356 430
#     4  11  23  44  72  99 139 183 234 290 360 434
#     4  11  24  41  66 102 138 178 231 294 357 427
#     4  12  27  50  72 100 151 186 252 294 354 444
#     4  11  27  46  69 106 139 194 238 299 367 424
#     4  11  26  46  72 102 137 190 239 295 362 429
#     4  11  24  42  71  99 139 183 235 294 359 433
#     4  11  22  44  70 100 138 182 232 292 361 423
#
# _framework density 21.853964000000001
#
# number of rings (size 3 to 8) (size 9 to 14) (size 15 to 20)
#    0.000    0.800    4.000    2.200    5.600    3.200 
#    0.000    0.667    0.000    0.000    0.000    0.000 
#    0.000    0.000    0.000    0.000    0.000    0.000 
#
# Total GULP energy -743952.628801 kJ/mol
# GULP energy per Si atom -12399.210480 kJ/mol
# Density = 2.180422 g / cm^3
# Si number density = 21.853964 Si / 1000 Ang^3
#
#
#
# Elastic Constant Matrix: (Units=GPa)
#
#
# Indices 1 2 3 4 5 6 
#
# 1 136.1371 37.8102 49.4391 0.0000 0.0000 0.0000
# 2 37.8102 118.3425 37.6587 0.0000 0.0000 0.0000
# 3 49.4391 37.6587 83.2504 0.0000 0.0000 0.0000
# 4 0.0000 0.0000 0.0000 42.1714 0.0000 0.0000
# 5 0.0000 0.0000 0.0000 0.0000 32.7197 0.0000
# 6 0.0000 0.0000 0.0000 0.0000 0.0000 22.3205
#
#
#
# Elastic Compliance Matrix: (Units=1/GPa)
#
#
# Indices 1 2 3 4 5 6 
#
# 1 0.009577 -0.001460 -0.005027 0.000000 0.000000 0.000000
# 2 -0.001460 0.010094 -0.003699 0.000000 0.000000 0.000000
# 3 -0.005027 -0.003699 0.016670 0.000000 0.000000 0.000000
# 4 0.000000 0.000000 0.000000 0.023713 0.000000 0.000000
# 5 0.000000 0.000000 0.000000 0.000000 0.030563 0.000000
# 6 0.000000 0.000000 0.000000 0.000000 0.000000 0.044802
#
#
# Mechanical properties :
#
#
# Convention : Reuss Voigt Hill
#
# Bulk Modulus (GPa) = 62.62019 65.28289 63.95154
# Shear Modulus (GPa) = 31.03438 33.63046 32.33242
#
# Velocity S-wave (km/s) = 3.77248 3.92710 3.85057
# Velocity P-wave (km/s) = 6.90591 7.10634 7.00684
#
# Compressibility (1/GPa) = 0.01596929
#
# Stress axis : x y z
#
# Youngs Moduli (GPa) = 104.42215 99.07304 59.98724
#
# Poissons Ratio (x) = 0.14466 0.30153
# Poissons Ratio (y) = 0.15247 0.22188
# Poissons Ratio (z) = 0.52489 0.36645
#
# Static dielectric constant tensor:
#      x y z
#    x 3.942700 0.000000 0.000000 
#    y 0.000000 3.946290 0.000000 
#    z 0.000000 0.000000 4.061780 
# 
# 
# High freq. dielectric constant tensor:
#      x y z
#    x 1.867330 0.000000 0.000000 
#    y 0.000000 1.859300 0.000000 
#    z 0.000000 0.000000 1.863860 
# 
# From -- ./inp_files/46422.got.cif
#   From: 2010.03.12/outbox.cif.g09.slc.cpg/sg64_24_cif.got.tgz:46422.got - 2010.04.10 20:19:32.
