data_PCOD8264455
_publ_section_title
;
Structure prediction by ZEFSAII (Michael W. Deem and Ramdas Pophale) SiO2 
 PCOD8264455
Probable space group: C M C A
;
_chemical_formula_sum "Si O2"
_cell_formula_units_Z 56
_cell_length_a 34.219566
_cell_length_b 5.172503
_cell_length_c 13.893201
_cell_angle_alpha 90.000000
_cell_angle_beta 90.000000
_cell_angle_gamma 90.000000
_cell_volume 2459.107800
_symmetry_space_group_name_H-M "C M C A"
_symmetry_group_IT_number 64
_symmetry_cell_setting 'orthorhombic'
loop_
_space_group_symop_operation_xyz
x,y,z
-x,1/2-y,1/2+z
x,-y,-z
-x,1/2+y,1/2-z
-x,-y,-z
x,1/2+y,1/2-z
-x,y,z
x,1/2-y,1/2+z
1/2+x,1/2+y,z
1/2-x,-y,1/2+z
1/2+x,1/2-y,-z
1/2-x,y,1/2-z
1/2-x,1/2-y,-z
1/2+x,y,1/2-z
1/2-x,1/2+y,z
1/2+x,-y,1/2+z
loop_
_atom_site_type_symbol
_atom_site_label
_atom_site_fract_x
_atom_site_fract_y
_atom_site_fract_z
Si Si1 0.075491 0.251884 0.062595
Si Si2 0.267171 0.237173 0.392593
Si Si3 0.500000 0.222320 0.812493
Si Si4 0.651386 0.168701 0.313284
O O1 0.110600 0.187884 0.133309
O O2 0.037809 0.328748 0.123462
O O3 0.087470 0.500000 0.000000
O O4 0.065829 0.000000 0.000000
O O5 0.250000 0.250000 0.500000
O O6 0.253919 0.498319 0.338213
O O7 0.313922 0.205669 0.390908
O O8 0.500000 0.514185 0.773258
O O9 0.654550 0.383242 0.230716
#
# Coordination Sequence:
#
# PCOD8264455 Si02
#       4
#    16  16   8  16
#     4  12  26  44  73 102 141 182 229 270 335 410
#     4  10  23  40  66  91 130 172 228 270 348 396
#     4  12  24  46  74 104 146 178 224 282 334 390
#     4  12  26  44  68 101 136 175 228 284 344 397
#
# _framework density 22.772487000000002
#
# number of rings (size 3 to 8) (size 9 to 14) (size 15 to 20)
#    0.000    0.571    0.000    7.714    8.000    3.429 
#    0.000    0.000    0.000    0.000    0.000    0.000 
#    0.000    0.000    0.000    0.000    0.000    0.000 
#
# Total GULP energy -347269.540642 kJ/mol
# GULP energy per Si atom -12402.483594 kJ/mol
# Density = 2.272066 g / cm^3
# Si number density = 22.772487 Si / 1000 Ang^3
#
#
#
# Elastic Constant Matrix: (Units=GPa)
#
#
# Indices 1 2 3 4 5 6 
#
# 1 152.3504 -8.5375 30.6983 0.0000 0.0000 0.0000
# 2 -8.5375 146.5259 1.8864 0.0000 0.0000 0.0000
# 3 30.6983 1.8864 77.2800 0.0000 0.0000 0.0000
# 4 0.0000 0.0000 0.0000 21.3452 0.0000 0.0000
# 5 0.0000 0.0000 0.0000 0.0000 19.9932 0.0000
# 6 0.0000 0.0000 0.0000 0.0000 0.0000 31.3217
#
#
#
# Elastic Compliance Matrix: (Units=1/GPa)
#
#
# Indices 1 2 3 4 5 6 
#
# 1 0.007165 0.000454 -0.002857 0.000000 0.000000 0.000000
# 2 0.000454 0.006856 -0.000348 0.000000 0.000000 0.000000
# 3 -0.002857 -0.000348 0.014083 0.000000 0.000000 0.000000
# 4 0.000000 0.000000 0.000000 0.046849 0.000000 0.000000
# 5 0.000000 0.000000 0.000000 0.000000 0.050017 0.000000
# 6 0.000000 0.000000 0.000000 0.000000 0.000000 0.031927
#
#
# Mechanical properties :
#
#
# Convention : Reuss Voigt Hill
#
# Bulk Modulus (GPa) = 44.24285 47.13897 45.69091
# Shear Modulus (GPa) = 29.42341 38.00595 33.71468
#
# Velocity S-wave (km/s) = 3.59842 4.08970 3.85190
# Velocity P-wave (km/s) = 6.06096 6.56093 6.31589
#
# Compressibility (1/GPa) = 0.02260252
#
# Stress axis : x y z
#
# Youngs Moduli (GPa) = 139.56718 145.86451 71.00527
#
# Poissons Ratio (x) = -0.06626 0.20288
# Poissons Ratio (y) = -0.06340 0.02470
# Poissons Ratio (z) = 0.39878 0.05073
#
# Static dielectric constant tensor:
#      x y z
#    x 4.293520 0.000000 0.000000 
#    y 0.000000 -48.683930 0.000000 
#    z 0.000000 0.000000 -3.252970 
# 
# 
# High freq. dielectric constant tensor:
#      x y z
#    x 1.913530 0.000000 0.000000 
#    y 0.000000 1.932230 0.000000 
#    z 0.000000 0.000000 1.897610 
# 
# From -- ./inp_files/28203.got.cif
#   From: 2010.03.12/outbox.cif.g09.slc.cpg/sg64_15_cif.got.tgz:28203.got - 2010.04.10 20:19:32.
