data_PCOD8264073
_publ_section_title
;
Structure prediction by ZEFSAII (Michael W. Deem and Ramdas Pophale) SiO2 
 PCOD8264073
Probable space group: C M C A
;
_chemical_formula_sum "Si O2"
_cell_formula_units_Z 96
_cell_length_a 26.511974
_cell_length_b 20.376598
_cell_length_c 8.774693
_cell_angle_alpha 90.000000
_cell_angle_beta 90.000000
_cell_angle_gamma 90.000000
_cell_volume 4740.298316
_symmetry_space_group_name_H-M "C M C A"
_symmetry_group_IT_number 64
_symmetry_cell_setting 'orthorhombic'
loop_
_space_group_symop_operation_xyz
x,y,z
-x,1/2-y,1/2+z
x,-y,-z
-x,1/2+y,1/2-z
-x,-y,-z
x,1/2+y,1/2-z
-x,y,z
x,1/2-y,1/2+z
1/2+x,1/2+y,z
1/2-x,-y,1/2+z
1/2+x,1/2-y,-z
1/2-x,y,1/2-z
1/2-x,1/2-y,-z
1/2+x,y,1/2-z
1/2-x,1/2+y,z
1/2+x,-y,1/2+z
loop_
_atom_site_type_symbol
_atom_site_label
_atom_site_fract_x
_atom_site_fract_y
_atom_site_fract_z
Si Si1 0.942426 0.442805 0.619572
Si Si2 0.377299 0.160610 0.498681
Si Si3 0.701263 0.335974 0.536938
Si Si4 0.708399 0.565225 0.083399
Si Si5 0.834937 0.736029 0.763196
Si Si6 0.643282 0.050828 0.137239
O O1 0.931288 0.500000 0.500000
O O2 0.931349 0.372158 0.539242
O O3 0.908375 0.454749 0.769494
O O4 0.000000 0.443439 0.674808
O O5 0.340553 0.097306 0.493775
O O6 0.375360 0.193539 0.665196
O O7 0.365135 0.213812 0.369340
O O8 0.750099 0.378327 0.574061
O O9 0.700272 0.312121 0.362468
O O10 0.702467 0.273058 0.647508
O O11 0.649360 0.376409 0.566073
O O12 0.693453 0.543125 0.255582
O O13 0.727213 0.500000 0.000000
O O14 0.644577 0.000000 0.000000
#
# Coordination Sequence:
#
# PCOD8264073 Si02
#       6
#    16  16  16  16  16  16
#     4  10  22  43  70  94 122 155 198 259 323 379
#     4  10  21  41  62  87 125 161 208 254 308 370
#     4  11  23  40  58  90 123 165 214 252 298 363
#     4  11  24  41  58  87 127 168 214 254 309 362
#     4  10  23  39  62  85 124 171 207 250 303 363
#     4  11  23  40  63  91 125 162 204 261 306 364
#
# _framework density 20.251888999999998
#
# number of rings (size 3 to 8) (size 9 to 14) (size 15 to 20)
#    0.000    1.500    3.333    3.000    4.667    5.000 
#    0.000    1.667    0.000    0.000    0.000    0.000 
#    0.000    0.000    0.000    0.000    0.000    0.000 
#
# Total GULP energy -595038.502015 kJ/mol
# GULP energy per Si atom -12396.635459 kJ/mol
# Density = 2.020579 g / cm^3
# Si number density = 20.251889 Si / 1000 Ang^3
#
#
#
# Elastic Constant Matrix: (Units=GPa)
#
#
# Indices 1 2 3 4 5 6 
#
# 1 75.4101 44.8703 51.4723 0.0000 0.0000 0.0000
# 2 44.8703 104.5188 70.9856 0.0000 0.0000 0.0000
# 3 51.4723 70.9856 150.0662 0.0000 0.0000 0.0000
# 4 0.0000 0.0000 0.0000 46.6342 0.0000 0.0000
# 5 0.0000 0.0000 0.0000 0.0000 18.2469 0.0000
# 6 0.0000 0.0000 0.0000 0.0000 0.0000 20.4156
#
#
#
# Elastic Compliance Matrix: (Units=1/GPa)
#
#
# Indices 1 2 3 4 5 6 
#
# 1 0.019298 -0.005583 -0.003978 0.000000 0.000000 0.000000
# 2 -0.005583 0.015711 -0.005517 0.000000 0.000000 0.000000
# 3 -0.003978 -0.005517 0.010638 0.000000 0.000000 0.000000
# 4 0.000000 0.000000 0.000000 0.021444 0.000000 0.000000
# 5 0.000000 0.000000 0.000000 0.000000 0.054804 0.000000
# 6 0.000000 0.000000 0.000000 0.000000 0.000000 0.048982
#
#
# Mechanical properties :
#
#
# Convention : Reuss Voigt Hill
#
# Bulk Modulus (GPa) = 64.55317 73.85017 69.20167
# Shear Modulus (GPa) = 24.24863 27.90380 26.07621
#
# Velocity S-wave (km/s) = 3.46403 3.71595 3.59220
# Velocity P-wave (km/s) = 6.92414 7.41323 7.17286
#
# Compressibility (1/GPa) = 0.01549111
#
# Stress axis : x y z
#
# Youngs Moduli (GPa) = 51.81837 63.64824 94.00233
#
# Poissons Ratio (x) = 0.35533 0.37398
# Poissons Ratio (y) = 0.28929 0.51862
# Poissons Ratio (z) = 0.20615 0.35115
#
# Static dielectric constant tensor:
#      x y z
#    x 3.503200 0.000000 0.000000 
#    y 0.000000 3.953530 0.000000 
#    z 0.000000 0.000000 3.915530 
# 
# 
# High freq. dielectric constant tensor:
#      x y z
#    x 1.753390 0.000000 0.000000 
#    y 0.000000 1.807750 0.000000 
#    z 0.000000 0.000000 1.802830 
# 
# From -- ./inp_files/10355.got.cif
#   From: 2010.03.12/outbox.cif.g09.slc.cpg/sg64_6_cif.got.tgz:10355.got - 2010.04.10 20:19:32.
