data_PCOD8264094
_publ_section_title
;
Structure prediction by ZEFSAII (Michael W. Deem and Ramdas Pophale) SiO2 
 PCOD8264094
Probable space group: C M C A
;
_chemical_formula_sum "Si O2"
_cell_formula_units_Z 64
_cell_length_a 17.499530
_cell_length_b 18.802570
_cell_length_c 9.399593
_cell_angle_alpha 90.000000
_cell_angle_beta 90.000000
_cell_angle_gamma 90.000000
_cell_volume 3092.805778
_symmetry_space_group_name_H-M "C M C A"
_symmetry_group_IT_number 64
_symmetry_cell_setting 'orthorhombic'
loop_
_space_group_symop_operation_xyz
x,y,z
-x,1/2-y,1/2+z
x,-y,-z
-x,1/2+y,1/2-z
-x,-y,-z
x,1/2+y,1/2-z
-x,y,z
x,1/2-y,1/2+z
1/2+x,1/2+y,z
1/2-x,-y,1/2+z
1/2+x,1/2-y,-z
1/2-x,y,1/2-z
1/2-x,1/2-y,-z
1/2+x,y,1/2-z
1/2-x,1/2+y,z
1/2+x,-y,1/2+z
loop_
_atom_site_type_symbol
_atom_site_label
_atom_site_fract_x
_atom_site_fract_y
_atom_site_fract_z
Si Si1 0.589690 0.055915 0.113462
Si Si2 0.090046 0.207532 0.491118
Si Si3 0.838198 0.816833 0.212870
Si Si4 0.825820 0.521235 0.661103
O O1 0.500000 0.057891 0.095981
O O2 0.621079 0.134488 0.079466
O O3 0.610910 0.031638 0.272565
O O4 0.625290 0.000000 0.000000
O O5 0.138268 0.271098 0.423360
O O6 0.107447 0.206220 0.658160
O O7 0.000000 0.219427 0.467524
O O8 0.750000 0.803749 0.250000
O O9 0.854634 0.898266 0.172899
O O10 0.810983 0.500000 0.500000
O O11 0.750000 0.508180 0.750000
#
# Coordination Sequence:
#
# PCOD8264094 Si02
#       4
#    16  16  16  16
#     4  10  21  41  66  91 126 174 218 269 330 385
#     4  11  24  43  67  95 133 177 221 271 331 393
#     4  11  25  43  65  98 132 174 220 271 329 393
#     4  11  25  42  67  97 131 170 219 275 326 394
#
# _framework density 20.693185
#
# number of rings (size 3 to 8) (size 9 to 14) (size 15 to 20)
#    0.000    1.250    2.500    2.250    7.000    2.500 
#    0.000    0.000    0.000    0.000    0.000    0.000 
#    0.000    0.000    0.000    0.000    0.000    0.000 
#
# Total GULP energy -396976.308064 kJ/mol
# GULP energy per Si atom -12405.509627 kJ/mol
# Density = 2.064609 g / cm^3
# Si number density = 20.693185 Si / 1000 Ang^3
#
#
#
# Elastic Constant Matrix: (Units=GPa)
#
#
# Indices 1 2 3 4 5 6 
#
# 1 38.5815 17.3711 10.3144 0.0000 0.0000 0.0000
# 2 17.3711 77.0566 36.1008 0.0000 0.0000 0.0000
# 3 10.3144 36.1008 139.0514 0.0000 0.0000 0.0000
# 4 0.0000 0.0000 0.0000 39.7174 0.0000 0.0000
# 5 0.0000 0.0000 0.0000 0.0000 38.4268 0.0000
# 6 0.0000 0.0000 0.0000 0.0000 0.0000 24.7788
#
#
#
# Elastic Compliance Matrix: (Units=1/GPa)
#
#
# Indices 1 2 3 4 5 6 
#
# 1 0.028879 -0.006269 -0.000515 0.000000 0.000000 0.000000
# 2 -0.006269 0.016136 -0.003724 0.000000 0.000000 0.000000
# 3 -0.000515 -0.003724 0.008197 0.000000 0.000000 0.000000
# 4 0.000000 0.000000 0.000000 0.025178 0.000000 0.000000
# 5 0.000000 0.000000 0.000000 0.000000 0.026024 0.000000
# 6 0.000000 0.000000 0.000000 0.000000 0.000000 0.040357
#
#
# Mechanical properties :
#
#
# Convention : Reuss Voigt Hill
#
# Bulk Modulus (GPa) = 31.06009 42.47357 36.76683
# Shear Modulus (GPa) = 28.32574 33.31147 30.81861
#
# Velocity S-wave (km/s) = 3.70380 4.01656 3.86335
# Velocity P-wave (km/s) = 5.77350 6.48693 6.14058
#
# Compressibility (1/GPa) = 0.03219565
#
# Stress axis : x y z
#
# Youngs Moduli (GPa) = 34.62671 61.97509 122.00165
#
# Poissons Ratio (x) = 0.38854 0.06277
# Poissons Ratio (y) = 0.21709 0.45435
# Poissons Ratio (z) = 0.01782 0.23080
#
# Static dielectric constant tensor:
#      x y z
#    x 3.636220 0.000000 0.000000 
#    y 0.000000 3.990890 0.000000 
#    z 0.000000 0.000000 3.959670 
# 
# 
# High freq. dielectric constant tensor:
#      x y z
#    x 1.808010 0.000000 0.000000 
#    y 0.000000 1.821120 0.000000 
#    z 0.000000 0.000000 1.812380 
# 
# From -- ./inp_files/6558.got.cif
#   From: 2010.03.12/outbox.cif.g09.slc.cpg/sg64_4_cif.got.tgz:6558.got - 2010.04.10 20:19:32.
