data_PCOD8264267
_publ_section_title
;
Structure prediction by ZEFSAII (Michael W. Deem and Ramdas Pophale) SiO2 
 PCOD8264267
Probable space group: C M C A
;
_chemical_formula_sum "Si O2"
_cell_formula_units_Z 64
_cell_length_a 8.987432
_cell_length_b 9.865671
_cell_length_c 34.914742
_cell_angle_alpha 90.000000
_cell_angle_beta 90.000000
_cell_angle_gamma 90.000000
_cell_volume 3095.787079
_symmetry_space_group_name_H-M "C M C A"
_symmetry_group_IT_number 64
_symmetry_cell_setting 'orthorhombic'
loop_
_space_group_symop_operation_xyz
x,y,z
-x,1/2-y,1/2+z
x,-y,-z
-x,1/2+y,1/2-z
-x,-y,-z
x,1/2+y,1/2-z
-x,y,z
x,1/2-y,1/2+z
1/2+x,1/2+y,z
1/2-x,-y,1/2+z
1/2+x,1/2-y,-z
1/2-x,y,1/2-z
1/2-x,1/2-y,-z
1/2+x,y,1/2-z
1/2-x,1/2+y,z
1/2+x,-y,1/2+z
loop_
_atom_site_type_symbol
_atom_site_label
_atom_site_fract_x
_atom_site_fract_y
_atom_site_fract_z
Si Si1 0.828593 0.241034 0.666352
Si Si2 0.828480 0.725599 0.086230
Si Si3 0.328664 0.452973 0.458310
Si Si4 0.671356 0.472008 0.711191
O O1 0.767671 0.254266 0.623888
O O2 0.741128 0.333619 0.696101
O O3 0.808314 0.086023 0.678978
O O4 0.000000 0.285172 0.666635
O O5 0.773187 0.827106 0.053420
O O6 0.807001 0.572867 0.072057
O O7 0.000000 0.756064 0.095569
O O8 0.274730 0.500000 0.500000
O O9 0.500000 0.405473 0.459737
O O10 0.500000 0.444453 0.720425
O O11 0.750000 0.519887 0.750000
#
# Coordination Sequence:
#
# PCOD8264267 Si02
#       4
#    16  16  16  16
#     4  11  24  41  62  88 120 158 197 241 293 348
#     4  11  23  38  60  89 118 153 198 244 293 351
#     4  10  22  40  60  85 119 156 196 244 296 352
#     4  11  24  41  62  89 119 153 195 240 289 346
#
# _framework density 20.673255999999999
#
# number of rings (size 3 to 8) (size 9 to 14) (size 15 to 20)
#    0.000    1.250    0.000    5.250    0.000   14.500 
#    0.000    0.000    0.000    0.000    0.000    0.000 
#    0.000    0.000    0.000    0.000    0.000    0.000 
#
# Total GULP energy -397072.307802 kJ/mol
# GULP energy per Si atom -12408.509619 kJ/mol
# Density = 2.062620 g / cm^3
# Si number density = 20.673256 Si / 1000 Ang^3
#
#
#
# Elastic Constant Matrix: (Units=GPa)
#
#
# Indices 1 2 3 4 5 6 
#
# 1 117.7759 36.5098 30.1610 0.0000 0.0000 0.0000
# 2 36.5098 53.8580 -4.8472 0.0000 0.0000 0.0000
# 3 30.1610 -4.8472 94.1106 0.0000 0.0000 0.0000
# 4 0.0000 0.0000 0.0000 35.2009 0.0000 0.0000
# 5 0.0000 0.0000 0.0000 0.0000 39.8692 0.0000
# 6 0.0000 0.0000 0.0000 0.0000 0.0000 34.2238
#
#
#
# Elastic Compliance Matrix: (Units=1/GPa)
#
#
# Indices 1 2 3 4 5 6 
#
# 1 0.012333 -0.008757 -0.004404 0.000000 0.000000 0.000000
# 2 -0.008757 0.024871 0.004087 0.000000 0.000000 0.000000
# 3 -0.004404 0.004087 0.012248 0.000000 0.000000 0.000000
# 4 0.000000 0.000000 0.000000 0.028408 0.000000 0.000000
# 5 0.000000 0.000000 0.000000 0.000000 0.025082 0.000000
# 6 0.000000 0.000000 0.000000 0.000000 0.000000 0.029219
#
#
# Mechanical properties :
#
#
# Convention : Reuss Voigt Hill
#
# Bulk Modulus (GPa) = 31.94265 43.26576 37.60420
# Shear Modulus (GPa) = 31.10565 35.45351 33.27958
#
# Velocity S-wave (km/s) = 3.88317 4.14568 4.01657
# Velocity P-wave (km/s) = 5.96574 6.62491 6.30394
#
# Compressibility (1/GPa) = 0.03130611
#
# Stress axis : x y z
#
# Youngs Moduli (GPa) = 81.08399 40.20707 81.64886
#
# Poissons Ratio (x) = 0.35208 0.35954
# Poissons Ratio (y) = 0.71002 -0.33373
# Poissons Ratio (z) = 0.35705 -0.16434
#
# Static dielectric constant tensor:
#      x y z
#    x 3.869350 0.000000 0.000000 
#    y 0.000000 3.762280 0.000000 
#    z 0.000000 0.000000 3.839300 
# 
# 
# High freq. dielectric constant tensor:
#      x y z
#    x 1.818990 0.000000 0.000000 
#    y 0.000000 1.815720 0.000000 
#    z 0.000000 0.000000 1.824530 
# 
# From -- ./inp_files/51530.got.cif
#   From: 2010.03.12/outbox.cif.g09.slc.cpg/sg64_26_cif.got.tgz:51530.got - 2010.04.10 20:19:32.
