data_PCOD8264946
_publ_section_title
;
Structure prediction by ZEFSAII (Michael W. Deem and Ramdas Pophale) SiO2 
 PCOD8264946
Probable space group: C M C A
;
_chemical_formula_sum "Si O2"
_cell_formula_units_Z 40
_cell_length_a 29.597109
_cell_length_b 4.771661
_cell_length_c 10.655002
_cell_angle_alpha 90.000000
_cell_angle_beta 90.000000
_cell_angle_gamma 90.000000
_cell_volume 1504.777918
_symmetry_space_group_name_H-M "C M C A"
_symmetry_group_IT_number 64
_symmetry_cell_setting 'orthorhombic'
loop_
_space_group_symop_operation_xyz
x,y,z
-x,1/2-y,1/2+z
x,-y,-z
-x,1/2+y,1/2-z
-x,-y,-z
x,1/2+y,1/2-z
-x,y,z
x,1/2-y,1/2+z
1/2+x,1/2+y,z
1/2-x,-y,1/2+z
1/2+x,1/2-y,-z
1/2-x,y,1/2-z
1/2-x,1/2-y,-z
1/2+x,y,1/2-z
1/2-x,1/2+y,z
1/2+x,-y,1/2+z
loop_
_atom_site_type_symbol
_atom_site_label
_atom_site_fract_x
_atom_site_fract_y
_atom_site_fract_z
Si Si1 0.500000 0.783907 0.170638
Si Si2 0.577554 0.500000 0.500000
Si Si3 0.366366 0.408981 0.165111
Si Si4 0.716197 0.000000 0.500000
O O1 0.500000 0.450371 0.195789
O O2 0.453959 0.862174 0.104018
O O3 0.606998 0.235131 0.549162
O O4 0.377458 0.727191 0.208671
O O5 0.314467 0.437728 0.122685
O O6 0.750000 0.750000 0.500000
#
# Coordination Sequence:
#
# PCOD8264946 Si02
#       4
#     8   8  16   8
#     4  11  26  45  72 106 148 198 250 308 370 442
#     4  11  25  46  73 108 152 196 253 310 371 445
#     4  12  26  45  73 106 146 194 244 303 371 442
#     4  12  27  48  73 107 146 187 243 304 365 444
#
# _framework density 26.581999
#
# number of rings (size 3 to 8) (size 9 to 14) (size 15 to 20)
#    0.000    0.400    0.000    8.400    0.000   14.400 
#    0.000    0.000    0.000    0.000    0.000    0.000 
#    0.000    0.000    0.000    0.000    0.000    0.000 
#
# Total GULP energy -247817.468494 kJ/mol
# GULP energy per Si atom -12390.873425 kJ/mol
# Density = 2.652150 g / cm^3
# Si number density = 26.581999 Si / 1000 Ang^3
#
#
#
# Elastic Constant Matrix: (Units=GPa)
#
#
# Indices 1 2 3 4 5 6 
#
# 1 175.8061 60.4969 32.7629 0.0000 0.0000 0.0000
# 2 60.4969 156.0200 24.4680 0.0000 0.0000 0.0000
# 3 32.7629 24.4680 78.9368 0.0000 0.0000 0.0000
# 4 0.0000 0.0000 0.0000 42.1228 0.0000 0.0000
# 5 0.0000 0.0000 0.0000 0.0000 40.7790 0.0000
# 6 0.0000 0.0000 0.0000 0.0000 0.0000 47.8355
#
#
#
# Elastic Compliance Matrix: (Units=1/GPa)
#
#
# Indices 1 2 3 4 5 6 
#
# 1 0.006890 -0.002337 -0.002135 0.000000 0.000000 0.000000
# 2 -0.002337 0.007529 -0.001364 0.000000 0.000000 0.000000
# 3 -0.002135 -0.001364 0.013977 0.000000 0.000000 0.000000
# 4 0.000000 0.000000 0.000000 0.023740 0.000000 0.000000
# 5 0.000000 0.000000 0.000000 0.000000 0.024522 0.000000
# 6 0.000000 0.000000 0.000000 0.000000 0.000000 0.020905
#
#
# Mechanical properties :
#
#
# Convention : Reuss Voigt Hill
#
# Bulk Modulus (GPa) = 59.79210 71.80205 65.79708
# Shear Modulus (GPa) = 43.54949 45.68313 44.61631
#
# Velocity S-wave (km/s) = 4.05199 4.15007 4.10132
# Velocity P-wave (km/s) = 6.66587 7.07349 6.87270
#
# Compressibility (1/GPa) = 0.01672462
#
# Stress axis : x y z
#
# Youngs Moduli (GPa) = 145.13469 132.81222 71.54361
#
# Poissons Ratio (x) = 0.31035 0.15278
# Poissons Ratio (y) = 0.33915 0.09759
# Poissons Ratio (z) = 0.30993 0.18116
#
# Static dielectric constant tensor:
#      x y z
#    x 5.041100 0.000000 0.000000 
#    y 0.000000 5.284990 0.000000 
#    z 0.000000 0.000000 5.025930 
# 
# 
# High freq. dielectric constant tensor:
#      x y z
#    x 2.082610 0.000000 0.000000 
#    y 0.000000 2.098160 0.000000 
#    z 0.000000 0.000000 2.078220 
# 
# From -- ./inp_files/18783.got.cif
#   From: 2010.03.12/outbox.cif.g09.slc.cpg/sg64_10_cif.got.tgz:18783.got - 2010.04.10 20:19:32.
