data_PCOD8264886
_publ_section_title
;
Structure prediction by ZEFSAII (Michael W. Deem and Ramdas Pophale) SiO2 
 PCOD8264886
Probable space group: C M C A
;
_chemical_formula_sum "Si O2"
_cell_formula_units_Z 80
_cell_length_a 17.923450
_cell_length_b 28.231482
_cell_length_c 8.327257
_cell_angle_alpha 90.000000
_cell_angle_beta 90.000000
_cell_angle_gamma 90.000000
_cell_volume 4213.638309
_symmetry_space_group_name_H-M "C M C A"
_symmetry_group_IT_number 64
_symmetry_cell_setting 'orthorhombic'
loop_
_space_group_symop_operation_xyz
x,y,z
-x,1/2-y,1/2+z
x,-y,-z
-x,1/2+y,1/2-z
-x,-y,-z
x,1/2+y,1/2-z
-x,y,z
x,1/2-y,1/2+z
1/2+x,1/2+y,z
1/2-x,-y,1/2+z
1/2+x,1/2-y,-z
1/2-x,y,1/2-z
1/2-x,1/2-y,-z
1/2+x,y,1/2-z
1/2-x,1/2+y,z
1/2+x,-y,1/2+z
loop_
_atom_site_type_symbol
_atom_site_label
_atom_site_fract_x
_atom_site_fract_y
_atom_site_fract_z
Si Si1 0.214575 0.449804 0.420664
Si Si2 0.416327 0.891278 0.328447
Si Si3 0.674431 0.780083 0.837384
Si Si4 0.200694 0.361472 0.092900
Si Si5 0.415258 0.202487 0.470093
O O1 0.224126 0.500000 0.500000
O O2 0.250000 0.456674 0.250000
O O3 0.127815 0.435571 0.405341
O O4 0.261002 0.406107 0.501370
O O5 0.500000 0.908036 0.293231
O O6 0.381436 0.874841 0.158058
O O7 0.413815 0.849410 0.456943
O O8 0.750000 0.763006 0.750000
O O9 0.637087 0.735509 0.922531
O O10 0.616147 0.801271 0.710109
O O11 0.695681 0.818502 0.970778
O O12 0.250000 0.348123 0.250000
O O13 0.500000 0.222473 0.465556
#
# Coordination Sequence:
#
# PCOD8264886 Si02
#       5
#    16  16  16  16  16
#     4   9  19  35  56  80 106 136 174 221 277 327
#     4   9  19  37  57  78 108 144 183 223 268 326
#     4  12  23  36  57  82 111 147 194 234 268 323
#     4   9  20  38  56  80 109 141 181 227 278 322
#     4  11  24  38  53  80 116 151 184 225 279 329
#
# _framework density 18.985968
#
# number of rings (size 3 to 8) (size 9 to 14) (size 15 to 20)
#    0.000    2.400    0.000    4.800    0.000   10.000 
#    0.000    0.000    0.000    9.600    0.000    0.000 
#    0.000    0.000    0.000    0.000    0.000    0.000 
#
# Total GULP energy -495800.508883 kJ/mol
# GULP energy per Si atom -12395.012722 kJ/mol
# Density = 1.894275 g / cm^3
# Si number density = 18.985968 Si / 1000 Ang^3
#
#
#
# Elastic Constant Matrix: (Units=GPa)
#
#
# Indices 1 2 3 4 5 6 
#
# 1 125.8836 31.3780 30.8820 0.0000 0.0000 0.0000
# 2 31.3780 57.4961 13.3545 0.0000 0.0000 0.0000
# 3 30.8820 13.3545 49.8638 0.0000 0.0000 0.0000
# 4 0.0000 0.0000 0.0000 38.4804 0.0000 0.0000
# 5 0.0000 0.0000 0.0000 0.0000 27.9357 0.0000
# 6 0.0000 0.0000 0.0000 0.0000 0.0000 27.4338
#
#
#
# Elastic Compliance Matrix: (Units=1/GPa)
#
#
# Indices 1 2 3 4 5 6 
#
# 1 0.010325 -0.004425 -0.005209 0.000000 0.000000 0.000000
# 2 -0.004425 0.020442 -0.002735 0.000000 0.000000 0.000000
# 3 -0.005209 -0.002735 0.024013 0.000000 0.000000 0.000000
# 4 0.000000 0.000000 0.000000 0.025987 0.000000 0.000000
# 5 0.000000 0.000000 0.000000 0.000000 0.035797 0.000000
# 6 0.000000 0.000000 0.000000 0.000000 0.000000 0.036451
#
#
# Mechanical properties :
#
#
# Convention : Reuss Voigt Hill
#
# Bulk Modulus (GPa) = 33.28541 42.71919 38.00230
# Shear Modulus (GPa) = 26.62873 29.27856 27.95365
#
# Velocity S-wave (km/s) = 3.74912 3.93124 3.84126
# Velocity P-wave (km/s) = 6.02585 6.56928 6.30342
#
# Compressibility (1/GPa) = 0.03004319
#
# Stress axis : x y z
#
# Youngs Moduli (GPa) = 96.85498 48.91809 41.64359
#
# Poissons Ratio (x) = 0.21645 0.21694
# Poissons Ratio (y) = 0.42855 0.11388
# Poissons Ratio (z) = 0.50455 0.13377
#
# Static dielectric constant tensor:
#      x y z
#    x 4.104720 0.000000 0.000000 
#    y 0.000000 1.236040 0.000000 
#    z 0.000000 0.000000 3.448420 
# 
# 
# High freq. dielectric constant tensor:
#      x y z
#    x 1.753470 0.000000 0.000000 
#    y 0.000000 1.730870 0.000000 
#    z 0.000000 0.000000 1.726950 
# 
# From -- ./inp_files/7268.got.cif
#   From: 2010.03.12/outbox.cif.g09.slc.cpg/sg64_4_cif.got.tgz:7268.got - 2010.04.10 20:19:32.
