data_PCOD8264808
_publ_section_title
;
Structure prediction by ZEFSAII (Michael W. Deem and Ramdas Pophale) SiO2 
 PCOD8264808
Probable space group: C M C A
;
_chemical_formula_sum "Si O2"
_cell_formula_units_Z 64
_cell_length_a 32.549813
_cell_length_b 8.445115
_cell_length_c 9.092040
_cell_angle_alpha 90.000000
_cell_angle_beta 90.000000
_cell_angle_gamma 90.000000
_cell_volume 2499.282818
_symmetry_space_group_name_H-M "C M C A"
_symmetry_group_IT_number 64
_symmetry_cell_setting 'orthorhombic'
loop_
_space_group_symop_operation_xyz
x,y,z
-x,1/2-y,1/2+z
x,-y,-z
-x,1/2+y,1/2-z
-x,-y,-z
x,1/2+y,1/2-z
-x,y,z
x,1/2-y,1/2+z
1/2+x,1/2+y,z
1/2-x,-y,1/2+z
1/2+x,1/2-y,-z
1/2-x,y,1/2-z
1/2-x,1/2-y,-z
1/2+x,y,1/2-z
1/2-x,1/2+y,z
1/2+x,-y,1/2+z
loop_
_atom_site_type_symbol
_atom_site_label
_atom_site_fract_x
_atom_site_fract_y
_atom_site_fract_z
Si Si1 0.671778 0.945661 0.285292
Si Si2 0.547015 0.234567 0.545790
Si Si3 0.421412 0.553987 0.214386
Si Si4 0.703360 0.231934 0.454020
O O1 0.675098 0.800689 0.402659
O O2 0.687104 0.890597 0.125258
O O3 0.625328 0.001641 0.280131
O O4 0.701096 0.086189 0.339800
O O5 0.500000 0.258646 0.498756
O O6 0.574254 0.201279 0.400260
O O7 0.563786 0.392600 0.624614
O O8 0.549781 0.087220 0.658429
O O9 0.750000 0.250000 0.500000
#
# Coordination Sequence:
#
# PCOD8264808 Si02
#       4
#    16  16  16  16
#     4  11  26  48  71 104 142 189 239 299 367 435
#     4  11  22  42  69 104 141 184 236 294 353 424
#     4  11  24  44  69 100 142 187 233 292 358 427
#     4  11  25  46  72 104 143 187 239 301 364 433
#
# _framework density 25.607344999999999
#
# number of rings (size 3 to 8) (size 9 to 14) (size 15 to 20)
#    0.000    1.000    0.000    8.250    0.000   10.000 
#    0.000    7.500    0.000    0.000    0.000    0.000 
#    0.000    0.000    0.000    0.000    0.000    0.000 
#
# Total GULP energy -396999.588362 kJ/mol
# GULP energy per Si atom -12406.237136 kJ/mol
# Density = 2.554906 g / cm^3
# Si number density = 25.607345 Si / 1000 Ang^3
#
#
#
# Elastic Constant Matrix: (Units=GPa)
#
#
# Indices 1 2 3 4 5 6 
#
# 1 227.7368 59.3394 84.6443 0.0000 0.0000 0.0000
# 2 59.3394 23.8710 42.0270 0.0000 0.0000 0.0000
# 3 84.6443 42.0270 122.0624 0.0000 0.0000 0.0000
# 4 0.0000 0.0000 0.0000 75.4121 0.0000 0.0000
# 5 0.0000 0.0000 0.0000 0.0000 42.1339 0.0000
# 6 0.0000 0.0000 0.0000 0.0000 0.0000 46.3974
#
#
#
# Elastic Compliance Matrix: (Units=1/GPa)
#
#
# Indices 1 2 3 4 5 6 
#
# 1 0.013879 -0.044581 0.005725 0.000000 0.000000 0.000000
# 2 -0.044581 0.249571 -0.055015 0.000000 0.000000 0.000000
# 3 0.005725 -0.055015 0.023164 0.000000 0.000000 0.000000
# 4 0.000000 0.000000 0.000000 0.013260 0.000000 0.000000
# 5 0.000000 0.000000 0.000000 0.000000 0.023734 0.000000
# 6 0.000000 0.000000 0.000000 0.000000 0.000000 0.021553
#
#
# Mechanical properties :
#
#
# Convention : Reuss Voigt Hill
#
# Bulk Modulus (GPa) = 10.11392 82.85461 46.48427
# Shear Modulus (GPa) = 8.83610 45.29930 27.06770
#
# Velocity S-wave (km/s) = 1.85960 4.21051 3.25472
# Velocity P-wave (km/s) = 2.92728 7.48758 5.68475
#
# Compressibility (1/GPa) = 0.09887358
#
# Stress axis : x y z
#
# Youngs Moduli (GPa) = 72.04998 4.00688 43.16953
#
# Poissons Ratio (x) = 0.17863 -0.24714
# Poissons Ratio (y) = 3.21205 2.37495
# Poissons Ratio (z) = -0.41248 0.22044
#
# Static dielectric constant tensor:
#      x y z
#    x 4.331520 0.000000 0.000000 
#    y 0.000000 5.084490 0.000000 
#    z 0.000000 0.000000 5.040450 
# 
# 
# High freq. dielectric constant tensor:
#      x y z
#    x 2.020320 0.000000 0.000000 
#    y 0.000000 2.030460 0.000000 
#    z 0.000000 0.000000 2.036280 
# 
# From -- ./inp_files/19488.got.cif
#   From: 2010.03.12/outbox.cif.g09.slc.cpg/sg64_10_cif.got.tgz:19488.got - 2010.04.10 20:19:32.
