data_PCOD8264588
_publ_section_title
;
Structure prediction by ZEFSAII (Michael W. Deem and Ramdas Pophale) SiO2 
 PCOD8264588
Probable space group: C M C A
;
_chemical_formula_sum "Si O2"
_cell_formula_units_Z 112
_cell_length_a 14.731365
_cell_length_b 27.563580
_cell_length_c 13.814569
_cell_angle_alpha 90.000000
_cell_angle_beta 90.000000
_cell_angle_gamma 90.000000
_cell_volume 5609.394106
_symmetry_space_group_name_H-M "C M C A"
_symmetry_group_IT_number 64
_symmetry_cell_setting 'orthorhombic'
loop_
_space_group_symop_operation_xyz
x,y,z
-x,1/2-y,1/2+z
x,-y,-z
-x,1/2+y,1/2-z
-x,-y,-z
x,1/2+y,1/2-z
-x,y,z
x,1/2-y,1/2+z
1/2+x,1/2+y,z
1/2-x,-y,1/2+z
1/2+x,1/2-y,-z
1/2-x,y,1/2-z
1/2-x,1/2-y,-z
1/2+x,y,1/2-z
1/2-x,1/2+y,z
1/2+x,-y,1/2+z
loop_
_atom_site_type_symbol
_atom_site_label
_atom_site_fract_x
_atom_site_fract_y
_atom_site_fract_z
Si Si1 0.737945 0.281742 0.858350
Si Si2 0.834761 0.389175 0.654960
Si Si3 0.390516 0.280438 0.486077
Si Si4 0.500000 0.969539 0.349056
Si Si5 0.654315 0.964560 0.204209
Si Si6 0.150683 0.431050 0.856435
Si Si7 0.000000 0.427337 0.559187
Si Si8 0.100964 0.110757 0.556365
O O1 0.750000 0.260655 0.750000
O O2 0.715445 0.338274 0.852837
O O3 0.650899 0.256665 0.908225
O O4 0.833586 0.273440 0.914384
O O5 0.875565 0.399022 0.761934
O O6 0.759846 0.430142 0.630268
O O7 0.913184 0.393414 0.576152
O O8 0.500000 0.272532 0.501990
O O9 0.368709 0.333452 0.443131
O O10 0.587413 0.951483 0.291166
O O11 0.500000 0.942331 0.449499
O O12 0.500000 0.027400 0.366715
O O13 0.750000 0.975801 0.250000
O O14 0.664312 0.920917 0.126963
O O15 0.618431 0.013285 0.151788
O O16 0.100279 0.408232 0.947111
O O17 0.000000 0.105524 0.598260
#
# Coordination Sequence:
#
# PCOD8264588 Si02
#       8
#    16  16  16   8  16  16   8  16
#     4  11  22  43  70  97 129 160 212 275 327 385
#     4  11  21  40  62  99 121 162 208 265 317 383
#     4  10  24  44  65  95 131 168 212 260 324 399
#     4  11  24  42  56  90 125 178 219 255 315 376
#     4  12  24  40  61  88 127 171 217 261 304 382
#     4  11  21  40  62  94 125 156 213 257 321 368
#     4  11  24  38  63  83 136 167 211 267 315 375
#     4  11  24  40  64  89 125 169 207 259 313 373
#
# _framework density 19.966505999999999
#
# number of rings (size 3 to 8) (size 9 to 14) (size 15 to 20)
#    0.000    1.000    6.429    0.429    5.000    1.714 
#    0.000    1.429    0.000    0.000    0.000    0.000 
#    0.000    0.000    0.000    0.000    0.000    0.000 
#
# Total GULP energy -694403.024880 kJ/mol
# GULP energy per Si atom -12400.054016 kJ/mol
# Density = 1.992106 g / cm^3
# Si number density = 19.966506 Si / 1000 Ang^3
#
#
#
# Elastic Constant Matrix: (Units=GPa)
#
#
# Indices 1 2 3 4 5 6 
#
# 1 107.0105 30.0272 44.6402 0.0000 0.0000 0.0000
# 2 30.0272 77.0719 43.5712 0.0000 0.0000 0.0000
# 3 44.6402 43.5712 107.6676 0.0000 0.0000 0.0000
# 4 0.0000 0.0000 0.0000 27.8308 0.0000 0.0000
# 5 0.0000 0.0000 0.0000 0.0000 22.9022 0.0000
# 6 0.0000 0.0000 0.0000 0.0000 0.0000 29.9827
#
#
#
# Elastic Compliance Matrix: (Units=1/GPa)
#
#
# Indices 1 2 3 4 5 6 
#
# 1 0.011615 -0.002338 -0.003870 0.000000 0.000000 0.000000
# 2 -0.002338 0.017294 -0.006030 0.000000 0.000000 0.000000
# 3 -0.003870 -0.006030 0.013332 0.000000 0.000000 0.000000
# 4 0.000000 0.000000 0.000000 0.035931 0.000000 0.000000
# 5 0.000000 0.000000 0.000000 0.000000 0.043664 0.000000
# 6 0.000000 0.000000 0.000000 0.000000 0.000000 0.033353
#
#
# Mechanical properties :
#
#
# Convention : Reuss Voigt Hill
#
# Bulk Modulus (GPa) = 56.28084 58.69191 57.48638
# Shear Modulus (GPa) = 26.94170 27.71058 27.32614
#
# Velocity S-wave (km/s) = 3.67733 3.72943 3.70347
# Velocity P-wave (km/s) = 6.80288 6.92848 6.86597
#
# Compressibility (1/GPa) = 0.01776804
#
# Stress axis : x y z
#
# Youngs Moduli (GPa) = 86.09480 57.82251 75.00547
#
# Poissons Ratio (x) = 0.13516 0.29026
# Poissons Ratio (y) = 0.20125 0.45225
# Poissons Ratio (z) = 0.33317 0.34864
#
# Static dielectric constant tensor:
#      x y z
#    x 3.607670 0.000000 0.000000 
#    y 0.000000 3.583700 0.000000 
#    z 0.000000 0.000000 3.624280 
# 
# 
# High freq. dielectric constant tensor:
#      x y z
#    x 1.782950 0.000000 0.000000 
#    y 0.000000 1.770380 0.000000 
#    z 0.000000 0.000000 1.779560 
# 
# From -- ./inp_files/24447.got.cif
#   From: 2010.03.12/outbox.cif.g09.slc.cpg/sg64_13_cif.got.tgz:24447.got - 2010.04.10 20:19:32.
