data_PCOD8264910
_publ_section_title
;
Structure prediction by ZEFSAII (Michael W. Deem and Ramdas Pophale) SiO2 
 PCOD8264910
Probable space group: C M C A
;
_chemical_formula_sum "Si O2"
_cell_formula_units_Z 104
_cell_length_a 23.298633
_cell_length_b 20.861463
_cell_length_c 9.302472
_cell_angle_alpha 90.000000
_cell_angle_beta 90.000000
_cell_angle_gamma 90.000000
_cell_volume 4521.406703
_symmetry_space_group_name_H-M "C M C A"
_symmetry_group_IT_number 64
_symmetry_cell_setting 'orthorhombic'
loop_
_space_group_symop_operation_xyz
x,y,z
-x,1/2-y,1/2+z
x,-y,-z
-x,1/2+y,1/2-z
-x,-y,-z
x,1/2+y,1/2-z
-x,y,z
x,1/2-y,1/2+z
1/2+x,1/2+y,z
1/2-x,-y,1/2+z
1/2+x,1/2-y,-z
1/2-x,y,1/2-z
1/2-x,1/2-y,-z
1/2+x,y,1/2-z
1/2-x,1/2+y,z
1/2+x,-y,1/2+z
loop_
_atom_site_type_symbol
_atom_site_label
_atom_site_fract_x
_atom_site_fract_y
_atom_site_fract_z
Si Si1 0.336786 0.070690 0.003594
Si Si2 0.220612 0.305131 0.903612
Si Si3 0.814121 0.907385 0.203836
Si Si4 0.063889 0.712454 0.394200
Si Si5 0.628554 0.781579 0.329659
Si Si6 0.877105 0.000000 0.000000
Si Si7 0.434069 0.422720 0.745884
O O1 0.285018 0.122690 0.032150
O O2 0.390869 0.070486 0.111325
O O3 0.357483 0.081962 0.839222
O O4 0.308028 0.000000 0.000000
O O5 0.250000 0.310556 0.750000
O O6 0.154694 0.285493 0.882186
O O7 0.250000 0.250000 0.000000
O O8 0.750000 0.926694 0.250000
O O9 0.818912 0.831914 0.169560
O O10 0.835284 0.946819 0.067026
O O11 0.080914 0.695823 0.557007
O O12 0.101697 0.770186 0.327595
O O13 0.069867 0.649993 0.297300
O O14 0.000000 0.738992 0.397102
O O15 0.916536 0.969275 0.876525
O O16 0.500000 0.438763 0.700291
#
# Coordination Sequence:
#
# PCOD8264910 Si02
#       7
#    16  16  16  16  16   8  16
#     4  12  26  47  72 110 150 187 246 306 364 439
#     4  12  26  46  74 104 144 197 244 297 367 434
#     4  12  28  46  72 107 146 195 250 301 367 438
#     4  11  24  43  71 106 143 188 239 297 368 430
#     4  12  23  45  70 101 146 186 242 301 357 437
#     4  12  25  50  76 100 148 190 245 308 354 440
#     4  11  25  49  75 105 144 193 241 298 371 441
#
# _framework density 23.001691000000001
#
# number of rings (size 3 to 8) (size 9 to 14) (size 15 to 20)
#    0.000    0.308    4.615    4.846    1.077    2.154 
#    0.000    0.769    0.000    0.000    0.000    0.000 
#    0.000    0.000    0.000    0.000    0.000    0.000 
#
# Total GULP energy -644505.950570 kJ/mol
# GULP energy per Si atom -12394.345203 kJ/mol
# Density = 2.294934 g / cm^3
# Si number density = 23.001691 Si / 1000 Ang^3
#
#
#
# Elastic Constant Matrix: (Units=GPa)
#
#
# Indices 1 2 3 4 5 6 
#
# 1 107.6279 46.6491 34.3627 0.0000 0.0000 0.0000
# 2 46.6491 126.1733 31.4664 0.0000 0.0000 0.0000
# 3 34.3627 31.4664 130.0296 0.0000 0.0000 0.0000
# 4 0.0000 0.0000 0.0000 41.7454 0.0000 0.0000
# 5 0.0000 0.0000 0.0000 0.0000 29.0755 0.0000
# 6 0.0000 0.0000 0.0000 0.0000 0.0000 15.3052
#
#
#
# Elastic Compliance Matrix: (Units=1/GPa)
#
#
# Indices 1 2 3 4 5 6 
#
# 1 0.011607 -0.003753 -0.002159 0.000000 0.000000 0.000000
# 2 -0.003753 0.009648 -0.001343 0.000000 0.000000 0.000000
# 3 -0.002159 -0.001343 0.008586 0.000000 0.000000 0.000000
# 4 0.000000 0.000000 0.000000 0.023955 0.000000 0.000000
# 5 0.000000 0.000000 0.000000 0.000000 0.034393 0.000000
# 6 0.000000 0.000000 0.000000 0.000000 0.000000 0.065337
#
#
# Mechanical properties :
#
#
# Convention : Reuss Voigt Hill
#
# Bulk Modulus (GPa) = 65.22670 65.42080 65.32375
# Shear Modulus (GPa) = 28.87709 33.98205 31.42957
#
# Velocity S-wave (km/s) = 3.54705 3.84783 3.70050
# Velocity P-wave (km/s) = 6.72268 6.94583 6.83516
#
# Compressibility (1/GPa) = 0.01533114
#
# Stress axis : x y z
#
# Youngs Moduli (GPa) = 86.15260 103.64731 116.46634
#
# Poissons Ratio (x) = 0.38899 0.25148
# Poissons Ratio (y) = 0.32333 0.15641
# Poissons Ratio (z) = 0.18602 0.13920
#
# Static dielectric constant tensor:
#      x y z
#    x 4.007560 0.000000 0.000000 
#    y 0.000000 4.349310 0.000000 
#    z 0.000000 0.000000 4.432050 
# 
# 
# High freq. dielectric constant tensor:
#      x y z
#    x 1.896330 0.000000 0.000000 
#    y 0.000000 1.919490 0.000000 
#    z 0.000000 0.000000 1.926670 
# 
# From -- ./inp_files/10421.got.cif
#   From: 2010.03.12/outbox.cif.g09.slc.cpg/sg64_6_cif.got.tgz:10421.got - 2010.04.10 20:19:32.
