data_PCOD8264349
_publ_section_title
;
Structure prediction by ZEFSAII (Michael W. Deem and Ramdas Pophale) SiO2 
 PCOD8264349
Probable space group: C M C A
;
_chemical_formula_sum "Si O2"
_cell_formula_units_Z 96
_cell_length_a 15.291197
_cell_length_b 11.372358
_cell_length_c 24.378359
_cell_angle_alpha 90.000000
_cell_angle_beta 90.000000
_cell_angle_gamma 90.000000
_cell_volume 4239.322679
_symmetry_space_group_name_H-M "C M C A"
_symmetry_group_IT_number 64
_symmetry_cell_setting 'orthorhombic'
loop_
_space_group_symop_operation_xyz
x,y,z
-x,1/2-y,1/2+z
x,-y,-z
-x,1/2+y,1/2-z
-x,-y,-z
x,1/2+y,1/2-z
-x,y,z
x,1/2-y,1/2+z
1/2+x,1/2+y,z
1/2-x,-y,1/2+z
1/2+x,1/2-y,-z
1/2-x,y,1/2-z
1/2-x,1/2-y,-z
1/2+x,y,1/2-z
1/2-x,1/2+y,z
1/2+x,-y,1/2+z
loop_
_atom_site_type_symbol
_atom_site_label
_atom_site_fract_x
_atom_site_fract_y
_atom_site_fract_z
Si Si1 0.344474 0.487464 0.382601
Si Si2 0.896494 0.723876 0.953668
Si Si3 0.597446 0.778265 0.924787
Si Si4 0.098544 0.630972 0.672016
Si Si5 0.103225 0.681687 0.792113
Si Si6 0.341019 0.108461 0.363327
O O1 0.341499 0.381070 0.425996
O O2 0.408142 0.586263 0.406913
O O3 0.380539 0.439612 0.324813
O O4 0.252362 0.550267 0.373162
O O5 0.878563 0.844692 0.921163
O O6 0.000000 0.693755 0.952290
O O7 0.858668 0.737078 0.015422
O O8 0.500000 0.727336 0.930726
O O9 0.647550 0.701035 0.877807
O O10 0.140960 0.662196 0.730806
O O11 0.097054 0.492535 0.660760
O O12 0.000000 0.677957 0.675259
O O13 0.159365 0.786304 0.819110
O O14 0.000000 0.711564 0.794417
#
# Coordination Sequence:
#
# PCOD8264349 Si02
#       6
#    16  16  16  16  16  16
#     4  11  23  39  64  99 130 168 214 268 326 384
#     4  10  22  45  71  92 127 178 222 265 319 390
#     4  10  22  41  67  97 127 167 226 273 313 382
#     4  10  23  42  66  95 126 169 223 270 318 386
#     4  10  23  45  70  91 126 179 224 264 319 392
#     4  11  24  41  63  96 134 168 211 266 336 392
#
# _framework density 22.645126000000001
#
# number of rings (size 3 to 8) (size 9 to 14) (size 15 to 20)
#    0.000    1.667    0.000    4.500    7.000    3.333 
#    3.000    2.500    0.000    0.000    0.000    0.000 
#    0.000    0.000    0.000    0.000    0.000    0.000 
#
# Total GULP energy -595073.760494 kJ/mol
# GULP energy per Si atom -12397.370010 kJ/mol
# Density = 2.259358 g / cm^3
# Si number density = 22.645126 Si / 1000 Ang^3
#
#
#
# Elastic Constant Matrix: (Units=GPa)
#
#
# Indices 1 2 3 4 5 6 
#
# 1 72.2597 25.3797 29.5806 0.0000 0.0000 0.0000
# 2 25.3797 124.7324 100.6136 0.0000 0.0000 0.0000
# 3 29.5806 100.6136 252.7142 0.0000 0.0000 0.0000
# 4 0.0000 0.0000 0.0000 36.0229 0.0000 0.0000
# 5 0.0000 0.0000 0.0000 0.0000 13.3757 0.0000
# 6 0.0000 0.0000 0.0000 0.0000 0.0000 41.3710
#
#
#
# Elastic Compliance Matrix: (Units=1/GPa)
#
#
# Indices 1 2 3 4 5 6 
#
# 1 0.015012 -0.002412 -0.000797 0.000000 0.000000 0.000000
# 2 -0.002412 0.012197 -0.004574 0.000000 0.000000 0.000000
# 3 -0.000797 -0.004574 0.005871 0.000000 0.000000 0.000000
# 4 0.000000 0.000000 0.000000 0.027760 0.000000 0.000000
# 5 0.000000 0.000000 0.000000 0.000000 0.074762 0.000000
# 6 0.000000 0.000000 0.000000 0.000000 0.000000 0.024172
#
#
# Mechanical properties :
#
#
# Convention : Reuss Voigt Hill
#
# Bulk Modulus (GPa) = 57.09133 84.53937 70.81535
# Shear Modulus (GPa) = 27.59709 37.76276 32.67992
#
# Velocity S-wave (km/s) = 3.49474 4.08804 3.80298
# Velocity P-wave (km/s) = 6.44596 7.72632 7.11500
#
# Compressibility (1/GPa) = 0.01751580
#
# Stress axis : x y z
#
# Youngs Moduli (GPa) = 66.61201 81.98537 170.31914
#
# Poissons Ratio (x) = 0.19772 0.13575
# Poissons Ratio (y) = 0.16065 0.77901
# Poissons Ratio (z) = 0.05309 0.37499
#
# Static dielectric constant tensor:
#      x y z
#    x 3.740140 0.000000 0.000000 
#    y 0.000000 4.169920 0.000000 
#    z 0.000000 0.000000 4.549920 
# 
# 
# High freq. dielectric constant tensor:
#      x y z
#    x 1.877030 0.000000 0.000000 
#    y 0.000000 1.894040 0.000000 
#    z 0.000000 0.000000 1.909490 
# 
# From -- ./inp_files/45731.got.cif
#   From: 2010.03.12/outbox.cif.g09.slc.cpg/sg64_23_cif.got.tgz:45731.got - 2010.04.10 20:19:32.
