data_PCOD8264406
_publ_section_title
;
Structure prediction by ZEFSAII (Michael W. Deem and Ramdas Pophale) SiO2 
 PCOD8264406
Probable space group: C M C A
;
_chemical_formula_sum "Si O2"
_cell_formula_units_Z 64
_cell_length_a 32.107457
_cell_length_b 9.969067
_cell_length_c 8.354887
_cell_angle_alpha 90.000000
_cell_angle_beta 90.000000
_cell_angle_gamma 90.000000
_cell_volume 2674.243845
_symmetry_space_group_name_H-M "C M C A"
_symmetry_group_IT_number 64
_symmetry_cell_setting 'orthorhombic'
loop_
_space_group_symop_operation_xyz
x,y,z
-x,1/2-y,1/2+z
x,-y,-z
-x,1/2+y,1/2-z
-x,-y,-z
x,1/2+y,1/2-z
-x,y,z
x,1/2-y,1/2+z
1/2+x,1/2+y,z
1/2-x,-y,1/2+z
1/2+x,1/2-y,-z
1/2-x,y,1/2-z
1/2-x,1/2-y,-z
1/2+x,y,1/2-z
1/2-x,1/2+y,z
1/2+x,-y,1/2+z
loop_
_atom_site_type_symbol
_atom_site_label
_atom_site_fract_x
_atom_site_fract_y
_atom_site_fract_z
Si Si1 0.844663 0.653789 0.672318
Si Si2 0.546974 0.876214 0.883781
Si Si3 0.206933 0.926468 0.667533
Si Si4 0.401495 0.198159 0.399895
O O1 0.816778 0.526886 0.714129
O O2 0.818360 0.789780 0.642813
O O3 0.867800 0.618739 0.505700
O O4 0.878316 0.677991 0.812596
O O5 0.500000 0.850554 0.823392
O O6 0.577360 0.899787 0.731477
O O7 0.561931 0.748708 0.984332
O O8 0.549754 0.000000 0.000000
O O9 0.250000 0.885761 0.750000
O O10 0.214988 0.000000 0.500000
#
# Coordination Sequence:
#
# PCOD8264406 Si02
#       4
#    16  16  16  16
#     4  11  25  45  73 104 144 192 244 299 358 437
#     4  10  22  43  70 103 144 185 236 294 354 428
#     4  12  28  48  71 106 146 188 242 302 367 434
#     4  10  23  41  70 101 140 188 233 293 354 424
#
# _framework density 23.931999999999999
#
# number of rings (size 3 to 8) (size 9 to 14) (size 15 to 20)
#    0.000    1.250    2.500    1.500   10.500    2.000 
#    4.500    0.000    0.000    7.500    0.000    0.000 
#    0.000    0.000    0.000    0.000    0.000    0.000 
#
# Total GULP energy -396822.983709 kJ/mol
# GULP energy per Si atom -12400.718241 kJ/mol
# Density = 2.387753 g / cm^3
# Si number density = 23.932000 Si / 1000 Ang^3
#
#
#
# Elastic Constant Matrix: (Units=GPa)
#
#
# Indices 1 2 3 4 5 6 
#
# 1 153.5558 49.9446 75.2503 0.0000 0.0000 0.0000
# 2 49.9446 87.8352 21.1397 0.0000 0.0000 0.0000
# 3 75.2503 21.1397 150.3115 0.0000 0.0000 0.0000
# 4 0.0000 0.0000 0.0000 19.3156 0.0000 0.0000
# 5 0.0000 0.0000 0.0000 0.0000 50.7243 0.0000
# 6 0.0000 0.0000 0.0000 0.0000 0.0000 -79.4884
#
#
#
# Elastic Compliance Matrix: (Units=1/GPa)
#
#
# Indices 1 2 3 4 5 6 
#
# 1 0.010243 -0.004751 -0.004460 0.000000 0.000000 0.000000
# 2 -0.004751 0.013988 0.000411 0.000000 0.000000 0.000000
# 3 -0.004460 0.000411 0.008828 0.000000 0.000000 0.000000
# 4 0.000000 0.000000 0.000000 0.051772 0.000000 0.000000
# 5 0.000000 0.000000 0.000000 0.000000 0.019714 0.000000
# 6 0.000000 0.000000 0.000000 0.000000 0.000000 -0.012580
#
#
# Mechanical properties :
#
#
# Convention : Reuss Voigt Hill
#
# Bulk Modulus (GPa) = 64.68623 76.04129 70.36376
# Shear Modulus (GPa) = 43.58588 14.46816 29.02702
#
# Velocity S-wave (km/s) = 4.27223 2.46143 3.48644
# Velocity P-wave (km/s) = 7.17104 6.31831 6.75814
#
# Compressibility (1/GPa) = 0.01545924
#
# Stress axis : x y z
#
# Youngs Moduli (GPa) = 97.62632 71.49238 113.27951
#
# Poissons Ratio (x) = 0.33966 0.50521
# Poissons Ratio (y) = 0.46383 -0.04660
# Poissons Ratio (z) = 0.43540 -0.02941
#
# Static dielectric constant tensor:
#      x y z
#    x 4.655270 0.000000 0.000000 
#    y 0.000000 4.134700 0.000000 
#    z 0.000000 0.000000 4.637110 
# 
# 
# High freq. dielectric constant tensor:
#      x y z
#    x 1.961000 0.000000 0.000000 
#    y 0.000000 1.938740 0.000000 
#    z 0.000000 0.000000 1.968940 
# 
# From -- ./inp_files/10864.got.cif
#   From: 2010.03.12/outbox.cif.g09.slc.cpg/sg64_6_cif.got.tgz:10864.got - 2010.04.10 20:19:32.
