data_PCOD8264229
_publ_section_title
;
Structure prediction by ZEFSAII (Michael W. Deem and Ramdas Pophale) SiO2 
 PCOD8264229
Probable space group: C M C A
;
_chemical_formula_sum "Si O2"
_cell_formula_units_Z 80
_cell_length_a 18.562721
_cell_length_b 8.678548
_cell_length_c 22.872934
_cell_angle_alpha 90.000000
_cell_angle_beta 90.000000
_cell_angle_gamma 90.000000
_cell_volume 3684.771689
_symmetry_space_group_name_H-M "C M C A"
_symmetry_group_IT_number 64
_symmetry_cell_setting 'orthorhombic'
loop_
_space_group_symop_operation_xyz
x,y,z
-x,1/2-y,1/2+z
x,-y,-z
-x,1/2+y,1/2-z
-x,-y,-z
x,1/2+y,1/2-z
-x,y,z
x,1/2-y,1/2+z
1/2+x,1/2+y,z
1/2-x,-y,1/2+z
1/2+x,1/2-y,-z
1/2-x,y,1/2-z
1/2-x,1/2-y,-z
1/2+x,y,1/2-z
1/2-x,1/2+y,z
1/2+x,-y,1/2+z
loop_
_atom_site_type_symbol
_atom_site_label
_atom_site_fract_x
_atom_site_fract_y
_atom_site_fract_z
Si Si1 0.823607 0.413487 0.777089
Si Si2 0.081213 0.593083 0.868183
Si Si3 0.803404 0.037503 0.435825
Si Si4 0.309134 0.661398 0.872201
Si Si5 0.580877 0.426909 0.832867
O O1 0.750000 0.486391 0.750000
O O2 0.867436 0.533984 0.816284
O O3 0.801807 0.257545 0.811978
O O4 0.876577 0.373455 0.724345
O O5 0.115996 0.530703 0.928569
O O6 0.080507 0.777030 0.873826
O O7 0.000000 0.528871 0.860381
O O8 0.754000 0.962870 0.383992
O O9 0.772901 0.000000 0.500000
O O10 0.807190 0.221287 0.426869
O O11 0.383677 0.567701 0.868386
O O12 0.500000 0.477428 0.815984
#
# Coordination Sequence:
#
# PCOD8264229 Si02
#       5
#    16  16  16  16  16
#     4  11  22  37  61  91 124 163 201 245 306 375
#     4  10  22  39  59  87 121 156 201 254 306 368
#     4  11  23  42  67  90 119 161 209 263 316 362
#     4  11  24  39  62  94 125 159 208 257 304 367
#     4  11  23  39  60  89 127 165 199 243 303 371
#
# _framework density 21.710978000000001
#
# number of rings (size 3 to 8) (size 9 to 14) (size 15 to 20)
#    0.000    1.200    0.000    7.200    0.000    9.200 
#    0.000    0.000    0.000    3.000    0.000    0.000 
#    0.000    0.000    0.000    0.000    0.000    0.000 
#
# Total GULP energy -495841.724684 kJ/mol
# GULP energy per Si atom -12396.043117 kJ/mol
# Density = 2.166156 g / cm^3
# Si number density = 21.710978 Si / 1000 Ang^3
#
#
#
# Elastic Constant Matrix: (Units=GPa)
#
#
# Indices 1 2 3 4 5 6 
#
# 1 173.1042 55.5979 40.0369 0.0000 0.0000 0.0000
# 2 55.5979 114.4243 25.0285 0.0000 0.0000 0.0000
# 3 40.0369 25.0285 70.1209 0.0000 0.0000 0.0000
# 4 0.0000 0.0000 0.0000 18.4142 0.0000 0.0000
# 5 0.0000 0.0000 0.0000 0.0000 22.0230 0.0000
# 6 0.0000 0.0000 0.0000 0.0000 0.0000 38.4697
#
#
#
# Elastic Compliance Matrix: (Units=1/GPa)
#
#
# Indices 1 2 3 4 5 6 
#
# 1 0.007459 -0.002921 -0.003216 0.000000 0.000000 0.000000
# 2 -0.002921 0.010623 -0.002124 0.000000 0.000000 0.000000
# 3 -0.003216 -0.002124 0.016856 0.000000 0.000000 0.000000
# 4 0.000000 0.000000 0.000000 0.054306 0.000000 0.000000
# 5 0.000000 0.000000 0.000000 0.000000 0.045407 0.000000
# 6 0.000000 0.000000 0.000000 0.000000 0.000000 0.025994
#
#
# Mechanical properties :
#
#
# Convention : Reuss Voigt Hill
#
# Bulk Modulus (GPa) = 54.30224 66.55289 60.42757
# Shear Modulus (GPa) = 27.27681 31.58044 29.42863
#
# Velocity S-wave (km/s) = 3.54836 3.81804 3.68567
# Velocity P-wave (km/s) = 6.46943 7.08217 6.78272
#
# Compressibility (1/GPa) = 0.01841545
#
# Stress axis : x y z
#
# Youngs Moduli (GPa) = 134.06944 94.13387 59.32729
#
# Poissons Ratio (x) = 0.27493 0.19081
# Poissons Ratio (y) = 0.39157 0.12602
# Poissons Ratio (z) = 0.43120 0.19995
#
# Static dielectric constant tensor:
#      x y z
#    x 4.159590 0.000000 0.000000 
#    y 0.000000 3.937920 0.000000 
#    z 0.000000 0.000000 3.809920 
# 
# 
# High freq. dielectric constant tensor:
#      x y z
#    x 1.860350 0.000000 0.000000 
#    y 0.000000 1.863580 0.000000 
#    z 0.000000 0.000000 1.828010 
# 
# From -- ./inp_files/50288.got.cif
#   From: 2010.03.12/outbox.cif.g09.slc.cpg/sg64_26_cif.got.tgz:50288.got - 2010.04.10 20:19:32.
