data_PCOD8264076
_publ_section_title
;
Structure prediction by ZEFSAII (Michael W. Deem and Ramdas Pophale) SiO2 
 PCOD8264076
Probable space group: C M C A
;
_chemical_formula_sum "Si O2"
_cell_formula_units_Z 88
_cell_length_a 17.129065
_cell_length_b 13.566047
_cell_length_c 18.049757
_cell_angle_alpha 90.000000
_cell_angle_beta 90.000000
_cell_angle_gamma 90.000000
_cell_volume 4194.288834
_symmetry_space_group_name_H-M "C M C A"
_symmetry_group_IT_number 64
_symmetry_cell_setting 'orthorhombic'
loop_
_space_group_symop_operation_xyz
x,y,z
-x,1/2-y,1/2+z
x,-y,-z
-x,1/2+y,1/2-z
-x,-y,-z
x,1/2+y,1/2-z
-x,y,z
x,1/2-y,1/2+z
1/2+x,1/2+y,z
1/2-x,-y,1/2+z
1/2+x,1/2-y,-z
1/2-x,y,1/2-z
1/2-x,1/2-y,-z
1/2+x,y,1/2-z
1/2-x,1/2+y,z
1/2+x,-y,1/2+z
loop_
_atom_site_type_symbol
_atom_site_label
_atom_site_fract_x
_atom_site_fract_y
_atom_site_fract_z
Si Si1 0.088620 0.882708 0.711385
Si Si2 0.412186 0.681099 0.855150
Si Si3 0.911313 0.394306 0.200956
Si Si4 0.309963 0.115196 0.511702
Si Si5 0.250000 0.304571 0.750000
Si Si6 0.694483 0.770988 0.104862
O O1 0.090200 0.800953 0.646618
O O2 0.166870 0.863530 0.761952
O O3 0.000000 0.877864 0.749614
O O4 0.101352 0.991802 0.679115
O O5 0.500000 0.641739 0.857957
O O6 0.372022 0.635770 0.779993
O O7 0.376162 0.639397 0.929486
O O8 0.880908 0.325239 0.135891
O O9 0.000000 0.364075 0.208006
O O10 0.328659 0.167150 0.432973
O O11 0.228701 0.156813 0.542599
O O12 0.302660 0.000000 0.500000
O O13 0.242907 0.243560 0.827323
#
# Coordination Sequence:
#
# PCOD8264076 Si02
#       6
#    16  16  16  16   8  16
#     4  10  22  39  65  99 131 165 220 279 330 390
#     4  10  21  41  62  90 131 165 211 274 330 387
#     4  10  22  40  68  97 125 168 221 277 331 391
#     4  11  26  41  59  91 132 174 215 271 325 406
#     4  12  22  40  72  94 122 180 212 276 338 372
#     4  11  24  41  61  94 129 166 224 270 328 395
#
# _framework density 20.980910000000002
#
# number of rings (size 3 to 8) (size 9 to 14) (size 15 to 20)
#    0.000    1.455    3.636    0.000    5.091    1.818 
#    0.000    0.000    0.000    3.818    0.000    0.000 
#    0.000    0.000    0.000    0.000    0.000    0.000 
#
# Total GULP energy -545101.220196 kJ/mol
# GULP energy per Si atom -12388.664095 kJ/mol
# Density = 2.093316 g / cm^3
# Si number density = 20.980910 Si / 1000 Ang^3
#
#
#
# Elastic Constant Matrix: (Units=GPa)
#
#
# Indices 1 2 3 4 5 6 
#
# 1 98.3627 36.2293 29.2486 0.0000 0.0000 0.0000
# 2 36.2293 175.9007 64.0811 0.0000 0.0000 0.0000
# 3 29.2486 64.0811 117.9704 0.0000 0.0000 0.0000
# 4 0.0000 0.0000 0.0000 29.0622 0.0000 0.0000
# 5 0.0000 0.0000 0.0000 0.0000 27.2346 0.0000
# 6 0.0000 0.0000 0.0000 0.0000 0.0000 27.8123
#
#
#
# Elastic Compliance Matrix: (Units=1/GPa)
#
#
# Indices 1 2 3 4 5 6 
#
# 1 0.011341 -0.001635 -0.001924 0.000000 0.000000 0.000000
# 2 -0.001635 0.007323 -0.003573 0.000000 0.000000 0.000000
# 3 -0.001924 -0.003573 0.010894 0.000000 0.000000 0.000000
# 4 0.000000 0.000000 0.000000 0.034409 0.000000 0.000000
# 5 0.000000 0.000000 0.000000 0.000000 0.036718 0.000000
# 6 0.000000 0.000000 0.000000 0.000000 0.000000 0.035955
#
#
# Mechanical properties :
#
#
# Convention : Reuss Voigt Hill
#
# Bulk Modulus (GPa) = 65.37745 72.37242 68.87494
# Shear Modulus (GPa) = 32.05098 34.33348 33.19223
#
# Velocity S-wave (km/s) = 3.91273 4.04965 3.98178
# Velocity P-wave (km/s) = 7.18614 7.51236 7.35106
#
# Compressibility (1/GPa) = 0.01529579
#
# Stress axis : x y z
#
# Youngs Moduli (GPa) = 88.17837 136.55064 91.79153
#
# Poissons Ratio (x) = 0.22326 0.17657
# Poissons Ratio (y) = 0.14417 0.32794
# Poissons Ratio (z) = 0.16962 0.48784
#
# Static dielectric constant tensor:
#      x y z
#    x 4.057590 0.000000 0.000000 
#    y 0.000000 3.854830 0.000000 
#    z 0.000000 0.000000 3.666790 
# 
# 
# High freq. dielectric constant tensor:
#      x y z
#    x 1.836020 0.000000 0.000000 
#    y 0.000000 1.825430 0.000000 
#    z 0.000000 0.000000 1.795540 
# 
# From -- ./inp_files/33127.got.cif
#   From: 2010.03.12/outbox.cif.g09.slc.cpg/sg64_17_cif.got.tgz:33127.got - 2010.04.10 20:19:32.
