data_PCOD8264519
_publ_section_title
;
Structure prediction by ZEFSAII (Michael W. Deem and Ramdas Pophale) SiO2 
 PCOD8264519
Probable space group: C M C A
;
_chemical_formula_sum "Si O2"
_cell_formula_units_Z 48
_cell_length_a 12.716218
_cell_length_b 10.560143
_cell_length_c 17.482624
_cell_angle_alpha 90.000000
_cell_angle_beta 90.000000
_cell_angle_gamma 90.000000
_cell_volume 2347.655571
_symmetry_space_group_name_H-M "C M C A"
_symmetry_group_IT_number 64
_symmetry_cell_setting 'orthorhombic'
loop_
_space_group_symop_operation_xyz
x,y,z
-x,1/2-y,1/2+z
x,-y,-z
-x,1/2+y,1/2-z
-x,-y,-z
x,1/2+y,1/2-z
-x,y,z
x,1/2-y,1/2+z
1/2+x,1/2+y,z
1/2-x,-y,1/2+z
1/2+x,1/2-y,-z
1/2-x,y,1/2-z
1/2-x,1/2-y,-z
1/2+x,y,1/2-z
1/2-x,1/2+y,z
1/2+x,-y,1/2+z
loop_
_atom_site_type_symbol
_atom_site_label
_atom_site_fract_x
_atom_site_fract_y
_atom_site_fract_z
Si Si1 0.500000 0.203048 0.685667
Si Si2 0.000000 0.919139 0.812677
Si Si3 0.886041 0.315850 0.942701
Si Si4 0.163471 0.105891 0.057832
O O1 0.500000 0.313059 0.748348
O O2 0.603042 0.220889 0.630678
O O3 0.500000 0.062343 0.722379
O O4 0.895078 0.903133 0.862103
O O5 0.789196 0.411190 0.927562
O O6 0.000000 0.387296 0.951453
O O7 0.861921 0.241462 0.020916
O O8 0.120969 0.000000 0.000000
#
# Coordination Sequence:
#
# PCOD8264519 Si02
#       4
#     8   8  16  16
#     4  10  23  44  60  91 137 159 215 255 315 396
#     4  12  22  43  66  93 125 179 203 255 327 369
#     4   9  20  40  60  96 121 159 213 266 310 369
#     4  11  19  38  71  88 122 167 214 267 307 377
#
# _framework density 20.445930000000001
#
# number of rings (size 3 to 8) (size 9 to 14) (size 15 to 20)
#    1.000    0.667    5.000    0.500    0.000    2.000 
#   12.000    3.333    0.000    0.000    0.000    0.000 
#    0.000    0.000    0.000    0.000    0.000    0.000 
#
# Total GULP energy -297332.706505 kJ/mol
# GULP energy per Si atom -12388.862771 kJ/mol
# Density = 2.039939 g / cm^3
# Si number density = 20.445930 Si / 1000 Ang^3
#
#
#
# Elastic Constant Matrix: (Units=GPa)
#
#
# Indices 1 2 3 4 5 6 
#
# 1 143.3751 11.9760 23.9567 0.0000 0.0000 0.0000
# 2 11.9760 94.0999 48.2531 0.0000 0.0000 0.0000
# 3 23.9567 48.2531 93.6635 0.0000 0.0000 0.0000
# 4 0.0000 0.0000 0.0000 38.0909 0.0000 0.0000
# 5 0.0000 0.0000 0.0000 0.0000 11.4370 0.0000
# 6 0.0000 0.0000 0.0000 0.0000 0.0000 10.4518
#
#
#
# Elastic Compliance Matrix: (Units=1/GPa)
#
#
# Indices 1 2 3 4 5 6 
#
# 1 0.007286 0.000039 -0.001883 0.000000 0.000000 0.000000
# 2 0.000039 0.014443 -0.007450 0.000000 0.000000 0.000000
# 3 -0.001883 -0.007450 0.014996 0.000000 0.000000 0.000000
# 4 0.000000 0.000000 0.000000 0.026253 0.000000 0.000000
# 5 0.000000 0.000000 0.000000 0.000000 0.087435 0.000000
# 6 0.000000 0.000000 0.000000 0.000000 0.000000 0.095677
#
#
# Mechanical properties :
#
#
# Convention : Reuss Voigt Hill
#
# Bulk Modulus (GPa) = 55.14286 55.50112 55.32199
# Shear Modulus (GPa) = 18.46884 28.45944 23.46414
#
# Velocity S-wave (km/s) = 3.00876 3.73491 3.39133
# Velocity P-wave (km/s) = 6.25290 6.76784 6.51546
#
# Compressibility (1/GPa) = 0.01813471
#
# Stress axis : x y z
#
# Youngs Moduli (GPa) = 137.24561 69.24008 66.68243
#
# Poissons Ratio (x) = -0.00267 0.12559
# Poissons Ratio (y) = -0.00529 0.49680
# Poissons Ratio (z) = 0.25850 0.51586
#
# Static dielectric constant tensor:
#      x y z
#    x 3.944050 0.000000 0.000000 
#    y 0.000000 3.411790 0.000000 
#    z 0.000000 0.000000 3.463230 
# 
# 
# High freq. dielectric constant tensor:
#      x y z
#    x 1.807170 0.000000 0.000000 
#    y 0.000000 1.776930 0.000000 
#    z 0.000000 0.000000 1.778590 
# 
# From -- ./inp_files/22933.got.cif
#   From: 2010.03.12/outbox.cif.g09.slc.cpg/sg64_12_cif.got.tgz:22933.got - 2010.04.10 20:19:32.
