data_PCOD8264006
_publ_section_title
;
Structure prediction by ZEFSAII (Michael W. Deem and Ramdas Pophale) SiO2 
 PCOD8264006
Probable space group: C M C A
;
_chemical_formula_sum "Si O2"
_cell_formula_units_Z 56
_cell_length_a 9.795935
_cell_length_b 17.346177
_cell_length_c 14.584267
_cell_angle_alpha 90.000000
_cell_angle_beta 90.000000
_cell_angle_gamma 90.000000
_cell_volume 2478.188144
_symmetry_space_group_name_H-M "C M C A"
_symmetry_group_IT_number 64
_symmetry_cell_setting 'orthorhombic'
loop_
_space_group_symop_operation_xyz
x,y,z
-x,1/2-y,1/2+z
x,-y,-z
-x,1/2+y,1/2-z
-x,-y,-z
x,1/2+y,1/2-z
-x,y,z
x,1/2-y,1/2+z
1/2+x,1/2+y,z
1/2-x,-y,1/2+z
1/2+x,1/2-y,-z
1/2-x,y,1/2-z
1/2-x,1/2-y,-z
1/2+x,y,1/2-z
1/2-x,1/2+y,z
1/2+x,-y,1/2+z
loop_
_atom_site_type_symbol
_atom_site_label
_atom_site_fract_x
_atom_site_fract_y
_atom_site_fract_z
Si Si1 0.209679 0.371411 0.904258
Si Si2 0.500000 0.634172 0.551787
Si Si3 0.500000 0.693171 0.102841
Si Si4 0.500000 0.592060 0.762230
Si Si5 0.750000 0.491158 0.750000
Si Si6 0.500000 0.735008 0.313359
O O1 0.367167 0.355137 0.926227
O O2 0.189541 0.439620 0.831516
O O3 0.136677 0.295006 0.863185
O O4 0.134825 0.395555 0.998473
O O5 0.500000 0.726788 0.549549
O O6 0.500000 0.601650 0.653014
O O7 0.500000 0.703513 0.211055
O O8 0.632532 0.544788 0.792369
O O9 0.500000 0.672677 0.815886
#
# Coordination Sequence:
#
# PCOD8264006 Si02
#       6
#    16   8   8   8   8   8
#     4  11  22  42  70  97 131 178 227 274 333 406
#     4  10  25  41  67  96 142 169 218 282 350 374
#     4  11  19  37  67 102 121 167 225 286 315 394
#     4  11  27  43  67 101 137 174 224 282 336 390
#     4  12  24  42  68  96 132 180 220 266 338 406
#     4  10  21  39  69  96 128 170 229 285 322 388
#
# _framework density 22.597152999999999
#
# number of rings (size 3 to 8) (size 9 to 14) (size 15 to 20)
#    0.000    1.143    2.857    3.429    8.000    2.286 
#    0.000    0.000    0.000    3.429    0.000    0.000 
#    0.000    0.000    0.000    0.000    0.000    0.000 
#
# Total GULP energy -347372.224323 kJ/mol
# GULP energy per Si atom -12406.150869 kJ/mol
# Density = 2.254572 g / cm^3
# Si number density = 22.597153 Si / 1000 Ang^3
#
#
#
# Elastic Constant Matrix: (Units=GPa)
#
#
# Indices 1 2 3 4 5 6 
#
# 1 170.2321 40.3982 9.7437 0.0000 0.0000 0.0000
# 2 40.3982 115.4027 21.9962 0.0000 0.0000 0.0000
# 3 9.7437 21.9962 64.5787 0.0000 0.0000 0.0000
# 4 0.0000 0.0000 0.0000 21.4785 0.0000 0.0000
# 5 0.0000 0.0000 0.0000 0.0000 -39.9856 0.0000
# 6 0.0000 0.0000 0.0000 0.0000 0.0000 30.7651
#
#
#
# Elastic Compliance Matrix: (Units=1/GPa)
#
#
# Indices 1 2 3 4 5 6 
#
# 1 0.006409 -0.002202 -0.000217 0.000000 0.000000 0.000000
# 2 -0.002202 0.010024 -0.003082 0.000000 0.000000 0.000000
# 3 -0.000217 -0.003082 0.016567 0.000000 0.000000 0.000000
# 4 0.000000 0.000000 0.000000 0.046558 0.000000 0.000000
# 5 0.000000 0.000000 0.000000 0.000000 -0.025009 0.000000
# 6 0.000000 0.000000 0.000000 0.000000 0.000000 0.032504
#
#
# Mechanical properties :
#
#
# Convention : Reuss Voigt Hill
#
# Bulk Modulus (GPa) = 45.45822 54.94330 50.20076
# Shear Modulus (GPa) = 47.44325 20.98996 34.21661
#
# Velocity S-wave (km/s) = 4.58703 3.05105 3.89549
# Velocity P-wave (km/s) = 6.94369 6.06456 6.51897
#
# Compressibility (1/GPa) = 0.02199822
#
# Stress axis : x y z
#
# Youngs Moduli (GPa) = 156.02099 99.76364 60.35940
#
# Poissons Ratio (x) = 0.21971 0.01309
# Poissons Ratio (y) = 0.34361 0.18602
# Poissons Ratio (z) = 0.03384 0.30746
#
# Static dielectric constant tensor:
#      x y z
#    x 4.100550 0.000000 0.000000 
#    y 0.000000 4.035580 0.000000 
#    z 0.000000 0.000000 4.036390 
# 
# 
# High freq. dielectric constant tensor:
#      x y z
#    x 1.900450 0.000000 0.000000 
#    y 0.000000 1.887880 0.000000 
#    z 0.000000 0.000000 1.887320 
# 
# From -- ./inp_files/30583.got.cif
#   From: 2010.03.12/outbox.cif.g09.slc.cpg/sg64_16_cif.got.tgz:30583.got - 2010.04.10 20:19:32.
