data_PCOD8264303
_publ_section_title
;
Structure prediction by ZEFSAII (Michael W. Deem and Ramdas Pophale) SiO2 
 PCOD8264303
Probable space group: C M C A
;
_chemical_formula_sum "Si O2"
_cell_formula_units_Z 112
_cell_length_a 18.079192
_cell_length_b 12.925603
_cell_length_c 23.712386
_cell_angle_alpha 90.000000
_cell_angle_beta 90.000000
_cell_angle_gamma 90.000000
_cell_volume 5541.216079
_symmetry_space_group_name_H-M "C M C A"
_symmetry_group_IT_number 64
_symmetry_cell_setting 'orthorhombic'
loop_
_space_group_symop_operation_xyz
x,y,z
-x,1/2-y,1/2+z
x,-y,-z
-x,1/2+y,1/2-z
-x,-y,-z
x,1/2+y,1/2-z
-x,y,z
x,1/2-y,1/2+z
1/2+x,1/2+y,z
1/2-x,-y,1/2+z
1/2+x,1/2-y,-z
1/2-x,y,1/2-z
1/2-x,1/2-y,-z
1/2+x,y,1/2-z
1/2-x,1/2+y,z
1/2+x,-y,1/2+z
loop_
_atom_site_type_symbol
_atom_site_label
_atom_site_fract_x
_atom_site_fract_y
_atom_site_fract_z
Si Si1 0.085418 0.246142 0.559060
Si Si2 0.165062 0.680226 0.052091
Si Si3 0.693840 0.870386 0.370602
Si Si4 0.183843 0.937044 0.945503
Si Si5 0.414378 0.287719 0.217131
Si Si6 0.357039 0.859926 0.166841
Si Si7 0.085406 0.578623 0.153575
O O1 0.124115 0.189732 0.506960
O O2 0.119430 0.358460 0.571907
O O3 0.095377 0.173339 0.612966
O O4 0.000000 0.261019 0.544766
O O5 0.176945 0.793951 0.077625
O O6 0.242674 0.626181 0.039747
O O7 0.115867 0.609392 0.092502
O O8 0.629613 0.864999 0.323997
O O9 0.770682 0.837083 0.342111
O O10 0.698003 0.987196 0.392950
O O11 0.157466 0.000000 0.000000
O O12 0.500000 0.320338 0.214328
O O13 0.383844 0.294016 0.280085
O O14 0.401934 0.170196 0.197930
O O15 0.370424 0.981069 0.178062
O O16 0.000000 0.549906 0.146985
#
# Coordination Sequence:
#
# PCOD8264303 Si02
#       7
#    16  16  16  16  16  16  16
#     4  12  26  40  64  98 135 174 214 270 330 390
#     4  11  22  43  64  93 133 167 217 266 319 390
#     4  11  23  43  69  95 126 176 219 265 325 390
#     4  12  23  41  65  95 130 170 216 266 323 385
#     4  10  24  44  66  93 130 169 214 272 324 381
#     4  12  23  44  67  96 133 166 222 272 322 387
#     4  10  22  40  66  93 125 170 214 265 326 382
#
# _framework density 20.21217
#
# number of rings (size 3 to 8) (size 9 to 14) (size 15 to 20)
#    0.000    0.857    4.286    3.429    0.000    2.571 
#    0.000    2.857    0.000    0.000    0.000    0.000 
#    0.000    0.000    0.000    0.000    0.000    0.000 
#
# Total GULP energy -694887.840370 kJ/mol
# GULP energy per Si atom -12408.711435 kJ/mol
# Density = 2.016617 g / cm^3
# Si number density = 20.212170 Si / 1000 Ang^3
#
#
#
# Elastic Constant Matrix: (Units=GPa)
#
#
# Indices 1 2 3 4 5 6 
#
# 1 126.6371 35.2852 51.8181 0.0000 0.0000 0.0000
# 2 35.2852 81.6023 41.8337 0.0000 0.0000 0.0000
# 3 51.8181 41.8337 126.9521 0.0000 0.0000 0.0000
# 4 0.0000 0.0000 0.0000 26.5419 0.0000 0.0000
# 5 0.0000 0.0000 0.0000 0.0000 25.1633 0.0000
# 6 0.0000 0.0000 0.0000 0.0000 0.0000 26.5771
#
#
#
# Elastic Compliance Matrix: (Units=1/GPa)
#
#
# Indices 1 2 3 4 5 6 
#
# 1 0.009941 -0.002669 -0.003178 0.000000 0.000000 0.000000
# 2 -0.002669 0.015462 -0.004006 0.000000 0.000000 0.000000
# 3 -0.003178 -0.004006 0.010494 0.000000 0.000000 0.000000
# 4 0.000000 0.000000 0.000000 0.037676 0.000000 0.000000
# 5 0.000000 0.000000 0.000000 0.000000 0.039740 0.000000
# 6 0.000000 0.000000 0.000000 0.000000 0.000000 0.037626
#
#
# Mechanical properties :
#
#
# Convention : Reuss Voigt Hill
#
# Bulk Modulus (GPa) = 61.76125 65.89617 63.82871
# Shear Modulus (GPa) = 28.40218 29.40677 28.90448
#
# Velocity S-wave (km/s) = 3.75267 3.81846 3.78571
# Velocity P-wave (km/s) = 7.02848 7.21899 7.12437
#
# Compressibility (1/GPa) = 0.01619138
#
# Stress axis : x y z
#
# Youngs Moduli (GPa) = 100.59684 64.67362 95.29179
#
# Poissons Ratio (x) = 0.17263 0.30283
# Poissons Ratio (y) = 0.26851 0.38171
# Poissons Ratio (z) = 0.31969 0.25906
#
# Static dielectric constant tensor:
#      x y z
#    x 3.786220 0.000000 0.000000 
#    y 0.000000 3.734350 0.000000 
#    z 0.000000 0.000000 3.622920 
# 
# 
# High freq. dielectric constant tensor:
#      x y z
#    x 1.799480 0.000000 0.000000 
#    y 0.000000 1.795180 0.000000 
#    z 0.000000 0.000000 1.793420 
# 
# From -- ./inp_files/46351.got.cif
#   From: 2010.03.12/outbox.cif.g09.slc.cpg/sg64_24_cif.got.tgz:46351.got - 2010.04.10 20:19:32.
