data_PCOD8264713
_publ_section_title
;
Structure prediction by ZEFSAII (Michael W. Deem and Ramdas Pophale) SiO2 
 PCOD8264713
Probable space group: C M C A
;
_chemical_formula_sum "Si O2"
_cell_formula_units_Z 96
_cell_length_a 8.290551
_cell_length_b 22.079079
_cell_length_c 23.401927
_cell_angle_alpha 90.000000
_cell_angle_beta 90.000000
_cell_angle_gamma 90.000000
_cell_volume 4283.669626
_symmetry_space_group_name_H-M "C M C A"
_symmetry_group_IT_number 64
_symmetry_cell_setting 'orthorhombic'
loop_
_space_group_symop_operation_xyz
x,y,z
-x,1/2-y,1/2+z
x,-y,-z
-x,1/2+y,1/2-z
-x,-y,-z
x,1/2+y,1/2-z
-x,y,z
x,1/2-y,1/2+z
1/2+x,1/2+y,z
1/2-x,-y,1/2+z
1/2+x,1/2-y,-z
1/2-x,y,1/2-z
1/2-x,1/2-y,-z
1/2+x,y,1/2-z
1/2-x,1/2+y,z
1/2+x,-y,1/2+z
loop_
_atom_site_type_symbol
_atom_site_label
_atom_site_fract_x
_atom_site_fract_y
_atom_site_fract_z
Si Si1 0.686752 0.049195 0.867867
Si Si2 0.312755 0.429040 0.813577
Si Si3 0.813093 0.334673 0.312369
Si Si4 0.812597 0.352901 0.910555
Si Si5 0.687195 0.605028 0.977276
Si Si6 0.186283 0.277682 0.080987
O O1 0.500000 0.066716 0.862728
O O2 0.788692 0.095278 0.829139
O O3 0.740172 0.054962 0.934077
O O4 0.714254 0.982533 0.843868
O O5 0.500000 0.445684 0.811264
O O6 0.250000 0.416547 0.750000
O O7 0.282756 0.369933 0.852615
O O8 0.750000 0.322083 0.250000
O O9 0.709176 0.289972 0.351897
O O10 0.000000 0.317970 0.317805
O O11 0.753085 0.288289 0.934021
O O12 0.000000 0.352083 0.896100
O O13 0.774852 0.400696 0.961306
O O14 0.500000 0.591500 0.986007
O O15 0.710935 0.672311 0.952424
O O16 0.000000 0.282835 0.063096
#
# Coordination Sequence:
#
# PCOD8264713 Si02
#       6
#    16  16  16  16  16  16
#     4  11  22  40  64  93 124 160 202 253 308 364
#     4  12  26  46  67  92 123 163 207 252 302 362
#     4  11  21  36  58  88 121 159 204 257 310 364
#     4  12  25  43  64  91 124 164 206 251 302 363
#     4  11  22  40  65  96 127 161 202 253 307 362
#     4  11  22  39  61  90 124 163 205 253 307 366
#
# _framework density 22.410692000000001
#
# number of rings (size 3 to 8) (size 9 to 14) (size 15 to 20)
#    0.000    0.667    0.000   12.000    0.000    1.333 
#    0.000    6.667    0.000    0.000    0.000    0.000 
#    0.000    0.000    0.000    0.000    0.000    0.000 
#
# Total GULP energy -595517.433094 kJ/mol
# GULP energy per Si atom -12406.613189 kJ/mol
# Density = 2.235968 g / cm^3
# Si number density = 22.410692 Si / 1000 Ang^3
#
#
#
# Elastic Constant Matrix: (Units=GPa)
#
#
# Indices 1 2 3 4 5 6 
#
# 1 120.0056 -1.8093 10.2532 0.0000 0.0000 0.0000
# 2 -1.8093 40.7530 4.3308 0.0000 0.0000 0.0000
# 3 10.2532 4.3308 111.5722 0.0000 0.0000 0.0000
# 4 0.0000 0.0000 0.0000 57.6444 0.0000 0.0000
# 5 0.0000 0.0000 0.0000 0.0000 40.3090 0.0000
# 6 0.0000 0.0000 0.0000 0.0000 0.0000 32.8789
#
#
#
# Elastic Compliance Matrix: (Units=1/GPa)
#
#
# Indices 1 2 3 4 5 6 
#
# 1 0.008407 0.000457 -0.000790 0.000000 0.000000 0.000000
# 2 0.000457 0.024665 -0.000999 0.000000 0.000000 0.000000
# 3 -0.000790 -0.000999 0.009074 0.000000 0.000000 0.000000
# 4 0.000000 0.000000 0.000000 0.017348 0.000000 0.000000
# 5 0.000000 0.000000 0.000000 0.000000 0.024808 0.000000
# 6 0.000000 0.000000 0.000000 0.000000 0.000000 0.030415
#
#
# Mechanical properties :
#
#
# Convention : Reuss Voigt Hill
#
# Bulk Modulus (GPa) = 25.32855 33.09781 29.21318
# Shear Modulus (GPa) = 38.30173 43.47019 40.88596
#
# Velocity S-wave (km/s) = 4.13859 4.40899 4.27593
# Velocity P-wave (km/s) = 5.84498 6.38120 6.11897
#
# Compressibility (1/GPa) = 0.03948114
#
# Stress axis : x y z
#
# Youngs Moduli (GPa) = 118.94334 40.54393 110.20220
#
# Poissons Ratio (x) = -0.01854 0.08710
# Poissons Ratio (y) = -0.05439 0.11014
# Poissons Ratio (z) = 0.09401 0.04052
#
# Static dielectric constant tensor:
#      x y z
#    x 4.041420 0.000000 0.000000 
#    y 0.000000 3.863110 0.000000 
#    z 0.000000 0.000000 4.258400 
# 
# 
# High freq. dielectric constant tensor:
#      x y z
#    x 1.896600 0.000000 0.000000 
#    y 0.000000 1.867870 0.000000 
#    z 0.000000 0.000000 1.898330 
# 
# From -- ./inp_files/43071.got.cif
#   From: 2010.03.12/outbox.cif.g09.slc.cpg/sg64_22_cif.got.tgz:43071.got - 2010.04.10 20:19:32.
