data_PCOD8264794
_publ_section_title
;
Structure prediction by ZEFSAII (Michael W. Deem and Ramdas Pophale) SiO2 
 PCOD8264794
Probable space group: C M C A
;
_chemical_formula_sum "Si O2"
_cell_formula_units_Z 96
_cell_length_a 26.930078
_cell_length_b 8.627997
_cell_length_c 19.328193
_cell_angle_alpha 90.000000
_cell_angle_beta 90.000000
_cell_angle_gamma 90.000000
_cell_volume 4490.956519
_symmetry_space_group_name_H-M "C M C A"
_symmetry_group_IT_number 64
_symmetry_cell_setting 'orthorhombic'
loop_
_space_group_symop_operation_xyz
x,y,z
-x,1/2-y,1/2+z
x,-y,-z
-x,1/2+y,1/2-z
-x,-y,-z
x,1/2+y,1/2-z
-x,y,z
x,1/2-y,1/2+z
1/2+x,1/2+y,z
1/2-x,-y,1/2+z
1/2+x,1/2-y,-z
1/2-x,y,1/2-z
1/2-x,1/2-y,-z
1/2+x,y,1/2-z
1/2-x,1/2+y,z
1/2+x,-y,1/2+z
loop_
_atom_site_type_symbol
_atom_site_label
_atom_site_fract_x
_atom_site_fract_y
_atom_site_fract_z
Si Si1 0.557709 0.705871 0.538314
Si Si2 0.197909 0.988713 0.820283
Si Si3 0.906899 0.108226 0.157879
Si Si4 0.056969 0.206705 0.777913
Si Si5 0.799665 0.855141 0.668530
Si Si6 0.599331 0.606713 0.401943
O O1 0.500000 0.683244 0.520507
O O2 0.565642 0.857904 0.585309
O O3 0.588387 0.720656 0.466850
O O4 0.578388 0.561645 0.581592
O O5 0.201509 0.172444 0.821211
O O6 0.149812 0.930129 0.861606
O O7 0.190533 0.938135 0.741198
O O8 0.245805 0.913357 0.857549
O O9 0.910660 0.255951 0.209513
O O10 0.932666 0.965364 0.196195
O O11 0.070471 0.330832 0.835946
O O12 0.000000 0.224342 0.757014
O O13 0.841645 0.901564 0.612981
#
# Coordination Sequence:
#
# PCOD8264794 Si02
#       6
#    16  16  16  16  16  16
#     4  11  25  44  67  93 132 184 223 266 329 395
#     4  11  22  40  65 101 128 167 214 271 334 393
#     4  12  24  41  64  96 133 168 217 277 329 390
#     4  12  23  39  64  97 131 168 218 272 326 387
#     4  11  23  40  69  97 131 170 214 272 335 393
#     4  11  23  43  66  93 129 172 223 268 324 390
#
# _framework density 21.376293
#
# number of rings (size 3 to 8) (size 9 to 14) (size 15 to 20)
#    0.000    0.667    3.333    6.500    4.667    0.667 
#    0.000    2.500    0.000    0.000    0.000    0.000 
#    0.000    0.000    0.000    0.000    0.000    0.000 
#
# Total GULP energy -595338.239947 kJ/mol
# GULP energy per Si atom -12402.879999 kJ/mol
# Density = 2.132764 g / cm^3
# Si number density = 21.376293 Si / 1000 Ang^3
#
#
#
# Elastic Constant Matrix: (Units=GPa)
#
#
# Indices 1 2 3 4 5 6 
#
# 1 160.6711 43.2883 46.9824 0.0000 0.0000 0.0000
# 2 43.2883 43.2021 -0.6892 0.0000 0.0000 0.0000
# 3 46.9824 -0.6892 71.8907 0.0000 0.0000 0.0000
# 4 0.0000 0.0000 0.0000 30.1862 0.0000 0.0000
# 5 0.0000 0.0000 0.0000 0.0000 39.7660 0.0000
# 6 0.0000 0.0000 0.0000 0.0000 0.0000 32.8361
#
#
#
# Elastic Compliance Matrix: (Units=1/GPa)
#
#
# Indices 1 2 3 4 5 6 
#
# 1 0.011672 -0.011818 -0.007741 0.000000 0.000000 0.000000
# 2 -0.011818 0.035118 0.008060 0.000000 0.000000 0.000000
# 3 -0.007741 0.008060 0.019046 0.000000 0.000000 0.000000
# 4 0.000000 0.000000 0.000000 0.033128 0.000000 0.000000
# 5 0.000000 0.000000 0.000000 0.000000 0.025147 0.000000
# 6 0.000000 0.000000 0.000000 0.000000 0.000000 0.030454
#
#
# Mechanical properties :
#
#
# Convention : Reuss Voigt Hill
#
# Bulk Modulus (GPa) = 23.34418 50.54742 36.94580
# Shear Modulus (GPa) = 26.06315 32.96982 29.51648
#
# Velocity S-wave (km/s) = 3.49557 3.93154 3.71995
# Velocity P-wave (km/s) = 5.21884 6.65636 5.98095
#
# Compressibility (1/GPa) = 0.04283723
#
# Stress axis : x y z
#
# Youngs Moduli (GPa) = 85.67808 28.47575 52.50387
#
# Poissons Ratio (x) = 0.33654 0.40643
# Poissons Ratio (y) = 1.01258 -0.42320
# Poissons Ratio (z) = 0.66323 -0.22952
#
# Static dielectric constant tensor:
#      x y z
#    x 4.323530 0.000000 0.000000 
#    y 0.000000 3.931240 0.000000 
#    z 0.000000 0.000000 3.699110 
# 
# 
# High freq. dielectric constant tensor:
#      x y z
#    x 1.853300 0.000000 0.000000 
#    y 0.000000 1.849790 0.000000 
#    z 0.000000 0.000000 1.817580 
# 
# From -- ./inp_files/41813.got.cif
#   From: 2010.03.12/outbox.cif.g09.slc.cpg/sg64_21_cif.got.tgz:41813.got - 2010.04.10 20:19:32.
