data_PCOD8264136
_publ_section_title
;
Structure prediction by ZEFSAII (Michael W. Deem and Ramdas Pophale) SiO2 
 PCOD8264136
Probable space group: C M C A
;
_chemical_formula_sum "Si O2"
_cell_formula_units_Z 56
_cell_length_a 13.229719
_cell_length_b 11.076906
_cell_length_c 18.272184
_cell_angle_alpha 90.000000
_cell_angle_beta 90.000000
_cell_angle_gamma 90.000000
_cell_volume 2677.685396
_symmetry_space_group_name_H-M "C M C A"
_symmetry_group_IT_number 64
_symmetry_cell_setting 'orthorhombic'
loop_
_space_group_symop_operation_xyz
x,y,z
-x,1/2-y,1/2+z
x,-y,-z
-x,1/2+y,1/2-z
-x,-y,-z
x,1/2+y,1/2-z
-x,y,z
x,1/2-y,1/2+z
1/2+x,1/2+y,z
1/2-x,-y,1/2+z
1/2+x,1/2-y,-z
1/2-x,y,1/2-z
1/2-x,1/2-y,-z
1/2+x,y,1/2-z
1/2-x,1/2+y,z
1/2+x,-y,1/2+z
loop_
_atom_site_type_symbol
_atom_site_label
_atom_site_fract_x
_atom_site_fract_y
_atom_site_fract_z
Si Si1 0.000000 0.548484 0.743997
Si Si2 0.000000 0.844280 0.853808
Si Si3 0.000000 0.409170 0.416109
Si Si4 0.215499 0.126561 0.961865
Si Si5 0.677557 0.324648 0.316283
O O1 0.000000 0.407232 0.726055
O O2 0.897873 0.572780 0.787944
O O3 0.000000 0.629967 0.669524
O O4 0.106182 0.774231 0.855686
O O5 0.000000 0.942898 0.918994
O O6 0.095414 0.359022 0.459245
O O7 0.254361 0.116527 0.878876
O O8 0.250000 0.250000 0.000000
O O9 0.249312 0.000000 0.000000
O O10 0.750000 0.276787 0.250000
#
# Coordination Sequence:
#
# PCOD8264136 Si02
#       5
#     8   8   8  16  16
#     4   9  21  40  66  94 127 172 229 280 325 392
#     4   9  21  37  65  98 129 175 218 283 336 389
#     4  10  21  47  64  92 134 179 225 263 345 403
#     4  12  27  45  70 101 139 183 221 278 343 410
#     4  11  21  41  66  98 130 171 236 281 327 392
#
# _framework density 20.913582999999999
#
# number of rings (size 3 to 8) (size 9 to 14) (size 15 to 20)
#    0.857    0.571    2.857    2.143    0.000    8.000 
#    0.000    5.000    0.000    0.000    0.000    0.000 
#    0.000    0.000    0.000    0.000    0.000    0.000 
#
# Total GULP energy -346901.951343 kJ/mol
# GULP energy per Si atom -12389.355405 kJ/mol
# Density = 2.086598 g / cm^3
# Si number density = 20.913583 Si / 1000 Ang^3
#
#
#
# Elastic Constant Matrix: (Units=GPa)
#
#
# Indices 1 2 3 4 5 6 
#
# 1 154.7062 45.9785 51.2606 0.0000 0.0000 0.0000
# 2 45.9785 109.1817 37.9623 0.0000 0.0000 0.0000
# 3 51.2606 37.9623 101.8250 0.0000 0.0000 0.0000
# 4 0.0000 0.0000 0.0000 43.3174 0.0000 0.0000
# 5 0.0000 0.0000 0.0000 0.0000 41.3407 0.0000
# 6 0.0000 0.0000 0.0000 0.0000 0.0000 17.6088
#
#
#
# Elastic Compliance Matrix: (Units=1/GPa)
#
#
# Indices 1 2 3 4 5 6 
#
# 1 0.008244 -0.002331 -0.003281 0.000000 0.000000 0.000000
# 2 -0.002331 0.011182 -0.002996 0.000000 0.000000 0.000000
# 3 -0.003281 -0.002996 0.012589 0.000000 0.000000 0.000000
# 4 0.000000 0.000000 0.000000 0.023085 0.000000 0.000000
# 5 0.000000 0.000000 0.000000 0.000000 0.024189 0.000000
# 6 0.000000 0.000000 0.000000 0.000000 0.000000 0.056790
#
#
# Mechanical properties :
#
#
# Convention : Reuss Voigt Hill
#
# Bulk Modulus (GPa) = 67.56594 70.67952 69.12273
# Shear Modulus (GPa) = 31.60001 35.82082 33.71042
#
# Velocity S-wave (km/s) = 3.89135 4.14309 4.01919
# Velocity P-wave (km/s) = 7.25034 7.53368 7.39337
#
# Compressibility (1/GPa) = 0.01480036
#
# Stress axis : x y z
#
# Youngs Moduli (GPa) = 121.30435 89.42845 79.43232
#
# Poissons Ratio (x) = 0.20844 0.26062
# Poissons Ratio (y) = 0.28273 0.23794
# Poissons Ratio (z) = 0.39801 0.26789
#
# Static dielectric constant tensor:
#      x y z
#    x 3.947140 0.000000 0.000000 
#    y 0.000000 3.488890 0.000000 
#    z 0.000000 0.000000 3.857090 
# 
# 
# High freq. dielectric constant tensor:
#      x y z
#    x 1.837450 0.000000 0.000000 
#    y 0.000000 1.793680 0.000000 
#    z 0.000000 0.000000 1.833790 
# 
# From -- ./inp_files/31597.got.cif
#   From: 2010.03.12/outbox.cif.g09.slc.cpg/sg64_16_cif.got.tgz:31597.got - 2010.04.10 20:19:32.
