data_PCOD8264571
_publ_section_title
;
Structure prediction by ZEFSAII (Michael W. Deem and Ramdas Pophale) SiO2 
 PCOD8264571
Probable space group: C M C A
;
_chemical_formula_sum "Si O2"
_cell_formula_units_Z 104
_cell_length_a 19.448974
_cell_length_b 16.921769
_cell_length_c 15.415788
_cell_angle_alpha 90.000000
_cell_angle_beta 90.000000
_cell_angle_gamma 90.000000
_cell_volume 5073.506103
_symmetry_space_group_name_H-M "C M C A"
_symmetry_group_IT_number 64
_symmetry_cell_setting 'orthorhombic'
loop_
_space_group_symop_operation_xyz
x,y,z
-x,1/2-y,1/2+z
x,-y,-z
-x,1/2+y,1/2-z
-x,-y,-z
x,1/2+y,1/2-z
-x,y,z
x,1/2-y,1/2+z
1/2+x,1/2+y,z
1/2-x,-y,1/2+z
1/2+x,1/2-y,-z
1/2-x,y,1/2-z
1/2-x,1/2-y,-z
1/2+x,y,1/2-z
1/2-x,1/2+y,z
1/2+x,-y,1/2+z
loop_
_atom_site_type_symbol
_atom_site_label
_atom_site_fract_x
_atom_site_fract_y
_atom_site_fract_z
Si Si1 0.116071 0.430285 0.060787
Si Si2 0.641959 0.953066 0.588348
Si Si3 0.000000 0.274029 0.790516
Si Si4 0.500000 0.063093 0.315744
Si Si5 0.758538 0.926634 0.152568
Si Si6 0.694117 0.817008 0.489177
Si Si7 0.000000 0.401983 0.199571
Si Si8 0.575681 0.712900 0.457178
O O1 0.189388 0.452372 0.101977
O O2 0.066956 0.408297 0.140124
O O3 0.087016 0.500000 0.000000
O O4 0.122095 0.358948 0.992183
O O5 0.568120 0.933150 0.626812
O O6 0.691779 0.878420 0.568514
O O7 0.629246 0.000000 0.500000
O O8 0.687226 0.001958 0.656428
O O9 0.000000 0.352375 0.732444
O O10 0.932550 0.283629 0.852376
O O11 0.000000 0.185728 0.745945
O O12 0.500000 0.979954 0.261906
O O13 0.750000 0.897378 0.250000
O O14 0.791586 0.853466 0.104042
O O15 0.750000 0.750000 0.500000
O O16 0.615100 0.790041 0.487280
O O17 0.500000 0.709939 0.501958
#
# Coordination Sequence:
#
# PCOD8264571 Si02
#       8
#    16  16   8   8  16  16   8  16
#     4  12  23  42  73  94 133 183 234 276 336 423
#     4  10  25  43  67  96 131 180 228 272 338 421
#     4  10  27  42  66 106 147 167 231 296 344 409
#     4  12  25  45  67 100 142 178 231 290 347 404
#     4  11  25  44  65  98 133 171 222 283 344 402
#     4  11  23  44  69  97 130 179 225 270 342 414
#     4  12  26  41  72 105 140 184 228 294 361 388
#     4  10  24  42  66  96 133 174 222 276 329 408
#
# _framework density 20.498645
#
# number of rings (size 3 to 8) (size 9 to 14) (size 15 to 20)
#    0.462    0.615    2.308    3.692    9.692    0.000 
#    0.000    0.000    0.000    0.000    0.000    0.000 
#    0.000    0.000    0.000    0.000    0.000    0.000 
#
# Total GULP energy -644216.770678 kJ/mol
# GULP energy per Si atom -12388.784051 kJ/mol
# Density = 2.045199 g / cm^3
# Si number density = 20.498645 Si / 1000 Ang^3
#
#
#
# Elastic Constant Matrix: (Units=GPa)
#
#
# Indices 1 2 3 4 5 6 
#
# 1 113.5482 45.4140 36.3256 0.0000 0.0000 0.0000
# 2 45.4140 145.6640 63.6036 0.0000 0.0000 0.0000
# 3 36.3256 63.6036 102.1247 0.0000 0.0000 0.0000
# 4 0.0000 0.0000 0.0000 23.1979 0.0000 0.0000
# 5 0.0000 0.0000 0.0000 0.0000 32.8597 0.0000
# 6 0.0000 0.0000 0.0000 0.0000 0.0000 30.5259
#
#
#
# Elastic Compliance Matrix: (Units=1/GPa)
#
#
# Indices 1 2 3 4 5 6 
#
# 1 0.010446 -0.002245 -0.002318 0.000000 0.000000 0.000000
# 2 -0.002245 0.009912 -0.005375 0.000000 0.000000 0.000000
# 3 -0.002318 -0.005375 0.013964 0.000000 0.000000 0.000000
# 4 0.000000 0.000000 0.000000 0.043107 0.000000 0.000000
# 5 0.000000 0.000000 0.000000 0.000000 0.030432 0.000000
# 6 0.000000 0.000000 0.000000 0.000000 0.000000 0.032759
#
#
# Mechanical properties :
#
#
# Convention : Reuss Voigt Hill
#
# Bulk Modulus (GPa) = 69.21625 72.44705 70.83165
# Shear Modulus (GPa) = 30.24617 31.71628 30.98122
#
# Velocity S-wave (km/s) = 3.84542 3.93776 3.89186
# Velocity P-wave (km/s) = 7.31819 7.48957 7.40438
#
# Compressibility (1/GPa) = 0.01444748
#
# Stress axis : x y z
#
# Youngs Moduli (GPa) = 95.72968 100.88977 71.61462
#
# Poissons Ratio (x) = 0.22648 0.16597
# Poissons Ratio (y) = 0.21490 0.38490
# Poissons Ratio (z) = 0.22186 0.54224
#
# Static dielectric constant tensor:
#      x y z
#    x 4.058260 0.000000 0.000000 
#    y 0.000000 3.900000 0.000000 
#    z 0.000000 0.000000 3.667780 
# 
# 
# High freq. dielectric constant tensor:
#      x y z
#    x 1.813010 0.000000 0.000000 
#    y 0.000000 1.812660 0.000000 
#    z 0.000000 0.000000 1.797220 
# 
# From -- ./inp_files/26592.got.cif
#   From: 2010.03.12/outbox.cif.g09.slc.cpg/sg64_14_cif.got.tgz:26592.got - 2010.04.10 20:19:32.
