data_PCOD8264113
_publ_section_title
;
Structure prediction by ZEFSAII (Michael W. Deem and Ramdas Pophale) SiO2 
 PCOD8264113
Probable space group: C M C A
;
_chemical_formula_sum "Si O2"
_cell_formula_units_Z 64
_cell_length_a 9.574724
_cell_length_b 16.508819
_cell_length_c 21.969882
_cell_angle_alpha 90.000000
_cell_angle_beta 90.000000
_cell_angle_gamma 90.000000
_cell_volume 3472.721807
_symmetry_space_group_name_H-M "C M C A"
_symmetry_group_IT_number 64
_symmetry_cell_setting 'orthorhombic'
loop_
_space_group_symop_operation_xyz
x,y,z
-x,1/2-y,1/2+z
x,-y,-z
-x,1/2+y,1/2-z
-x,-y,-z
x,1/2+y,1/2-z
-x,y,z
x,1/2-y,1/2+z
1/2+x,1/2+y,z
1/2-x,-y,1/2+z
1/2+x,1/2-y,-z
1/2-x,y,1/2-z
1/2-x,1/2-y,-z
1/2+x,y,1/2-z
1/2-x,1/2+y,z
1/2+x,-y,1/2+z
loop_
_atom_site_type_symbol
_atom_site_label
_atom_site_fract_x
_atom_site_fract_y
_atom_site_fract_z
Si Si1 0.000000 0.004736 0.927711
Si Si2 0.225290 0.631280 0.593799
Si Si3 0.500000 0.905694 0.018421
Si Si4 0.845002 0.226173 0.695162
Si Si5 0.000000 0.177326 0.104328
Si Si6 0.500000 0.758821 0.467640
O O1 0.137402 0.049405 0.904521
O O2 0.000000 0.917971 0.897916
O O3 0.000000 0.000000 0.000000
O O4 0.364150 0.614087 0.556838
O O5 0.265368 0.651115 0.663562
O O6 0.137936 0.704464 0.563450
O O7 0.500000 0.840021 0.962450
O O8 0.500000 0.000000 0.000000
O O9 0.750000 0.259621 0.750000
O O10 0.000000 0.200572 0.719328
O O11 0.862630 0.294222 0.642201
O O12 0.000000 0.218127 0.038674
#
# Coordination Sequence:
#
# PCOD8264113 Si02
#       6
#     8  16   8  16   8   8
#     4  11  22  37  64  94 132 165 197 248 331 390
#     4  11  22  39  62  92 124 168 204 249 318 379
#     4  12  23  33  55  96 132 151 200 263 312 365
#     4  10  23  42  68  84 119 168 223 255 297 368
#     4  10  21  42  64  90 124 161 214 252 301 390
#     4  11  22  37  62  89 128 168 196 245 333 386
#
# _framework density 18.429348999999998
#
# number of rings (size 3 to 8) (size 9 to 14) (size 15 to 20)
#    0.750    0.500    6.250    1.500    3.500    0.000 
#    0.000    1.250    2.750    0.000    0.000    0.000 
#    0.000    0.000    0.000    0.000    0.000    0.000 
#
# Total GULP energy -396576.699754 kJ/mol
# GULP energy per Si atom -12393.021867 kJ/mol
# Density = 1.838740 g / cm^3
# Si number density = 18.429349 Si / 1000 Ang^3
#
#
#
# Elastic Constant Matrix: (Units=GPa)
#
#
# Indices 1 2 3 4 5 6 
#
# 1 142.9892 42.7461 45.0026 0.0000 0.0000 0.0000
# 2 42.7461 125.7435 23.3898 0.0000 0.0000 0.0000
# 3 45.0026 23.3898 84.9023 0.0000 0.0000 0.0000
# 4 0.0000 0.0000 0.0000 19.5475 0.0000 0.0000
# 5 0.0000 0.0000 0.0000 0.0000 29.6406 0.0000
# 6 0.0000 0.0000 0.0000 0.0000 0.0000 21.3783
#
#
#
# Elastic Compliance Matrix: (Units=1/GPa)
#
#
# Indices 1 2 3 4 5 6 
#
# 1 0.008975 -0.002283 -0.004128 0.000000 0.000000 0.000000
# 2 -0.002283 0.008963 -0.001259 0.000000 0.000000 0.000000
# 3 -0.004128 -0.001259 0.014313 0.000000 0.000000 0.000000
# 4 0.000000 0.000000 0.000000 0.051157 0.000000 0.000000
# 5 0.000000 0.000000 0.000000 0.000000 0.033738 0.000000
# 6 0.000000 0.000000 0.000000 0.000000 0.000000 0.046776
#
#
# Mechanical properties :
#
#
# Convention : Reuss Voigt Hill
#
# Bulk Modulus (GPa) = 59.13481 63.99024 61.56252
# Shear Modulus (GPa) = 27.04145 30.27971 28.66058
#
# Velocity S-wave (km/s) = 3.83470 4.05781 3.94783
# Velocity P-wave (km/s) = 7.19468 7.53337 7.36598
#
# Compressibility (1/GPa) = 0.01691051
#
# Stress axis : x y z
#
# Youngs Moduli (GPa) = 111.41524 111.56893 69.86473
#
# Poissons Ratio (x) = 0.25474 0.28843
# Poissons Ratio (y) = 0.25439 0.08796
# Poissons Ratio (z) = 0.45997 0.14047
#
# Static dielectric constant tensor:
#      x y z
#    x 3.644930 0.000000 0.000000 
#    y 0.000000 3.565210 0.000000 
#    z 0.000000 0.000000 3.220160 
# 
# 
# High freq. dielectric constant tensor:
#      x y z
#    x 1.735880 0.000000 0.000000 
#    y 0.000000 1.704180 0.000000 
#    z 0.000000 0.000000 1.695440 
# 
# From -- ./inp_files/42600.got.cif
#   From: 2010.03.12/outbox.cif.g09.slc.cpg/sg64_22_cif.got.tgz:42600.got - 2010.04.10 20:19:32.
