data_PCOD8264209
_publ_section_title
;
Structure prediction by ZEFSAII (Michael W. Deem and Ramdas Pophale) SiO2 
 PCOD8264209
Probable space group: C M C A
;
_chemical_formula_sum "Si O2"
_cell_formula_units_Z 112
_cell_length_a 19.721108
_cell_length_b 23.586175
_cell_length_c 12.138680
_cell_angle_alpha 90.000000
_cell_angle_beta 90.000000
_cell_angle_gamma 90.000000
_cell_volume 5646.252432
_symmetry_space_group_name_H-M "C M C A"
_symmetry_group_IT_number 64
_symmetry_cell_setting 'orthorhombic'
loop_
_space_group_symop_operation_xyz
x,y,z
-x,1/2-y,1/2+z
x,-y,-z
-x,1/2+y,1/2-z
-x,-y,-z
x,1/2+y,1/2-z
-x,y,z
x,1/2-y,1/2+z
1/2+x,1/2+y,z
1/2-x,-y,1/2+z
1/2+x,1/2-y,-z
1/2-x,y,1/2-z
1/2-x,1/2-y,-z
1/2+x,y,1/2-z
1/2-x,1/2+y,z
1/2+x,-y,1/2+z
loop_
_atom_site_type_symbol
_atom_site_label
_atom_site_fract_x
_atom_site_fract_y
_atom_site_fract_z
Si Si1 0.574305 0.921493 0.774116
Si Si2 0.579591 0.523358 0.878195
Si Si3 0.883475 0.807809 0.802093
Si Si4 0.780114 0.312387 0.502502
Si Si5 0.823887 0.877312 0.202536
Si Si6 0.424472 0.814437 0.138209
Si Si7 0.145233 0.153314 0.424372
O O1 0.500000 0.936606 0.817638
O O2 0.569723 0.864345 0.698351
O O3 0.620841 0.908724 0.881304
O O4 0.602421 0.973916 0.705065
O O5 0.500000 0.541193 0.862570
O O6 0.632619 0.573228 0.854371
O O7 0.591093 0.500000 0.000000
O O8 0.925084 0.751094 0.825936
O O9 0.849015 0.803523 0.680362
O O10 0.828990 0.818146 0.895543
O O11 0.750000 0.250000 0.500000
O O12 0.815360 0.327949 0.387818
O O13 0.718060 0.355893 0.520327
O O14 0.750000 0.896891 0.250000
O O15 0.868163 0.851365 0.300523
O O16 0.500000 0.838335 0.161124
O O17 0.408572 0.819103 0.008520
#
# Coordination Sequence:
#
# PCOD8264209 Si02
#       7
#    16  16  16  16  16  16  16
#     4   9  20  40  64  92 124 161 214 270 325 385
#     4  10  22  46  71  94 127 172 223 279 333 392
#     4  10  22  38  63  95 126 168 218 262 324 394
#     4  12  21  41  64  93 134 176 213 262 332 391
#     4  12  25  44  65  98 136 173 221 271 329 398
#     4  12  24  41  65  97 135 175 217 270 332 399
#     4  10  22  39  63  91 128 173 211 269 326 393
#
# _framework density 19.836165999999999
#
# number of rings (size 3 to 8) (size 9 to 14) (size 15 to 20)
#    0.857    0.429    2.857    3.429    0.000    0.000 
#    5.143    2.143    0.000    2.571    0.000    0.000 
#    0.000    0.000    0.000    0.000    0.000    0.000 
#
# Total GULP energy -693932.116970 kJ/mol
# GULP energy per Si atom -12391.644946 kJ/mol
# Density = 1.979102 g / cm^3
# Si number density = 19.836166 Si / 1000 Ang^3
#
#
#
# Elastic Constant Matrix: (Units=GPa)
#
#
# Indices 1 2 3 4 5 6 
#
# 1 114.1513 15.8596 36.3233 0.0000 0.0000 0.0000
# 2 15.8596 59.8256 15.4310 0.0000 0.0000 0.0000
# 3 36.3233 15.4310 108.6341 0.0000 0.0000 0.0000
# 4 0.0000 0.0000 0.0000 27.9080 0.0000 0.0000
# 5 0.0000 0.0000 0.0000 0.0000 36.8352 0.0000
# 6 0.0000 0.0000 0.0000 0.0000 0.0000 28.4584
#
#
#
# Elastic Compliance Matrix: (Units=1/GPa)
#
#
# Indices 1 2 3 4 5 6 
#
# 1 0.009998 -0.001856 -0.003079 0.000000 0.000000 0.000000
# 2 -0.001856 0.017696 -0.001893 0.000000 0.000000 0.000000
# 3 -0.003079 -0.001893 0.010504 0.000000 0.000000 0.000000
# 4 0.000000 0.000000 0.000000 0.035832 0.000000 0.000000
# 5 0.000000 0.000000 0.000000 0.000000 0.027148 0.000000
# 6 0.000000 0.000000 0.000000 0.000000 0.000000 0.035139
#
#
# Mechanical properties :
#
#
# Convention : Reuss Voigt Hill
#
# Bulk Modulus (GPa) = 40.74908 46.42652 43.58780
# Shear Modulus (GPa) = 31.61487 32.97345 32.29416
#
# Velocity S-wave (km/s) = 3.99657 4.08154 4.03928
# Velocity P-wave (km/s) = 6.47180 6.75779 6.61634
#
# Compressibility (1/GPa) = 0.02454043
#
# Stress axis : x y z
#
# Youngs Moduli (GPa) = 100.01960 56.51129 95.20445
#
# Poissons Ratio (x) = 0.10490 0.29316
# Poissons Ratio (y) = 0.18566 0.18022
# Poissons Ratio (z) = 0.30799 0.10697
#
# Static dielectric constant tensor:
#      x y z
#    x 3.567270 0.000000 0.000000 
#    y 0.000000 3.360740 0.000000 
#    z 0.000000 0.000000 3.721280 
# 
# 
# High freq. dielectric constant tensor:
#      x y z
#    x 1.778440 0.000000 0.000000 
#    y 0.000000 1.752370 0.000000 
#    z 0.000000 0.000000 1.784280 
# 
# From -- ./inp_files/17523.got.cif
#   From: 2010.03.12/outbox.cif.g09.slc.cpg/sg64_9_cif.got.tgz:17523.got - 2010.04.10 20:19:32.
