data_PCOD8264899
_publ_section_title
;
Structure prediction by ZEFSAII (Michael W. Deem and Ramdas Pophale) SiO2 
 PCOD8264899
Probable space group: C M C A
;
_chemical_formula_sum "Si O2"
_cell_formula_units_Z 64
_cell_length_a 8.355147
_cell_length_b 20.196692
_cell_length_c 17.420172
_cell_angle_alpha 90.000000
_cell_angle_beta 90.000000
_cell_angle_gamma 90.000000
_cell_volume 2939.590103
_symmetry_space_group_name_H-M "C M C A"
_symmetry_group_IT_number 64
_symmetry_cell_setting 'orthorhombic'
loop_
_space_group_symop_operation_xyz
x,y,z
-x,1/2-y,1/2+z
x,-y,-z
-x,1/2+y,1/2-z
-x,-y,-z
x,1/2+y,1/2-z
-x,y,z
x,1/2-y,1/2+z
1/2+x,1/2+y,z
1/2-x,-y,1/2+z
1/2+x,1/2-y,-z
1/2-x,y,1/2-z
1/2-x,1/2-y,-z
1/2+x,y,1/2-z
1/2-x,1/2+y,z
1/2+x,-y,1/2+z
loop_
_atom_site_type_symbol
_atom_site_label
_atom_site_fract_x
_atom_site_fract_y
_atom_site_fract_z
Si Si1 0.812217 0.997489 0.167750
Si Si2 0.183425 0.626678 0.093336
Si Si3 0.314982 0.754927 0.168404
Si Si4 0.816568 0.370129 0.427943
O O1 0.750000 0.972994 0.250000
O O2 0.718827 0.063424 0.145304
O O3 0.000000 0.012250 0.169730
O O4 0.768290 0.940832 0.106795
O O5 0.214890 0.691001 0.144258
O O6 0.000000 0.625829 0.066669
O O7 0.295684 0.626712 0.019025
O O8 0.500000 0.735630 0.173752
O O9 0.250000 0.780532 0.250000
O O10 0.294405 0.813125 0.106720
O O11 0.000000 0.353024 0.408584
#
# Coordination Sequence:
#
# PCOD8264899 Si02
#       4
#    16  16  16  16
#     4  11  24  42  65  93 127 165 207 257 311 370
#     4  12  25  42  65  93 127 166 210 258 311 370
#     4  12  25  43  66  93 127 165 209 258 312 371
#     4  11  24  43  66  94 128 165 208 257 312 371
#
# _framework density 21.771744000000002
#
# number of rings (size 3 to 8) (size 9 to 14) (size 15 to 20)
#    0.000    0.500    0.000    9.000    0.000    9.000 
#    0.000    0.000    0.000    0.000    0.000    0.000 
#    0.000    0.000    0.000    0.000    0.000    0.000 
#
# Total GULP energy -397177.696904 kJ/mol
# GULP energy per Si atom -12411.803028 kJ/mol
# Density = 2.172219 g / cm^3
# Si number density = 21.771744 Si / 1000 Ang^3
#
#
#
# Elastic Constant Matrix: (Units=GPa)
#
#
# Indices 1 2 3 4 5 6 
#
# 1 92.0297 34.9760 13.5866 0.0000 0.0000 0.0000
# 2 34.9760 104.5559 9.3000 0.0000 0.0000 0.0000
# 3 13.5866 9.3000 95.8242 0.0000 0.0000 0.0000
# 4 0.0000 0.0000 0.0000 29.5970 0.0000 0.0000
# 5 0.0000 0.0000 0.0000 0.0000 37.1912 0.0000
# 6 0.0000 0.0000 0.0000 0.0000 0.0000 32.3313
#
#
#
# Elastic Compliance Matrix: (Units=1/GPa)
#
#
# Indices 1 2 3 4 5 6 
#
# 1 0.012630 -0.004101 -0.001393 0.000000 0.000000 0.000000
# 2 -0.004101 0.010979 -0.000484 0.000000 0.000000 0.000000
# 3 -0.001393 -0.000484 0.010680 0.000000 0.000000 0.000000
# 4 0.000000 0.000000 0.000000 0.033787 0.000000 0.000000
# 5 0.000000 0.000000 0.000000 0.000000 0.026888 0.000000
# 6 0.000000 0.000000 0.000000 0.000000 0.000000 0.030930
#
#
# Mechanical properties :
#
#
# Convention : Reuss Voigt Hill
#
# Bulk Modulus (GPa) = 44.77539 45.34835 45.06187
# Shear Modulus (GPa) = 34.41259 35.46036 34.93648
#
# Velocity S-wave (km/s) = 3.98000 4.04014 4.01018
# Velocity P-wave (km/s) = 6.45995 6.52976 6.49495
#
# Compressibility (1/GPa) = 0.02233370
#
# Stress axis : x y z
#
# Youngs Moduli (GPa) = 79.17439 91.08084 93.63087
#
# Poissons Ratio (x) = 0.37354 0.13041
# Poissons Ratio (y) = 0.32471 0.04532
# Poissons Ratio (z) = 0.11027 0.04409
#
# Static dielectric constant tensor:
#      x y z
#    x 3.881190 0.000000 0.000000 
#    y 0.000000 3.932920 0.000000 
#    z 0.000000 0.000000 4.008490 
# 
# 
# High freq. dielectric constant tensor:
#      x y z
#    x 1.866260 0.000000 0.000000 
#    y 0.000000 1.866250 0.000000 
#    z 0.000000 0.000000 1.868140 
# 
# From -- ./inp_files/20887.got.cif
#   From: 2010.03.12/outbox.cif.g09.slc.cpg/sg64_11_cif.got.tgz:20887.got - 2010.04.10 20:19:32.
