data_PCOD8264704
_publ_section_title
;
Structure prediction by ZEFSAII (Michael W. Deem and Ramdas Pophale) SiO2 
 PCOD8264704
Probable space group: C M C A
;
_chemical_formula_sum "Si O2"
_cell_formula_units_Z 112
_cell_length_a 23.028570
_cell_length_b 14.988411
_cell_length_c 14.843391
_cell_angle_alpha 90.000000
_cell_angle_beta 90.000000
_cell_angle_gamma 90.000000
_cell_volume 5123.369654
_symmetry_space_group_name_H-M "C M C A"
_symmetry_group_IT_number 64
_symmetry_cell_setting 'orthorhombic'
loop_
_space_group_symop_operation_xyz
x,y,z
-x,1/2-y,1/2+z
x,-y,-z
-x,1/2+y,1/2-z
-x,-y,-z
x,1/2+y,1/2-z
-x,y,z
x,1/2-y,1/2+z
1/2+x,1/2+y,z
1/2-x,-y,1/2+z
1/2+x,1/2-y,-z
1/2-x,y,1/2-z
1/2-x,1/2-y,-z
1/2+x,y,1/2-z
1/2-x,1/2+y,z
1/2+x,-y,1/2+z
loop_
_atom_site_type_symbol
_atom_site_label
_atom_site_fract_x
_atom_site_fract_y
_atom_site_fract_z
Si Si1 0.231769 0.005859 0.902868
Si Si2 0.874467 0.471795 0.719920
Si Si3 0.747274 0.196983 0.856367
Si Si4 0.872563 0.717241 0.367909
Si Si5 0.433102 0.345249 0.229054
Si Si6 0.374183 0.241143 0.567039
Si Si7 0.649360 0.437571 0.581211
O O1 0.268124 0.098004 0.891970
O O2 0.188735 0.995118 0.819776
O O3 0.280759 0.929051 0.905457
O O4 0.198285 0.000000 0.000000
O O5 0.891135 0.373709 0.683257
O O6 0.917100 0.553702 0.698382
O O7 0.876742 0.472687 0.826501
O O8 0.750000 0.197431 0.750000
O O9 0.696865 0.267412 0.881601
O O10 0.809203 0.218778 0.900233
O O11 0.897839 0.802731 0.313771
O O12 0.893994 0.702345 0.470163
O O13 0.500000 0.340528 0.255680
O O14 0.420982 0.288391 0.140112
O O15 0.379387 0.345593 0.555666
O O16 0.630702 0.500000 0.500000
#
# Coordination Sequence:
#
# PCOD8264704 Si02
#       7
#    16  16  16  16  16  16  16
#     4  11  21  34  61 103 150 184 224 275 344 435
#     4  12  23  43  68  99 132 188 231 288 348 415
#     4  12  20  39  67 104 147 185 223 283 360 436
#     4  12  25  44  75 102 141 187 231 293 365 431
#     4  12  28  50  71  98 137 186 250 306 348 413
#     4  12  24  45  69 105 145 182 231 289 358 431
#     4  11  22  39  65 104 141 177 223 278 349 433
#
# _framework density 21.860613000000001
#
# number of rings (size 3 to 8) (size 9 to 14) (size 15 to 20)
#    0.000    0.286    4.286    6.857    0.000    1.143 
#    0.000    0.714    0.000    1.714    0.000    0.000 
#    0.000    0.000    0.000    0.000    0.000    0.000 
#
# Total GULP energy -694126.091819 kJ/mol
# GULP energy per Si atom -12395.108782 kJ/mol
# Density = 2.181086 g / cm^3
# Si number density = 21.860613 Si / 1000 Ang^3
#
#
#
# Elastic Constant Matrix: (Units=GPa)
#
#
# Indices 1 2 3 4 5 6 
#
# 1 60.2930 32.6469 15.1866 0.0000 0.0000 0.0000
# 2 32.6469 120.1716 38.3565 0.0000 0.0000 0.0000
# 3 15.1866 38.3565 165.9869 0.0000 0.0000 0.0000
# 4 0.0000 0.0000 0.0000 33.1543 0.0000 0.0000
# 5 0.0000 0.0000 0.0000 0.0000 7.1853 0.0000
# 6 0.0000 0.0000 0.0000 0.0000 0.0000 19.0579
#
#
#
# Elastic Compliance Matrix: (Units=1/GPa)
#
#
# Indices 1 2 3 4 5 6 
#
# 1 0.019502 -0.005105 -0.000605 0.000000 0.000000 0.000000
# 2 -0.005105 0.010320 -0.001918 0.000000 0.000000 0.000000
# 3 -0.000605 -0.001918 0.006523 0.000000 0.000000 0.000000
# 4 0.000000 0.000000 0.000000 0.030162 0.000000 0.000000
# 5 0.000000 0.000000 0.000000 0.000000 0.139174 0.000000
# 6 0.000000 0.000000 0.000000 0.000000 0.000000 0.052472
#
#
# Mechanical properties :
#
#
# Convention : Reuss Voigt Hill
#
# Bulk Modulus (GPa) = 47.41438 57.64795 52.53117
# Shear Modulus (GPa) = 17.82922 29.23026 23.52974
#
# Velocity S-wave (km/s) = 2.85895 3.66063 3.28434
# Velocity P-wave (km/s) = 5.71267 6.65544 6.20200
#
# Compressibility (1/GPa) = 0.02109065
#
# Stress axis : x y z
#
# Youngs Moduli (GPa) = 51.27608 96.89471 153.30244
#
# Poissons Ratio (x) = 0.49467 0.09269
# Poissons Ratio (y) = 0.26177 0.29400
# Poissons Ratio (z) = 0.03100 0.18582
#
# Static dielectric constant tensor:
#      x y z
#    x 3.513990 0.000000 0.000000 
#    y 0.000000 4.245480 0.000000 
#    z 0.000000 0.000000 4.259750 
# 
# 
# High freq. dielectric constant tensor:
#      x y z
#    x 1.802510 0.000000 0.000000 
#    y 0.000000 1.875910 0.000000 
#    z 0.000000 0.000000 1.886730 
# 
# From -- ./inp_files/27386.got.cif
#   From: 2010.03.12/outbox.cif.g09.slc.cpg/sg64_14_cif.got.tgz:27386.got - 2010.04.10 20:19:32.
