data_PCOD8264140
_publ_section_title
;
Structure prediction by ZEFSAII (Michael W. Deem and Ramdas Pophale) SiO2 
 PCOD8264140
Probable space group: C M C A
;
_chemical_formula_sum "Si O2"
_cell_formula_units_Z 88
_cell_length_a 27.627692
_cell_length_b 11.030542
_cell_length_c 15.209546
_cell_angle_alpha 90.000000
_cell_angle_beta 90.000000
_cell_angle_gamma 90.000000
_cell_volume 4635.085066
_symmetry_space_group_name_H-M "C M C A"
_symmetry_group_IT_number 64
_symmetry_cell_setting 'orthorhombic'
loop_
_space_group_symop_operation_xyz
x,y,z
-x,1/2-y,1/2+z
x,-y,-z
-x,1/2+y,1/2-z
-x,-y,-z
x,1/2+y,1/2-z
-x,y,z
x,1/2-y,1/2+z
1/2+x,1/2+y,z
1/2-x,-y,1/2+z
1/2+x,1/2-y,-z
1/2-x,y,1/2-z
1/2-x,1/2-y,-z
1/2+x,y,1/2-z
1/2-x,1/2+y,z
1/2+x,-y,1/2+z
loop_
_atom_site_type_symbol
_atom_site_label
_atom_site_fract_x
_atom_site_fract_y
_atom_site_fract_z
Si Si1 0.762328 0.000000 0.000000
Si Si2 0.646745 0.864663 0.500853
Si Si3 0.553409 0.987701 0.102525
Si Si4 0.377673 0.192364 0.159590
Si Si5 0.792128 0.509483 0.176849
Si Si6 0.631422 0.804512 0.161359
O O1 0.729093 0.970382 0.918598
O O2 0.796162 0.116976 0.980316
O O3 0.626478 0.776272 0.426372
O O4 0.642009 0.809899 0.598656
O O5 0.621676 0.000000 0.500000
O O6 0.500000 0.967708 0.144681
O O7 0.588517 0.875530 0.115250
O O8 0.576856 0.106139 0.145099
O O9 0.547406 0.000000 0.000000
O O10 0.329357 0.119821 0.187552
O O11 0.389994 0.271437 0.244082
O O12 0.750000 0.512806 0.250000
O O13 0.819812 0.381460 0.177779
#
# Coordination Sequence:
#
# PCOD8264140 Si02
#       6
#     8  16  16  16  16  16
#     4  10  22  34  56  80 124 162 208 240 296 342
#     4  10  23  39  56  88 121 169 203 245 300 360
#     4  10  22  43  69  93 115 152 205 259 319 375
#     4  11  23  39  65  88 124 161 203 255 307 365
#     4  11  23  37  57  93 120 163 213 255 297 350
#     4  11  23  39  65  88 124 161 203 255 307 365
#
# _framework density 18.985627999999998
#
# number of rings (size 3 to 8) (size 9 to 14) (size 15 to 20)
#    0.545    0.909    1.818    3.273    7.636    7.273 
#    0.000    0.000    0.000    1.091    0.000    0.000 
#    0.000    0.000    0.000    0.000    0.000    0.000 
#
# Total GULP energy -545404.349072 kJ/mol
# GULP energy per Si atom -12395.553388 kJ/mol
# Density = 1.894242 g / cm^3
# Si number density = 18.985628 Si / 1000 Ang^3
#
#
#
# Elastic Constant Matrix: (Units=GPa)
#
#
# Indices 1 2 3 4 5 6 
#
# 1 101.9020 19.4242 8.3168 0.0000 0.0000 0.0000
# 2 19.4242 82.6699 7.8936 0.0000 0.0000 0.0000
# 3 8.3168 7.8936 86.3887 0.0000 0.0000 0.0000
# 4 0.0000 0.0000 0.0000 18.6057 0.0000 0.0000
# 5 0.0000 0.0000 0.0000 0.0000 20.3031 0.0000
# 6 0.0000 0.0000 0.0000 0.0000 0.0000 9.2571
#
#
#
# Elastic Compliance Matrix: (Units=1/GPa)
#
#
# Indices 1 2 3 4 5 6 
#
# 1 0.010325 -0.002352 -0.000779 0.000000 0.000000 0.000000
# 2 -0.002352 0.012738 -0.000938 0.000000 0.000000 0.000000
# 3 -0.000779 -0.000938 0.011736 0.000000 0.000000 0.000000
# 4 0.000000 0.000000 0.000000 0.053747 0.000000 0.000000
# 5 0.000000 0.000000 0.000000 0.000000 0.049254 0.000000
# 6 0.000000 0.000000 0.000000 0.000000 0.000000 0.108025
#
#
# Mechanical properties :
#
#
# Convention : Reuss Voigt Hill
#
# Bulk Modulus (GPa) = 37.50488 38.02551 37.76519
# Shear Modulus (GPa) = 19.02228 25.32159 22.17194
#
# Velocity S-wave (km/s) = 3.16876 3.65598 3.42106
# Velocity P-wave (km/s) = 5.76067 6.15578 5.96150
#
# Compressibility (1/GPa) = 0.02666320
#
# Stress axis : x y z
#
# Youngs Moduli (GPa) = 96.85048 78.50308 85.20597
#
# Poissons Ratio (x) = 0.18461 0.06639
# Poissons Ratio (y) = 0.22776 0.07988
# Poissons Ratio (z) = 0.07546 0.07360
#
# Static dielectric constant tensor:
#      x y z
#    x 3.542090 0.000000 0.000000 
#    y 0.000000 4.202790 0.000000 
#    z 0.000000 0.000000 3.463370 
# 
# 
# High freq. dielectric constant tensor:
#      x y z
#    x 1.725220 0.000000 0.000000 
#    y 0.000000 1.743610 0.000000 
#    z 0.000000 0.000000 1.750440 
# 
# From -- ./inp_files/27979.got.cif
#   From: 2010.03.12/outbox.cif.g09.slc.cpg/sg64_14_cif.got.tgz:27979.got - 2010.04.10 20:19:32.
