data_PCOD8264165
_publ_section_title
;
Structure prediction by ZEFSAII (Michael W. Deem and Ramdas Pophale) SiO2 
 PCOD8264165
Probable space group: C M C A
;
_chemical_formula_sum "Si O2"
_cell_formula_units_Z 64
_cell_length_a 13.296391
_cell_length_b 14.580992
_cell_length_c 17.567103
_cell_angle_alpha 90.000000
_cell_angle_beta 90.000000
_cell_angle_gamma 90.000000
_cell_volume 3405.814554
_symmetry_space_group_name_H-M "C M C A"
_symmetry_group_IT_number 64
_symmetry_cell_setting 'orthorhombic'
loop_
_space_group_symop_operation_xyz
x,y,z
-x,1/2-y,1/2+z
x,-y,-z
-x,1/2+y,1/2-z
-x,-y,-z
x,1/2+y,1/2-z
-x,y,z
x,1/2-y,1/2+z
1/2+x,1/2+y,z
1/2-x,-y,1/2+z
1/2+x,1/2-y,-z
1/2-x,y,1/2-z
1/2-x,1/2-y,-z
1/2+x,y,1/2-z
1/2-x,1/2+y,z
1/2+x,-y,1/2+z
loop_
_atom_site_type_symbol
_atom_site_label
_atom_site_fract_x
_atom_site_fract_y
_atom_site_fract_z
Si Si1 0.760095 0.164251 0.409316
Si Si2 0.885108 0.997657 0.409820
Si Si3 0.118406 0.823299 0.038158
Si Si4 0.262715 0.154117 0.837167
O O1 0.813668 0.075870 0.372080
O O2 0.845956 0.216285 0.460696
O O3 0.667921 0.131343 0.463045
O O4 0.718437 0.235661 0.345468
O O5 0.000000 0.018565 0.388961
O O6 0.866854 0.000000 0.500000
O O7 0.856429 0.900080 0.373425
O O8 0.161745 0.872290 0.114780
O O9 0.000000 0.834099 0.034918
O O10 0.250000 0.126227 0.750000
#
# Coordination Sequence:
#
# PCOD8264165 Si02
#       4
#    16  16  16  16
#     4   9  19  36  58  83 114 150 195 234 283 338
#     4  11  20  36  63  88 110 154 204 238 276 344
#     4   9  17  35  59  81 113 151 189 231 288 341
#     4  10  22  37  55  88 124 149 186 247 297 345
#
# _framework density 18.791394
#
# number of rings (size 3 to 8) (size 9 to 14) (size 15 to 20)
#    1.500    0.750    2.500    0.750    0.000    5.000 
#    0.000    2.500    0.000    0.000    0.000    0.000 
#    0.000    0.000    0.000    0.000    0.000    0.000 
#
# Total GULP energy -396460.418948 kJ/mol
# GULP energy per Si atom -12389.388092 kJ/mol
# Density = 1.874862 g / cm^3
# Si number density = 18.791394 Si / 1000 Ang^3
#
#
#
# Elastic Constant Matrix: (Units=GPa)
#
#
# Indices 1 2 3 4 5 6 
#
# 1 128.4412 30.3248 43.5298 0.0000 0.0000 0.0000
# 2 30.3248 88.1604 20.9303 0.0000 0.0000 0.0000
# 3 43.5298 20.9303 98.3326 0.0000 0.0000 0.0000
# 4 0.0000 0.0000 0.0000 9.0915 0.0000 0.0000
# 5 0.0000 0.0000 0.0000 0.0000 8.5034 0.0000
# 6 0.0000 0.0000 0.0000 0.0000 0.0000 27.8058
#
#
#
# Elastic Compliance Matrix: (Units=1/GPa)
#
#
# Indices 1 2 3 4 5 6 
#
# 1 0.009627 -0.002422 -0.003746 0.000000 0.000000 0.000000
# 2 -0.002422 0.012556 -0.001600 0.000000 0.000000 0.000000
# 3 -0.003746 -0.001600 0.012169 0.000000 0.000000 0.000000
# 4 0.000000 0.000000 0.000000 0.109993 0.000000 0.000000
# 5 0.000000 0.000000 0.000000 0.000000 0.117600 0.000000
# 6 0.000000 0.000000 0.000000 0.000000 0.000000 0.035964
#
#
# Mechanical properties :
#
#
# Convention : Reuss Voigt Hill
#
# Bulk Modulus (GPa) = 53.15062 56.05599 54.60330
# Shear Modulus (GPa) = 15.63882 23.75677 19.69780
#
# Velocity S-wave (km/s) = 2.88797 3.55947 3.24116
# Velocity P-wave (km/s) = 6.28224 6.84021 6.56715
#
# Compressibility (1/GPa) = 0.01881446
#
# Stress axis : x y z
#
# Youngs Moduli (GPa) = 103.87312 79.64301 82.17894
#
# Poissons Ratio (x) = 0.19290 0.30786
# Poissons Ratio (y) = 0.25159 0.13152
# Poissons Ratio (z) = 0.38913 0.12746
#
# Static dielectric constant tensor:
#      x y z
#    x 3.186470 0.000000 0.000000 
#    y 0.000000 3.332030 0.000000 
#    z 0.000000 0.000000 3.103930 
# 
# 
# High freq. dielectric constant tensor:
#      x y z
#    x 1.714190 0.000000 0.000000 
#    y 0.000000 1.718350 0.000000 
#    z 0.000000 0.000000 1.696570 
# 
# From -- ./inp_files/31769.got.cif
#   From: 2010.03.12/outbox.cif.g09.slc.cpg/sg64_16_cif.got.tgz:31769.got - 2010.04.10 20:19:32.
