data_PCOD8264287
_publ_section_title
;
Structure prediction by ZEFSAII (Michael W. Deem and Ramdas Pophale) SiO2 
 PCOD8264287
Probable space group: C M C A
;
_chemical_formula_sum "Si O2"
_cell_formula_units_Z 96
_cell_length_a 13.375474
_cell_length_b 20.938295
_cell_length_c 14.791043
_cell_angle_alpha 90.000000
_cell_angle_beta 90.000000
_cell_angle_gamma 90.000000
_cell_volume 4142.373888
_symmetry_space_group_name_H-M "C M C A"
_symmetry_group_IT_number 64
_symmetry_cell_setting 'orthorhombic'
loop_
_space_group_symop_operation_xyz
x,y,z
-x,1/2-y,1/2+z
x,-y,-z
-x,1/2+y,1/2-z
-x,-y,-z
x,1/2+y,1/2-z
-x,y,z
x,1/2-y,1/2+z
1/2+x,1/2+y,z
1/2-x,-y,1/2+z
1/2+x,1/2-y,-z
1/2-x,y,1/2-z
1/2-x,1/2-y,-z
1/2+x,y,1/2-z
1/2-x,1/2+y,z
1/2+x,-y,1/2+z
loop_
_atom_site_type_symbol
_atom_site_label
_atom_site_fract_x
_atom_site_fract_y
_atom_site_fract_z
Si Si1 0.885414 0.173801 0.632555
Si Si2 0.881359 0.446224 0.430564
Si Si3 0.753143 0.847825 0.977666
Si Si4 0.386302 0.191805 0.316082
Si Si5 0.616837 0.407519 0.659587
Si Si6 0.117152 0.454267 0.229940
O O1 0.815932 0.193302 0.546234
O O2 0.882192 0.231953 0.706618
O O3 0.843075 0.107756 0.675464
O O4 0.000000 0.164965 0.599364
O O5 0.843944 0.500000 0.500000
O O6 0.840451 0.379551 0.464663
O O7 0.836094 0.457891 0.330506
O O8 0.000000 0.443533 0.427508
O O9 0.810248 0.810742 0.899282
O O10 0.676059 0.897336 0.932562
O O11 0.500000 0.171879 0.343699
O O12 0.351486 0.145883 0.234499
O O13 0.500000 0.401491 0.639833
O O14 0.647445 0.478837 0.686483
O O15 0.000000 0.446580 0.238668
#
# Coordination Sequence:
#
# PCOD8264287 Si02
#       6
#    16  16  16  16  16  16
#     4  10  23  43  65  93 132 168 212 269 328 385
#     4  10  22  40  62  92 129 169 216 264 314 377
#     4  12  23  38  63  99 128 164 218 264 323 374
#     4  10  22  44  66  89 128 177 217 261 318 385
#     4  10  22  42  69  93 128 172 215 261 318 387
#     4   9  20  42  66  91 125 171 213 259 320 382
#
# _framework density 23.175118000000001
#
# number of rings (size 3 to 8) (size 9 to 14) (size 15 to 20)
#    0.000    1.833    0.000    3.000    2.333    3.333 
#    9.000    2.500    0.000    0.000    0.000    0.000 
#    0.000    0.000    0.000    0.000    0.000    0.000 
#
# Total GULP energy -594796.903547 kJ/mol
# GULP energy per Si atom -12391.602157 kJ/mol
# Density = 2.312237 g / cm^3
# Si number density = 23.175118 Si / 1000 Ang^3
#
#
#
# Elastic Constant Matrix: (Units=GPa)
#
#
# Indices 1 2 3 4 5 6 
#
# 1 47.7732 2.6669 -0.5850 0.0000 0.0000 0.0000
# 2 2.6669 99.0905 -2.2822 0.0000 0.0000 0.0000
# 3 -0.5850 -2.2822 56.3243 0.0000 0.0000 0.0000
# 4 0.0000 0.0000 0.0000 32.0354 0.0000 0.0000
# 5 0.0000 0.0000 0.0000 0.0000 30.0496 0.0000
# 6 0.0000 0.0000 0.0000 0.0000 0.0000 0.0749
#
#
#
# Elastic Compliance Matrix: (Units=1/GPa)
#
#
# Indices 1 2 3 4 5 6 
#
# 1 0.020966 -0.000560 0.000195 0.000000 0.000000 0.000000
# 2 -0.000560 0.010116 0.000404 0.000000 0.000000 0.000000
# 3 0.000195 0.000404 0.017773 0.000000 0.000000 0.000000
# 4 0.000000 0.000000 0.000000 0.031215 0.000000 0.000000
# 5 0.000000 0.000000 0.000000 0.000000 0.033278 0.000000
# 6 0.000000 0.000000 0.000000 0.000000 0.000000 13.358396
#
#
# Mechanical properties :
#
#
# Convention : Reuss Voigt Hill
#
# Bulk Modulus (GPa) = 20.43590 22.53194 21.48392
# Shear Modulus (GPa) = 0.37070 25.99120 13.18095
#
# Velocity S-wave (km/s) = 0.40038 3.35253 2.38744
# Velocity P-wave (km/s) = 3.00847 4.97288 4.10977
#
# Compressibility (1/GPa) = 0.04893349
#
# Stress axis : x y z
#
# Youngs Moduli (GPa) = 47.69658 98.85180 56.26603
#
# Poissons Ratio (x) = 0.05533 -0.01098
# Poissons Ratio (y) = 0.02670 -0.02274
# Poissons Ratio (z) = -0.00930 -0.03994
#
# Static dielectric constant tensor:
#      x y z
#    x 4.262500 0.000000 0.000000 
#    y 0.000000 4.100690 0.000000 
#    z 0.000000 0.000000 4.158180 
# 
# 
# High freq. dielectric constant tensor:
#      x y z
#    x 1.939180 0.000000 0.000000 
#    y 0.000000 1.913580 0.000000 
#    z 0.000000 0.000000 1.901290 
# 
# From -- ./inp_files/23896.got.cif
#   From: 2010.03.12/outbox.cif.g09.slc.cpg/sg64_12_cif.got.tgz:23896.got - 2010.04.10 20:19:32.
