data_PCOD8264540
_publ_section_title
;
Structure prediction by ZEFSAII (Michael W. Deem and Ramdas Pophale) SiO2 
 PCOD8264540
Probable space group: C M C A
;
_chemical_formula_sum "Si O2"
_cell_formula_units_Z 64
_cell_length_a 17.945622
_cell_length_b 9.369896
_cell_length_c 17.782114
_cell_angle_alpha 90.000000
_cell_angle_beta 90.000000
_cell_angle_gamma 90.000000
_cell_volume 2990.037784
_symmetry_space_group_name_H-M "C M C A"
_symmetry_group_IT_number 64
_symmetry_cell_setting 'orthorhombic'
loop_
_space_group_symop_operation_xyz
x,y,z
-x,1/2-y,1/2+z
x,-y,-z
-x,1/2+y,1/2-z
-x,-y,-z
x,1/2+y,1/2-z
-x,y,z
x,1/2-y,1/2+z
1/2+x,1/2+y,z
1/2-x,-y,1/2+z
1/2+x,1/2-y,-z
1/2-x,y,1/2-z
1/2-x,1/2-y,-z
1/2+x,y,1/2-z
1/2-x,1/2+y,z
1/2+x,-y,1/2+z
loop_
_atom_site_type_symbol
_atom_site_label
_atom_site_fract_x
_atom_site_fract_y
_atom_site_fract_z
Si Si1 0.191246 0.148682 0.540357
Si Si2 0.411366 0.263229 0.689131
Si Si3 0.586342 0.350609 0.026068
Si Si4 0.676187 0.943862 0.204205
O O1 0.250000 0.250000 0.500000
O O2 0.111592 0.223465 0.528640
O O3 0.191540 0.000000 0.500000
O O4 0.206281 0.130024 0.628400
O O5 0.500000 0.281828 0.701233
O O6 0.392711 0.181354 0.612075
O O7 0.372914 0.417398 0.686901
O O8 0.376655 0.170033 0.755362
O O9 0.500000 0.363345 0.013633
O O10 0.624593 0.500000 0.000000
O O11 0.750000 0.986746 0.250000
#
# Coordination Sequence:
#
# PCOD8264540 Si02
#       4
#    16  16  16  16
#     4  12  26  45  71 101 135 182 237 290 347 415
#     4  11  25  46  70 103 141 185 234 286 349 421
#     4  10  23  45  71 101 138 182 233 288 347 410
#     4  12  27  45  71 101 142 184 232 287 352 421
#
# _framework density 21.404412000000001
#
# number of rings (size 3 to 8) (size 9 to 14) (size 15 to 20)
#    0.000    0.750    2.500    3.750    7.000    2.500 
#    0.000    0.000    0.000    0.000    0.000    0.000 
#    0.000    0.000    0.000    0.000    0.000    0.000 
#
# Total GULP energy -396874.792392 kJ/mol
# GULP energy per Si atom -12402.337262 kJ/mol
# Density = 2.135569 g / cm^3
# Si number density = 21.404412 Si / 1000 Ang^3
#
#
#
# Elastic Constant Matrix: (Units=GPa)
#
#
# Indices 1 2 3 4 5 6 
#
# 1 87.9029 63.8116 71.0437 0.0000 0.0000 0.0000
# 2 63.8116 177.1072 75.4078 0.0000 0.0000 0.0000
# 3 71.0437 75.4078 155.0753 0.0000 0.0000 0.0000
# 4 0.0000 0.0000 0.0000 42.5011 0.0000 0.0000
# 5 0.0000 0.0000 0.0000 0.0000 35.9939 0.0000
# 6 0.0000 0.0000 0.0000 0.0000 0.0000 31.5913
#
#
#
# Elastic Compliance Matrix: (Units=1/GPa)
#
#
# Indices 1 2 3 4 5 6 
#
# 1 0.020301 -0.004231 -0.007243 0.000000 0.000000 0.000000
# 2 -0.004231 0.008002 -0.001953 0.000000 0.000000 0.000000
# 3 -0.007243 -0.001953 0.010717 0.000000 0.000000 0.000000
# 4 0.000000 0.000000 0.000000 0.023529 0.000000 0.000000
# 5 0.000000 0.000000 0.000000 0.000000 0.027782 0.000000
# 6 0.000000 0.000000 0.000000 0.000000 0.000000 0.031654
#
#
# Mechanical properties :
#
#
# Convention : Reuss Voigt Hill
#
# Bulk Modulus (GPa) = 82.19539 93.40130 87.79835
# Shear Modulus (GPa) = 32.70217 36.00540 34.35379
#
# Velocity S-wave (km/s) = 3.91298 4.10585 4.01057
# Velocity P-wave (km/s) = 7.67462 8.13686 7.90912
#
# Compressibility (1/GPa) = 0.01216613
#
# Stress axis : x y z
#
# Youngs Moduli (GPa) = 49.25761 124.96703 93.31351
#
# Poissons Ratio (x) = 0.52868 0.67591
# Poissons Ratio (y) = 0.20839 0.18225
# Poissons Ratio (z) = 0.35679 0.24407
#
# Static dielectric constant tensor:
#      x y z
#    x 4.058820 0.000000 0.000000 
#    y 0.000000 4.728800 0.000000 
#    z 0.000000 0.000000 4.023580 
# 
# 
# High freq. dielectric constant tensor:
#      x y z
#    x 1.855790 0.000000 0.000000 
#    y 0.000000 1.859700 0.000000 
#    z 0.000000 0.000000 1.849220 
# 
# From -- ./inp_files/39806.got.cif
#   From: 2010.03.12/outbox.cif.g09.slc.cpg/sg64_20_cif.got.tgz:39806.got - 2010.04.10 20:19:32.
