data_PCOD8264631
_publ_section_title
;
Structure prediction by ZEFSAII (Michael W. Deem and Ramdas Pophale) SiO2 
 PCOD8264631
Probable space group: C M C A
;
_chemical_formula_sum "Si O2"
_cell_formula_units_Z 64
_cell_length_a 17.430772
_cell_length_b 8.781982
_cell_length_c 17.778063
_cell_angle_alpha 90.000000
_cell_angle_beta 90.000000
_cell_angle_gamma 90.000000
_cell_volume 2721.407678
_symmetry_space_group_name_H-M "C M C A"
_symmetry_group_IT_number 64
_symmetry_cell_setting 'orthorhombic'
loop_
_space_group_symop_operation_xyz
x,y,z
-x,1/2-y,1/2+z
x,-y,-z
-x,1/2+y,1/2-z
-x,-y,-z
x,1/2+y,1/2-z
-x,y,z
x,1/2-y,1/2+z
1/2+x,1/2+y,z
1/2-x,-y,1/2+z
1/2+x,1/2-y,-z
1/2-x,y,1/2-z
1/2-x,1/2-y,-z
1/2+x,y,1/2-z
1/2-x,1/2+y,z
1/2+x,-y,1/2+z
loop_
_atom_site_type_symbol
_atom_site_label
_atom_site_fract_x
_atom_site_fract_y
_atom_site_fract_z
Si Si1 0.162672 0.318992 0.666637
Si Si2 0.500000 0.036951 0.850348
Si Si3 0.124392 0.847316 0.463902
Si Si4 0.250000 0.569914 0.750000
Si Si5 0.000000 0.964379 0.814390
Si Si6 0.500000 0.733048 0.924637
O O1 0.181637 0.270001 0.578968
O O2 0.215810 0.464596 0.683717
O O3 0.182041 0.175979 0.719927
O O4 0.073727 0.356033 0.681211
O O5 0.426006 0.100698 0.892360
O O6 0.500000 0.067653 0.760889
O O7 0.500000 0.853876 0.857501
O O8 0.075641 0.755726 0.524928
O O9 0.162195 0.000000 0.500000
O O10 0.000000 0.066817 0.889308
#
# Coordination Sequence:
#
# PCOD8264631 Si02
#       6
#    16   8  16   8   8   8
#     4  11  24  44  72  98 141 179 227 284 345 408
#     4   9  19  33  60 106 141 167 211 289 353 380
#     4   9  19  41  64  95 143 181 216 277 353 400
#     4  10  26  48  66 102 146 180 218 290 354 406
#     4  12  24  36  77 111 127 171 251 285 335 393
#     4   9  21  37  62 104 147 169 217 303 341 394
#
# _framework density 23.517240999999999
#
# number of rings (size 3 to 8) (size 9 to 14) (size 15 to 20)
#    0.000    2.000    0.000    4.500    7.000    2.000 
#    4.500    1.250    0.000    0.000    0.000    0.000 
#    0.000    0.000    0.000    0.000    0.000    0.000 
#
# Total GULP energy -396584.373643 kJ/mol
# GULP energy per Si atom -12393.261676 kJ/mol
# Density = 2.346371 g / cm^3
# Si number density = 23.517241 Si / 1000 Ang^3
#
#
#
# Elastic Constant Matrix: (Units=GPa)
#
#
# Indices 1 2 3 4 5 6 
#
# 1 82.8179 59.0420 28.8330 0.0000 0.0000 0.0000
# 2 59.0420 160.2786 76.9581 0.0000 0.0000 0.0000
# 3 28.8330 76.9581 144.0444 0.0000 0.0000 0.0000
# 4 0.0000 0.0000 0.0000 45.2927 0.0000 0.0000
# 5 0.0000 0.0000 0.0000 0.0000 7.6051 0.0000
# 6 0.0000 0.0000 0.0000 0.0000 0.0000 11.0492
#
#
#
# Elastic Compliance Matrix: (Units=1/GPa)
#
#
# Indices 1 2 3 4 5 6 
#
# 1 0.016376 -0.005997 -0.000074 0.000000 0.000000 0.000000
# 2 -0.005997 0.010588 -0.004456 0.000000 0.000000 0.000000
# 3 -0.000074 -0.004456 0.009338 0.000000 0.000000 0.000000
# 4 0.000000 0.000000 0.000000 0.022079 0.000000 0.000000
# 5 0.000000 0.000000 0.000000 0.000000 0.131491 0.000000
# 6 0.000000 0.000000 0.000000 0.000000 0.000000 0.090504
#
#
# Mechanical properties :
#
#
# Convention : Reuss Voigt Hill
#
# Bulk Modulus (GPa) = 65.58574 79.64523 72.61549
# Shear Modulus (GPa) = 16.31258 27.60992 21.96125
#
# Velocity S-wave (km/s) = 2.63657 3.43013 3.05919
# Velocity P-wave (km/s) = 6.10062 7.04471 6.58960
#
# Compressibility (1/GPa) = 0.01524722
#
# Stress axis : x y z
#
# Youngs Moduli (GPa) = 61.06639 94.44717 107.08896
#
# Poissons Ratio (x) = 0.56638 0.00792
# Poissons Ratio (y) = 0.36620 0.47723
# Poissons Ratio (z) = 0.00452 0.42090
#
# Static dielectric constant tensor:
#      x y z
#    x 4.062800 0.000000 0.000000 
#    y 0.000000 4.450150 0.000000 
#    z 0.000000 0.000000 4.479400 
# 
# 
# High freq. dielectric constant tensor:
#      x y z
#    x 1.896340 0.000000 0.000000 
#    y 0.000000 1.951550 0.000000 
#    z 0.000000 0.000000 1.936320 
# 
# From -- ./inp_files/33922.got.cif
#   From: 2010.03.12/outbox.cif.g09.slc.cpg/sg64_17_cif.got.tgz:33922.got - 2010.04.10 20:19:32.
