data_PCOD8264128
_publ_section_title
;
Structure prediction by ZEFSAII (Michael W. Deem and Ramdas Pophale) SiO2 
 PCOD8264128
Probable space group: C M C A
;
_chemical_formula_sum "Si O2"
_cell_formula_units_Z 96
_cell_length_a 16.562315
_cell_length_b 11.849338
_cell_length_c 21.980752
_cell_angle_alpha 90.000000
_cell_angle_beta 90.000000
_cell_angle_gamma 90.000000
_cell_volume 4313.776839
_symmetry_space_group_name_H-M "C M C A"
_symmetry_group_IT_number 64
_symmetry_cell_setting 'orthorhombic'
loop_
_space_group_symop_operation_xyz
x,y,z
-x,1/2-y,1/2+z
x,-y,-z
-x,1/2+y,1/2-z
-x,-y,-z
x,1/2+y,1/2-z
-x,y,z
x,1/2-y,1/2+z
1/2+x,1/2+y,z
1/2-x,-y,1/2+z
1/2+x,1/2-y,-z
1/2-x,y,1/2-z
1/2-x,1/2-y,-z
1/2+x,y,1/2-z
1/2-x,1/2+y,z
1/2+x,-y,1/2+z
loop_
_atom_site_type_symbol
_atom_site_label
_atom_site_fract_x
_atom_site_fract_y
_atom_site_fract_z
Si Si1 0.410688 0.664021 0.965768
Si Si2 0.595433 0.343260 0.226796
Si Si3 0.096249 0.431044 0.141651
Si Si4 0.592511 0.019460 0.370129
Si Si5 0.674435 0.272779 0.915764
Si Si6 0.349781 0.315812 0.631723
O O1 0.500000 0.662416 0.996864
O O2 0.393217 0.542549 0.934844
O O3 0.415851 0.758511 0.912433
O O4 0.341435 0.688509 0.015009
O O5 0.500000 0.325438 0.221441
O O6 0.621320 0.372135 0.295046
O O7 0.627351 0.445566 0.184975
O O8 0.638890 0.230255 0.200936
O O9 0.132485 0.349651 0.090157
O O10 0.140916 0.550036 0.133484
O O11 0.000000 0.446344 0.135443
O O12 0.500000 0.043888 0.357162
O O13 0.635390 0.139519 0.368669
O O14 0.767953 0.271788 0.899672
#
# Coordination Sequence:
#
# PCOD8264128 Si02
#       6
#    16  16  16  16  16  16
#     4  10  21  43  71  93 128 178 226 271 322 398
#     4   9  21  43  69  90 123 173 223 267 320 395
#     4  11  25  44  68  97 130 176 227 272 326 400
#     4   9  19  39  67  94 123 170 226 272 317 385
#     4  12  25  39  63 101 137 170 216 274 334 393
#     4  11  25  43  64  98 138 173 212 276 347 388
#
# _framework density 22.254280000000001
#
# number of rings (size 3 to 8) (size 9 to 14) (size 15 to 20)
#    0.000    1.667    0.000    5.000    7.000    2.667 
#    3.000    1.667    0.000    0.000    0.000    0.000 
#    0.000    0.000    0.000    0.000    0.000    0.000 
#
# Total GULP energy -595216.438179 kJ/mol
# GULP energy per Si atom -12400.342462 kJ/mol
# Density = 2.220363 g / cm^3
# Si number density = 22.254280 Si / 1000 Ang^3
#
#
#
# Elastic Constant Matrix: (Units=GPa)
#
#
# Indices 1 2 3 4 5 6 
#
# 1 67.1057 18.9631 20.7316 0.0000 0.0000 0.0000
# 2 18.9631 123.9661 -1.6869 0.0000 0.0000 0.0000
# 3 20.7316 -1.6869 46.5135 0.0000 0.0000 0.0000
# 4 0.0000 0.0000 0.0000 23.9754 0.0000 0.0000
# 5 0.0000 0.0000 0.0000 0.0000 16.0771 0.0000
# 6 0.0000 0.0000 0.0000 0.0000 0.0000 29.4609
#
#
#
# Elastic Compliance Matrix: (Units=1/GPa)
#
#
# Indices 1 2 3 4 5 6 
#
# 1 0.018272 -0.002907 -0.008249 0.000000 0.000000 0.000000
# 2 -0.002907 0.008533 0.001605 0.000000 0.000000 0.000000
# 3 -0.008249 0.001605 0.025234 0.000000 0.000000 0.000000
# 4 0.000000 0.000000 0.000000 0.041709 0.000000 0.000000
# 5 0.000000 0.000000 0.000000 0.000000 0.062200 0.000000
# 6 0.000000 0.000000 0.000000 0.000000 0.000000 0.033943
#
#
# Mechanical properties :
#
#
# Convention : Reuss Voigt Hill
#
# Bulk Modulus (GPa) = 30.36138 34.84452 32.60295
# Shear Modulus (GPa) = 22.72992 27.20785 24.96889
#
# Velocity S-wave (km/s) = 3.19936 3.50035 3.35323
# Velocity P-wave (km/s) = 5.22689 5.65933 5.44741
#
# Compressibility (1/GPa) = 0.03293658
#
# Stress axis : x y z
#
# Youngs Moduli (GPa) = 54.72843 117.18790 39.62865
#
# Poissons Ratio (x) = 0.34070 0.32692
# Poissons Ratio (y) = 0.15911 -0.06362
# Poissons Ratio (z) = 0.45148 -0.18812
#
# Static dielectric constant tensor:
#      x y z
#    x 3.806670 0.000000 0.000000 
#    y 0.000000 4.060230 0.000000 
#    z 0.000000 0.000000 3.950760 
# 
# 
# High freq. dielectric constant tensor:
#      x y z
#    x 1.865450 0.000000 0.000000 
#    y 0.000000 1.882040 0.000000 
#    z 0.000000 0.000000 1.874520 
# 
# From -- ./inp_files/45715.got.cif
#   From: 2010.03.12/outbox.cif.g09.slc.cpg/sg64_23_cif.got.tgz:45715.got - 2010.04.10 20:19:32.
