data_PCOD8264531
_publ_section_title
;
Structure prediction by ZEFSAII (Michael W. Deem and Ramdas Pophale) SiO2 
 PCOD8264531
Probable space group: C M C A
;
_chemical_formula_sum "Si O2"
_cell_formula_units_Z 48
_cell_length_a 15.772935
_cell_length_b 7.340980
_cell_length_c 17.932828
_cell_angle_alpha 90.000000
_cell_angle_beta 90.000000
_cell_angle_gamma 90.000000
_cell_volume 2076.420641
_symmetry_space_group_name_H-M "C M C A"
_symmetry_group_IT_number 64
_symmetry_cell_setting 'orthorhombic'
loop_
_space_group_symop_operation_xyz
x,y,z
-x,1/2-y,1/2+z
x,-y,-z
-x,1/2+y,1/2-z
-x,-y,-z
x,1/2+y,1/2-z
-x,y,z
x,1/2-y,1/2+z
1/2+x,1/2+y,z
1/2-x,-y,1/2+z
1/2+x,1/2-y,-z
1/2-x,y,1/2-z
1/2-x,1/2-y,-z
1/2+x,y,1/2-z
1/2-x,1/2+y,z
1/2+x,-y,1/2+z
loop_
_atom_site_type_symbol
_atom_site_label
_atom_site_fract_x
_atom_site_fract_y
_atom_site_fract_z
Si Si1 0.334517 0.273730 0.200630
Si Si2 0.593602 0.406633 0.340245
Si Si3 0.599516 0.546466 0.084111
O O1 0.250000 0.292132 0.250000
O O2 0.409877 0.303602 0.260256
O O3 0.340301 0.427138 0.137349
O O4 0.341977 0.076611 0.161573
O O5 0.500000 0.480214 0.359606
O O6 0.622257 0.259209 0.402305
O O7 0.500000 0.509214 0.100675
O O8 0.623393 0.500000 0.000000
#
# Coordination Sequence:
#
# PCOD8264531 Si02
#       3
#    16  16  16
#     4  12  24  39  67  99 137 175 226 284 341 408
#     4  11  22  39  68  96 128 178 231 279 333 409
#     4  10  23  44  71 104 139 179 234 293 345 408
#
# _framework density 23.116703999999999
#
# number of rings (size 3 to 8) (size 9 to 14) (size 15 to 20)
#    0.000    1.000    3.333    4.000    0.000    2.667 
#    0.000    6.667    0.000    0.000    0.000    0.000 
#    0.000    0.000    0.000    0.000    0.000    0.000 
#
# Total GULP energy -297545.573570 kJ/mol
# GULP energy per Si atom -12397.732232 kJ/mol
# Density = 2.306409 g / cm^3
# Si number density = 23.116704 Si / 1000 Ang^3
#
#
#
# Elastic Constant Matrix: (Units=GPa)
#
#
# Indices 1 2 3 4 5 6 
#
# 1 98.3893 68.2784 52.6727 0.0000 0.0000 0.0000
# 2 68.2784 133.3716 30.9727 0.0000 0.0000 0.0000
# 3 52.6727 30.9727 103.0437 0.0000 0.0000 0.0000
# 4 0.0000 0.0000 0.0000 43.0864 0.0000 0.0000
# 5 0.0000 0.0000 0.0000 0.0000 30.9436 0.0000
# 6 0.0000 0.0000 0.0000 0.0000 0.0000 26.7781
#
#
#
# Elastic Compliance Matrix: (Units=1/GPa)
#
#
# Indices 1 2 3 4 5 6 
#
# 1 0.020287 -0.008576 -0.007792 0.000000 0.000000 0.000000
# 2 -0.008576 0.011686 0.000871 0.000000 0.000000 0.000000
# 3 -0.007792 0.000871 0.013426 0.000000 0.000000 0.000000
# 4 0.000000 0.000000 0.000000 0.023209 0.000000 0.000000
# 5 0.000000 0.000000 0.000000 0.000000 0.032317 0.000000
# 6 0.000000 0.000000 0.000000 0.000000 0.000000 0.037344
#
#
# Mechanical properties :
#
#
# Convention : Reuss Voigt Hill
#
# Bulk Modulus (GPa) = 69.42214 70.96134 70.19174
# Shear Modulus (GPa) = 28.72511 32.35369 30.53940
#
# Velocity S-wave (km/s) = 3.52890 3.74516 3.63863
# Velocity P-wave (km/s) = 6.83378 7.03315 6.93418
#
# Compressibility (1/GPa) = 0.01440463
#
# Stress axis : x y z
#
# Youngs Moduli (GPa) = 49.29343 85.57291 74.48324
#
# Poissons Ratio (x) = 0.73388 0.58038
# Poissons Ratio (y) = 0.42274 -0.06489
# Poissons Ratio (z) = 0.38410 -0.07456
#
# Static dielectric constant tensor:
#      x y z
#    x 4.044740 0.000000 0.000000 
#    y 0.000000 4.225050 0.000000 
#    z 0.000000 0.000000 4.067990 
# 
# 
# High freq. dielectric constant tensor:
#      x y z
#    x 1.906730 0.000000 0.000000 
#    y 0.000000 1.926620 0.000000 
#    z 0.000000 0.000000 1.891170 
# 
# From -- ./inp_files/31413.got.cif
#   From: 2010.03.12/outbox.cif.g09.slc.cpg/sg64_16_cif.got.tgz:31413.got - 2010.04.10 20:19:32.
