data_PCOD8264761
_publ_section_title
;
Structure prediction by ZEFSAII (Michael W. Deem and Ramdas Pophale) SiO2 
 PCOD8264761
Probable space group: C M C A
;
_chemical_formula_sum "Si O2"
_cell_formula_units_Z 96
_cell_length_a 24.602026
_cell_length_b 8.845106
_cell_length_c 20.546806
_cell_angle_alpha 90.000000
_cell_angle_beta 90.000000
_cell_angle_gamma 90.000000
_cell_volume 4471.139658
_symmetry_space_group_name_H-M "C M C A"
_symmetry_group_IT_number 64
_symmetry_cell_setting 'orthorhombic'
loop_
_space_group_symop_operation_xyz
x,y,z
-x,1/2-y,1/2+z
x,-y,-z
-x,1/2+y,1/2-z
-x,-y,-z
x,1/2+y,1/2-z
-x,y,z
x,1/2-y,1/2+z
1/2+x,1/2+y,z
1/2-x,-y,1/2+z
1/2+x,1/2-y,-z
1/2-x,y,1/2-z
1/2-x,1/2-y,-z
1/2+x,y,1/2-z
1/2-x,1/2+y,z
1/2+x,-y,1/2+z
loop_
_atom_site_type_symbol
_atom_site_label
_atom_site_fract_x
_atom_site_fract_y
_atom_site_fract_z
Si Si1 0.102358 0.096900 0.192194
Si Si2 0.374776 0.072796 0.064014
Si Si3 0.262678 0.992972 0.103371
Si Si4 0.938261 0.924697 0.317284
Si Si5 0.855930 0.581275 0.566946
Si Si6 0.212643 0.761665 0.809287
O O1 0.064052 0.241796 0.179581
O O2 0.158424 0.165602 0.219392
O O3 0.078465 0.982454 0.245310
O O4 0.115146 0.008647 0.125496
O O5 0.310512 0.036415 0.054176
O O6 0.382128 0.252861 0.066003
O O7 0.400987 0.001249 0.128251
O O8 0.403362 0.000000 0.000000
O O9 0.240619 0.143644 0.134924
O O10 0.210125 0.909177 0.072285
O O11 0.295944 0.899682 0.157779
O O12 0.000000 0.974033 0.330404
O O13 0.871717 0.500000 0.500000
O O14 0.250000 0.726464 0.750000
#
# Coordination Sequence:
#
# PCOD8264761 Si02
#       6
#    16  16  16  16  16  16
#     4  11  25  43  69  98 135 176 221 278 335 400
#     4  12  25  43  69  98 137 178 228 277 335 401
#     4  11  22  37  61  96 138 184 219 260 321 399
#     4  12  26  47  72  99 129 171 228 288 350 398
#     4  11  25  43  66 101 141 184 223 266 329 407
#     4  11  22  35  59  97 140 178 218 261 322 399
#
# _framework density 21.471035000000001
#
# number of rings (size 3 to 8) (size 9 to 14) (size 15 to 20)
#    0.000    0.667    3.333    4.500    7.000    1.667 
#    0.000    0.833    0.000    3.500    0.000    0.000 
#    0.000    0.000    0.000    0.000    0.000    0.000 
#
# Total GULP energy -594975.269379 kJ/mol
# GULP energy per Si atom -12395.318112 kJ/mol
# Density = 2.142217 g / cm^3
# Si number density = 21.471035 Si / 1000 Ang^3
#
#
#
# Elastic Constant Matrix: (Units=GPa)
#
#
# Indices 1 2 3 4 5 6 
#
# 1 95.9205 28.4642 40.6140 0.0000 0.0000 0.0000
# 2 28.4642 152.6426 48.7633 0.0000 0.0000 0.0000
# 3 40.6140 48.7633 110.3636 0.0000 0.0000 0.0000
# 4 0.0000 0.0000 0.0000 39.5304 0.0000 0.0000
# 5 0.0000 0.0000 0.0000 0.0000 18.6882 0.0000
# 6 0.0000 0.0000 0.0000 0.0000 0.0000 25.7132
#
#
#
# Elastic Compliance Matrix: (Units=1/GPa)
#
#
# Indices 1 2 3 4 5 6 
#
# 1 0.012480 -0.001001 -0.004150 0.000000 0.000000 0.000000
# 2 -0.001001 0.007708 -0.003037 0.000000 0.000000 0.000000
# 3 -0.004150 -0.003037 0.011930 0.000000 0.000000 0.000000
# 4 0.000000 0.000000 0.000000 0.025297 0.000000 0.000000
# 5 0.000000 0.000000 0.000000 0.000000 0.053510 0.000000
# 6 0.000000 0.000000 0.000000 0.000000 0.000000 0.038891
#
#
# Mechanical properties :
#
#
# Convention : Reuss Voigt Hill
#
# Bulk Modulus (GPa) = 63.53008 66.06773 64.79890
# Shear Modulus (GPa) = 29.16475 32.85871 31.01173
#
# Velocity S-wave (km/s) = 3.68955 3.91624 3.80459
# Velocity P-wave (km/s) = 6.91400 7.16147 7.03882
#
# Compressibility (1/GPa) = 0.01574058
#
# Stress axis : x y z
#
# Youngs Moduli (GPa) = 80.13045 129.73035 83.82069
#
# Poissons Ratio (x) = 0.12991 0.34786
# Poissons Ratio (y) = 0.08024 0.25459
# Poissons Ratio (z) = 0.33255 0.39404
#
# Static dielectric constant tensor:
#      x y z
#    x 3.770930 0.000000 0.000000 
#    y 0.000000 4.029510 0.000000 
#    z 0.000000 0.000000 4.040430 
# 
# 
# High freq. dielectric constant tensor:
#      x y z
#    x 1.821580 0.000000 0.000000 
#    y 0.000000 1.859900 0.000000 
#    z 0.000000 0.000000 1.849650 
# 
# From -- ./inp_files/41771.got.cif
#   From: 2010.03.12/outbox.cif.g09.slc.cpg/sg64_21_cif.got.tgz:41771.got - 2010.04.10 20:19:32.
