data_PCOD8264773
_publ_section_title
;
Structure prediction by ZEFSAII (Michael W. Deem and Ramdas Pophale) SiO2 
 PCOD8264773
Probable space group: C M C A
;
_chemical_formula_sum "Si O2"
_cell_formula_units_Z 96
_cell_length_a 18.801452
_cell_length_b 9.337405
_cell_length_c 28.834187
_cell_angle_alpha 90.000000
_cell_angle_beta 90.000000
_cell_angle_gamma 90.000000
_cell_volume 5062.036790
_symmetry_space_group_name_H-M "C M C A"
_symmetry_group_IT_number 64
_symmetry_cell_setting 'orthorhombic'
loop_
_space_group_symop_operation_xyz
x,y,z
-x,1/2-y,1/2+z
x,-y,-z
-x,1/2+y,1/2-z
-x,-y,-z
x,1/2+y,1/2-z
-x,y,z
x,1/2-y,1/2+z
1/2+x,1/2+y,z
1/2-x,-y,1/2+z
1/2+x,1/2-y,-z
1/2-x,y,1/2-z
1/2-x,1/2-y,-z
1/2+x,y,1/2-z
1/2-x,1/2+y,z
1/2+x,-y,1/2+z
loop_
_atom_site_type_symbol
_atom_site_label
_atom_site_fract_x
_atom_site_fract_y
_atom_site_fract_z
Si Si1 0.320858 0.664285 0.988209
Si Si2 0.918523 0.996236 0.284977
Si Si3 0.669065 0.547670 0.626780
Si Si4 0.918479 0.823709 0.196217
Si Si5 0.083386 0.123092 0.536497
Si Si6 0.812144 0.717514 0.616373
O O1 0.340506 0.679122 0.934430
O O2 0.307749 0.500000 0.000000
O O3 0.250000 0.750000 0.000000
O O4 0.385048 0.726488 0.018840
O O5 0.871205 0.925900 0.325031
O O6 0.893763 0.934933 0.235500
O O7 0.000000 0.952959 0.294732
O O8 0.908404 0.165933 0.283035
O O9 0.614701 0.580846 0.585811
O O10 0.735140 0.653102 0.625427
O O11 0.696504 0.386472 0.622413
O O12 0.869528 0.848580 0.151578
O O13 0.000000 0.849685 0.180998
O O14 0.000000 0.142497 0.542117
O O15 0.103618 0.000000 0.500000
#
# Coordination Sequence:
#
# PCOD8264773 Si02
#       6
#    16  16  16  16  16  16
#     4  12  23  40  63  87 125 163 201 245 299 357
#     4   9  19  38  61  83 115 151 192 243 296 353
#     4  11  22  38  60  89 117 154 201 241 299 357
#     4   9  20  39  61  86 114 153 197 243 299 355
#     4  11  23  40  63  89 118 156 201 247 295 355
#     4  11  23  37  61  88 118 159 196 247 300 353
#
# _framework density 18.964699
#
# number of rings (size 3 to 8) (size 9 to 14) (size 15 to 20)
#    0.000    1.500    3.333    2.000    0.000    3.667 
#    0.000    3.333    0.000    0.000    0.000    0.000 
#    0.000    0.000    0.000    0.000    0.000    0.000 
#
# Total GULP energy -595454.145109 kJ/mol
# GULP energy per Si atom -12405.294690 kJ/mol
# Density = 1.892153 g / cm^3
# Si number density = 18.964699 Si / 1000 Ang^3
#
#
#
# Elastic Constant Matrix: (Units=GPa)
#
#
# Indices 1 2 3 4 5 6 
#
# 1 101.6685 43.7162 53.9335 0.0000 0.0000 0.0000
# 2 43.7162 89.8085 39.2812 0.0000 0.0000 0.0000
# 3 53.9335 39.2812 130.3592 0.0000 0.0000 0.0000
# 4 0.0000 0.0000 0.0000 32.6391 0.0000 0.0000
# 5 0.0000 0.0000 0.0000 0.0000 29.6548 0.0000
# 6 0.0000 0.0000 0.0000 0.0000 0.0000 17.0347
#
#
#
# Elastic Compliance Matrix: (Units=1/GPa)
#
#
# Indices 1 2 3 4 5 6 
#
# 1 0.014351 -0.005055 -0.004414 0.000000 0.000000 0.000000
# 2 -0.005055 0.014606 -0.002310 0.000000 0.000000 0.000000
# 3 -0.004414 -0.002310 0.010193 0.000000 0.000000 0.000000
# 4 0.000000 0.000000 0.000000 0.030638 0.000000 0.000000
# 5 0.000000 0.000000 0.000000 0.000000 0.033721 0.000000
# 6 0.000000 0.000000 0.000000 0.000000 0.000000 0.058704
#
#
# Mechanical properties :
#
#
# Convention : Reuss Voigt Hill
#
# Bulk Modulus (GPa) = 64.13436 66.18866 65.16151
# Shear Modulus (GPa) = 26.18227 28.19273 27.18750
#
# Velocity S-wave (km/s) = 3.71965 3.85981 3.79038
# Velocity P-wave (km/s) = 7.23456 7.40547 7.32051
#
# Compressibility (1/GPa) = 0.01559227
#
# Stress axis : x y z
#
# Youngs Moduli (GPa) = 69.68077 68.46654 98.10245
#
# Poissons Ratio (x) = 0.34610 0.43305
# Poissons Ratio (y) = 0.35223 0.22659
# Poissons Ratio (z) = 0.30759 0.15814
#
# Static dielectric constant tensor:
#      x y z
#    x 3.488480 0.000000 0.000000 
#    y 0.000000 3.541860 0.000000 
#    z 0.000000 0.000000 3.703170 
# 
# 
# High freq. dielectric constant tensor:
#      x y z
#    x 1.740030 0.000000 0.000000 
#    y 0.000000 1.738170 0.000000 
#    z 0.000000 0.000000 1.749280 
# 
# From -- ./inp_files/50686.got.cif
#   From: 2010.03.12/outbox.cif.g09.slc.cpg/sg64_26_cif.got.tgz:50686.got - 2010.04.10 20:19:32.
