data_PCOD8264242
_publ_section_title
;
Structure prediction by ZEFSAII (Michael W. Deem and Ramdas Pophale) SiO2 
 PCOD8264242
Probable space group: C M C A
;
_chemical_formula_sum "Si O2"
_cell_formula_units_Z 64
_cell_length_a 19.106130
_cell_length_b 28.672339
_cell_length_c 5.180653
_cell_angle_alpha 90.000000
_cell_angle_beta 90.000000
_cell_angle_gamma 90.000000
_cell_volume 2838.052045
_symmetry_space_group_name_H-M "C M C A"
_symmetry_group_IT_number 64
_symmetry_cell_setting 'orthorhombic'
loop_
_space_group_symop_operation_xyz
x,y,z
-x,1/2-y,1/2+z
x,-y,-z
-x,1/2+y,1/2-z
-x,-y,-z
x,1/2+y,1/2-z
-x,y,z
x,1/2-y,1/2+z
1/2+x,1/2+y,z
1/2-x,-y,1/2+z
1/2+x,1/2-y,-z
1/2-x,y,1/2-z
1/2-x,1/2-y,-z
1/2+x,y,1/2-z
1/2-x,1/2+y,z
1/2+x,-y,1/2+z
loop_
_atom_site_type_symbol
_atom_site_label
_atom_site_fract_x
_atom_site_fract_y
_atom_site_fract_z
Si Si1 0.578465 0.915113 0.047572
Si Si2 0.580031 0.280222 0.953141
Si Si3 0.140220 0.949506 0.965397
Si Si4 0.676279 0.142990 0.662880
O O1 0.500000 0.897890 0.991962
O O2 0.580761 0.945845 0.310587
O O3 0.626912 0.868870 0.089174
O O4 0.605434 0.946537 0.813725
O O5 0.500000 0.298644 0.969055
O O6 0.595245 0.243851 0.181113
O O7 0.633825 0.322970 0.974196
O O8 0.193389 0.905841 0.009677
O O9 0.178111 0.000000 0.000000
O O10 0.750000 0.165470 0.750000
#
# Coordination Sequence:
#
# PCOD8264242 Si02
#       4
#    16  16  16  16
#     4  10  22  39  62  90 123 164 214 267 315 368
#     4  10  23  43  68  97 126 162 209 264 328 385
#     4  10  23  41  62  93 128 171 215 267 318 375
#     4  10  25  44  64  95 132 171 216 259 317 383
#
# _framework density 22.55068
#
# number of rings (size 3 to 8) (size 9 to 14) (size 15 to 20)
#    1.500    0.500    0.000    2.250    3.500    5.000 
#    4.500    0.000    0.000    0.000    0.000    0.000 
#    0.000    0.000    0.000    0.000    0.000    0.000 
#
# Total GULP energy -396482.438415 kJ/mol
# GULP energy per Si atom -12390.076200 kJ/mol
# Density = 2.249935 g / cm^3
# Si number density = 22.550680 Si / 1000 Ang^3
#
#
#
# Elastic Constant Matrix: (Units=GPa)
#
#
# Indices 1 2 3 4 5 6 
#
# 1 66.6391 14.8280 -17.4335 0.0000 0.0000 0.0000
# 2 14.8280 85.3845 -16.0879 0.0000 0.0000 0.0000
# 3 -17.4335 -16.0879 90.9030 0.0000 0.0000 0.0000
# 4 0.0000 0.0000 0.0000 23.9277 0.0000 0.0000
# 5 0.0000 0.0000 0.0000 0.0000 12.0474 0.0000
# 6 0.0000 0.0000 0.0000 0.0000 0.0000 13.2320
#
#
#
# Elastic Compliance Matrix: (Units=1/GPa)
#
#
# Indices 1 2 3 4 5 6 
#
# 1 0.016227 -0.002309 0.002703 0.000000 0.000000 0.000000
# 2 -0.002309 0.012444 0.001760 0.000000 0.000000 0.000000
# 3 0.002703 0.001760 0.011831 0.000000 0.000000 0.000000
# 4 0.000000 0.000000 0.000000 0.041793 0.000000 0.000000
# 5 0.000000 0.000000 0.000000 0.000000 0.083005 0.000000
# 6 0.000000 0.000000 0.000000 0.000000 0.000000 0.075574
#
#
# Mechanical properties :
#
#
# Convention : Reuss Voigt Hill
#
# Bulk Modulus (GPa) = 22.31601 22.83774 22.57687
# Shear Modulus (GPa) = 19.88052 27.28275 23.58164
#
# Velocity S-wave (km/s) = 2.97238 3.48205 3.23726
# Velocity P-wave (km/s) = 4.65806 5.12987 4.89964
#
# Compressibility (1/GPa) = 0.04481088
#
# Stress axis : x y z
#
# Youngs Moduli (GPa) = 61.62508 80.35879 84.52634
#
# Poissons Ratio (x) = 0.18552 -0.22852
# Poissons Ratio (y) = 0.14227 -0.14873
# Poissons Ratio (z) = -0.16660 -0.14140
#
# Static dielectric constant tensor:
#      x y z
#    x 3.647430 0.000000 0.000000 
#    y 0.000000 3.828950 0.000000 
#    z 0.000000 0.000000 4.016740 
# 
# 
# High freq. dielectric constant tensor:
#      x y z
#    x 1.857190 0.000000 0.000000 
#    y 0.000000 1.876330 0.000000 
#    z 0.000000 0.000000 1.898800 
# 
# From -- ./inp_files/1909.got.cif
#   From: 2010.03.12/outbox.cif.g09.slc.cpg/sg64_1_cif.got.tgz:1909.got - 2010.04.10 20:19:32.
