data_PCOD8264083
_publ_section_title
;
Structure prediction by ZEFSAII (Michael W. Deem and Ramdas Pophale) SiO2 
 PCOD8264083
Probable space group: C M C A
;
_chemical_formula_sum "Si O2"
_cell_formula_units_Z 104
_cell_length_a 23.967254
_cell_length_b 9.604591
_cell_length_c 22.956746
_cell_angle_alpha 90.000000
_cell_angle_beta 90.000000
_cell_angle_gamma 90.000000
_cell_volume 5284.543574
_symmetry_space_group_name_H-M "C M C A"
_symmetry_group_IT_number 64
_symmetry_cell_setting 'orthorhombic'
loop_
_space_group_symop_operation_xyz
x,y,z
-x,1/2-y,1/2+z
x,-y,-z
-x,1/2+y,1/2-z
-x,-y,-z
x,1/2+y,1/2-z
-x,y,z
x,1/2-y,1/2+z
1/2+x,1/2+y,z
1/2-x,-y,1/2+z
1/2+x,1/2-y,-z
1/2-x,y,1/2-z
1/2-x,1/2-y,-z
1/2+x,y,1/2-z
1/2-x,1/2+y,z
1/2+x,-y,1/2+z
loop_
_atom_site_type_symbol
_atom_site_label
_atom_site_fract_x
_atom_site_fract_y
_atom_site_fract_z
Si Si1 0.180114 0.566992 0.780123
Si Si2 0.179627 0.636021 0.971790
Si Si3 0.500000 0.225677 0.812687
Si Si4 0.250000 0.312483 0.750000
Si Si5 0.196819 0.390482 0.450637
Si Si6 0.385957 0.217567 0.865079
Si Si7 0.376750 0.969124 0.340345
Si Si8 0.000000 0.041061 0.802731
O O1 0.210664 0.418147 0.786890
O O2 0.218716 0.703850 0.792663
O O3 0.135411 0.580342 0.830867
O O4 0.151918 0.590381 0.717470
O O5 0.236748 0.593003 0.936729
O O6 0.134275 0.709723 0.931083
O O7 0.152104 0.500000 0.000000
O O8 0.191273 0.735367 0.025929
O O9 0.451438 0.203404 0.859064
O O10 0.500000 0.379360 0.784776
O O11 0.500000 0.123109 0.757881
O O12 0.178300 0.500000 0.500000
O O13 0.156307 0.406381 0.395229
O O14 0.367275 0.365293 0.838103
O O15 0.443103 0.927420 0.340090
#
# Coordination Sequence:
#
# PCOD8264083 Si02
#       8
#    16  16   8   8  16  16  16   8
#     4  11  22  37  57  88 126 161 198 250 320 374
#     4  10  23  41  62  93 122 164 208 252 311 367
#     4  10  22  42  64  90 124 165 206 256 312 373
#     4  10  24  34  48  90 128 154 202 244 308 378
#     4  10  21  41  64  86 125 166 205 251 306 371
#     4  11  22  40  65  89 127 164 204 259 311 370
#     4  11  22  39  66  90 123 166 207 258 308 377
#     4  10  22  42  62  93 124 159 216 249 318 371
#
# _framework density 19.680036000000001
#
# number of rings (size 3 to 8) (size 9 to 14) (size 15 to 20)
#    0.000    1.538    4.615    0.000    4.308    1.231 
#    2.769    1.538    0.000    0.000    0.000    0.000 
#    0.000    0.000    0.000    0.000    0.000    0.000 
#
# Total GULP energy -644321.555903 kJ/mol
# GULP energy per Si atom -12390.799152 kJ/mol
# Density = 1.963524 g / cm^3
# Si number density = 19.680036 Si / 1000 Ang^3
#
#
#
# Elastic Constant Matrix: (Units=GPa)
#
#
# Indices 1 2 3 4 5 6 
#
# 1 110.9074 32.9416 41.2510 0.0000 0.0000 0.0000
# 2 32.9416 97.3858 13.0467 0.0000 0.0000 0.0000
# 3 41.2510 13.0467 74.1996 0.0000 0.0000 0.0000
# 4 0.0000 0.0000 0.0000 29.9076 0.0000 0.0000
# 5 0.0000 0.0000 0.0000 0.0000 29.4567 0.0000
# 6 0.0000 0.0000 0.0000 0.0000 0.0000 25.0041
#
#
#
# Elastic Compliance Matrix: (Units=1/GPa)
#
#
# Indices 1 2 3 4 5 6 
#
# 1 0.012340 -0.003334 -0.006274 0.000000 0.000000 0.000000
# 2 -0.003334 0.011417 -0.000154 0.000000 0.000000 0.000000
# 3 -0.006274 -0.000154 0.016993 0.000000 0.000000 0.000000
# 4 0.000000 0.000000 0.000000 0.033436 0.000000 0.000000
# 5 0.000000 0.000000 0.000000 0.000000 0.033948 0.000000
# 6 0.000000 0.000000 0.000000 0.000000 0.000000 0.039993
#
#
# Mechanical properties :
#
#
# Convention : Reuss Voigt Hill
#
# Bulk Modulus (GPa) = 47.11367 50.77458 48.94412
# Shear Modulus (GPa) = 28.61607 29.89059 29.25333
#
# Velocity S-wave (km/s) = 3.81736 3.90144 3.85963
# Velocity P-wave (km/s) = 6.58949 6.79346 6.69225
#
# Compressibility (1/GPa) = 0.02122526
#
# Stress axis : x y z
#
# Youngs Moduli (GPa) = 81.03454 87.59078 58.84943
#
# Poissons Ratio (x) = 0.29200 0.36925
# Poissons Ratio (y) = 0.27014 0.00907
# Poissons Ratio (z) = 0.50845 0.01350
#
# Static dielectric constant tensor:
#      x y z
#    x 3.883760 0.000000 0.000000 
#    y 0.000000 3.690970 0.000000 
#    z 0.000000 0.000000 3.241670 
# 
# 
# High freq. dielectric constant tensor:
#      x y z
#    x 1.766750 0.000000 0.000000 
#    y 0.000000 1.777300 0.000000 
#    z 0.000000 0.000000 1.740840 
# 
# From -- ./inp_files/41889.got.cif
#   From: 2010.03.12/outbox.cif.g09.slc.cpg/sg64_21_cif.got.tgz:41889.got - 2010.04.10 20:19:32.
