data_PCOD8264996
_publ_section_title
;
Structure prediction by ZEFSAII (Michael W. Deem and Ramdas Pophale) SiO2 
 PCOD8264996
Probable space group: C M C A
;
_chemical_formula_sum "Si O2"
_cell_formula_units_Z 64
_cell_length_a 22.120915
_cell_length_b 14.767443
_cell_length_c 8.080218
_cell_angle_alpha 90.000000
_cell_angle_beta 90.000000
_cell_angle_gamma 90.000000
_cell_volume 2639.559573
_symmetry_space_group_name_H-M "C M C A"
_symmetry_group_IT_number 64
_symmetry_cell_setting 'orthorhombic'
loop_
_space_group_symop_operation_xyz
x,y,z
-x,1/2-y,1/2+z
x,-y,-z
-x,1/2+y,1/2-z
-x,-y,-z
x,1/2+y,1/2-z
-x,y,z
x,1/2-y,1/2+z
1/2+x,1/2+y,z
1/2-x,-y,1/2+z
1/2+x,1/2-y,-z
1/2-x,y,1/2-z
1/2-x,1/2-y,-z
1/2+x,y,1/2-z
1/2-x,1/2+y,z
1/2+x,-y,1/2+z
loop_
_atom_site_type_symbol
_atom_site_label
_atom_site_fract_x
_atom_site_fract_y
_atom_site_fract_z
Si Si1 0.000000 0.315765 0.293186
Si Si2 0.625906 0.541237 0.336917
Si Si3 0.000000 0.880243 0.587263
Si Si4 0.870004 0.133880 0.854775
Si Si5 0.682819 0.791666 0.684944
O O1 0.941031 0.351285 0.393042
O O2 0.000000 0.206931 0.293610
O O3 0.000000 0.350093 0.104402
O O4 0.656749 0.500000 0.500000
O O5 0.555142 0.554538 0.367689
O O6 0.639236 0.472340 0.184857
O O7 0.654989 0.638006 0.312423
O O8 0.853017 0.196325 0.695925
O O9 0.825606 0.166908 0.001810
O O10 0.750000 0.775738 0.750000
#
# Coordination Sequence:
#
# PCOD8264996 Si02
#       5
#     8  16   8  16  16
#     4  12  23  44  79 108 154 193 250 308 392 450
#     4  12  25  45  74 106 152 194 250 313 384 449
#     4  12  24  45  72 116 153 203 243 318 386 460
#     4  12  25  47  75 110 147 199 250 320 386 451
#     4  12  28  49  72 105 146 199 260 314 378 457
#
# _framework density 24.246468
#
# number of rings (size 3 to 8) (size 9 to 14) (size 15 to 20)
#    0.000    0.000    5.000    5.625    0.000    3.000 
#    0.000    2.500    0.000    0.000    0.000    0.000 
#    0.000    0.000    0.000    0.000    0.000    0.000 
#
# Total GULP energy -396794.937770 kJ/mol
# GULP energy per Si atom -12399.841805 kJ/mol
# Density = 2.419128 g / cm^3
# Si number density = 24.246468 Si / 1000 Ang^3
#
#
#
# Elastic Constant Matrix: (Units=GPa)
#
#
# Indices 1 2 3 4 5 6 
#
# 1 110.8431 18.2421 11.0637 0.0000 0.0000 0.0000
# 2 18.2421 88.8961 -1.3476 0.0000 0.0000 0.0000
# 3 11.0637 -1.3476 90.9389 0.0000 0.0000 0.0000
# 4 0.0000 0.0000 0.0000 50.0056 0.0000 0.0000
# 5 0.0000 0.0000 0.0000 0.0000 46.8121 0.0000
# 6 0.0000 0.0000 0.0000 0.0000 0.0000 32.8387
#
#
#
# Elastic Compliance Matrix: (Units=1/GPa)
#
#
# Indices 1 2 3 4 5 6 
#
# 1 0.009462 -0.001960 -0.001180 0.000000 0.000000 0.000000
# 2 -0.001960 0.011657 0.000411 0.000000 0.000000 0.000000
# 3 -0.001180 0.000411 0.011146 0.000000 0.000000 0.000000
# 4 0.000000 0.000000 0.000000 0.019998 0.000000 0.000000
# 5 0.000000 0.000000 0.000000 0.000000 0.021362 0.000000
# 6 0.000000 0.000000 0.000000 0.000000 0.000000 0.030452
#
#
# Mechanical properties :
#
#
# Convention : Reuss Voigt Hill
#
# Bulk Modulus (GPa) = 37.30185 38.51051 37.90618
# Shear Modulus (GPa) = 42.20459 43.44594 42.82526
#
# Velocity S-wave (km/s) = 4.17663 4.23761 4.20723
# Velocity P-wave (km/s) = 6.21907 6.31352 6.26648
#
# Compressibility (1/GPa) = 0.02680832
#
# Stress axis : x y z
#
# Youngs Moduli (GPa) = 105.68525 85.78213 89.71768
#
# Poissons Ratio (x) = 0.16810 0.10589
# Poissons Ratio (y) = 0.20710 -0.03689
# Poissons Ratio (z) = 0.12473 -0.03527
#
# Static dielectric constant tensor:
#      x y z
#    x 4.360920 0.000000 0.000000 
#    y 0.000000 4.603450 0.000000 
#    z 0.000000 0.000000 4.358910 
# 
# 
# High freq. dielectric constant tensor:
#      x y z
#    x 1.953780 0.000000 0.000000 
#    y 0.000000 1.986970 0.000000 
#    z 0.000000 0.000000 1.960400 
# 
# From -- ./inp_files/8998.got.cif
#   From: 2010.03.12/outbox.cif.g09.slc.cpg/sg64_5_cif.got.tgz:8998.got - 2010.04.10 20:19:32.
