data_PCOD8264206
_publ_section_title
;
Structure prediction by ZEFSAII (Michael W. Deem and Ramdas Pophale) SiO2 
 PCOD8264206
Probable space group: C M C A
;
_chemical_formula_sum "Si O2"
_cell_formula_units_Z 88
_cell_length_a 9.176510
_cell_length_b 22.619567
_cell_length_c 20.435717
_cell_angle_alpha 90.000000
_cell_angle_beta 90.000000
_cell_angle_gamma 90.000000
_cell_volume 4241.814859
_symmetry_space_group_name_H-M "C M C A"
_symmetry_group_IT_number 64
_symmetry_cell_setting 'orthorhombic'
loop_
_space_group_symop_operation_xyz
x,y,z
-x,1/2-y,1/2+z
x,-y,-z
-x,1/2+y,1/2-z
-x,-y,-z
x,1/2+y,1/2-z
-x,y,z
x,1/2-y,1/2+z
1/2+x,1/2+y,z
1/2-x,-y,1/2+z
1/2+x,1/2-y,-z
1/2-x,y,1/2-z
1/2-x,1/2-y,-z
1/2+x,y,1/2-z
1/2-x,1/2+y,z
1/2+x,-y,1/2+z
loop_
_atom_site_type_symbol
_atom_site_label
_atom_site_fract_x
_atom_site_fract_y
_atom_site_fract_z
Si Si1 0.836085 0.824420 0.352431
Si Si2 0.830512 0.395548 0.457380
Si Si3 0.831750 0.791812 0.687906
Si Si4 0.659525 0.998922 0.360880
Si Si5 0.832921 0.398026 0.907595
Si Si6 0.750000 0.416553 0.250000
O O1 0.759396 0.846174 0.418500
O O2 0.742664 0.770312 0.326423
O O3 0.846860 0.875346 0.297199
O O4 0.000000 0.804238 0.369445
O O5 0.807158 0.458980 0.424187
O O6 0.770849 0.399288 0.530237
O O7 0.000000 0.377213 0.457870
O O8 0.750000 0.820879 0.750000
O O9 0.816029 0.834897 0.626532
O O10 0.000000 0.780591 0.705785
O O11 0.500000 0.028145 0.368045
O O12 0.653724 0.958794 0.295866
O O13 0.780598 0.050340 0.357931
O O14 0.000000 0.409929 0.927374
#
# Coordination Sequence:
#
# PCOD8264206 Si02
#       6
#    16  16  16  16  16   8
#     4  11  22  39  67  95 124 161 206 259 311 365
#     4  10  22  41  65  93 125 164 208 256 310 367
#     4  11  25  43  63  90 125 164 206 255 308 367
#     4  10  22  39  62  91 126 164 205 254 308 366
#     4  11  25  42  61  90 126 165 209 255 307 371
#     4  10  22  38  62  96 124 158 208 256 306 374
#
# _framework density 20.745837999999999
#
# number of rings (size 3 to 8) (size 9 to 14) (size 15 to 20)
#    0.000    1.455    0.909    3.273    1.273   11.636 
#    0.000    0.000    0.000    0.000    0.000    0.000 
#    0.000    0.000    0.000    0.000    0.000    0.000 
#
# Total GULP energy -545688.103543 kJ/mol
# GULP energy per Si atom -12402.002353 kJ/mol
# Density = 2.069862 g / cm^3
# Si number density = 20.745838 Si / 1000 Ang^3
#
#
#
# Elastic Constant Matrix: (Units=GPa)
#
#
# Indices 1 2 3 4 5 6 
#
# 1 155.5535 50.7882 50.1290 0.0000 0.0000 0.0000
# 2 50.7882 80.1141 46.9872 0.0000 0.0000 0.0000
# 3 50.1290 46.9872 92.8211 0.0000 0.0000 0.0000
# 4 0.0000 0.0000 0.0000 21.4081 0.0000 0.0000
# 5 0.0000 0.0000 0.0000 0.0000 28.5035 0.0000
# 6 0.0000 0.0000 0.0000 0.0000 0.0000 26.5839
#
#
#
# Elastic Compliance Matrix: (Units=1/GPa)
#
#
# Indices 1 2 3 4 5 6 
#
# 1 0.008546 -0.003855 -0.002664 0.000000 0.000000 0.000000
# 2 -0.003855 0.019492 -0.007785 0.000000 0.000000 0.000000
# 3 -0.002664 -0.007785 0.016153 0.000000 0.000000 0.000000
# 4 0.000000 0.000000 0.000000 0.046711 0.000000 0.000000
# 5 0.000000 0.000000 0.000000 0.000000 0.035083 0.000000
# 6 0.000000 0.000000 0.000000 0.000000 0.000000 0.037617
#
#
# Mechanical properties :
#
#
# Convention : Reuss Voigt Hill
#
# Bulk Modulus (GPa) = 64.17350 69.36638 66.76994
# Shear Modulus (GPa) = 25.32866 27.33806 26.33336
#
# Velocity S-wave (km/s) = 3.49793 3.63404 3.56663
# Velocity P-wave (km/s) = 6.87855 7.14963 7.01540
#
# Compressibility (1/GPa) = 0.01558276
#
# Stress axis : x y z
#
# Youngs Moduli (GPa) = 117.01622 51.30229 61.90860
#
# Poissons Ratio (x) = 0.19779 0.16490
# Poissons Ratio (y) = 0.45114 0.48196
# Poissons Ratio (z) = 0.31169 0.39939
#
# Static dielectric constant tensor:
#      x y z
#    x 3.984890 0.000000 0.000000 
#    y 0.000000 3.695990 0.000000 
#    z 0.000000 0.000000 3.870470 
# 
# 
# High freq. dielectric constant tensor:
#      x y z
#    x 1.822930 0.000000 0.000000 
#    y 0.000000 1.807040 0.000000 
#    z 0.000000 0.000000 1.816360 
# 
# From -- ./inp_files/36754.got.cif
#   From: 2010.03.12/outbox.cif.g09.slc.cpg/sg64_19_cif.got.tgz:36754.got - 2010.04.10 20:19:32.
