data_PCOD8264513
_publ_section_title
;
Structure prediction by ZEFSAII (Michael W. Deem and Ramdas Pophale) SiO2 
 PCOD8264513
Probable space group: C M C A
;
_chemical_formula_sum "Si O2"
_cell_formula_units_Z 96
_cell_length_a 18.427213
_cell_length_b 10.795549
_cell_length_c 20.970076
_cell_angle_alpha 90.000000
_cell_angle_beta 90.000000
_cell_angle_gamma 90.000000
_cell_volume 4171.616661
_symmetry_space_group_name_H-M "C M C A"
_symmetry_group_IT_number 64
_symmetry_cell_setting 'orthorhombic'
loop_
_space_group_symop_operation_xyz
x,y,z
-x,1/2-y,1/2+z
x,-y,-z
-x,1/2+y,1/2-z
-x,-y,-z
x,1/2+y,1/2-z
-x,y,z
x,1/2-y,1/2+z
1/2+x,1/2+y,z
1/2-x,-y,1/2+z
1/2+x,1/2-y,-z
1/2-x,y,1/2-z
1/2-x,1/2-y,-z
1/2+x,y,1/2-z
1/2-x,1/2+y,z
1/2+x,-y,1/2+z
loop_
_atom_site_type_symbol
_atom_site_label
_atom_site_fract_x
_atom_site_fract_y
_atom_site_fract_z
Si Si1 0.416523 0.760286 0.991804
Si Si2 0.579184 0.317390 0.197933
Si Si3 0.180586 0.403559 0.204878
Si Si4 0.578930 0.985287 0.422420
Si Si5 0.678786 0.291316 0.897552
Si Si6 0.335424 0.362118 0.622410
O O1 0.500000 0.788847 0.008411
O O2 0.404013 0.607567 0.983599
O O3 0.396906 0.847734 0.931887
O O4 0.363196 0.794380 0.050501
O O5 0.500000 0.266931 0.219911
O O6 0.609171 0.412533 0.251089
O O7 0.569801 0.381967 0.130780
O O8 0.638177 0.208407 0.186689
O O9 0.250000 0.421690 0.250000
O O10 0.175702 0.268271 0.172595
O O11 0.179953 0.499242 0.146023
O O12 0.500000 0.052806 0.430103
O O13 0.641967 0.074047 0.397509
O O14 0.764233 0.305201 0.911677
#
# Coordination Sequence:
#
# PCOD8264513 Si02
#       6
#    16  16  16  16  16  16
#     4  10  23  47  72 102 139 177 230 285 341 407
#     4  10  23  43  68  95 131 180 232 280 339 404
#     4  12  27  44  65 101 138 179 228 290 340 407
#     4   9  20  41  69 101 134 176 227 282 336 401
#     4  12  24  40  70 101 137 178 227 280 346 408
#     4  11  25  44  68  95 140 181 223 280 353 410
#
# _framework density 23.012658999999999
#
# number of rings (size 3 to 8) (size 9 to 14) (size 15 to 20)
#    0.000    1.333    1.667    4.000    7.000    4.667 
#    3.000    0.833    0.000    0.000    0.000    0.000 
#    0.000    0.000    0.000    0.000    0.000    0.000 
#
# Total GULP energy -594949.984640 kJ/mol
# GULP energy per Si atom -12394.791347 kJ/mol
# Density = 2.296028 g / cm^3
# Si number density = 23.012659 Si / 1000 Ang^3
#
#
#
# Elastic Constant Matrix: (Units=GPa)
#
#
# Indices 1 2 3 4 5 6 
#
# 1 179.0069 38.9935 55.6525 0.0000 0.0000 0.0000
# 2 38.9935 61.5274 27.9360 0.0000 0.0000 0.0000
# 3 55.6525 27.9360 77.3584 0.0000 0.0000 0.0000
# 4 0.0000 0.0000 0.0000 37.9283 0.0000 0.0000
# 5 0.0000 0.0000 0.0000 0.0000 35.8002 0.0000
# 6 0.0000 0.0000 0.0000 0.0000 0.0000 29.0777
#
#
#
# Elastic Compliance Matrix: (Units=1/GPa)
#
#
# Indices 1 2 3 4 5 6 
#
# 1 0.007574 -0.002782 -0.004444 0.000000 0.000000 0.000000
# 2 -0.002782 0.020463 -0.005388 0.000000 0.000000 0.000000
# 3 -0.004444 -0.005388 0.018070 0.000000 0.000000 0.000000
# 4 0.000000 0.000000 0.000000 0.026366 0.000000 0.000000
# 5 0.000000 0.000000 0.000000 0.000000 0.027933 0.000000
# 6 0.000000 0.000000 0.000000 0.000000 0.000000 0.034391
#
#
# Mechanical properties :
#
#
# Convention : Reuss Voigt Hill
#
# Bulk Modulus (GPa) = 47.89808 62.56186 55.22997
# Shear Modulus (GPa) = 29.94310 33.58194 31.76252
#
# Velocity S-wave (km/s) = 3.61107 3.82420 3.71916
# Velocity P-wave (km/s) = 6.18429 6.83697 6.51880
#
# Compressibility (1/GPa) = 0.02087766
#
# Stress axis : x y z
#
# Youngs Moduli (GPa) = 132.02840 48.86969 55.34125
#
# Poissons Ratio (x) = 0.13597 0.24594
# Poissons Ratio (y) = 0.36735 0.29817
# Poissons Ratio (z) = 0.58675 0.26330
#
# Static dielectric constant tensor:
#      x y z
#    x 4.374460 0.000000 0.000000 
#    y 0.000000 3.890870 0.000000 
#    z 0.000000 0.000000 4.237580 
# 
# 
# High freq. dielectric constant tensor:
#      x y z
#    x 1.918990 0.000000 0.000000 
#    y 0.000000 1.884770 0.000000 
#    z 0.000000 0.000000 1.922710 
# 
# From -- ./inp_files/45759.got.cif
#   From: 2010.03.12/outbox.cif.g09.slc.cpg/sg64_23_cif.got.tgz:45759.got - 2010.04.10 20:19:32.
