data_PCOD8264091
_publ_section_title
;
Structure prediction by ZEFSAII (Michael W. Deem and Ramdas Pophale) SiO2 
 PCOD8264091
Probable space group: C M C A
;
_chemical_formula_sum "Si O2"
_cell_formula_units_Z 88
_cell_length_a 26.782220
_cell_length_b 27.610184
_cell_length_c 5.186057
_cell_angle_alpha 90.000000
_cell_angle_beta 90.000000
_cell_angle_gamma 90.000000
_cell_volume 3834.892196
_symmetry_space_group_name_H-M "C M C A"
_symmetry_group_IT_number 64
_symmetry_cell_setting 'orthorhombic'
loop_
_space_group_symop_operation_xyz
x,y,z
-x,1/2-y,1/2+z
x,-y,-z
-x,1/2+y,1/2-z
-x,-y,-z
x,1/2+y,1/2-z
-x,y,z
x,1/2-y,1/2+z
1/2+x,1/2+y,z
1/2-x,-y,1/2+z
1/2+x,1/2-y,-z
1/2-x,y,1/2-z
1/2-x,1/2-y,-z
1/2+x,y,1/2-z
1/2-x,1/2+y,z
1/2+x,-y,1/2+z
loop_
_atom_site_type_symbol
_atom_site_label
_atom_site_fract_x
_atom_site_fract_y
_atom_site_fract_z
Si Si1 0.697103 0.280866 0.415854
Si Si2 0.702010 0.055525 0.412638
Si Si3 0.500000 0.589243 0.241785
Si Si4 0.080618 0.278597 0.089792
Si Si5 0.600244 0.468140 0.753506
Si Si6 0.500000 0.146566 0.765130
Si Si7 0.750000 0.629746 0.750000
O O1 0.712291 0.243050 0.639324
O O2 0.638454 0.291229 0.407310
O O3 0.723176 0.333361 0.452751
O O4 0.750000 0.069687 0.250000
O O5 0.650986 0.064385 0.245792
O O6 0.705557 0.095129 0.641545
O O7 0.707435 0.000000 0.500000
O O8 0.550086 0.560153 0.186142
O O9 0.500000 0.600697 0.544974
O O10 0.500000 0.633337 0.037398
O O11 0.065518 0.238715 0.304107
O O12 0.050423 0.326147 0.161671
O O13 0.594473 0.500000 0.500000
O O14 0.611093 0.500000 0.000000
#
# Coordination Sequence:
#
# PCOD8264091 Si02
#       7
#    16  16   8  16  16   8   8
#     4  10  24  44  66  98 135 177 233 281 339 422
#     4  11  25  44  69 101 141 183 237 288 345 426
#     4  12  26  42  68 106 138 172 232 294 344 422
#     4  10  21  41  65  90 131 180 221 273 343 412
#     4  11  25  47  73  94 137 187 231 284 354 422
#     4  12  24  38  66 102 138 166 228 290 338 420
#     4  12  26  40  72  96 138 184 222 292 356 408
#
# _framework density 22.947189000000002
#
# number of rings (size 3 to 8) (size 9 to 14) (size 15 to 20)
#    0.000    1.091    0.909    4.364    7.636    1.455 
#    0.000    0.000    0.000    0.000    0.000    0.000 
#    0.000    0.000    0.000    0.000    0.000    0.000 
#
# Total GULP energy -545400.508785 kJ/mol
# GULP energy per Si atom -12395.466109 kJ/mol
# Density = 2.289496 g / cm^3
# Si number density = 22.947189 Si / 1000 Ang^3
#
#
#
# Elastic Constant Matrix: (Units=GPa)
#
#
# Indices 1 2 3 4 5 6 
#
# 1 162.8123 47.6441 25.5446 0.0000 0.0000 0.0000
# 2 47.6441 116.8653 24.4400 0.0000 0.0000 0.0000
# 3 25.5446 24.4400 95.8778 0.0000 0.0000 0.0000
# 4 0.0000 0.0000 0.0000 38.1624 0.0000 0.0000
# 5 0.0000 0.0000 0.0000 0.0000 37.6193 0.0000
# 6 0.0000 0.0000 0.0000 0.0000 0.0000 9.6678
#
#
#
# Elastic Compliance Matrix: (Units=1/GPa)
#
#
# Indices 1 2 3 4 5 6 
#
# 1 0.007107 -0.002642 -0.001220 0.000000 0.000000 0.000000
# 2 -0.002642 0.010021 -0.001850 0.000000 0.000000 0.000000
# 3 -0.001220 -0.001850 0.011227 0.000000 0.000000 0.000000
# 4 0.000000 0.000000 0.000000 0.026204 0.000000 0.000000
# 5 0.000000 0.000000 0.000000 0.000000 0.026582 0.000000
# 6 0.000000 0.000000 0.000000 0.000000 0.000000 0.103436
#
#
# Mechanical properties :
#
#
# Convention : Reuss Voigt Hill
#
# Bulk Modulus (GPa) = 59.06947 63.42366 61.24656
# Shear Modulus (GPa) = 24.79615 35.61837 30.20726
#
# Velocity S-wave (km/s) = 3.29078 3.94406 3.63213
# Velocity P-wave (km/s) = 6.34321 6.95987 6.65868
#
# Compressibility (1/GPa) = 0.01692922
#
# Stress axis : x y z
#
# Youngs Moduli (GPa) = 140.71406 99.79042 89.07365
#
# Poissons Ratio (x) = 0.26366 0.10866
# Poissons Ratio (y) = 0.37178 0.16483
# Poissons Ratio (z) = 0.17166 0.18466
#
# Static dielectric constant tensor:
#      x y z
#    x 4.936190 0.000000 0.000000 
#    y 0.000000 3.915990 0.000000 
#    z 0.000000 0.000000 4.355600 
# 
# 
# High freq. dielectric constant tensor:
#      x y z
#    x 1.940110 0.000000 0.000000 
#    y 0.000000 1.894020 0.000000 
#    z 0.000000 0.000000 1.910610 
# 
# From -- ./inp_files/3345.got.cif
#   From: 2010.03.12/outbox.cif.g09.slc.cpg/sg64_2_cif.got.tgz:3345.got - 2010.04.10 20:19:32.
