data_PCOD8264314
_publ_section_title
;
Structure prediction by ZEFSAII (Michael W. Deem and Ramdas Pophale) SiO2 
 PCOD8264314
Probable space group: C M C A
;
_chemical_formula_sum "Si O2"
_cell_formula_units_Z 88
_cell_length_a 20.085172
_cell_length_b 23.858334
_cell_length_c 9.080331
_cell_angle_alpha 90.000000
_cell_angle_beta 90.000000
_cell_angle_gamma 90.000000
_cell_volume 4351.283192
_symmetry_space_group_name_H-M "C M C A"
_symmetry_group_IT_number 64
_symmetry_cell_setting 'orthorhombic'
loop_
_space_group_symop_operation_xyz
x,y,z
-x,1/2-y,1/2+z
x,-y,-z
-x,1/2+y,1/2-z
-x,-y,-z
x,1/2+y,1/2-z
-x,y,z
x,1/2-y,1/2+z
1/2+x,1/2+y,z
1/2-x,-y,1/2+z
1/2+x,1/2-y,-z
1/2-x,y,1/2-z
1/2-x,1/2-y,-z
1/2+x,y,1/2-z
1/2-x,1/2+y,z
1/2+x,-y,1/2+z
loop_
_atom_site_type_symbol
_atom_site_label
_atom_site_fract_x
_atom_site_fract_y
_atom_site_fract_z
Si Si1 0.185517 0.288990 0.854175
Si Si2 0.379872 0.000000 0.000000
Si Si3 0.681061 0.311226 0.319894
Si Si4 0.574624 0.097114 0.802474
Si Si5 0.427011 0.564971 0.024619
Si Si6 0.327439 0.090234 0.217554
O O1 0.250000 0.287171 0.750000
O O2 0.145782 0.234319 0.790857
O O3 0.147861 0.348384 0.834746
O O4 0.200637 0.280912 0.026710
O O5 0.335548 0.957095 0.906172
O O6 0.423133 0.037164 0.886698
O O7 0.750000 0.335573 0.250000
O O8 0.629663 0.360164 0.362120
O O9 0.500000 0.120746 0.826121
O O10 0.591381 0.092260 0.630692
O O11 0.500000 0.586267 0.080451
O O12 0.431605 0.500000 0.000000
O O13 0.369106 0.578019 0.137553
O O14 0.250000 0.092120 0.250000
#
# Coordination Sequence:
#
# PCOD8264314 Si02
#       6
#    16   8  16  16  16  16
#     4  10  22  41  63  97 123 166 210 261 324 377
#     4  12  23  42  62  94 135 170 204 264 321 380
#     4  11  23  41  69  92 126 165 215 264 319 374
#     4  11  25  42  65  92 127 169 213 258 317 382
#     4  10  22  41  61  85 121 173 210 246 309 385
#     4  11  25  39  64  95 131 160 215 264 318 375
#
# _framework density 20.223918999999999
#
# number of rings (size 3 to 8) (size 9 to 14) (size 15 to 20)
#    0.000    1.273    3.636    2.455    8.909    1.455 
#    0.000    1.818    0.000    0.000    0.000    0.000 
#    0.000    0.000    0.000    0.000    0.000    0.000 
#
# Total GULP energy -545208.354833 kJ/mol
# GULP energy per Si atom -12391.098973 kJ/mol
# Density = 2.017789 g / cm^3
# Si number density = 20.223919 Si / 1000 Ang^3
#
#
#
# Elastic Constant Matrix: (Units=GPa)
#
#
# Indices 1 2 3 4 5 6 
#
# 1 101.9182 39.5490 52.7579 0.0000 0.0000 0.0000
# 2 39.5490 105.6550 28.1585 0.0000 0.0000 0.0000
# 3 52.7579 28.1585 124.0025 0.0000 0.0000 0.0000
# 4 0.0000 0.0000 0.0000 31.2125 0.0000 0.0000
# 5 0.0000 0.0000 0.0000 0.0000 28.2640 0.0000
# 6 0.0000 0.0000 0.0000 0.0000 0.0000 -41.7716
#
#
#
# Elastic Compliance Matrix: (Units=1/GPa)
#
#
# Indices 1 2 3 4 5 6 
#
# 1 0.013925 -0.003867 -0.005046 0.000000 0.000000 0.000000
# 2 -0.003867 0.011149 -0.000886 0.000000 0.000000 0.000000
# 3 -0.005046 -0.000886 0.010413 0.000000 0.000000 0.000000
# 4 0.000000 0.000000 0.000000 0.032038 0.000000 0.000000
# 5 0.000000 0.000000 0.000000 0.000000 0.035381 0.000000
# 6 0.000000 0.000000 0.000000 0.000000 0.000000 -0.023940
#
#
# Mechanical properties :
#
#
# Convention : Reuss Voigt Hill
#
# Bulk Modulus (GPa) = 62.94759 63.61185 63.27972
# Shear Modulus (GPa) = 48.14162 17.61500 32.87831
#
# Velocity S-wave (km/s) = 4.88426 2.95447 4.03639
# Velocity P-wave (km/s) = 7.93731 6.56967 7.28565
#
# Compressibility (1/GPa) = 0.01588623
#
# Stress axis : x y z
#
# Youngs Moduli (GPa) = 71.81498 89.69724 96.03827
#
# Poissons Ratio (x) = 0.34690 0.48462
# Poissons Ratio (y) = 0.27774 0.08511
# Poissons Ratio (z) = 0.36239 0.07949
#
# Static dielectric constant tensor:
#      x y z
#    x 3.619380 0.000000 0.000000 
#    y 0.000000 4.129210 0.000000 
#    z 0.000000 0.000000 3.747540 
# 
# 
# High freq. dielectric constant tensor:
#      x y z
#    x 1.760840 0.000000 0.000000 
#    y 0.000000 1.797580 0.000000 
#    z 0.000000 0.000000 1.813420 
# 
# From -- ./inp_files/8199.got.cif
#   From: 2010.03.12/outbox.cif.g09.slc.cpg/sg64_5_cif.got.tgz:8199.got - 2010.04.10 20:19:32.
