data_PCOD8264699
_publ_section_title
;
Structure prediction by ZEFSAII (Michael W. Deem and Ramdas Pophale) SiO2 
 PCOD8264699
Probable space group: C M C A
;
_chemical_formula_sum "Si O2"
_cell_formula_units_Z 80
_cell_length_a 8.932737
_cell_length_b 27.398251
_cell_length_c 17.917954
_cell_angle_alpha 90.000000
_cell_angle_beta 90.000000
_cell_angle_gamma 90.000000
_cell_volume 4385.264617
_symmetry_space_group_name_H-M "C M C A"
_symmetry_group_IT_number 64
_symmetry_cell_setting 'orthorhombic'
loop_
_space_group_symop_operation_xyz
x,y,z
-x,1/2-y,1/2+z
x,-y,-z
-x,1/2+y,1/2-z
-x,-y,-z
x,1/2+y,1/2-z
-x,y,z
x,1/2-y,1/2+z
1/2+x,1/2+y,z
1/2-x,-y,1/2+z
1/2+x,1/2-y,-z
1/2-x,y,1/2-z
1/2-x,1/2-y,-z
1/2+x,y,1/2-z
1/2-x,1/2+y,z
1/2+x,-y,1/2+z
loop_
_atom_site_type_symbol
_atom_site_label
_atom_site_fract_x
_atom_site_fract_y
_atom_site_fract_z
Si Si1 0.826428 0.551032 0.035167
Si Si2 0.676800 0.905078 0.674421
Si Si3 0.828959 0.149827 0.544343
Si Si4 0.675800 0.294693 0.171410
Si Si5 0.674917 0.310862 0.614918
O O1 0.727252 0.559440 0.108079
O O2 0.000000 0.551156 0.059290
O O3 0.776705 0.500000 0.000000
O O4 0.796738 0.593434 0.974882
O O5 0.500000 0.905831 0.681655
O O6 0.750000 0.925438 0.750000
O O7 0.730888 0.849805 0.661476
O O8 0.723005 0.164221 0.612445
O O9 0.791090 0.183480 0.472871
O O10 0.000000 0.157599 0.569082
O O11 0.500000 0.296386 0.181889
O O12 0.750000 0.306565 0.250000
O O13 0.728946 0.242159 0.141085
O O14 0.500000 0.320398 0.630826
#
# Coordination Sequence:
#
# PCOD8264699 Si02
#       5
#    16  16  16  16  16
#     4   9  19  38  61  81 104 135 171 215 268 319
#     4  11  21  33  53  81 111 139 172 216 263 311
#     4   9  18  34  55  78 104 133 168 211 260 314
#     4  11  22  34  50  74 106 143 180 215 253 302
#     4   9  19  35  54  77 105 138 175 214 259 309
#
# _framework density 18.242912
#
# number of rings (size 3 to 8) (size 9 to 14) (size 15 to 20)
#    0.000    2.200    0.000    4.800    0.000    6.800 
#    0.000    1.000    0.000    0.000    0.000    0.000 
#    0.000    0.000    0.000    0.000    0.000    0.000 
#
# Total GULP energy -496162.319299 kJ/mol
# GULP energy per Si atom -12404.057982 kJ/mol
# Density = 1.820139 g / cm^3
# Si number density = 18.242912 Si / 1000 Ang^3
#
#
#
# Elastic Constant Matrix: (Units=GPa)
#
#
# Indices 1 2 3 4 5 6 
#
# 1 94.8916 42.2092 61.7677 0.0000 0.0000 0.0000
# 2 42.2092 95.2553 60.7583 0.0000 0.0000 0.0000
# 3 61.7677 60.7583 127.7895 0.0000 0.0000 0.0000
# 4 0.0000 0.0000 0.0000 15.0144 0.0000 0.0000
# 5 0.0000 0.0000 0.0000 0.0000 33.6207 0.0000
# 6 0.0000 0.0000 0.0000 0.0000 0.0000 24.8848
#
#
#
# Elastic Compliance Matrix: (Units=1/GPa)
#
#
# Indices 1 2 3 4 5 6 
#
# 1 0.015987 -0.003093 -0.006257 0.000000 0.000000 0.000000
# 2 -0.003093 0.015666 -0.005953 0.000000 0.000000 0.000000
# 3 -0.006257 -0.005953 0.013680 0.000000 0.000000 0.000000
# 4 0.000000 0.000000 0.000000 0.066603 0.000000 0.000000
# 5 0.000000 0.000000 0.000000 0.000000 0.029744 0.000000
# 6 0.000000 0.000000 0.000000 0.000000 0.000000 0.040185
#
#
# Mechanical properties :
#
#
# Convention : Reuss Voigt Hill
#
# Bulk Modulus (GPa) = 67.90468 71.93410 69.91939
# Shear Modulus (GPa) = 23.00118 24.91739 23.95928
#
# Velocity S-wave (km/s) = 3.55467 3.69977 3.62795
# Velocity P-wave (km/s) = 7.35873 7.60052 7.48060
#
# Compressibility (1/GPa) = 0.01472653
#
# Stress axis : x y z
#
# Youngs Moduli (GPa) = 62.55112 63.83186 73.09867
#
# Poissons Ratio (x) = 0.19745 0.45735
# Poissons Ratio (y) = 0.19349 0.43519
# Poissons Ratio (z) = 0.39136 0.38002
#
# Static dielectric constant tensor:
#      x y z
#    x 3.272530 0.000000 0.000000 
#    y 0.000000 3.306570 0.000000 
#    z 0.000000 0.000000 3.351650 
# 
# 
# High freq. dielectric constant tensor:
#      x y z
#    x 1.706790 0.000000 0.000000 
#    y 0.000000 1.693050 0.000000 
#    z 0.000000 0.000000 1.710420 
# 
# From -- ./inp_files/29756.got.cif
#   From: 2010.03.12/outbox.cif.g09.slc.cpg/sg64_15_cif.got.tgz:29756.got - 2010.04.10 20:19:32.
