data_PCOD8264756
_publ_section_title
;
Structure prediction by ZEFSAII (Michael W. Deem and Ramdas Pophale) SiO2 
 PCOD8264756
Probable space group: C M C A
;
_chemical_formula_sum "Si O2"
_cell_formula_units_Z 80
_cell_length_a 9.048963
_cell_length_b 25.520215
_cell_length_c 20.992515
_cell_angle_alpha 90.000000
_cell_angle_beta 90.000000
_cell_angle_gamma 90.000000
_cell_volume 4847.832585
_symmetry_space_group_name_H-M "C M C A"
_symmetry_group_IT_number 64
_symmetry_cell_setting 'orthorhombic'
loop_
_space_group_symop_operation_xyz
x,y,z
-x,1/2-y,1/2+z
x,-y,-z
-x,1/2+y,1/2-z
-x,-y,-z
x,1/2+y,1/2-z
-x,y,z
x,1/2-y,1/2+z
1/2+x,1/2+y,z
1/2-x,-y,1/2+z
1/2+x,1/2-y,-z
1/2-x,y,1/2-z
1/2-x,1/2-y,-z
1/2+x,y,1/2-z
1/2-x,1/2+y,z
1/2+x,-y,1/2+z
loop_
_atom_site_type_symbol
_atom_site_label
_atom_site_fract_x
_atom_site_fract_y
_atom_site_fract_z
Si Si1 0.675296 0.041511 0.091855
Si Si2 0.327755 0.707836 0.082589
Si Si3 0.173087 0.680959 0.953388
Si Si4 0.674638 0.378064 0.817610
Si Si5 0.826207 0.432063 0.049308
O O1 0.500000 0.048150 0.103253
O O2 0.763060 0.070954 0.147057
O O3 0.728548 0.980230 0.093339
O O4 0.728433 0.064006 0.023739
O O5 0.500000 0.701828 0.068472
O O6 0.284686 0.769657 0.091727
O O7 0.282108 0.675052 0.144596
O O8 0.244930 0.685223 0.022176
O O9 0.222819 0.624956 0.922614
O O10 0.000000 0.679641 0.966208
O O11 0.500000 0.384207 0.809687
O O12 0.750000 0.372721 0.750000
O O13 0.000000 0.438517 0.046391
#
# Coordination Sequence:
#
# PCOD8264756 Si02
#       5
#    16  16  16  16  16
#     4   9  16  29  47  70  95 122 157 189 224 277
#     4   9  18  29  43  68  96 119 153 193 231 271
#     4   9  15  27  48  70  94 123 149 183 231 281
#     4  11  22  34  47  66  93 126 161 196 230 271
#     4   8  14  25  47  73  96 121 150 184 228 281
#
# _framework density 16.502220000000001
#
# number of rings (size 3 to 8) (size 9 to 14) (size 15 to 20)
#    0.000    2.800    2.000    1.800    0.000    0.800 
#    0.000    3.000    0.000    1.200    0.000    2.800 
#    0.000    0.000    0.000    0.000    0.000    0.000 
#
# Total GULP energy -495553.879717 kJ/mol
# GULP energy per Si atom -12388.846993 kJ/mol
# Density = 1.646466 g / cm^3
# Si number density = 16.502220 Si / 1000 Ang^3
#
#
#
# Elastic Constant Matrix: (Units=GPa)
#
#
# Indices 1 2 3 4 5 6 
#
# 1 39.6880 40.5216 35.3137 0.0000 0.0000 0.0000
# 2 40.5216 186.0220 71.6388 0.0000 0.0000 0.0000
# 3 35.3137 71.6388 91.1477 0.0000 0.0000 0.0000
# 4 0.0000 0.0000 0.0000 23.0179 0.0000 0.0000
# 5 0.0000 0.0000 0.0000 0.0000 18.7672 0.0000
# 6 0.0000 0.0000 0.0000 0.0000 0.0000 19.2306
#
#
#
# Elastic Compliance Matrix: (Units=1/GPa)
#
#
# Indices 1 2 3 4 5 6 
#
# 1 0.040404 -0.003976 -0.012529 0.000000 0.000000 0.000000
# 2 -0.003976 0.008100 -0.004826 0.000000 0.000000 0.000000
# 3 -0.012529 -0.004826 0.019618 0.000000 0.000000 0.000000
# 4 0.000000 0.000000 0.000000 0.043444 0.000000 0.000000
# 5 0.000000 0.000000 0.000000 0.000000 0.053284 0.000000
# 6 0.000000 0.000000 0.000000 0.000000 0.000000 0.052000
#
#
# Mechanical properties :
#
#
# Convention : Reuss Voigt Hill
#
# Bulk Modulus (GPa) = 39.27607 67.97843 53.62725
# Shear Modulus (GPa) = 18.65661 23.49540 21.07600
#
# Velocity S-wave (km/s) = 3.36601 3.77738 3.57762
# Velocity P-wave (km/s) = 6.24171 7.76581 7.04509
#
# Compressibility (1/GPa) = 0.02546079
#
# Stress axis : x y z
#
# Youngs Moduli (GPa) = 24.74981 123.44959 50.97271
#
# Poissons Ratio (x) = 0.49090 0.63862
# Poissons Ratio (y) = 0.09842 0.24600
# Poissons Ratio (z) = 0.31008 0.59577
#
# Static dielectric constant tensor:
#      x y z
#    x 2.957780 0.000000 0.000000 
#    y 0.000000 4.443250 0.000000 
#    z 0.000000 0.000000 2.995170 
# 
# 
# High freq. dielectric constant tensor:
#      x y z
#    x 1.619020 0.000000 0.000000 
#    y 0.000000 1.662190 0.000000 
#    z 0.000000 0.000000 1.586180 
# 
# From -- ./inp_files/29707.got.cif
#   From: 2010.03.12/outbox.cif.g09.slc.cpg/sg64_15_cif.got.tgz:29707.got - 2010.04.10 20:19:32.
