data_PCOD8264795
_publ_section_title
;
Structure prediction by ZEFSAII (Michael W. Deem and Ramdas Pophale) SiO2 
 PCOD8264795
Probable space group: C M C A
;
_chemical_formula_sum "Si O2"
_cell_formula_units_Z 96
_cell_length_a 23.857692
_cell_length_b 17.267385
_cell_length_c 11.169919
_cell_angle_alpha 90.000000
_cell_angle_beta 90.000000
_cell_angle_gamma 90.000000
_cell_volume 4601.559306
_symmetry_space_group_name_H-M "C M C A"
_symmetry_group_IT_number 64
_symmetry_cell_setting 'orthorhombic'
loop_
_space_group_symop_operation_xyz
x,y,z
-x,1/2-y,1/2+z
x,-y,-z
-x,1/2+y,1/2-z
-x,-y,-z
x,1/2+y,1/2-z
-x,y,z
x,1/2-y,1/2+z
1/2+x,1/2+y,z
1/2-x,-y,1/2+z
1/2+x,1/2-y,-z
1/2-x,y,1/2-z
1/2-x,1/2-y,-z
1/2+x,y,1/2-z
1/2-x,1/2+y,z
1/2+x,-y,1/2+z
loop_
_atom_site_type_symbol
_atom_site_label
_atom_site_fract_x
_atom_site_fract_y
_atom_site_fract_z
Si Si1 0.383697 0.948237 0.242492
Si Si2 0.500000 0.106102 0.416243
Si Si3 0.803196 0.789591 0.660853
Si Si4 0.381158 0.879879 0.685850
Si Si5 0.318663 0.878977 0.443604
Si Si6 0.000000 0.932537 0.177261
Si Si7 0.801280 0.082456 0.543623
O O1 0.367740 0.923054 0.375806
O O2 0.447999 0.920855 0.232470
O O3 0.345584 0.899114 0.149464
O O4 0.379296 0.041541 0.234412
O O5 0.443230 0.142759 0.360437
O O6 0.500000 0.122830 0.559629
O O7 0.500000 0.016749 0.382061
O O8 0.750000 0.788286 0.750000
O O9 0.860235 0.809461 0.731369
O O10 0.811270 0.709499 0.594082
O O11 0.796101 0.853139 0.557817
O O12 0.335044 0.886806 0.581611
O O13 0.261909 0.924847 0.407573
O O14 0.823238 0.000000 0.500000
#
# Coordination Sequence:
#
# PCOD8264795 Si02
#       7
#    16   8  16  16  16   8  16
#     4  11  22  40  66 100 124 168 221 275 315 379
#     4   9  18  38  66  95 122 168 217 272 318 372
#     4  12  26  43  61  93 138 177 207 264 328 396
#     4  11  22  42  67  95 129 166 222 273 318 375
#     4  12  25  38  68  93 132 168 214 265 333 381
#     4   9  18  36  65  96 127 159 220 272 318 375
#     4  12  24  41  64  96 130 172 214 262 326 391
#
# _framework density 20.862493000000001
#
# number of rings (size 3 to 8) (size 9 to 14) (size 15 to 20)
#    0.000    0.833    5.000    3.500    2.333    0.000 
#    0.000    2.917    0.000    0.000    0.000    0.000 
#    0.000    0.000    0.000    0.000    0.000    0.000 
#
# Total GULP energy -595020.024310 kJ/mol
# GULP energy per Si atom -12396.250506 kJ/mol
# Density = 2.081501 g / cm^3
# Si number density = 20.862493 Si / 1000 Ang^3
#
#
#
# Elastic Constant Matrix: (Units=GPa)
#
#
# Indices 1 2 3 4 5 6 
#
# 1 164.3450 11.2512 39.3355 0.0000 0.0000 0.0000
# 2 11.2512 47.9994 5.6711 0.0000 0.0000 0.0000
# 3 39.3355 5.6711 54.5443 0.0000 0.0000 0.0000
# 4 0.0000 0.0000 0.0000 22.6648 0.0000 0.0000
# 5 0.0000 0.0000 0.0000 0.0000 9.9473 0.0000
# 6 0.0000 0.0000 0.0000 0.0000 0.0000 6.6466
#
#
#
# Elastic Compliance Matrix: (Units=1/GPa)
#
#
# Indices 1 2 3 4 5 6 
#
# 1 0.007413 -0.001120 -0.005230 0.000000 0.000000 0.000000
# 2 -0.001120 0.021262 -0.001403 0.000000 0.000000 0.000000
# 3 -0.005230 -0.001403 0.022251 0.000000 0.000000 0.000000
# 4 0.000000 0.000000 0.000000 0.044121 0.000000 0.000000
# 5 0.000000 0.000000 0.000000 0.000000 0.100530 0.000000
# 6 0.000000 0.000000 0.000000 0.000000 0.000000 0.150453
#
#
# Mechanical properties :
#
#
# Convention : Reuss Voigt Hill
#
# Bulk Modulus (GPa) = 28.23187 42.15603 35.19395
# Shear Modulus (GPa) = 13.39253 21.89378 17.64316
#
# Velocity S-wave (km/s) = 2.53641 3.24301 2.91123
# Velocity P-wave (km/s) = 4.70527 5.85434 5.31097
#
# Compressibility (1/GPa) = 0.03542096
#
# Stress axis : x y z
#
# Youngs Moduli (GPa) = 134.89579 47.03255 44.94167
#
# Poissons Ratio (x) = 0.05267 0.23503
# Poissons Ratio (y) = 0.15105 0.06306
# Poissons Ratio (z) = 0.70546 0.06599
#
# Static dielectric constant tensor:
#      x y z
#    x 4.033640 0.000000 0.000000 
#    y 0.000000 3.609520 0.000000 
#    z 0.000000 0.000000 3.769660 
# 
# 
# High freq. dielectric constant tensor:
#      x y z
#    x 1.826730 0.000000 0.000000 
#    y 0.000000 1.796440 0.000000 
#    z 0.000000 0.000000 1.814250 
# 
# From -- ./inp_files/18412.got.cif
#   From: 2010.03.12/outbox.cif.g09.slc.cpg/sg64_10_cif.got.tgz:18412.got - 2010.04.10 20:19:32.
