data_PCOD8264127
_publ_section_title
;
Structure prediction by ZEFSAII (Michael W. Deem and Ramdas Pophale) SiO2 
 PCOD8264127
Probable space group: C M C A
;
_chemical_formula_sum "Si O2"
_cell_formula_units_Z 96
_cell_length_a 24.504099
_cell_length_b 17.840344
_cell_length_c 11.129733
_cell_angle_alpha 90.000000
_cell_angle_beta 90.000000
_cell_angle_gamma 90.000000
_cell_volume 4865.491391
_symmetry_space_group_name_H-M "C M C A"
_symmetry_group_IT_number 64
_symmetry_cell_setting 'orthorhombic'
loop_
_space_group_symop_operation_xyz
x,y,z
-x,1/2-y,1/2+z
x,-y,-z
-x,1/2+y,1/2-z
-x,-y,-z
x,1/2+y,1/2-z
-x,y,z
x,1/2-y,1/2+z
1/2+x,1/2+y,z
1/2-x,-y,1/2+z
1/2+x,1/2-y,-z
1/2-x,y,1/2-z
1/2-x,1/2-y,-z
1/2+x,y,1/2-z
1/2-x,1/2+y,z
1/2+x,-y,1/2+z
loop_
_atom_site_type_symbol
_atom_site_label
_atom_site_fract_x
_atom_site_fract_y
_atom_site_fract_z
Si Si1 0.837618 0.637803 0.024279
Si Si2 0.863616 0.204432 0.951555
Si Si3 0.185051 0.610233 0.755252
Si Si4 0.563061 0.580724 0.060266
Si Si5 0.349713 0.947368 0.745291
Si Si6 0.273895 0.171453 0.366202
O O1 0.877628 0.707363 0.064661
O O2 0.853239 0.568082 0.111150
O O3 0.773767 0.656435 0.039848
O O4 0.843175 0.619014 0.885009
O O5 0.834341 0.176351 0.831551
O O6 0.914134 0.149689 0.979610
O O7 0.821781 0.213079 0.063893
O O8 0.250000 0.605811 0.750000
O O9 0.160063 0.532725 0.708468
O O10 0.500000 0.597150 0.083389
O O11 0.593788 0.580609 0.187175
O O12 0.572446 0.500000 0.000000
O O13 0.298060 0.904871 0.688838
O O14 0.250000 0.218147 0.250000
#
# Coordination Sequence:
#
# PCOD8264127 Si02
#       6
#    16  16  16  16  16  16
#     4  11  23  35  56  84 131 164 188 240 311 366
#     4  11  23  36  58  90 118 158 210 246 296 365
#     4  12  23  34  57  89 128 168 202 235 290 368
#     4  10  21  43  70  87 108 151 209 265 303 342
#     4  10  22  39  58  86 121 158 208 250 294 357
#     4   9  19  34  54  79 120 160 199 234 286 355
#
# _framework density 19.730791
#
# number of rings (size 3 to 8) (size 9 to 14) (size 15 to 20)
#    0.000    1.500    3.333    2.500    7.000    0.000 
#    0.000    0.833    0.000    4.000    0.000    0.000 
#    0.000    0.000    0.000    0.000    0.000    0.000 
#
# Total GULP energy -594875.131849 kJ/mol
# GULP energy per Si atom -12393.231914 kJ/mol
# Density = 1.968588 g / cm^3
# Si number density = 19.730791 Si / 1000 Ang^3
#
#
#
# Elastic Constant Matrix: (Units=GPa)
#
#
# Indices 1 2 3 4 5 6 
#
# 1 98.1364 17.6068 20.9885 0.0000 0.0000 0.0000
# 2 17.6068 73.0077 10.3151 0.0000 0.0000 0.0000
# 3 20.9885 10.3151 91.9730 0.0000 0.0000 0.0000
# 4 0.0000 0.0000 0.0000 23.9762 0.0000 0.0000
# 5 0.0000 0.0000 0.0000 0.0000 16.3092 0.0000
# 6 0.0000 0.0000 0.0000 0.0000 0.0000 16.3482
#
#
#
# Elastic Compliance Matrix: (Units=1/GPa)
#
#
# Indices 1 2 3 4 5 6 
#
# 1 0.011098 -0.002356 -0.002268 0.000000 0.000000 0.000000
# 2 -0.002356 0.014418 -0.001079 0.000000 0.000000 0.000000
# 3 -0.002268 -0.001079 0.011511 0.000000 0.000000 0.000000
# 4 0.000000 0.000000 0.000000 0.041708 0.000000 0.000000
# 5 0.000000 0.000000 0.000000 0.000000 0.061315 0.000000
# 6 0.000000 0.000000 0.000000 0.000000 0.000000 0.061169
#
#
# Mechanical properties :
#
#
# Convention : Reuss Voigt Hill
#
# Bulk Modulus (GPa) = 39.03227 40.10422 39.56825
# Shear Modulus (GPa) = 22.60747 25.60717 24.10732
#
# Velocity S-wave (km/s) = 3.38863 3.60645 3.49924
# Velocity P-wave (km/s) = 5.92755 6.14099 6.03521
#
# Compressibility (1/GPa) = 0.02561983
#
# Stress axis : x y z
#
# Youngs Moduli (GPa) = 90.10875 69.35852 86.87004
#
# Poissons Ratio (x) = 0.16340 0.19705
# Poissons Ratio (y) = 0.21229 0.09377
# Poissons Ratio (z) = 0.20439 0.07486
#
# Static dielectric constant tensor:
#      x y z
#    x 3.243860 0.000000 0.000000 
#    y 0.000000 3.699450 0.000000 
#    z 0.000000 0.000000 3.831260 
# 
# 
# High freq. dielectric constant tensor:
#      x y z
#    x 1.721390 0.000000 0.000000 
#    y 0.000000 1.778040 0.000000 
#    z 0.000000 0.000000 1.781050 
# 
# From -- ./inp_files/18349.got.cif
#   From: 2010.03.12/outbox.cif.g09.slc.cpg/sg64_10_cif.got.tgz:18349.got - 2010.04.10 20:19:32.
