data_PCOD8264311
_publ_section_title
;
Structure prediction by ZEFSAII (Michael W. Deem and Ramdas Pophale) SiO2 
 PCOD8264311
Probable space group: C M C A
;
_chemical_formula_sum "Si O2"
_cell_formula_units_Z 88
_cell_length_a 9.626937
_cell_length_b 20.286029
_cell_length_c 23.785958
_cell_angle_alpha 90.000000
_cell_angle_beta 90.000000
_cell_angle_gamma 90.000000
_cell_volume 4645.214996
_symmetry_space_group_name_H-M "C M C A"
_symmetry_group_IT_number 64
_symmetry_cell_setting 'orthorhombic'
loop_
_space_group_symop_operation_xyz
x,y,z
-x,1/2-y,1/2+z
x,-y,-z
-x,1/2+y,1/2-z
-x,-y,-z
x,1/2+y,1/2-z
-x,y,z
x,1/2-y,1/2+z
1/2+x,1/2+y,z
1/2-x,-y,1/2+z
1/2+x,1/2-y,-z
1/2-x,y,1/2-z
1/2-x,1/2-y,-z
1/2+x,y,1/2-z
1/2-x,1/2+y,z
1/2+x,-y,1/2+z
loop_
_atom_site_type_symbol
_atom_site_label
_atom_site_fract_x
_atom_site_fract_y
_atom_site_fract_z
Si Si1 0.345535 0.639293 0.497552
Si Si2 0.161246 0.754625 0.695511
Si Si3 0.154217 0.996950 0.118565
Si Si4 0.163004 0.150632 0.898528
Si Si5 0.249198 0.000000 0.500000
Si Si6 0.661621 0.617650 0.372320
O O1 0.500000 0.669272 0.505863
O O2 0.240386 0.670528 0.543210
O O3 0.352464 0.561339 0.509477
O O4 0.294000 0.648756 0.432942
O O5 0.250000 0.738334 0.750000
O O6 0.206722 0.703903 0.647368
O O7 0.193462 0.828511 0.675044
O O8 0.000000 0.745742 0.710395
O O9 0.148506 0.011093 0.052185
O O10 0.257505 0.050877 0.145777
O O11 0.000000 0.006888 0.144016
O O12 0.204985 0.921213 0.126780
O O13 0.000000 0.152303 0.912478
O O14 0.500000 0.598888 0.375344
#
# Coordination Sequence:
#
# PCOD8264311 Si02
#       6
#    16  16  16  16   8  16
#     4   9  16  27  47  76 107 137 167 198 242 302
#     4  10  22  41  58  72  96 133 175 216 259 302
#     4   9  16  28  49  76 104 134 168 202 243 299
#     4   9  19  34  52  76 107 137 165 206 254 297
#     4   8  14  24  42  70 108 142 166 196 240 288
#     4   9  19  34  52  76 107 137 165 206 254 297
#
# _framework density 18.944226
#
# number of rings (size 3 to 8) (size 9 to 14) (size 15 to 20)
#    0.000    2.909    0.000    0.545    0.000   10.909 
#    0.000    0.909    0.000    4.364    0.000    0.000 
#    0.000    0.000    0.000    0.000    0.000    0.000 
#
# Total GULP energy -545291.553179 kJ/mol
# GULP energy per Si atom -12392.989845 kJ/mol
# Density = 1.890111 g / cm^3
# Si number density = 18.944226 Si / 1000 Ang^3
#
#
#
# Elastic Constant Matrix: (Units=GPa)
#
#
# Indices 1 2 3 4 5 6 
#
# 1 59.4373 18.5947 22.5302 0.0000 0.0000 0.0000
# 2 18.5947 49.0674 1.5913 0.0000 0.0000 0.0000
# 3 22.5302 1.5913 48.6411 0.0000 0.0000 0.0000
# 4 0.0000 0.0000 0.0000 17.4854 0.0000 0.0000
# 5 0.0000 0.0000 0.0000 0.0000 26.5902 0.0000
# 6 0.0000 0.0000 0.0000 0.0000 0.0000 25.0436
#
#
#
# Elastic Compliance Matrix: (Units=1/GPa)
#
#
# Indices 1 2 3 4 5 6 
#
# 1 0.023532 -0.008573 -0.010619 0.000000 0.000000 0.000000
# 2 -0.008573 0.023525 0.003201 0.000000 0.000000 0.000000
# 3 -0.010619 0.003201 0.025373 0.000000 0.000000 0.000000
# 4 0.000000 0.000000 0.000000 0.057191 0.000000 0.000000
# 5 0.000000 0.000000 0.000000 0.000000 0.037608 0.000000
# 6 0.000000 0.000000 0.000000 0.000000 0.000000 0.039930
#
#
# Mechanical properties :
#
#
# Convention : Reuss Voigt Hill
#
# Bulk Modulus (GPa) = 24.72334 26.95314 25.83824
# Shear Modulus (GPa) = 19.79228 21.45248 20.62238
#
# Velocity S-wave (km/s) = 3.23579 3.36877 3.30295
# Velocity P-wave (km/s) = 5.19994 5.42125 5.31175
#
# Compressibility (1/GPa) = 0.04044761
#
# Stress axis : x y z
#
# Youngs Moduli (GPa) = 42.49543 42.50751 39.41223
#
# Poissons Ratio (x) = 0.36443 0.41853
# Poissons Ratio (y) = 0.36433 -0.12618
# Poissons Ratio (z) = 0.45127 -0.13609
#
# Static dielectric constant tensor:
#      x y z
#    x 3.334650 0.000000 0.000000 
#    y 0.000000 3.526780 0.000000 
#    z 0.000000 0.000000 3.228400 
# 
# 
# High freq. dielectric constant tensor:
#      x y z
#    x 1.725840 0.000000 0.000000 
#    y 0.000000 1.735540 0.000000 
#    z 0.000000 0.000000 1.705400 
# 
# From -- ./inp_files/42869.got.cif
#   From: 2010.03.12/outbox.cif.g09.slc.cpg/sg64_22_cif.got.tgz:42869.got - 2010.04.10 20:19:32.
