data_PCOD8264898
_publ_section_title
;
Structure prediction by ZEFSAII (Michael W. Deem and Ramdas Pophale) SiO2 
 PCOD8264898
Probable space group: C M C A
;
_chemical_formula_sum "Si O2"
_cell_formula_units_Z 64
_cell_length_a 29.370207
_cell_length_b 10.117918
_cell_length_c 9.081680
_cell_angle_alpha 90.000000
_cell_angle_beta 90.000000
_cell_angle_gamma 90.000000
_cell_volume 2698.760580
_symmetry_space_group_name_H-M "C M C A"
_symmetry_group_IT_number 64
_symmetry_cell_setting 'orthorhombic'
loop_
_space_group_symop_operation_xyz
x,y,z
-x,1/2-y,1/2+z
x,-y,-z
-x,1/2+y,1/2-z
-x,-y,-z
x,1/2+y,1/2-z
-x,y,z
x,1/2-y,1/2+z
1/2+x,1/2+y,z
1/2-x,-y,1/2+z
1/2+x,1/2-y,-z
1/2-x,y,1/2-z
1/2-x,1/2-y,-z
1/2+x,y,1/2-z
1/2-x,1/2+y,z
1/2+x,-y,1/2+z
loop_
_atom_site_type_symbol
_atom_site_label
_atom_site_fract_x
_atom_site_fract_y
_atom_site_fract_z
Si Si1 0.098385 0.032051 0.164458
Si Si2 0.730583 0.628146 0.585851
Si Si3 0.048931 0.138150 0.423696
Si Si4 0.370353 0.300407 0.370913
O O1 0.058088 0.107885 0.251392
O O2 0.138471 0.145429 0.170794
O O3 0.112436 0.893361 0.237875
O O4 0.082194 0.000000 0.000000
O O5 0.747823 0.500000 0.500000
O O6 0.750000 0.625514 0.750000
O O7 0.750000 0.750000 0.500000
O O8 0.676118 0.634951 0.575587
O O9 0.091797 0.210385 0.499211
O O10 0.000000 0.215412 0.434591
O O11 0.043095 0.000000 0.500000
#
# Coordination Sequence:
#
# PCOD8264898 Si02
#       4
#    16  16  16  16
#     4  11  24  41  72 104 140 191 237 293 360 424
#     4  12  30  49  76 111 148 194 250 307 374 444
#     4   9  20  42  68 100 142 187 234 289 353 424
#     4  11  26  46  73 102 147 189 234 300 364 431
#
# _framework density 23.714589
#
# number of rings (size 3 to 8) (size 9 to 14) (size 15 to 20)
#    0.000    1.250    0.000    4.500   14.000    1.500 
#    0.000    5.000    0.000    0.000    0.000    0.000 
#    0.000    0.000    0.000    0.000    0.000    0.000 
#
# Total GULP energy -396438.623845 kJ/mol
# GULP energy per Si atom -12388.706995 kJ/mol
# Density = 2.366061 g / cm^3
# Si number density = 23.714589 Si / 1000 Ang^3
#
#
#
# Elastic Constant Matrix: (Units=GPa)
#
#
# Indices 1 2 3 4 5 6 
#
# 1 140.4944 18.3063 63.5742 0.0000 0.0000 0.0000
# 2 18.3063 144.0040 69.1510 0.0000 0.0000 0.0000
# 3 63.5742 69.1510 196.3061 0.0000 0.0000 0.0000
# 4 0.0000 0.0000 0.0000 36.0079 0.0000 0.0000
# 5 0.0000 0.0000 0.0000 0.0000 37.3050 0.0000
# 6 0.0000 0.0000 0.0000 0.0000 0.0000 47.5440
#
#
#
# Elastic Compliance Matrix: (Units=1/GPa)
#
#
# Indices 1 2 3 4 5 6 
#
# 1 0.008350 0.000285 -0.002805 0.000000 0.000000 0.000000
# 2 0.000285 0.008368 -0.003040 0.000000 0.000000 0.000000
# 3 -0.002805 -0.003040 0.007073 0.000000 0.000000 0.000000
# 4 0.000000 0.000000 0.000000 0.027772 0.000000 0.000000
# 5 0.000000 0.000000 0.000000 0.000000 0.026806 0.000000
# 6 0.000000 0.000000 0.000000 0.000000 0.000000 0.021033
#
#
# Mechanical properties :
#
#
# Convention : Reuss Voigt Hill
#
# Bulk Modulus (GPa) = 78.91354 86.98525 82.94940
# Shear Modulus (GPa) = 43.57519 46.15624 44.86572
#
# Velocity S-wave (km/s) = 4.29124 4.41650 4.35432
# Velocity P-wave (km/s) = 7.60931 7.92256 7.76752
#
# Compressibility (1/GPa) = 0.01267210
#
# Stress axis : x y z
#
# Youngs Moduli (GPa) = 119.76603 119.50538 141.37794
#
# Poissons Ratio (x) = -0.03410 0.39650
# Poissons Ratio (y) = -0.03417 0.42980
# Poissons Ratio (z) = 0.33589 0.36330
#
# Static dielectric constant tensor:
#      x y z
#    x 5.814600 0.000000 0.000000 
#    y 0.000000 4.566440 0.000000 
#    z 0.000000 0.000000 4.006120 
# 
# 
# High freq. dielectric constant tensor:
#      x y z
#    x 1.920380 0.000000 0.000000 
#    y 0.000000 1.955600 0.000000 
#    z 0.000000 0.000000 1.953190 
# 
# From -- ./inp_files/10850.got.cif
#   From: 2010.03.12/outbox.cif.g09.slc.cpg/sg64_6_cif.got.tgz:10850.got - 2010.04.10 20:19:32.
