data_PCOD8264286
_publ_section_title
;
Structure prediction by ZEFSAII (Michael W. Deem and Ramdas Pophale) SiO2 
 PCOD8264286
Probable space group: C M C A
;
_chemical_formula_sum "Si O2"
_cell_formula_units_Z 80
_cell_length_a 21.716785
_cell_length_b 13.917045
_cell_length_c 11.650910
_cell_angle_alpha 90.000000
_cell_angle_beta 90.000000
_cell_angle_gamma 90.000000
_cell_volume 3521.295006
_symmetry_space_group_name_H-M "C M C A"
_symmetry_group_IT_number 64
_symmetry_cell_setting 'orthorhombic'
loop_
_space_group_symop_operation_xyz
x,y,z
-x,1/2-y,1/2+z
x,-y,-z
-x,1/2+y,1/2-z
-x,-y,-z
x,1/2+y,1/2-z
-x,y,z
x,1/2-y,1/2+z
1/2+x,1/2+y,z
1/2-x,-y,1/2+z
1/2+x,1/2-y,-z
1/2-x,y,1/2-z
1/2-x,1/2-y,-z
1/2+x,y,1/2-z
1/2-x,1/2+y,z
1/2+x,-y,1/2+z
loop_
_atom_site_type_symbol
_atom_site_label
_atom_site_fract_x
_atom_site_fract_y
_atom_site_fract_z
Si Si1 0.659223 0.413671 0.661638
Si Si2 0.425644 0.083040 0.842964
Si Si3 0.372909 0.753064 0.999541
Si Si4 0.931553 0.077163 0.914671
Si Si5 0.297322 0.415776 0.914239
O O1 0.607632 0.486582 0.610058
O O2 0.640062 0.308148 0.619362
O O3 0.661529 0.420195 0.798978
O O4 0.725990 0.433728 0.609339
O O5 0.500000 0.079374 0.861295
O O6 0.394626 0.175273 0.901167
O O7 0.402610 0.087331 0.711285
O O8 0.312201 0.689229 0.031152
O O9 0.428866 0.679992 0.977004
O O10 0.000000 0.041467 0.893567
O O11 0.898878 0.000000 0.000000
O O12 0.318208 0.500000 0.000000
#
# Coordination Sequence:
#
# PCOD8264286 Si02
#       5
#    16  16  16  16  16
#     4  11  25  42  65  96 129 170 216 264 323 383
#     4  11  24  42  65  95 132 172 214 265 324 384
#     4  12  22  39  64  94 128 167 215 269 321 380
#     4  10  22  40  62  90 126 169 216 264 319 385
#     4  11  24  44  67  93 129 171 216 267 320 381
#
# _framework density 22.718914999999999
#
# number of rings (size 3 to 8) (size 9 to 14) (size 15 to 20)
#    0.000    1.000    0.000    7.200    0.000    2.400 
#    0.000    9.000    0.000    0.000    0.000    0.000 
#    0.000    0.000    0.000    0.000    0.000    0.000 
#
# Total GULP energy -495619.294952 kJ/mol
# GULP energy per Si atom -12390.482374 kJ/mol
# Density = 2.266721 g / cm^3
# Si number density = 22.718915 Si / 1000 Ang^3
#
#
#
# Elastic Constant Matrix: (Units=GPa)
#
#
# Indices 1 2 3 4 5 6 
#
# 1 106.2722 54.1646 40.9484 0.0000 0.0000 0.0000
# 2 54.1646 192.4306 82.1579 0.0000 0.0000 0.0000
# 3 40.9484 82.1579 151.1147 0.0000 0.0000 0.0000
# 4 0.0000 0.0000 0.0000 45.8601 0.0000 0.0000
# 5 0.0000 0.0000 0.0000 0.0000 13.5486 0.0000
# 6 0.0000 0.0000 0.0000 0.0000 0.0000 65.9505
#
#
#
# Elastic Compliance Matrix: (Units=1/GPa)
#
#
# Indices 1 2 3 4 5 6 
#
# 1 0.011326 -0.002445 -0.001740 0.000000 0.000000 0.000000
# 2 -0.002445 0.007296 -0.003304 0.000000 0.000000 0.000000
# 3 -0.001740 -0.003304 0.008885 0.000000 0.000000 0.000000
# 4 0.000000 0.000000 0.000000 0.021805 0.000000 0.000000
# 5 0.000000 0.000000 0.000000 0.000000 0.073808 0.000000
# 6 0.000000 0.000000 0.000000 0.000000 0.000000 0.015163
#
#
# Mechanical properties :
#
#
# Convention : Reuss Voigt Hill
#
# Bulk Modulus (GPa) = 79.81232 89.37327 84.59280
# Shear Modulus (GPa) = 31.75857 43.24163 37.50010
#
# Velocity S-wave (km/s) = 3.74289 4.36745 4.06718
# Velocity P-wave (km/s) = 7.34068 8.05338 7.70528
#
# Compressibility (1/GPa) = 0.01252939
#
# Stress axis : x y z
#
# Youngs Moduli (GPa) = 88.28863 137.06995 112.54785
#
# Poissons Ratio (x) = 0.33519 0.19580
# Poissons Ratio (y) = 0.21590 0.37184
# Poissons Ratio (z) = 0.15360 0.45285
#
# Static dielectric constant tensor:
#      x y z
#    x 3.954550 0.000000 0.000000 
#    y 0.000000 4.042840 0.000000 
#    z 0.000000 0.000000 4.361980 
# 
# 
# High freq. dielectric constant tensor:
#      x y z
#    x 1.909380 0.000000 0.000000 
#    y 0.000000 1.897800 0.000000 
#    z 0.000000 0.000000 1.911710 
# 
# From -- ./inp_files/18033.got.cif
#   From: 2010.03.12/outbox.cif.g09.slc.cpg/sg64_10_cif.got.tgz:18033.got - 2010.04.10 20:19:32.
