data_PCOD8264369
_publ_section_title
;
Structure prediction by ZEFSAII (Michael W. Deem and Ramdas Pophale) SiO2 
 PCOD8264369
Probable space group: C M C A
;
_chemical_formula_sum "Si O2"
_cell_formula_units_Z 88
_cell_length_a 13.635430
_cell_length_b 11.921442
_cell_length_c 24.103612
_cell_angle_alpha 90.000000
_cell_angle_beta 90.000000
_cell_angle_gamma 90.000000
_cell_volume 3918.138253
_symmetry_space_group_name_H-M "C M C A"
_symmetry_group_IT_number 64
_symmetry_cell_setting 'orthorhombic'
loop_
_space_group_symop_operation_xyz
x,y,z
-x,1/2-y,1/2+z
x,-y,-z
-x,1/2+y,1/2-z
-x,-y,-z
x,1/2+y,1/2-z
-x,y,z
x,1/2-y,1/2+z
1/2+x,1/2+y,z
1/2-x,-y,1/2+z
1/2+x,1/2-y,-z
1/2-x,y,1/2-z
1/2-x,1/2-y,-z
1/2+x,y,1/2-z
1/2-x,1/2+y,z
1/2+x,-y,1/2+z
loop_
_atom_site_type_symbol
_atom_site_label
_atom_site_fract_x
_atom_site_fract_y
_atom_site_fract_z
Si Si1 0.698388 0.153037 0.088405
Si Si2 0.888452 0.516574 0.296333
Si Si3 0.614291 0.982164 0.174610
Si Si4 0.739505 0.000000 0.500000
Si Si5 0.386341 0.610271 0.903759
Si Si6 0.390334 0.768867 0.637102
O O1 0.623683 0.255828 0.093724
O O2 0.811066 0.195778 0.091265
O O3 0.675872 0.066200 0.137039
O O4 0.689289 0.092407 0.028557
O O5 0.839916 0.495405 0.236252
O O6 0.842642 0.439712 0.345771
O O7 0.881062 0.648643 0.310150
O O8 0.000000 0.476552 0.290158
O O9 0.500000 0.014971 0.171329
O O10 0.632851 0.855988 0.155798
O O11 0.672503 0.055037 0.546539
O O12 0.500000 0.576555 0.909592
O O13 0.500000 0.778652 0.611252
#
# Coordination Sequence:
#
# PCOD8264369 Si02
#       6
#    16  16  16   8  16  16
#     4  12  25  44  67 100 132 172 222 281 329 397
#     4   9  20  41  67  98 132 170 215 262 323 401
#     4  10  23  43  68  98 137 173 208 266 337 401
#     4  12  25  46  63  92 134 174 231 280 329 388
#     4  11  24  44  70  98 130 173 224 278 335 391
#     4  10  22  42  64  94 134 177 214 260 324 395
#
# _framework density 22.459645999999999
#
# number of rings (size 3 to 8) (size 9 to 14) (size 15 to 20)
#    0.000    1.455    1.818    2.455    2.545    1.455 
#    0.000    3.636    0.000    0.000    0.000    0.000 
#    0.000    0.000    0.000    0.000    0.000    0.000 
#
# Total GULP energy -545623.152857 kJ/mol
# GULP energy per Si atom -12400.526201 kJ/mol
# Density = 2.240853 g / cm^3
# Si number density = 22.459646 Si / 1000 Ang^3
#
#
#
# Elastic Constant Matrix: (Units=GPa)
#
#
# Indices 1 2 3 4 5 6 
#
# 1 64.1610 21.0962 13.4621 0.0000 0.0000 0.0000
# 2 21.0962 145.9346 49.8084 0.0000 0.0000 0.0000
# 3 13.4621 49.8084 141.8231 0.0000 0.0000 0.0000
# 4 0.0000 0.0000 0.0000 29.4101 0.0000 0.0000
# 5 0.0000 0.0000 0.0000 0.0000 88.0736 0.0000
# 6 0.0000 0.0000 0.0000 0.0000 0.0000 38.6399
#
#
#
# Elastic Compliance Matrix: (Units=1/GPa)
#
#
# Indices 1 2 3 4 5 6 
#
# 1 0.016448 -0.002096 -0.000825 0.000000 0.000000 0.000000
# 2 -0.002096 0.008053 -0.002629 0.000000 0.000000 0.000000
# 3 -0.000825 -0.002629 0.008053 0.000000 0.000000 0.000000
# 4 0.000000 0.000000 0.000000 0.034002 0.000000 0.000000
# 5 0.000000 0.000000 0.000000 0.000000 0.011354 0.000000
# 6 0.000000 0.000000 0.000000 0.000000 0.000000 0.025880
#
#
# Mechanical properties :
#
#
# Convention : Reuss Voigt Hill
#
# Bulk Modulus (GPa) = 46.61400 57.85024 52.23212
# Shear Modulus (GPa) = 40.96970 49.06151 45.01560
#
# Velocity S-wave (km/s) = 4.27564 4.67886 4.48178
# Velocity P-wave (km/s) = 6.72119 7.41635 7.07731
#
# Compressibility (1/GPa) = 0.02145278
#
# Stress axis : x y z
#
# Youngs Moduli (GPa) = 60.79725 124.18117 124.18153
#
# Poissons Ratio (x) = 0.26030 0.10247
# Poissons Ratio (y) = 0.12744 0.32649
# Poissons Ratio (z) = 0.05017 0.32649
#
# Static dielectric constant tensor:
#      x y z
#    x 4.082820 0.000000 0.000000 
#    y 0.000000 4.284150 0.000000 
#    z 0.000000 0.000000 4.113420 
# 
# 
# High freq. dielectric constant tensor:
#      x y z
#    x 1.892220 0.000000 0.000000 
#    y 0.000000 1.898100 0.000000 
#    z 0.000000 0.000000 1.874780 
# 
# From -- ./inp_files/45077.got.cif
#   From: 2010.03.12/outbox.cif.g09.slc.cpg/sg64_23_cif.got.tgz:45077.got - 2010.04.10 20:19:32.
