data_PCOD8264227
_publ_section_title
;
Structure prediction by ZEFSAII (Michael W. Deem and Ramdas Pophale) SiO2 
 PCOD8264227
Probable space group: C M C A
;
_chemical_formula_sum "Si O2"
_cell_formula_units_Z 80
_cell_length_a 28.231857
_cell_length_b 5.041443
_cell_length_c 27.601225
_cell_angle_alpha 90.000000
_cell_angle_beta 90.000000
_cell_angle_gamma 90.000000
_cell_volume 3928.462974
_symmetry_space_group_name_H-M "C M C A"
_symmetry_group_IT_number 64
_symmetry_cell_setting 'orthorhombic'
loop_
_space_group_symop_operation_xyz
x,y,z
-x,1/2-y,1/2+z
x,-y,-z
-x,1/2+y,1/2-z
-x,-y,-z
x,1/2+y,1/2-z
-x,y,z
x,1/2-y,1/2+z
1/2+x,1/2+y,z
1/2-x,-y,1/2+z
1/2+x,1/2-y,-z
1/2-x,y,1/2-z
1/2-x,1/2-y,-z
1/2+x,y,1/2-z
1/2-x,1/2+y,z
1/2+x,-y,1/2+z
loop_
_atom_site_type_symbol
_atom_site_label
_atom_site_fract_x
_atom_site_fract_y
_atom_site_fract_z
Si Si1 0.876869 0.297833 0.368851
Si Si2 0.099964 0.705596 0.926126
Si Si3 0.446635 0.683681 0.282227
Si Si4 0.337282 0.000000 0.500000
Si Si5 0.781169 0.142015 0.907714
Si Si6 0.500000 0.249768 0.966576
O O1 0.887241 0.601928 0.381868
O O2 0.904841 0.222256 0.320701
O O3 0.819382 0.288026 0.365362
O O4 0.891337 0.099881 0.412331
O O5 0.044734 0.748399 0.932210
O O6 0.129830 0.780139 0.973895
O O7 0.440073 0.390776 0.261155
O O8 0.500000 0.713783 0.304764
O O9 0.305503 0.842355 0.460806
O O10 0.737899 0.343580 0.902288
O O11 0.500000 0.500000 0.000000
O O12 0.500000 0.000000 0.000000
#
# Coordination Sequence:
#
# PCOD8264227 Si02
#       6
#    16  16  16   8  16   8
#     4  11  24  41  63  90 123 157 201 257 306 366
#     4  11  24  37  57  86 123 168 211 248 297 354
#     4  10  22  41  67  95 122 153 192 241 307 381
#     4  10  22  39  58  84 124 162 219 252 306 336
#     4  11  23  39  61  87 118 161 209 259 302 346
#     4  12  24  38  54  80 122 172 212 252 280 352
#
# _framework density 20.364197000000001
#
# number of rings (size 3 to 8) (size 9 to 14) (size 15 to 20)
#    0.000    1.200    1.000    5.400    5.600    3.200 
#    0.000    0.000    0.000    3.600    0.000    0.000 
#    0.000    0.000    0.000    0.000    0.000    0.000 
#
# Total GULP energy -495954.331389 kJ/mol
# GULP energy per Si atom -12398.858285 kJ/mol
# Density = 2.031785 g / cm^3
# Si number density = 20.364197 Si / 1000 Ang^3
#
#
#
# Elastic Constant Matrix: (Units=GPa)
#
#
# Indices 1 2 3 4 5 6 
#
# 1 145.2039 15.8271 45.0744 0.0000 0.0000 0.0000
# 2 15.8271 70.6397 2.9996 0.0000 0.0000 0.0000
# 3 45.0744 2.9996 68.1068 0.0000 0.0000 0.0000
# 4 0.0000 0.0000 0.0000 24.8081 0.0000 0.0000
# 5 0.0000 0.0000 0.0000 0.0000 43.3305 0.0000
# 6 0.0000 0.0000 0.0000 0.0000 0.0000 33.6923
#
#
#
# Elastic Compliance Matrix: (Units=1/GPa)
#
#
# Indices 1 2 3 4 5 6 
#
# 1 0.008877 -0.001743 -0.005798 0.000000 0.000000 0.000000
# 2 -0.001743 0.014525 0.000514 0.000000 0.000000 0.000000
# 3 -0.005798 0.000514 0.018497 0.000000 0.000000 0.000000
# 4 0.000000 0.000000 0.000000 0.040309 0.000000 0.000000
# 5 0.000000 0.000000 0.000000 0.000000 0.023078 0.000000
# 6 0.000000 0.000000 0.000000 0.000000 0.000000 0.029680
#
#
# Mechanical properties :
#
#
# Convention : Reuss Voigt Hill
#
# Bulk Modulus (GPa) = 35.91310 45.75028 40.83169
# Shear Modulus (GPa) = 31.58502 35.03615 33.31059
#
# Velocity S-wave (km/s) = 3.94256 4.15236 4.04882
# Velocity P-wave (km/s) = 6.19667 6.74569 6.47700
#
# Compressibility (1/GPa) = 0.02784499
#
# Stress axis : x y z
#
# Youngs Moduli (GPa) = 112.65542 68.84694 54.06159
#
# Poissons Ratio (x) = 0.11998 0.31345
# Poissons Ratio (y) = 0.19632 -0.02777
# Poissons Ratio (z) = 0.65317 -0.03536
#
# Static dielectric constant tensor:
#      x y z
#    x 4.433360 0.000000 0.000000 
#    y 0.000000 3.873760 0.000000 
#    z 0.000000 0.000000 3.310280 
# 
# 
# High freq. dielectric constant tensor:
#      x y z
#    x 1.813140 0.000000 0.000000 
#    y 0.000000 1.818220 0.000000 
#    z 0.000000 0.000000 1.751260 
# 
# From -- ./inp_files/51202.got.cif
#   From: 2010.03.12/outbox.cif.g09.slc.cpg/sg64_26_cif.got.tgz:51202.got - 2010.04.10 20:19:32.
