data_PCOD8264172
_publ_section_title
;
Structure prediction by ZEFSAII (Michael W. Deem and Ramdas Pophale) SiO2 
 PCOD8264172
Probable space group: C M C A
;
_chemical_formula_sum "Si O2"
_cell_formula_units_Z 96
_cell_length_a 19.213221
_cell_length_b 21.693098
_cell_length_c 11.431352
_cell_angle_alpha 90.000000
_cell_angle_beta 90.000000
_cell_angle_gamma 90.000000
_cell_volume 4764.522195
_symmetry_space_group_name_H-M "C M C A"
_symmetry_group_IT_number 64
_symmetry_cell_setting 'orthorhombic'
loop_
_space_group_symop_operation_xyz
x,y,z
-x,1/2-y,1/2+z
x,-y,-z
-x,1/2+y,1/2-z
-x,-y,-z
x,1/2+y,1/2-z
-x,y,z
x,1/2-y,1/2+z
1/2+x,1/2+y,z
1/2-x,-y,1/2+z
1/2+x,1/2-y,-z
1/2-x,y,1/2-z
1/2-x,1/2-y,-z
1/2+x,y,1/2-z
1/2-x,1/2+y,z
1/2+x,-y,1/2+z
loop_
_atom_site_type_symbol
_atom_site_label
_atom_site_fract_x
_atom_site_fract_y
_atom_site_fract_z
Si Si1 0.136860 0.350700 0.524404
Si Si2 0.870213 0.498325 0.870849
Si Si3 0.828589 0.132390 0.281319
Si Si4 0.727158 0.884805 0.122895
Si Si5 0.500000 0.086505 0.496835
Si Si6 0.825708 0.780123 0.513157
Si Si7 0.000000 0.995285 0.795749
O O1 0.129763 0.367930 0.660816
O O2 0.206902 0.380652 0.466769
O O3 0.069188 0.377914 0.463623
O O4 0.124728 0.277281 0.512157
O O5 0.838389 0.430853 0.851798
O O6 0.806619 0.547285 0.865321
O O7 0.931280 0.510994 0.778675
O O8 0.903551 0.500000 0.000000
O O9 0.750000 0.141581 0.250000
O O10 0.846854 0.191538 0.361327
O O11 0.750000 0.862390 0.250000
O O12 0.668678 0.836139 0.080076
O O13 0.500000 0.029664 0.582931
O O14 0.500000 0.072971 0.354791
O O15 0.750000 0.750000 0.500000
#
# Coordination Sequence:
#
# PCOD8264172 Si02
#       7
#    16  16  16  16   8  16   8
#     4  11  24  43  68  93 133 178 226 267 332 403
#     4  12  23  43  64  99 133 168 225 273 334 395
#     4  12  21  40  66  96 130 174 221 277 337 388
#     4  11  23  38  64 101 135 167 219 283 330 380
#     4  11  24  48  66  94 130 184 221 259 332 402
#     4  10  22  37  62  93 128 169 217 278 323 381
#     4  11  25  44  68  88 135 180 213 268 330 410
#
# _framework density 20.148924000000001
#
# number of rings (size 3 to 8) (size 9 to 14) (size 15 to 20)
#    0.000    0.833    6.667    1.750    4.667    0.000 
#    3.000    2.500    0.000    0.000    0.000    0.000 
#    0.000    0.000    0.000    0.000    0.000    0.000 
#
# Total GULP energy -594707.312072 kJ/mol
# GULP energy per Si atom -12389.735668 kJ/mol
# Density = 2.010306 g / cm^3
# Si number density = 20.148924 Si / 1000 Ang^3
#
#
#
# Elastic Constant Matrix: (Units=GPa)
#
#
# Indices 1 2 3 4 5 6 
#
# 1 77.3420 43.2668 24.1223 0.0000 0.0000 0.0000
# 2 43.2668 131.6200 42.7193 0.0000 0.0000 0.0000
# 3 24.1223 42.7193 133.6267 0.0000 0.0000 0.0000
# 4 0.0000 0.0000 0.0000 27.6903 0.0000 0.0000
# 5 0.0000 0.0000 0.0000 0.0000 23.9738 0.0000
# 6 0.0000 0.0000 0.0000 0.0000 0.0000 89.1800
#
#
#
# Elastic Compliance Matrix: (Units=1/GPa)
#
#
# Indices 1 2 3 4 5 6 
#
# 1 0.016059 -0.004840 -0.001352 0.000000 0.000000 0.000000
# 2 -0.004840 0.009936 -0.002303 0.000000 0.000000 0.000000
# 3 -0.001352 -0.002303 0.008464 0.000000 0.000000 0.000000
# 4 0.000000 0.000000 0.000000 0.036114 0.000000 0.000000
# 5 0.000000 0.000000 0.000000 0.000000 0.041712 0.000000
# 6 0.000000 0.000000 0.000000 0.000000 0.000000 0.011213
#
#
# Mechanical properties :
#
#
# Convention : Reuss Voigt Hill
#
# Bulk Modulus (GPa) = 57.24241 62.53393 59.88817
# Shear Modulus (GPa) = 34.17397 43.66751 38.92074
#
# Velocity S-wave (km/s) = 4.12280 4.66041 4.39983
# Velocity P-wave (km/s) = 7.15085 7.75000 7.45645
#
# Compressibility (1/GPa) = 0.01746956
#
# Stress axis : x y z
#
# Youngs Moduli (GPa) = 62.27086 100.64267 118.15192
#
# Poissons Ratio (x) = 0.48714 0.15969
# Poissons Ratio (y) = 0.30141 0.27207
# Poissons Ratio (z) = 0.08416 0.23175
#
# Static dielectric constant tensor:
#      x y z
#    x 3.362690 0.000000 0.000000 
#    y 0.000000 4.202710 0.000000 
#    z 0.000000 0.000000 1.428170 
# 
# 
# High freq. dielectric constant tensor:
#      x y z
#    x 1.754220 0.000000 0.000000 
#    y 0.000000 1.798200 0.000000 
#    z 0.000000 0.000000 1.804020 
# 
# From -- ./inp_files/17406.got.cif
#   From: 2010.03.12/outbox.cif.g09.slc.cpg/sg64_9_cif.got.tgz:17406.got - 2010.04.10 20:19:32.
