data_PCOD8264753
_publ_section_title
;
Structure prediction by ZEFSAII (Michael W. Deem and Ramdas Pophale) SiO2 
 PCOD8264753
Probable space group: C M C A
;
_chemical_formula_sum "Si O2"
_cell_formula_units_Z 64
_cell_length_a 17.666869
_cell_length_b 13.221017
_cell_length_c 12.056776
_cell_angle_alpha 90.000000
_cell_angle_beta 90.000000
_cell_angle_gamma 90.000000
_cell_volume 2816.149101
_symmetry_space_group_name_H-M "C M C A"
_symmetry_group_IT_number 64
_symmetry_cell_setting 'orthorhombic'
loop_
_space_group_symop_operation_xyz
x,y,z
-x,1/2-y,1/2+z
x,-y,-z
-x,1/2+y,1/2-z
-x,-y,-z
x,1/2+y,1/2-z
-x,y,z
x,1/2-y,1/2+z
1/2+x,1/2+y,z
1/2-x,-y,1/2+z
1/2+x,1/2-y,-z
1/2-x,y,1/2-z
1/2-x,1/2-y,-z
1/2+x,y,1/2-z
1/2-x,1/2+y,z
1/2+x,-y,1/2+z
loop_
_atom_site_type_symbol
_atom_site_label
_atom_site_fract_x
_atom_site_fract_y
_atom_site_fract_z
Si Si1 0.000000 0.196683 0.715901
Si Si2 0.500000 0.035976 0.255190
Si Si3 0.629669 0.218413 0.633001
Si Si4 0.750000 0.424025 0.250000
Si Si5 0.142304 0.560150 0.109047
Si Si6 0.000000 0.833227 0.972043
O O1 0.075478 0.248884 0.764179
O O2 0.000000 0.220911 0.585060
O O3 0.000000 0.083389 0.756502
O O4 0.573402 0.072313 0.192023
O O5 0.500000 0.077647 0.381060
O O6 0.694972 0.144475 0.675800
O O7 0.666556 0.322726 0.584420
O O8 0.577102 0.160167 0.543209
O O9 0.790713 0.496837 0.163303
O O10 0.116016 0.500000 0.000000
#
# Coordination Sequence:
#
# PCOD8264753 Si02
#       6
#     8   8  16   8  16   8
#     4  11  21  46  72 105 139 176 239 310 345 410
#     4  12  22  44  77 102 139 182 243 303 351 419
#     4  11  25  46  72 107 141 191 238 297 364 416
#     4  12  28  48  68 104 158 192 234 294 356 444
#     4  12  26  46  73 105 142 194 240 297 361 430
#     4  11  24  45  81 105 136 186 247 307 351 418
#
# _framework density 22.72607
#
# number of rings (size 3 to 8) (size 9 to 14) (size 15 to 20)
#    0.000    0.500    5.000    3.375    0.000    5.000 
#    0.000    0.000    0.000    0.000    0.000    0.000 
#    0.000    0.000    0.000    0.000    0.000    0.000 
#
# Total GULP energy -396624.057105 kJ/mol
# GULP energy per Si atom -12394.501785 kJ/mol
# Density = 2.267434 g / cm^3
# Si number density = 22.726070 Si / 1000 Ang^3
#
#
#
# Elastic Constant Matrix: (Units=GPa)
#
#
# Indices 1 2 3 4 5 6 
#
# 1 137.5454 52.5587 48.7033 0.0000 0.0000 0.0000
# 2 52.5587 166.4043 30.3877 0.0000 0.0000 0.0000
# 3 48.7033 30.3877 108.3197 0.0000 0.0000 0.0000
# 4 0.0000 0.0000 0.0000 47.1881 0.0000 0.0000
# 5 0.0000 0.0000 0.0000 0.0000 17.9848 0.0000
# 6 0.0000 0.0000 0.0000 0.0000 0.0000 -761.8330
#
#
#
# Elastic Compliance Matrix: (Units=1/GPa)
#
#
# Indices 1 2 3 4 5 6 
#
# 1 0.009428 -0.002323 -0.003588 0.000000 0.000000 0.000000
# 2 -0.002323 0.006906 -0.000893 0.000000 0.000000 0.000000
# 3 -0.003588 -0.000893 0.011096 0.000000 0.000000 0.000000
# 4 0.000000 0.000000 0.000000 0.021192 0.000000 0.000000
# 5 0.000000 0.000000 0.000000 0.000000 0.055603 0.000000
# 6 0.000000 0.000000 0.000000 0.000000 0.000000 -0.001313
#
#
# Mechanical properties :
#
#
# Convention : Reuss Voigt Hill
#
# Bulk Modulus (GPa) = 72.34231 75.06322 73.70276
# Shear Modulus (GPa) = 41.27929 -120.62405 -39.67238
#
# Velocity S-wave (km/s) = 4.26653 -7.29333 -4.18266
# Velocity P-wave (km/s) = 7.49483 6.14998 3.02904
#
# Compressibility (1/GPa) = 0.01382317
#
# Stress axis : x y z
#
# Youngs Moduli (GPa) = 106.06468 144.79758 90.12639
#
# Poissons Ratio (x) = 0.33633 0.32333
# Poissons Ratio (y) = 0.24636 0.08049
# Poissons Ratio (z) = 0.38051 0.12931
#
# Static dielectric constant tensor:
#      x y z
#    x 4.006880 0.000000 0.000000 
#    y 0.000000 4.538360 0.000000 
#    z 0.000000 0.000000 4.252810 
# 
# 
# High freq. dielectric constant tensor:
#      x y z
#    x 1.887670 0.000000 0.000000 
#    y 0.000000 1.926300 0.000000 
#    z 0.000000 0.000000 1.899210 
# 
# From -- ./inp_files/15576.got.cif
#   From: 2010.03.12/outbox.cif.g09.slc.cpg/sg64_8_cif.got.tgz:15576.got - 2010.04.10 20:19:32.
