data_PCOD8264973
_publ_section_title
;
Structure prediction by ZEFSAII (Michael W. Deem and Ramdas Pophale) SiO2 
 PCOD8264973
Probable space group: C M C A
;
_chemical_formula_sum "Si O2"
_cell_formula_units_Z 72
_cell_length_a 20.603034
_cell_length_b 8.722276
_cell_length_c 20.439394
_cell_angle_alpha 90.000000
_cell_angle_beta 90.000000
_cell_angle_gamma 90.000000
_cell_volume 3673.068432
_symmetry_space_group_name_H-M "C M C A"
_symmetry_group_IT_number 64
_symmetry_cell_setting 'orthorhombic'
loop_
_space_group_symop_operation_xyz
x,y,z
-x,1/2-y,1/2+z
x,-y,-z
-x,1/2+y,1/2-z
-x,-y,-z
x,1/2+y,1/2-z
-x,y,z
x,1/2-y,1/2+z
1/2+x,1/2+y,z
1/2-x,-y,1/2+z
1/2+x,1/2-y,-z
1/2-x,y,1/2-z
1/2-x,1/2-y,-z
1/2+x,y,1/2-z
1/2-x,1/2+y,z
1/2+x,-y,1/2+z
loop_
_atom_site_type_symbol
_atom_site_label
_atom_site_fract_x
_atom_site_fract_y
_atom_site_fract_z
Si Si1 0.250000 0.795109 0.750000
Si Si2 0.573240 0.616915 0.674428
Si Si3 0.624083 0.556539 0.205804
Si Si4 0.291933 0.645935 0.878231
Si Si5 0.672078 0.970800 0.927503
O O1 0.313992 0.898182 0.750012
O O2 0.250076 0.692627 0.814677
O O3 0.500000 0.590152 0.650179
O O4 0.579938 0.546399 0.747062
O O5 0.585695 0.798145 0.678746
O O6 0.620720 0.537884 0.623172
O O7 0.647067 0.458225 0.143174
O O8 0.319923 0.789419 0.917459
O O9 0.242771 0.549136 0.922500
O O10 0.644829 0.000000 0.000000
#
# Coordination Sequence:
#
# PCOD8264973 Si02
#       5
#     8  16  16  16  16
#     4  12  18  32  66  88 120 142 174 254 324 356
#     4  12  24  40  59  87 123 163 203 244 294 360
#     4  12  21  37  64  94 120 148 194 254 318 366
#     4  12  21  37  64  94 122 149 192 255 320 364
#     4  12  24  40  60  88 124 165 205 246 296 359
#
# _framework density 19.602141
#
# number of rings (size 3 to 8) (size 9 to 14) (size 15 to 20)
#    0.000    0.000    8.889    2.000    0.000    0.444 
#    0.000    1.111    0.000    1.333    0.000    0.000 
#    0.000    0.000    0.000    0.000    0.000    0.000 
#
# Total GULP energy -446590.935969 kJ/mol
# GULP energy per Si atom -12405.303777 kJ/mol
# Density = 1.955753 g / cm^3
# Si number density = 19.602141 Si / 1000 Ang^3
#
#
#
# Elastic Constant Matrix: (Units=GPa)
#
#
# Indices 1 2 3 4 5 6 
#
# 1 100.2311 40.4819 27.6872 0.0000 0.0000 0.0000
# 2 40.4819 123.4229 23.8749 0.0000 0.0000 0.0000
# 3 27.6872 23.8749 69.1524 0.0000 0.0000 0.0000
# 4 0.0000 0.0000 0.0000 21.3512 0.0000 0.0000
# 5 0.0000 0.0000 0.0000 0.0000 12.9068 0.0000
# 6 0.0000 0.0000 0.0000 0.0000 0.0000 12.9503
#
#
#
# Elastic Compliance Matrix: (Units=1/GPa)
#
#
# Indices 1 2 3 4 5 6 
#
# 1 0.012370 -0.003321 -0.003806 0.000000 0.000000 0.000000
# 2 -0.003321 0.009574 -0.001976 0.000000 0.000000 0.000000
# 3 -0.003806 -0.001976 0.016667 0.000000 0.000000 0.000000
# 4 0.000000 0.000000 0.000000 0.046836 0.000000 0.000000
# 5 0.000000 0.000000 0.000000 0.000000 0.077478 0.000000
# 6 0.000000 0.000000 0.000000 0.000000 0.000000 0.077218
#
#
# Mechanical properties :
#
#
# Convention : Reuss Voigt Hill
#
# Bulk Modulus (GPa) = 49.00801 52.98827 50.99814
# Shear Modulus (GPa) = 18.85729 22.82581 20.84155
#
# Velocity S-wave (km/s) = 3.10498 3.41611 3.26426
# Velocity P-wave (km/s) = 6.15712 6.53072 6.34667
#
# Compressibility (1/GPa) = 0.02040483
#
# Stress axis : x y z
#
# Youngs Moduli (GPa) = 80.84364 104.45356 59.99968
#
# Poissons Ratio (x) = 0.34688 0.22836
# Poissons Ratio (y) = 0.26847 0.11854
# Poissons Ratio (z) = 0.30769 0.20637
#
# Static dielectric constant tensor:
#      x y z
#    x 3.426790 0.000000 0.000000 
#    y 0.000000 3.834920 0.000000 
#    z 0.000000 0.000000 3.408390 
# 
# 
# High freq. dielectric constant tensor:
#      x y z
#    x 1.746010 0.000000 0.000000 
#    y 0.000000 1.786420 0.000000 
#    z 0.000000 0.000000 1.744280 
# 
# From -- ./inp_files/40708.got.cif
#   From: 2010.03.12/outbox.cif.g09.slc.cpg/sg64_21_cif.got.tgz:40708.got - 2010.04.10 20:19:32.
