data_PCOD8264864
_publ_section_title
;
Structure prediction by ZEFSAII (Michael W. Deem and Ramdas Pophale) SiO2 
 PCOD8264864
Probable space group: C M C A
;
_chemical_formula_sum "Si O2"
_cell_formula_units_Z 64
_cell_length_a 17.333161
_cell_length_b 9.624537
_cell_length_c 17.049532
_cell_angle_alpha 90.000000
_cell_angle_beta 90.000000
_cell_angle_gamma 90.000000
_cell_volume 2844.265148
_symmetry_space_group_name_H-M "C M C A"
_symmetry_group_IT_number 64
_symmetry_cell_setting 'orthorhombic'
loop_
_space_group_symop_operation_xyz
x,y,z
-x,1/2-y,1/2+z
x,-y,-z
-x,1/2+y,1/2-z
-x,-y,-z
x,1/2+y,1/2-z
-x,y,z
x,1/2-y,1/2+z
1/2+x,1/2+y,z
1/2-x,-y,1/2+z
1/2+x,1/2-y,-z
1/2-x,y,1/2-z
1/2-x,1/2-y,-z
1/2+x,y,1/2-z
1/2-x,1/2+y,z
1/2+x,-y,1/2+z
loop_
_atom_site_type_symbol
_atom_site_label
_atom_site_fract_x
_atom_site_fract_y
_atom_site_fract_z
Si Si1 0.666995 0.477804 0.708291
Si Si2 0.843062 0.258990 0.413065
Si Si3 0.830805 0.803206 0.421544
Si Si4 0.912997 0.035249 0.134914
O O1 0.750000 0.505396 0.750000
O O2 0.663261 0.329195 0.666268
O O3 0.640217 0.592338 0.645030
O O4 0.600641 0.481487 0.772693
O O5 0.865527 0.168446 0.490803
O O6 0.760211 0.327503 0.427621
O O7 0.902980 0.385045 0.405231
O O8 0.852156 0.645505 0.398886
O O9 0.000000 0.086713 0.119701
#
# Coordination Sequence:
#
# PCOD8264864 Si02
#       4
#    16  16  16  16
#     4  12  23  41  69 101 135 178 227 289 336 397
#     4  11  23  42  69 100 135 180 232 278 334 408
#     4  11  23  42  69 100 135 180 232 278 334 408
#     4  12  27  44  69 104 142 180 223 284 352 404
#
# _framework density 22.501417
#
# number of rings (size 3 to 8) (size 9 to 14) (size 15 to 20)
#    0.000    0.500    5.000    3.000    0.000   10.000 
#    0.000    0.000    0.000    4.500    0.000    0.000 
#    0.000    0.000    0.000    0.000    0.000    0.000 
#
# Total GULP energy -396784.121061 kJ/mol
# GULP energy per Si atom -12399.503783 kJ/mol
# Density = 2.245020 g / cm^3
# Si number density = 22.501417 Si / 1000 Ang^3
#
#
#
# Elastic Constant Matrix: (Units=GPa)
#
#
# Indices 1 2 3 4 5 6 
#
# 1 78.2020 15.2554 16.2755 0.0000 0.0000 0.0000
# 2 15.2554 71.9192 8.3846 0.0000 0.0000 0.0000
# 3 16.2755 8.3846 107.4768 0.0000 0.0000 0.0000
# 4 0.0000 0.0000 0.0000 45.0300 0.0000 0.0000
# 5 0.0000 0.0000 0.0000 0.0000 9.9249 0.0000
# 6 0.0000 0.0000 0.0000 0.0000 0.0000 24.2263
#
#
#
# Elastic Compliance Matrix: (Units=1/GPa)
#
#
# Indices 1 2 3 4 5 6 
#
# 1 0.013700 -0.002689 -0.001865 0.000000 0.000000 0.000000
# 2 -0.002689 0.014560 -0.000729 0.000000 0.000000 0.000000
# 3 -0.001865 -0.000729 0.009644 0.000000 0.000000 0.000000
# 4 0.000000 0.000000 0.000000 0.022207 0.000000 0.000000
# 5 0.000000 0.000000 0.000000 0.000000 0.100757 0.000000
# 6 0.000000 0.000000 0.000000 0.000000 0.000000 0.041278
#
#
# Mechanical properties :
#
#
# Convention : Reuss Voigt Hill
#
# Bulk Modulus (GPa) = 36.57785 37.49211 37.03498
# Shear Modulus (GPa) = 22.54056 30.34841 26.44449
#
# Velocity S-wave (km/s) = 3.16846 3.67649 3.43189
# Velocity P-wave (km/s) = 5.44762 5.89240 5.67437
#
# Compressibility (1/GPa) = 0.02733895
#
# Stress axis : x y z
#
# Youngs Moduli (GPa) = 72.99266 68.68255 103.69589
#
# Poissons Ratio (x) = 0.18466 0.19338
# Poissons Ratio (y) = 0.19625 0.07556
# Poissons Ratio (z) = 0.13612 0.05005
#
# Static dielectric constant tensor:
#      x y z
#    x 3.573830 0.000000 0.000000 
#    y 0.000000 3.879340 0.000000 
#    z 0.000000 0.000000 4.726250 
# 
# 
# High freq. dielectric constant tensor:
#      x y z
#    x 1.845380 0.000000 0.000000 
#    y 0.000000 1.883480 0.000000 
#    z 0.000000 0.000000 1.919950 
# 
# From -- ./inp_files/24858.got.cif
#   From: 2010.03.12/outbox.cif.g09.slc.cpg/sg64_13_cif.got.tgz:24858.got - 2010.04.10 20:19:32.
