data_PCOD8264193
_publ_section_title
;
Structure prediction by ZEFSAII (Michael W. Deem and Ramdas Pophale) SiO2 
 PCOD8264193
Probable space group: C M C A
;
_chemical_formula_sum "Si O2"
_cell_formula_units_Z 72
_cell_length_a 13.959355
_cell_length_b 26.911536
_cell_length_c 9.560979
_cell_angle_alpha 90.000000
_cell_angle_beta 90.000000
_cell_angle_gamma 90.000000
_cell_volume 3591.750844
_symmetry_space_group_name_H-M "C M C A"
_symmetry_group_IT_number 64
_symmetry_cell_setting 'orthorhombic'
loop_
_space_group_symop_operation_xyz
x,y,z
-x,1/2-y,1/2+z
x,-y,-z
-x,1/2+y,1/2-z
-x,-y,-z
x,1/2+y,1/2-z
-x,y,z
x,1/2-y,1/2+z
1/2+x,1/2+y,z
1/2-x,-y,1/2+z
1/2+x,1/2-y,-z
1/2-x,y,1/2-z
1/2-x,1/2-y,-z
1/2+x,y,1/2-z
1/2-x,1/2+y,z
1/2+x,-y,1/2+z
loop_
_atom_site_type_symbol
_atom_site_label
_atom_site_fract_x
_atom_site_fract_y
_atom_site_fract_z
Si Si1 0.250000 0.879892 0.250000
Si Si2 0.112940 0.294587 0.648780
Si Si3 0.766741 0.057383 0.472513
Si Si4 0.113992 0.203943 0.833802
Si Si5 0.112381 0.595422 0.271921
O O1 0.232811 0.914343 0.382185
O O2 0.155961 0.846229 0.231491
O O3 0.153856 0.250734 0.745886
O O4 0.153012 0.289543 0.491579
O O5 0.142849 0.347034 0.715049
O O6 0.000000 0.289625 0.643449
O O7 0.855031 0.077445 0.380235
O O8 0.665995 0.064535 0.392605
O O9 0.784133 0.000000 0.500000
O O10 0.000000 0.199199 0.828432
O O11 0.000000 0.586873 0.292221
#
# Coordination Sequence:
#
# PCOD8264193 Si02
#       5
#     8  16  16  16  16
#     4  12  24  38  64  94 124 168 206 254 318 374
#     4   9  19  38  61  89 125 164 203 248 300 364
#     4  11  25  44  64  92 127 159 211 271 311 359
#     4  10  22  38  59  91 129 164 204 251 303 371
#     4  10  22  44  69  89 123 170 207 250 315 375
#
# _framework density 20.045933999999999
#
# number of rings (size 3 to 8) (size 9 to 14) (size 15 to 20)
#    0.000    1.778    2.222    1.333    3.111    4.444 
#    0.000    2.222    0.000    0.000    0.000    0.000 
#    0.000    0.000    0.000    0.000    0.000    0.000 
#
# Total GULP energy -446516.338739 kJ/mol
# GULP energy per Si atom -12403.231632 kJ/mol
# Density = 2.000031 g / cm^3
# Si number density = 20.045934 Si / 1000 Ang^3
#
#
#
# Elastic Constant Matrix: (Units=GPa)
#
#
# Indices 1 2 3 4 5 6 
#
# 1 74.6162 28.4673 41.5390 0.0000 0.0000 0.0000
# 2 28.4673 140.6850 85.1966 0.0000 0.0000 0.0000
# 3 41.5390 85.1966 174.7720 0.0000 0.0000 0.0000
# 4 0.0000 0.0000 0.0000 58.0342 0.0000 0.0000
# 5 0.0000 0.0000 0.0000 0.0000 26.4465 0.0000
# 6 0.0000 0.0000 0.0000 0.0000 0.0000 26.9567
#
#
#
# Elastic Compliance Matrix: (Units=1/GPa)
#
#
# Indices 1 2 3 4 5 6 
#
# 1 0.015610 -0.001294 -0.003079 0.000000 0.000000 0.000000
# 2 -0.001294 0.010193 -0.004661 0.000000 0.000000 0.000000
# 3 -0.003079 -0.004661 0.008726 0.000000 0.000000 0.000000
# 4 0.000000 0.000000 0.000000 0.017231 0.000000 0.000000
# 5 0.000000 0.000000 0.000000 0.000000 0.037812 0.000000
# 6 0.000000 0.000000 0.000000 0.000000 0.000000 0.037097
#
#
# Mechanical properties :
#
#
# Convention : Reuss Voigt Hill
#
# Bulk Modulus (GPa) = 60.75469 77.83100 69.29284
# Shear Modulus (GPa) = 33.28381 37.94550 35.61466
#
# Velocity S-wave (km/s) = 4.07919 4.35550 4.21961
# Velocity P-wave (km/s) = 7.24982 8.01277 7.64082
#
# Compressibility (1/GPa) = 0.01645963
#
# Stress axis : x y z
#
# Youngs Moduli (GPa) = 64.06228 98.11088 114.60283
#
# Poissons Ratio (x) = 0.12693 0.35291
# Poissons Ratio (y) = 0.08288 0.53417
# Poissons Ratio (z) = 0.19727 0.45730
#
# Static dielectric constant tensor:
#      x y z
#    x 3.498990 0.000000 0.000000 
#    y 0.000000 3.741940 0.000000 
#    z 0.000000 0.000000 3.920360 
# 
# 
# High freq. dielectric constant tensor:
#      x y z
#    x 1.780260 0.000000 0.000000 
#    y 0.000000 1.787410 0.000000 
#    z 0.000000 0.000000 1.796630 
# 
# From -- ./inp_files/5803.got.cif
#   From: 2010.03.12/outbox.cif.g09.slc.cpg/sg64_3_cif.got.tgz:5803.got - 2010.04.10 20:19:32.
