data_PCOD8264409
_publ_section_title
;
Structure prediction by ZEFSAII (Michael W. Deem and Ramdas Pophale) SiO2 
 PCOD8264409
Probable space group: C M C A
;
_chemical_formula_sum "Si O2"
_cell_formula_units_Z 104
_cell_length_a 21.551989
_cell_length_b 25.528728
_cell_length_c 9.372623
_cell_angle_alpha 90.000000
_cell_angle_beta 90.000000
_cell_angle_gamma 90.000000
_cell_volume 5156.769047
_symmetry_space_group_name_H-M "C M C A"
_symmetry_group_IT_number 64
_symmetry_cell_setting 'orthorhombic'
loop_
_space_group_symop_operation_xyz
x,y,z
-x,1/2-y,1/2+z
x,-y,-z
-x,1/2+y,1/2-z
-x,-y,-z
x,1/2+y,1/2-z
-x,y,z
x,1/2-y,1/2+z
1/2+x,1/2+y,z
1/2-x,-y,1/2+z
1/2+x,1/2-y,-z
1/2-x,y,1/2-z
1/2-x,1/2-y,-z
1/2+x,y,1/2-z
1/2-x,1/2+y,z
1/2+x,-y,1/2+z
loop_
_atom_site_type_symbol
_atom_site_label
_atom_site_fract_x
_atom_site_fract_y
_atom_site_fract_z
Si Si1 0.663112 0.424910 0.999038
Si Si2 0.731581 0.500000 0.500000
Si Si3 0.072093 0.368236 0.041561
Si Si4 0.168299 0.217106 0.619720
Si Si5 0.570068 0.571238 0.257727
Si Si6 0.804694 0.808933 0.065827
Si Si7 0.373817 0.465019 0.294844
O O1 0.726235 0.451842 0.941758
O O2 0.674952 0.368595 0.066572
O O3 0.636739 0.461889 0.124777
O O4 0.615072 0.417505 0.872459
O O5 0.691334 0.523065 0.629185
O O6 0.108594 0.314523 0.066204
O O7 0.095690 0.411906 0.151160
O O8 0.000000 0.357431 0.071254
O O9 0.083853 0.386646 0.880268
O O10 0.164241 0.277042 0.564593
O O11 0.171491 0.218525 0.790081
O O12 0.230190 0.191218 0.553671
O O13 0.500000 0.576031 0.202048
O O14 0.580308 0.513543 0.324434
#
# Coordination Sequence:
#
# PCOD8264409 Si02
#       7
#    16   8  16  16  16  16  16
#     4  12  25  40  63  99 132 171 213 268 330 379
#     4  12  24  38  66 100 134 170 214 266 328 390
#     4  11  23  42  68  93 127 176 221 266 321 387
#     4  10  22  44  66  97 125 164 216 266 326 389
#     4  11  25  43  61  91 134 177 217 261 317 394
#     4  10  23  42  69  94 128 165 207 272 331 381
#     4  12  22  41  65  94 132 171 216 264 317 393
#
# _framework density 20.167667000000002
#
# number of rings (size 3 to 8) (size 9 to 14) (size 15 to 20)
#    0.000    0.923    4.615    1.846    4.308    3.077 
#    0.000    1.538    0.000    0.000    0.000    0.000 
#    0.000    0.000    0.000    0.000    0.000    0.000 
#
# Total GULP energy -645055.948110 kJ/mol
# GULP energy per Si atom -12404.922079 kJ/mol
# Density = 2.012176 g / cm^3
# Si number density = 20.167667 Si / 1000 Ang^3
#
#
#
# Elastic Constant Matrix: (Units=GPa)
#
#
# Indices 1 2 3 4 5 6 
#
# 1 115.6709 31.1415 57.2287 0.0000 0.0000 0.0000
# 2 31.1415 79.5200 18.4686 0.0000 0.0000 0.0000
# 3 57.2287 18.4686 88.2568 0.0000 0.0000 0.0000
# 4 0.0000 0.0000 0.0000 33.2729 0.0000 0.0000
# 5 0.0000 0.0000 0.0000 0.0000 33.4524 0.0000
# 6 0.0000 0.0000 0.0000 0.0000 0.0000 24.4041
#
#
#
# Elastic Compliance Matrix: (Units=1/GPa)
#
#
# Indices 1 2 3 4 5 6 
#
# 1 0.013567 -0.003437 -0.008078 0.000000 0.000000 0.000000
# 2 -0.003437 0.014089 -0.000719 0.000000 0.000000 0.000000
# 3 -0.008078 -0.000719 0.016719 0.000000 0.000000 0.000000
# 4 0.000000 0.000000 0.000000 0.030055 0.000000 0.000000
# 5 0.000000 0.000000 0.000000 0.000000 0.029893 0.000000
# 6 0.000000 0.000000 0.000000 0.000000 0.000000 0.040977
#
#
# Mechanical properties :
#
#
# Convention : Reuss Voigt Hill
#
# Bulk Modulus (GPa) = 50.23696 55.23615 52.73656
# Shear Modulus (GPa) = 28.34395 29.99980 29.17187
#
# Velocity S-wave (km/s) = 3.75295 3.86102 3.80737
# Velocity P-wave (km/s) = 6.61387 6.87929 6.74788
#
# Compressibility (1/GPa) = 0.01990566
#
# Stress axis : x y z
#
# Youngs Moduli (GPa) = 73.70652 70.97955 59.81087
#
# Poissons Ratio (x) = 0.24396 0.48317
# Poissons Ratio (y) = 0.25333 0.04303
# Poissons Ratio (z) = 0.59542 0.05107
#
# Static dielectric constant tensor:
#      x y z
#    x 3.703070 0.000000 0.000000 
#    y 0.000000 3.617450 0.000000 
#    z 0.000000 0.000000 3.630290 
# 
# 
# High freq. dielectric constant tensor:
#      x y z
#    x 1.783980 0.000000 0.000000 
#    y 0.000000 1.786300 0.000000 
#    z 0.000000 0.000000 1.794050 
# 
# From -- ./inp_files/8488.got.cif
#   From: 2010.03.12/outbox.cif.g09.slc.cpg/sg64_5_cif.got.tgz:8488.got - 2010.04.10 20:19:32.
