data_PCOD8264460
_publ_section_title
;
Structure prediction by ZEFSAII (Michael W. Deem and Ramdas Pophale) SiO2 
 PCOD8264460
Probable space group: C M C A
;
_chemical_formula_sum "Si O2"
_cell_formula_units_Z 80
_cell_length_a 18.832300
_cell_length_b 8.773749
_cell_length_c 22.461924
_cell_angle_alpha 90.000000
_cell_angle_beta 90.000000
_cell_angle_gamma 90.000000
_cell_volume 3711.380856
_symmetry_space_group_name_H-M "C M C A"
_symmetry_group_IT_number 64
_symmetry_cell_setting 'orthorhombic'
loop_
_space_group_symop_operation_xyz
x,y,z
-x,1/2-y,1/2+z
x,-y,-z
-x,1/2+y,1/2-z
-x,-y,-z
x,1/2+y,1/2-z
-x,y,z
x,1/2-y,1/2+z
1/2+x,1/2+y,z
1/2-x,-y,1/2+z
1/2+x,1/2-y,-z
1/2-x,y,1/2-z
1/2-x,1/2-y,-z
1/2+x,y,1/2-z
1/2-x,1/2+y,z
1/2+x,-y,1/2+z
loop_
_atom_site_type_symbol
_atom_site_label
_atom_site_fract_x
_atom_site_fract_y
_atom_site_fract_z
Si Si1 0.273346 0.367440 0.831005
Si Si2 0.000000 0.915852 0.212718
Si Si3 0.860158 0.009272 0.067097
Si Si4 0.500000 0.649214 0.108259
Si Si5 0.750000 0.376045 0.250000
Si Si6 0.884858 0.272362 0.852325
Si Si7 0.500000 0.010595 0.851359
O O1 0.303825 0.385210 0.896756
O O2 0.303357 0.225487 0.791930
O O3 0.295821 0.520612 0.795348
O O4 0.188674 0.340332 0.827733
O O5 0.070577 0.817919 0.198141
O O6 0.000000 0.968498 0.280358
O O7 0.000000 0.068932 0.172681
O O8 0.933538 0.099161 0.068803
O O9 0.868419 0.838764 0.092216
O O10 0.831649 0.000000 0.000000
O O11 0.500000 0.829529 0.115309
O O12 0.930958 0.417108 0.873335
#
# Coordination Sequence:
#
# PCOD8264460 Si02
#       7
#    16   8  16   8   8  16   8
#     4  11  23  42  67  99 134 180 217 273 348 398
#     4   9  21  40  62 101 137 177 210 271 337 414
#     4  11  25  48  69  91 133 186 237 279 333 404
#     4  10  23  41  68  97 126 173 231 276 354 393
#     4  10  24  38  64  98 142 164 208 270 340 412
#     4  10  23  41  61  99 134 172 229 270 337 394
#     4  11  23  37  69 100 141 168 224 281 340 413
#
# _framework density 21.555319000000001
#
# number of rings (size 3 to 8) (size 9 to 14) (size 15 to 20)
#    0.000    1.600    2.000    2.100    5.600    4.000 
#    0.000    2.000    0.000    0.000    0.000    0.000 
#    0.000    0.000    0.000    0.000    0.000    0.000 
#
# Total GULP energy -495787.578919 kJ/mol
# GULP energy per Si atom -12394.689473 kJ/mol
# Density = 2.150626 g / cm^3
# Si number density = 21.555319 Si / 1000 Ang^3
#
#
#
# Elastic Constant Matrix: (Units=GPa)
#
#
# Indices 1 2 3 4 5 6 
#
# 1 119.1677 33.9890 35.4671 0.0000 0.0000 0.0000
# 2 33.9890 146.8710 43.3380 0.0000 0.0000 0.0000
# 3 35.4671 43.3380 140.0320 0.0000 0.0000 0.0000
# 4 0.0000 0.0000 0.0000 24.2744 0.0000 0.0000
# 5 0.0000 0.0000 0.0000 0.0000 25.6711 0.0000
# 6 0.0000 0.0000 0.0000 0.0000 0.0000 23.2530
#
#
#
# Elastic Compliance Matrix: (Units=1/GPa)
#
#
# Indices 1 2 3 4 5 6 
#
# 1 0.009415 -0.001623 -0.001882 0.000000 0.000000 0.000000
# 2 -0.001623 0.007773 -0.001994 0.000000 0.000000 0.000000
# 3 -0.001882 -0.001994 0.008235 0.000000 0.000000 0.000000
# 4 0.000000 0.000000 0.000000 0.041196 0.000000 0.000000
# 5 0.000000 0.000000 0.000000 0.000000 0.038954 0.000000
# 6 0.000000 0.000000 0.000000 0.000000 0.000000 0.043005
#
#
# Mechanical properties :
#
#
# Convention : Reuss Voigt Hill
#
# Bulk Modulus (GPa) = 69.33429 70.18434 69.75932
# Shear Modulus (GPa) = 30.41629 34.19145 32.30387
#
# Velocity S-wave (km/s) = 3.76051 3.98706 3.87544
# Velocity P-wave (km/s) = 7.14778 7.33664 7.24283
#
# Compressibility (1/GPa) = 0.01442288
#
# Stress axis : x y z
#
# Youngs Moduli (GPa) = 106.21656 128.65220 121.43023
#
# Poissons Ratio (x) = 0.20885 0.22855
# Poissons Ratio (y) = 0.17243 0.24218
# Poissons Ratio (z) = 0.19991 0.25659
#
# Static dielectric constant tensor:
#      x y z
#    x 3.811930 0.000000 0.000000 
#    y 0.000000 4.282060 0.000000 
#    z 0.000000 0.000000 3.575860 
# 
# 
# High freq. dielectric constant tensor:
#      x y z
#    x 1.838440 0.000000 0.000000 
#    y 0.000000 1.868150 0.000000 
#    z 0.000000 0.000000 1.819810 
# 
# From -- ./inp_files/46163.got.cif
#   From: 2010.03.12/outbox.cif.g09.slc.cpg/sg64_24_cif.got.tgz:46163.got - 2010.04.10 20:19:32.
