data_PCOD8264219
_publ_section_title
;
Structure prediction by ZEFSAII (Michael W. Deem and Ramdas Pophale) SiO2 
 PCOD8264219
Probable space group: C M C A
;
_chemical_formula_sum "Si O2"
_cell_formula_units_Z 80
_cell_length_a 25.779524
_cell_length_b 13.540333
_cell_length_c 12.298707
_cell_angle_alpha 90.000000
_cell_angle_beta 90.000000
_cell_angle_gamma 90.000000
_cell_volume 4293.027737
_symmetry_space_group_name_H-M "C M C A"
_symmetry_group_IT_number 64
_symmetry_cell_setting 'orthorhombic'
loop_
_space_group_symop_operation_xyz
x,y,z
-x,1/2-y,1/2+z
x,-y,-z
-x,1/2+y,1/2-z
-x,-y,-z
x,1/2+y,1/2-z
-x,y,z
x,1/2-y,1/2+z
1/2+x,1/2+y,z
1/2-x,-y,1/2+z
1/2+x,1/2-y,-z
1/2-x,y,1/2-z
1/2-x,1/2-y,-z
1/2+x,y,1/2-z
1/2-x,1/2+y,z
1/2+x,-y,1/2+z
loop_
_atom_site_type_symbol
_atom_site_label
_atom_site_fract_x
_atom_site_fract_y
_atom_site_fract_z
Si Si1 0.060404 0.061094 0.656265
Si Si2 0.938990 0.650644 0.072032
Si Si3 0.710595 0.253122 0.340878
Si Si4 0.284458 0.109422 0.535852
Si Si5 0.374296 0.322404 0.184791
O O1 0.074011 0.132285 0.554629
O O2 0.085982 0.098765 0.766743
O O3 0.000000 0.063391 0.676305
O O4 0.077646 0.948405 0.635756
O O5 0.904318 0.740280 0.115083
O O6 0.000000 0.674086 0.088614
O O7 0.750000 0.213030 0.250000
O O8 0.702648 0.168713 0.427873
O O9 0.734276 0.350150 0.399619
O O10 0.655519 0.274093 0.286272
O O11 0.335049 0.115642 0.610802
O O12 0.270892 0.000000 0.500000
#
# Coordination Sequence:
#
# PCOD8264219 Si02
#       5
#    16  16  16  16  16
#     4   9  19  36  56  83 115 152 193 227 281 339
#     4   9  19  36  56  81 117 151 188 237 273 332
#     4   9  21  39  55  79 110 147 183 224 282 342
#     4  10  22  39  55  81 116 141 180 237 281 332
#     4  11  20  34  60  86 108 147 191 230 282 329
#
# _framework density 18.634867
#
# number of rings (size 3 to 8) (size 9 to 14) (size 15 to 20)
#    0.000    2.400    0.000    3.000    2.800    2.400 
#   10.800    0.000    0.000    1.200    0.000    0.000 
#    0.000    0.000    0.000    0.000    0.000    0.000 
#
# Total GULP energy -495982.482832 kJ/mol
# GULP energy per Si atom -12399.562071 kJ/mol
# Density = 1.859245 g / cm^3
# Si number density = 18.634867 Si / 1000 Ang^3
#
#
#
# Elastic Constant Matrix: (Units=GPa)
#
#
# Indices 1 2 3 4 5 6 
#
# 1 43.8412 28.9125 16.0076 0.0000 0.0000 0.0000
# 2 28.9125 85.3273 31.4478 0.0000 0.0000 0.0000
# 3 16.0076 31.4478 80.2573 0.0000 0.0000 0.0000
# 4 0.0000 0.0000 0.0000 26.7059 0.0000 0.0000
# 5 0.0000 0.0000 0.0000 0.0000 25.1550 0.0000
# 6 0.0000 0.0000 0.0000 0.0000 0.0000 -16.9812
#
#
#
# Elastic Compliance Matrix: (Units=1/GPa)
#
#
# Indices 1 2 3 4 5 6 
#
# 1 0.029738 -0.009222 -0.002318 0.000000 0.000000 0.000000
# 2 -0.009222 0.016558 -0.004649 0.000000 0.000000 0.000000
# 3 -0.002318 -0.004649 0.014744 0.000000 0.000000 0.000000
# 4 0.000000 0.000000 0.000000 0.037445 0.000000 0.000000
# 5 0.000000 0.000000 0.000000 0.000000 0.039754 0.000000
# 6 0.000000 0.000000 0.000000 0.000000 0.000000 -0.058889
#
#
# Mechanical properties :
#
#
# Convention : Reuss Voigt Hill
#
# Bulk Modulus (GPa) = 34.88912 40.24019 37.56465
# Shear Modulus (GPa) = 41.22698 15.84646 28.53672
#
# Velocity S-wave (km/s) = 4.70867 2.91927 3.91751
# Velocity P-wave (km/s) = 6.95164 5.74489 6.37687
#
# Compressibility (1/GPa) = 0.02866223
#
# Stress axis : x y z
#
# Youngs Moduli (GPa) = 33.62737 60.39499 67.82570
#
# Poissons Ratio (x) = 0.55697 0.15720
# Poissons Ratio (y) = 0.31012 0.31529
# Poissons Ratio (z) = 0.07794 0.28075
#
# Static dielectric constant tensor:
#      x y z
#    x 3.375470 0.000000 0.000000 
#    y 0.000000 3.438780 0.000000 
#    z 0.000000 0.000000 3.868060 
# 
# 
# High freq. dielectric constant tensor:
#      x y z
#    x 1.727040 0.000000 0.000000 
#    y 0.000000 1.710700 0.000000 
#    z 0.000000 0.000000 1.734180 
# 
# From -- ./inp_files/18066.got.cif
#   From: 2010.03.12/outbox.cif.g09.slc.cpg/sg64_10_cif.got.tgz:18066.got - 2010.04.10 20:19:32.
