data_PCOD8264348
_publ_section_title
;
Structure prediction by ZEFSAII (Michael W. Deem and Ramdas Pophale) SiO2 
 PCOD8264348
Probable space group: C M C A
;
_chemical_formula_sum "Si O2"
_cell_formula_units_Z 72
_cell_length_a 18.900884
_cell_length_b 8.722147
_cell_length_c 19.455614
_cell_angle_alpha 90.000000
_cell_angle_beta 90.000000
_cell_angle_gamma 90.000000
_cell_volume 3207.380318
_symmetry_space_group_name_H-M "C M C A"
_symmetry_group_IT_number 64
_symmetry_cell_setting 'orthorhombic'
loop_
_space_group_symop_operation_xyz
x,y,z
-x,1/2-y,1/2+z
x,-y,-z
-x,1/2+y,1/2-z
-x,-y,-z
x,1/2+y,1/2-z
-x,y,z
x,1/2-y,1/2+z
1/2+x,1/2+y,z
1/2-x,-y,1/2+z
1/2+x,1/2-y,-z
1/2-x,y,1/2-z
1/2-x,1/2-y,-z
1/2+x,y,1/2-z
1/2-x,1/2+y,z
1/2+x,-y,1/2+z
loop_
_atom_site_type_symbol
_atom_site_label
_atom_site_fract_x
_atom_site_fract_y
_atom_site_fract_z
Si Si1 0.309341 0.669621 0.871070
Si Si2 0.647757 0.000000 0.500000
Si Si3 0.827617 0.011527 0.652519
Si Si4 0.918605 0.997416 0.787755
Si Si5 0.420779 0.241991 0.403415
O O1 0.243013 0.605969 0.826737
O O2 0.383218 0.630340 0.833796
O O3 0.303587 0.851346 0.880893
O O4 0.303490 0.588871 0.945445
O O5 0.598064 0.123875 0.463225
O O6 0.876393 0.976965 0.717667
O O7 0.870446 0.109714 0.595915
O O8 0.000000 0.044580 0.773617
O O9 0.913803 0.836857 0.828343
O O10 0.500000 0.299347 0.416450
#
# Coordination Sequence:
#
# PCOD8264348 Si02
#       5
#    16   8  16  16  16
#     4  11  25  41  65  93 126 169 211 258 313 374
#     4  10  23  46  66  88 125 166 210 262 317 372
#     4  12  24  40  63  94 127 164 211 259 313 373
#     4  10  22  42  66  95 130 163 202 258 320 375
#     4  10  22  41  67  95 127 167 209 258 313 374
#
# _framework density 22.448226999999999
#
# number of rings (size 3 to 8) (size 9 to 14) (size 15 to 20)
#    0.000    1.333    0.000    5.667    0.000   10.667 
#    0.000    1.111    0.000    0.000    0.000    0.000 
#    0.000    0.000    0.000    0.000    0.000    0.000 
#
# Total GULP energy -446554.543624 kJ/mol
# GULP energy per Si atom -12404.292878 kJ/mol
# Density = 2.239713 g / cm^3
# Si number density = 22.448227 Si / 1000 Ang^3
#
#
#
# Elastic Constant Matrix: (Units=GPa)
#
#
# Indices 1 2 3 4 5 6 
#
# 1 164.1196 64.6663 38.7224 0.0000 0.0000 0.0000
# 2 64.6663 161.4305 31.3457 0.0000 0.0000 0.0000
# 3 38.7224 31.3457 93.5382 0.0000 0.0000 0.0000
# 4 0.0000 0.0000 0.0000 20.0364 0.0000 0.0000
# 5 0.0000 0.0000 0.0000 0.0000 23.9656 0.0000
# 6 0.0000 0.0000 0.0000 0.0000 0.0000 37.9221
#
#
#
# Elastic Compliance Matrix: (Units=1/GPa)
#
#
# Indices 1 2 3 4 5 6 
#
# 1 0.007670 -0.002627 -0.002295 0.000000 0.000000 0.000000
# 2 -0.002627 0.007525 -0.001434 0.000000 0.000000 0.000000
# 3 -0.002295 -0.001434 0.012121 0.000000 0.000000 0.000000
# 4 0.000000 0.000000 0.000000 0.049909 0.000000 0.000000
# 5 0.000000 0.000000 0.000000 0.000000 0.041727 0.000000
# 6 0.000000 0.000000 0.000000 0.000000 0.000000 0.026370
#
#
# Mechanical properties :
#
#
# Convention : Reuss Voigt Hill
#
# Bulk Modulus (GPa) = 68.47168 76.50635 72.48901
# Shear Modulus (GPa) = 30.69334 35.34174 33.01754
#
# Velocity S-wave (km/s) = 3.70171 3.97213 3.83930
# Velocity P-wave (km/s) = 6.98845 7.42916 7.21217
#
# Compressibility (1/GPa) = 0.01460458
#
# Stress axis : x y z
#
# Youngs Moduli (GPa) = 130.38646 132.88401 82.49817
#
# Poissons Ratio (x) = 0.34905 0.18931
# Poissons Ratio (y) = 0.34249 0.11834
# Poissons Ratio (z) = 0.29920 0.19062
#
# Static dielectric constant tensor:
#      x y z
#    x 4.127430 0.000000 0.000000 
#    y 0.000000 4.030670 0.000000 
#    z 0.000000 0.000000 3.913630 
# 
# 
# High freq. dielectric constant tensor:
#      x y z
#    x 1.895490 0.000000 0.000000 
#    y 0.000000 1.887550 0.000000 
#    z 0.000000 0.000000 1.872250 
# 
# From -- ./inp_files/45607.got.cif
#   From: 2010.03.12/outbox.cif.g09.slc.cpg/sg64_23_cif.got.tgz:45607.got - 2010.04.10 20:19:32.
