data_PCOD8264290
_publ_section_title
;
Structure prediction by ZEFSAII (Michael W. Deem and Ramdas Pophale) SiO2 
 PCOD8264290
Probable space group: C M C A
;
_chemical_formula_sum "Si O2"
_cell_formula_units_Z 72
_cell_length_a 21.953932
_cell_length_b 11.593125
_cell_length_c 14.483463
_cell_angle_alpha 90.000000
_cell_angle_beta 90.000000
_cell_angle_gamma 90.000000
_cell_volume 3686.253921
_symmetry_space_group_name_H-M "C M C A"
_symmetry_group_IT_number 64
_symmetry_cell_setting 'orthorhombic'
loop_
_space_group_symop_operation_xyz
x,y,z
-x,1/2-y,1/2+z
x,-y,-z
-x,1/2+y,1/2-z
-x,-y,-z
x,1/2+y,1/2-z
-x,y,z
x,1/2-y,1/2+z
1/2+x,1/2+y,z
1/2-x,-y,1/2+z
1/2+x,1/2-y,-z
1/2-x,y,1/2-z
1/2-x,1/2-y,-z
1/2+x,y,1/2-z
1/2-x,1/2+y,z
1/2+x,-y,1/2+z
loop_
_atom_site_type_symbol
_atom_site_label
_atom_site_fract_x
_atom_site_fract_y
_atom_site_fract_z
Si Si1 0.136805 0.752745 0.683712
Si Si2 0.071430 0.297854 0.135250
Si Si3 0.250000 0.882298 0.250000
Si Si4 0.836599 0.999879 0.606188
Si Si5 0.070924 0.624159 0.528629
O O1 0.098045 0.769141 0.776693
O O2 0.203336 0.703114 0.701303
O O3 0.141161 0.873307 0.632030
O O4 0.102695 0.658730 0.622750
O O5 0.104986 0.418747 0.119499
O O6 0.000000 0.322211 0.147378
O O7 0.085782 0.216654 0.049406
O O8 0.218765 0.962110 0.327714
O O9 0.814065 0.000000 0.500000
O O10 0.097364 0.500000 0.500000
O O11 0.000000 0.614853 0.549458
#
# Coordination Sequence:
#
# PCOD8264290 Si02
#       5
#    16  16   8  16  16
#     4  11  23  43  63  90 125 166 207 258 311 368
#     4  10  23  40  63  95 127 163 205 252 312 377
#     4  10  26  42  62  92 124 164 216 256 312 374
#     4  11  23  44  66  94 124 163 213 264 312 365
#     4  10  22  40  63  93 125 162 202 246 311 380
#
# _framework density 19.532024
#
# number of rings (size 3 to 8) (size 9 to 14) (size 15 to 20)
#    0.000    1.556    2.222    1.333    6.222    4.000 
#    0.000    0.000    0.000    0.000    0.000    0.000 
#    0.000    0.000    0.000    0.000    0.000    0.000 
#
# Total GULP energy -446578.427566 kJ/mol
# GULP energy per Si atom -12404.956321 kJ/mol
# Density = 1.948757 g / cm^3
# Si number density = 19.532024 Si / 1000 Ang^3
#
#
#
# Elastic Constant Matrix: (Units=GPa)
#
#
# Indices 1 2 3 4 5 6 
#
# 1 78.3947 26.1957 46.0879 0.0000 0.0000 0.0000
# 2 26.1957 104.2203 22.3394 0.0000 0.0000 0.0000
# 3 46.0879 22.3394 90.2214 0.0000 0.0000 0.0000
# 4 0.0000 0.0000 0.0000 94.0055 0.0000 0.0000
# 5 0.0000 0.0000 0.0000 0.0000 51.3115 0.0000
# 6 0.0000 0.0000 0.0000 0.0000 0.0000 26.4753
#
#
#
# Elastic Compliance Matrix: (Units=1/GPa)
#
#
# Indices 1 2 3 4 5 6 
#
# 1 0.018998 -0.002846 -0.009000 0.000000 0.000000 0.000000
# 2 -0.002846 0.010559 -0.001161 0.000000 0.000000 0.000000
# 3 -0.009000 -0.001161 0.015969 0.000000 0.000000 0.000000
# 4 0.000000 0.000000 0.000000 0.010638 0.000000 0.000000
# 5 0.000000 0.000000 0.000000 0.000000 0.019489 0.000000
# 6 0.000000 0.000000 0.000000 0.000000 0.000000 0.037771
#
#
# Mechanical properties :
#
#
# Convention : Reuss Voigt Hill
#
# Bulk Modulus (GPa) = 51.24939 51.34247 51.29593
# Shear Modulus (GPa) = 34.26031 46.23935 40.24983
#
# Velocity S-wave (km/s) = 4.19269 4.87083 4.54443
# Velocity P-wave (km/s) = 7.05222 7.61424 7.33861
#
# Compressibility (1/GPa) = 0.01951243
#
# Stress axis : x y z
#
# Youngs Moduli (GPa) = 52.63685 94.70419 62.62217
#
# Poissons Ratio (x) = 0.26953 0.56361
# Poissons Ratio (y) = 0.14980 0.07269
# Poissons Ratio (z) = 0.47374 0.10992
#
# Static dielectric constant tensor:
#      x y z
#    x 3.529750 0.000000 0.000000 
#    y 0.000000 3.594950 0.000000 
#    z 0.000000 0.000000 3.769060 
# 
# 
# High freq. dielectric constant tensor:
#      x y z
#    x 1.763100 0.000000 0.000000 
#    y 0.000000 1.771740 0.000000 
#    z 0.000000 0.000000 1.778670 
# 
# From -- ./inp_files/27011.got.cif
#   From: 2010.03.12/outbox.cif.g09.slc.cpg/sg64_14_cif.got.tgz:27011.got - 2010.04.10 20:19:32.
