data_PCOD8264522
_publ_section_title
;
Structure prediction by ZEFSAII (Michael W. Deem and Ramdas Pophale) SiO2 
 PCOD8264522
Probable space group: C M C A
;
_chemical_formula_sum "Si O2"
_cell_formula_units_Z 96
_cell_length_a 10.709614
_cell_length_b 20.083114
_cell_length_c 21.067504
_cell_angle_alpha 90.000000
_cell_angle_beta 90.000000
_cell_angle_gamma 90.000000
_cell_volume 4531.249298
_symmetry_space_group_name_H-M "C M C A"
_symmetry_group_IT_number 64
_symmetry_cell_setting 'orthorhombic'
loop_
_space_group_symop_operation_xyz
x,y,z
-x,1/2-y,1/2+z
x,-y,-z
-x,1/2+y,1/2-z
-x,-y,-z
x,1/2+y,1/2-z
-x,y,z
x,1/2-y,1/2+z
1/2+x,1/2+y,z
1/2-x,-y,1/2+z
1/2+x,1/2-y,-z
1/2-x,y,1/2-z
1/2-x,1/2-y,-z
1/2+x,y,1/2-z
1/2-x,1/2+y,z
1/2+x,-y,1/2+z
loop_
_atom_site_type_symbol
_atom_site_label
_atom_site_fract_x
_atom_site_fract_y
_atom_site_fract_z
Si Si1 0.643839 0.305652 0.994514
Si Si2 0.359111 0.373002 0.121228
Si Si3 0.283202 0.863083 0.891446
Si Si4 0.000000 0.904349 0.524886
Si Si5 0.500000 0.461656 0.396067
Si Si6 0.855030 0.248835 0.800247
Si Si7 0.260397 0.996140 0.174402
O O1 0.500000 0.279013 0.001946
O O2 0.677112 0.361622 0.047740
O O3 0.750000 0.250000 0.000000
O O4 0.654690 0.338356 0.924143
O O5 0.500000 0.352044 0.128798
O O6 0.297325 0.318454 0.168198
O O7 0.344863 0.449469 0.143310
O O8 0.373862 0.870514 0.951792
O O9 0.353568 0.809472 0.849165
O O10 0.253531 0.929302 0.851662
O O11 0.000000 0.901791 0.447487
O O12 0.000000 0.975703 0.558415
O O13 0.614897 0.458735 0.347924
O O14 0.750000 0.269210 0.750000
O O15 0.000000 0.243043 0.774621
O O16 0.250000 0.997829 0.250000
#
# Coordination Sequence:
#
# PCOD8264522 Si02
#       7
#    16  16  16   8   8  16  16
#     4  11  24  43  70 103 136 174 229 287 350 412
#     4  10  23  44  67  94 133 181 219 279 354 399
#     4  11  22  41  69  99 133 177 225 287 352 400
#     4   9  18  36  68  93 129 165 223 291 334 405
#     4   9  20  38  60  97 123 176 230 264 343 400
#     4  11  23  43  67  95 134 184 233 283 346 420
#     4  11  24  42  63  97 136 181 226 276 338 414
#
# _framework density 21.186211
#
# number of rings (size 3 to 8) (size 9 to 14) (size 15 to 20)
#    0.000    1.500    2.500    2.000    2.333    3.333 
#    3.000    1.667    0.000    0.000    0.000    0.000 
#    0.000    0.000    0.000    0.000    0.000    0.000 
#
# Total GULP energy -594646.837033 kJ/mol
# GULP energy per Si atom -12388.475772 kJ/mol
# Density = 2.113799 g / cm^3
# Si number density = 21.186211 Si / 1000 Ang^3
#
#
#
# Elastic Constant Matrix: (Units=GPa)
#
#
# Indices 1 2 3 4 5 6 
#
# 1 98.5211 24.8391 60.3800 0.0000 0.0000 0.0000
# 2 24.8391 90.2421 26.4724 0.0000 0.0000 0.0000
# 3 60.3800 26.4724 131.9337 0.0000 0.0000 0.0000
# 4 0.0000 0.0000 0.0000 39.5514 0.0000 0.0000
# 5 0.0000 0.0000 0.0000 0.0000 89.9554 0.0000
# 6 0.0000 0.0000 0.0000 0.0000 0.0000 29.3724
#
#
#
# Elastic Compliance Matrix: (Units=1/GPa)
#
#
# Indices 1 2 3 4 5 6 
#
# 1 0.014497 -0.002172 -0.006199 0.000000 0.000000 0.000000
# 2 -0.002172 0.012100 -0.001434 0.000000 0.000000 0.000000
# 3 -0.006199 -0.001434 0.010704 0.000000 0.000000 0.000000
# 4 0.000000 0.000000 0.000000 0.025284 0.000000 0.000000
# 5 0.000000 0.000000 0.000000 0.000000 0.011117 0.000000
# 6 0.000000 0.000000 0.000000 0.000000 0.000000 0.034046
#
#
# Mechanical properties :
#
#
# Convention : Reuss Voigt Hill
#
# Bulk Modulus (GPa) = 56.52348 60.45332 58.48840
# Shear Modulus (GPa) = 37.52285 45.70953 41.61619
#
# Velocity S-wave (km/s) = 4.21301 4.64994 4.43686
# Velocity P-wave (km/s) = 7.09952 7.57796 7.34264
#
# Compressibility (1/GPa) = 0.01769176
#
# Stress axis : x y z
#
# Youngs Moduli (GPa) = 68.98163 82.64661 93.42201
#
# Poissons Ratio (x) = 0.17949 0.57909
# Poissons Ratio (y) = 0.14982 0.13395
# Poissons Ratio (z) = 0.42759 0.11850
#
# Static dielectric constant tensor:
#      x y z
#    x 4.034250 0.000000 0.000000 
#    y 0.000000 3.799170 0.000000 
#    z 0.000000 0.000000 4.044930 
# 
# 
# High freq. dielectric constant tensor:
#      x y z
#    x 1.827840 0.000000 0.000000 
#    y 0.000000 1.830850 0.000000 
#    z 0.000000 0.000000 1.836100 
# 
# From -- ./inp_files/38330.got.cif
#   From: 2010.03.12/outbox.cif.g09.slc.cpg/sg64_20_cif.got.tgz:38330.got - 2010.04.10 20:19:32.
