data_PCOD8264015
_publ_section_title
;
Structure prediction by ZEFSAII (Michael W. Deem and Ramdas Pophale) SiO2 
 PCOD8264015
Probable space group: C M C A
;
_chemical_formula_sum "Si O2"
_cell_formula_units_Z 56
_cell_length_a 30.642711
_cell_length_b 5.335129
_cell_length_c 13.084399
_cell_angle_alpha 90.000000
_cell_angle_beta 90.000000
_cell_angle_gamma 90.000000
_cell_volume 2139.074395
_symmetry_space_group_name_H-M "C M C A"
_symmetry_group_IT_number 64
_symmetry_cell_setting 'orthorhombic'
loop_
_space_group_symop_operation_xyz
x,y,z
-x,1/2-y,1/2+z
x,-y,-z
-x,1/2+y,1/2-z
-x,-y,-z
x,1/2+y,1/2-z
-x,y,z
x,1/2-y,1/2+z
1/2+x,1/2+y,z
1/2-x,-y,1/2+z
1/2+x,1/2-y,-z
1/2-x,y,1/2-z
1/2-x,1/2-y,-z
1/2+x,y,1/2-z
1/2-x,1/2+y,z
1/2+x,-y,1/2+z
loop_
_atom_site_type_symbol
_atom_site_label
_atom_site_fract_x
_atom_site_fract_y
_atom_site_fract_z
Si Si1 0.906085 0.260684 0.889411
Si Si2 0.630790 0.761030 0.617082
Si Si3 0.000000 0.797191 0.682802
Si Si4 0.232346 0.847768 0.864946
O O1 0.885873 0.502804 0.830574
O O2 0.958348 0.280101 0.891713
O O3 0.891607 0.005415 0.830980
O O4 0.885137 0.249727 0.000777
O O5 0.682167 0.777170 0.630224
O O6 0.000000 0.565254 0.761094
O O7 0.250000 0.894544 0.750000
O O8 0.259197 0.619022 0.919161
#
# Coordination Sequence:
#
# PCOD8264015 Si02
#       4
#    16  16   8  16
#     4  10  23  43  68  99 132 176 225 284 331 414
#     4  10  21  42  69 101 130 179 230 272 337 397
#     4  12  26  48  66 104 138 174 224 278 358 406
#     4  10  21  40  61  97 139 179 220 277 331 397
#
# _framework density 26.179546999999999
#
# number of rings (size 3 to 8) (size 9 to 14) (size 15 to 20)
#    0.000    1.714    0.000    3.429    0.000    4.571 
#   30.857   17.143    0.000    0.000    0.000    0.000 
#    0.000    0.000    0.000    0.000    0.000    0.000 
#
# Total GULP energy -346968.760652 kJ/mol
# GULP energy per Si atom -12391.741452 kJ/mol
# Density = 2.611996 g / cm^3
# Si number density = 26.179547 Si / 1000 Ang^3
#
#
#
# Elastic Constant Matrix: (Units=GPa)
#
#
# Indices 1 2 3 4 5 6 
#
# 1 253.6148 74.2476 23.2988 0.0000 0.0000 0.0000
# 2 74.2476 317.8721 -17.5761 0.0000 0.0000 0.0000
# 3 23.2988 -17.5761 79.3167 0.0000 0.0000 0.0000
# 4 0.0000 0.0000 0.0000 -39.8184 0.0000 0.0000
# 5 0.0000 0.0000 0.0000 0.0000 48.3688 0.0000
# 6 0.0000 0.0000 0.0000 0.0000 0.0000 52.2422
#
#
#
# Elastic Compliance Matrix: (Units=1/GPa)
#
#
# Indices 1 2 3 4 5 6 
#
# 1 0.004411 -0.001116 -0.001543 0.000000 0.000000 0.000000
# 2 -0.001116 0.003467 0.001096 0.000000 0.000000 0.000000
# 3 -0.001543 0.001096 0.013304 0.000000 0.000000 0.000000
# 4 0.000000 0.000000 0.000000 -0.025114 0.000000 0.000000
# 5 0.000000 0.000000 0.000000 0.000000 0.020674 0.000000
# 6 0.000000 0.000000 0.000000 0.000000 0.000000 0.019142
#
#
# Mechanical properties :
#
#
# Convention : Reuss Voigt Hill
#
# Bulk Modulus (GPa) = 55.38064 90.08269 72.73166
# Shear Modulus (GPa) = 111.03990 50.21406 80.62698
#
# Velocity S-wave (km/s) = 6.51973 4.38432 5.55559
# Velocity P-wave (km/s) = 8.82473 7.75332 8.30632
#
# Compressibility (1/GPa) = 0.01805685
#
# Stress axis : x y z
#
# Youngs Moduli (GPa) = 226.68657 288.42313 75.16638
#
# Poissons Ratio (x) = 0.32180 0.11599
# Poissons Ratio (y) = 0.25292 -0.08238
# Poissons Ratio (z) = 0.34979 -0.31612
#
# Static dielectric constant tensor:
#      x y z
#    x 4.542430 0.000000 0.000000 
#    y 0.000000 42.817880 0.000000 
#    z 0.000000 0.000000 4.280600 
# 
# 
# High freq. dielectric constant tensor:
#      x y z
#    x 2.041230 0.000000 0.000000 
#    y 0.000000 2.100980 0.000000 
#    z 0.000000 0.000000 2.057040 
# 
# From -- ./inp_files/28224.got.cif
#   From: 2010.03.12/outbox.cif.g09.slc.cpg/sg64_15_cif.got.tgz:28224.got - 2010.04.10 20:19:32.
