data_PCOD8264767
_publ_section_title
;
Structure prediction by ZEFSAII (Michael W. Deem and Ramdas Pophale) SiO2 
 PCOD8264767
Probable space group: C M C A
;
_chemical_formula_sum "Si O2"
_cell_formula_units_Z 64
_cell_length_a 20.832719
_cell_length_b 31.079421
_cell_length_c 5.049623
_cell_angle_alpha 90.000000
_cell_angle_beta 90.000000
_cell_angle_gamma 90.000000
_cell_volume 3269.473568
_symmetry_space_group_name_H-M "C M C A"
_symmetry_group_IT_number 64
_symmetry_cell_setting 'orthorhombic'
loop_
_space_group_symop_operation_xyz
x,y,z
-x,1/2-y,1/2+z
x,-y,-z
-x,1/2+y,1/2-z
-x,-y,-z
x,1/2+y,1/2-z
-x,y,z
x,1/2-y,1/2+z
1/2+x,1/2+y,z
1/2-x,-y,1/2+z
1/2+x,1/2-y,-z
1/2-x,y,1/2-z
1/2-x,1/2-y,-z
1/2+x,y,1/2-z
1/2-x,1/2+y,z
1/2+x,-y,1/2+z
loop_
_atom_site_type_symbol
_atom_site_label
_atom_site_fract_x
_atom_site_fract_y
_atom_site_fract_z
Si Si1 0.174820 0.127382 0.186430
Si Si2 0.630489 0.921915 0.176717
Si Si3 0.673745 0.274866 0.760286
Si Si4 0.287371 0.000000 0.000000
Si Si5 0.500000 0.968830 0.250246
O O1 0.250000 0.123172 0.250000
O O2 0.130774 0.103114 0.399568
O O3 0.151271 0.176598 0.187231
O O4 0.162144 0.108101 0.898043
O O5 0.671857 0.964624 0.150380
O O6 0.559631 0.936436 0.255636
O O7 0.645897 0.256482 0.486653
O O8 0.750000 0.273090 0.750000
O O9 0.250000 0.978353 0.750000
O O10 0.500000 0.000000 0.500000
O O11 0.500000 0.000000 0.000000
#
# Coordination Sequence:
#
# PCOD8264767 Si02
#       5
#    16  16  16   8   8
#     4  11  22  37  58  92 124 148 187 241 294 351
#     4  12  24  40  59  83 114 156 197 244 289 331
#     4   9  17  31  53  82 119 155 182 217 280 355
#     4  12  24  37  58  85 118 150 186 232 302 362
#     4  12  26  46  62  78 108 156 212 252 272 334
#
# _framework density 19.575016999999999
#
# number of rings (size 3 to 8) (size 9 to 14) (size 15 to 20)
#    0.000    1.000    1.250    7.500    1.750    4.000 
#    0.000    0.000    0.000    0.000    0.000   17.500 
#    0.000    0.000    0.000    0.000    0.000    0.000 
#
# Total GULP energy -396841.063755 kJ/mol
# GULP energy per Si atom -12401.283242 kJ/mol
# Density = 1.953046 g / cm^3
# Si number density = 19.575017 Si / 1000 Ang^3
#
#
#
# Elastic Constant Matrix: (Units=GPa)
#
#
# Indices 1 2 3 4 5 6 
#
# 1 75.0459 25.2847 10.2277 0.0000 0.0000 0.0000
# 2 25.2847 133.6832 39.1137 0.0000 0.0000 0.0000
# 3 10.2277 39.1137 116.1554 0.0000 0.0000 0.0000
# 4 0.0000 0.0000 0.0000 45.9154 0.0000 0.0000
# 5 0.0000 0.0000 0.0000 0.0000 26.1787 0.0000
# 6 0.0000 0.0000 0.0000 0.0000 0.0000 26.7030
#
#
#
# Elastic Compliance Matrix: (Units=1/GPa)
#
#
# Indices 1 2 3 4 5 6 
#
# 1 0.014248 -0.002582 -0.000385 0.000000 0.000000 0.000000
# 2 -0.002582 0.008766 -0.002724 0.000000 0.000000 0.000000
# 3 -0.000385 -0.002724 0.009560 0.000000 0.000000 0.000000
# 4 0.000000 0.000000 0.000000 0.021779 0.000000 0.000000
# 5 0.000000 0.000000 0.000000 0.000000 0.038199 0.000000
# 6 0.000000 0.000000 0.000000 0.000000 0.000000 0.037449
#
#
# Mechanical properties :
#
#
# Convention : Reuss Voigt Hill
#
# Bulk Modulus (GPa) = 47.19027 52.68185 49.93606
# Shear Modulus (GPa) = 33.68186 36.44332 35.06259
#
# Velocity S-wave (km/s) = 4.15258 4.31945 4.23684
# Velocity P-wave (km/s) = 6.86670 7.20056 7.03561
#
# Compressibility (1/GPa) = 0.02119081
#
# Stress axis : x y z
#
# Youngs Moduli (GPa) = 70.18708 114.07867 104.59729
#
# Poissons Ratio (x) = 0.29457 0.04027
# Poissons Ratio (y) = 0.18123 0.28497
# Poissons Ratio (z) = 0.02702 0.31080
#
# Static dielectric constant tensor:
#      x y z
#    x 3.248740 0.000000 0.000000 
#    y 0.000000 3.781700 0.000000 
#    z 0.000000 0.000000 3.991280 
# 
# 
# High freq. dielectric constant tensor:
#      x y z
#    x 1.714430 0.000000 0.000000 
#    y 0.000000 1.777360 0.000000 
#    z 0.000000 0.000000 1.789100 
# 
# From -- ./inp_files/1368.got.cif
#   From: 2010.03.12/outbox.cif.g09.slc.cpg/sg64_1_cif.got.tgz:1368.got - 2010.04.10 20:19:32.
