data_PCOD8264622
_publ_section_title
;
Structure prediction by ZEFSAII (Michael W. Deem and Ramdas Pophale) SiO2 
 PCOD8264622
Probable space group: C M C A
;
_chemical_formula_sum "Si O2"
_cell_formula_units_Z 64
_cell_length_a 31.076643
_cell_length_b 9.735866
_cell_length_c 8.094108
_cell_angle_alpha 90.000000
_cell_angle_beta 90.000000
_cell_angle_gamma 90.000000
_cell_volume 2448.937387
_symmetry_space_group_name_H-M "C M C A"
_symmetry_group_IT_number 64
_symmetry_cell_setting 'orthorhombic'
loop_
_space_group_symop_operation_xyz
x,y,z
-x,1/2-y,1/2+z
x,-y,-z
-x,1/2+y,1/2-z
-x,-y,-z
x,1/2+y,1/2-z
-x,y,z
x,1/2-y,1/2+z
1/2+x,1/2+y,z
1/2-x,-y,1/2+z
1/2+x,1/2-y,-z
1/2-x,y,1/2-z
1/2-x,1/2-y,-z
1/2+x,y,1/2-z
1/2-x,1/2+y,z
1/2+x,-y,1/2+z
loop_
_atom_site_type_symbol
_atom_site_label
_atom_site_fract_x
_atom_site_fract_y
_atom_site_fract_z
Si Si1 0.951300 0.089329 0.335316
Si Si2 0.340728 0.698186 0.103905
Si Si3 0.898658 0.864301 0.176771
Si Si4 0.286169 0.126859 0.116565
O O1 0.931379 0.239322 0.360274
O O2 0.000000 0.109162 0.272252
O O3 0.950202 0.000000 0.500000
O O4 0.924374 0.005953 0.199067
O O5 0.368395 0.829769 0.165158
O O6 0.328403 0.605189 0.264943
O O7 0.368826 0.608084 0.981274
O O8 0.297095 0.747161 0.006857
O O9 0.250000 0.163967 0.250000
O O10 0.274333 0.000000 0.000000
#
# Coordination Sequence:
#
# PCOD8264622 Si02
#       4
#    16  16  16  16
#     4  11  24  45  71 109 156 199 254 317 380 449
#     4  10  25  45  75 100 151 189 250 309 371 447
#     4  11  23  45  73 109 146 204 254 310 373 445
#     4  11  26  49  74 109 145 194 244 309 381 455
#
# _framework density 26.133782
#
# number of rings (size 3 to 8) (size 9 to 14) (size 15 to 20)
#    0.000    1.250    2.500    1.500    7.000    6.000 
#    4.500    1.250    0.000    0.000    0.000    0.000 
#    0.000    0.000    0.000    0.000    0.000    0.000 
#
# Total GULP energy -396695.065796 kJ/mol
# GULP energy per Si atom -12396.720806 kJ/mol
# Density = 2.607430 g / cm^3
# Si number density = 26.133782 Si / 1000 Ang^3
#
#
#
# Elastic Constant Matrix: (Units=GPa)
#
#
# Indices 1 2 3 4 5 6 
#
# 1 102.6919 25.4229 42.8515 0.0000 0.0000 0.0000
# 2 25.4229 100.6254 16.8567 0.0000 0.0000 0.0000
# 3 42.8515 16.8567 136.3997 0.0000 0.0000 0.0000
# 4 0.0000 0.0000 0.0000 33.0909 0.0000 0.0000
# 5 0.0000 0.0000 0.0000 0.0000 42.2985 0.0000
# 6 0.0000 0.0000 0.0000 0.0000 0.0000 19.4651
#
#
#
# Elastic Compliance Matrix: (Units=1/GPa)
#
#
# Indices 1 2 3 4 5 6 
#
# 1 0.011748 -0.002400 -0.003394 0.000000 0.000000 0.000000
# 2 -0.002400 0.010638 -0.000561 0.000000 0.000000 0.000000
# 3 -0.003394 -0.000561 0.008467 0.000000 0.000000 0.000000
# 4 0.000000 0.000000 0.000000 0.030220 0.000000 0.000000
# 5 0.000000 0.000000 0.000000 0.000000 0.023642 0.000000
# 6 0.000000 0.000000 0.000000 0.000000 0.000000 0.051374
#
#
# Mechanical properties :
#
#
# Convention : Reuss Voigt Hill
#
# Bulk Modulus (GPa) = 55.11472 56.66434 55.88953
# Shear Modulus (GPa) = 32.29012 35.94329 34.11670
#
# Velocity S-wave (km/s) = 3.51888 3.71260 3.61704
# Velocity P-wave (km/s) = 6.13557 6.33304 6.23509
#
# Compressibility (1/GPa) = 0.01814397
#
# Stress axis : x y z
#
# Youngs Moduli (GPa) = 85.11872 94.00215 118.10467
#
# Poissons Ratio (x) = 0.22557 0.40088
# Poissons Ratio (y) = 0.20425 0.06624
# Poissons Ratio (z) = 0.28892 0.05272
#
# Static dielectric constant tensor:
#      x y z
#    x 5.106910 0.000000 0.000000 
#    y 0.000000 4.256950 0.000000 
#    z 0.000000 0.000000 5.146020 
# 
# 
# High freq. dielectric constant tensor:
#      x y z
#    x 2.060460 0.000000 0.000000 
#    y 0.000000 2.033100 0.000000 
#    z 0.000000 0.000000 2.067160 
# 
# From -- ./inp_files/10871.got.cif
#   From: 2010.03.12/outbox.cif.g09.slc.cpg/sg64_6_cif.got.tgz:10871.got - 2010.04.10 20:19:32.
