data_PCOD8264032
_publ_section_title
;
Structure prediction by ZEFSAII (Michael W. Deem and Ramdas Pophale) SiO2 
 PCOD8264032
Probable space group: C M C A
;
_chemical_formula_sum "Si O2"
_cell_formula_units_Z 88
_cell_length_a 14.291807
_cell_length_b 22.262845
_cell_length_c 14.533486
_cell_angle_alpha 90.000000
_cell_angle_beta 90.000000
_cell_angle_gamma 90.000000
_cell_volume 4624.210569
_symmetry_space_group_name_H-M "C M C A"
_symmetry_group_IT_number 64
_symmetry_cell_setting 'orthorhombic'
loop_
_space_group_symop_operation_xyz
x,y,z
-x,1/2-y,1/2+z
x,-y,-z
-x,1/2+y,1/2-z
-x,-y,-z
x,1/2+y,1/2-z
-x,y,z
x,1/2-y,1/2+z
1/2+x,1/2+y,z
1/2-x,-y,1/2+z
1/2+x,1/2-y,-z
1/2-x,y,1/2-z
1/2-x,1/2-y,-z
1/2+x,y,1/2-z
1/2-x,1/2+y,z
1/2+x,-y,1/2+z
loop_
_atom_site_type_symbol
_atom_site_label
_atom_site_fract_x
_atom_site_fract_y
_atom_site_fract_z
Si Si1 0.500000 0.867362 0.931565
Si Si2 0.139857 0.137745 0.585302
Si Si3 0.000000 0.445587 0.750000
Si Si4 0.000000 0.867362 0.931565
Si Si5 0.142983 0.549271 0.750000
Si Si6 0.860143 0.637745 0.585302
Si Si7 0.500000 0.263630 0.143728
Si Si8 0.500000 0.763630 0.143728
O O1 0.500000 0.903936 0.838633
O O2 0.500000 0.796319 0.915779
O O3 0.406831 0.883664 0.989782
O O4 0.116470 0.087091 0.660114
O O5 0.250000 0.147946 0.572115
O O6 0.093608 0.199548 0.619511
O O7 0.091086 0.486362 0.750000
O O8 0.000000 0.403937 0.661366
O O9 0.000000 0.796319 0.915779
O O10 0.093169 0.883664 0.989782
O O11 0.250000 0.531558 0.750000
O O12 0.116470 0.587091 0.660114
O O13 0.906392 0.699548 0.619511
O O14 0.500000 0.245853 0.250000
#
# Coordination Sequence:
#
# PCOD8264032 Si02
#       8
#     8  16   8   8  16  16   8   8
#     4  11  25  37  58  88 123 158 189 231 293 358
#     4  10  21  40  64  89 114 150 197 244 287 340
#     4  12  24  42  56  82 124 160 190 242 296 332
#     4  11  25  37  58  88 123 158 189 231 293 358
#     4  10  22  39  63  87 111 150 203 246 284 338
#     4  10  21  40  64  89 114 150 197 244 287 340
#     4  11  20  37  61  89 120 152 190 234 291 355
#     4  11  20  37  61  89 120 152 190 234 291 355
#
# _framework density 19.030275
#
# number of rings (size 3 to 8) (size 9 to 14) (size 15 to 20)
#    0.000    1.455    2.727    4.364    0.000    7.273 
#    0.000    3.636    0.000    0.000    0.000    0.000 
#    0.000    0.000    0.000    0.000    0.000    0.000 
#
# Total GULP energy -545705.287901 kJ/mol
# GULP energy per Si atom -12402.392907 kJ/mol
# Density = 1.898696 g / cm^3
# Si number density = 19.030275 Si / 1000 Ang^3
#
#
#
# Elastic Constant Matrix: (Units=GPa)
#
#
# Indices 1 2 3 4 5 6 
#
# 1 149.6614 57.2624 67.9018 0.0000 0.0000 0.0000
# 2 57.2624 120.5652 61.5177 0.0000 0.0000 0.0000
# 3 67.9018 61.5177 157.9670 0.0000 0.0000 0.0000
# 4 0.0000 0.0000 0.0000 109.2019 0.0000 0.0000
# 5 0.0000 0.0000 0.0000 0.0000 -41.9384 0.0000
# 6 0.0000 0.0000 0.0000 0.0000 0.0000 0.6231
#
#
#
# Elastic Compliance Matrix: (Units=1/GPa)
#
#
# Indices 1 2 3 4 5 6 
#
# 1 0.009038 -0.002883 -0.002762 0.000000 0.000000 0.000000
# 2 -0.002883 0.011271 -0.003150 0.000000 0.000000 0.000000
# 3 -0.002762 -0.003150 0.008744 0.000000 0.000000 0.000000
# 4 0.000000 0.000000 0.000000 0.009157 0.000000 0.000000
# 5 0.000000 0.000000 0.000000 0.000000 -0.023844 0.000000
# 6 0.000000 0.000000 0.000000 0.000000 0.000000 1.604789
#
#
# Mechanical properties :
#
#
# Convention : Reuss Voigt Hill
#
# Bulk Modulus (GPa) = 87.23906 89.06196 88.15051
# Shear Modulus (GPa) = 3.04773 29.67809 16.36291
#
# Velocity S-wave (km/s) = 1.26688 3.95336 2.93548
# Velocity P-wave (km/s) = 6.93410 8.23046 7.60994
#
# Compressibility (1/GPa) = 0.01146275
#
# Stress axis : x y z
#
# Youngs Moduli (GPa) = 110.64221 88.72405 114.35849
#
# Poissons Ratio (x) = 0.25582 0.31588
# Poissons Ratio (y) = 0.31901 0.36022
# Poissons Ratio (z) = 0.30561 0.27947
#
# Static dielectric constant tensor:
#      x y z
#    x 8.025140 0.000000 0.000000 
#    y 0.000000 3.343450 0.000000 
#    z 0.000000 0.000000 3.743420 
# 
# 
# High freq. dielectric constant tensor:
#      x y z
#    x 1.746060 0.000000 0.000000 
#    y 0.000000 1.732910 0.000000 
#    z 0.000000 0.000000 1.758830 
# 
# From -- ./inp_files/23830.got.cif
#   From: 2010.03.12/outbox.cif.g09.slc.cpg/sg64_12_cif.got.tgz:23830.got - 2010.04.10 20:19:32.
