data_PCOD8264897
_publ_section_title
;
Structure prediction by ZEFSAII (Michael W. Deem and Ramdas Pophale) SiO2 
 PCOD8264897
Probable space group: C M C A
;
_chemical_formula_sum "Si O2"
_cell_formula_units_Z 64
_cell_length_a 17.486168
_cell_length_b 10.132008
_cell_length_c 17.493998
_cell_angle_alpha 90.000000
_cell_angle_beta 90.000000
_cell_angle_gamma 90.000000
_cell_volume 3099.411522
_symmetry_space_group_name_H-M "C M C A"
_symmetry_group_IT_number 64
_symmetry_cell_setting 'orthorhombic'
loop_
_space_group_symop_operation_xyz
x,y,z
-x,1/2-y,1/2+z
x,-y,-z
-x,1/2+y,1/2-z
-x,-y,-z
x,1/2+y,1/2-z
-x,y,z
x,1/2-y,1/2+z
1/2+x,1/2+y,z
1/2-x,-y,1/2+z
1/2+x,1/2-y,-z
1/2-x,y,1/2-z
1/2-x,1/2-y,-z
1/2+x,y,1/2-z
1/2-x,1/2+y,z
1/2+x,-y,1/2+z
loop_
_atom_site_type_symbol
_atom_site_label
_atom_site_fract_x
_atom_site_fract_y
_atom_site_fract_z
Si Si1 0.417455 0.045739 0.086465
Si Si2 0.739333 0.373128 0.553133
Si Si3 0.326093 0.896596 0.703794
Si Si4 0.412805 0.131517 0.772047
O O1 0.500000 0.114176 0.106980
O O2 0.343508 0.140135 0.096267
O O3 0.405381 0.919539 0.140971
O O4 0.420844 0.000000 0.000000
O O5 0.741590 0.500000 0.500000
O O6 0.750000 0.250000 0.500000
O O7 0.807188 0.379537 0.614483
O O8 0.250000 0.929087 0.750000
O O9 0.365162 0.765488 0.737023
O O10 0.382074 0.021202 0.713278
O O11 0.500000 0.162952 0.750424
#
# Coordination Sequence:
#
# PCOD8264897 Si02
#       4
#    16  16  16  16
#     4   9  18  36  61  88 122 165 211 259 317 385
#     4  11  24  41  65  96 129 170 223 274 329 392
#     4  12  24  40  68  96 131 169 219 274 326 389
#     4  11  24  42  64  95 131 173 216 269 332 396
#
# _framework density 20.649080999999999
#
# number of rings (size 3 to 8) (size 9 to 14) (size 15 to 20)
#    0.000    1.250    2.500    4.500    3.500    0.000 
#    0.000    1.250    0.000    3.750    0.000    0.000 
#    0.000    0.000    0.000    0.000    0.000    0.000 
#
# Total GULP energy -396719.016453 kJ/mol
# GULP energy per Si atom -12397.469264 kJ/mol
# Density = 2.060208 g / cm^3
# Si number density = 20.649081 Si / 1000 Ang^3
#
#
#
# Elastic Constant Matrix: (Units=GPa)
#
#
# Indices 1 2 3 4 5 6 
#
# 1 121.4705 47.2615 24.2917 0.0000 0.0000 0.0000
# 2 47.2615 121.7147 21.8326 0.0000 0.0000 0.0000
# 3 24.2917 21.8326 82.8619 0.0000 0.0000 0.0000
# 4 0.0000 0.0000 0.0000 32.4858 0.0000 0.0000
# 5 0.0000 0.0000 0.0000 0.0000 25.5795 0.0000
# 6 0.0000 0.0000 0.0000 0.0000 0.0000 26.9073
#
#
#
# Elastic Compliance Matrix: (Units=1/GPa)
#
#
# Indices 1 2 3 4 5 6 
#
# 1 0.010005 -0.003525 -0.002004 0.000000 0.000000 0.000000
# 2 -0.003525 0.009866 -0.001566 0.000000 0.000000 0.000000
# 3 -0.002004 -0.001566 0.013068 0.000000 0.000000 0.000000
# 4 0.000000 0.000000 0.000000 0.030783 0.000000 0.000000
# 5 0.000000 0.000000 0.000000 0.000000 0.039094 0.000000
# 6 0.000000 0.000000 0.000000 0.000000 0.000000 0.037165
#
#
# Mechanical properties :
#
#
# Convention : Reuss Voigt Hill
#
# Bulk Modulus (GPa) = 53.33881 56.97985 55.15933
# Shear Modulus (GPa) = 31.16808 32.50526 31.83667
#
# Velocity S-wave (km/s) = 3.88934 3.97189 3.93083
# Velocity P-wave (km/s) = 6.78649 6.97774 6.88278
#
# Compressibility (1/GPa) = 0.01874808
#
# Stress axis : x y z
#
# Youngs Moduli (GPa) = 99.95113 101.36109 76.52043
#
# Poissons Ratio (x) = 0.35734 0.15336
# Poissons Ratio (y) = 0.35237 0.11983
# Poissons Ratio (z) = 0.20032 0.15873
#
# Static dielectric constant tensor:
#      x y z
#    x 4.774250 0.000000 0.000000 
#    y 0.000000 3.432600 0.000000 
#    z 0.000000 0.000000 3.896930 
# 
# 
# High freq. dielectric constant tensor:
#      x y z
#    x 1.828850 0.000000 0.000000 
#    y 0.000000 1.785540 0.000000 
#    z 0.000000 0.000000 1.817850 
# 
# From -- ./inp_files/31651.got.cif
#   From: 2010.03.12/outbox.cif.g09.slc.cpg/sg64_16_cif.got.tgz:31651.got - 2010.04.10 20:19:32.
