data_PCOD8264490
_publ_section_title
;
Structure prediction by ZEFSAII (Michael W. Deem and Ramdas Pophale) SiO2 
 PCOD8264490
Probable space group: C M C A
;
_chemical_formula_sum "Si O2"
_cell_formula_units_Z 88
_cell_length_a 14.761888
_cell_length_b 12.267893
_cell_length_c 21.495873
_cell_angle_alpha 90.000000
_cell_angle_beta 90.000000
_cell_angle_gamma 90.000000
_cell_volume 3892.843755
_symmetry_space_group_name_H-M "C M C A"
_symmetry_group_IT_number 64
_symmetry_cell_setting 'orthorhombic'
loop_
_space_group_symop_operation_xyz
x,y,z
-x,1/2-y,1/2+z
x,-y,-z
-x,1/2+y,1/2-z
-x,-y,-z
x,1/2+y,1/2-z
-x,y,z
x,1/2-y,1/2+z
1/2+x,1/2+y,z
1/2-x,-y,1/2+z
1/2+x,1/2-y,-z
1/2-x,y,1/2-z
1/2-x,1/2-y,-z
1/2+x,y,1/2-z
1/2-x,1/2+y,z
1/2+x,-y,1/2+z
loop_
_atom_site_type_symbol
_atom_site_label
_atom_site_fract_x
_atom_site_fract_y
_atom_site_fract_z
Si Si1 0.340226 0.500000 0.500000
Si Si2 0.103889 0.762961 0.723030
Si Si3 0.303245 0.449135 0.189629
Si Si4 0.733718 0.816514 0.081373
Si Si5 0.602350 0.671315 0.409265
Si Si6 0.391694 0.841356 0.646556
O O1 0.282568 0.600844 0.525039
O O2 0.397888 0.446783 0.556738
O O3 0.121038 0.635720 0.712662
O O4 0.134069 0.837680 0.663493
O O5 0.149577 0.799633 0.787352
O O6 0.000000 0.784476 0.734876
O O7 0.250000 0.496321 0.250000
O O8 0.234908 0.384228 0.145246
O O9 0.354668 0.535662 0.145735
O O10 0.827691 0.757981 0.061184
O O11 0.653135 0.727927 0.090498
O O12 0.500000 0.718838 0.412482
O O13 0.500000 0.836108 0.638524
#
# Coordination Sequence:
#
# PCOD8264490 Si02
#       6
#     8  16  16  16  16  16
#     4  12  25  44  67 100 132 180 229 278 325 398
#     4   9  20  39  61  93 132 171 216 273 334 393
#     4  11  22  36  65  94 131 174 219 267 336 395
#     4  11  25  45  66  96 135 179 222 279 331 401
#     4  10  23  42  67  95 131 175 224 278 333 393
#     4  11  24  40  63  97 135 175 220 275 333 401
#
# _framework density 22.605581999999998
#
# number of rings (size 3 to 8) (size 9 to 14) (size 15 to 20)
#    0.000    1.455    1.818    2.455    7.636    2.182 
#    0.000    0.455    0.000    0.000    0.000    0.000 
#    0.000    0.000    0.000    0.000    0.000    0.000 
#
# Total GULP energy -545271.374320 kJ/mol
# GULP energy per Si atom -12392.531235 kJ/mol
# Density = 2.255413 g / cm^3
# Si number density = 22.605582 Si / 1000 Ang^3
#
#
#
# Elastic Constant Matrix: (Units=GPa)
#
#
# Indices 1 2 3 4 5 6 
#
# 1 97.8535 46.8890 39.0004 0.0000 0.0000 0.0000
# 2 46.8890 109.7685 46.4087 0.0000 0.0000 0.0000
# 3 39.0004 46.4087 79.4671 0.0000 0.0000 0.0000
# 4 0.0000 0.0000 0.0000 54.3940 0.0000 0.0000
# 5 0.0000 0.0000 0.0000 0.0000 5.1216 0.0000
# 6 0.0000 0.0000 0.0000 0.0000 0.0000 28.4433
#
#
#
# Elastic Compliance Matrix: (Units=1/GPa)
#
#
# Indices 1 2 3 4 5 6 
#
# 1 0.013951 -0.004069 -0.004470 0.000000 0.000000 0.000000
# 2 -0.004069 0.013284 -0.005761 0.000000 0.000000 0.000000
# 3 -0.004470 -0.005761 0.018142 0.000000 0.000000 0.000000
# 4 0.000000 0.000000 0.000000 0.018384 0.000000 0.000000
# 5 0.000000 0.000000 0.000000 0.000000 0.195252 0.000000
# 6 0.000000 0.000000 0.000000 0.000000 0.000000 0.035158
#
#
# Mechanical properties :
#
#
# Convention : Reuss Voigt Hill
#
# Bulk Modulus (GPa) = 59.60814 61.29838 60.45326
# Shear Modulus (GPa) = 15.22701 27.91117 21.56909
#
# Velocity S-wave (km/s) = 2.59819 3.51765 3.09228
# Velocity P-wave (km/s) = 5.95204 6.60861 6.28890
#
# Compressibility (1/GPa) = 0.01677623
#
# Stress axis : x y z
#
# Youngs Moduli (GPa) = 71.67962 75.27918 55.12092
#
# Poissons Ratio (x) = 0.30634 0.24641
# Poissons Ratio (y) = 0.29169 0.31753
# Poissons Ratio (z) = 0.32043 0.43366
#
# Static dielectric constant tensor:
#      x y z
#    x 3.880660 0.000000 0.000000 
#    y 0.000000 3.988470 0.000000 
#    z 0.000000 0.000000 4.265380 
# 
# 
# High freq. dielectric constant tensor:
#      x y z
#    x 1.882540 0.000000 0.000000 
#    y 0.000000 1.887530 0.000000 
#    z 0.000000 0.000000 1.894680 
# 
# From -- ./inp_files/45062.got.cif
#   From: 2010.03.12/outbox.cif.g09.slc.cpg/sg64_23_cif.got.tgz:45062.got - 2010.04.10 20:19:32.
