data_PCOD8264963
_publ_section_title
;
Structure prediction by ZEFSAII (Michael W. Deem and Ramdas Pophale) SiO2 
 PCOD8264963
Probable space group: C M C A
;
_chemical_formula_sum "Si O2"
_cell_formula_units_Z 56
_cell_length_a 25.198507
_cell_length_b 9.938680
_cell_length_c 10.139224
_cell_angle_alpha 90.000000
_cell_angle_beta 90.000000
_cell_angle_gamma 90.000000
_cell_volume 2539.266220
_symmetry_space_group_name_H-M "C M C A"
_symmetry_group_IT_number 64
_symmetry_cell_setting 'orthorhombic'
loop_
_space_group_symop_operation_xyz
x,y,z
-x,1/2-y,1/2+z
x,-y,-z
-x,1/2+y,1/2-z
-x,-y,-z
x,1/2+y,1/2-z
-x,y,z
x,1/2-y,1/2+z
1/2+x,1/2+y,z
1/2-x,-y,1/2+z
1/2+x,1/2-y,-z
1/2-x,y,1/2-z
1/2-x,1/2-y,-z
1/2+x,y,1/2-z
1/2-x,1/2+y,z
1/2+x,-y,1/2+z
loop_
_atom_site_type_symbol
_atom_site_label
_atom_site_fract_x
_atom_site_fract_y
_atom_site_fract_z
Si Si1 0.161164 0.500000 0.500000
Si Si2 0.786491 0.776429 0.872216
Si Si3 0.383339 0.319965 0.218714
Si Si4 0.938959 0.046638 0.356236
O O1 0.195136 0.569388 0.384915
O O2 0.131219 0.622462 0.573329
O O3 0.750000 0.763284 0.750000
O O4 0.837085 0.681625 0.832273
O O5 0.750000 0.750000 0.000000
O O6 0.430657 0.416519 0.264944
O O7 0.403136 0.168287 0.196962
O O8 0.000000 0.091943 0.351971
O O9 0.921043 0.000000 0.500000
#
# Coordination Sequence:
#
# PCOD8264963 Si02
#       4
#     8  16  16  16
#     4  12  26  44  69 104 140 198 237 300 366 426
#     4  12  27  45  70 106 148 198 243 298 363 442
#     4  12  25  49  73 107 150 187 249 305 372 440
#     4  11  26  47  75 107 143 193 244 308 379 444
#
# _framework density 22.053614
#
# number of rings (size 3 to 8) (size 9 to 14) (size 15 to 20)
#    0.000    0.286    5.714    2.571    4.000    0.000 
#    0.000    1.429    0.000    0.000    0.000    0.000 
#    0.000    0.000    0.000    0.000    0.000    0.000 
#
# Total GULP energy -346885.187951 kJ/mol
# GULP energy per Si atom -12388.756713 kJ/mol
# Density = 2.200342 g / cm^3
# Si number density = 22.053614 Si / 1000 Ang^3
#
#
#
# Elastic Constant Matrix: (Units=GPa)
#
#
# Indices 1 2 3 4 5 6 
#
# 1 92.7859 41.8702 56.6407 0.0000 0.0000 0.0000
# 2 41.8702 124.3122 50.3296 0.0000 0.0000 0.0000
# 3 56.6407 50.3296 127.5205 0.0000 0.0000 0.0000
# 4 0.0000 0.0000 0.0000 52.6173 0.0000 0.0000
# 5 0.0000 0.0000 0.0000 0.0000 20.9400 0.0000
# 6 0.0000 0.0000 0.0000 0.0000 0.0000 28.6868
#
#
#
# Elastic Compliance Matrix: (Units=1/GPa)
#
#
# Indices 1 2 3 4 5 6 
#
# 1 0.015630 -0.002920 -0.005790 0.000000 0.000000 0.000000
# 2 -0.002920 0.010120 -0.002697 0.000000 0.000000 0.000000
# 3 -0.005790 -0.002697 0.011478 0.000000 0.000000 0.000000
# 4 0.000000 0.000000 0.000000 0.019005 0.000000 0.000000
# 5 0.000000 0.000000 0.000000 0.000000 0.047756 0.000000
# 6 0.000000 0.000000 0.000000 0.000000 0.000000 0.034859
#
#
# Mechanical properties :
#
#
# Convention : Reuss Voigt Hill
#
# Bulk Modulus (GPa) = 69.37927 71.36660 70.37294
# Shear Modulus (GPa) = 30.03631 33.50069 31.76850
#
# Velocity S-wave (km/s) = 3.69449 3.90174 3.79953
# Velocity P-wave (km/s) = 7.05171 7.26146 7.15736
#
# Compressibility (1/GPa) = 0.01441353
#
# Stress axis : x y z
#
# Youngs Moduli (GPa) = 63.98155 98.81661 87.12422
#
# Poissons Ratio (x) = 0.28857 0.50441
# Poissons Ratio (y) = 0.18684 0.23497
# Poissons Ratio (z) = 0.37043 0.26650
#
# Static dielectric constant tensor:
#      x y z
#    x 3.978080 0.000000 0.000000 
#    y 0.000000 3.814600 0.000000 
#    z 0.000000 0.000000 4.038740 
# 
# 
# High freq. dielectric constant tensor:
#      x y z
#    x 1.866260 0.000000 0.000000 
#    y 0.000000 1.875930 0.000000 
#    z 0.000000 0.000000 1.883610 
# 
# From -- ./inp_files/18838.got.cif
#   From: 2010.03.12/outbox.cif.g09.slc.cpg/sg64_10_cif.got.tgz:18838.got - 2010.04.10 20:19:32.
