data_PCOD8264077
_publ_section_title
;
Structure prediction by ZEFSAII (Michael W. Deem and Ramdas Pophale) SiO2 
 PCOD8264077
Probable space group: C M C A
;
_chemical_formula_sum "Si O2"
_cell_formula_units_Z 48
_cell_length_a 31.541377
_cell_length_b 5.084547
_cell_length_c 14.408381
_cell_angle_alpha 90.000000
_cell_angle_beta 90.000000
_cell_angle_gamma 90.000000
_cell_volume 2310.724130
_symmetry_space_group_name_H-M "C M C A"
_symmetry_group_IT_number 64
_symmetry_cell_setting 'orthorhombic'
loop_
_space_group_symop_operation_xyz
x,y,z
-x,1/2-y,1/2+z
x,-y,-z
-x,1/2+y,1/2-z
-x,-y,-z
x,1/2+y,1/2-z
-x,y,z
x,1/2-y,1/2+z
1/2+x,1/2+y,z
1/2-x,-y,1/2+z
1/2+x,1/2-y,-z
1/2-x,y,1/2-z
1/2-x,1/2-y,-z
1/2+x,y,1/2-z
1/2-x,1/2+y,z
1/2+x,-y,1/2+z
loop_
_atom_site_type_symbol
_atom_site_label
_atom_site_fract_x
_atom_site_fract_y
_atom_site_fract_z
Si Si1 0.927190 0.607944 0.695850
Si Si2 0.220514 0.000000 0.000000
Si Si3 0.000000 0.253725 0.438136
Si Si4 0.828865 0.592948 0.689775
O O1 0.937030 0.302896 0.717175
O O2 0.878400 0.620628 0.666313
O O3 0.956626 0.731319 0.618187
O O4 0.192378 0.022701 0.907715
O O5 0.250000 0.250000 0.000000
O O6 0.000000 0.500000 0.500000
O O7 0.000000 0.000000 0.500000
O O8 0.815504 0.370972 0.764920
#
# Coordination Sequence:
#
# PCOD8264077 Si02
#       4
#    16   8   8  16
#     4  10  21  41  63  85 123 169 209 253 311 372
#     4  12  26  42  66  99 128 167 210 270 332 388
#     4  12  24  36  58  98 126 162 210 262 314 366
#     4  10  23  43  66  94 127 170 212 261 320 383
#
# _framework density 20.772711000000001
#
# number of rings (size 3 to 8) (size 9 to 14) (size 15 to 20)
#    0.000    1.333    0.000    5.000    2.333    4.000 
#    3.000    0.000    0.000    0.000    0.000    0.000 
#    0.000    0.000    0.000    0.000    0.000    0.000 
#
# Total GULP energy -297424.540059 kJ/mol
# GULP energy per Si atom -12392.689169 kJ/mol
# Density = 2.072543 g / cm^3
# Si number density = 20.772711 Si / 1000 Ang^3
#
#
#
# Elastic Constant Matrix: (Units=GPa)
#
#
# Indices 1 2 3 4 5 6 
#
# 1 101.2408 58.4912 80.9875 0.0000 0.0000 0.0000
# 2 58.4912 157.3339 52.7386 0.0000 0.0000 0.0000
# 3 80.9875 52.7386 141.0815 0.0000 0.0000 0.0000
# 4 0.0000 0.0000 0.0000 45.1299 0.0000 0.0000
# 5 0.0000 0.0000 0.0000 0.0000 66.8518 0.0000
# 6 0.0000 0.0000 0.0000 0.0000 0.0000 28.9267
#
#
#
# Elastic Compliance Matrix: (Units=1/GPa)
#
#
# Indices 1 2 3 4 5 6 
#
# 1 0.020423 -0.004187 -0.010158 0.000000 0.000000 0.000000
# 2 -0.004187 0.008125 -0.000633 0.000000 0.000000 0.000000
# 3 -0.010158 -0.000633 0.013156 0.000000 0.000000 0.000000
# 4 0.000000 0.000000 0.000000 0.022158 0.000000 0.000000
# 5 0.000000 0.000000 0.000000 0.000000 0.014958 0.000000
# 6 0.000000 0.000000 0.000000 0.000000 0.000000 0.034570
#
#
# Mechanical properties :
#
#
# Convention : Reuss Voigt Hill
#
# Bulk Modulus (GPa) = 85.13807 87.12118 86.12962
# Shear Modulus (GPa) = 33.95247 42.01095 37.98171
#
# Velocity S-wave (km/s) = 4.04725 4.50200 4.28067
# Velocity P-wave (km/s) = 7.93189 8.30995 8.12312
#
# Compressibility (1/GPa) = 0.01174563
#
# Stress axis : x y z
#
# Youngs Moduli (GPa) = 48.96475 123.07722 76.00919
#
# Poissons Ratio (x) = 0.51537 0.77213
# Poissons Ratio (y) = 0.20503 0.04815
# Poissons Ratio (z) = 0.49740 0.07797
#
# Static dielectric constant tensor:
#      x y z
#    x 3.991530 0.000000 0.000000 
#    y 0.000000 4.209180 0.000000 
#    z 0.000000 0.000000 3.754200 
# 
# 
# High freq. dielectric constant tensor:
#      x y z
#    x 1.824180 0.000000 0.000000 
#    y 0.000000 1.841080 0.000000 
#    z 0.000000 0.000000 1.808020 
# 
# From -- ./inp_files/27705.got.cif
#   From: 2010.03.12/outbox.cif.g09.slc.cpg/sg64_14_cif.got.tgz:27705.got - 2010.04.10 20:19:32.
