data_PCOD8264028
_publ_section_title
;
Structure prediction by ZEFSAII (Michael W. Deem and Ramdas Pophale) SiO2 
 PCOD8264028
Probable space group: C M C A
;
_chemical_formula_sum "Si O2"
_cell_formula_units_Z 96
_cell_length_a 13.970897
_cell_length_b 21.325841
_cell_length_c 15.320637
_cell_angle_alpha 90.000000
_cell_angle_beta 90.000000
_cell_angle_gamma 90.000000
_cell_volume 4564.647870
_symmetry_space_group_name_H-M "C M C A"
_symmetry_group_IT_number 64
_symmetry_cell_setting 'orthorhombic'
loop_
_space_group_symop_operation_xyz
x,y,z
-x,1/2-y,1/2+z
x,-y,-z
-x,1/2+y,1/2-z
-x,-y,-z
x,1/2+y,1/2-z
-x,y,z
x,1/2-y,1/2+z
1/2+x,1/2+y,z
1/2-x,-y,1/2+z
1/2+x,1/2-y,-z
1/2-x,y,1/2-z
1/2-x,1/2-y,-z
1/2+x,y,1/2-z
1/2-x,1/2+y,z
1/2+x,-y,1/2+z
loop_
_atom_site_type_symbol
_atom_site_label
_atom_site_fract_x
_atom_site_fract_y
_atom_site_fract_z
Si Si1 0.663067 0.475180 0.809850
Si Si2 0.759898 0.382112 0.564348
Si Si3 0.709409 0.647678 0.621639
Si Si4 0.606710 0.608943 0.786932
Si Si5 0.895164 0.144164 0.292444
Si Si6 0.888954 0.779238 0.875774
O O1 0.750000 0.497803 0.750000
O O2 0.701531 0.449568 0.903130
O O3 0.601021 0.537716 0.823671
O O4 0.604807 0.420381 0.762256
O O5 0.711305 0.389495 0.470139
O O6 0.684304 0.354317 0.633665
O O7 0.847305 0.332632 0.559893
O O8 0.638542 0.609509 0.685316
O O9 0.817860 0.650733 0.659063
O O10 0.671176 0.717089 0.606627
O O11 0.500000 0.637989 0.795552
O O12 0.875857 0.200871 0.225312
O O13 0.000000 0.151116 0.335473
O O14 0.000000 0.768771 0.899173
#
# Coordination Sequence:
#
# PCOD8264028 Si02
#       6
#    16  16  16  16  16  16
#     4   9  17  39  62  86 120 160 204 253 305 369
#     4  10  22  38  66  93 124 158 209 270 317 356
#     4  11  24  41  59  92 130 161 208 257 315 374
#     4  11  24  41  63  85 123 174 210 250 313 380
#     4   9  19  35  63  93 120 161 211 255 310 371
#     4  10  21  40  63  91 127 167 206 254 315 382
#
# _framework density 21.031196000000001
#
# number of rings (size 3 to 8) (size 9 to 14) (size 15 to 20)
#    0.000    2.000    1.667    3.000    4.667    3.333 
#    0.000    0.833    0.000    3.000    0.000    0.000 
#    0.000    0.000    0.000    0.000    0.000    0.000 
#
# Total GULP energy -595126.565700 kJ/mol
# GULP energy per Si atom -12398.470119 kJ/mol
# Density = 2.098333 g / cm^3
# Si number density = 21.031196 Si / 1000 Ang^3
#
#
#
# Elastic Constant Matrix: (Units=GPa)
#
#
# Indices 1 2 3 4 5 6 
#
# 1 131.9320 14.6759 18.1380 0.0000 0.0000 0.0000
# 2 14.6759 60.2008 -5.2478 0.0000 0.0000 0.0000
# 3 18.1380 -5.2478 68.6923 0.0000 0.0000 0.0000
# 4 0.0000 0.0000 0.0000 15.9547 0.0000 0.0000
# 5 0.0000 0.0000 0.0000 0.0000 17.1003 0.0000
# 6 0.0000 0.0000 0.0000 0.0000 0.0000 30.3224
#
#
#
# Elastic Compliance Matrix: (Units=1/GPa)
#
#
# Indices 1 2 3 4 5 6 
#
# 1 0.008141 -0.002187 -0.002317 0.000000 0.000000 0.000000
# 2 -0.002187 0.017310 0.001900 0.000000 0.000000 0.000000
# 3 -0.002317 0.001900 0.015315 0.000000 0.000000 0.000000
# 4 0.000000 0.000000 0.000000 0.062677 0.000000 0.000000
# 5 0.000000 0.000000 0.000000 0.000000 0.058479 0.000000
# 6 0.000000 0.000000 0.000000 0.000000 0.000000 0.032979
#
#
# Mechanical properties :
#
#
# Convention : Reuss Voigt Hill
#
# Bulk Modulus (GPa) = 28.12278 35.10637 31.61458
# Shear Modulus (GPa) = 23.58928 28.22609 25.90769
#
# Velocity S-wave (km/s) = 3.35271 3.66745 3.51361
# Velocity P-wave (km/s) = 5.32809 5.88747 5.61475
#
# Compressibility (1/GPa) = 0.03555836
#
# Stress axis : x y z
#
# Youngs Moduli (GPa) = 122.82872 57.77087 65.29741
#
# Poissons Ratio (x) = 0.12633 0.15128
# Poissons Ratio (y) = 0.26859 -0.12405
# Poissons Ratio (z) = 0.28457 -0.10975
#
# Static dielectric constant tensor:
#      x y z
#    x 3.921930 0.000000 0.000000 
#    y 0.000000 3.640150 0.000000 
#    z 0.000000 0.000000 3.634100 
# 
# 
# High freq. dielectric constant tensor:
#      x y z
#    x 1.830130 0.000000 0.000000 
#    y 0.000000 1.818380 0.000000 
#    z 0.000000 0.000000 1.800230 
# 
# From -- ./inp_files/23868.got.cif
#   From: 2010.03.12/outbox.cif.g09.slc.cpg/sg64_12_cif.got.tgz:23868.got - 2010.04.10 20:19:32.
