data_PCOD8264865
_publ_section_title
;
Structure prediction by ZEFSAII (Michael W. Deem and Ramdas Pophale) SiO2 
 PCOD8264865
Probable space group: C M C A
;
_chemical_formula_sum "Si O2"
_cell_formula_units_Z 88
_cell_length_a 17.534844
_cell_length_b 9.424758
_cell_length_c 25.997759
_cell_angle_alpha 90.000000
_cell_angle_beta 90.000000
_cell_angle_gamma 90.000000
_cell_volume 4296.432842
_symmetry_space_group_name_H-M "C M C A"
_symmetry_group_IT_number 64
_symmetry_cell_setting 'orthorhombic'
loop_
_space_group_symop_operation_xyz
x,y,z
-x,1/2-y,1/2+z
x,-y,-z
-x,1/2+y,1/2-z
-x,-y,-z
x,1/2+y,1/2-z
-x,y,z
x,1/2-y,1/2+z
1/2+x,1/2+y,z
1/2-x,-y,1/2+z
1/2+x,1/2-y,-z
1/2-x,y,1/2-z
1/2-x,1/2-y,-z
1/2+x,y,1/2-z
1/2-x,1/2+y,z
1/2+x,-y,1/2+z
loop_
_atom_site_type_symbol
_atom_site_label
_atom_site_fract_x
_atom_site_fract_y
_atom_site_fract_z
Si Si1 0.086811 0.295044 0.220503
Si Si2 0.288034 0.822782 0.651220
Si Si3 0.713947 0.590702 0.913970
Si Si4 0.680399 0.500000 0.500000
Si Si5 0.911407 0.187372 0.420798
Si Si6 0.366721 0.103504 0.191102
O O1 0.133669 0.196518 0.181407
O O2 0.097578 0.236211 0.278137
O O3 0.112098 0.458279 0.219608
O O4 0.000000 0.282667 0.202965
O O5 0.260890 0.671157 0.630255
O O6 0.224705 0.882842 0.690435
O O7 0.299489 0.928893 0.603362
O O8 0.631367 0.661647 0.921500
O O9 0.764062 0.597370 0.965573
O O10 0.625255 0.406328 0.534726
O O11 0.899963 0.106578 0.366702
O O12 0.000000 0.212911 0.432267
#
# Coordination Sequence:
#
# PCOD8264865 Si02
#       6
#    16  16  16   8  16  16
#     4  12  25  41  65  97 130 170 212 268 326 379
#     4  11  23  44  67  95 126 177 214 262 315 395
#     4  11  23  42  71  96 127 169 220 265 321 381
#     4  12  21  44  73  92 128 176 222 260 325 404
#     4  11  24  42  67  99 133 168 217 275 327 383
#     4  11  25  44  66  93 133 173 220 260 319 396
#
# _framework density 20.482109000000001
#
# number of rings (size 3 to 8) (size 9 to 14) (size 15 to 20)
#    0.000    0.727    5.455    3.000    5.091    2.182 
#    0.000    1.364    0.000    0.000    0.000    0.000 
#    0.000    0.000    0.000    0.000    0.000    0.000 
#
# Total GULP energy -545813.015694 kJ/mol
# GULP energy per Si atom -12404.841266 kJ/mol
# Density = 2.043549 g / cm^3
# Si number density = 20.482109 Si / 1000 Ang^3
#
#
#
# Elastic Constant Matrix: (Units=GPa)
#
#
# Indices 1 2 3 4 5 6 
#
# 1 171.9620 55.9335 57.1046 0.0000 0.0000 0.0000
# 2 55.9335 89.5970 36.1598 0.0000 0.0000 0.0000
# 3 57.1046 36.1598 102.0471 0.0000 0.0000 0.0000
# 4 0.0000 0.0000 0.0000 31.2187 0.0000 0.0000
# 5 0.0000 0.0000 0.0000 0.0000 24.0972 0.0000
# 6 0.0000 0.0000 0.0000 0.0000 0.0000 21.2971
#
#
#
# Elastic Compliance Matrix: (Units=1/GPa)
#
#
# Indices 1 2 3 4 5 6 
#
# 1 0.008103 -0.003767 -0.003199 0.000000 0.000000 0.000000
# 2 -0.003767 0.014775 -0.003127 0.000000 0.000000 0.000000
# 3 -0.003199 -0.003127 0.012698 0.000000 0.000000 0.000000
# 4 0.000000 0.000000 0.000000 0.032032 0.000000 0.000000
# 5 0.000000 0.000000 0.000000 0.000000 0.041499 0.000000
# 6 0.000000 0.000000 0.000000 0.000000 0.000000 0.046955
#
#
# Mechanical properties :
#
#
# Convention : Reuss Voigt Hill
#
# Bulk Modulus (GPa) = 64.98621 73.55577 69.27099
# Shear Modulus (GPa) = 27.56656 29.61647 28.59151
#
# Velocity S-wave (km/s) = 3.67261 3.80671 3.74026
# Velocity P-wave (km/s) = 7.05558 7.43718 7.24889
#
# Compressibility (1/GPa) = 0.01538788
#
# Stress axis : x y z
#
# Youngs Moduli (GPa) = 123.40954 67.68158 78.75295
#
# Poissons Ratio (x) = 0.25498 0.25197
# Poissons Ratio (y) = 0.46493 0.24628
# Poissons Ratio (z) = 0.39485 0.21166
#
# Static dielectric constant tensor:
#      x y z
#    x 3.820090 0.000000 0.000000 
#    y 0.000000 3.706460 0.000000 
#    z 0.000000 0.000000 3.730950 
# 
# 
# High freq. dielectric constant tensor:
#      x y z
#    x 1.803990 0.000000 0.000000 
#    y 0.000000 1.804810 0.000000 
#    z 0.000000 0.000000 1.803710 
# 
# From -- ./inp_files/53552.got.cif
#   From: 2010.03.12/outbox.cif.g09.slc.cpg/sg64_27_cif.got.tgz:53552.got - 2010.04.10 20:19:32.
