data_PCOD8264887
_publ_section_title
;
Structure prediction by ZEFSAII (Michael W. Deem and Ramdas Pophale) SiO2 
 PCOD8264887
Probable space group: C M C A
;
_chemical_formula_sum "Si O2"
_cell_formula_units_Z 88
_cell_length_a 18.814423
_cell_length_b 23.612060
_cell_length_c 9.520641
_cell_angle_alpha 90.000000
_cell_angle_beta 90.000000
_cell_angle_gamma 90.000000
_cell_volume 4229.518913
_symmetry_space_group_name_H-M "C M C A"
_symmetry_group_IT_number 64
_symmetry_cell_setting 'orthorhombic'
loop_
_space_group_symop_operation_xyz
x,y,z
-x,1/2-y,1/2+z
x,-y,-z
-x,1/2+y,1/2-z
-x,-y,-z
x,1/2+y,1/2-z
-x,y,z
x,1/2-y,1/2+z
1/2+x,1/2+y,z
1/2-x,-y,1/2+z
1/2+x,1/2-y,-z
1/2-x,y,1/2-z
1/2-x,1/2-y,-z
1/2+x,y,1/2-z
1/2-x,1/2+y,z
1/2+x,-y,1/2+z
loop_
_atom_site_type_symbol
_atom_site_label
_atom_site_fract_x
_atom_site_fract_y
_atom_site_fract_z
Si Si1 0.222500 0.000000 0.500000
Si Si2 0.273675 0.302022 0.593651
Si Si3 0.881914 0.958621 0.729452
Si Si4 0.920238 0.139456 0.456052
Si Si5 0.818967 0.905667 0.007820
Si Si6 0.078947 0.086138 0.750451
O O1 0.182454 0.967285 0.622377
O O2 0.269885 0.953250 0.419663
O O3 0.250000 0.286712 0.750000
O O4 0.250000 0.250000 0.500000
O O5 0.358995 0.314894 0.585442
O O6 0.228723 0.354830 0.542995
O O7 0.929906 0.909855 0.659740
O O8 0.858003 0.935218 0.878341
O O9 0.922453 0.017780 0.748723
O O10 0.895147 0.110408 0.601536
O O11 0.000000 0.167380 0.468867
O O12 0.873865 0.886195 0.127033
O O13 0.000000 0.107326 0.781929
#
# Coordination Sequence:
#
# PCOD8264887 Si02
#       6
#     8  16  16  16  16  16
#     4  12  20  34  66  96 130 174 224 274 332 408
#     4  12  27  50  74 100 127 174 236 288 337 398
#     4  12  20  38  63  96 140 183 219 266 330 409
#     4  11  24  44  70  99 138 178 221 275 339 406
#     4  12  24  39  65  98 140 174 224 283 334 399
#     4  11  24  39  62 104 144 183 221 266 336 408
#
# _framework density 20.806148
#
# number of rings (size 3 to 8) (size 9 to 14) (size 15 to 20)
#    0.000    0.364    7.273    1.091    2.545    5.091 
#    0.000    1.818    0.000    0.000    0.000    0.000 
#    0.000    0.000    0.000    0.000    0.000    0.000 
#
# Total GULP energy -545461.836476 kJ/mol
# GULP energy per Si atom -12396.859920 kJ/mol
# Density = 2.075879 g / cm^3
# Si number density = 20.806148 Si / 1000 Ang^3
#
#
#
# Elastic Constant Matrix: (Units=GPa)
#
#
# Indices 1 2 3 4 5 6 
#
# 1 113.1102 28.5631 59.8377 0.0000 0.0000 0.0000
# 2 28.5631 73.3581 32.8511 0.0000 0.0000 0.0000
# 3 59.8377 32.8511 122.6972 0.0000 0.0000 0.0000
# 4 0.0000 0.0000 0.0000 29.4704 0.0000 0.0000
# 5 0.0000 0.0000 0.0000 0.0000 34.3978 0.0000
# 6 0.0000 0.0000 0.0000 0.0000 0.0000 17.9858
#
#
#
# Elastic Compliance Matrix: (Units=1/GPa)
#
#
# Indices 1 2 3 4 5 6 
#
# 1 0.012271 -0.002384 -0.005346 0.000000 0.000000 0.000000
# 2 -0.002384 0.015952 -0.003108 0.000000 0.000000 0.000000
# 3 -0.005346 -0.003108 0.011590 0.000000 0.000000 0.000000
# 4 0.000000 0.000000 0.000000 0.033932 0.000000 0.000000
# 5 0.000000 0.000000 0.000000 0.000000 0.029072 0.000000
# 6 0.000000 0.000000 0.000000 0.000000 0.000000 0.055599
#
#
# Mechanical properties :
#
#
# Convention : Reuss Voigt Hill
#
# Bulk Modulus (GPa) = 55.13951 61.29662 58.21806
# Shear Modulus (GPa) = 26.86171 28.89836 27.88004
#
# Velocity S-wave (km/s) = 3.59701 3.73088 3.66456
# Velocity P-wave (km/s) = 6.61894 6.93427 6.77844
#
# Compressibility (1/GPa) = 0.01813582
#
# Stress axis : x y z
#
# Youngs Moduli (GPa) = 81.49175 62.68822 86.28362
#
# Poissons Ratio (x) = 0.14944 0.46129
# Poissons Ratio (y) = 0.19426 0.26821
# Poissons Ratio (z) = 0.43567 0.19486
#
# Static dielectric constant tensor:
#      x y z
#    x 3.669950 0.000000 0.000000 
#    y 0.000000 3.018810 0.000000 
#    z 0.000000 0.000000 3.987880 
# 
# 
# High freq. dielectric constant tensor:
#      x y z
#    x 1.824670 0.000000 0.000000 
#    y 0.000000 1.784600 0.000000 
#    z 0.000000 0.000000 1.827370 
# 
# From -- ./inp_files/8240.got.cif
#   From: 2010.03.12/outbox.cif.g09.slc.cpg/sg64_5_cif.got.tgz:8240.got - 2010.04.10 20:19:32.
