data_PCOD8264470
_publ_section_title
;
Structure prediction by ZEFSAII (Michael W. Deem and Ramdas Pophale) SiO2 
 PCOD8264470
Probable space group: C M C A
;
_chemical_formula_sum "Si O2"
_cell_formula_units_Z 48
_cell_length_a 15.234296
_cell_length_b 25.463622
_cell_length_c 5.074269
_cell_angle_alpha 90.000000
_cell_angle_beta 90.000000
_cell_angle_gamma 90.000000
_cell_volume 1968.412231
_symmetry_space_group_name_H-M "C M C A"
_symmetry_group_IT_number 64
_symmetry_cell_setting 'orthorhombic'
loop_
_space_group_symop_operation_xyz
x,y,z
-x,1/2-y,1/2+z
x,-y,-z
-x,1/2+y,1/2-z
-x,-y,-z
x,1/2+y,1/2-z
-x,y,z
x,1/2-y,1/2+z
1/2+x,1/2+y,z
1/2-x,-y,1/2+z
1/2+x,1/2-y,-z
1/2-x,y,1/2-z
1/2-x,1/2-y,-z
1/2+x,y,1/2-z
1/2-x,1/2+y,z
1/2+x,-y,1/2+z
loop_
_atom_site_type_symbol
_atom_site_label
_atom_site_fract_x
_atom_site_fract_y
_atom_site_fract_z
Si Si1 0.347818 0.226218 0.510373
Si Si2 0.346248 0.053474 0.132592
Si Si3 0.600009 0.612510 0.872154
O O1 0.398693 0.253058 0.753555
O O2 0.250000 0.250000 0.500000
O O3 0.348180 0.163407 0.523726
O O4 0.250000 0.044990 0.250000
O O5 0.402710 0.070657 0.386977
O O6 0.348964 0.094900 0.892436
O O7 0.382965 0.000000 0.000000
O O8 0.500000 0.625466 0.794386
#
# Coordination Sequence:
#
# PCOD8264470 Si02
#       3
#    16  16  16
#     4  10  23  41  67 103 138 194 238 297 353 431
#     4  12  27  48  75 107 145 193 250 300 360 448
#     4  12  27  45  74 111 150 193 244 307 371 432
#
# _framework density 24.385135999999999
#
# number of rings (size 3 to 8) (size 9 to 14) (size 15 to 20)
#    0.000    0.667    0.000    7.000   14.000    5.333 
#    0.000    0.000    0.000    0.000    0.000    0.000 
#    0.000    0.000    0.000    0.000    0.000    0.000 
#
# Total GULP energy -297432.468179 kJ/mol
# GULP energy per Si atom -12393.019507 kJ/mol
# Density = 2.432963 g / cm^3
# Si number density = 24.385136 Si / 1000 Ang^3
#
#
#
# Elastic Constant Matrix: (Units=GPa)
#
#
# Indices 1 2 3 4 5 6 
#
# 1 68.6028 34.4764 13.8484 0.0000 0.0000 0.0000
# 2 34.4764 123.6532 50.4595 0.0000 0.0000 0.0000
# 3 13.8484 50.4595 226.7381 0.0000 0.0000 0.0000
# 4 0.0000 0.0000 0.0000 57.7762 0.0000 0.0000
# 5 0.0000 0.0000 0.0000 0.0000 26.3809 0.0000
# 6 0.0000 0.0000 0.0000 0.0000 0.0000 6.8626
#
#
#
# Elastic Compliance Matrix: (Units=1/GPa)
#
#
# Indices 1 2 3 4 5 6 
#
# 1 0.016952 -0.004734 0.000018 0.000000 0.000000 0.000000
# 2 -0.004734 0.010217 -0.001985 0.000000 0.000000 0.000000
# 3 0.000018 -0.001985 0.004851 0.000000 0.000000 0.000000
# 4 0.000000 0.000000 0.000000 0.017308 0.000000 0.000000
# 5 0.000000 0.000000 0.000000 0.000000 0.037906 0.000000
# 6 0.000000 0.000000 0.000000 0.000000 0.000000 0.145718
#
#
# Mechanical properties :
#
#
# Convention : Reuss Voigt Hill
#
# Bulk Modulus (GPa) = 53.70817 68.50697 61.10757
# Shear Modulus (GPa) = 19.79733 39.55124 29.67428
#
# Velocity S-wave (km/s) = 2.85241 4.03170 3.49219
# Velocity P-wave (km/s) = 5.73769 7.05886 6.43229
#
# Compressibility (1/GPa) = 0.01861914
#
# Stress axis : x y z
#
# Youngs Moduli (GPa) = 58.98999 97.87729 206.14611
#
# Poissons Ratio (x) = 0.46334 -0.00374
# Poissons Ratio (y) = 0.27925 0.40912
# Poissons Ratio (z) = -0.00107 0.19425
#
# Static dielectric constant tensor:
#      x y z
#    x 3.623140 0.000000 0.000000 
#    y 0.000000 4.374140 0.000000 
#    z 0.000000 0.000000 2.991140 
# 
# 
# High freq. dielectric constant tensor:
#      x y z
#    x 1.938710 0.000000 0.000000 
#    y 0.000000 1.969610 0.000000 
#    z 0.000000 0.000000 2.011090 
# 
# From -- ./inp_files/1105.got.cif
#   From: 2010.03.12/outbox.cif.g09.slc.cpg/sg64_1_cif.got.tgz:1105.got - 2010.04.10 20:19:32.
