data_PCOD8264358
_publ_section_title
;
Structure prediction by ZEFSAII (Michael W. Deem and Ramdas Pophale) SiO2 
 PCOD8264358
Probable space group: C M C A
;
_chemical_formula_sum "Si O2"
_cell_formula_units_Z 40
_cell_length_a 15.154131
_cell_length_b 21.460078
_cell_length_c 4.963005
_cell_angle_alpha 90.000000
_cell_angle_beta 90.000000
_cell_angle_gamma 90.000000
_cell_volume 1614.013066
_symmetry_space_group_name_H-M "C M C A"
_symmetry_group_IT_number 64
_symmetry_cell_setting 'orthorhombic'
loop_
_space_group_symop_operation_xyz
x,y,z
-x,1/2-y,1/2+z
x,-y,-z
-x,1/2+y,1/2-z
-x,-y,-z
x,1/2+y,1/2-z
-x,y,z
x,1/2-y,1/2+z
1/2+x,1/2+y,z
1/2-x,-y,1/2+z
1/2+x,1/2-y,-z
1/2-x,y,1/2-z
1/2-x,1/2-y,-z
1/2+x,y,1/2-z
1/2-x,1/2+y,z
1/2+x,-y,1/2+z
loop_
_atom_site_type_symbol
_atom_site_label
_atom_site_fract_x
_atom_site_fract_y
_atom_site_fract_z
Si Si1 0.402583 0.126755 0.535098
Si Si2 0.000000 0.208413 0.326564
Si Si3 0.310308 0.500000 0.000000
Si Si4 0.750000 0.795024 0.250000
O O1 0.500000 0.119590 0.674957
O O2 0.413049 0.168794 0.261225
O O3 0.335857 0.160323 0.740309
O O4 0.370138 0.059615 0.435979
O O5 0.000000 0.271752 0.138826
O O6 0.250000 0.483020 0.250000
O O7 0.750000 0.750000 0.500000
#
# Coordination Sequence:
#
# PCOD8264358 Si02
#       4
#    16   8   8   8
#     4  10  25  48  75 105 147 194 243 299 367 435
#     4  10  22  41  70 103 140 180 234 288 356 434
#     4  12  27  50  73 106 146 194 253 306 361 434
#     4  12  26  44  74 110 148 190 238 302 366 434
#
# _framework density 24.782945999999999
#
# number of rings (size 3 to 8) (size 9 to 14) (size 15 to 20)
#    1.200    0.000    2.000    3.000    2.800    3.200 
#    0.000    2.000    0.000    0.000    0.000    0.000 
#    0.000    0.000    0.000    0.000    0.000    0.000 
#
# Total GULP energy -247874.090717 kJ/mol
# GULP energy per Si atom -12393.704536 kJ/mol
# Density = 2.472654 g / cm^3
# Si number density = 24.782946 Si / 1000 Ang^3
#
#
#
# Elastic Constant Matrix: (Units=GPa)
#
#
# Indices 1 2 3 4 5 6 
#
# 1 156.6451 45.1547 10.0205 0.0000 0.0000 0.0000
# 2 45.1547 169.8463 5.6642 0.0000 0.0000 0.0000
# 3 10.0205 5.6642 68.0609 0.0000 0.0000 0.0000
# 4 0.0000 0.0000 0.0000 29.8050 0.0000 0.0000
# 5 0.0000 0.0000 0.0000 0.0000 13.1528 0.0000
# 6 0.0000 0.0000 0.0000 0.0000 0.0000 74.6447
#
#
#
# Elastic Compliance Matrix: (Units=1/GPa)
#
#
# Indices 1 2 3 4 5 6 
#
# 1 0.006965 -0.001823 -0.000874 0.000000 0.000000 0.000000
# 2 -0.001823 0.006381 -0.000263 0.000000 0.000000 0.000000
# 3 -0.000874 -0.000263 0.014843 0.000000 0.000000 0.000000
# 4 0.000000 0.000000 0.000000 0.033551 0.000000 0.000000
# 5 0.000000 0.000000 0.000000 0.000000 0.076030 0.000000
# 6 0.000000 0.000000 0.000000 0.000000 0.000000 0.013397
#
#
# Mechanical properties :
#
#
# Convention : Reuss Voigt Hill
#
# Bulk Modulus (GPa) = 44.90103 57.35900 51.13002
# Shear Modulus (GPa) = 30.39346 45.76801 38.08073
#
# Velocity S-wave (km/s) = 3.50578 4.30205 3.92416
# Velocity P-wave (km/s) = 5.87744 6.91893 6.41935
#
# Compressibility (1/GPa) = 0.02227120
#
# Stress axis : x y z
#
# Youngs Moduli (GPa) = 143.57229 156.71565 67.37074
#
# Poissons Ratio (x) = 0.28563 0.05887
# Poissons Ratio (y) = 0.26167 0.01770
# Poissons Ratio (z) = 0.12545 0.04117
#
# Static dielectric constant tensor:
#      x y z
#    x 4.780710 0.000000 0.000000 
#    y 0.000000 4.644800 0.000000 
#    z 0.000000 0.000000 3.763980 
# 
# 
# High freq. dielectric constant tensor:
#      x y z
#    x 1.997670 0.000000 0.000000 
#    y 0.000000 2.005870 0.000000 
#    z 0.000000 0.000000 1.960630 
# 
# From -- ./inp_files/1070.got.cif
#   From: 2010.03.12/outbox.cif.g09.slc.cpg/sg64_1_cif.got.tgz:1070.got - 2010.04.10 20:19:32.
