data_PCOD8264177
_publ_section_title
;
Structure prediction by ZEFSAII (Michael W. Deem and Ramdas Pophale) SiO2 
 PCOD8264177
Probable space group: C M C A
;
_chemical_formula_sum "Si O2"
_cell_formula_units_Z 112
_cell_length_a 26.782334
_cell_length_b 11.624633
_cell_length_c 18.545869
_cell_angle_alpha 90.000000
_cell_angle_beta 90.000000
_cell_angle_gamma 90.000000
_cell_volume 5773.974483
_symmetry_space_group_name_H-M "C M C A"
_symmetry_group_IT_number 64
_symmetry_cell_setting 'orthorhombic'
loop_
_space_group_symop_operation_xyz
x,y,z
-x,1/2-y,1/2+z
x,-y,-z
-x,1/2+y,1/2-z
-x,-y,-z
x,1/2+y,1/2-z
-x,y,z
x,1/2-y,1/2+z
1/2+x,1/2+y,z
1/2-x,-y,1/2+z
1/2+x,1/2-y,-z
1/2-x,y,1/2-z
1/2-x,1/2-y,-z
1/2+x,y,1/2-z
1/2-x,1/2+y,z
1/2+x,-y,1/2+z
loop_
_atom_site_type_symbol
_atom_site_label
_atom_site_fract_x
_atom_site_fract_y
_atom_site_fract_z
Si Si1 0.056195 0.379253 0.584220
Si Si2 0.280300 0.762159 0.097602
Si Si3 0.304024 0.879020 0.961389
Si Si4 0.146064 0.366627 0.686508
Si Si5 0.137249 0.715976 0.162024
Si Si6 0.944286 0.848688 0.076331
Si Si7 0.786479 0.587720 0.683119
O O1 0.096587 0.339109 0.641526
O O2 0.057855 0.515787 0.584665
O O3 0.071045 0.324050 0.506713
O O4 0.000000 0.338496 0.605178
O O5 0.246256 0.648960 0.083591
O O6 0.315839 0.735508 0.165267
O O7 0.249244 0.879961 0.115074
O O8 0.310807 0.783272 0.023983
O O9 0.349011 0.866959 0.904727
O O10 0.304007 0.000000 0.000000
O O11 0.127334 0.365271 0.769149
O O12 0.174622 0.485328 0.667679
O O13 0.090072 0.789538 0.136382
O O14 0.181317 0.796850 0.191827
O O15 0.000000 0.802482 0.090854
O O16 0.750000 0.559175 0.750000
#
# Coordination Sequence:
#
# PCOD8264177 Si02
#       7
#    16  16  16  16  16  16  16
#     4   9  19  37  64  91 115 148 196 250 307 355
#     4  10  22  38  55  80 110 157 209 238 286 353
#     4  10  22  38  54  77 115 155 198 243 282 345
#     4  12  23  35  61  86 120 158 192 251 299 353
#     4  11  23  37  57  90 115 159 199 240 300 361
#     4   9  18  39  63  87 117 148 194 256 303 353
#     4  11  23  37  54  79 122 155 200 239 293 347
#
# _framework density 19.397383000000001
#
# number of rings (size 3 to 8) (size 9 to 14) (size 15 to 20)
#    0.000    1.714    2.857    2.571    6.000    0.571 
#    2.571    0.000    0.000    0.429    0.000    0.000 
#    0.000    0.000    0.000    0.000    0.000    0.000 
#
# Total GULP energy -693895.402112 kJ/mol
# GULP energy per Si atom -12390.989323 kJ/mol
# Density = 1.935323 g / cm^3
# Si number density = 19.397383 Si / 1000 Ang^3
#
#
#
# Elastic Constant Matrix: (Units=GPa)
#
#
# Indices 1 2 3 4 5 6 
#
# 1 89.9234 28.4988 52.5482 0.0000 0.0000 0.0000
# 2 28.4988 50.2673 25.3943 0.0000 0.0000 0.0000
# 3 52.5482 25.3943 119.0098 0.0000 0.0000 0.0000
# 4 0.0000 0.0000 0.0000 31.5389 0.0000 0.0000
# 5 0.0000 0.0000 0.0000 0.0000 34.5610 0.0000
# 6 0.0000 0.0000 0.0000 0.0000 0.0000 18.0573
#
#
#
# Elastic Compliance Matrix: (Units=1/GPa)
#
#
# Indices 1 2 3 4 5 6 
#
# 1 0.016650 -0.006418 -0.005983 0.000000 0.000000 0.000000
# 2 -0.006418 0.024771 -0.002452 0.000000 0.000000 0.000000
# 3 -0.005983 -0.002452 0.011567 0.000000 0.000000 0.000000
# 4 0.000000 0.000000 0.000000 0.031707 0.000000 0.000000
# 5 0.000000 0.000000 0.000000 0.000000 0.028934 0.000000
# 6 0.000000 0.000000 0.000000 0.000000 0.000000 0.055379
#
#
# Mechanical properties :
#
#
# Convention : Reuss Voigt Hill
#
# Bulk Modulus (GPa) = 42.94703 52.45368 47.70036
# Shear Modulus (GPa) = 24.21604 27.01539 25.61572
#
# Velocity S-wave (km/s) = 3.53713 3.73598 3.63792
# Velocity P-wave (km/s) = 6.23461 6.76095 6.50311
#
# Compressibility (1/GPa) = 0.02328450
#
# Stress axis : x y z
#
# Youngs Moduli (GPa) = 60.05844 40.37026 86.44971
#
# Poissons Ratio (x) = 0.25908 0.51719
# Poissons Ratio (y) = 0.38543 0.21197
# Poissons Ratio (z) = 0.35930 0.09898
#
# Static dielectric constant tensor:
#      x y z
#    x 3.744020 0.000000 0.000000 
#    y 0.000000 3.186700 0.000000 
#    z 0.000000 0.000000 3.691700 
# 
# 
# High freq. dielectric constant tensor:
#      x y z
#    x 1.743880 0.000000 0.000000 
#    y 0.000000 1.729150 0.000000 
#    z 0.000000 0.000000 1.766340 
# 
# From -- ./inp_files/41517.got.cif
#   From: 2010.03.12/outbox.cif.g09.slc.cpg/sg64_21_cif.got.tgz:41517.got - 2010.04.10 20:19:32.
