data_PCOD8264262
_publ_section_title
;
Structure prediction by ZEFSAII (Michael W. Deem and Ramdas Pophale) SiO2 
 PCOD8264262
Probable space group: C M C A
;
_chemical_formula_sum "Si O2"
_cell_formula_units_Z 112
_cell_length_a 13.938008
_cell_length_b 11.866042
_cell_length_c 31.131129
_cell_angle_alpha 90.000000
_cell_angle_beta 90.000000
_cell_angle_gamma 90.000000
_cell_volume 5148.745931
_symmetry_space_group_name_H-M "C M C A"
_symmetry_group_IT_number 64
_symmetry_cell_setting 'orthorhombic'
loop_
_space_group_symop_operation_xyz
x,y,z
-x,1/2-y,1/2+z
x,-y,-z
-x,1/2+y,1/2-z
-x,-y,-z
x,1/2+y,1/2-z
-x,y,z
x,1/2-y,1/2+z
1/2+x,1/2+y,z
1/2-x,-y,1/2+z
1/2+x,1/2-y,-z
1/2-x,y,1/2-z
1/2-x,1/2-y,-z
1/2+x,y,1/2-z
1/2-x,1/2+y,z
1/2+x,-y,1/2+z
loop_
_atom_site_type_symbol
_atom_site_label
_atom_site_fract_x
_atom_site_fract_y
_atom_site_fract_z
Si Si1 0.233219 0.255576 0.566559
Si Si2 0.113893 0.866461 0.505676
Si Si3 0.337035 0.369008 0.136631
Si Si4 0.891067 0.767167 0.779886
Si Si5 0.608108 0.882768 0.634610
Si Si6 0.892342 0.832609 0.687936
Si Si7 0.201633 0.452742 0.205876
O O1 0.154934 0.202131 0.534800
O O2 0.321676 0.323935 0.545453
O O3 0.277962 0.151752 0.593112
O O4 0.176634 0.341370 0.596889
O O5 0.000000 0.838601 0.512185
O O6 0.128331 0.000000 0.500000
O O7 0.399635 0.481650 0.132193
O O8 0.396506 0.256794 0.148884
O O9 0.272250 0.378155 0.178289
O O10 0.845866 0.839342 0.819927
O O11 0.844589 0.792745 0.733283
O O12 0.885868 0.632556 0.785244
O O13 0.000000 0.806133 0.779023
O O14 0.500000 0.834869 0.628579
O O15 0.000000 0.870533 0.697164
O O16 0.833419 0.944686 0.675681
O O17 0.250000 0.495034 0.250000
#
# Coordination Sequence:
#
# PCOD8264262 Si02
#       7
#    16  16  16  16  16  16  16
#     4  11  23  43  69  99 132 165 208 257 316 391
#     4  10  23  45  72 100 130 165 204 252 313 387
#     4  12  24  39  63  93 129 165 210 267 321 375
#     4  10  22  40  59  86 123 171 223 271 314 369
#     4  11  23  41  64  94 131 172 218 267 322 378
#     4  11  25  41  58  85 124 172 222 268 318 368
#     4  12  23  37  62  85 123 167 222 269 318 373
#
# _framework density 21.752870999999999
#
# number of rings (size 3 to 8) (size 9 to 14) (size 15 to 20)
#    0.000    1.000    2.857    3.857    2.000    1.143 
#    0.000    1.429    0.000    4.714    0.000    0.000 
#    0.000    0.000    0.000    0.000    0.000    0.000 
#
# Total GULP energy -694051.096085 kJ/mol
# GULP energy per Si atom -12393.769573 kJ/mol
# Density = 2.170336 g / cm^3
# Si number density = 21.752871 Si / 1000 Ang^3
#
#
#
# Elastic Constant Matrix: (Units=GPa)
#
#
# Indices 1 2 3 4 5 6 
#
# 1 88.8650 33.2983 42.4619 0.0000 0.0000 0.0000
# 2 33.2983 116.1229 23.6003 0.0000 0.0000 0.0000
# 3 42.4619 23.6003 110.7008 0.0000 0.0000 0.0000
# 4 0.0000 0.0000 0.0000 4.9140 0.0000 0.0000
# 5 0.0000 0.0000 0.0000 0.0000 42.8418 0.0000
# 6 0.0000 0.0000 0.0000 0.0000 0.0000-2306.8322
#
#
#
# Elastic Compliance Matrix: (Units=1/GPa)
#
#
# Indices 1 2 3 4 5 6 
#
# 1 0.014862 -0.003244 -0.005009 0.000000 0.000000 0.000000
# 2 -0.003244 0.009710 -0.000826 0.000000 0.000000 0.000000
# 3 -0.005009 -0.000826 0.011131 0.000000 0.000000 0.000000
# 4 0.000000 0.000000 0.000000 0.203502 0.000000 0.000000
# 5 0.000000 0.000000 0.000000 0.000000 0.023342 0.000000
# 6 0.000000 0.000000 0.000000 0.000000 0.000000 -0.000433
#
#
# Mechanical properties :
#
#
# Convention : Reuss Voigt Hill
#
# Bulk Modulus (GPa) = 56.99599 57.15663 57.07631
# Shear Modulus (GPa) = 17.47531 -437.39341 -209.95905
#
# Velocity S-wave (km/s) = 2.83743 -14.19544 -9.83513
# Velocity P-wave (km/s) = 6.08220 15.56753 10.13299
#
# Compressibility (1/GPa) = 0.01754509
#
# Stress axis : x y z
#
# Youngs Moduli (GPa) = 67.28605 102.99174 89.84098
#
# Poissons Ratio (x) = 0.33407 0.45002
# Poissons Ratio (y) = 0.21825 0.07419
# Poissons Ratio (z) = 0.33704 0.08505
#
# Static dielectric constant tensor:
#      x y z
#    x 3.860240 0.000000 0.000000 
#    y 0.000000 3.870100 0.000000 
#    z 0.000000 0.000000 3.886070 
# 
# 
# High freq. dielectric constant tensor:
#      x y z
#    x 1.863120 0.000000 0.000000 
#    y 0.000000 1.862990 0.000000 
#    z 0.000000 0.000000 1.843490 
# 
# From -- ./inp_files/53259.got.cif
#   From: 2010.03.12/outbox.cif.g09.slc.cpg/sg64_27_cif.got.tgz:53259.got - 2010.04.10 20:19:32.
