data_PCOD8264884
_publ_section_title
;
Structure prediction by ZEFSAII (Michael W. Deem and Ramdas Pophale) SiO2 
 PCOD8264884
Probable space group: C M C A
;
_chemical_formula_sum "Si O2"
_cell_formula_units_Z 72
_cell_length_a 18.069630
_cell_length_b 8.646525
_cell_length_c 22.881411
_cell_angle_alpha 90.000000
_cell_angle_beta 90.000000
_cell_angle_gamma 90.000000
_cell_volume 3574.980386
_symmetry_space_group_name_H-M "C M C A"
_symmetry_group_IT_number 64
_symmetry_cell_setting 'orthorhombic'
loop_
_space_group_symop_operation_xyz
x,y,z
-x,1/2-y,1/2+z
x,-y,-z
-x,1/2+y,1/2-z
-x,-y,-z
x,1/2+y,1/2-z
-x,y,z
x,1/2-y,1/2+z
1/2+x,1/2+y,z
1/2-x,-y,1/2+z
1/2+x,1/2-y,-z
1/2-x,y,1/2-z
1/2-x,1/2-y,-z
1/2+x,y,1/2-z
1/2-x,1/2+y,z
1/2+x,-y,1/2+z
loop_
_atom_site_type_symbol
_atom_site_label
_atom_site_fract_x
_atom_site_fract_y
_atom_site_fract_z
Si Si1 0.654126 0.076502 0.787342
Si Si2 0.500000 0.278979 0.081165
Si Si3 0.000000 0.723978 0.952133
Si Si4 0.796839 0.580666 0.321790
Si Si5 0.622067 0.527270 0.064082
Si Si6 0.000000 0.494215 0.153481
O O1 0.683038 0.247054 0.801591
O O2 0.571102 0.055434 0.809648
O O3 0.709078 0.949006 0.815748
O O4 0.656886 0.042471 0.717690
O O5 0.573160 0.381911 0.082897
O O6 0.500000 0.176400 0.139857
O O7 0.500000 0.179818 0.020717
O O8 0.000000 0.576238 0.911136
O O9 0.072572 0.820657 0.936855
O O10 0.813197 0.552829 0.389680
O O11 0.657678 0.500000 0.000000
#
# Coordination Sequence:
#
# PCOD8264884 Si02
#       6
#    16   8   8  16  16   8
#     4  11  26  40  69  88 133 163 207 259 327 360
#     4   9  21  32  64  91 132 165 210 249 323 365
#     4   9  17  40  56  92 128 172 195 268 312 366
#     4  11  23  46  62  92 128 169 205 261 315 382
#     4   9  19  39  66  88 125 174 210 252 314 378
#     4  12  23  38  62 103 119 163 212 268 295 382
#
# _framework density 20.139970000000002
#
# number of rings (size 3 to 8) (size 9 to 14) (size 15 to 20)
#    0.000    1.778    2.222    4.333    6.222    2.667 
#    0.000    3.333    0.000    0.000    0.000    0.000 
#    0.000    0.000    0.000    0.000    0.000    0.000 
#
# Total GULP energy -446271.464633 kJ/mol
# GULP energy per Si atom -12396.429573 kJ/mol
# Density = 2.009413 g / cm^3
# Si number density = 20.139970 Si / 1000 Ang^3
#
#
#
# Elastic Constant Matrix: (Units=GPa)
#
#
# Indices 1 2 3 4 5 6 
#
# 1 121.5174 40.5138 50.8365 0.0000 0.0000 0.0000
# 2 40.5138 100.8971 40.9248 0.0000 0.0000 0.0000
# 3 50.8365 40.9248 118.9660 0.0000 0.0000 0.0000
# 4 0.0000 0.0000 0.0000 32.5737 0.0000 0.0000
# 5 0.0000 0.0000 0.0000 0.0000 37.2989 0.0000
# 6 0.0000 0.0000 0.0000 0.0000 0.0000 17.3389
#
#
#
# Elastic Compliance Matrix: (Units=1/GPa)
#
#
# Indices 1 2 3 4 5 6 
#
# 1 0.010674 -0.002831 -0.003587 0.000000 0.000000 0.000000
# 2 -0.002831 0.012269 -0.003011 0.000000 0.000000 0.000000
# 3 -0.003587 -0.003011 0.010974 0.000000 0.000000 0.000000
# 4 0.000000 0.000000 0.000000 0.030700 0.000000 0.000000
# 5 0.000000 0.000000 0.000000 0.000000 0.026810 0.000000
# 6 0.000000 0.000000 0.000000 0.000000 0.000000 0.057674
#
#
# Mechanical properties :
#
#
# Convention : Reuss Voigt Hill
#
# Bulk Modulus (GPa) = 66.40486 67.32561 66.86523
# Shear Modulus (GPa) = 28.90524 31.38266 30.14395
#
# Velocity S-wave (km/s) = 3.79254 3.95172 3.87295
# Velocity P-wave (km/s) = 7.22641 7.37041 7.29876
#
# Compressibility (1/GPa) = 0.01505914
#
# Stress axis : x y z
#
# Youngs Moduli (GPa) = 93.68713 81.50602 91.12070
#
# Poissons Ratio (x) = 0.23073 0.32688
# Poissons Ratio (y) = 0.26522 0.27436
# Poissons Ratio (z) = 0.33608 0.24541
#
# Static dielectric constant tensor:
#      x y z
#    x 3.441290 0.000000 0.000000 
#    y 0.000000 3.679980 0.000000 
#    z 0.000000 0.000000 3.775240 
# 
# 
# High freq. dielectric constant tensor:
#      x y z
#    x 1.766620 0.000000 0.000000 
#    y 0.000000 1.793140 0.000000 
#    z 0.000000 0.000000 1.793580 
# 
# From -- ./inp_files/40738.got.cif
#   From: 2010.03.12/outbox.cif.g09.slc.cpg/sg64_21_cif.got.tgz:40738.got - 2010.04.10 20:19:32.
