data_PCOD8264503
_publ_section_title
;
Structure prediction by ZEFSAII (Michael W. Deem and Ramdas Pophale) SiO2 
 PCOD8264503
Probable space group: C M C A
;
_chemical_formula_sum "Si O2"
_cell_formula_units_Z 112
_cell_length_a 16.002722
_cell_length_b 23.593587
_cell_length_c 14.241845
_cell_angle_alpha 90.000000
_cell_angle_beta 90.000000
_cell_angle_gamma 90.000000
_cell_volume 5377.173981
_symmetry_space_group_name_H-M "C M C A"
_symmetry_group_IT_number 64
_symmetry_cell_setting 'orthorhombic'
loop_
_space_group_symop_operation_xyz
x,y,z
-x,1/2-y,1/2+z
x,-y,-z
-x,1/2+y,1/2-z
-x,-y,-z
x,1/2+y,1/2-z
-x,y,z
x,1/2-y,1/2+z
1/2+x,1/2+y,z
1/2-x,-y,1/2+z
1/2+x,1/2-y,-z
1/2-x,y,1/2-z
1/2-x,1/2-y,-z
1/2+x,y,1/2-z
1/2-x,1/2+y,z
1/2+x,-y,1/2+z
loop_
_atom_site_type_symbol
_atom_site_label
_atom_site_fract_x
_atom_site_fract_y
_atom_site_fract_z
Si Si1 0.903965 0.334549 0.477494
Si Si2 0.665408 0.046074 0.930548
Si Si3 0.595053 0.211977 0.951986
Si Si4 0.096070 0.549031 0.435014
Si Si5 0.747705 0.847608 0.140715
Si Si6 0.344467 0.535949 0.272230
Si Si7 0.907907 0.882401 0.585817
O O1 0.899014 0.279441 0.542730
O O2 0.870991 0.388178 0.538344
O O3 0.837492 0.324567 0.393990
O O4 0.000000 0.341910 0.439794
O O5 0.737367 0.089160 0.899614
O O6 0.622687 0.014683 0.840638
O O7 0.596096 0.079794 0.990576
O O8 0.708284 0.000000 0.000000
O O9 0.500000 0.195058 0.918940
O O10 0.668078 0.191835 0.882834
O O11 0.612193 0.182236 0.054262
O O12 0.138272 0.500000 0.500000
O O13 0.105848 0.536820 0.324615
O O14 0.000000 0.549759 0.459983
O O15 0.750000 0.851585 0.250000
O O16 0.250000 0.522456 0.250000
O O17 0.348620 0.595419 0.330168
O O18 0.000000 0.887502 0.628450
#
# Coordination Sequence:
#
# PCOD8264503 Si02
#       7
#    16  16  16  16  16  16  16
#     4  10  23  43  65  87 123 169 208 253 313 369
#     4   9  21  36  58  89 120 160 197 250 315 368
#     4   9  20  43  67  89 122 164 204 258 319 369
#     4  10  24  41  59  83 119 163 203 249 299 367
#     4  11  23  38  63  97 125 163 210 260 313 377
#     4  11  23  34  57  89 117 158 196 246 304 368
#     4   9  19  38  62  87 115 150 198 255 309 362
#
# _framework density 20.828785
#
# number of rings (size 3 to 8) (size 9 to 14) (size 15 to 20)
#    0.000    2.143    0.000    1.286   10.000    3.714 
#    2.571    0.000    0.000    0.000    0.000    0.000 
#    0.000    0.000    0.000    0.000    0.000    0.000 
#
# Total GULP energy -693858.521527 kJ/mol
# GULP energy per Si atom -12390.330742 kJ/mol
# Density = 2.078138 g / cm^3
# Si number density = 20.828785 Si / 1000 Ang^3
#
#
#
# Elastic Constant Matrix: (Units=GPa)
#
#
# Indices 1 2 3 4 5 6 
#
# 1 82.1545 32.6034 27.3842 0.0000 0.0000 0.0000
# 2 32.6034 139.7142 51.9314 0.0000 0.0000 0.0000
# 3 27.3842 51.9314 113.6446 0.0000 0.0000 0.0000
# 4 0.0000 0.0000 0.0000 15.3515 0.0000 0.0000
# 5 0.0000 0.0000 0.0000 0.0000 25.0333 0.0000
# 6 0.0000 0.0000 0.0000 0.0000 0.0000 26.3667
#
#
#
# Elastic Compliance Matrix: (Units=1/GPa)
#
#
# Indices 1 2 3 4 5 6 
#
# 1 0.013874 -0.002403 -0.002245 0.000000 0.000000 0.000000
# 2 -0.002403 0.009038 -0.003551 0.000000 0.000000 0.000000
# 3 -0.002245 -0.003551 0.010963 0.000000 0.000000 0.000000
# 4 0.000000 0.000000 0.000000 0.065140 0.000000 0.000000
# 5 0.000000 0.000000 0.000000 0.000000 0.039947 0.000000
# 6 0.000000 0.000000 0.000000 0.000000 0.000000 0.037927
#
#
# Mechanical properties :
#
#
# Convention : Reuss Voigt Hill
#
# Bulk Modulus (GPa) = 57.21821 62.15013 59.68417
# Shear Modulus (GPa) = 25.11133 28.25659 26.68396
#
# Velocity S-wave (km/s) = 3.47595 3.68722 3.58314
# Velocity P-wave (km/s) = 6.60606 6.93042 6.77019
#
# Compressibility (1/GPa) = 0.01747695
#
# Stress axis : x y z
#
# Youngs Moduli (GPa) = 72.07606 110.64164 91.21572
#
# Poissons Ratio (x) = 0.26589 0.20478
# Poissons Ratio (y) = 0.17321 0.32391
# Poissons Ratio (z) = 0.16181 0.39289
#
# Static dielectric constant tensor:
#      x y z
#    x 3.831260 0.000000 0.000000 
#    y 0.000000 4.585790 0.000000 
#    z 0.000000 0.000000 3.921090 
# 
# 
# High freq. dielectric constant tensor:
#      x y z
#    x 1.814440 0.000000 0.000000 
#    y 0.000000 1.821730 0.000000 
#    z 0.000000 0.000000 1.795230 
# 
# From -- ./inp_files/24243.got.cif
#   From: 2010.03.12/outbox.cif.g09.slc.cpg/sg64_13_cif.got.tgz:24243.got - 2010.04.10 20:19:32.
