data_PCOD8264547
_publ_section_title
;
Structure prediction by ZEFSAII (Michael W. Deem and Ramdas Pophale) SiO2 
 PCOD8264547
Probable space group: C M C A
;
_chemical_formula_sum "Si O2"
_cell_formula_units_Z 72
_cell_length_a 19.300576
_cell_length_b 22.413284
_cell_length_c 8.608484
_cell_angle_alpha 90.000000
_cell_angle_beta 90.000000
_cell_angle_gamma 90.000000
_cell_volume 3723.937992
_symmetry_space_group_name_H-M "C M C A"
_symmetry_group_IT_number 64
_symmetry_cell_setting 'orthorhombic'
loop_
_space_group_symop_operation_xyz
x,y,z
-x,1/2-y,1/2+z
x,-y,-z
-x,1/2+y,1/2-z
-x,-y,-z
x,1/2+y,1/2-z
-x,y,z
x,1/2-y,1/2+z
1/2+x,1/2+y,z
1/2-x,-y,1/2+z
1/2+x,1/2-y,-z
1/2-x,y,1/2-z
1/2-x,1/2-y,-z
1/2+x,y,1/2-z
1/2-x,1/2+y,z
1/2+x,-y,1/2+z
loop_
_atom_site_type_symbol
_atom_site_label
_atom_site_fract_x
_atom_site_fract_y
_atom_site_fract_z
Si Si1 0.250000 0.763101 0.250000
Si Si2 0.077843 0.587953 0.422801
Si Si3 0.201572 0.666914 0.485189
Si Si4 0.786827 0.059315 0.585947
Si Si5 0.921793 0.527605 0.754757
O O1 0.212696 0.722518 0.374180
O O2 0.195613 0.806672 0.160232
O O3 0.130522 0.642132 0.416966
O O4 0.094179 0.541971 0.282155
O O5 0.087613 0.559330 0.590927
O O6 0.000000 0.612352 0.403370
O O7 0.263663 0.617039 0.483795
O O8 0.750000 0.062540 0.750000
O O9 0.869859 0.054663 0.615635
O O10 0.759975 0.000000 0.500000
O O11 0.000000 0.535821 0.818725
#
# Coordination Sequence:
#
# PCOD8264547 Si02
#       5
#     8  16  16  16  16
#     4  10  24  38  60  76 112 154 190 258 272 334
#     4   9  17  33  59  82 115 152 184 227 288 355
#     4  11  21  40  57  84 112 147 202 232 295 328
#     4  12  23  34  58  90 117 147 186 242 286 348
#     4   9  18  33  52  84 122 153 175 221 297 354
#
# _framework density 19.33437
#
# number of rings (size 3 to 8) (size 9 to 14) (size 15 to 20)
#    0.000    1.778    3.333    2.667    4.667    0.444 
#    0.000    1.111    0.000    5.333    0.000    0.000 
#    0.000    0.000    0.000    0.000    0.000    0.000 
#
# Total GULP energy -446097.372393 kJ/mol
# GULP energy per Si atom -12391.593678 kJ/mol
# Density = 1.929036 g / cm^3
# Si number density = 19.334370 Si / 1000 Ang^3
#
#
#
# Elastic Constant Matrix: (Units=GPa)
#
#
# Indices 1 2 3 4 5 6 
#
# 1 123.1629 48.3694 19.7062 0.0000 0.0000 0.0000
# 2 48.3694 96.8642 20.5766 0.0000 0.0000 0.0000
# 3 19.7062 20.5766 38.7504 0.0000 0.0000 0.0000
# 4 0.0000 0.0000 0.0000 24.5799 0.0000 0.0000
# 5 0.0000 0.0000 0.0000 0.0000 16.1036 0.0000
# 6 0.0000 0.0000 0.0000 0.0000 0.0000 19.5009
#
#
#
# Elastic Compliance Matrix: (Units=1/GPa)
#
#
# Indices 1 2 3 4 5 6 
#
# 1 0.010371 -0.004574 -0.002845 0.000000 0.000000 0.000000
# 2 -0.004574 0.013654 -0.004924 0.000000 0.000000 0.000000
# 3 -0.002845 -0.004924 0.029868 0.000000 0.000000 0.000000
# 4 0.000000 0.000000 0.000000 0.040684 0.000000 0.000000
# 5 0.000000 0.000000 0.000000 0.000000 0.062098 0.000000
# 6 0.000000 0.000000 0.000000 0.000000 0.000000 0.051280
#
#
# Mechanical properties :
#
#
# Convention : Reuss Voigt Hill
#
# Bulk Modulus (GPa) = 34.23991 48.45356 41.34673
# Shear Modulus (GPa) = 20.62909 23.37857 22.00383
#
# Velocity S-wave (km/s) = 3.26999 3.48109 3.37719
# Velocity P-wave (km/s) = 5.65728 6.42437 6.05299
#
# Compressibility (1/GPa) = 0.02920568
#
# Stress axis : x y z
#
# Youngs Moduli (GPa) = 96.42219 73.23867 33.48093
#
# Poissons Ratio (x) = 0.33503 0.09526
# Poissons Ratio (y) = 0.44108 0.16486
# Poissons Ratio (z) = 0.27433 0.36063
#
# Static dielectric constant tensor:
#      x y z
#    x 3.777010 0.000000 0.000000 
#    y 0.000000 3.798640 0.000000 
#    z 0.000000 0.000000 3.747460 
# 
# 
# High freq. dielectric constant tensor:
#      x y z
#    x 1.740130 0.000000 0.000000 
#    y 0.000000 1.744560 0.000000 
#    z 0.000000 0.000000 1.750370 
# 
# From -- ./inp_files/8042.got.cif
#   From: 2010.03.12/outbox.cif.g09.slc.cpg/sg64_5_cif.got.tgz:8042.got - 2010.04.10 20:19:32.
