data_PCOD8264463
_publ_section_title
;
Structure prediction by ZEFSAII (Michael W. Deem and Ramdas Pophale) SiO2 
 PCOD8264463
Probable space group: C M C A
;
_chemical_formula_sum "Si O2"
_cell_formula_units_Z 112
_cell_length_a 25.371247
_cell_length_b 14.149094
_cell_length_c 15.582151
_cell_angle_alpha 90.000000
_cell_angle_beta 90.000000
_cell_angle_gamma 90.000000
_cell_volume 5593.683039
_symmetry_space_group_name_H-M "C M C A"
_symmetry_group_IT_number 64
_symmetry_cell_setting 'orthorhombic'
loop_
_space_group_symop_operation_xyz
x,y,z
-x,1/2-y,1/2+z
x,-y,-z
-x,1/2+y,1/2-z
-x,-y,-z
x,1/2+y,1/2-z
-x,y,z
x,1/2-y,1/2+z
1/2+x,1/2+y,z
1/2-x,-y,1/2+z
1/2+x,1/2-y,-z
1/2-x,y,1/2-z
1/2-x,1/2-y,-z
1/2+x,y,1/2-z
1/2-x,1/2+y,z
1/2+x,-y,1/2+z
loop_
_atom_site_type_symbol
_atom_site_label
_atom_site_fract_x
_atom_site_fract_y
_atom_site_fract_z
Si Si1 0.296007 0.687455 0.395380
Si Si2 0.060940 0.117365 0.825994
Si Si3 0.361560 0.247548 0.755640
Si Si4 0.130247 0.935776 0.842443
Si Si5 0.201267 0.817492 0.415742
Si Si6 0.246627 0.002472 0.847422
Si Si7 0.943132 0.610638 0.484860
O O1 0.324553 0.759279 0.329048
O O2 0.237259 0.725368 0.409272
O O3 0.325206 0.682437 0.488722
O O4 0.288032 0.583185 0.356423
O O5 0.082551 0.198879 0.763785
O O6 0.000000 0.097522 0.804490
O O7 0.093092 0.020593 0.811343
O O8 0.068696 0.156865 0.922778
O O9 0.366384 0.360094 0.766472
O O10 0.340189 0.190833 0.838277
O O11 0.104584 0.872822 0.919362
O O12 0.186895 0.974366 0.872030
O O13 0.235491 0.913151 0.409340
O O14 0.250000 0.039115 0.750000
O O15 0.948231 0.500000 0.500000
O O16 0.000000 0.647834 0.449195
#
# Coordination Sequence:
#
# PCOD8264463 Si02
#       7
#    16  16  16  16  16  16  16
#     4  11  23  40  57  91 128 163 208 251 303 367
#     4  10  23  41  63  91 120 155 204 262 319 367
#     4  12  24  40  63  89 123 166 205 251 308 375
#     4  11  21  36  64  90 121 158 207 254 311 360
#     4  11  24  38  60  87 127 167 207 251 301 369
#     4  12  21  38  59  88 127 170 206 250 300 361
#     4   8  17  35  59  88 116 143 195 265 315 357
#
# _framework density 20.022586
#
# number of rings (size 3 to 8) (size 9 to 14) (size 15 to 20)
#    0.000    1.286    2.857    4.714    2.000    4.571 
#    0.000    0.000    0.000    0.000    0.000    1.000 
#    0.000    0.000    0.000    0.000    0.000    0.000 
#
# Total GULP energy -694205.030324 kJ/mol
# GULP energy per Si atom -12396.518399 kJ/mol
# Density = 1.997701 g / cm^3
# Si number density = 20.022586 Si / 1000 Ang^3
#
#
#
# Elastic Constant Matrix: (Units=GPa)
#
#
# Indices 1 2 3 4 5 6 
#
# 1 103.3264 24.1789 45.8134 0.0000 0.0000 0.0000
# 2 24.1789 75.8445 12.8653 0.0000 0.0000 0.0000
# 3 45.8134 12.8653 109.7655 0.0000 0.0000 0.0000
# 4 0.0000 0.0000 0.0000 28.9570 0.0000 0.0000
# 5 0.0000 0.0000 0.0000 0.0000 20.3183 0.0000
# 6 0.0000 0.0000 0.0000 0.0000 0.0000 15.9118
#
#
#
# Elastic Compliance Matrix: (Units=1/GPa)
#
#
# Indices 1 2 3 4 5 6 
#
# 1 0.012587 -0.003185 -0.004880 0.000000 0.000000 0.000000
# 2 -0.003185 0.014258 -0.000342 0.000000 0.000000 0.000000
# 3 -0.004880 -0.000342 0.011187 0.000000 0.000000 0.000000
# 4 0.000000 0.000000 0.000000 0.034534 0.000000 0.000000
# 5 0.000000 0.000000 0.000000 0.000000 0.049217 0.000000
# 6 0.000000 0.000000 0.000000 0.000000 0.000000 0.062846
#
#
# Mechanical properties :
#
#
# Convention : Reuss Voigt Hill
#
# Bulk Modulus (GPa) = 47.12851 50.51686 48.82268
# Shear Modulus (GPa) = 23.97887 26.77600 25.37743
#
# Velocity S-wave (km/s) = 3.46438 3.66086 3.56397
# Velocity P-wave (km/s) = 6.29216 6.56917 6.43216
#
# Compressibility (1/GPa) = 0.02121858
#
# Stress axis : x y z
#
# Youngs Moduli (GPa) = 79.44577 70.13508 89.38697
#
# Poissons Ratio (x) = 0.22337 0.43623
# Poissons Ratio (y) = 0.25303 0.03056
# Poissons Ratio (z) = 0.38772 0.02398
#
# Static dielectric constant tensor:
#      x y z
#    x 3.599010 0.000000 0.000000 
#    y 0.000000 3.431120 0.000000 
#    z 0.000000 0.000000 4.129140 
# 
# 
# High freq. dielectric constant tensor:
#      x y z
#    x 1.763570 0.000000 0.000000 
#    y 0.000000 1.770740 0.000000 
#    z 0.000000 0.000000 1.785190 
# 
# From -- ./inp_files/28083.got.cif
#   From: 2010.03.12/outbox.cif.g09.slc.cpg/sg64_15_cif.got.tgz:28083.got - 2010.04.10 20:19:32.
