data_PCOD8264033
_publ_section_title
;
Structure prediction by ZEFSAII (Michael W. Deem and Ramdas Pophale) SiO2 
 PCOD8264033
Probable space group: C M C A
;
_chemical_formula_sum "Si O2"
_cell_formula_units_Z 80
_cell_length_a 17.974361
_cell_length_b 24.190339
_cell_length_c 9.601358
_cell_angle_alpha 90.000000
_cell_angle_beta 90.000000
_cell_angle_gamma 90.000000
_cell_volume 4174.726971
_symmetry_space_group_name_H-M "C M C A"
_symmetry_group_IT_number 64
_symmetry_cell_setting 'orthorhombic'
loop_
_space_group_symop_operation_xyz
x,y,z
-x,1/2-y,1/2+z
x,-y,-z
-x,1/2+y,1/2-z
-x,-y,-z
x,1/2+y,1/2-z
-x,y,z
x,1/2-y,1/2+z
1/2+x,1/2+y,z
1/2-x,-y,1/2+z
1/2+x,1/2-y,-z
1/2-x,y,1/2-z
1/2-x,1/2-y,-z
1/2+x,y,1/2-z
1/2-x,1/2+y,z
1/2+x,-y,1/2+z
loop_
_atom_site_type_symbol
_atom_site_label
_atom_site_fract_x
_atom_site_fract_y
_atom_site_fract_z
Si Si1 0.805281 0.244332 0.374298
Si Si2 0.914961 0.532609 0.131166
Si Si3 0.820708 0.975574 0.150300
Si Si4 0.337135 0.642426 0.774331
Si Si5 0.086047 0.847794 0.520432
O O1 0.750000 0.227852 0.250000
O O2 0.750000 0.250000 0.500000
O O3 0.854441 0.300365 0.354398
O O4 0.866588 0.197874 0.399811
O O5 0.879197 0.516203 0.277839
O O6 0.904855 0.597580 0.112240
O O7 0.000000 0.514347 0.141294
O O8 0.878218 0.500000 0.000000
O O9 0.750000 0.972857 0.250000
O O10 0.854504 0.913198 0.136862
O O11 0.799825 0.000000 0.000000
O O12 0.250000 0.646096 0.750000
O O13 0.383781 0.639964 0.633080
O O14 0.000000 0.829420 0.510355
#
# Coordination Sequence:
#
# PCOD8264033 Si02
#       5
#    16  16  16  16  16
#     4  11  22  41  65  90 126 171 213 262 320 376
#     4  10  21  40  64  89 123 167 206 249 318 384
#     4  11  24  38  63  98 129 162 213 265 311 377
#     4  10  21  40  64  89 129 167 210 256 328 374
#     4  11  23  41  67  96 127 169 216 263 316 384
#
# _framework density 19.162929999999999
#
# number of rings (size 3 to 8) (size 9 to 14) (size 15 to 20)
#    0.000    1.400    6.000    0.600    2.800    3.600 
#    0.000    0.000    0.000    0.000    0.000    0.000 
#    0.000    0.000    0.000    0.000    0.000    0.000 
#
# Total GULP energy -495853.902728 kJ/mol
# GULP energy per Si atom -12396.347568 kJ/mol
# Density = 1.911931 g / cm^3
# Si number density = 19.162930 Si / 1000 Ang^3
#
#
#
# Elastic Constant Matrix: (Units=GPa)
#
#
# Indices 1 2 3 4 5 6 
#
# 1 98.6782 53.5799 42.2035 0.0000 0.0000 0.0000
# 2 53.5799 130.0620 49.7220 0.0000 0.0000 0.0000
# 3 42.2035 49.7220 115.2294 0.0000 0.0000 0.0000
# 4 0.0000 0.0000 0.0000 31.6214 0.0000 0.0000
# 5 0.0000 0.0000 0.0000 0.0000 30.8290 0.0000
# 6 0.0000 0.0000 0.0000 0.0000 0.0000 33.5022
#
#
#
# Elastic Compliance Matrix: (Units=1/GPa)
#
#
# Indices 1 2 3 4 5 6 
#
# 1 0.013946 -0.004542 -0.003148 0.000000 0.000000 0.000000
# 2 -0.004542 0.010687 -0.002948 0.000000 0.000000 0.000000
# 3 -0.003148 -0.002948 0.011103 0.000000 0.000000 0.000000
# 4 0.000000 0.000000 0.000000 0.031624 0.000000 0.000000
# 5 0.000000 0.000000 0.000000 0.000000 0.032437 0.000000
# 6 0.000000 0.000000 0.000000 0.000000 0.000000 0.029849
#
#
# Mechanical properties :
#
#
# Convention : Reuss Voigt Hill
#
# Bulk Modulus (GPa) = 69.15242 70.55336 69.85289
# Shear Modulus (GPa) = 32.10429 32.42146 32.26287
#
# Velocity S-wave (km/s) = 4.09752 4.11771 4.10763
# Velocity P-wave (km/s) = 7.65187 7.71395 7.68297
#
# Compressibility (1/GPa) = 0.01446081
#
# Stress axis : x y z
#
# Youngs Moduli (GPa) = 71.70266 93.57490 90.06258
#
# Poissons Ratio (x) = 0.42500 0.28353
# Poissons Ratio (y) = 0.32566 0.26549
# Poissons Ratio (z) = 0.22573 0.27585
#
# Static dielectric constant tensor:
#      x y z
#    x 3.438820 0.000000 0.000000 
#    y 0.000000 4.022270 0.000000 
#    z 0.000000 0.000000 3.337350 
# 
# 
# High freq. dielectric constant tensor:
#      x y z
#    x 1.738580 0.000000 0.000000 
#    y 0.000000 1.764740 0.000000 
#    z 0.000000 0.000000 1.735340 
# 
# From -- ./inp_files/7027.got.cif
#   From: 2010.03.12/outbox.cif.g09.slc.cpg/sg64_4_cif.got.tgz:7027.got - 2010.04.10 20:19:32.
