data_PCOD8264226
_publ_section_title
;
Structure prediction by ZEFSAII (Michael W. Deem and Ramdas Pophale) SiO2 
 PCOD8264226
Probable space group: C M C A
;
_chemical_formula_sum "Si O2"
_cell_formula_units_Z 112
_cell_length_a 17.571758
_cell_length_b 29.661268
_cell_length_c 11.044502
_cell_angle_alpha 90.000000
_cell_angle_beta 90.000000
_cell_angle_gamma 90.000000
_cell_volume 5756.401326
_symmetry_space_group_name_H-M "C M C A"
_symmetry_group_IT_number 64
_symmetry_cell_setting 'orthorhombic'
loop_
_space_group_symop_operation_xyz
x,y,z
-x,1/2-y,1/2+z
x,-y,-z
-x,1/2+y,1/2-z
-x,-y,-z
x,1/2+y,1/2-z
-x,y,z
x,1/2-y,1/2+z
1/2+x,1/2+y,z
1/2-x,-y,1/2+z
1/2+x,1/2-y,-z
1/2-x,y,1/2-z
1/2-x,1/2-y,-z
1/2+x,y,1/2-z
1/2-x,1/2+y,z
1/2+x,-y,1/2+z
loop_
_atom_site_type_symbol
_atom_site_label
_atom_site_fract_x
_atom_site_fract_y
_atom_site_fract_z
Si Si1 0.301194 0.055495 0.868259
Si Si2 0.351702 0.849022 0.096769
Si Si3 0.305867 0.955077 0.861870
Si Si4 0.292264 0.208073 0.560825
Si Si5 0.416894 0.776166 0.250777
Si Si6 0.085042 0.684541 0.381605
Si Si7 0.911769 0.873521 0.648477
O O1 0.250000 0.062676 0.750000
O O2 0.357408 0.098288 0.865305
O O3 0.339122 0.006173 0.854455
O O4 0.264726 0.054913 0.006392
O O5 0.411992 0.823378 0.180006
O O6 0.268005 0.827162 0.116431
O O7 0.373214 0.843618 0.956277
O O8 0.250000 0.945600 0.750000
O O9 0.378536 0.923572 0.845298
O O10 0.250000 0.250000 0.500000
O O11 0.346191 0.230385 0.660898
O O12 0.348108 0.177669 0.478241
O O13 0.500000 0.774542 0.316882
O O14 0.412182 0.736674 0.153714
O O15 0.105678 0.652248 0.271461
O O16 0.000000 0.672753 0.431450
O O17 0.000000 0.877901 0.620367
#
# Coordination Sequence:
#
# PCOD8264226 Si02
#       7
#    16  16  16  16  16  16  16
#     4   9  18  35  56  86 119 147 185 243 300 348
#     4  11  22  36  59  84 115 148 195 239 284 341
#     4   9  19  35  59  87 113 148 193 239 294 351
#     4  12  23  36  57  84 112 148 200 241 275 333
#     4  11  23  39  55  77 115 155 190 233 289 342
#     4  10  23  38  55  79 116 155 190 234 291 340
#     4  10  22  39  58  84 114 151 189 236 295 349
#
# _framework density 19.456600999999999
#
# number of rings (size 3 to 8) (size 9 to 14) (size 15 to 20)
#    0.000    1.714    1.429    3.000    4.000    1.143 
#    0.000    6.429    0.000    0.000    0.000    8.000 
#    0.000    0.000    0.000    0.000    0.000    0.000 
#
# Total GULP energy -693831.369145 kJ/mol
# GULP energy per Si atom -12389.845878 kJ/mol
# Density = 1.941232 g / cm^3
# Si number density = 19.456601 Si / 1000 Ang^3
#
#
#
# Elastic Constant Matrix: (Units=GPa)
#
#
# Indices 1 2 3 4 5 6 
#
# 1 87.3162 19.2302 18.7481 0.0000 0.0000 0.0000
# 2 19.2302 98.1463 19.7212 0.0000 0.0000 0.0000
# 3 18.7481 19.7212 71.0646 0.0000 0.0000 0.0000
# 4 0.0000 0.0000 0.0000 29.1070 0.0000 0.0000
# 5 0.0000 0.0000 0.0000 0.0000 33.3198 0.0000
# 6 0.0000 0.0000 0.0000 0.0000 0.0000 19.3122
#
#
#
# Elastic Compliance Matrix: (Units=1/GPa)
#
#
# Indices 1 2 3 4 5 6 
#
# 1 0.012462 -0.001886 -0.002764 0.000000 0.000000 0.000000
# 2 -0.001886 0.011076 -0.002576 0.000000 0.000000 0.000000
# 3 -0.002764 -0.002576 0.015516 0.000000 0.000000 0.000000
# 4 0.000000 0.000000 0.000000 0.034356 0.000000 0.000000
# 5 0.000000 0.000000 0.000000 0.000000 0.030012 0.000000
# 6 0.000000 0.000000 0.000000 0.000000 0.000000 0.051781
#
#
# Mechanical properties :
#
#
# Convention : Reuss Voigt Hill
#
# Bulk Modulus (GPa) = 40.64957 41.32514 40.98735
# Shear Modulus (GPa) = 28.11270 29.60296 28.85783
#
# Velocity S-wave (km/s) = 3.80530 3.90486 3.85540
# Velocity P-wave (km/s) = 6.34388 6.45107 6.39770
#
# Compressibility (1/GPa) = 0.02460051
#
# Stress axis : x y z
#
# Youngs Moduli (GPa) = 80.24687 90.28455 64.45033
#
# Poissons Ratio (x) = 0.17030 0.17815
# Poissons Ratio (y) = 0.15136 0.16603
# Poissons Ratio (z) = 0.22181 0.23258
#
# Static dielectric constant tensor:
#      x y z
#    x 3.527270 0.000000 0.000000 
#    y 0.000000 3.675810 0.000000 
#    z 0.000000 0.000000 3.782460 
# 
# 
# High freq. dielectric constant tensor:
#      x y z
#    x 1.736470 0.000000 0.000000 
#    y 0.000000 1.764140 0.000000 
#    z 0.000000 0.000000 1.768320 
# 
# From -- ./inp_files/14958.got.cif
#   From: 2010.03.12/outbox.cif.g09.slc.cpg/sg64_8_cif.got.tgz:14958.got - 2010.04.10 20:19:32.
