data_PCOD8264372
_publ_section_title
;
Structure prediction by ZEFSAII (Michael W. Deem and Ramdas Pophale) SiO2 
 PCOD8264372
Probable space group: C M C A
;
_chemical_formula_sum "Si O2"
_cell_formula_units_Z 64
_cell_length_a 15.252572
_cell_length_b 14.899188
_cell_length_c 11.613009
_cell_angle_alpha 90.000000
_cell_angle_beta 90.000000
_cell_angle_gamma 90.000000
_cell_volume 2639.067185
_symmetry_space_group_name_H-M "C M C A"
_symmetry_group_IT_number 64
_symmetry_cell_setting 'orthorhombic'
loop_
_space_group_symop_operation_xyz
x,y,z
-x,1/2-y,1/2+z
x,-y,-z
-x,1/2+y,1/2-z
-x,-y,-z
x,1/2+y,1/2-z
-x,y,z
x,1/2-y,1/2+z
1/2+x,1/2+y,z
1/2-x,-y,1/2+z
1/2+x,1/2-y,-z
1/2-x,y,1/2-z
1/2-x,1/2-y,-z
1/2+x,y,1/2-z
1/2-x,1/2+y,z
1/2+x,-y,1/2+z
loop_
_atom_site_type_symbol
_atom_site_label
_atom_site_fract_x
_atom_site_fract_y
_atom_site_fract_z
Si Si1 0.098039 0.691745 0.310847
Si Si2 0.672143 0.445452 0.659468
Si Si3 0.395971 0.382466 0.231209
Si Si4 0.782933 0.852324 0.008034
O O1 0.106051 0.635873 0.192223
O O2 0.135378 0.791981 0.293925
O O3 0.143376 0.637477 0.411914
O O4 0.000000 0.701622 0.351124
O O5 0.750000 0.439148 0.750000
O O6 0.621709 0.539781 0.675191
O O7 0.705614 0.422511 0.529103
O O8 0.500000 0.380906 0.195363
O O9 0.328193 0.389490 0.124065
O O10 0.750000 0.750000 0.000000
#
# Coordination Sequence:
#
# PCOD8264372 Si02
#       4
#    16  16  16  16
#     4  10  22  42  65  98 141 183 235 297 357 429
#     4  10  23  40  67 103 137 181 234 303 343 426
#     4  11  24  44  72 102 144 192 235 297 372 435
#     4  11  23  43  71 102 136 188 244 296 357 435
#
# _framework density 24.250993999999999
#
# number of rings (size 3 to 8) (size 9 to 14) (size 15 to 20)
#    0.000    1.500    2.500    1.500    3.500    4.000 
#    0.000    6.250    0.000    3.000    0.000    0.000 
#    0.000    0.000    0.000    0.000    0.000    0.000 
#
# Total GULP energy -396488.278853 kJ/mol
# GULP energy per Si atom -12390.258714 kJ/mol
# Density = 2.419580 g / cm^3
# Si number density = 24.250994 Si / 1000 Ang^3
#
#
#
# Elastic Constant Matrix: (Units=GPa)
#
#
# Indices 1 2 3 4 5 6 
#
# 1 62.5149 33.4285 48.1415 0.0000 0.0000 0.0000
# 2 33.4285 195.4431 42.1470 0.0000 0.0000 0.0000
# 3 48.1415 42.1470 81.7033 0.0000 0.0000 0.0000
# 4 0.0000 0.0000 0.0000 32.9867 0.0000 0.0000
# 5 0.0000 0.0000 0.0000 0.0000 29.6152 0.0000
# 6 0.0000 0.0000 0.0000 0.0000 0.0000 37.7576
#
#
#
# Elastic Compliance Matrix: (Units=1/GPa)
#
#
# Indices 1 2 3 4 5 6 
#
# 1 0.029653 -0.001467 -0.016715 0.000000 0.000000 0.000000
# 2 -0.001467 0.005830 -0.002143 0.000000 0.000000 0.000000
# 3 -0.016715 -0.002143 0.023194 0.000000 0.000000 0.000000
# 4 0.000000 0.000000 0.000000 0.030315 0.000000 0.000000
# 5 0.000000 0.000000 0.000000 0.000000 0.033766 0.000000
# 6 0.000000 0.000000 0.000000 0.000000 0.000000 0.026485
#
#
# Mechanical properties :
#
#
# Convention : Reuss Voigt Hill
#
# Bulk Modulus (GPa) = 55.47595 65.23279 60.35437
# Shear Modulus (GPa) = 25.52299 34.46817 29.99558
#
# Velocity S-wave (km/s) = 3.24767 3.77412 3.52075
# Velocity P-wave (km/s) = 6.08182 6.77860 6.43964
#
# Compressibility (1/GPa) = 0.01802583
#
# Stress axis : x y z
#
# Youngs Moduli (GPa) = 33.72353 171.53831 43.11498
#
# Poissons Ratio (x) = 0.25168 0.72068
# Poissons Ratio (y) = 0.04948 0.09238
# Poissons Ratio (z) = 0.56370 0.36756
#
# Static dielectric constant tensor:
#      x y z
#    x 4.575010 0.000000 0.000000 
#    y 0.000000 5.340940 0.000000 
#    z 0.000000 0.000000 4.332730 
# 
# 
# High freq. dielectric constant tensor:
#      x y z
#    x 1.960610 0.000000 0.000000 
#    y 0.000000 1.985540 0.000000 
#    z 0.000000 0.000000 1.949420 
# 
# From -- ./inp_files/23250.got.cif
#   From: 2010.03.12/outbox.cif.g09.slc.cpg/sg64_12_cif.got.tgz:23250.got - 2010.04.10 20:19:32.
