data_PCOD8264308
_publ_section_title
;
Structure prediction by ZEFSAII (Michael W. Deem and Ramdas Pophale) SiO2 
 PCOD8264308
Probable space group: C M C A
;
_chemical_formula_sum "Si O2"
_cell_formula_units_Z 64
_cell_length_a 10.014720
_cell_length_b 29.186898
_cell_length_c 10.249307
_cell_angle_alpha 90.000000
_cell_angle_beta 90.000000
_cell_angle_gamma 90.000000
_cell_volume 2995.858201
_symmetry_space_group_name_H-M "C M C A"
_symmetry_group_IT_number 64
_symmetry_cell_setting 'orthorhombic'
loop_
_space_group_symop_operation_xyz
x,y,z
-x,1/2-y,1/2+z
x,-y,-z
-x,1/2+y,1/2-z
-x,-y,-z
x,1/2+y,1/2-z
-x,y,z
x,1/2-y,1/2+z
1/2+x,1/2+y,z
1/2-x,-y,1/2+z
1/2+x,1/2-y,-z
1/2-x,y,1/2-z
1/2-x,1/2-y,-z
1/2+x,y,1/2-z
1/2-x,1/2+y,z
1/2+x,-y,1/2+z
loop_
_atom_site_type_symbol
_atom_site_label
_atom_site_fract_x
_atom_site_fract_y
_atom_site_fract_z
Si Si1 0.750000 0.801604 0.250000
Si Si2 0.777188 0.624771 0.538404
Si Si3 0.500000 0.761288 0.121240
Si Si4 0.155417 0.474085 0.366770
Si Si5 0.000000 0.658074 0.365438
Si Si6 0.000000 0.653136 0.058103
O O1 0.805138 0.832994 0.133989
O O2 0.631356 0.768618 0.207076
O O3 0.815216 0.579308 0.615570
O O4 0.870112 0.630518 0.412208
O O5 0.624665 0.623682 0.492076
O O6 0.500000 0.709049 0.073687
O O7 0.500000 0.795425 0.998399
O O8 0.192910 0.500000 0.500000
O O9 0.250000 0.493000 0.250000
O O10 0.000000 0.482079 0.329826
O O11 0.000000 0.659213 0.211145
#
# Coordination Sequence:
#
# PCOD8264308 Si02
#       6
#     8  16   8  16   8   8
#     4  10  22  40  68  90 126 170 232 270 328 404
#     4  11  23  44  69  96 132 181 220 281 338 410
#     4  10  25  38  61  95 127 176 228 282 339 387
#     4  11  26  48  76 109 142 178 231 285 348 419
#     4  12  25  40  64  92 141 174 229 287 337 402
#     4  10  26  40  61  99 131 178 227 279 344 402
#
# _framework density 21.362828
#
# number of rings (size 3 to 8) (size 9 to 14) (size 15 to 20)
#    0.000    1.250    2.500    1.500    8.750    4.500 
#    0.000    0.000    0.000    0.000    0.000    0.000 
#    0.000    0.000    0.000    0.000    0.000    0.000 
#
# Total GULP energy -396975.115787 kJ/mol
# GULP energy per Si atom -12405.472368 kJ/mol
# Density = 2.131420 g / cm^3
# Si number density = 21.362828 Si / 1000 Ang^3
#
#
#
# Elastic Constant Matrix: (Units=GPa)
#
#
# Indices 1 2 3 4 5 6 
#
# 1 157.0738 28.0071 70.5763 0.0000 0.0000 0.0000
# 2 28.0071 47.9726 9.9976 0.0000 0.0000 0.0000
# 3 70.5763 9.9976 131.0276 0.0000 0.0000 0.0000
# 4 0.0000 0.0000 0.0000 21.9885 0.0000 0.0000
# 5 0.0000 0.0000 0.0000 0.0000 16.7316 0.0000
# 6 0.0000 0.0000 0.0000 0.0000 0.0000 145.7701
#
#
#
# Elastic Compliance Matrix: (Units=1/GPa)
#
#
# Indices 1 2 3 4 5 6 
#
# 1 0.009241 -0.004428 -0.004639 0.000000 0.000000 0.000000
# 2 -0.004428 0.023304 0.000607 0.000000 0.000000 0.000000
# 3 -0.004639 0.000607 0.010085 0.000000 0.000000 0.000000
# 4 0.000000 0.000000 0.000000 0.045478 0.000000 0.000000
# 5 0.000000 0.000000 0.000000 0.000000 0.059767 0.000000
# 6 0.000000 0.000000 0.000000 0.000000 0.000000 0.006860
#
#
# Mechanical properties :
#
#
# Convention : Reuss Voigt Hill
#
# Bulk Modulus (GPa) = 38.89816 61.47066 50.18441
# Shear Modulus (GPa) = 27.74313 52.06423 39.90368
#
# Velocity S-wave (km/s) = 3.60761 4.94210 4.32661
# Velocity P-wave (km/s) = 5.96666 7.83600 6.96433
#
# Compressibility (1/GPa) = 0.02570816
#
# Stress axis : x y z
#
# Youngs Moduli (GPa) = 108.21882 42.91140 99.16067
#
# Poissons Ratio (x) = 0.19001 0.46005
# Poissons Ratio (y) = 0.47918 -0.06018
# Poissons Ratio (z) = 0.50207 -0.02604
#
# Static dielectric constant tensor:
#      x y z
#    x 4.166260 0.000000 0.000000 
#    y 0.000000 3.713970 0.000000 
#    z 0.000000 0.000000 3.877290 
# 
# 
# High freq. dielectric constant tensor:
#      x y z
#    x 1.854210 0.000000 0.000000 
#    y 0.000000 1.826510 0.000000 
#    z 0.000000 0.000000 1.846130 
# 
# From -- ./inp_files/4670.got.cif
#   From: 2010.03.12/outbox.cif.g09.slc.cpg/sg64_3_cif.got.tgz:4670.got - 2010.04.10 20:19:32.
