data_PCOD8264835
_publ_section_title
;
Structure prediction by ZEFSAII (Michael W. Deem and Ramdas Pophale) SiO2 
 PCOD8264835
Probable space group: C M C A
;
_chemical_formula_sum "Si O2"
_cell_formula_units_Z 48
_cell_length_a 15.857272
_cell_length_b 26.295226
_cell_length_c 4.934530
_cell_angle_alpha 90.000000
_cell_angle_beta 90.000000
_cell_angle_gamma 90.000000
_cell_volume 2057.553693
_symmetry_space_group_name_H-M "C M C A"
_symmetry_group_IT_number 64
_symmetry_cell_setting 'orthorhombic'
loop_
_space_group_symop_operation_xyz
x,y,z
-x,1/2-y,1/2+z
x,-y,-z
-x,1/2+y,1/2-z
-x,-y,-z
x,1/2+y,1/2-z
-x,y,z
x,1/2-y,1/2+z
1/2+x,1/2+y,z
1/2-x,-y,1/2+z
1/2+x,1/2-y,-z
1/2-x,y,1/2-z
1/2-x,1/2-y,-z
1/2+x,y,1/2-z
1/2-x,1/2+y,z
1/2+x,-y,1/2+z
loop_
_atom_site_type_symbol
_atom_site_label
_atom_site_fract_x
_atom_site_fract_y
_atom_site_fract_z
Si Si1 0.100353 0.780927 0.970945
Si Si2 0.843022 0.052472 0.368104
Si Si3 0.403439 0.891132 0.368114
O O1 0.134044 0.739408 0.185368
O O2 0.134531 0.837482 0.028652
O O3 0.000000 0.783404 0.977472
O O4 0.750000 0.046084 0.250000
O O5 0.846949 0.093531 0.609699
O O6 0.876074 0.000000 0.500000
O O7 0.900688 0.068539 0.114558
O O8 0.500000 0.886347 0.268882
#
# Coordination Sequence:
#
# PCOD8264835 Si02
#       3
#    16  16  16
#     4   9  17  32  56  87 122 156 192 239 298 360
#     4  12  25  43  63  85 122 168 206 244 307 379
#     4  11  23  39  65  97 122 154 206 261 301 343
#
# _framework density 23.328673999999999
#
# number of rings (size 3 to 8) (size 9 to 14) (size 15 to 20)
#    0.000    1.333    0.000    7.000    0.000    9.333 
#    0.000    0.000    0.000   20.000    0.000    0.000 
#    0.000    0.000    0.000    0.000    0.000    0.000 
#
# Total GULP energy -297611.649445 kJ/mol
# GULP energy per Si atom -12400.485394 kJ/mol
# Density = 2.327558 g / cm^3
# Si number density = 23.328674 Si / 1000 Ang^3
#
#
#
# Elastic Constant Matrix: (Units=GPa)
#
#
# Indices 1 2 3 4 5 6 
#
# 1 22.4493 17.0232 5.7280 0.0000 0.0000 0.0000
# 2 17.0232 95.1300 15.7137 0.0000 0.0000 0.0000
# 3 5.7280 15.7137 121.3773 0.0000 0.0000 0.0000
# 4 0.0000 0.0000 0.0000 52.8914 0.0000 0.0000
# 5 0.0000 0.0000 0.0000 0.0000 38.3068 0.0000
# 6 0.0000 0.0000 0.0000 0.0000 0.0000 4.7899
#
#
#
# Elastic Compliance Matrix: (Units=1/GPa)
#
#
# Indices 1 2 3 4 5 6 
#
# 1 0.051729 -0.009047 -0.001270 0.000000 0.000000 0.000000
# 2 -0.009047 0.012324 -0.001169 0.000000 0.000000 0.000000
# 3 -0.001270 -0.001169 0.008450 0.000000 0.000000 0.000000
# 4 0.000000 0.000000 0.000000 0.018907 0.000000 0.000000
# 5 0.000000 0.000000 0.000000 0.000000 0.026105 0.000000
# 6 0.000000 0.000000 0.000000 0.000000 0.000000 0.208775
#
#
# Mechanical properties :
#
#
# Convention : Reuss Voigt Hill
#
# Bulk Modulus (GPa) = 20.18891 35.09848 27.64370
# Shear Modulus (GPa) = 13.66976 32.56374 23.11675
#
# Velocity S-wave (km/s) = 2.42330 3.74018 3.15130
# Velocity P-wave (km/s) = 4.06235 5.80774 5.01161
#
# Compressibility (1/GPa) = 0.04953213
#
# Stress axis : x y z
#
# Youngs Moduli (GPa) = 19.33146 81.14331 118.34345
#
# Poissons Ratio (x) = 0.73410 0.15029
# Poissons Ratio (y) = 0.17489 0.13829
# Poissons Ratio (z) = 0.02455 0.09482
#
# Static dielectric constant tensor:
#      x y z
#    x 3.641030 0.000000 0.000000 
#    y 0.000000 4.442050 0.000000 
#    z 0.000000 0.000000 4.454490 
# 
# 
# High freq. dielectric constant tensor:
#      x y z
#    x 1.876980 0.000000 0.000000 
#    y 0.000000 1.934060 0.000000 
#    z 0.000000 0.000000 1.943610 
# 
# From -- ./inp_files/655.got.cif
#   From: 2010.03.12/outbox.cif.g09.slc.cpg/sg64_1_cif.got.tgz:655.got - 2010.04.10 20:19:32.
