data_PCOD8264715
_publ_section_title
;
Structure prediction by ZEFSAII (Michael W. Deem and Ramdas Pophale) SiO2 
 PCOD8264715
Probable space group: C M C A
;
_chemical_formula_sum "Si O2"
_cell_formula_units_Z 96
_cell_length_a 24.935782
_cell_length_b 10.885460
_cell_length_c 17.820820
_cell_angle_alpha 90.000000
_cell_angle_beta 90.000000
_cell_angle_gamma 90.000000
_cell_volume 4837.238072
_symmetry_space_group_name_H-M "C M C A"
_symmetry_group_IT_number 64
_symmetry_cell_setting 'orthorhombic'
loop_
_space_group_symop_operation_xyz
x,y,z
-x,1/2-y,1/2+z
x,-y,-z
-x,1/2+y,1/2-z
-x,-y,-z
x,1/2+y,1/2-z
-x,y,z
x,1/2-y,1/2+z
1/2+x,1/2+y,z
1/2-x,-y,1/2+z
1/2+x,1/2-y,-z
1/2-x,y,1/2-z
1/2-x,1/2-y,-z
1/2+x,y,1/2-z
1/2-x,1/2+y,z
1/2+x,-y,1/2+z
loop_
_atom_site_type_symbol
_atom_site_label
_atom_site_fract_x
_atom_site_fract_y
_atom_site_fract_z
Si Si1 0.158251 0.922778 0.708876
Si Si2 0.223572 0.599925 0.060029
Si Si3 0.941141 0.558380 0.115019
Si Si4 0.439777 0.302389 0.462346
Si Si5 0.174960 0.769034 0.945480
Si Si6 0.192427 0.317584 0.213136
O O1 0.202862 0.919865 0.643793
O O2 0.098874 0.901786 0.679119
O O3 0.164380 0.811990 0.767290
O O4 0.163111 0.059495 0.745389
O O5 0.288748 0.608764 0.066239
O O6 0.205083 0.500000 0.000000
O O7 0.194436 0.720771 0.026832
O O8 0.929091 0.419903 0.089495
O O9 0.000000 0.565939 0.150336
O O10 0.936127 0.653891 0.047426
O O11 0.500000 0.246567 0.446937
O O12 0.390053 0.208399 0.446080
O O13 0.192179 0.675963 0.877807
O O14 0.250000 0.315649 0.250000
#
# Coordination Sequence:
#
# PCOD8264715 Si02
#       6
#    16  16  16  16  16  16
#     4  12  23  40  60  87 125 160 203 240 303 354
#     4  11  21  36  61  84 116 151 199 257 288 353
#     4   9  17  32  58  88 115 149 197 252 297 341
#     4   9  16  31  59  89 113 141 196 259 300 334
#     4  11  21  36  58  91 113 150 201 249 301 344
#     4  12  25  39  57  85 127 167 189 240 304 372
#
# _framework density 19.846036000000002
#
# number of rings (size 3 to 8) (size 9 to 14) (size 15 to 20)
#    0.000    1.333    6.667    1.500    0.000    0.000 
#    0.000    1.667    0.000    0.500    0.000    0.000 
#    0.000    0.000    0.000    0.000    0.000    0.000 
#
# Total GULP energy -594657.579137 kJ/mol
# GULP energy per Si atom -12388.699565 kJ/mol
# Density = 1.980087 g / cm^3
# Si number density = 19.846036 Si / 1000 Ang^3
#
#
#
# Elastic Constant Matrix: (Units=GPa)
#
#
# Indices 1 2 3 4 5 6 
#
# 1 154.1283 8.0364 19.3426 0.0000 0.0000 0.0000
# 2 8.0364 70.9446 16.0819 0.0000 0.0000 0.0000
# 3 19.3426 16.0819 42.8539 0.0000 0.0000 0.0000
# 4 0.0000 0.0000 0.0000 18.6928 0.0000 0.0000
# 5 0.0000 0.0000 0.0000 0.0000 11.8649 0.0000
# 6 0.0000 0.0000 0.0000 0.0000 0.0000 26.2799
#
#
#
# Elastic Compliance Matrix: (Units=1/GPa)
#
#
# Indices 1 2 3 4 5 6 
#
# 1 0.006878 -0.000082 -0.003074 0.000000 0.000000 0.000000
# 2 -0.000082 0.015407 -0.005745 0.000000 0.000000 0.000000
# 3 -0.003074 -0.005745 0.026878 0.000000 0.000000 0.000000
# 4 0.000000 0.000000 0.000000 0.053497 0.000000 0.000000
# 5 0.000000 0.000000 0.000000 0.000000 0.084282 0.000000
# 6 0.000000 0.000000 0.000000 0.000000 0.000000 0.038052
#
#
# Mechanical properties :
#
#
# Convention : Reuss Voigt Hill
#
# Bulk Modulus (GPa) = 31.88566 39.42764 35.65665
# Shear Modulus (GPa) = 19.74339 26.33192 23.03766
#
# Velocity S-wave (km/s) = 3.15751 3.64649 3.41078
# Velocity P-wave (km/s) = 5.42168 6.13507 5.78937
#
# Compressibility (1/GPa) = 0.03136206
#
# Stress axis : x y z
#
# Youngs Moduli (GPa) = 145.38853 64.90536 37.20486
#
# Poissons Ratio (x) = 0.00535 0.11435
# Poissons Ratio (y) = 0.01198 0.21373
# Poissons Ratio (z) = 0.44687 0.37286
#
# Static dielectric constant tensor:
#      x y z
#    x 4.184170 0.000000 0.000000 
#    y 0.000000 3.511330 0.000000 
#    z 0.000000 0.000000 3.452640 
# 
# 
# High freq. dielectric constant tensor:
#      x y z
#    x 1.780800 0.000000 0.000000 
#    y 0.000000 1.736710 0.000000 
#    z 0.000000 0.000000 1.757870 
# 
# From -- ./inp_files/41457.got.cif
#   From: 2010.03.12/outbox.cif.g09.slc.cpg/sg64_21_cif.got.tgz:41457.got - 2010.04.10 20:19:32.
