data_PCOD8264130
_publ_section_title
;
Structure prediction by ZEFSAII (Michael W. Deem and Ramdas Pophale) SiO2 
 PCOD8264130
Probable space group: C M C A
;
_chemical_formula_sum "Si O2"
_cell_formula_units_Z 112
_cell_length_a 34.109382
_cell_length_b 10.734066
_cell_length_c 14.234506
_cell_angle_alpha 90.000000
_cell_angle_beta 90.000000
_cell_angle_gamma 90.000000
_cell_volume 5211.713241
_symmetry_space_group_name_H-M "C M C A"
_symmetry_group_IT_number 64
_symmetry_cell_setting 'orthorhombic'
loop_
_space_group_symop_operation_xyz
x,y,z
-x,1/2-y,1/2+z
x,-y,-z
-x,1/2+y,1/2-z
-x,-y,-z
x,1/2+y,1/2-z
-x,y,z
x,1/2-y,1/2+z
1/2+x,1/2+y,z
1/2-x,-y,1/2+z
1/2+x,1/2-y,-z
1/2-x,y,1/2-z
1/2-x,1/2-y,-z
1/2+x,y,1/2-z
1/2-x,1/2+y,z
1/2+x,-y,1/2+z
loop_
_atom_site_type_symbol
_atom_site_label
_atom_site_fract_x
_atom_site_fract_y
_atom_site_fract_z
Si Si1 0.046357 0.129225 0.952361
Si Si2 0.829356 0.365361 0.028442
Si Si3 0.957419 0.998199 0.389460
Si Si4 0.591440 0.775265 0.104834
Si Si5 0.794287 0.570321 0.782701
Si Si6 0.674110 0.194261 0.170056
Si Si7 0.585507 0.279290 0.689367
O O1 0.070128 0.146013 0.853377
O O2 0.000000 0.140222 0.936454
O O3 0.060969 0.233315 0.025804
O O4 0.058445 0.000000 0.000000
O O5 0.864161 0.278221 0.067495
O O6 0.796739 0.384030 0.109460
O O7 0.847252 0.500000 0.000000
O O8 0.808074 0.305971 0.936382
O O9 0.922462 0.908980 0.356446
O O10 0.000000 0.956267 0.349619
O O11 0.958870 0.000000 0.500000
O O12 0.948427 0.133355 0.349930
O O13 0.589053 0.695854 0.199654
O O14 0.750000 0.563520 0.750000
O O15 0.816245 0.675319 0.720690
O O16 0.812320 0.430062 0.772227
O O17 0.627962 0.188001 0.148348
#
# Coordination Sequence:
#
# PCOD8264130 Si02
#       7
#    16  16  16  16  16  16  16
#     4  11  26  45  62  93 142 181 224 295 356 398
#     4  10  21  43  71  98 134 181 222 271 344 410
#     4  11  22  39  63  89 123 170 228 280 332 397
#     4  12  23  41  66  94 126 175 227 279 332 403
#     4  11  24  44  71 108 141 174 223 281 345 418
#     4  11  23  44  74  98 141 185 226 281 341 417
#     4  12  25  41  69  95 130 176 235 279 336 407
#
# _framework density 21.490055999999999
#
# number of rings (size 3 to 8) (size 9 to 14) (size 15 to 20)
#    0.000    0.857    4.286    3.429    2.000    2.857 
#    0.000    2.143    0.000    0.000    0.000    0.000 
#    0.000    0.000    0.000    0.000    0.000    0.000 
#
# Total GULP energy -693990.653091 kJ/mol
# GULP energy per Si atom -12392.690234 kJ/mol
# Density = 2.144114 g / cm^3
# Si number density = 21.490056 Si / 1000 Ang^3
#
#
#
# Elastic Constant Matrix: (Units=GPa)
#
#
# Indices 1 2 3 4 5 6 
#
# 1 100.7459 38.0765 35.8888 0.0000 0.0000 0.0000
# 2 38.0765 96.2766 34.9691 0.0000 0.0000 0.0000
# 3 35.8888 34.9691 130.6012 0.0000 0.0000 0.0000
# 4 0.0000 0.0000 0.0000 34.2249 0.0000 0.0000
# 5 0.0000 0.0000 0.0000 0.0000 24.9583 0.0000
# 6 0.0000 0.0000 0.0000 0.0000 0.0000 22.9345
#
#
#
# Elastic Compliance Matrix: (Units=1/GPa)
#
#
# Indices 1 2 3 4 5 6 
#
# 1 0.012261 -0.004016 -0.002294 0.000000 0.000000 0.000000
# 2 -0.004016 0.012821 -0.002329 0.000000 0.000000 0.000000
# 3 -0.002294 -0.002329 0.008911 0.000000 0.000000 0.000000
# 4 0.000000 0.000000 0.000000 0.029218 0.000000 0.000000
# 5 0.000000 0.000000 0.000000 0.000000 0.040067 0.000000
# 6 0.000000 0.000000 0.000000 0.000000 0.000000 0.043602
#
#
# Mechanical properties :
#
#
# Convention : Reuss Voigt Hill
#
# Bulk Modulus (GPa) = 59.82823 60.61027 60.21925
# Shear Modulus (GPa) = 29.45843 31.00283 30.23063
#
# Velocity S-wave (km/s) = 3.70644 3.80236 3.75470
# Velocity P-wave (km/s) = 6.79833 6.89509 6.84688
#
# Compressibility (1/GPa) = 0.01671452
#
# Stress axis : x y z
#
# Youngs Moduli (GPa) = 81.55990 77.99681 112.22115
#
# Poissons Ratio (x) = 0.31322 0.25743
# Poissons Ratio (y) = 0.32753 0.26140
# Poissons Ratio (z) = 0.18710 0.18168
#
# Static dielectric constant tensor:
#      x y z
#    x 3.732320 0.000000 0.000000 
#    y 0.000000 4.245720 0.000000 
#    z 0.000000 0.000000 4.179720 
# 
# 
# High freq. dielectric constant tensor:
#      x y z
#    x 1.831400 0.000000 0.000000 
#    y 0.000000 1.838700 0.000000 
#    z 0.000000 0.000000 1.855090 
# 
# From -- ./inp_files/28413.got.cif
#   From: 2010.03.12/outbox.cif.g09.slc.cpg/sg64_15_cif.got.tgz:28413.got - 2010.04.10 20:19:32.
