data_PCOD8264581
_publ_section_title
;
Structure prediction by ZEFSAII (Michael W. Deem and Ramdas Pophale) SiO2 
 PCOD8264581
Probable space group: C M C A
;
_chemical_formula_sum "Si O2"
_cell_formula_units_Z 112
_cell_length_a 24.155501
_cell_length_b 14.289947
_cell_length_c 16.359279
_cell_angle_alpha 90.000000
_cell_angle_beta 90.000000
_cell_angle_gamma 90.000000
_cell_volume 5646.909488
_symmetry_space_group_name_H-M "C M C A"
_symmetry_group_IT_number 64
_symmetry_cell_setting 'orthorhombic'
loop_
_space_group_symop_operation_xyz
x,y,z
-x,1/2-y,1/2+z
x,-y,-z
-x,1/2+y,1/2-z
-x,-y,-z
x,1/2+y,1/2-z
-x,y,z
x,1/2-y,1/2+z
1/2+x,1/2+y,z
1/2-x,-y,1/2+z
1/2+x,1/2-y,-z
1/2-x,y,1/2-z
1/2-x,1/2-y,-z
1/2+x,y,1/2-z
1/2-x,1/2+y,z
1/2+x,-y,1/2+z
loop_
_atom_site_type_symbol
_atom_site_label
_atom_site_fract_x
_atom_site_fract_y
_atom_site_fract_z
Si Si1 0.123761 0.353787 0.193715
Si Si2 0.615002 0.406775 0.041280
Si Si3 0.563141 0.507761 0.808070
Si Si4 0.777285 0.583841 0.899465
Si Si5 0.247315 0.123668 0.083977
Si Si6 0.380886 0.835655 0.621461
Si Si7 0.807801 0.208814 0.844699
O O1 0.080594 0.426449 0.232416
O O2 0.158418 0.412614 0.126568
O O3 0.096071 0.265428 0.148441
O O4 0.157638 0.298062 0.262877
O O5 0.568905 0.433919 0.107711
O O6 0.661813 0.342060 0.079708
O O7 0.643773 0.500000 0.000000
O O8 0.587098 0.353607 0.964543
O O9 0.500000 0.477527 0.795267
O O10 0.601821 0.415368 0.812517
O O11 0.752571 0.481659 0.884788
O O12 0.748728 0.651332 0.833307
O O13 0.766139 0.626327 0.989343
O O14 0.185417 0.161664 0.102583
O O15 0.292452 0.184438 0.134040
#
# Coordination Sequence:
#
# PCOD8264581 Si02
#       7
#    16  16  16  16  16  16  16
#     4  11  24  37  56  88 122 156 197 238 297 366
#     4   9  18  35  61  87 117 151 197 247 296 356
#     4  10  24  43  62  83 115 151 202 269 307 331
#     4  11  21  35  54  83 121 168 189 231 284 349
#     4  11  22  34  58  84 126 163 195 224 284 361
#     4  11  21  37  61  88 115 158 199 240 293 364
#     4  11  20  35  52  84 126 162 188 226 285 359
#
# _framework density 19.833859
#
# number of rings (size 3 to 8) (size 9 to 14) (size 15 to 20)
#    0.000    1.429    2.857    4.286    4.000    3.143 
#    0.000    0.000    0.000    0.000    0.000    2.000 
#    0.000    0.000    0.000    0.000    0.000    0.000 
#
# Total GULP energy -693930.526799 kJ/mol
# GULP energy per Si atom -12391.616550 kJ/mol
# Density = 1.978872 g / cm^3
# Si number density = 19.833859 Si / 1000 Ang^3
#
#
#
# Elastic Constant Matrix: (Units=GPa)
#
#
# Indices 1 2 3 4 5 6 
#
# 1 72.6702 17.6022 23.5796 0.0000 0.0000 0.0000
# 2 17.6022 67.6233 20.7958 0.0000 0.0000 0.0000
# 3 23.5796 20.7958 60.7845 0.0000 0.0000 0.0000
# 4 0.0000 0.0000 0.0000 30.5340 0.0000 0.0000
# 5 0.0000 0.0000 0.0000 0.0000 16.0165 0.0000
# 6 0.0000 0.0000 0.0000 0.0000 0.0000 16.2915
#
#
#
# Elastic Compliance Matrix: (Units=1/GPa)
#
#
# Indices 1 2 3 4 5 6 
#
# 1 0.016124 -0.002541 -0.005385 0.000000 0.000000 0.000000
# 2 -0.002541 0.016927 -0.004805 0.000000 0.000000 0.000000
# 3 -0.005385 -0.004805 0.020185 0.000000 0.000000 0.000000
# 4 0.000000 0.000000 0.000000 0.032750 0.000000 0.000000
# 5 0.000000 0.000000 0.000000 0.000000 0.062436 0.000000
# 6 0.000000 0.000000 0.000000 0.000000 0.000000 0.061382
#
#
# Mechanical properties :
#
#
# Convention : Reuss Voigt Hill
#
# Bulk Modulus (GPa) = 36.00758 36.11481 36.06120
# Shear Modulus (GPa) = 20.44791 21.84176 21.14483
#
# Velocity S-wave (km/s) = 3.21434 3.32209 3.26866
# Velocity P-wave (km/s) = 5.65420 5.74136 5.69795
#
# Compressibility (1/GPa) = 0.02777193
#
# Stress axis : x y z
#
# Youngs Moduli (GPa) = 62.02054 59.07732 49.54230
#
# Poissons Ratio (x) = 0.15010 0.26681
# Poissons Ratio (y) = 0.15758 0.23807
# Poissons Ratio (z) = 0.33401 0.28389
#
# Static dielectric constant tensor:
#      x y z
#    x 3.198330 0.000000 0.000000 
#    y 0.000000 3.763230 0.000000 
#    z 0.000000 0.000000 3.758190 
# 
# 
# High freq. dielectric constant tensor:
#      x y z
#    x 1.727750 0.000000 0.000000 
#    y 0.000000 1.780590 0.000000 
#    z 0.000000 0.000000 1.778890 
# 
# From -- ./inp_files/27413.got.cif
#   From: 2010.03.12/outbox.cif.g09.slc.cpg/sg64_14_cif.got.tgz:27413.got - 2010.04.10 20:19:32.
