data_PCOD8264326
_publ_section_title
;
Structure prediction by ZEFSAII (Michael W. Deem and Ramdas Pophale) SiO2 
 PCOD8264326
Probable space group: C M C A
;
_chemical_formula_sum "Si O2"
_cell_formula_units_Z 96
_cell_length_a 13.934789
_cell_length_b 13.409279
_cell_length_c 22.683621
_cell_angle_alpha 90.000000
_cell_angle_beta 90.000000
_cell_angle_gamma 90.000000
_cell_volume 4238.558743
_symmetry_space_group_name_H-M "C M C A"
_symmetry_group_IT_number 64
_symmetry_cell_setting 'orthorhombic'
loop_
_space_group_symop_operation_xyz
x,y,z
-x,1/2-y,1/2+z
x,-y,-z
-x,1/2+y,1/2-z
-x,-y,-z
x,1/2+y,1/2-z
-x,y,z
x,1/2-y,1/2+z
1/2+x,1/2+y,z
1/2-x,-y,1/2+z
1/2+x,1/2-y,-z
1/2-x,y,1/2-z
1/2-x,1/2-y,-z
1/2+x,y,1/2-z
1/2-x,1/2+y,z
1/2+x,-y,1/2+z
loop_
_atom_site_type_symbol
_atom_site_label
_atom_site_fract_x
_atom_site_fract_y
_atom_site_fract_z
Si Si1 0.612929 0.825767 0.718759
Si Si2 0.605719 0.138704 0.851364
Si Si3 0.793924 0.397792 0.032417
Si Si4 0.607516 0.261116 0.164965
Si Si5 0.886848 0.223422 0.964686
Si Si6 0.143878 0.950851 0.233009
O O1 0.500000 0.803941 0.723594
O O2 0.649848 0.746624 0.669670
O O3 0.661017 0.801660 0.783130
O O4 0.633782 0.940009 0.703973
O O5 0.500000 0.151803 0.880309
O O6 0.680768 0.091958 0.897998
O O7 0.589381 0.065133 0.795125
O O8 0.682406 0.370083 0.019455
O O9 0.817801 0.500000 0.000000
O O10 0.866695 0.313551 0.008758
O O11 0.500000 0.220899 0.160100
O O12 0.651021 0.243924 0.100301
O O13 0.606604 0.378002 0.182071
O O14 0.000000 0.192670 0.966634
O O15 0.250000 0.922294 0.250000
#
# Coordination Sequence:
#
# PCOD8264326 Si02
#       6
#    16  16  16  16  16  16
#     4   9  19  36  59  87 120 161 203 252 315 377
#     4  10  22  41  63  90 129 167 211 268 319 379
#     4  11  25  44  68  98 129 168 223 273 321 388
#     4   9  19  38  60  84 118 159 208 257 310 382
#     4  10  23  45  68  93 130 172 215 270 328 385
#     4  11  21  33  57  92 127 164 206 257 320 382
#
# _framework density 22.649208000000002
#
# number of rings (size 3 to 8) (size 9 to 14) (size 15 to 20)
#    0.000    2.000    0.000    4.000    2.333    5.667 
#    9.000    0.000    0.000    0.000    0.000    0.000 
#    0.000    0.000    0.000    0.000    0.000    0.000 
#
# Total GULP energy -594848.748442 kJ/mol
# GULP energy per Si atom -12392.682259 kJ/mol
# Density = 2.259766 g / cm^3
# Si number density = 22.649208 Si / 1000 Ang^3
#
#
#
# Elastic Constant Matrix: (Units=GPa)
#
#
# Indices 1 2 3 4 5 6 
#
# 1 83.1432 0.3179 10.8065 0.0000 0.0000 0.0000
# 2 0.3179 83.3062 11.0891 0.0000 0.0000 0.0000
# 3 10.8065 11.0891 85.0271 0.0000 0.0000 0.0000
# 4 0.0000 0.0000 0.0000 25.2948 0.0000 0.0000
# 5 0.0000 0.0000 0.0000 0.0000 24.7578 0.0000
# 6 0.0000 0.0000 0.0000 0.0000 0.0000 150.6126
#
#
#
# Elastic Compliance Matrix: (Units=1/GPa)
#
#
# Indices 1 2 3 4 5 6 
#
# 1 0.012232 0.000163 -0.001576 0.000000 0.000000 0.000000
# 2 0.000163 0.012218 -0.001614 0.000000 0.000000 0.000000
# 3 -0.001576 -0.001614 0.012172 0.000000 0.000000 0.000000
# 4 0.000000 0.000000 0.000000 0.039534 0.000000 0.000000
# 5 0.000000 0.000000 0.000000 0.000000 0.040391 0.000000
# 6 0.000000 0.000000 0.000000 0.000000 0.000000 0.006640
#
#
# Mechanical properties :
#
#
# Convention : Reuss Voigt Hill
#
# Bulk Modulus (GPa) = 32.71432 32.87815 32.79623
# Shear Modulus (GPa) = 35.86046 55.41725 45.63885
#
# Velocity S-wave (km/s) = 3.98339 4.95184 4.49378
# Velocity P-wave (km/s) = 5.96923 6.87329 6.43715
#
# Compressibility (1/GPa) = 0.03056766
#
# Stress axis : x y z
#
# Youngs Moduli (GPa) = 81.75522 81.84544 82.15739
#
# Poissons Ratio (x) = -0.01335 0.12947
# Poissons Ratio (y) = -0.01333 0.13262
# Poissons Ratio (z) = 0.12883 0.13211
#
# Static dielectric constant tensor:
#      x y z
#    x 3.941450 0.000000 0.000000 
#    y 0.000000 3.793240 0.000000 
#    z 0.000000 0.000000 4.128200 
# 
# 
# High freq. dielectric constant tensor:
#      x y z
#    x 1.904200 0.000000 0.000000 
#    y 0.000000 1.870010 0.000000 
#    z 0.000000 0.000000 1.885950 
# 
# From -- ./inp_files/39205.got.cif
#   From: 2010.03.12/outbox.cif.g09.slc.cpg/sg64_20_cif.got.tgz:39205.got - 2010.04.10 20:19:32.
