data_PCOD8264913
_publ_section_title
;
Structure prediction by ZEFSAII (Michael W. Deem and Ramdas Pophale) SiO2 
 PCOD8264913
Probable space group: C M C A
;
_chemical_formula_sum "Si O2"
_cell_formula_units_Z 48
_cell_length_a 17.182816
_cell_length_b 7.881364
_cell_length_c 13.523619
_cell_angle_alpha 90.000000
_cell_angle_beta 90.000000
_cell_angle_gamma 90.000000
_cell_volume 1831.422951
_symmetry_space_group_name_H-M "C M C A"
_symmetry_group_IT_number 64
_symmetry_cell_setting 'orthorhombic'
loop_
_space_group_symop_operation_xyz
x,y,z
-x,1/2-y,1/2+z
x,-y,-z
-x,1/2+y,1/2-z
-x,-y,-z
x,1/2+y,1/2-z
-x,y,z
x,1/2-y,1/2+z
1/2+x,1/2+y,z
1/2-x,-y,1/2+z
1/2+x,1/2-y,-z
1/2-x,y,1/2-z
1/2-x,1/2-y,-z
1/2+x,y,1/2-z
1/2-x,1/2+y,z
1/2+x,-y,1/2+z
loop_
_atom_site_type_symbol
_atom_site_label
_atom_site_fract_x
_atom_site_fract_y
_atom_site_fract_z
Si Si1 0.156039 0.348354 0.571411
Si Si2 0.911397 0.644056 0.772008
Si Si3 0.171305 0.842561 0.617334
O O1 0.131247 0.500000 0.500000
O O2 0.093604 0.314771 0.658691
O O3 0.159972 0.181280 0.500738
O O4 0.237009 0.375788 0.630838
O O5 0.879990 0.493594 0.839890
O O6 0.857576 0.670381 0.674649
O O7 0.000000 0.613477 0.740563
#
# Coordination Sequence:
#
# PCOD8264913 Si02
#       3
#    16  16  16
#     4  11  24  44  71 100 135 182 233 281 333 403
#     4  12  26  44  71 105 142 180 222 285 352 408
#     4  11  24  44  68 100 139 182 231 278 335 407
#
# _framework density 26.209126999999999
#
# number of rings (size 3 to 8) (size 9 to 14) (size 15 to 20)
#    0.000    0.667    0.000    9.000    0.000    7.333 
#    0.000    0.000    0.000    0.000    0.000    0.000 
#    0.000    0.000    0.000    0.000    0.000    0.000 
#
# Total GULP energy -297619.509643 kJ/mol
# GULP energy per Si atom -12400.812902 kJ/mol
# Density = 2.614947 g / cm^3
# Si number density = 26.209127 Si / 1000 Ang^3
#
#
#
# Elastic Constant Matrix: (Units=GPa)
#
#
# Indices 1 2 3 4 5 6 
#
# 1 104.7922 24.1485 51.4258 0.0000 0.0000 0.0000
# 2 24.1485 25.4428 2.0239 0.0000 0.0000 0.0000
# 3 51.4258 2.0239 114.1990 0.0000 0.0000 0.0000
# 4 0.0000 0.0000 0.0000 39.0053 0.0000 0.0000
# 5 0.0000 0.0000 0.0000 0.0000 32.6150 0.0000
# 6 0.0000 0.0000 0.0000 0.0000 0.0000 40.0865
#
#
#
# Elastic Compliance Matrix: (Units=1/GPa)
#
#
# Indices 1 2 3 4 5 6 
#
# 1 0.016561 -0.015147 -0.007189 0.000000 0.000000 0.000000
# 2 -0.015147 0.053213 0.005878 0.000000 0.000000 0.000000
# 3 -0.007189 0.005878 0.011890 0.000000 0.000000 0.000000
# 4 0.000000 0.000000 0.000000 0.025638 0.000000 0.000000
# 5 0.000000 0.000000 0.000000 0.000000 0.030661 0.000000
# 6 0.000000 0.000000 0.000000 0.000000 0.000000 0.024946
#
#
# Mechanical properties :
#
#
# Convention : Reuss Voigt Hill
#
# Bulk Modulus (GPa) = 20.51408 44.40340 32.45874
# Shear Modulus (GPa) = 23.57664 33.46375 28.52019
#
# Velocity S-wave (km/s) = 3.00252 3.57711 3.30233
# Velocity P-wave (km/s) = 4.45693 5.83435 5.19153
#
# Compressibility (1/GPa) = 0.04874700
#
# Stress axis : x y z
#
# Youngs Moduli (GPa) = 60.38164 18.79252 84.10436
#
# Poissons Ratio (x) = 0.28465 0.60466
# Poissons Ratio (y) = 0.91460 -0.49435
# Poissons Ratio (z) = 0.43411 -0.11046
#
# Static dielectric constant tensor:
#      x y z
#    x 4.242130 0.000000 0.000000 
#    y 0.000000 5.168810 0.000000 
#    z 0.000000 0.000000 5.234050 
# 
# 
# High freq. dielectric constant tensor:
#      x y z
#    x 2.009080 0.000000 0.000000 
#    y 0.000000 2.075720 0.000000 
#    z 0.000000 0.000000 2.081460 
# 
# From -- ./inp_files/24596.got.cif
#   From: 2010.03.12/outbox.cif.g09.slc.cpg/sg64_13_cif.got.tgz:24596.got - 2010.04.10 20:19:32.
