data_PCOD8264775
_publ_section_title
;
Structure prediction by ZEFSAII (Michael W. Deem and Ramdas Pophale) SiO2 
 PCOD8264775
Probable space group: C M C A
;
_chemical_formula_sum "Si O2"
_cell_formula_units_Z 48
_cell_length_a 16.563614
_cell_length_b 25.742433
_cell_length_c 5.021925
_cell_angle_alpha 90.000000
_cell_angle_beta 90.000000
_cell_angle_gamma 90.000000
_cell_volume 2141.287169
_symmetry_space_group_name_H-M "C M C A"
_symmetry_group_IT_number 64
_symmetry_cell_setting 'orthorhombic'
loop_
_space_group_symop_operation_xyz
x,y,z
-x,1/2-y,1/2+z
x,-y,-z
-x,1/2+y,1/2-z
-x,-y,-z
x,1/2+y,1/2-z
-x,y,z
x,1/2-y,1/2+z
1/2+x,1/2+y,z
1/2-x,-y,1/2+z
1/2+x,1/2-y,-z
1/2-x,y,1/2-z
1/2-x,1/2-y,-z
1/2+x,y,1/2-z
1/2-x,1/2+y,z
1/2+x,-y,1/2+z
loop_
_atom_site_type_symbol
_atom_site_label
_atom_site_fract_x
_atom_site_fract_y
_atom_site_fract_z
Si Si1 0.838886 0.894707 0.854240
Si Si2 0.841993 0.275606 0.684558
Si Si3 0.407548 0.053899 0.874623
O O1 0.750000 0.908631 0.750000
O O2 0.848743 0.834218 0.921932
O O3 0.900900 0.904972 0.613837
O O4 0.856187 0.929011 0.116674
O O5 0.884212 0.237638 0.466555
O O6 0.750000 0.259451 0.750000
O O7 0.500000 0.048487 0.781470
O O8 0.374519 0.000000 0.000000
#
# Coordination Sequence:
#
# PCOD8264775 Si02
#       3
#    16  16  16
#     4  11  22  38  64  94 120 153 205 260 299 344
#     4   9  17  31  54  85 119 153 191 240 299 358
#     4  11  24  42  62  85 121 167 204 241 304 375
#
# _framework density 22.416422000000001
#
# number of rings (size 3 to 8) (size 9 to 14) (size 15 to 20)
#    0.000    1.667    0.000    5.000    0.000   10.667 
#    0.000    0.000    0.000   20.000    0.000    0.000 
#    0.000    0.000    0.000    0.000    0.000    0.000 
#
# Total GULP energy -297449.020126 kJ/mol
# GULP energy per Si atom -12393.709172 kJ/mol
# Density = 2.236540 g / cm^3
# Si number density = 22.416422 Si / 1000 Ang^3
#
#
#
# Elastic Constant Matrix: (Units=GPa)
#
#
# Indices 1 2 3 4 5 6 
#
# 1 50.5851 49.4346 41.5214 0.0000 0.0000 0.0000
# 2 49.4346 122.0547 88.4104 0.0000 0.0000 0.0000
# 3 41.5214 88.4104 212.6180 0.0000 0.0000 0.0000
# 4 0.0000 0.0000 0.0000 51.5010 0.0000 0.0000
# 5 0.0000 0.0000 0.0000 0.0000 28.2980 0.0000
# 6 0.0000 0.0000 0.0000 0.0000 0.0000 6.5955
#
#
#
# Elastic Compliance Matrix: (Units=1/GPa)
#
#
# Indices 1 2 3 4 5 6 
#
# 1 0.032956 -0.012430 -0.001267 0.000000 0.000000 0.000000
# 2 -0.012430 0.016413 -0.004397 0.000000 0.000000 0.000000
# 3 -0.001267 -0.004397 0.006779 0.000000 0.000000 0.000000
# 4 0.000000 0.000000 0.000000 0.019417 0.000000 0.000000
# 5 0.000000 0.000000 0.000000 0.000000 0.035338 0.000000
# 6 0.000000 0.000000 0.000000 0.000000 0.000000 0.151619
#
#
# Mechanical properties :
#
#
# Convention : Reuss Voigt Hill
#
# Bulk Modulus (GPa) = 50.10277 82.66562 66.38419
# Shear Modulus (GPa) = 16.37388 31.00499 23.68943
#
# Velocity S-wave (km/s) = 2.70560 3.72309 3.25436
# Velocity P-wave (km/s) = 5.67096 7.44575 6.61812
#
# Compressibility (1/GPa) = 0.01995898
#
# Stress axis : x y z
#
# Youngs Moduli (GPa) = 30.34333 60.92886 147.50981
#
# Poissons Ratio (x) = 0.75734 0.18694
# Poissons Ratio (y) = 0.37717 0.64864
# Poissons Ratio (z) = 0.03845 0.26792
#
# Static dielectric constant tensor:
#      x y z
#    x 3.630840 0.000000 0.000000 
#    y 0.000000 3.930060 0.000000 
#    z 0.000000 0.000000 4.483500 
# 
# 
# High freq. dielectric constant tensor:
#      x y z
#    x 1.838190 0.000000 0.000000 
#    y 0.000000 1.886700 0.000000 
#    z 0.000000 0.000000 1.912590 
# 
# From -- ./inp_files/1107.got.cif
#   From: 2010.03.12/outbox.cif.g09.slc.cpg/sg64_1_cif.got.tgz:1107.got - 2010.04.10 20:19:32.
