data_PCOD8264360
_publ_section_title
;
Structure prediction by ZEFSAII (Michael W. Deem and Ramdas Pophale) SiO2 
 PCOD8264360
Probable space group: C M C A
;
_chemical_formula_sum "Si O2"
_cell_formula_units_Z 88
_cell_length_a 16.275215
_cell_length_b 18.843517
_cell_length_c 13.472342
_cell_angle_alpha 90.000000
_cell_angle_beta 90.000000
_cell_angle_gamma 90.000000
_cell_volume 4131.728703
_symmetry_space_group_name_H-M "C M C A"
_symmetry_group_IT_number 64
_symmetry_cell_setting 'orthorhombic'
loop_
_space_group_symop_operation_xyz
x,y,z
-x,1/2-y,1/2+z
x,-y,-z
-x,1/2+y,1/2-z
-x,-y,-z
x,1/2+y,1/2-z
-x,y,z
x,1/2-y,1/2+z
1/2+x,1/2+y,z
1/2-x,-y,1/2+z
1/2+x,1/2-y,-z
1/2-x,y,1/2-z
1/2-x,1/2-y,-z
1/2+x,y,1/2-z
1/2-x,1/2+y,z
1/2+x,-y,1/2+z
loop_
_atom_site_type_symbol
_atom_site_label
_atom_site_fract_x
_atom_site_fract_y
_atom_site_fract_z
Si Si1 0.000000 0.400039 0.289124
Si Si2 0.169536 0.347182 0.193748
Si Si3 0.500000 0.683244 0.975645
Si Si4 0.326175 0.506413 0.607111
Si Si5 0.250000 0.604764 0.250000
Si Si6 0.500000 0.474336 0.653550
Si Si7 0.500000 0.692974 0.312703
Si Si8 0.872008 0.297409 0.642603
O O1 0.916205 0.362310 0.251033
O O2 0.000000 0.387017 0.407312
O O3 0.000000 0.484173 0.261753
O O4 0.250000 0.318428 0.250000
O O5 0.203653 0.417497 0.142825
O O6 0.153863 0.283250 0.116207
O O7 0.500000 0.755926 0.909935
O O8 0.578882 0.676077 0.046895
O O9 0.282725 0.500000 0.500000
O O10 0.309362 0.445129 0.686539
O O11 0.423739 0.504213 0.591917
O O12 0.203112 0.650370 0.333406
O O13 0.500000 0.389700 0.658715
O O14 0.579310 0.707995 0.246425
#
# Coordination Sequence:
#
# PCOD8264360 Si02
#       8
#     8  16   8  16   8   8   8  16
#     4  10  22  43  64 100 136 176 231 287 343 408
#     4  11  22  43  69  94 136 183 222 284 349 403
#     4  11  24  42  72 102 136 182 227 283 350 420
#     4  11  25  43  67  97 131 181 231 282 341 415
#     4  12  24  46  62 100 146 170 226 288 344 410
#     4  10  22  41  72  89 130 181 226 286 341 391
#     4  11  21  44  64  94 135 169 222 287 322 401
#     4  11  24  41  68  99 134 181 221 279 351 406
#
# _framework density 21.298591999999999
#
# number of rings (size 3 to 8) (size 9 to 14) (size 15 to 20)
#    0.000    1.091    5.455    0.818    2.545    1.455 
#    0.000    4.545    0.000    0.000    0.000    0.000 
#    0.000    0.000    0.000    0.000    0.000    0.000 
#
# Total GULP energy -545110.815761 kJ/mol
# GULP energy per Si atom -12388.882176 kJ/mol
# Density = 2.125012 g / cm^3
# Si number density = 21.298592 Si / 1000 Ang^3
#
#
#
# Elastic Constant Matrix: (Units=GPa)
#
#
# Indices 1 2 3 4 5 6 
#
# 1 89.7718 6.4964 21.9135 0.0000 0.0000 0.0000
# 2 6.4964 127.9542 41.6999 0.0000 0.0000 0.0000
# 3 21.9135 41.6999 121.8685 0.0000 0.0000 0.0000
# 4 0.0000 0.0000 0.0000 34.9395 0.0000 0.0000
# 5 0.0000 0.0000 0.0000 0.0000 13.6487 0.0000
# 6 0.0000 0.0000 0.0000 0.0000 0.0000 15.9087
#
#
#
# Elastic Compliance Matrix: (Units=1/GPa)
#
#
# Indices 1 2 3 4 5 6 
#
# 1 0.011652 0.000103 -0.002130 0.000000 0.000000 0.000000
# 2 0.000103 0.008797 -0.003029 0.000000 0.000000 0.000000
# 3 -0.002130 -0.003029 0.009625 0.000000 0.000000 0.000000
# 4 0.000000 0.000000 0.000000 0.028621 0.000000 0.000000
# 5 0.000000 0.000000 0.000000 0.000000 0.073267 0.000000
# 6 0.000000 0.000000 0.000000 0.000000 0.000000 0.062859
#
#
# Mechanical properties :
#
#
# Convention : Reuss Voigt Hill
#
# Bulk Modulus (GPa) = 50.09637 53.31271 51.70454
# Shear Modulus (GPa) = 23.63096 30.86503 27.24799
#
# Velocity S-wave (km/s) = 3.33454 3.81091 3.58066
# Velocity P-wave (km/s) = 6.19658 6.66704 6.43611
#
# Compressibility (1/GPa) = 0.01996153
#
# Stress axis : x y z
#
# Youngs Moduli (GPa) = 85.82269 113.67401 103.89701
#
# Poissons Ratio (x) = -0.01167 0.22133
# Poissons Ratio (y) = -0.00881 0.31466
# Poissons Ratio (z) = 0.18283 0.34427
#
# Static dielectric constant tensor:
#      x y z
#    x 3.896550 0.000000 0.000000 
#    y 0.000000 4.029790 0.000000 
#    z 0.000000 0.000000 3.662590 
# 
# 
# High freq. dielectric constant tensor:
#      x y z
#    x 1.842090 0.000000 0.000000 
#    y 0.000000 1.851060 0.000000 
#    z 0.000000 0.000000 1.815350 
# 
# From -- ./inp_files/16112.got.cif
#   From: 2010.03.12/outbox.cif.g09.slc.cpg/sg64_9_cif.got.tgz:16112.got - 2010.04.10 20:19:32.
