data_PCOD8264488
_publ_section_title
;
Structure prediction by ZEFSAII (Michael W. Deem and Ramdas Pophale) SiO2 
 PCOD8264488
Probable space group: C M C A
;
_chemical_formula_sum "Si O2"
_cell_formula_units_Z 64
_cell_length_a 14.080802
_cell_length_b 10.084960
_cell_length_c 17.325003
_cell_angle_alpha 90.000000
_cell_angle_beta 90.000000
_cell_angle_gamma 90.000000
_cell_volume 2460.225356
_symmetry_space_group_name_H-M "C M C A"
_symmetry_group_IT_number 64
_symmetry_cell_setting 'orthorhombic'
loop_
_space_group_symop_operation_xyz
x,y,z
-x,1/2-y,1/2+z
x,-y,-z
-x,1/2+y,1/2-z
-x,-y,-z
x,1/2+y,1/2-z
-x,y,z
x,1/2-y,1/2+z
1/2+x,1/2+y,z
1/2-x,-y,1/2+z
1/2+x,1/2-y,-z
1/2-x,y,1/2-z
1/2-x,1/2-y,-z
1/2+x,y,1/2-z
1/2-x,1/2+y,z
1/2+x,-y,1/2+z
loop_
_atom_site_type_symbol
_atom_site_label
_atom_site_fract_x
_atom_site_fract_y
_atom_site_fract_z
Si Si1 0.344653 0.000000 0.500000
Si Si2 0.500000 0.942612 0.794980
Si Si3 0.000000 0.968072 0.874546
Si Si4 0.500000 0.317556 0.409286
Si Si5 0.706263 0.166384 0.926363
Si Si6 0.295901 0.102733 0.169763
O O1 0.406764 0.992425 0.422795
O O2 0.280185 0.138783 0.501004
O O3 0.500000 0.021671 0.712455
O O4 0.405649 0.856934 0.812214
O O5 0.500000 0.060613 0.854416
O O6 0.000000 0.812261 0.856687
O O7 0.401976 0.313530 0.458981
O O8 0.739656 0.271445 0.863317
O O9 0.712430 0.020511 0.887960
O O10 0.250000 0.058713 0.250000
#
# Coordination Sequence:
#
# PCOD8264488 Si02
#       6
#     8   8   8   8  16  16
#     4  11  26  43  64  92 132 181 224 261 320 404
#     4  10  23  42  67 100 129 164 217 274 335 387
#     4  11  24  43  65  94 133 174 219 274 327 391
#     4  10  23  42  68  97 130 168 216 281 334 385
#     4  11  24  43  66  97 133 174 218 267 331 395
#     4  11  23  41  68  98 130 167 215 276 332 385
#
# _framework density 26.013877999999998
#
# number of rings (size 3 to 8) (size 9 to 14) (size 15 to 20)
#    0.000    1.250    0.000    5.250    0.000   12.500 
#    0.000    3.750    0.000    0.000    0.000    0.000 
#    0.000    0.000    0.000    0.000    0.000    0.000 
#
# Total GULP energy -396656.671483 kJ/mol
# GULP energy per Si atom -12395.520984 kJ/mol
# Density = 2.595467 g / cm^3
# Si number density = 26.013878 Si / 1000 Ang^3
#
#
#
# Elastic Constant Matrix: (Units=GPa)
#
#
# Indices 1 2 3 4 5 6 
#
# 1 263.5214 41.6674 52.9789 0.0000 0.0000 0.0000
# 2 41.6674 59.4124 -8.5676 0.0000 0.0000 0.0000
# 3 52.9789 -8.5676 88.5035 0.0000 0.0000 0.0000
# 4 0.0000 0.0000 0.0000 18.6123 0.0000 0.0000
# 5 0.0000 0.0000 0.0000 0.0000 37.1618 0.0000
# 6 0.0000 0.0000 0.0000 0.0000 0.0000 35.5984
#
#
#
# Elastic Compliance Matrix: (Units=1/GPa)
#
#
# Indices 1 2 3 4 5 6 
#
# 1 0.005143 -0.004108 -0.003477 0.000000 0.000000 0.000000
# 2 -0.004108 0.020352 0.004430 0.000000 0.000000 0.000000
# 3 -0.003477 0.004430 0.013809 0.000000 0.000000 0.000000
# 4 0.000000 0.000000 0.000000 0.053728 0.000000 0.000000
# 5 0.000000 0.000000 0.000000 0.000000 0.026909 0.000000
# 6 0.000000 0.000000 0.000000 0.000000 0.000000 0.028091
#
#
# Mechanical properties :
#
#
# Convention : Reuss Voigt Hill
#
# Bulk Modulus (GPa) = 30.30962 64.84386 47.57674
# Shear Modulus (GPa) = 30.24056 39.96508 35.10282
#
# Velocity S-wave (km/s) = 3.41321 3.92382 3.67739
# Velocity P-wave (km/s) = 5.21632 6.74605 6.02989
#
# Compressibility (1/GPa) = 0.03299282
#
# Stress axis : x y z
#
# Youngs Moduli (GPa) = 194.42714 49.13610 72.41713
#
# Poissons Ratio (x) = 0.20187 0.25176
# Poissons Ratio (y) = 0.79880 -0.32077
# Poissons Ratio (z) = 0.67594 -0.21765
#
# Static dielectric constant tensor:
#      x y z
#    x 6.490990 0.000000 0.000000 
#    y 0.000000 4.857890 0.000000 
#    z 0.000000 0.000000 4.818750 
# 
# 
# High freq. dielectric constant tensor:
#      x y z
#    x 2.077810 0.000000 0.000000 
#    y 0.000000 2.052510 0.000000 
#    z 0.000000 0.000000 2.038880 
# 
# From -- ./inp_files/31712.got.cif
#   From: 2010.03.12/outbox.cif.g09.slc.cpg/sg64_16_cif.got.tgz:31712.got - 2010.04.10 20:19:32.
