data_PCOD8264628
_publ_section_title
;
Structure prediction by ZEFSAII (Michael W. Deem and Ramdas Pophale) SiO2 
 PCOD8264628
Probable space group: C M C A
;
_chemical_formula_sum "Si O2"
_cell_formula_units_Z 104
_cell_length_a 28.913405
_cell_length_b 9.420425
_cell_length_c 17.871788
_cell_angle_alpha 90.000000
_cell_angle_beta 90.000000
_cell_angle_gamma 90.000000
_cell_volume 4867.856195
_symmetry_space_group_name_H-M "C M C A"
_symmetry_group_IT_number 64
_symmetry_cell_setting 'orthorhombic'
loop_
_space_group_symop_operation_xyz
x,y,z
-x,1/2-y,1/2+z
x,-y,-z
-x,1/2+y,1/2-z
-x,-y,-z
x,1/2+y,1/2-z
-x,y,z
x,1/2-y,1/2+z
1/2+x,1/2+y,z
1/2-x,-y,1/2+z
1/2+x,1/2-y,-z
1/2-x,y,1/2-z
1/2-x,1/2-y,-z
1/2+x,y,1/2-z
1/2-x,1/2+y,z
1/2+x,-y,1/2+z
loop_
_atom_site_type_symbol
_atom_site_label
_atom_site_fract_x
_atom_site_fract_y
_atom_site_fract_z
Si Si1 0.949859 0.341149 0.026716
Si Si2 0.180742 0.659538 0.630503
Si Si3 0.948959 0.427948 0.191380
Si Si4 0.328980 0.346516 0.853899
Si Si5 0.602235 0.704496 0.272034
Si Si6 0.250000 0.250522 0.750000
Si Si7 0.152433 0.670147 0.994932
O O1 0.944509 0.339145 0.115621
O O2 0.000000 0.265785 0.004752
O O3 0.954186 0.500000 0.000000
O O4 0.901596 0.276665 0.993887
O O5 0.172331 0.498047 0.604368
O O6 0.137596 0.719667 0.674346
O O7 0.225184 0.658676 0.685198
O O8 0.185601 0.758171 0.557022
O O9 0.914884 0.562003 0.187854
O O10 0.938188 0.318627 0.258209
O O11 0.000000 0.489062 0.204344
O O12 0.376175 0.334487 0.807916
O O13 0.287248 0.344400 0.794112
O O14 0.327642 0.219961 0.914625
O O15 0.156266 0.500000 0.000000
#
# Coordination Sequence:
#
# PCOD8264628 Si02
#       7
#    16  16  16  16  16   8  16
#     4   9  18  34  57  87 123 166 217 258 303 371
#     4  11  24  42  68  93 128 165 213 267 331 385
#     4  11  21  36  60  90 129 172 220 270 317 377
#     4  11  23  43  66  93 133 163 214 271 328 388
#     4  11  21  38  60  92 126 171 214 268 325 384
#     4  10  26  44  72  96 122 170 216 264 330 402
#     4  11  23  40  67  96 128 176 215 261 323 393
#
# _framework density 21.364640999999999
#
# number of rings (size 3 to 8) (size 9 to 14) (size 15 to 20)
#    0.000    1.385    3.077    3.231    0.000    3.077 
#    0.000    0.769    0.000    0.923    0.000    0.000 
#    0.000    0.000    0.000    0.000    0.000    0.000 
#
# Total GULP energy -644400.640216 kJ/mol
# GULP energy per Si atom -12392.320004 kJ/mol
# Density = 2.131601 g / cm^3
# Si number density = 21.364641 Si / 1000 Ang^3
#
#
#
# Elastic Constant Matrix: (Units=GPa)
#
#
# Indices 1 2 3 4 5 6 
#
# 1 99.5336 27.9803 36.5806 0.0000 0.0000 0.0000
# 2 27.9803 106.0642 21.7963 0.0000 0.0000 0.0000
# 3 36.5806 21.7963 79.1319 0.0000 0.0000 0.0000
# 4 0.0000 0.0000 0.0000 28.4499 0.0000 0.0000
# 5 0.0000 0.0000 0.0000 0.0000 37.7500 0.0000
# 6 0.0000 0.0000 0.0000 0.0000 0.0000 15.5531
#
#
#
# Elastic Compliance Matrix: (Units=1/GPa)
#
#
# Indices 1 2 3 4 5 6 
#
# 1 0.012591 -0.002253 -0.005200 0.000000 0.000000 0.000000
# 2 -0.002253 0.010397 -0.001822 0.000000 0.000000 0.000000
# 3 -0.005200 -0.001822 0.015543 0.000000 0.000000 0.000000
# 4 0.000000 0.000000 0.000000 0.035150 0.000000 0.000000
# 5 0.000000 0.000000 0.000000 0.000000 0.026490 0.000000
# 6 0.000000 0.000000 0.000000 0.000000 0.000000 0.064296
#
#
# Mechanical properties :
#
#
# Convention : Reuss Voigt Hill
#
# Bulk Modulus (GPa) = 50.04860 50.82712 50.43786
# Shear Modulus (GPa) = 26.36052 29.57544 27.96798
#
# Velocity S-wave (km/s) = 3.51641 3.72468 3.62204
# Velocity P-wave (km/s) = 6.32168 6.50689 6.41495
#
# Compressibility (1/GPa) = 0.01998058
#
# Stress axis : x y z
#
# Youngs Moduli (GPa) = 79.41966 96.18064 64.33805
#
# Poissons Ratio (x) = 0.21670 0.33456
# Poissons Ratio (y) = 0.17894 0.11724
# Poissons Ratio (z) = 0.41299 0.17527
#
# Static dielectric constant tensor:
#      x y z
#    x 4.277790 0.000000 0.000000 
#    y 0.000000 3.520570 0.000000 
#    z 0.000000 0.000000 4.266000 
# 
# 
# High freq. dielectric constant tensor:
#      x y z
#    x 1.846210 0.000000 0.000000 
#    y 0.000000 1.813080 0.000000 
#    z 0.000000 0.000000 1.838750 
# 
# From -- ./inp_files/41872.got.cif
#   From: 2010.03.12/outbox.cif.g09.slc.cpg/sg64_21_cif.got.tgz:41872.got - 2010.04.10 20:19:32.
