data_PCOD8264914
_publ_section_title
;
Structure prediction by ZEFSAII (Michael W. Deem and Ramdas Pophale) SiO2 
 PCOD8264914
Probable space group: C M C A
;
_chemical_formula_sum "Si O2"
_cell_formula_units_Z 64
_cell_length_a 14.797793
_cell_length_b 15.867230
_cell_length_c 11.432318
_cell_angle_alpha 90.000000
_cell_angle_beta 90.000000
_cell_angle_gamma 90.000000
_cell_volume 2684.308095
_symmetry_space_group_name_H-M "C M C A"
_symmetry_group_IT_number 64
_symmetry_cell_setting 'orthorhombic'
loop_
_space_group_symop_operation_xyz
x,y,z
-x,1/2-y,1/2+z
x,-y,-z
-x,1/2+y,1/2-z
-x,-y,-z
x,1/2+y,1/2-z
-x,y,z
x,1/2-y,1/2+z
1/2+x,1/2+y,z
1/2-x,-y,1/2+z
1/2+x,1/2-y,-z
1/2-x,y,1/2-z
1/2-x,1/2-y,-z
1/2+x,y,1/2-z
1/2-x,1/2+y,z
1/2+x,-y,1/2+z
loop_
_atom_site_type_symbol
_atom_site_label
_atom_site_fract_x
_atom_site_fract_y
_atom_site_fract_z
Si Si1 0.600274 0.696252 0.500211
Si Si2 0.842991 0.604918 0.786569
Si Si3 0.602972 0.888811 0.469063
Si Si4 0.767302 0.069378 0.377414
O O1 0.500000 0.684900 0.448670
O O2 0.599066 0.670402 0.637469
O O3 0.632023 0.791527 0.481981
O O4 0.666845 0.634444 0.436370
O O5 0.750000 0.650980 0.750000
O O6 0.894423 0.581370 0.666731
O O7 0.815223 0.522462 0.864907
O O8 0.500000 0.904023 0.514259
O O9 0.672961 0.940163 0.550852
O O10 0.750000 0.106873 0.250000
#
# Coordination Sequence:
#
# PCOD8264914 Si02
#       4
#    16  16  16  16
#     4  11  25  44  73 107 142 186 239 300 363 421
#     4  11  24  44  73 103 141 189 238 292 357 424
#     4  11  26  47  74 109 146 188 238 298 361 425
#     4  11  26  44  72 105 144 191 242 291 356 429
#
# _framework density 23.842272000000001
#
# number of rings (size 3 to 8) (size 9 to 14) (size 15 to 20)
#    0.000    1.000    2.500    2.250    7.000    4.000 
#    0.000   12.500    0.000    0.000    0.000    0.000 
#    0.000    0.000    0.000    0.000    0.000    0.000 
#
# Total GULP energy -396635.660876 kJ/mol
# GULP energy per Si atom -12394.864402 kJ/mol
# Density = 2.378801 g / cm^3
# Si number density = 23.842272 Si / 1000 Ang^3
#
#
#
# Elastic Constant Matrix: (Units=GPa)
#
#
# Indices 1 2 3 4 5 6 
#
# 1 114.5192 47.1577 42.7385 0.0000 0.0000 0.0000
# 2 47.1577 135.5174 70.5914 0.0000 0.0000 0.0000
# 3 42.7385 70.5914 125.1192 0.0000 0.0000 0.0000
# 4 0.0000 0.0000 0.0000 30.3347 0.0000 0.0000
# 5 0.0000 0.0000 0.0000 0.0000 13.2046 0.0000
# 6 0.0000 0.0000 0.0000 0.0000 0.0000 148.4156
#
#
#
# Elastic Compliance Matrix: (Units=1/GPa)
#
#
# Indices 1 2 3 4 5 6 
#
# 1 0.010597 -0.002552 -0.002180 0.000000 0.000000 0.000000
# 2 -0.002552 0.011065 -0.005371 0.000000 0.000000 0.000000
# 3 -0.002180 -0.005371 0.011767 0.000000 0.000000 0.000000
# 4 0.000000 0.000000 0.000000 0.032966 0.000000 0.000000
# 5 0.000000 0.000000 0.000000 0.000000 0.075731 0.000000
# 6 0.000000 0.000000 0.000000 0.000000 0.000000 0.006738
#
#
# Mechanical properties :
#
#
# Convention : Reuss Voigt Hill
#
# Bulk Modulus (GPa) = 75.62504 77.34790 76.48647
# Shear Modulus (GPa) = 28.82232 52.70221 40.76227
#
# Velocity S-wave (km/s) = 3.48066 4.70665 4.13929
# Velocity P-wave (km/s) = 6.92395 7.87709 7.41585
#
# Compressibility (1/GPa) = 0.01322313
#
# Stress axis : x y z
#
# Youngs Moduli (GPa) = 94.37060 90.37536 84.98147
#
# Poissons Ratio (x) = 0.23063 0.18524
# Poissons Ratio (y) = 0.24083 0.45644
# Poissons Ratio (z) = 0.20571 0.48541
#
# Static dielectric constant tensor:
#      x y z
#    x 4.497660 0.000000 0.000000 
#    y 0.000000 4.326060 0.000000 
#    z 0.000000 0.000000 4.935040 
# 
# 
# High freq. dielectric constant tensor:
#      x y z
#    x 1.948640 0.000000 0.000000 
#    y 0.000000 1.951960 0.000000 
#    z 0.000000 0.000000 1.957310 
# 
# From -- ./inp_files/14037.got.cif
#   From: 2010.03.12/outbox.cif.g09.slc.cpg/sg64_8_cif.got.tgz:14037.got - 2010.04.10 20:19:32.
