data_PCOD8264852
_publ_section_title
;
Structure prediction by ZEFSAII (Michael W. Deem and Ramdas Pophale) SiO2 
 PCOD8264852
Probable space group: C M C A
;
_chemical_formula_sum "Si O2"
_cell_formula_units_Z 72
_cell_length_a 23.657198
_cell_length_b 9.655766
_cell_length_c 14.168967
_cell_angle_alpha 90.000000
_cell_angle_beta 90.000000
_cell_angle_gamma 90.000000
_cell_volume 3236.594010
_symmetry_space_group_name_H-M "C M C A"
_symmetry_group_IT_number 64
_symmetry_cell_setting 'orthorhombic'
loop_
_space_group_symop_operation_xyz
x,y,z
-x,1/2-y,1/2+z
x,-y,-z
-x,1/2+y,1/2-z
-x,-y,-z
x,1/2+y,1/2-z
-x,y,z
x,1/2-y,1/2+z
1/2+x,1/2+y,z
1/2-x,-y,1/2+z
1/2+x,1/2-y,-z
1/2-x,y,1/2-z
1/2-x,1/2-y,-z
1/2+x,y,1/2-z
1/2-x,1/2+y,z
1/2+x,-y,1/2+z
loop_
_atom_site_type_symbol
_atom_site_label
_atom_site_fract_x
_atom_site_fract_y
_atom_site_fract_z
Si Si1 0.119936 0.877769 0.166205
Si Si2 0.688287 0.000000 0.000000
Si Si3 0.723517 0.548646 0.155753
Si Si4 0.934948 0.841046 0.792061
Si Si5 0.633318 0.282394 0.963249
O O1 0.103671 0.731581 0.212245
O O2 0.184693 0.919017 0.189448
O O3 0.078179 0.995558 0.206980
O O4 0.115383 0.875360 0.052523
O O5 0.726004 0.990732 0.092969
O O6 0.648320 0.867188 0.996544
O O7 0.750000 0.618370 0.250000
O O8 0.686318 0.655691 0.094900
O O9 0.920170 0.773704 0.893423
O O10 0.000000 0.815910 0.767814
#
# Coordination Sequence:
#
# PCOD8264852 Si02
#       5
#    16   8  16  16  16
#     4  11  25  46  68 102 138 177 231 289 343 420
#     4  12  24  42  65 106 141 182 230 282 340 414
#     4  11  23  41  69  99 137 187 224 278 343 414
#     4  11  25  46  72  98 130 179 234 294 357 405
#     4  11  26  43  67 100 140 182 234 286 342 418
#
# _framework density 22.245607
#
# number of rings (size 3 to 8) (size 9 to 14) (size 15 to 20)
#    0.000    0.889    2.222    4.667    9.333    3.556 
#    0.000    0.556    0.000    0.000    0.000    0.000 
#    0.000    0.000    0.000    0.000    0.000    0.000 
#
# Total GULP energy -446459.066709 kJ/mol
# GULP energy per Si atom -12401.640742 kJ/mol
# Density = 2.219498 g / cm^3
# Si number density = 22.245607 Si / 1000 Ang^3
#
#
#
# Elastic Constant Matrix: (Units=GPa)
#
#
# Indices 1 2 3 4 5 6 
#
# 1 32.6417 23.9901 24.8399 0.0000 0.0000 0.0000
# 2 23.9901 98.5994 38.9397 0.0000 0.0000 0.0000
# 3 24.8399 38.9397 147.6077 0.0000 0.0000 0.0000
# 4 0.0000 0.0000 0.0000 39.0763 0.0000 0.0000
# 5 0.0000 0.0000 0.0000 0.0000 31.0135 0.0000
# 6 0.0000 0.0000 0.0000 0.0000 0.0000 19.2431
#
#
#
# Elastic Compliance Matrix: (Units=1/GPa)
#
#
# Indices 1 2 3 4 5 6 
#
# 1 0.039969 -0.007891 -0.004645 0.000000 0.000000 0.000000
# 2 -0.007891 0.012879 -0.002070 0.000000 0.000000 0.000000
# 3 -0.004645 -0.002070 0.008102 0.000000 0.000000 0.000000
# 4 0.000000 0.000000 0.000000 0.025591 0.000000 0.000000
# 5 0.000000 0.000000 0.000000 0.000000 0.032244 0.000000
# 6 0.000000 0.000000 0.000000 0.000000 0.000000 0.051967
#
#
# Mechanical properties :
#
#
# Convention : Reuss Voigt Hill
#
# Bulk Modulus (GPa) = 31.50498 50.48760 40.99629
# Shear Modulus (GPa) = 23.74812 30.60518 27.17665
#
# Velocity S-wave (km/s) = 3.27087 3.71318 3.49902
# Velocity P-wave (km/s) = 5.33459 6.41315 5.89857
#
# Compressibility (1/GPa) = 0.03174101
#
# Stress axis : x y z
#
# Youngs Moduli (GPa) = 25.01919 77.64382 123.42115
#
# Poissons Ratio (x) = 0.61266 0.57324
# Poissons Ratio (y) = 0.19742 0.25545
# Poissons Ratio (z) = 0.11620 0.16071
#
# Static dielectric constant tensor:
#      x y z
#    x 3.872200 0.000000 0.000000 
#    y 0.000000 3.901910 0.000000 
#    z 0.000000 0.000000 4.167530 
# 
# 
# High freq. dielectric constant tensor:
#      x y z
#    x 1.859600 0.000000 0.000000 
#    y 0.000000 1.875330 0.000000 
#    z 0.000000 0.000000 1.889250 
# 
# From -- ./inp_files/27817.got.cif
#   From: 2010.03.12/outbox.cif.g09.slc.cpg/sg64_14_cif.got.tgz:27817.got - 2010.04.10 20:19:32.
