data_PCOD8264582
_publ_section_title
;
Structure prediction by ZEFSAII (Michael W. Deem and Ramdas Pophale) SiO2 
 PCOD8264582
Probable space group: C M C A
;
_chemical_formula_sum "Si O2"
_cell_formula_units_Z 48
_cell_length_a 9.900219
_cell_length_b 14.129711
_cell_length_c 13.929681
_cell_angle_alpha 90.000000
_cell_angle_beta 90.000000
_cell_angle_gamma 90.000000
_cell_volume 1948.584536
_symmetry_space_group_name_H-M "C M C A"
_symmetry_group_IT_number 64
_symmetry_cell_setting 'orthorhombic'
loop_
_space_group_symop_operation_xyz
x,y,z
-x,1/2-y,1/2+z
x,-y,-z
-x,1/2+y,1/2-z
-x,-y,-z
x,1/2+y,1/2-z
-x,y,z
x,1/2-y,1/2+z
1/2+x,1/2+y,z
1/2-x,-y,1/2+z
1/2+x,1/2-y,-z
1/2-x,y,1/2-z
1/2-x,1/2-y,-z
1/2+x,y,1/2-z
1/2-x,1/2+y,z
1/2+x,-y,1/2+z
loop_
_atom_site_type_symbol
_atom_site_label
_atom_site_fract_x
_atom_site_fract_y
_atom_site_fract_z
Si Si1 0.856016 0.139828 0.038501
Si Si2 0.286142 0.677635 0.643640
Si Si3 0.847882 0.032010 0.338214
O O1 0.869939 0.239278 0.093889
O O2 0.000000 0.086926 0.055411
O O3 0.727028 0.077394 0.069934
O O4 0.843934 0.158693 0.924168
O O5 0.250000 0.713374 0.750000
O O6 0.368952 0.580109 0.651346
O O7 0.750000 0.058142 0.250000
O O8 0.000000 0.075157 0.326560
#
# Coordination Sequence:
#
# PCOD8264582 Si02
#       3
#    16  16  16
#     4  11  24  42  67  99 133 171 218 271 327 389
#     4  10  24  43  66  94 131 173 218 268 324 385
#     4  11  24  43  68  97 132 173 216 267 325 388
#
# _framework density 24.633265000000002
#
# number of rings (size 3 to 8) (size 9 to 14) (size 15 to 20)
#    0.000    1.333    0.000    4.000    0.000   17.333 
#    0.000    0.000    0.000    0.000    0.000    0.000 
#    0.000    0.000    0.000    0.000    0.000    0.000 
#
# Total GULP energy -297383.124404 kJ/mol
# GULP energy per Si atom -12390.963517 kJ/mol
# Density = 2.457720 g / cm^3
# Si number density = 24.633265 Si / 1000 Ang^3
#
#
#
# Elastic Constant Matrix: (Units=GPa)
#
#
# Indices 1 2 3 4 5 6 
#
# 1 215.4162 20.0122 62.5549 0.0000 0.0000 0.0000
# 2 20.0122 73.4151 16.5307 0.0000 0.0000 0.0000
# 3 62.5549 16.5307 186.3612 0.0000 0.0000 0.0000
# 4 0.0000 0.0000 0.0000 38.9088 0.0000 0.0000
# 5 0.0000 0.0000 0.0000 0.0000 14.5717 0.0000
# 6 0.0000 0.0000 0.0000 0.0000 0.0000 -50.2780
#
#
#
# Elastic Compliance Matrix: (Units=1/GPa)
#
#
# Indices 1 2 3 4 5 6 
#
# 1 0.005222 -0.001050 -0.001660 0.000000 0.000000 0.000000
# 2 -0.001050 0.014110 -0.000899 0.000000 0.000000 0.000000
# 3 -0.001660 -0.000899 0.006003 0.000000 0.000000 0.000000
# 4 0.000000 0.000000 0.000000 0.025701 0.000000 0.000000
# 5 0.000000 0.000000 0.000000 0.000000 0.068626 0.000000
# 6 0.000000 0.000000 0.000000 0.000000 0.000000 -0.019889
#
#
# Mechanical properties :
#
#
# Convention : Reuss Voigt Hill
#
# Bulk Modulus (GPa) = 55.19634 74.82089 65.00861
# Shear Modulus (GPa) = 44.23672 25.71348 34.97510
#
# Velocity S-wave (km/s) = 4.24230 3.23437 3.77215
# Velocity P-wave (km/s) = 6.81557 6.66244 6.73944
#
# Compressibility (1/GPa) = 0.01811714
#
# Stress axis : x y z
#
# Youngs Moduli (GPa) = 191.51125 70.87278 166.59001
#
# Poissons Ratio (x) = 0.07439 0.27647
# Poissons Ratio (y) = 0.20102 0.14980
# Poissons Ratio (z) = 0.31783 0.06373
#
# Static dielectric constant tensor:
#      x y z
#    x 4.068880 0.000000 0.000000 
#    y 0.000000 4.370620 0.000000 
#    z 0.000000 0.000000 4.604450 
# 
# 
# High freq. dielectric constant tensor:
#      x y z
#    x 1.965700 0.000000 0.000000 
#    y 0.000000 1.981580 0.000000 
#    z 0.000000 0.000000 1.989490 
# 
# From -- ./inp_files/20491.got.cif
#   From: 2010.03.12/outbox.cif.g09.slc.cpg/sg64_11_cif.got.tgz:20491.got - 2010.04.10 20:19:32.
