data_PCOD8264986
_publ_section_title
;
Structure prediction by ZEFSAII (Michael W. Deem and Ramdas Pophale) SiO2 
 PCOD8264986
Probable space group: C M C A
;
_chemical_formula_sum "Si O2"
_cell_formula_units_Z 48
_cell_length_a 15.272230
_cell_length_b 16.933997
_cell_length_c 7.799109
_cell_angle_alpha 90.000000
_cell_angle_beta 90.000000
_cell_angle_gamma 90.000000
_cell_volume 2017.004766
_symmetry_space_group_name_H-M "C M C A"
_symmetry_group_IT_number 64
_symmetry_cell_setting 'orthorhombic'
loop_
_space_group_symop_operation_xyz
x,y,z
-x,1/2-y,1/2+z
x,-y,-z
-x,1/2+y,1/2-z
-x,-y,-z
x,1/2+y,1/2-z
-x,y,z
x,1/2-y,1/2+z
1/2+x,1/2+y,z
1/2-x,-y,1/2+z
1/2+x,1/2-y,-z
1/2-x,y,1/2-z
1/2-x,1/2-y,-z
1/2+x,y,1/2-z
1/2-x,1/2+y,z
1/2+x,-y,1/2+z
loop_
_atom_site_type_symbol
_atom_site_label
_atom_site_fract_x
_atom_site_fract_y
_atom_site_fract_z
Si Si1 0.667359 0.000000 0.500000
Si Si2 0.852321 0.360823 0.711927
Si Si3 0.250000 0.884314 0.250000
Si Si4 0.901709 0.703981 0.928211
O O1 0.613604 0.947179 0.640316
O O2 0.731436 0.936973 0.414526
O O3 0.750000 0.365493 0.750000
O O4 0.874187 0.296478 0.563810
O O5 0.901296 0.336213 0.885397
O O6 0.164784 0.833257 0.292151
O O7 0.000000 0.694987 0.854611
#
# Coordination Sequence:
#
# PCOD8264986 Si02
#       4
#     8  16   8  16
#     4  12  24  42  76 102 142 200 234 298 372 428
#     4  12  23  46  73 107 141 191 244 294 364 428
#     4  12  22  46  74 104 146 192 244 298 368 422
#     4  12  26  46  74 108 145 191 247 299 354 434
#
# _framework density 23.797664000000001
#
# number of rings (size 3 to 8) (size 9 to 14) (size 15 to 20)
#    0.000    0.000    6.667    4.000    0.000    0.000 
#    0.000   15.000    0.000    0.000    0.000    0.000 
#    0.000    0.000    0.000    0.000    0.000    0.000 
#
# Total GULP energy -297497.897315 kJ/mol
# GULP energy per Si atom -12395.745721 kJ/mol
# Density = 2.374350 g / cm^3
# Si number density = 23.797664 Si / 1000 Ang^3
#
#
#
# Elastic Constant Matrix: (Units=GPa)
#
#
# Indices 1 2 3 4 5 6 
#
# 1 121.5307 82.1962 45.3848 0.0000 0.0000 0.0000
# 2 82.1962 173.1861 64.5897 0.0000 0.0000 0.0000
# 3 45.3848 64.5897 116.1696 0.0000 0.0000 0.0000
# 4 0.0000 0.0000 0.0000 55.8059 0.0000 0.0000
# 5 0.0000 0.0000 0.0000 0.0000 28.1614 0.0000
# 6 0.0000 0.0000 0.0000 0.0000 0.0000 -7.0060
#
#
#
# Elastic Compliance Matrix: (Units=1/GPa)
#
#
# Indices 1 2 3 4 5 6 
#
# 1 0.012475 -0.005176 -0.001995 0.000000 0.000000 0.000000
# 2 -0.005176 0.009433 -0.003222 0.000000 0.000000 0.000000
# 3 -0.001995 -0.003222 0.011179 0.000000 0.000000 0.000000
# 4 0.000000 0.000000 0.000000 0.017919 0.000000 0.000000
# 5 0.000000 0.000000 0.000000 0.000000 0.035510 0.000000
# 6 0.000000 0.000000 0.000000 0.000000 0.000000 -0.142736
#
#
# Mechanical properties :
#
#
# Convention : Reuss Voigt Hill
#
# Bulk Modulus (GPa) = 81.31210 88.35864 84.83537
# Shear Modulus (GPa) = -159.57688 29.97332 -64.80178
#
# Velocity S-wave (km/s) = -8.19764 3.55280 -5.22393
# Velocity P-wave (km/s) = 7.44039 7.35116 0.81234
#
# Compressibility (1/GPa) = 0.01229829
#
# Stress axis : x y z
#
# Youngs Moduli (GPa) = 80.16316 106.01520 89.45166
#
# Poissons Ratio (x) = 0.54877 0.17850
# Poissons Ratio (y) = 0.41495 0.28823
# Poissons Ratio (z) = 0.15997 0.34160
#
# Static dielectric constant tensor:
#      x y z
#    x 3.997950 0.000000 0.000000 
#    y 0.000000 4.824380 0.000000 
#    z 0.000000 0.000000 4.787850 
# 
# 
# High freq. dielectric constant tensor:
#      x y z
#    x 1.913390 0.000000 0.000000 
#    y 0.000000 1.955480 0.000000 
#    z 0.000000 0.000000 1.961630 
# 
# From -- ./inp_files/5129.got.cif
#   From: 2010.03.12/outbox.cif.g09.slc.cpg/sg64_3_cif.got.tgz:5129.got - 2010.04.10 20:19:32.
