data_PCOD8264962
_publ_section_title
;
Structure prediction by ZEFSAII (Michael W. Deem and Ramdas Pophale) SiO2 
 PCOD8264962
Probable space group: C M C A
;
_chemical_formula_sum "Si O2"
_cell_formula_units_Z 56
_cell_length_a 15.987660
_cell_length_b 13.712573
_cell_length_c 11.483029
_cell_angle_alpha 90.000000
_cell_angle_beta 90.000000
_cell_angle_gamma 90.000000
_cell_volume 2517.446895
_symmetry_space_group_name_H-M "C M C A"
_symmetry_group_IT_number 64
_symmetry_cell_setting 'orthorhombic'
loop_
_space_group_symop_operation_xyz
x,y,z
-x,1/2-y,1/2+z
x,-y,-z
-x,1/2+y,1/2-z
-x,-y,-z
x,1/2+y,1/2-z
-x,y,z
x,1/2-y,1/2+z
1/2+x,1/2+y,z
1/2-x,-y,1/2+z
1/2+x,1/2-y,-z
1/2-x,y,1/2-z
1/2-x,1/2-y,-z
1/2+x,y,1/2-z
1/2-x,1/2+y,z
1/2+x,-y,1/2+z
loop_
_atom_site_type_symbol
_atom_site_label
_atom_site_fract_x
_atom_site_fract_y
_atom_site_fract_z
Si Si1 0.000000 0.990056 0.812550
Si Si2 0.000000 0.836248 0.005461
Si Si3 0.860787 0.526149 0.125721
Si Si4 0.669522 0.254776 0.582556
Si Si5 0.250000 0.114447 0.750000
O O1 0.079713 0.997635 0.731844
O O2 0.000000 0.080824 0.897858
O O3 0.000000 0.886895 0.879430
O O4 0.083049 0.769581 0.015429
O O5 0.834120 0.637543 0.134334
O O6 0.782773 0.453590 0.144735
O O7 0.900601 0.500000 0.000000
O O8 0.750000 0.250000 0.500000
O O9 0.678941 0.181974 0.691792
#
# Coordination Sequence:
#
# PCOD8264962 Si02
#       5
#     8   8  16  16   8
#     4  11  26  47  75 103 152 196 254 311 380 450
#     4  11  27  49  74 109 147 198 252 318 379 443
#     4  12  26  46  74 106 151 195 249 310 379 449
#     4  12  27  49  75 112 150 196 252 311 381 454
#     4  12  26  46  76 108 148 194 250 312 376 450
#
# _framework density 22.244759999999999
#
# number of rings (size 3 to 8) (size 9 to 14) (size 15 to 20)
#    0.000    0.286    5.714    2.143    8.000    0.000 
#    5.143    0.000    0.000    0.000    0.000    0.000 
#    0.000    0.000    0.000    0.000    0.000    0.000 
#
# Total GULP energy -347284.199349 kJ/mol
# GULP energy per Si atom -12403.007120 kJ/mol
# Density = 2.219413 g / cm^3
# Si number density = 22.244760 Si / 1000 Ang^3
#
#
#
# Elastic Constant Matrix: (Units=GPa)
#
#
# Indices 1 2 3 4 5 6 
#
# 1 125.8801 42.5728 32.8026 0.0000 0.0000 0.0000
# 2 42.5728 157.9820 41.5850 0.0000 0.0000 0.0000
# 3 32.8026 41.5850 117.4579 0.0000 0.0000 0.0000
# 4 0.0000 0.0000 0.0000 45.2916 0.0000 0.0000
# 5 0.0000 0.0000 0.0000 0.0000 38.6079 0.0000
# 6 0.0000 0.0000 0.0000 0.0000 0.0000 30.0674
#
#
#
# Elastic Compliance Matrix: (Units=1/GPa)
#
#
# Indices 1 2 3 4 5 6 
#
# 1 0.009089 -0.001964 -0.001843 0.000000 0.000000 0.000000
# 2 -0.001964 0.007405 -0.002073 0.000000 0.000000 0.000000
# 3 -0.001843 -0.002073 0.009762 0.000000 0.000000 0.000000
# 4 0.000000 0.000000 0.000000 0.022079 0.000000 0.000000
# 5 0.000000 0.000000 0.000000 0.000000 0.025901 0.000000
# 6 0.000000 0.000000 0.000000 0.000000 0.000000 0.033259
#
#
# Mechanical properties :
#
#
# Convention : Reuss Voigt Hill
#
# Bulk Modulus (GPa) = 68.98615 70.58231 69.78423
# Shear Modulus (GPa) = 40.29440 41.75069 41.02255
#
# Velocity S-wave (km/s) = 4.26068 4.33699 4.29901
# Velocity P-wave (km/s) = 7.43534 7.54176 7.48874
#
# Compressibility (1/GPa) = 0.01449566
#
# Stress axis : x y z
#
# Youngs Moduli (GPa) = 110.02871 135.04736 102.43502
#
# Poissons Ratio (x) = 0.26525 0.18877
# Poissons Ratio (y) = 0.21611 0.21236
# Poissons Ratio (z) = 0.20276 0.27997
#
# Static dielectric constant tensor:
#      x y z
#    x 5.816780 0.000000 0.000000 
#    y 0.000000 4.221300 0.000000 
#    z 0.000000 0.000000 4.148880 
# 
# 
# High freq. dielectric constant tensor:
#      x y z
#    x 1.873030 0.000000 0.000000 
#    y 0.000000 1.898180 0.000000 
#    z 0.000000 0.000000 1.884630 
# 
# From -- ./inp_files/13779.got.cif
#   From: 2010.03.12/outbox.cif.g09.slc.cpg/sg64_7_cif.got.tgz:13779.got - 2010.04.10 20:19:32.
