data_PCOD8264497
_publ_section_title
;
Structure prediction by ZEFSAII (Michael W. Deem and Ramdas Pophale) SiO2 
 PCOD8264497
Probable space group: C M C A
;
_chemical_formula_sum "Si O2"
_cell_formula_units_Z 64
_cell_length_a 13.902660
_cell_length_b 15.062560
_cell_length_c 11.590490
_cell_angle_alpha 90.000000
_cell_angle_beta 90.000000
_cell_angle_gamma 90.000000
_cell_volume 2427.160459
_symmetry_space_group_name_H-M "C M C A"
_symmetry_group_IT_number 64
_symmetry_cell_setting 'orthorhombic'
loop_
_space_group_symop_operation_xyz
x,y,z
-x,1/2-y,1/2+z
x,-y,-z
-x,1/2+y,1/2-z
-x,-y,-z
x,1/2+y,1/2-z
-x,y,z
x,1/2-y,1/2+z
1/2+x,1/2+y,z
1/2-x,-y,1/2+z
1/2+x,1/2-y,-z
1/2-x,y,1/2-z
1/2-x,1/2-y,-z
1/2+x,y,1/2-z
1/2-x,1/2+y,z
1/2+x,-y,1/2+z
loop_
_atom_site_type_symbol
_atom_site_label
_atom_site_fract_x
_atom_site_fract_y
_atom_site_fract_z
Si Si1 0.104671 0.573937 0.122886
Si Si2 0.391469 0.102636 0.745817
Si Si3 0.147169 0.208880 0.193794
Si Si4 0.793852 0.402015 0.487455
O O1 0.144257 0.482490 0.181225
O O2 0.085799 0.647822 0.220178
O O3 0.000000 0.558314 0.064275
O O4 0.180608 0.599813 0.022873
O O5 0.500000 0.084107 0.698891
O O6 0.394638 0.192365 0.822011
O O7 0.313325 0.124938 0.645029
O O8 0.250000 0.206615 0.250000
O O9 0.147554 0.166692 0.066291
O O10 0.838403 0.500000 0.500000
#
# Coordination Sequence:
#
# PCOD8264497 Si02
#       4
#    16  16  16  16
#     4  10  23  45  71 107 149 191 245 312 372 434
#     4  11  25  45  74 107 149 197 244 306 378 444
#     4  10  23  42  72 105 145 192 242 308 363 436
#     4  11  24  45  78 104 142 198 248 301 368 447
#
# _framework density 26.368258999999998
#
# number of rings (size 3 to 8) (size 9 to 14) (size 15 to 20)
#    0.000    1.500    2.500    0.750    3.500    7.000 
#    0.000    0.000    0.000    1.500    0.000    0.000 
#    0.000    0.000    0.000    0.000    0.000    0.000 
#
# Total GULP energy -396698.670214 kJ/mol
# GULP energy per Si atom -12396.833444 kJ/mol
# Density = 2.630824 g / cm^3
# Si number density = 26.368259 Si / 1000 Ang^3
#
#
#
# Elastic Constant Matrix: (Units=GPa)
#
#
# Indices 1 2 3 4 5 6 
#
# 1 137.5406 13.7177 47.2278 0.0000 0.0000 0.0000
# 2 13.7177 159.1456 24.8166 0.0000 0.0000 0.0000
# 3 47.2278 24.8166 96.8746 0.0000 0.0000 0.0000
# 4 0.0000 0.0000 0.0000 45.3488 0.0000 0.0000
# 5 0.0000 0.0000 0.0000 0.0000 33.6998 0.0000
# 6 0.0000 0.0000 0.0000 0.0000 0.0000 -26.0830
#
#
#
# Elastic Compliance Matrix: (Units=1/GPa)
#
#
# Indices 1 2 3 4 5 6 
#
# 1 0.008734 -0.000093 -0.004234 0.000000 0.000000 0.000000
# 2 -0.000093 0.006546 -0.001632 0.000000 0.000000 0.000000
# 3 -0.004234 -0.001632 0.012805 0.000000 0.000000 0.000000
# 4 0.000000 0.000000 0.000000 0.022051 0.000000 0.000000
# 5 0.000000 0.000000 0.000000 0.000000 0.029674 0.000000
# 6 0.000000 0.000000 0.000000 0.000000 0.000000 -0.038339
#
#
# Mechanical properties :
#
#
# Convention : Reuss Voigt Hill
#
# Bulk Modulus (GPa) = 61.85194 62.78722 62.31958
# Shear Modulus (GPa) = 85.06800 31.11303 58.09051
#
# Velocity S-wave (km/s) = 5.68608 3.43876 4.69875
# Velocity P-wave (km/s) = 8.16190 6.29524 7.28858
#
# Compressibility (1/GPa) = 0.01616764
#
# Stress axis : x y z
#
# Youngs Moduli (GPa) = 114.49927 152.76534 78.09566
#
# Poissons Ratio (x) = 0.01414 0.33066
# Poissons Ratio (y) = 0.01060 0.12743
# Poissons Ratio (z) = 0.48480 0.24928
#
# Static dielectric constant tensor:
#      x y z
#    x 6.454540 0.000000 0.000000 
#    y 0.000000 5.374440 0.000000 
#    z 0.000000 0.000000 4.742490 
# 
# 
# High freq. dielectric constant tensor:
#      x y z
#    x 2.057780 0.000000 0.000000 
#    y 0.000000 2.073780 0.000000 
#    z 0.000000 0.000000 2.046830 
# 
# From -- ./inp_files/14042.got.cif
#   From: 2010.03.12/outbox.cif.g09.slc.cpg/sg64_8_cif.got.tgz:14042.got - 2010.04.10 20:19:32.
