data_PCOD8264010
_publ_section_title
;
Structure prediction by ZEFSAII (Michael W. Deem and Ramdas Pophale) SiO2 
 PCOD8264010
Probable space group: C M C A
;
_chemical_formula_sum "Si O2"
_cell_formula_units_Z 80
_cell_length_a 15.400070
_cell_length_b 9.907729
_cell_length_c 27.134011
_cell_angle_alpha 90.000000
_cell_angle_beta 90.000000
_cell_angle_gamma 90.000000
_cell_volume 4140.099805
_symmetry_space_group_name_H-M "C M C A"
_symmetry_group_IT_number 64
_symmetry_cell_setting 'orthorhombic'
loop_
_space_group_symop_operation_xyz
x,y,z
-x,1/2-y,1/2+z
x,-y,-z
-x,1/2+y,1/2-z
-x,-y,-z
x,1/2+y,1/2-z
-x,y,z
x,1/2-y,1/2+z
1/2+x,1/2+y,z
1/2-x,-y,1/2+z
1/2+x,1/2-y,-z
1/2-x,y,1/2-z
1/2-x,1/2-y,-z
1/2+x,y,1/2-z
1/2-x,1/2+y,z
1/2+x,-y,1/2+z
loop_
_atom_site_type_symbol
_atom_site_label
_atom_site_fract_x
_atom_site_fract_y
_atom_site_fract_z
Si Si1 0.596710 0.885736 0.709609
Si Si2 0.500000 0.591236 0.548073
Si Si3 0.172128 0.903500 0.893861
Si Si4 0.339594 0.900513 0.223535
Si Si5 0.172824 0.906337 0.392130
Si Si6 0.000000 0.594663 0.453289
O O1 0.500000 0.853895 0.689706
O O2 0.656295 0.930095 0.663891
O O3 0.635391 0.752755 0.735136
O O4 0.590920 0.001225 0.750814
O O5 0.500000 0.500000 0.500000
O O6 0.584152 0.555283 0.580448
O O7 0.500000 0.747767 0.532039
O O8 0.198708 0.748236 0.903045
O O9 0.085381 0.942756 0.922636
O O10 0.250482 0.998181 0.912391
O O11 0.250000 0.936428 0.250000
O O12 0.340209 0.930426 0.165710
O O13 0.000000 0.500000 0.500000
#
# Coordination Sequence:
#
# PCOD8264010 Si02
#       6
#    16   8  16  16  16   8
#     4  11  22  36  56  85 125 161 202 240 294 356
#     4  10  24  46  65  88 120 162 207 262 315 368
#     4  10  21  40  60  88 122 159 196 251 307 365
#     4  11  22  36  57  88 121 162 201 242 293 357
#     4  10  23  39  63  87 124 160 202 251 307 359
#     4  10  22  42  67  88 114 154 199 254 315 366
#
# _framework density 19.323205000000002
#
# number of rings (size 3 to 8) (size 9 to 14) (size 15 to 20)
#    0.000    1.600    3.000    1.200    8.400    2.400 
#    0.000    4.000    0.000    0.000    0.000    0.000 
#    0.000    0.000    0.000    0.000    0.000    0.000 
#
# Total GULP energy -496113.359476 kJ/mol
# GULP energy per Si atom -12402.833987 kJ/mol
# Density = 1.927922 g / cm^3
# Si number density = 19.323205 Si / 1000 Ang^3
#
#
#
# Elastic Constant Matrix: (Units=GPa)
#
#
# Indices 1 2 3 4 5 6 
#
# 1 148.0048 69.0603 57.7747 0.0000 0.0000 0.0000
# 2 69.0603 106.2208 72.7254 0.0000 0.0000 0.0000
# 3 57.7747 72.7254 107.3863 0.0000 0.0000 0.0000
# 4 0.0000 0.0000 0.0000 36.9926 0.0000 0.0000
# 5 0.0000 0.0000 0.0000 0.0000 23.1025 0.0000
# 6 0.0000 0.0000 0.0000 0.0000 0.0000 28.7719
#
#
#
# Elastic Compliance Matrix: (Units=1/GPa)
#
#
# Indices 1 2 3 4 5 6 
#
# 1 0.009882 -0.005192 -0.001800 0.000000 0.000000 0.000000
# 2 -0.005192 0.020282 -0.010942 0.000000 0.000000 0.000000
# 3 -0.001800 -0.010942 0.017691 0.000000 0.000000 0.000000
# 4 0.000000 0.000000 0.000000 0.027032 0.000000 0.000000
# 5 0.000000 0.000000 0.000000 0.000000 0.043285 0.000000
# 6 0.000000 0.000000 0.000000 0.000000 0.000000 0.034756
#
#
# Mechanical properties :
#
#
# Convention : Reuss Voigt Hill
#
# Bulk Modulus (GPa) = 83.43228 84.52584 83.97906
# Shear Modulus (GPa) = 25.93458 28.57681 27.25570
#
# Velocity S-wave (km/s) = 3.66751 3.84980 3.75976
# Velocity P-wave (km/s) = 7.82337 7.97492 7.89951
#
# Compressibility (1/GPa) = 0.01198577
#
# Stress axis : x y z
#
# Youngs Moduli (GPa) = 101.19344 49.30552 56.52631
#
# Poissons Ratio (x) = 0.25601 0.10176
# Poissons Ratio (y) = 0.52543 0.61850
# Poissons Ratio (z) = 0.18217 0.53949
#
# Static dielectric constant tensor:
#      x y z
#    x 3.583440 0.000000 0.000000 
#    y 0.000000 3.531240 0.000000 
#    z 0.000000 0.000000 3.386010 
# 
# 
# High freq. dielectric constant tensor:
#      x y z
#    x 1.764000 0.000000 0.000000 
#    y 0.000000 1.753780 0.000000 
#    z 0.000000 0.000000 1.742140 
# 
# From -- ./inp_files/52580.got.cif
#   From: 2010.03.12/outbox.cif.g09.slc.cpg/sg64_27_cif.got.tgz:52580.got - 2010.04.10 20:19:32.
