data_PCOD8264099
_publ_section_title
;
Structure prediction by ZEFSAII (Michael W. Deem and Ramdas Pophale) SiO2 
 PCOD8264099
Probable space group: C M C A
;
_chemical_formula_sum "Si O2"
_cell_formula_units_Z 80
_cell_length_a 13.745919
_cell_length_b 15.427749
_cell_length_c 18.199617
_cell_angle_alpha 90.000000
_cell_angle_beta 90.000000
_cell_angle_gamma 90.000000
_cell_volume 3859.567081
_symmetry_space_group_name_H-M "C M C A"
_symmetry_group_IT_number 64
_symmetry_cell_setting 'orthorhombic'
loop_
_space_group_symop_operation_xyz
x,y,z
-x,1/2-y,1/2+z
x,-y,-z
-x,1/2+y,1/2-z
-x,-y,-z
x,1/2+y,1/2-z
-x,y,z
x,1/2-y,1/2+z
1/2+x,1/2+y,z
1/2-x,-y,1/2+z
1/2+x,1/2-y,-z
1/2-x,y,1/2-z
1/2-x,1/2-y,-z
1/2+x,y,1/2-z
1/2-x,1/2+y,z
1/2+x,-y,1/2+z
loop_
_atom_site_type_symbol
_atom_site_label
_atom_site_fract_x
_atom_site_fract_y
_atom_site_fract_z
Si Si1 0.614892 0.490343 0.270742
Si Si2 0.112757 0.661872 0.311477
Si Si3 0.884651 0.954859 0.572755
Si Si4 0.226330 0.718608 0.080361
Si Si5 0.387099 0.685341 0.803847
O O1 0.500000 0.492973 0.273414
O O2 0.651806 0.571767 0.222739
O O3 0.653940 0.495537 0.354468
O O4 0.652593 0.402065 0.234205
O O5 0.174195 0.684065 0.383519
O O6 0.129259 0.735235 0.250983
O O7 0.000000 0.656277 0.335116
O O8 0.853808 0.855754 0.576375
O O9 0.000000 0.956715 0.569462
O O10 0.840061 0.000000 0.500000
O O11 0.178547 0.798346 0.124709
O O12 0.250000 0.750000 0.000000
O O13 0.500000 0.675885 0.826160
#
# Coordination Sequence:
#
# PCOD8264099 Si02
#       5
#    16  16  16  16  16
#     4   9  19  39  68  93 118 165 216 261 316 370
#     4  10  22  43  65  90 124 164 216 266 310 371
#     4  10  22  41  64  93 131 169 210 264 321 383
#     4  12  26  40  59  96 135 169 208 259 325 383
#     4  10  21  41  68  94 123 162 211 264 318 378
#
# _framework density 20.727713000000001
#
# number of rings (size 3 to 8) (size 9 to 14) (size 15 to 20)
#    0.000    1.800    2.000    1.200    2.800    3.200 
#    3.600    0.000    0.000    4.200    0.000    0.000 
#    0.000    0.000    0.000    0.000    0.000    0.000 
#
# Total GULP energy -496088.280069 kJ/mol
# GULP energy per Si atom -12402.207002 kJ/mol
# Density = 2.068054 g / cm^3
# Si number density = 20.727713 Si / 1000 Ang^3
#
#
#
# Elastic Constant Matrix: (Units=GPa)
#
#
# Indices 1 2 3 4 5 6 
#
# 1 58.6584 25.1727 55.2835 0.0000 0.0000 0.0000
# 2 25.1727 164.2610 84.3280 0.0000 0.0000 0.0000
# 3 55.2835 84.3280 186.9202 0.0000 0.0000 0.0000
# 4 0.0000 0.0000 0.0000 38.7659 0.0000 0.0000
# 5 0.0000 0.0000 0.0000 0.0000 30.6333 0.0000
# 6 0.0000 0.0000 0.0000 0.0000 0.0000 -1.9730
#
#
#
# Elastic Compliance Matrix: (Units=1/GPa)
#
#
# Indices 1 2 3 4 5 6 
#
# 1 0.023637 -0.000043 -0.006971 0.000000 0.000000 0.000000
# 2 -0.000043 0.007923 -0.003562 0.000000 0.000000 0.000000
# 3 -0.006971 -0.003562 0.009018 0.000000 0.000000 0.000000
# 4 0.000000 0.000000 0.000000 0.025796 0.000000 0.000000
# 5 0.000000 0.000000 0.000000 0.000000 0.032644 0.000000
# 6 0.000000 0.000000 0.000000 0.000000 0.000000 -0.506843
#
#
# Mechanical properties :
#
#
# Convention : Reuss Voigt Hill
#
# Bulk Modulus (GPa) = 51.47823 82.15643 66.81733
# Shear Modulus (GPa) = -13.15107 29.82226 8.33560
#
# Velocity S-wave (km/s) = -2.52160 3.79722 2.00754
# Velocity P-wave (km/s) = 4.05110 7.67771 6.13835
#
# Compressibility (1/GPa) = 0.01942569
#
# Stress axis : x y z
#
# Youngs Moduli (GPa) = 42.30737 126.21561 110.88401
#
# Poissons Ratio (x) = 0.00548 0.77299
# Poissons Ratio (y) = 0.00184 0.39492
# Poissons Ratio (z) = 0.29493 0.44952
#
# Static dielectric constant tensor:
#      x y z
#    x 3.769380 0.000000 0.000000 
#    y 0.000000 4.039240 0.000000 
#    z 0.000000 0.000000 4.163780 
# 
# 
# High freq. dielectric constant tensor:
#      x y z
#    x 1.817470 0.000000 0.000000 
#    y 0.000000 1.817020 0.000000 
#    z 0.000000 0.000000 1.805680 
# 
# From -- ./inp_files/32974.got.cif
#   From: 2010.03.12/outbox.cif.g09.slc.cpg/sg64_17_cif.got.tgz:32974.got - 2010.04.10 20:19:32.
