data_PCOD8264493
_publ_section_title
;
Structure prediction by ZEFSAII (Michael W. Deem and Ramdas Pophale) SiO2 
 PCOD8264493
Probable space group: C M C A
;
_chemical_formula_sum "Si O2"
_cell_formula_units_Z 56
_cell_length_a 13.556755
_cell_length_b 17.974849
_cell_length_c 11.108849
_cell_angle_alpha 90.000000
_cell_angle_beta 90.000000
_cell_angle_gamma 90.000000
_cell_volume 2707.011257
_symmetry_space_group_name_H-M "C M C A"
_symmetry_group_IT_number 64
_symmetry_cell_setting 'orthorhombic'
loop_
_space_group_symop_operation_xyz
x,y,z
-x,1/2-y,1/2+z
x,-y,-z
-x,1/2+y,1/2-z
-x,-y,-z
x,1/2+y,1/2-z
-x,y,z
x,1/2-y,1/2+z
1/2+x,1/2+y,z
1/2-x,-y,1/2+z
1/2+x,1/2-y,-z
1/2-x,y,1/2-z
1/2-x,1/2-y,-z
1/2+x,y,1/2-z
1/2-x,1/2+y,z
1/2+x,-y,1/2+z
loop_
_atom_site_type_symbol
_atom_site_label
_atom_site_fract_x
_atom_site_fract_y
_atom_site_fract_z
Si Si1 0.614578 0.219178 0.892982
Si Si2 0.750000 0.023762 0.250000
Si Si3 0.732214 0.643107 0.050465
Si Si4 0.386720 0.397805 0.185185
O O1 0.500000 0.229749 0.924868
O O2 0.666107 0.299082 0.872620
O O3 0.629692 0.172342 0.772007
O O4 0.665270 0.180067 0.008058
O O5 0.758179 0.072736 0.369135
O O6 0.652914 0.972156 0.250842
O O7 0.671591 0.615965 0.936119
O O8 0.500000 0.410274 0.153640
#
# Coordination Sequence:
#
# PCOD8264493 Si02
#       4
#    16   8  16  16
#     4  10  23  42  69  96 124 172 227 276 326 384
#     4  12  26  40  64 100 132 178 216 260 334 396
#     4  11  24  42  67  97 134 174 217 278 331 388
#     4  11  24  45  68  96 135 175 219 272 332 394
#
# _framework density 20.687021999999999
#
# number of rings (size 3 to 8) (size 9 to 14) (size 15 to 20)
#    0.000    1.143    2.857    1.714    8.000    4.571 
#    0.000    2.857    0.000    0.000    0.000    0.000 
#    0.000    0.000    0.000    0.000    0.000    0.000 
#
# Total GULP energy -347362.296537 kJ/mol
# GULP energy per Si atom -12405.796305 kJ/mol
# Density = 2.063994 g / cm^3
# Si number density = 20.687022 Si / 1000 Ang^3
#
#
#
# Elastic Constant Matrix: (Units=GPa)
#
#
# Indices 1 2 3 4 5 6 
#
# 1 94.8880 45.7775 43.9226 0.0000 0.0000 0.0000
# 2 45.7775 132.9495 52.7802 0.0000 0.0000 0.0000
# 3 43.9226 52.7802 97.6860 0.0000 0.0000 0.0000
# 4 0.0000 0.0000 0.0000 42.3642 0.0000 0.0000
# 5 0.0000 0.0000 0.0000 0.0000 25.4645 0.0000
# 6 0.0000 0.0000 0.0000 0.0000 0.0000 22.6522
#
#
#
# Elastic Compliance Matrix: (Units=1/GPa)
#
#
# Indices 1 2 3 4 5 6 
#
# 1 0.014187 -0.002995 -0.004761 0.000000 0.000000 0.000000
# 2 -0.002995 0.010208 -0.004169 0.000000 0.000000 0.000000
# 3 -0.004761 -0.004169 0.014630 0.000000 0.000000 0.000000
# 4 0.000000 0.000000 0.000000 0.023605 0.000000 0.000000
# 5 0.000000 0.000000 0.000000 0.000000 0.039270 0.000000
# 6 0.000000 0.000000 0.000000 0.000000 0.000000 0.044146
#
#
# Mechanical properties :
#
#
# Convention : Reuss Voigt Hill
#
# Bulk Modulus (GPa) = 65.89364 67.83159 66.86261
# Shear Modulus (GPa) = 28.57894 30.29906 29.43900
#
# Velocity S-wave (km/s) = 3.72087 3.83121 3.77645
# Velocity P-wave (km/s) = 7.09800 7.24096 7.16984
#
# Compressibility (1/GPa) = 0.01517597
#
# Stress axis : x y z
#
# Youngs Moduli (GPa) = 70.48512 97.96384 68.35327
#
# Poissons Ratio (x) = 0.29340 0.32542
# Poissons Ratio (y) = 0.21110 0.28494
# Poissons Ratio (z) = 0.33557 0.40838
#
# Static dielectric constant tensor:
#      x y z
#    x 3.984560 0.000000 0.000000 
#    y 0.000000 4.013070 0.000000 
#    z 0.000000 0.000000 3.678640 
# 
# 
# High freq. dielectric constant tensor:
#      x y z
#    x 1.817520 0.000000 0.000000 
#    y 0.000000 1.822240 0.000000 
#    z 0.000000 0.000000 1.810870 
# 
# From -- ./inp_files/13951.got.cif
#   From: 2010.03.12/outbox.cif.g09.slc.cpg/sg64_7_cif.got.tgz:13951.got - 2010.04.10 20:19:32.
