data_PCOD8264291
_publ_section_title
;
Structure prediction by ZEFSAII (Michael W. Deem and Ramdas Pophale) SiO2 
 PCOD8264291
Probable space group: C M C A
;
_chemical_formula_sum "Si O2"
_cell_formula_units_Z 96
_cell_length_a 23.578558
_cell_length_b 21.367856
_cell_length_c 8.723789
_cell_angle_alpha 90.000000
_cell_angle_beta 90.000000
_cell_angle_gamma 90.000000
_cell_volume 4395.247570
_symmetry_space_group_name_H-M "C M C A"
_symmetry_group_IT_number 64
_symmetry_cell_setting 'orthorhombic'
loop_
_space_group_symop_operation_xyz
x,y,z
-x,1/2-y,1/2+z
x,-y,-z
-x,1/2+y,1/2-z
-x,-y,-z
x,1/2+y,1/2-z
-x,y,z
x,1/2-y,1/2+z
1/2+x,1/2+y,z
1/2-x,-y,1/2+z
1/2+x,1/2-y,-z
1/2-x,y,1/2-z
1/2-x,1/2-y,-z
1/2+x,y,1/2-z
1/2-x,1/2+y,z
1/2+x,-y,1/2+z
loop_
_atom_site_type_symbol
_atom_site_label
_atom_site_fract_x
_atom_site_fract_y
_atom_site_fract_z
Si Si1 0.621314 0.312545 0.891927
Si Si2 0.696232 0.864046 0.836621
Si Si3 0.117825 0.388568 0.320909
Si Si4 0.500000 0.263533 0.963626
Si Si5 0.000000 0.842546 0.257562
Si Si6 0.695132 0.699249 0.645021
Si Si7 0.691950 0.005050 0.817466
O O1 0.638880 0.329043 0.717097
O O2 0.556850 0.290214 0.885686
O O3 0.668527 0.259774 0.941743
O O4 0.625754 0.375180 0.997757
O O5 0.750000 0.833875 0.750000
O O6 0.687814 0.933410 0.768855
O O7 0.707402 0.855063 0.017838
O O8 0.052542 0.388342 0.270448
O O9 0.145662 0.327309 0.249113
O O10 0.142427 0.454322 0.261098
O O11 0.500000 0.188568 0.928110
O O12 0.500000 0.282209 0.142212
O O13 0.750000 0.713345 0.750000
O O14 0.750000 0.034773 0.750000
O O15 0.689053 0.000000 0.000000
#
# Coordination Sequence:
#
# PCOD8264291 Si02
#       7
#    16  16  16   8   8  16  16
#     4  11  24  40  63  97 131 173 217 267 333 392
#     4  11  25  41  64  94 128 171 220 263 324 402
#     4  11  23  41  66  92 132 171 217 276 324 387
#     4  10  22  40  63  93 131 173 218 256 325 401
#     4  10  22  42  66  95 128 176 214 265 333 389
#     4  12  23  39  64  97 137 172 210 271 334 395
#     4  11  25  44  68  94 127 175 225 269 332 396
#
# _framework density 21.841774000000001
#
# number of rings (size 3 to 8) (size 9 to 14) (size 15 to 20)
#    0.000    1.000    3.333    3.000    7.000    2.000 
#    0.000    2.083    0.000    3.000    0.000    0.000 
#    0.000    0.000    0.000    0.000    0.000    0.000 
#
# Total GULP energy -594725.281648 kJ/mol
# GULP energy per Si atom -12390.110034 kJ/mol
# Density = 2.179206 g / cm^3
# Si number density = 21.841774 Si / 1000 Ang^3
#
#
#
# Elastic Constant Matrix: (Units=GPa)
#
#
# Indices 1 2 3 4 5 6 
#
# 1 164.6424 54.2767 52.1828 0.0000 0.0000 0.0000
# 2 54.2767 93.6453 27.3375 0.0000 0.0000 0.0000
# 3 52.1828 27.3375 86.6378 0.0000 0.0000 0.0000
# 4 0.0000 0.0000 0.0000 19.2874 0.0000 0.0000
# 5 0.0000 0.0000 0.0000 0.0000 30.7785 0.0000
# 6 0.0000 0.0000 0.0000 0.0000 0.0000 11.7960
#
#
#
# Elastic Compliance Matrix: (Units=1/GPa)
#
#
# Indices 1 2 3 4 5 6 
#
# 1 0.008591 -0.003821 -0.003969 0.000000 0.000000 0.000000
# 2 -0.003821 0.013461 -0.001946 0.000000 0.000000 0.000000
# 3 -0.003969 -0.001946 0.014547 0.000000 0.000000 0.000000
# 4 0.000000 0.000000 0.000000 0.051847 0.000000 0.000000
# 5 0.000000 0.000000 0.000000 0.000000 0.032490 0.000000
# 6 0.000000 0.000000 0.000000 0.000000 0.000000 0.084774
#
#
# Mechanical properties :
#
#
# Convention : Reuss Voigt Hill
#
# Bulk Modulus (GPa) = 58.38579 68.05771 63.22175
# Shear Modulus (GPa) = 21.65507 26.44762 24.05134
#
# Velocity S-wave (km/s) = 3.15215 3.48354 3.32198
# Velocity P-wave (km/s) = 6.32751 6.88528 6.61228
#
# Compressibility (1/GPa) = 0.01712746
#
# Stress axis : x y z
#
# Youngs Moduli (GPa) = 116.39629 74.28700 68.74277
#
# Poissons Ratio (x) = 0.28384 0.27284
# Poissons Ratio (y) = 0.44474 0.13379
# Poissons Ratio (z) = 0.46198 0.14458
#
# Static dielectric constant tensor:
#      x y z
#    x 4.004170 0.000000 0.000000 
#    y 0.000000 3.951640 0.000000 
#    z 0.000000 0.000000 3.942600 
# 
# 
# High freq. dielectric constant tensor:
#      x y z
#    x 1.860920 0.000000 0.000000 
#    y 0.000000 1.848090 0.000000 
#    z 0.000000 0.000000 1.861380 
# 
# From -- ./inp_files/9566.got.cif
#   From: 2010.03.12/outbox.cif.g09.slc.cpg/sg64_5_cif.got.tgz:9566.got - 2010.04.10 20:19:32.
