data_PCOD8264026
_publ_section_title
;
Structure prediction by ZEFSAII (Michael W. Deem and Ramdas Pophale) SiO2 
 PCOD8264026
Probable space group: C M C A
;
_chemical_formula_sum "Si O2"
_cell_formula_units_Z 64
_cell_length_a 16.118549
_cell_length_b 20.386900
_cell_length_c 9.406343
_cell_angle_alpha 90.000000
_cell_angle_beta 90.000000
_cell_angle_gamma 90.000000
_cell_volume 3090.992474
_symmetry_space_group_name_H-M "C M C A"
_symmetry_group_IT_number 64
_symmetry_cell_setting 'orthorhombic'
loop_
_space_group_symop_operation_xyz
x,y,z
-x,1/2-y,1/2+z
x,-y,-z
-x,1/2+y,1/2-z
-x,-y,-z
x,1/2+y,1/2-z
-x,y,z
x,1/2-y,1/2+z
1/2+x,1/2+y,z
1/2-x,-y,1/2+z
1/2+x,1/2-y,-z
1/2-x,y,1/2-z
1/2-x,1/2-y,-z
1/2+x,y,1/2-z
1/2-x,1/2+y,z
1/2+x,-y,1/2+z
loop_
_atom_site_type_symbol
_atom_site_label
_atom_site_fract_x
_atom_site_fract_y
_atom_site_fract_z
Si Si1 0.830809 0.691358 0.337812
Si Si2 0.824200 0.461491 0.640478
Si Si3 0.411221 0.275528 0.559479
Si Si4 0.000000 0.994591 0.729732
Si Si5 0.000000 0.106124 0.526360
O O1 0.750000 0.710785 0.250000
O O2 0.830210 0.616157 0.385962
O O3 0.839537 0.733940 0.482316
O O4 0.902343 0.711734 0.227912
O O5 0.797228 0.500000 0.500000
O O6 0.750000 0.477315 0.750000
O O7 0.915679 0.485982 0.682490
O O8 0.500000 0.238267 0.542457
O O9 0.417642 0.348070 0.486919
O O10 0.000000 0.945306 0.600043
O O11 0.000000 0.069739 0.676479
#
# Coordination Sequence:
#
# PCOD8264026 Si02
#       5
#    16  16  16   8   8
#     4  11  23  41  63  96 131 170 214 270 330 387
#     4  11  26  44  68 100 135 176 223 280 334 399
#     4  10  21  40  63  90 127 169 217 265 319 392
#     4  11  21  43  67  95 134 173 228 269 336 394
#     4   9  22  35  71  93 125 175 220 268 340 387
#
# _framework density 20.705324000000001
#
# number of rings (size 3 to 8) (size 9 to 14) (size 15 to 20)
#    0.750    0.750    2.500    1.875    5.250    2.000 
#    0.000    2.500    0.000    0.000    0.000    0.000 
#    0.000    0.000    0.000    0.000    0.000    0.000 
#
# Total GULP energy -396478.646684 kJ/mol
# GULP energy per Si atom -12389.957709 kJ/mol
# Density = 2.065820 g / cm^3
# Si number density = 20.705324 Si / 1000 Ang^3
#
#
#
# Elastic Constant Matrix: (Units=GPa)
#
#
# Indices 1 2 3 4 5 6 
#
# 1 95.9108 19.7694 37.4538 0.0000 0.0000 0.0000
# 2 19.7694 101.8663 70.8591 0.0000 0.0000 0.0000
# 3 37.4538 70.8591 100.9424 0.0000 0.0000 0.0000
# 4 0.0000 0.0000 0.0000 35.2163 0.0000 0.0000
# 5 0.0000 0.0000 0.0000 0.0000 78.4635 0.0000
# 6 0.0000 0.0000 0.0000 0.0000 0.0000 7.2685
#
#
#
# Elastic Compliance Matrix: (Units=1/GPa)
#
#
# Indices 1 2 3 4 5 6 
#
# 1 0.012316 0.001541 -0.005651 0.000000 0.000000 0.000000
# 2 0.001541 0.019377 -0.014174 0.000000 0.000000 0.000000
# 3 -0.005651 -0.014174 0.021954 0.000000 0.000000 0.000000
# 4 0.000000 0.000000 0.000000 0.028396 0.000000 0.000000
# 5 0.000000 0.000000 0.000000 0.000000 0.012745 0.000000
# 6 0.000000 0.000000 0.000000 0.000000 0.000000 0.137581
#
#
# Mechanical properties :
#
#
# Convention : Reuss Voigt Hill
#
# Bulk Modulus (GPa) = 58.55709 61.65379 60.10544
# Shear Modulus (GPa) = 18.20634 35.56547 26.88590
#
# Velocity S-wave (km/s) = 2.96853 4.14901 3.60738
# Velocity P-wave (km/s) = 6.33183 7.26593 6.81491
#
# Compressibility (1/GPa) = 0.01707735
#
# Stress axis : x y z
#
# Youngs Moduli (GPa) = 81.19777 51.60631 45.55075
#
# Poissons Ratio (x) = -0.07953 0.25742
# Poissons Ratio (y) = -0.12513 0.64565
# Poissons Ratio (z) = 0.45888 0.73148
#
# Static dielectric constant tensor:
#      x y z
#    x 3.790420 0.000000 0.000000 
#    y 0.000000 3.753800 0.000000 
#    z 0.000000 0.000000 3.788690 
# 
# 
# High freq. dielectric constant tensor:
#      x y z
#    x 1.816190 0.000000 0.000000 
#    y 0.000000 1.806840 0.000000 
#    z 0.000000 0.000000 1.805670 
# 
# From -- ./inp_files/6811.got.cif
#   From: 2010.03.12/outbox.cif.g09.slc.cpg/sg64_4_cif.got.tgz:6811.got - 2010.04.10 20:19:32.
