data_PCOD8264013
_publ_section_title
;
Structure prediction by ZEFSAII (Michael W. Deem and Ramdas Pophale) SiO2 
 PCOD8264013
Probable space group: C M C A
;
_chemical_formula_sum "Si O2"
_cell_formula_units_Z 96
_cell_length_a 8.824752
_cell_length_b 20.151600
_cell_length_c 27.990066
_cell_angle_alpha 90.000000
_cell_angle_beta 90.000000
_cell_angle_gamma 90.000000
_cell_volume 4977.553836
_symmetry_space_group_name_H-M "C M C A"
_symmetry_group_IT_number 64
_symmetry_cell_setting 'orthorhombic'
loop_
_space_group_symop_operation_xyz
x,y,z
-x,1/2-y,1/2+z
x,-y,-z
-x,1/2+y,1/2-z
-x,-y,-z
x,1/2+y,1/2-z
-x,y,z
x,1/2-y,1/2+z
1/2+x,1/2+y,z
1/2-x,-y,1/2+z
1/2+x,1/2-y,-z
1/2-x,y,1/2-z
1/2-x,1/2-y,-z
1/2+x,y,1/2-z
1/2-x,1/2+y,z
1/2+x,-y,1/2+z
loop_
_atom_site_type_symbol
_atom_site_label
_atom_site_fract_x
_atom_site_fract_y
_atom_site_fract_z
Si Si1 0.325142 0.330915 0.539205
Si Si2 0.178205 0.181803 0.944796
Si Si3 0.319583 0.139114 0.658134
Si Si4 0.825714 0.622624 0.139990
Si Si5 0.321379 0.232006 0.298940
Si Si6 0.322098 0.007006 0.800539
O O1 0.500000 0.326861 0.525765
O O2 0.240426 0.356422 0.491585
O O3 0.264941 0.258017 0.554581
O O4 0.295093 0.381390 0.582978
O O5 0.238006 0.147183 0.896470
O O6 0.000000 0.177919 0.945660
O O7 0.500000 0.141522 0.661938
O O8 0.252043 0.197280 0.690161
O O9 0.258961 0.070838 0.678559
O O10 0.716687 0.678864 0.160505
O O11 0.788308 0.551930 0.162565
O O12 0.000000 0.643809 0.149603
O O13 0.500000 0.239972 0.293937
O O14 0.250000 0.204555 0.250000
O O15 0.500000 0.020246 0.794223
O O16 0.250000 0.987199 0.750000
#
# Coordination Sequence:
#
# PCOD8264013 Si02
#       6
#    16  16  16  16  16  16
#     4   9  17  33  57  85 117 150 187 233 287 342
#     4   9  18  33  56  85 116 150 188 234 287 341
#     4  11  22  40  61  83 117 154 194 241 291 342
#     4  10  21  40  61  85 118 154 193 240 291 343
#     4  12  24  37  58  86 115 147 192 243 292 346
#     4  11  24  41  61  84 115 155 198 239 291 351
#
# _framework density 19.286581999999999
#
# number of rings (size 3 to 8) (size 9 to 14) (size 15 to 20)
#    0.000    1.667    1.667    3.500    0.000    4.667 
#    0.000    0.833    0.000    5.000    0.000    0.000 
#    0.000    0.000    0.000    0.000    0.000    0.000 
#
# Total GULP energy -595322.442953 kJ/mol
# GULP energy per Si atom -12402.550895 kJ/mol
# Density = 1.924268 g / cm^3
# Si number density = 19.286582 Si / 1000 Ang^3
#
#
#
# Elastic Constant Matrix: (Units=GPa)
#
#
# Indices 1 2 3 4 5 6 
#
# 1 76.5889 24.8627 21.5378 0.0000 0.0000 0.0000
# 2 24.8627 56.8436 0.5196 0.0000 0.0000 0.0000
# 3 21.5378 0.5196 83.5889 0.0000 0.0000 0.0000
# 4 0.0000 0.0000 0.0000 35.5749 0.0000 0.0000
# 5 0.0000 0.0000 0.0000 0.0000 35.9561 0.0000
# 6 0.0000 0.0000 0.0000 0.0000 0.0000 25.7083
#
#
#
# Elastic Compliance Matrix: (Units=1/GPa)
#
#
# Indices 1 2 3 4 5 6 
#
# 1 0.016589 -0.007217 -0.004230 0.000000 0.000000 0.000000
# 2 -0.007217 0.020733 0.001731 0.000000 0.000000 0.000000
# 3 -0.004230 0.001731 0.013042 0.000000 0.000000 0.000000
# 4 0.000000 0.000000 0.000000 0.028110 0.000000 0.000000
# 5 0.000000 0.000000 0.000000 0.000000 0.027812 0.000000
# 6 0.000000 0.000000 0.000000 0.000000 0.000000 0.038898
#
#
# Mechanical properties :
#
#
# Convention : Reuss Voigt Hill
#
# Bulk Modulus (GPa) = 32.32851 34.54017 33.43434
# Shear Modulus (GPa) = 28.58345 30.78796 29.68570
#
# Velocity S-wave (km/s) = 3.85390 3.99976 3.92751
# Velocity P-wave (km/s) = 6.04996 6.26726 6.15957
#
# Compressibility (1/GPa) = 0.03093245
#
# Stress axis : x y z
#
# Youngs Moduli (GPa) = 60.28091 48.23225 76.67335
#
# Poissons Ratio (x) = 0.34810 0.32429
# Poissons Ratio (y) = 0.43506 -0.13270
# Poissons Ratio (z) = 0.25496 -0.08348
#
# Static dielectric constant tensor:
#      x y z
#    x 3.514620 0.000000 0.000000 
#    y 0.000000 3.381890 0.000000 
#    z 0.000000 0.000000 3.896810 
# 
# 
# High freq. dielectric constant tensor:
#      x y z
#    x 1.751420 0.000000 0.000000 
#    y 0.000000 1.727250 0.000000 
#    z 0.000000 0.000000 1.769760 
# 
# From -- ./inp_files/48047.got.cif
#   From: 2010.03.12/outbox.cif.g09.slc.cpg/sg64_25_cif.got.tgz:48047.got - 2010.04.10 20:19:32.
