data_PCOD8264948
_publ_section_title
;
Structure prediction by ZEFSAII (Michael W. Deem and Ramdas Pophale) SiO2 
 PCOD8264948
Probable space group: C M C A
;
_chemical_formula_sum "Si O2"
_cell_formula_units_Z 64
_cell_length_a 14.799000
_cell_length_b 11.668922
_cell_length_c 14.648947
_cell_angle_alpha 90.000000
_cell_angle_beta 90.000000
_cell_angle_gamma 90.000000
_cell_volume 2529.702877
_symmetry_space_group_name_H-M "C M C A"
_symmetry_group_IT_number 64
_symmetry_cell_setting 'orthorhombic'
loop_
_space_group_symop_operation_xyz
x,y,z
-x,1/2-y,1/2+z
x,-y,-z
-x,1/2+y,1/2-z
-x,-y,-z
x,1/2+y,1/2-z
-x,y,z
x,1/2-y,1/2+z
1/2+x,1/2+y,z
1/2-x,-y,1/2+z
1/2+x,1/2-y,-z
1/2-x,y,1/2-z
1/2-x,1/2-y,-z
1/2+x,y,1/2-z
1/2-x,1/2+y,z
1/2+x,-y,1/2+z
loop_
_atom_site_type_symbol
_atom_site_label
_atom_site_fract_x
_atom_site_fract_y
_atom_site_fract_z
Si Si1 0.900798 0.265970 0.094665
Si Si2 0.347466 0.664363 0.778585
Si Si3 0.398146 0.868827 0.903331
Si Si4 0.211269 0.040936 0.101735
O O1 0.904392 0.346011 0.184924
O O2 0.828804 0.166965 0.112489
O O3 0.000000 0.213005 0.076342
O O4 0.872135 0.342943 0.008712
O O5 0.250000 0.712770 0.750000
O O6 0.396746 0.751982 0.846315
O O7 0.339591 0.541666 0.827696
O O8 0.500000 0.922126 0.896284
O O9 0.318612 0.955817 0.872065
O O10 0.192654 0.000000 0.000000
#
# Coordination Sequence:
#
# PCOD8264948 Si02
#       4
#    16  16  16  16
#     4  11  25  47  75 111 152 192 247 309 369 437
#     4  12  25  45  75 105 147 197 242 300 371 434
#     4  11  25  50  76 108 151 191 240 308 369 437
#     4  12  25  46  80 109 146 197 253 304 370 446
#
# _framework density 25.299413000000001
#
# number of rings (size 3 to 8) (size 9 to 14) (size 15 to 20)
#    0.000    0.500    5.000    3.000    3.500    3.000 
#    0.000    2.500    0.000    0.000    0.000    0.000 
#    0.000    0.000    0.000    0.000    0.000    0.000 
#
# Total GULP energy -396820.868969 kJ/mol
# GULP energy per Si atom -12400.652155 kJ/mol
# Density = 2.524183 g / cm^3
# Si number density = 25.299413 Si / 1000 Ang^3
#
#
#
# Elastic Constant Matrix: (Units=GPa)
#
#
# Indices 1 2 3 4 5 6 
#
# 1 96.8285 13.9201 7.2294 0.0000 0.0000 0.0000
# 2 13.9201 42.7918 5.6319 0.0000 0.0000 0.0000
# 3 7.2294 5.6319 103.8149 0.0000 0.0000 0.0000
# 4 0.0000 0.0000 0.0000 32.2483 0.0000 0.0000
# 5 0.0000 0.0000 0.0000 0.0000 24.5539 0.0000
# 6 0.0000 0.0000 0.0000 0.0000 0.0000 27.7913
#
#
#
# Elastic Compliance Matrix: (Units=1/GPa)
#
#
# Indices 1 2 3 4 5 6 
#
# 1 0.010867 -0.003460 -0.000569 0.000000 0.000000 0.000000
# 2 -0.003460 0.024639 -0.001096 0.000000 0.000000 0.000000
# 3 -0.000569 -0.001096 0.009732 0.000000 0.000000 0.000000
# 4 0.000000 0.000000 0.000000 0.031009 0.000000 0.000000
# 5 0.000000 0.000000 0.000000 0.000000 0.040727 0.000000
# 6 0.000000 0.000000 0.000000 0.000000 0.000000 0.035982
#
#
# Mechanical properties :
#
#
# Convention : Reuss Voigt Hill
#
# Bulk Modulus (GPa) = 28.58136 32.99978 30.79057
# Shear Modulus (GPa) = 28.59280 31.36227 29.97754
#
# Velocity S-wave (km/s) = 3.36546 3.52468 3.44599
# Velocity P-wave (km/s) = 5.14038 5.44394 5.29434
#
# Compressibility (1/GPa) = 0.03498783
#
# Stress axis : x y z
#
# Youngs Moduli (GPa) = 92.01767 40.58638 102.75803
#
# Poissons Ratio (x) = 0.14044 0.05848
# Poissons Ratio (y) = 0.31841 0.11259
# Poissons Ratio (z) = 0.05236 0.04447
#
# Static dielectric constant tensor:
#      x y z
#    x 4.761750 0.000000 0.000000 
#    y 0.000000 4.157260 0.000000 
#    z 0.000000 0.000000 4.999010 
# 
# 
# High freq. dielectric constant tensor:
#      x y z
#    x 2.012870 0.000000 0.000000 
#    y 0.000000 1.992600 0.000000 
#    z 0.000000 0.000000 2.033870 
# 
# From -- ./inp_files/24855.got.cif
#   From: 2010.03.12/outbox.cif.g09.slc.cpg/sg64_13_cif.got.tgz:24855.got - 2010.04.10 20:19:32.
