data_PCOD8264458
_publ_section_title
;
Structure prediction by ZEFSAII (Michael W. Deem and Ramdas Pophale) SiO2 
 PCOD8264458
Probable space group: C M C A
;
_chemical_formula_sum "Si O2"
_cell_formula_units_Z 96
_cell_length_a 8.908786
_cell_length_b 19.498938
_cell_length_c 29.178520
_cell_angle_alpha 90.000000
_cell_angle_beta 90.000000
_cell_angle_gamma 90.000000
_cell_volume 5068.655153
_symmetry_space_group_name_H-M "C M C A"
_symmetry_group_IT_number 64
_symmetry_cell_setting 'orthorhombic'
loop_
_space_group_symop_operation_xyz
x,y,z
-x,1/2-y,1/2+z
x,-y,-z
-x,1/2+y,1/2-z
-x,-y,-z
x,1/2+y,1/2-z
-x,y,z
x,1/2-y,1/2+z
1/2+x,1/2+y,z
1/2-x,-y,1/2+z
1/2+x,1/2-y,-z
1/2-x,y,1/2-z
1/2-x,1/2-y,-z
1/2+x,y,1/2-z
1/2-x,1/2+y,z
1/2+x,-y,1/2+z
loop_
_atom_site_type_symbol
_atom_site_label
_atom_site_fract_x
_atom_site_fract_y
_atom_site_fract_z
Si Si1 0.829022 0.435044 0.527489
Si Si2 0.329347 0.802568 0.467265
Si Si3 0.677010 0.017214 0.202419
Si Si4 0.176228 0.361864 0.203329
Si Si5 0.822189 0.762410 0.377410
Si Si6 0.677868 0.386343 0.619196
O O1 0.764577 0.500000 0.500000
O O2 0.821795 0.375591 0.490502
O O3 0.727928 0.420198 0.571565
O O4 0.000000 0.447185 0.544160
O O5 0.500000 0.779041 0.458129
O O6 0.250000 0.750000 0.500000
O O7 0.238679 0.804785 0.420298
O O8 0.500000 0.021946 0.208526
O O9 0.750000 0.042532 0.250000
O O10 0.731906 0.065505 0.160995
O O11 0.728492 0.939296 0.190890
O O12 0.250000 0.336448 0.250000
O O13 0.228954 0.307811 0.165501
O O14 0.000000 0.360097 0.209732
O O15 0.751832 0.687425 0.374065
O O16 0.000000 0.754447 0.381571
O O17 0.500000 0.378036 0.618528
#
# Coordination Sequence:
#
# PCOD8264458 Si02
#       6
#    16  16  16  16  16  16
#     4  10  23  41  59  84 117 152 192 236 284 341
#     4  11  22  38  60  85 117 154 192 234 282 340
#     4   9  20  39  60  85 113 147 189 234 285 343
#     4   9  20  39  61  85 114 148 190 237 287 342
#     4  11  23  38  59  85 117 154 192 238 288 342
#     4  11  23  38  59  86 117 151 193 239 285 342
#
# _framework density 18.939934999999998
#
# number of rings (size 3 to 8) (size 9 to 14) (size 15 to 20)
#    0.000    1.833    1.667    1.500    2.333    4.333 
#    0.000    3.333    0.000    0.000    0.000    0.000 
#    0.000    0.000    0.000    0.000    0.000    0.000 
#
# Total GULP energy -595290.711614 kJ/mol
# GULP energy per Si atom -12401.889825 kJ/mol
# Density = 1.889683 g / cm^3
# Si number density = 18.939935 Si / 1000 Ang^3
#
#
#
# Elastic Constant Matrix: (Units=GPa)
#
#
# Indices 1 2 3 4 5 6 
#
# 1 68.2370 41.6301 57.7951 0.0000 0.0000 0.0000
# 2 41.6301 106.0003 76.0413 0.0000 0.0000 0.0000
# 3 57.7951 76.0413 168.0302 0.0000 0.0000 0.0000
# 4 0.0000 0.0000 0.0000 12.8428 0.0000 0.0000
# 5 0.0000 0.0000 0.0000 0.0000 37.1407 0.0000
# 6 0.0000 0.0000 0.0000 0.0000 0.0000 20.7804
#
#
#
# Elastic Compliance Matrix: (Units=1/GPa)
#
#
# Indices 1 2 3 4 5 6 
#
# 1 0.022216 -0.004802 -0.005468 0.000000 0.000000 0.000000
# 2 -0.004802 0.015007 -0.005139 0.000000 0.000000 0.000000
# 3 -0.005468 -0.005139 0.010158 0.000000 0.000000 0.000000
# 4 0.000000 0.000000 0.000000 0.077865 0.000000 0.000000
# 5 0.000000 0.000000 0.000000 0.000000 0.026925 0.000000
# 6 0.000000 0.000000 0.000000 0.000000 0.000000 0.048122
#
#
# Mechanical properties :
#
#
# Convention : Reuss Voigt Hill
#
# Bulk Modulus (GPa) = 60.38300 77.02229 68.70264
# Shear Modulus (GPa) = 21.12979 25.27283 23.20131
#
# Velocity S-wave (km/s) = 3.34372 3.65686 3.50379
# Velocity P-wave (km/s) = 6.84527 7.65409 7.26095
#
# Compressibility (1/GPa) = 0.01656095
#
# Stress axis : x y z
#
# Youngs Moduli (GPa) = 45.01272 66.63586 98.44537
#
# Poissons Ratio (x) = 0.32001 0.53830
# Poissons Ratio (y) = 0.21617 0.50596
# Poissons Ratio (z) = 0.24613 0.34247
#
# Static dielectric constant tensor:
#      x y z
#    x 3.556360 0.000000 0.000000 
#    y 0.000000 3.562480 0.000000 
#    z 0.000000 0.000000 3.567890 
# 
# 
# High freq. dielectric constant tensor:
#      x y z
#    x 1.739200 0.000000 0.000000 
#    y 0.000000 1.744780 0.000000 
#    z 0.000000 0.000000 1.745810 
# 
# From -- ./inp_files/48115.got.cif
#   From: 2010.03.12/outbox.cif.g09.slc.cpg/sg64_25_cif.got.tgz:48115.got - 2010.04.10 20:19:32.
