data_PCOD8264222
_publ_section_title
;
Structure prediction by ZEFSAII (Michael W. Deem and Ramdas Pophale) SiO2 
 PCOD8264222
Probable space group: C M C A
;
_chemical_formula_sum "Si O2"
_cell_formula_units_Z 80
_cell_length_a 9.012659
_cell_length_b 18.016528
_cell_length_c 25.636822
_cell_angle_alpha 90.000000
_cell_angle_beta 90.000000
_cell_angle_gamma 90.000000
_cell_volume 4162.825714
_symmetry_space_group_name_H-M "C M C A"
_symmetry_group_IT_number 64
_symmetry_cell_setting 'orthorhombic'
loop_
_space_group_symop_operation_xyz
x,y,z
-x,1/2-y,1/2+z
x,-y,-z
-x,1/2+y,1/2-z
-x,-y,-z
x,1/2+y,1/2-z
-x,y,z
x,1/2-y,1/2+z
1/2+x,1/2+y,z
1/2-x,-y,1/2+z
1/2+x,1/2-y,-z
1/2-x,y,1/2-z
1/2-x,1/2-y,-z
1/2+x,y,1/2-z
1/2-x,1/2+y,z
1/2+x,-y,1/2+z
loop_
_atom_site_type_symbol
_atom_site_label
_atom_site_fract_x
_atom_site_fract_y
_atom_site_fract_z
Si Si1 0.671645 0.171719 0.495893
Si Si2 0.825711 0.669375 0.697714
Si Si3 0.829088 0.424105 0.401663
Si Si4 0.824654 0.421355 0.906087
Si Si5 0.325769 0.161670 0.197625
O O1 0.500000 0.183553 0.482275
O O2 0.750000 0.250000 0.500000
O O3 0.691946 0.130872 0.550480
O O4 0.745878 0.123927 0.451108
O O5 0.750000 0.638271 0.750000
O O6 0.774526 0.618672 0.649811
O O7 0.774641 0.753824 0.686605
O O8 0.000000 0.665471 0.705665
O O9 0.723677 0.493828 0.409973
O O10 0.000000 0.450089 0.396993
O O11 0.773520 0.388544 0.850556
O O12 0.000000 0.414459 0.913751
O O13 0.500000 0.156682 0.205904
O O14 0.250000 0.130568 0.250000
#
# Coordination Sequence:
#
# PCOD8264222 Si02
#       5
#    16  16  16  16  16
#     4  11  23  40  62  85 111 146 188 232 281 337
#     4   9  18  35  57  79 107 143 184 229 276 327
#     4  10  22  39  57  80 114 151 184 226 281 334
#     4  11  23  38  57  84 117 149 186 233 281 332
#     4   9  19  36  57  81 110 146 188 233 279 329
#
# _framework density 19.217715999999999
#
# number of rings (size 3 to 8) (size 9 to 14) (size 15 to 20)
#    0.000    2.000    0.000    3.000    0.000   10.400 
#    0.000    8.000    0.000    0.000    0.000    0.000 
#    0.000    0.000    0.000    0.000    0.000    0.000 
#
# Total GULP energy -496169.328158 kJ/mol
# GULP energy per Si atom -12404.233204 kJ/mol
# Density = 1.917398 g / cm^3
# Si number density = 19.217716 Si / 1000 Ang^3
#
#
#
# Elastic Constant Matrix: (Units=GPa)
#
#
# Indices 1 2 3 4 5 6 
#
# 1 78.4914 52.4790 61.4422 0.0000 0.0000 0.0000
# 2 52.4790 109.3191 57.2425 0.0000 0.0000 0.0000
# 3 61.4422 57.2425 137.6172 0.0000 0.0000 0.0000
# 4 0.0000 0.0000 0.0000 87.2567 0.0000 0.0000
# 5 0.0000 0.0000 0.0000 0.0000 35.5718 0.0000
# 6 0.0000 0.0000 0.0000 0.0000 0.0000 42.4575
#
#
#
# Elastic Compliance Matrix: (Units=1/GPa)
#
#
# Indices 1 2 3 4 5 6 
#
# 1 0.023484 -0.007394 -0.007409 0.000000 0.000000 0.000000
# 2 -0.007394 0.014023 -0.002532 0.000000 0.000000 0.000000
# 3 -0.007409 -0.002532 0.011628 0.000000 0.000000 0.000000
# 4 0.000000 0.000000 0.000000 0.011460 0.000000 0.000000
# 5 0.000000 0.000000 0.000000 0.000000 0.028112 0.000000
# 6 0.000000 0.000000 0.000000 0.000000 0.000000 0.023553
#
#
# Mechanical properties :
#
#
# Convention : Reuss Voigt Hill
#
# Bulk Modulus (GPa) = 69.13504 74.19501 71.66503
# Shear Modulus (GPa) = 32.94890 43.34147 38.14519
#
# Velocity S-wave (km/s) = 4.14515 4.75414 4.46005
# Velocity P-wave (km/s) = 7.67870 8.29622 7.99342
#
# Compressibility (1/GPa) = 0.01446444
#
# Stress axis : x y z
#
# Youngs Moduli (GPa) = 42.58296 71.31384 86.00178
#
# Poissons Ratio (x) = 0.52727 0.63722
# Poissons Ratio (y) = 0.31484 0.21773
# Poissons Ratio (z) = 0.31551 0.18054
#
# Static dielectric constant tensor:
#      x y z
#    x 3.518450 0.000000 0.000000 
#    y 0.000000 3.269270 0.000000 
#    z 0.000000 0.000000 3.697620 
# 
# 
# High freq. dielectric constant tensor:
#      x y z
#    x 1.747090 0.000000 0.000000 
#    y 0.000000 1.750500 0.000000 
#    z 0.000000 0.000000 1.764990 
# 
# From -- ./inp_files/47787.got.cif
#   From: 2010.03.12/outbox.cif.g09.slc.cpg/sg64_24_cif.got.tgz:47787.got - 2010.04.10 20:19:32.
