data_PCOD8264404
_publ_section_title
;
Structure prediction by ZEFSAII (Michael W. Deem and Ramdas Pophale) SiO2 
 PCOD8264404
Probable space group: C M C A
;
_chemical_formula_sum "Si O2"
_cell_formula_units_Z 96
_cell_length_a 23.528496
_cell_length_b 11.203525
_cell_length_c 17.251601
_cell_angle_alpha 90.000000
_cell_angle_beta 90.000000
_cell_angle_gamma 90.000000
_cell_volume 4547.558134
_symmetry_space_group_name_H-M "C M C A"
_symmetry_group_IT_number 64
_symmetry_cell_setting 'orthorhombic'
loop_
_space_group_symop_operation_xyz
x,y,z
-x,1/2-y,1/2+z
x,-y,-z
-x,1/2+y,1/2-z
-x,-y,-z
x,1/2+y,1/2-z
-x,y,z
x,1/2-y,1/2+z
1/2+x,1/2+y,z
1/2-x,-y,1/2+z
1/2+x,1/2-y,-z
1/2-x,y,1/2-z
1/2-x,1/2-y,-z
1/2+x,y,1/2-z
1/2-x,1/2+y,z
1/2+x,-y,1/2+z
loop_
_atom_site_type_symbol
_atom_site_label
_atom_site_fract_x
_atom_site_fract_y
_atom_site_fract_z
Si Si1 0.380797 0.740955 0.116456
Si Si2 0.500000 0.772945 0.185075
Si Si3 0.623840 0.512487 0.835914
Si Si4 0.301612 0.916334 0.197417
Si Si5 0.830211 0.327428 0.470384
Si Si6 0.500000 0.004411 0.701188
Si Si7 0.777682 0.412360 0.936671
O O1 0.443493 0.788558 0.134029
O O2 0.364119 0.627172 0.167489
O O3 0.327546 0.828216 0.133286
O O4 0.382963 0.708239 0.025078
O O5 0.500000 0.639104 0.226662
O O6 0.500000 0.893490 0.234307
O O7 0.644919 0.557582 0.752721
O O8 0.655194 0.573447 0.907654
O O9 0.556363 0.531635 0.848360
O O10 0.250000 0.864356 0.250000
O O11 0.275235 0.026923 0.148552
O O12 0.811622 0.209850 0.423950
O O13 0.783766 0.380614 0.529046
O O14 0.807831 0.500000 0.000000
#
# Coordination Sequence:
#
# PCOD8264404 Si02
#       7
#    16   8  16  16  16   8  16
#     4  11  23  42  67  93 129 173 225 270 338 400
#     4  10  22  43  69  96 133 178 221 291 342 399
#     4  11  25  43  67  99 131 175 227 284 334 407
#     4  12  25  39  65 100 134 173 220 271 335 406
#     4  11  24  42  67  94 136 178 222 274 339 402
#     4  10  22  43  69  97 132 175 228 287 353 392
#     4  11  23  43  63  93 136 180 213 267 336 404
#
# _framework density 21.110229
#
# number of rings (size 3 to 8) (size 9 to 14) (size 15 to 20)
#    0.000    1.000    3.333    3.500    4.667    1.333 
#    0.000    2.500    0.000    3.000    0.000    0.000 
#    0.000    0.000    0.000    0.000    0.000    0.000 
#
# Total GULP energy -594739.642634 kJ/mol
# GULP energy per Si atom -12390.409222 kJ/mol
# Density = 2.106218 g / cm^3
# Si number density = 21.110229 Si / 1000 Ang^3
#
#
#
# Elastic Constant Matrix: (Units=GPa)
#
#
# Indices 1 2 3 4 5 6 
#
# 1 107.1429 51.8446 36.6498 0.0000 0.0000 0.0000
# 2 51.8446 85.0189 22.6243 0.0000 0.0000 0.0000
# 3 36.6498 22.6243 91.6483 0.0000 0.0000 0.0000
# 4 0.0000 0.0000 0.0000 32.1542 0.0000 0.0000
# 5 0.0000 0.0000 0.0000 0.0000 26.3439 0.0000
# 6 0.0000 0.0000 0.0000 0.0000 0.0000 28.5466
#
#
#
# Elastic Compliance Matrix: (Units=1/GPa)
#
#
# Indices 1 2 3 4 5 6 
#
# 1 0.014403 -0.007760 -0.003844 0.000000 0.000000 0.000000
# 2 -0.007760 0.016770 -0.001037 0.000000 0.000000 0.000000
# 3 -0.003844 -0.001037 0.012704 0.000000 0.000000 0.000000
# 4 0.000000 0.000000 0.000000 0.031100 0.000000 0.000000
# 5 0.000000 0.000000 0.000000 0.000000 0.037959 0.000000
# 6 0.000000 0.000000 0.000000 0.000000 0.000000 0.035030
#
#
# Mechanical properties :
#
#
# Convention : Reuss Voigt Hill
#
# Bulk Modulus (GPa) = 53.77508 56.22751 55.00130
# Shear Modulus (GPa) = 27.86317 28.92169 28.39243
#
# Velocity S-wave (km/s) = 3.63697 3.70541 3.67135
# Velocity P-wave (km/s) = 6.57005 6.70819 6.63948
#
# Compressibility (1/GPa) = 0.01859597
#
# Stress axis : x y z
#
# Youngs Moduli (GPa) = 69.42866 59.63000 78.71263
#
# Poissons Ratio (x) = 0.46274 0.30258
# Poissons Ratio (y) = 0.53878 0.08159
# Poissons Ratio (z) = 0.26689 0.06181
#
# Static dielectric constant tensor:
#      x y z
#    x 4.027050 0.000000 0.000000 
#    y 0.000000 4.188650 0.000000 
#    z 0.000000 0.000000 3.727200 
# 
# 
# High freq. dielectric constant tensor:
#      x y z
#    x 1.825740 0.000000 0.000000 
#    y 0.000000 1.843280 0.000000 
#    z 0.000000 0.000000 1.815810 
# 
# From -- ./inp_files/34986.got.cif
#   From: 2010.03.12/outbox.cif.g09.slc.cpg/sg64_18_cif.got.tgz:34986.got - 2010.04.10 20:19:32.
