data_PCOD8264332
_publ_section_title
;
Structure prediction by ZEFSAII (Michael W. Deem and Ramdas Pophale) SiO2 
 PCOD8264332
Probable space group: C M C A
;
_chemical_formula_sum "Si O2"
_cell_formula_units_Z 64
_cell_length_a 21.316135
_cell_length_b 14.750642
_cell_length_c 10.080549
_cell_angle_alpha 90.000000
_cell_angle_beta 90.000000
_cell_angle_gamma 90.000000
_cell_volume 3169.593516
_symmetry_space_group_name_H-M "C M C A"
_symmetry_group_IT_number 64
_symmetry_cell_setting 'orthorhombic'
loop_
_space_group_symop_operation_xyz
x,y,z
-x,1/2-y,1/2+z
x,-y,-z
-x,1/2+y,1/2-z
-x,-y,-z
x,1/2+y,1/2-z
-x,y,z
x,1/2-y,1/2+z
1/2+x,1/2+y,z
1/2-x,-y,1/2+z
1/2+x,1/2-y,-z
1/2-x,y,1/2-z
1/2-x,1/2-y,-z
1/2+x,y,1/2-z
1/2-x,1/2+y,z
1/2+x,-y,1/2+z
loop_
_atom_site_type_symbol
_atom_site_label
_atom_site_fract_x
_atom_site_fract_y
_atom_site_fract_z
Si Si1 0.500000 0.577221 0.890997
Si Si2 0.000000 0.048165 0.358359
Si Si3 0.378726 0.168599 0.210158
Si Si4 0.700292 0.500000 0.000000
Si Si5 0.250000 0.937348 0.750000
Si Si6 0.115986 0.323248 0.492289
O O1 0.500000 0.532707 0.747232
O O2 0.442865 0.643989 0.909195
O O3 0.500000 0.500000 0.000000
O O4 0.063312 0.107259 0.340967
O O5 0.000000 0.000000 0.500000
O O6 0.313459 0.118213 0.231197
O O7 0.359519 0.241009 0.097571
O O8 0.398376 0.208823 0.355736
O O9 0.744895 0.504038 0.873778
O O10 0.661647 0.591921 0.000034
#
# Coordination Sequence:
#
# PCOD8264332 Si02
#       6
#     8   8  16   8   8  16
#     4  12  19  42  68  86 131 169 213 272 319 406
#     4  12  27  42  66 103 132 172 226 272 340 402
#     4  11  25  43  63 101 133 171 226 277 338 400
#     4  10  22  41  64  91 120 178 218 270 338 392
#     4  10  24  42  66  96 132 174 230 274 332 414
#     4  11  23  41  67  94 131 172 220 274 338 393
#
# _framework density 20.191863000000001
#
# number of rings (size 3 to 8) (size 9 to 14) (size 15 to 20)
#    0.000    1.000    3.750    2.250    5.250    7.000 
#    0.000    0.000    0.000    0.000    0.000    0.000 
#    0.000    0.000    0.000    0.000    0.000    0.000 
#
# Total GULP energy -396499.378864 kJ/mol
# GULP energy per Si atom -12390.605590 kJ/mol
# Density = 2.014591 g / cm^3
# Si number density = 20.191863 Si / 1000 Ang^3
#
#
#
# Elastic Constant Matrix: (Units=GPa)
#
#
# Indices 1 2 3 4 5 6 
#
# 1 117.9470 30.0532 47.1293 0.0000 0.0000 0.0000
# 2 30.0532 68.1388 72.1420 0.0000 0.0000 0.0000
# 3 47.1293 72.1420 217.1632 0.0000 0.0000 0.0000
# 4 0.0000 0.0000 0.0000 49.7834 0.0000 0.0000
# 5 0.0000 0.0000 0.0000 0.0000 31.0953 0.0000
# 6 0.0000 0.0000 0.0000 0.0000 0.0000 15.5771
#
#
#
# Elastic Compliance Matrix: (Units=1/GPa)
#
#
# Indices 1 2 3 4 5 6 
#
# 1 0.009706 -0.003163 -0.001056 0.000000 0.000000 0.000000
# 2 -0.003163 0.023669 -0.007176 0.000000 0.000000 0.000000
# 3 -0.001056 -0.007176 0.007218 0.000000 0.000000 0.000000
# 4 0.000000 0.000000 0.000000 0.020087 0.000000 0.000000
# 5 0.000000 0.000000 0.000000 0.000000 0.032159 0.000000
# 6 0.000000 0.000000 0.000000 0.000000 0.000000 0.064197
#
#
# Mechanical properties :
#
#
# Convention : Reuss Voigt Hill
#
# Bulk Modulus (GPa) = 56.17179 77.98867 67.08023
# Shear Modulus (GPa) = 26.91626 36.21946 31.56786
#
# Velocity S-wave (km/s) = 3.65502 4.23988 3.95827
# Velocity P-wave (km/s) = 6.75956 7.91685 7.36098
#
# Compressibility (1/GPa) = 0.01780253
#
# Stress axis : x y z
#
# Youngs Moduli (GPa) = 103.02672 42.24899 138.54381
#
# Poissons Ratio (x) = 0.13365 0.14624
# Poissons Ratio (y) = 0.32592 0.99425
# Poissons Ratio (z) = 0.10875 0.30320
#
# Static dielectric constant tensor:
#      x y z
#    x 3.829240 0.000000 0.000000 
#    y 0.000000 3.539880 0.000000 
#    z 0.000000 0.000000 4.619400 
# 
# 
# High freq. dielectric constant tensor:
#      x y z
#    x 1.796810 0.000000 0.000000 
#    y 0.000000 1.778430 0.000000 
#    z 0.000000 0.000000 1.817650 
# 
# From -- ./inp_files/9026.got.cif
#   From: 2010.03.12/outbox.cif.g09.slc.cpg/sg64_5_cif.got.tgz:9026.got - 2010.04.10 20:19:32.
