data_PCOD8264043
_publ_section_title
;
Structure prediction by ZEFSAII (Michael W. Deem and Ramdas Pophale) SiO2 
 PCOD8264043
Probable space group: C M C A
;
_chemical_formula_sum "Si O2"
_cell_formula_units_Z 96
_cell_length_a 16.566100
_cell_length_b 18.952345
_cell_length_c 15.270737
_cell_angle_alpha 90.000000
_cell_angle_beta 90.000000
_cell_angle_gamma 90.000000
_cell_volume 4794.498970
_symmetry_space_group_name_H-M "C M C A"
_symmetry_group_IT_number 64
_symmetry_cell_setting 'orthorhombic'
loop_
_space_group_symop_operation_xyz
x,y,z
-x,1/2-y,1/2+z
x,-y,-z
-x,1/2+y,1/2-z
-x,-y,-z
x,1/2+y,1/2-z
-x,y,z
x,1/2-y,1/2+z
1/2+x,1/2+y,z
1/2-x,-y,1/2+z
1/2+x,1/2-y,-z
1/2-x,y,1/2-z
1/2-x,1/2-y,-z
1/2+x,y,1/2-z
1/2-x,1/2+y,z
1/2+x,-y,1/2+z
loop_
_atom_site_type_symbol
_atom_site_label
_atom_site_fract_x
_atom_site_fract_y
_atom_site_fract_z
Si Si1 0.171938 0.536972 0.298185
Si Si2 0.593893 0.178035 0.354957
Si Si3 0.841154 0.705751 0.726568
Si Si4 0.763046 0.441918 0.068630
Si Si5 0.408692 0.075396 0.814024
Si Si6 0.179781 0.698810 0.527009
O O1 0.250000 0.570422 0.250000
O O2 0.124850 0.597963 0.348444
O O3 0.202713 0.474908 0.360821
O O4 0.110724 0.499601 0.230899
O O5 0.500000 0.181595 0.335493
O O6 0.638372 0.224713 0.281805
O O7 0.609938 0.205432 0.453681
O O8 0.750000 0.681758 0.750000
O O9 0.900897 0.641440 0.748264
O O10 0.852008 0.720829 0.623064
O O11 0.845862 0.410864 0.107733
O O12 0.713954 0.380122 0.022526
O O13 0.790408 0.500000 0.000000
O O14 0.500000 0.072864 0.850115
O O15 0.250000 0.750000 0.500000
#
# Coordination Sequence:
#
# PCOD8264043 Si02
#       6
#    16  16  16  16  16  16
#     4  10  21  40  65  89 126 171 218 255 316 399
#     4  12  26  41  63 100 133 163 214 283 336 374
#     4  12  22  43  68  90 126 178 222 259 325 402
#     4  11  21  40  65  93 125 172 222 260 318 401
#     4  11  22  38  63  95 130 168 215 272 326 381
#     4  12  24  41  68  97 126 173 225 267 318 397
#
# _framework density 20.022946999999998
#
# number of rings (size 3 to 8) (size 9 to 14) (size 15 to 20)
#    0.000    0.667    6.667    2.000    0.000    1.667 
#    0.000    0.833    0.000    4.000    0.000    0.000 
#    0.000    0.000    0.000    0.000    0.000    0.000 
#
# Total GULP energy -595350.279902 kJ/mol
# GULP energy per Si atom -12403.130831 kJ/mol
# Density = 1.997737 g / cm^3
# Si number density = 20.022947 Si / 1000 Ang^3
#
#
#
# Elastic Constant Matrix: (Units=GPa)
#
#
# Indices 1 2 3 4 5 6 
#
# 1 104.7017 28.8469 21.6700 0.0000 0.0000 0.0000
# 2 28.8469 78.2193 32.1712 0.0000 0.0000 0.0000
# 3 21.6700 32.1712 110.6724 0.0000 0.0000 0.0000
# 4 0.0000 0.0000 0.0000 36.8110 0.0000 0.0000
# 5 0.0000 0.0000 0.0000 0.0000 24.0418 0.0000
# 6 0.0000 0.0000 0.0000 0.0000 0.0000 23.4075
#
#
#
# Elastic Compliance Matrix: (Units=1/GPa)
#
#
# Indices 1 2 3 4 5 6 
#
# 1 0.010744 -0.003518 -0.001081 0.000000 0.000000 0.000000
# 2 -0.003518 0.015672 -0.003867 0.000000 0.000000 0.000000
# 3 -0.001081 -0.003867 0.010371 0.000000 0.000000 0.000000
# 4 0.000000 0.000000 0.000000 0.027166 0.000000 0.000000
# 5 0.000000 0.000000 0.000000 0.000000 0.041594 0.000000
# 6 0.000000 0.000000 0.000000 0.000000 0.000000 0.042721
#
#
# Mechanical properties :
#
#
# Convention : Reuss Voigt Hill
#
# Bulk Modulus (GPa) = 50.36234 50.99664 50.67949
# Shear Modulus (GPa) = 29.10034 30.91241 30.00637
#
# Velocity S-wave (km/s) = 3.81642 3.93345 3.87537
# Velocity P-wave (km/s) = 6.68034 6.79365 6.73724
#
# Compressibility (1/GPa) = 0.01985611
#
# Stress axis : x y z
#
# Youngs Moduli (GPa) = 93.07631 63.80667 96.41836
#
# Poissons Ratio (x) = 0.22445 0.10424
# Poissons Ratio (y) = 0.32741 0.37285
# Poissons Ratio (z) = 0.10063 0.24674
#
# Static dielectric constant tensor:
#      x y z
#    x 3.790940 0.000000 0.000000 
#    y 0.000000 3.636880 0.000000 
#    z 0.000000 0.000000 3.624100 
# 
# 
# High freq. dielectric constant tensor:
#      x y z
#    x 1.770470 0.000000 0.000000 
#    y 0.000000 1.791580 0.000000 
#    z 0.000000 0.000000 1.783370 
# 
# From -- ./inp_files/23853.got.cif
#   From: 2010.03.12/outbox.cif.g09.slc.cpg/sg64_12_cif.got.tgz:23853.got - 2010.04.10 20:19:32.
