data_PCOD8264964
_publ_section_title
;
Structure prediction by ZEFSAII (Michael W. Deem and Ramdas Pophale) SiO2 
 PCOD8264964
Probable space group: C M C A
;
_chemical_formula_sum "Si O2"
_cell_formula_units_Z 64
_cell_length_a 16.042457
_cell_length_b 11.544803
_cell_length_c 14.148148
_cell_angle_alpha 90.000000
_cell_angle_beta 90.000000
_cell_angle_gamma 90.000000
_cell_volume 2620.336127
_symmetry_space_group_name_H-M "C M C A"
_symmetry_group_IT_number 64
_symmetry_cell_setting 'orthorhombic'
loop_
_space_group_symop_operation_xyz
x,y,z
-x,1/2-y,1/2+z
x,-y,-z
-x,1/2+y,1/2-z
-x,-y,-z
x,1/2+y,1/2-z
-x,y,z
x,1/2-y,1/2+z
1/2+x,1/2+y,z
1/2-x,-y,1/2+z
1/2+x,1/2-y,-z
1/2-x,y,1/2-z
1/2-x,1/2-y,-z
1/2+x,y,1/2-z
1/2-x,1/2+y,z
1/2+x,-y,1/2+z
loop_
_atom_site_type_symbol
_atom_site_label
_atom_site_fract_x
_atom_site_fract_y
_atom_site_fract_z
Si Si1 0.852913 0.118457 0.031213
Si Si2 0.094982 0.745041 0.141130
Si Si3 0.796310 0.529855 0.150997
Si Si4 0.408074 0.677212 0.652392
O O1 0.763663 0.077130 0.069659
O O2 0.898170 0.192771 0.111906
O O3 0.845167 0.196662 0.937069
O O4 0.902066 0.000000 0.000000
O O5 0.127898 0.618135 0.165921
O O6 0.099766 0.822076 0.234683
O O7 0.000000 0.736993 0.103089
O O8 0.750000 0.510859 0.250000
O O9 0.837066 0.409346 0.114158
O O10 0.500000 0.632767 0.623398
#
# Coordination Sequence:
#
# PCOD8264964 Si02
#       4
#    16  16  16  16
#     4  12  28  47  78 112 151 194 255 310 377 447
#     4  11  26  48  74 110 155 202 253 311 382 449
#     4  12  26  46  77 111 153 198 256 314 376 445
#     4  11  27  50  76 109 153 200 252 312 378 453
#
# _framework density 24.424347000000001
#
# number of rings (size 3 to 8) (size 9 to 14) (size 15 to 20)
#    0.000    0.500    2.500    3.750   10.500    2.000 
#    0.000    2.500    0.000    0.000    0.000    0.000 
#    0.000    0.000    0.000    0.000    0.000    0.000 
#
# Total GULP energy -396781.288940 kJ/mol
# GULP energy per Si atom -12399.415279 kJ/mol
# Density = 2.436876 g / cm^3
# Si number density = 24.424347 Si / 1000 Ang^3
#
#
#
# Elastic Constant Matrix: (Units=GPa)
#
#
# Indices 1 2 3 4 5 6 
#
# 1 154.7094 78.6863 62.1205 0.0000 0.0000 0.0000
# 2 78.6863 147.2642 41.0163 0.0000 0.0000 0.0000
# 3 62.1205 41.0163 118.8002 0.0000 0.0000 0.0000
# 4 0.0000 0.0000 0.0000 39.8457 0.0000 0.0000
# 5 0.0000 0.0000 0.0000 0.0000 23.0620 0.0000
# 6 0.0000 0.0000 0.0000 0.0000 0.0000 32.6599
#
#
#
# Elastic Compliance Matrix: (Units=1/GPa)
#
#
# Indices 1 2 3 4 5 6 
#
# 1 0.010245 -0.004406 -0.003836 0.000000 0.000000 0.000000
# 2 -0.004406 0.009408 -0.000944 0.000000 0.000000 0.000000
# 3 -0.003836 -0.000944 0.010749 0.000000 0.000000 0.000000
# 4 0.000000 0.000000 0.000000 0.025097 0.000000 0.000000
# 5 0.000000 0.000000 0.000000 0.000000 0.043361 0.000000
# 6 0.000000 0.000000 0.000000 0.000000 0.000000 0.030619
#
#
# Mechanical properties :
#
#
# Convention : Reuss Voigt Hill
#
# Bulk Modulus (GPa) = 83.12587 87.15777 85.14182
# Shear Modulus (GPa) = 32.92512 35.04357 33.98435
#
# Velocity S-wave (km/s) = 3.67556 3.79196 3.73421
# Velocity P-wave (km/s) = 7.21948 7.41176 7.31625
#
# Compressibility (1/GPa) = 0.01202995
#
# Stress axis : x y z
#
# Youngs Moduli (GPa) = 97.61200 106.29815 93.02922
#
# Poissons Ratio (x) = 0.46830 0.35685
# Poissons Ratio (y) = 0.43003 0.08785
# Poissons Ratio (z) = 0.37443 0.10038
#
# Static dielectric constant tensor:
#      x y z
#    x 4.294460 0.000000 0.000000 
#    y 0.000000 4.604440 0.000000 
#    z 0.000000 0.000000 4.417270 
# 
# 
# High freq. dielectric constant tensor:
#      x y z
#    x 1.965220 0.000000 0.000000 
#    y 0.000000 1.977300 0.000000 
#    z 0.000000 0.000000 1.983940 
# 
# From -- ./inp_files/24866.got.cif
#   From: 2010.03.12/outbox.cif.g09.slc.cpg/sg64_13_cif.got.tgz:24866.got - 2010.04.10 20:19:32.
