data_PCOD8264940
_publ_section_title
;
Structure prediction by ZEFSAII (Michael W. Deem and Ramdas Pophale) SiO2 
 PCOD8264940
Probable space group: C M C A
;
_chemical_formula_sum "Si O2"
_cell_formula_units_Z 112
_cell_length_a 16.319376
_cell_length_b 13.714689
_cell_length_c 20.499417
_cell_angle_alpha 90.000000
_cell_angle_beta 90.000000
_cell_angle_gamma 90.000000
_cell_volume 4588.080429
_symmetry_space_group_name_H-M "C M C A"
_symmetry_group_IT_number 64
_symmetry_cell_setting 'orthorhombic'
loop_
_space_group_symop_operation_xyz
x,y,z
-x,1/2-y,1/2+z
x,-y,-z
-x,1/2+y,1/2-z
-x,-y,-z
x,1/2+y,1/2-z
-x,y,z
x,1/2-y,1/2+z
1/2+x,1/2+y,z
1/2-x,-y,1/2+z
1/2+x,1/2-y,-z
1/2-x,y,1/2-z
1/2-x,1/2-y,-z
1/2+x,y,1/2-z
1/2-x,1/2+y,z
1/2+x,-y,1/2+z
loop_
_atom_site_type_symbol
_atom_site_label
_atom_site_fract_x
_atom_site_fract_y
_atom_site_fract_z
Si Si1 0.593427 0.866998 0.299893
Si Si2 0.586381 0.939667 0.934852
Si Si3 0.340824 0.989643 0.190313
Si Si4 0.653822 0.314408 0.754032
Si Si5 0.193120 0.983431 0.105380
Si Si6 0.195136 0.334861 0.022765
Si Si7 0.097447 0.819214 0.899341
O O1 0.500000 0.897449 0.290477
O O2 0.608264 0.751453 0.300741
O O3 0.622119 0.911982 0.368812
O O4 0.644429 0.895076 0.234159
O O5 0.500000 0.886624 0.918781
O O6 0.608653 0.014268 0.877142
O O7 0.659171 0.865893 0.951850
O O8 0.575004 0.000000 0.000000
O O9 0.371766 0.077958 0.233979
O O10 0.245221 0.006744 0.171353
O O11 0.750000 0.292596 0.750000
O O12 0.614410 0.298718 0.824275
O O13 0.253620 0.925109 0.055436
O O14 0.150807 0.083462 0.077391
O O15 0.125900 0.282357 0.067090
O O16 0.250000 0.250000 0.000000
O O17 0.000000 0.836296 0.912620
#
# Coordination Sequence:
#
# PCOD8264940 Si02
#       7
#    16  16  16  16  16  16  16
#     4  12  26  42  66 107 151 188 236 308 379 439
#     4  11  25  45  72 102 138 183 243 301 353 422
#     4  12  23  46  74 104 142 190 239 297 364 446
#     4  12  24  42  72 106 142 192 244 292 370 450
#     4  12  25  47  73 105 144 194 249 303 369 452
#     4  12  28  49  78 105 145 198 254 304 368 447
#     4  12  26  48  76 110 152 195 247 315 384 446
#
# _framework density 24.411079000000001
#
# number of rings (size 3 to 8) (size 9 to 14) (size 15 to 20)
#    0.000    0.143    4.286    5.571    2.000    1.714 
#    0.000    2.857    0.000    0.000    0.000    0.000 
#    0.000    0.000    0.000    0.000    0.000    0.000 
#
# Total GULP energy -693870.808600 kJ/mol
# GULP energy per Si atom -12390.550154 kJ/mol
# Density = 2.435552 g / cm^3
# Si number density = 24.411079 Si / 1000 Ang^3
#
#
#
# Elastic Constant Matrix: (Units=GPa)
#
#
# Indices 1 2 3 4 5 6 
#
# 1 147.8078 28.5780 19.0724 0.0000 0.0000 0.0000
# 2 28.5780 84.0876 -4.1027 0.0000 0.0000 0.0000
# 3 19.0724 -4.1027 50.6278 0.0000 0.0000 0.0000
# 4 0.0000 0.0000 0.0000 30.7556 0.0000 0.0000
# 5 0.0000 0.0000 0.0000 0.0000 -238.7857 0.0000
# 6 0.0000 0.0000 0.0000 0.0000 0.0000 56.5126
#
#
#
# Elastic Compliance Matrix: (Units=1/GPa)
#
#
# Indices 1 2 3 4 5 6 
#
# 1 0.007705 -0.002771 -0.003127 0.000000 0.000000 0.000000
# 2 -0.002771 0.012936 0.002092 0.000000 0.000000 0.000000
# 3 -0.003127 0.002092 0.021100 0.000000 0.000000 0.000000
# 4 0.000000 0.000000 0.000000 0.032514 0.000000 0.000000
# 5 0.000000 0.000000 0.000000 0.000000 -0.004188 0.000000
# 6 0.000000 0.000000 0.000000 0.000000 0.000000 0.017695
#
#
# Mechanical properties :
#
#
# Convention : Reuss Voigt Hill
#
# Bulk Modulus (GPa) = 29.30091 41.06875 35.18483
# Shear Modulus (GPa) = 46.83817 -14.37178 16.23319
#
# Velocity S-wave (km/s) = 4.38508 -2.42903 2.58154
# Velocity P-wave (km/s) = 6.13740 2.99891 4.83017
#
# Compressibility (1/GPa) = 0.03412863
#
# Stress axis : x y z
#
# Youngs Moduli (GPa) = 129.78862 77.30224 47.39430
#
# Poissons Ratio (x) = 0.21422 0.14821
# Poissons Ratio (y) = 0.35966 -0.09916
# Poissons Ratio (z) = 0.40586 -0.16173
#
# Static dielectric constant tensor:
#      x y z
#    x 4.568380 0.000000 0.000000 
#    y 0.000000 6.311510 0.000000 
#    z 0.000000 0.000000 4.495310 
# 
# 
# High freq. dielectric constant tensor:
#      x y z
#    x 1.979570 0.000000 0.000000 
#    y 0.000000 1.977650 0.000000 
#    z 0.000000 0.000000 1.967520 
# 
# From -- ./inp_files/45303.got.cif
#   From: 2010.03.12/outbox.cif.g09.slc.cpg/sg64_23_cif.got.tgz:45303.got - 2010.04.10 20:19:32.
