data_PCOD8264625
_publ_section_title
;
Structure prediction by ZEFSAII (Michael W. Deem and Ramdas Pophale) SiO2 
 PCOD8264625
Probable space group: C M C A
;
_chemical_formula_sum "Si O2"
_cell_formula_units_Z 88
_cell_length_a 27.286492
_cell_length_b 10.806676
_cell_length_c 14.170848
_cell_angle_alpha 90.000000
_cell_angle_beta 90.000000
_cell_angle_gamma 90.000000
_cell_volume 4178.646917
_symmetry_space_group_name_H-M "C M C A"
_symmetry_group_IT_number 64
_symmetry_cell_setting 'orthorhombic'
loop_
_space_group_symop_operation_xyz
x,y,z
-x,1/2-y,1/2+z
x,-y,-z
-x,1/2+y,1/2-z
-x,-y,-z
x,1/2+y,1/2-z
-x,y,z
x,1/2-y,1/2+z
1/2+x,1/2+y,z
1/2-x,-y,1/2+z
1/2+x,1/2-y,-z
1/2-x,y,1/2-z
1/2-x,1/2-y,-z
1/2+x,y,1/2-z
1/2-x,1/2+y,z
1/2+x,-y,1/2+z
loop_
_atom_site_type_symbol
_atom_site_label
_atom_site_fract_x
_atom_site_fract_y
_atom_site_fract_z
Si Si1 0.899726 0.609644 0.942787
Si Si2 0.677074 0.498179 0.105593
Si Si3 0.000000 0.949708 0.351126
Si Si4 0.750000 0.119885 0.750000
Si Si5 0.000000 0.738606 0.197463
Si Si6 0.156330 0.743503 0.299299
Si Si7 0.396368 0.279701 0.116301
O O1 0.875040 0.643883 0.843488
O O2 0.953247 0.555768 0.919114
O O3 0.872006 0.500000 0.000000
O O4 0.895769 0.725922 0.011748
O O5 0.722334 0.464346 0.173379
O O6 0.654334 0.628745 0.131700
O O7 0.629907 0.411306 0.113871
O O8 0.698454 0.500000 0.000000
O O9 0.000000 0.819376 0.293436
O O10 0.000000 0.085092 0.294660
O O11 0.788166 0.211122 0.701641
O O12 0.046974 0.787818 0.142209
O O13 0.133683 0.704017 0.197494
#
# Coordination Sequence:
#
# PCOD8264625 Si02
#       7
#    16  16   8   8   8  16  16
#     4  12  24  43  70 100 137 182 229 278 337 415
#     4  11  24  47  70 100 138 173 233 289 347 415
#     4  12  26  45  70 108 143 187 242 281 339 416
#     4  10  26  44  70 100 134 182 222 288 352 422
#     4  12  25  42  70 102 143 189 232 284 344 406
#     4  11  25  46  67 101 136 178 230 285 351 409
#     4  11  25  43  68  99 138 184 223 282 344 403
#
# _framework density 21.059448
#
# number of rings (size 3 to 8) (size 9 to 14) (size 15 to 20)
#    0.000    0.727    5.455    1.364    7.636    1.455 
#    0.000    0.455    0.000    0.000    0.000    0.000 
#    0.000    0.000    0.000    0.000    0.000    0.000 
#
# Total GULP energy -545274.040139 kJ/mol
# GULP energy per Si atom -12392.591821 kJ/mol
# Density = 2.101152 g / cm^3
# Si number density = 21.059448 Si / 1000 Ang^3
#
#
#
# Elastic Constant Matrix: (Units=GPa)
#
#
# Indices 1 2 3 4 5 6 
#
# 1 132.0490 46.2497 31.8118 0.0000 0.0000 0.0000
# 2 46.2497 117.0445 53.0255 0.0000 0.0000 0.0000
# 3 31.8118 53.0255 110.1546 0.0000 0.0000 0.0000
# 4 0.0000 0.0000 0.0000 39.8857 0.0000 0.0000
# 5 0.0000 0.0000 0.0000 0.0000 25.1951 0.0000
# 6 0.0000 0.0000 0.0000 0.0000 0.0000 18.0579
#
#
#
# Elastic Compliance Matrix: (Units=1/GPa)
#
#
# Indices 1 2 3 4 5 6 
#
# 1 0.008896 -0.003007 -0.001122 0.000000 0.000000 0.000000
# 2 -0.003007 0.011943 -0.004881 0.000000 0.000000 0.000000
# 3 -0.001122 -0.004881 0.011751 0.000000 0.000000 0.000000
# 4 0.000000 0.000000 0.000000 0.025072 0.000000 0.000000
# 5 0.000000 0.000000 0.000000 0.000000 0.039690 0.000000
# 6 0.000000 0.000000 0.000000 0.000000 0.000000 0.055377
#
#
# Mechanical properties :
#
#
# Convention : Reuss Voigt Hill
#
# Bulk Modulus (GPa) = 68.62453 69.04689 68.83571
# Shear Modulus (GPa) = 28.47269 31.83848 30.15559
#
# Velocity S-wave (km/s) = 3.68096 3.89245 3.78819
# Velocity P-wave (km/s) = 7.12200 7.28419 7.20355
#
# Compressibility (1/GPa) = 0.01457205
#
# Stress axis : x y z
#
# Youngs Moduli (GPa) = 112.40459 83.72971 85.09564
#
# Poissons Ratio (x) = 0.25180 0.09544
# Poissons Ratio (y) = 0.33803 0.41532
# Poissons Ratio (z) = 0.12607 0.40866
#
# Static dielectric constant tensor:
#      x y z
#    x 3.902040 0.000000 0.000000 
#    y 0.000000 3.916060 0.000000 
#    z 0.000000 0.000000 4.168580 
# 
# 
# High freq. dielectric constant tensor:
#      x y z
#    x 1.826980 0.000000 0.000000 
#    y 0.000000 1.829200 0.000000 
#    z 0.000000 0.000000 1.839490 
# 
# From -- ./inp_files/27244.got.cif
#   From: 2010.03.12/outbox.cif.g09.slc.cpg/sg64_14_cif.got.tgz:27244.got - 2010.04.10 20:19:32.
