data_PCOD8264119
_publ_section_title
;
Structure prediction by ZEFSAII (Michael W. Deem and Ramdas Pophale) SiO2 
 PCOD8264119
Probable space group: C M C A
;
_chemical_formula_sum "Si O2"
_cell_formula_units_Z 96
_cell_length_a 28.562527
_cell_length_b 9.850788
_cell_length_c 16.633475
_cell_angle_alpha 90.000000
_cell_angle_beta 90.000000
_cell_angle_gamma 90.000000
_cell_volume 4680.051050
_symmetry_space_group_name_H-M "C M C A"
_symmetry_group_IT_number 64
_symmetry_cell_setting 'orthorhombic'
loop_
_space_group_symop_operation_xyz
x,y,z
-x,1/2-y,1/2+z
x,-y,-z
-x,1/2+y,1/2-z
-x,-y,-z
x,1/2+y,1/2-z
-x,y,z
x,1/2-y,1/2+z
1/2+x,1/2+y,z
1/2-x,-y,1/2+z
1/2+x,1/2-y,-z
1/2-x,y,1/2-z
1/2-x,1/2-y,-z
1/2+x,y,1/2-z
1/2-x,1/2+y,z
1/2+x,-y,1/2+z
loop_
_atom_site_type_symbol
_atom_site_label
_atom_site_fract_x
_atom_site_fract_y
_atom_site_fract_z
Si Si1 0.372306 0.499570 0.202515
Si Si2 0.373954 0.797947 0.846204
Si Si3 0.269842 0.478272 0.164505
Si Si4 0.445971 0.906445 0.574527
Si Si5 0.775963 0.289506 0.918750
Si Si6 0.945940 0.353181 0.976118
O O1 0.376117 0.335755 0.210747
O O2 0.370338 0.568645 0.290256
O O3 0.323548 0.526592 0.156784
O O4 0.414797 0.561848 0.151874
O O5 0.332709 0.792660 0.914182
O O6 0.421717 0.800041 0.895646
O O7 0.250000 0.518685 0.250000
O O8 0.241486 0.560298 0.098414
O O9 0.260985 0.319326 0.149057
O O10 0.500000 0.935802 0.596971
O O11 0.438376 0.749792 0.550204
O O12 0.430197 0.000000 0.500000
O O13 0.750000 0.250000 0.000000
O O14 0.000000 0.364601 0.952900
O O15 0.925363 0.500000 0.000000
#
# Coordination Sequence:
#
# PCOD8264119 Si02
#       6
#    16  16  16  16  16  16
#     4  11  25  40  66  92 128 169 219 265 328 389
#     4  11  25  43  61  98 129 171 216 268 326 393
#     4  11  23  43  63  88 132 168 211 265 324 388
#     4  10  21  42  68  93 126 171 216 267 324 385
#     4  11  25  41  64  95 124 169 218 268 321 380
#     4  10  23  43  66  94 130 167 213 270 325 385
#
# _framework density 20.512597
#
# number of rings (size 3 to 8) (size 9 to 14) (size 15 to 20)
#    0.000    1.333    3.333    1.000    7.000    2.000 
#    0.000    0.000    0.000    0.000    0.000    0.000 
#    0.000    0.000    0.000    0.000    0.000    0.000 
#
# Total GULP energy -595118.392793 kJ/mol
# GULP energy per Si atom -12398.299850 kJ/mol
# Density = 2.046591 g / cm^3
# Si number density = 20.512597 Si / 1000 Ang^3
#
#
#
# Elastic Constant Matrix: (Units=GPa)
#
#
# Indices 1 2 3 4 5 6 
#
# 1 95.1943 39.0405 45.0310 0.0000 0.0000 0.0000
# 2 39.0405 96.6019 19.3177 0.0000 0.0000 0.0000
# 3 45.0310 19.3177 84.1882 0.0000 0.0000 0.0000
# 4 0.0000 0.0000 0.0000 35.3922 0.0000 0.0000
# 5 0.0000 0.0000 0.0000 0.0000 38.6754 0.0000
# 6 0.0000 0.0000 0.0000 0.0000 0.0000 28.7883
#
#
#
# Elastic Compliance Matrix: (Units=1/GPa)
#
#
# Indices 1 2 3 4 5 6 
#
# 1 0.016086 -0.005010 -0.007454 0.000000 0.000000 0.000000
# 2 -0.005010 0.012410 -0.000168 0.000000 0.000000 0.000000
# 3 -0.007454 -0.000168 0.015904 0.000000 0.000000 0.000000
# 4 0.000000 0.000000 0.000000 0.028255 0.000000 0.000000
# 5 0.000000 0.000000 0.000000 0.000000 0.025856 0.000000
# 6 0.000000 0.000000 0.000000 0.000000 0.000000 0.034736
#
#
# Mechanical properties :
#
#
# Convention : Reuss Voigt Hill
#
# Bulk Modulus (GPa) = 52.25996 53.64034 52.95015
# Shear Modulus (GPa) = 30.32316 32.07752 31.20034
#
# Velocity S-wave (km/s) = 3.84900 3.95878 3.90427
# Velocity P-wave (km/s) = 6.72944 6.86313 6.79662
#
# Compressibility (1/GPa) = 0.01913511
#
# Stress axis : x y z
#
# Youngs Moduli (GPa) = 62.16640 80.57938 62.87765
#
# Poissons Ratio (x) = 0.40372 0.46872
# Poissons Ratio (y) = 0.31147 0.01055
# Poissons Ratio (z) = 0.46342 0.01351
#
# Static dielectric constant tensor:
#      x y z
#    x 3.496370 0.000000 0.000000 
#    y 0.000000 4.075750 0.000000 
#    z 0.000000 0.000000 2.732430 
# 
# 
# High freq. dielectric constant tensor:
#      x y z
#    x 1.810210 0.000000 0.000000 
#    y 0.000000 1.821150 0.000000 
#    z 0.000000 0.000000 1.777510 
# 
# From -- ./inp_files/41793.got.cif
#   From: 2010.03.12/outbox.cif.g09.slc.cpg/sg64_21_cif.got.tgz:41793.got - 2010.04.10 20:19:32.
