data_PCOD8264994
_publ_section_title
;
Structure prediction by ZEFSAII (Michael W. Deem and Ramdas Pophale) SiO2 
 PCOD8264994
Probable space group: C M C A
;
_chemical_formula_sum "Si O2"
_cell_formula_units_Z 48
_cell_length_a 14.924941
_cell_length_b 29.066892
_cell_length_c 4.939318
_cell_angle_alpha 90.000000
_cell_angle_beta 90.000000
_cell_angle_gamma 90.000000
_cell_volume 2142.783076
_symmetry_space_group_name_H-M "C M C A"
_symmetry_group_IT_number 64
_symmetry_cell_setting 'orthorhombic'
loop_
_space_group_symop_operation_xyz
x,y,z
-x,1/2-y,1/2+z
x,-y,-z
-x,1/2+y,1/2-z
-x,-y,-z
x,1/2+y,1/2-z
-x,y,z
x,1/2-y,1/2+z
1/2+x,1/2+y,z
1/2-x,-y,1/2+z
1/2+x,1/2-y,-z
1/2-x,y,1/2-z
1/2-x,1/2-y,-z
1/2+x,y,1/2-z
1/2-x,1/2+y,z
1/2+x,-y,1/2+z
loop_
_atom_site_type_symbol
_atom_site_label
_atom_site_fract_x
_atom_site_fract_y
_atom_site_fract_z
Si Si1 0.651391 0.852097 0.324237
Si Si2 0.601442 0.091686 0.187633
Si Si3 0.808365 0.000000 0.500000
Si Si4 0.500000 0.281058 0.043781
O O1 0.750000 0.833507 0.250000
O O2 0.662191 0.889281 0.566558
O O3 0.590285 0.810108 0.420153
O O4 0.605230 0.875064 0.067724
O O5 0.500000 0.090255 0.295725
O O6 0.630690 0.040695 0.111470
O O7 0.750000 0.019238 0.750000
O O8 0.500000 0.237076 0.238058
#
# Coordination Sequence:
#
# PCOD8264994 Si02
#       4
#    16  16   8   8
#     4  12  25  45  72 101 136 182 226 276 343 408
#     4  12  23  44  68  99 139 186 229 277 332 397
#     4  12  25  40  63 102 142 182 236 279 324 391
#     4  12  26  46  72 101 138 169 222 290 346 410
#
# _framework density 22.400773000000001
#
# number of rings (size 3 to 8) (size 9 to 14) (size 15 to 20)
#    0.000    0.000    3.333    8.500    0.000    1.333 
#    0.000    5.000    0.000    0.000    0.000    0.000 
#    0.000    0.000    0.000    0.000    0.000    0.000 
#
# Total GULP energy -297826.905693 kJ/mol
# GULP energy per Si atom -12409.454404 kJ/mol
# Density = 2.234979 g / cm^3
# Si number density = 22.400773 Si / 1000 Ang^3
#
#
#
# Elastic Constant Matrix: (Units=GPa)
#
#
# Indices 1 2 3 4 5 6 
#
# 1 121.2844 51.2031 20.3559 0.0000 0.0000 0.0000
# 2 51.2031 94.3287 14.6124 0.0000 0.0000 0.0000
# 3 20.3559 14.6124 110.8054 0.0000 0.0000 0.0000
# 4 0.0000 0.0000 0.0000 49.4164 0.0000 0.0000
# 5 0.0000 0.0000 0.0000 0.0000 29.8212 0.0000
# 6 0.0000 0.0000 0.0000 0.0000 0.0000 35.5911
#
#
#
# Elastic Compliance Matrix: (Units=1/GPa)
#
#
# Indices 1 2 3 4 5 6 
#
# 1 0.010861 -0.005703 -0.001243 0.000000 0.000000 0.000000
# 2 -0.005703 0.013817 -0.000774 0.000000 0.000000 0.000000
# 3 -0.001243 -0.000774 0.009355 0.000000 0.000000 0.000000
# 4 0.000000 0.000000 0.000000 0.020236 0.000000 0.000000
# 5 0.000000 0.000000 0.000000 0.000000 0.033533 0.000000
# 6 0.000000 0.000000 0.000000 0.000000 0.000000 0.028097
#
#
# Mechanical properties :
#
#
# Convention : Reuss Voigt Hill
#
# Bulk Modulus (GPa) = 53.78607 55.41791 54.60199
# Shear Modulus (GPa) = 36.35328 38.98220 37.66774
#
# Velocity S-wave (km/s) = 4.03284 4.17612 4.10510
# Velocity P-wave (km/s) = 6.76373 6.93154 6.84815
#
# Compressibility (1/GPa) = 0.01859217
#
# Stress axis : x y z
#
# Youngs Moduli (GPa) = 92.06841 72.37470 106.89080
#
# Poissons Ratio (x) = 0.41277 0.13289
# Poissons Ratio (y) = 0.52508 0.08277
# Poissons Ratio (z) = 0.11446 0.05605
#
# Static dielectric constant tensor:
#      x y z
#    x 4.020970 0.000000 0.000000 
#    y 0.000000 3.872210 0.000000 
#    z 0.000000 0.000000 4.348900 
# 
# 
# High freq. dielectric constant tensor:
#      x y z
#    x 1.894050 0.000000 0.000000 
#    y 0.000000 1.878900 0.000000 
#    z 0.000000 0.000000 1.904850 
# 
# From -- ./inp_files/735.got.cif
#   From: 2010.03.12/outbox.cif.g09.slc.cpg/sg64_1_cif.got.tgz:735.got - 2010.04.10 20:19:32.
