data_PCOD8264601
_publ_section_title
;
Structure prediction by ZEFSAII (Michael W. Deem and Ramdas Pophale) SiO2 
 PCOD8264601
Probable space group: C M C A
;
_chemical_formula_sum "Si O2"
_cell_formula_units_Z 104
_cell_length_a 19.050868
_cell_length_b 29.250454
_cell_length_c 9.509215
_cell_angle_alpha 90.000000
_cell_angle_beta 90.000000
_cell_angle_gamma 90.000000
_cell_volume 5298.977139
_symmetry_space_group_name_H-M "C M C A"
_symmetry_group_IT_number 64
_symmetry_cell_setting 'orthorhombic'
loop_
_space_group_symop_operation_xyz
x,y,z
-x,1/2-y,1/2+z
x,-y,-z
-x,1/2+y,1/2-z
-x,-y,-z
x,1/2+y,1/2-z
-x,y,z
x,1/2-y,1/2+z
1/2+x,1/2+y,z
1/2-x,-y,1/2+z
1/2+x,1/2-y,-z
1/2-x,y,1/2-z
1/2-x,1/2-y,-z
1/2+x,y,1/2-z
1/2-x,1/2+y,z
1/2+x,-y,1/2+z
loop_
_atom_site_type_symbol
_atom_site_label
_atom_site_fract_x
_atom_site_fract_y
_atom_site_fract_z
Si Si1 0.750000 0.583369 0.750000
Si Si2 0.419170 0.212964 0.513709
Si Si3 0.869369 0.112788 0.955355
Si Si4 0.500000 0.045813 0.593741
Si Si5 0.418056 0.296071 0.692015
Si Si6 0.647252 0.552863 0.518905
Si Si7 0.000000 0.455279 0.091215
Si Si8 0.327458 0.118847 0.230164
O O1 0.802193 0.611012 0.647424
O O2 0.702059 0.554144 0.646291
O O3 0.500000 0.213758 0.552247
O O4 0.391390 0.164862 0.568146
O O5 0.385462 0.256200 0.594529
O O6 0.404301 0.219987 0.350342
O O7 0.930834 0.076895 0.923364
O O8 0.853418 0.102043 0.118155
O O9 0.500000 0.026790 0.750097
O O10 0.500000 0.000000 0.500000
O O11 0.500000 0.305913 0.663639
O O12 0.376786 0.342728 0.661485
O O13 0.634104 0.500000 0.500000
O O14 0.570735 0.574449 0.559560
O O15 0.675652 0.576371 0.377362
O O16 0.000000 0.500000 0.000000
O O17 0.250000 0.139611 0.250000
#
# Coordination Sequence:
#
# PCOD8264601 Si02
#       8
#     8  16  16   8  16  16   8  16
#     4  12  24  42  62  94 126 170 212 258 328 382
#     4   9  18  39  62  92 123 163 209 265 312 377
#     4  11  24  42  66  93 131 167 217 264 321 385
#     4  12  26  42  70  95 125 173 219 269 320 375
#     4   9  20  38  65  92 122 163 213 257 320 384
#     4  11  26  42  66  88 128 169 215 265 322 380
#     4  10  24  46  60  93 125 157 223 271 313 373
#     4  11  24  43  62  94 130 171 208 265 326 389
#
# _framework density 19.626429000000002
#
# number of rings (size 3 to 8) (size 9 to 14) (size 15 to 20)
#    0.000    1.538    3.846    0.000    7.538    1.846 
#    1.385    1.538    0.000    0.000    0.000    0.000 
#    0.000    0.000    0.000    0.000    0.000    0.000 
#
# Total GULP energy -644454.617106 kJ/mol
# GULP energy per Si atom -12393.358021 kJ/mol
# Density = 1.958176 g / cm^3
# Si number density = 19.626429 Si / 1000 Ang^3
#
#
#
# Elastic Constant Matrix: (Units=GPa)
#
#
# Indices 1 2 3 4 5 6 
#
# 1 82.4728 57.1335 36.2696 0.0000 0.0000 0.0000
# 2 57.1335 102.5154 54.6083 0.0000 0.0000 0.0000
# 3 36.2696 54.6083 109.5737 0.0000 0.0000 0.0000
# 4 0.0000 0.0000 0.0000 30.6996 0.0000 0.0000
# 5 0.0000 0.0000 0.0000 0.0000 35.3657 0.0000
# 6 0.0000 0.0000 0.0000 0.0000 0.0000 14.7936
#
#
#
# Elastic Compliance Matrix: (Units=1/GPa)
#
#
# Indices 1 2 3 4 5 6 
#
# 1 0.019917 -0.010331 -0.001444 0.000000 0.000000 0.000000
# 2 -0.010331 0.018639 -0.005869 0.000000 0.000000 0.000000
# 3 -0.001444 -0.005869 0.012529 0.000000 0.000000 0.000000
# 4 0.000000 0.000000 0.000000 0.032574 0.000000 0.000000
# 5 0.000000 0.000000 0.000000 0.000000 0.028276 0.000000
# 6 0.000000 0.000000 0.000000 0.000000 0.000000 0.067597
#
#
# Mechanical properties :
#
#
# Convention : Reuss Voigt Hill
#
# Bulk Modulus (GPa) = 63.30515 65.62050 64.46283
# Shear Modulus (GPa) = 22.71840 25.94181 24.33010
#
# Velocity S-wave (km/s) = 3.40596 3.63957 3.52470
# Velocity P-wave (km/s) = 6.91321 7.15327 7.03427
#
# Compressibility (1/GPa) = 0.01579650
#
# Stress axis : x y z
#
# Youngs Moduli (GPa) = 50.20830 53.65173 79.81223
#
# Poissons Ratio (x) = 0.55427 0.11525
# Poissons Ratio (y) = 0.51869 0.46845
# Poissons Ratio (z) = 0.07250 0.31490
#
# Static dielectric constant tensor:
#      x y z
#    x 4.165180 0.000000 0.000000 
#    y 0.000000 3.446060 0.000000 
#    z 0.000000 0.000000 3.642510 
# 
# 
# High freq. dielectric constant tensor:
#      x y z
#    x 1.776500 0.000000 0.000000 
#    y 0.000000 1.748930 0.000000 
#    z 0.000000 0.000000 1.778600 
# 
# From -- ./inp_files/8718.got.cif
#   From: 2010.03.12/outbox.cif.g09.slc.cpg/sg64_5_cif.got.tgz:8718.got - 2010.04.10 20:19:32.
