data_PCOD8264131
_publ_section_title
;
Structure prediction by ZEFSAII (Michael W. Deem and Ramdas Pophale) SiO2 
 PCOD8264131
Probable space group: C M C A
;
_chemical_formula_sum "Si O2"
_cell_formula_units_Z 72
_cell_length_a 17.982866
_cell_length_b 23.007300
_cell_length_c 8.901458
_cell_angle_alpha 90.000000
_cell_angle_beta 90.000000
_cell_angle_gamma 90.000000
_cell_volume 3682.864246
_symmetry_space_group_name_H-M "C M C A"
_symmetry_group_IT_number 64
_symmetry_cell_setting 'orthorhombic'
loop_
_space_group_symop_operation_xyz
x,y,z
-x,1/2-y,1/2+z
x,-y,-z
-x,1/2+y,1/2-z
-x,-y,-z
x,1/2+y,1/2-z
-x,y,z
x,1/2-y,1/2+z
1/2+x,1/2+y,z
1/2-x,-y,1/2+z
1/2+x,1/2-y,-z
1/2-x,y,1/2-z
1/2-x,1/2-y,-z
1/2+x,y,1/2-z
1/2-x,1/2+y,z
1/2+x,-y,1/2+z
loop_
_atom_site_type_symbol
_atom_site_label
_atom_site_fract_x
_atom_site_fract_y
_atom_site_fract_z
Si Si1 0.000000 0.079653 0.230247
Si Si2 0.000000 0.950403 0.264303
Si Si3 0.807096 0.180812 0.952422
Si Si4 0.647645 0.715749 0.625012
Si Si5 0.620436 0.564125 0.983184
Si Si6 0.500000 0.152467 0.985022
O O1 0.927461 0.081900 0.127070
O O2 0.000000 0.135834 0.338809
O O3 0.000000 0.017606 0.316775
O O4 0.000000 0.909960 0.407804
O O5 0.071933 0.935715 0.166546
O O6 0.718539 0.187930 0.958861
O O7 0.846035 0.205594 0.802119
O O8 0.847765 0.215133 0.088605
O O9 0.815808 0.111772 0.966342
O O10 0.572152 0.689462 0.558772
O O11 0.656585 0.500000 0.000000
#
# Coordination Sequence:
#
# PCOD8264131 Si02
#       6
#     8   8  16  16  16   8
#     4   9  21  32  56  89 120 151 192 237 291 339
#     4   9  17  36  56  82 120 154 185 246 292 330
#     4  10  21  44  58  85 117 154 195 236 292 347
#     4  10  24  37  64  82 119 154 185 245 298 334
#     4   9  18  37  63  82 111 160 198 234 282 348
#     4  12  21  36  56  93 113 149 192 244 287 344
#
# _framework density 19.550001000000002
#
# number of rings (size 3 to 8) (size 9 to 14) (size 15 to 20)
#    0.000    2.222    2.222    1.667    3.111    2.667 
#    0.000    2.222    0.000    0.000    0.000    0.000 
#    0.000    0.000    0.000    0.000    0.000    0.000 
#
# Total GULP energy -446251.233931 kJ/mol
# GULP energy per Si atom -12395.867609 kJ/mol
# Density = 1.950550 g / cm^3
# Si number density = 19.550001 Si / 1000 Ang^3
#
#
#
# Elastic Constant Matrix: (Units=GPa)
#
#
# Indices 1 2 3 4 5 6 
#
# 1 101.4610 52.9331 23.9124 0.0000 0.0000 0.0000
# 2 52.9331 128.9690 33.4095 0.0000 0.0000 0.0000
# 3 23.9124 33.4095 72.3029 0.0000 0.0000 0.0000
# 4 0.0000 0.0000 0.0000 34.9830 0.0000 0.0000
# 5 0.0000 0.0000 0.0000 0.0000 13.2705 0.0000
# 6 0.0000 0.0000 0.0000 0.0000 0.0000 26.5281
#
#
#
# Elastic Compliance Matrix: (Units=1/GPa)
#
#
# Indices 1 2 3 4 5 6 
#
# 1 0.012804 -0.004724 -0.002052 0.000000 0.000000 0.000000
# 2 -0.004724 0.010551 -0.003313 0.000000 0.000000 0.000000
# 3 -0.002052 -0.003313 0.016040 0.000000 0.000000 0.000000
# 4 0.000000 0.000000 0.000000 0.028585 0.000000 0.000000
# 5 0.000000 0.000000 0.000000 0.000000 0.075355 0.000000
# 6 0.000000 0.000000 0.000000 0.000000 0.000000 0.037696
#
#
# Mechanical properties :
#
#
# Convention : Reuss Voigt Hill
#
# Bulk Modulus (GPa) = 52.03516 58.13810 55.08663
# Shear Modulus (GPa) = 24.08314 27.78818 25.93566
#
# Velocity S-wave (km/s) = 3.51361 3.77422 3.64625
# Velocity P-wave (km/s) = 6.56771 6.98539 6.77977
#
# Compressibility (1/GPa) = 0.01921777
#
# Stress axis : x y z
#
# Youngs Moduli (GPa) = 78.10087 94.77981 62.34330
#
# Poissons Ratio (x) = 0.44770 0.12792
# Poissons Ratio (y) = 0.36892 0.20655
# Poissons Ratio (z) = 0.16026 0.31401
#
# Static dielectric constant tensor:
#      x y z
#    x 3.329360 0.000000 0.000000 
#    y 0.000000 3.671360 0.000000 
#    z 0.000000 0.000000 3.504190 
# 
# 
# High freq. dielectric constant tensor:
#      x y z
#    x 1.742540 0.000000 0.000000 
#    y 0.000000 1.770560 0.000000 
#    z 0.000000 0.000000 1.759370 
# 
# From -- ./inp_files/6906.got.cif
#   From: 2010.03.12/outbox.cif.g09.slc.cpg/sg64_4_cif.got.tgz:6906.got - 2010.04.10 20:19:32.
