data_PCOD8264832
_publ_section_title
;
Structure prediction by ZEFSAII (Michael W. Deem and Ramdas Pophale) SiO2 
 PCOD8264832
Probable space group: C M C A
;
_chemical_formula_sum "Si O2"
_cell_formula_units_Z 104
_cell_length_a 23.479587
_cell_length_b 8.720602
_cell_length_c 24.029569
_cell_angle_alpha 90.000000
_cell_angle_beta 90.000000
_cell_angle_gamma 90.000000
_cell_volume 4920.201635
_symmetry_space_group_name_H-M "C M C A"
_symmetry_group_IT_number 64
_symmetry_cell_setting 'orthorhombic'
loop_
_space_group_symop_operation_xyz
x,y,z
-x,1/2-y,1/2+z
x,-y,-z
-x,1/2+y,1/2-z
-x,-y,-z
x,1/2+y,1/2-z
-x,y,z
x,1/2-y,1/2+z
1/2+x,1/2+y,z
1/2-x,-y,1/2+z
1/2+x,1/2-y,-z
1/2-x,y,1/2-z
1/2-x,1/2-y,-z
1/2+x,y,1/2-z
1/2-x,1/2+y,z
1/2+x,-y,1/2+z
loop_
_atom_site_type_symbol
_atom_site_label
_atom_site_fract_x
_atom_site_fract_y
_atom_site_fract_z
Si Si1 0.122788 0.605411 0.723162
Si Si2 0.500000 0.503664 0.363001
Si Si3 0.804479 0.433002 0.165240
Si Si4 0.500000 0.486928 0.239091
Si Si5 0.500000 0.139914 0.376153
Si Si6 0.114198 0.169265 0.374966
Si Si7 0.310869 0.907906 0.646277
Si Si8 0.607427 0.978465 0.435217
O O1 0.161890 0.599679 0.777606
O O2 0.056489 0.616243 0.737701
O O3 0.130412 0.757789 0.685532
O O4 0.136582 0.451395 0.687514
O O5 0.500000 0.560628 0.299403
O O6 0.500000 0.324335 0.379941
O O7 0.555771 0.582272 0.386699
O O8 0.837484 0.538548 0.120384
O O9 0.741799 0.500634 0.173284
O O10 0.795513 0.267595 0.139083
O O11 0.500000 0.609360 0.189689
O O12 0.555329 0.063092 0.404035
O O13 0.111989 0.297807 0.422209
O O14 0.331514 0.955228 0.584534
O O15 0.598656 0.000000 0.500000
#
# Coordination Sequence:
#
# PCOD8264832 Si02
#       8
#    16   8  16   8   8  16  16  16
#     4  11  23  39  63  94 141 182 214 251 320 395
#     4  12  26  35  67 103 147 177 211 259 323 396
#     4  12  24  41  64  96 134 172 214 267 331 396
#     4  12  23  37  64  99 146 176 208 243 325 385
#     4  12  24  44  66 100 140 178 219 264 322 401
#     4  11  23  41  63 100 133 175 220 268 319 394
#     4  11  24  43  63  93 130 170 222 271 321 392
#     4  11  25  48  72  92 124 173 225 284 340 381
#
# _framework density 21.137346000000001
#
# number of rings (size 3 to 8) (size 9 to 14) (size 15 to 20)
#    0.000    0.615    4.615    5.308    2.154    1.231 
#    0.000    6.923    0.000    0.000    0.000    0.000 
#    0.000    0.000    0.000    0.000    0.000    0.000 
#
# Total GULP energy -644301.351387 kJ/mol
# GULP energy per Si atom -12390.410604 kJ/mol
# Density = 2.108924 g / cm^3
# Si number density = 21.137346 Si / 1000 Ang^3
#
#
#
# Elastic Constant Matrix: (Units=GPa)
#
#
# Indices 1 2 3 4 5 6 
#
# 1 137.6469 47.2015 34.9151 0.0000 0.0000 0.0000
# 2 47.2015 151.7439 28.2310 0.0000 0.0000 0.0000
# 3 34.9151 28.2310 79.2223 0.0000 0.0000 0.0000
# 4 0.0000 0.0000 0.0000 14.3482 0.0000 0.0000
# 5 0.0000 0.0000 0.0000 0.0000 15.7410 0.0000
# 6 0.0000 0.0000 0.0000 0.0000 0.0000 41.5197
#
#
#
# Elastic Compliance Matrix: (Units=1/GPa)
#
#
# Indices 1 2 3 4 5 6 
#
# 1 0.008793 -0.002157 -0.003106 0.000000 0.000000 0.000000
# 2 -0.002157 0.007587 -0.001753 0.000000 0.000000 0.000000
# 3 -0.003106 -0.001753 0.014616 0.000000 0.000000 0.000000
# 4 0.000000 0.000000 0.000000 0.069695 0.000000 0.000000
# 5 0.000000 0.000000 0.000000 0.000000 0.063528 0.000000
# 6 0.000000 0.000000 0.000000 0.000000 0.000000 0.024085
#
#
# Mechanical properties :
#
#
# Convention : Reuss Voigt Hill
#
# Bulk Modulus (GPa) = 58.95122 65.47871 62.21496
# Shear Modulus (GPa) = 24.03934 31.53947 27.78941
#
# Velocity S-wave (km/s) = 3.37604 3.86699 3.62982
# Velocity P-wave (km/s) = 6.56863 7.14025 6.86040
#
# Compressibility (1/GPa) = 0.01696318
#
# Stress axis : x y z
#
# Youngs Moduli (GPa) = 113.73138 131.80123 68.41597
#
# Poissons Ratio (x) = 0.28431 0.21253
# Poissons Ratio (y) = 0.24533 0.11993
# Poissons Ratio (z) = 0.35330 0.23105
#
# Static dielectric constant tensor:
#      x y z
#    x 4.107840 0.000000 0.000000 
#    y 0.000000 3.939360 0.000000 
#    z 0.000000 0.000000 3.520030 
# 
# 
# High freq. dielectric constant tensor:
#      x y z
#    x 1.848140 0.000000 0.000000 
#    y 0.000000 1.844490 0.000000 
#    z 0.000000 0.000000 1.784380 
# 
# From -- ./inp_files/51062.got.cif
#   From: 2010.03.12/outbox.cif.g09.slc.cpg/sg64_26_cif.got.tgz:51062.got - 2010.04.10 20:19:32.
