data_PCOD8264881
_publ_section_title
;
Structure prediction by ZEFSAII (Michael W. Deem and Ramdas Pophale) SiO2 
 PCOD8264881
Probable space group: C M C A
;
_chemical_formula_sum "Si O2"
_cell_formula_units_Z 56
_cell_length_a 9.546122
_cell_length_b 12.649712
_cell_length_c 18.642911
_cell_angle_alpha 90.000000
_cell_angle_beta 90.000000
_cell_angle_gamma 90.000000
_cell_volume 2251.237656
_symmetry_space_group_name_H-M "C M C A"
_symmetry_group_IT_number 64
_symmetry_cell_setting 'orthorhombic'
loop_
_space_group_symop_operation_xyz
x,y,z
-x,1/2-y,1/2+z
x,-y,-z
-x,1/2+y,1/2-z
-x,-y,-z
x,1/2+y,1/2-z
-x,y,z
x,1/2-y,1/2+z
1/2+x,1/2+y,z
1/2-x,-y,1/2+z
1/2+x,1/2-y,-z
1/2-x,y,1/2-z
1/2-x,1/2-y,-z
1/2+x,y,1/2-z
1/2-x,1/2+y,z
1/2+x,-y,1/2+z
loop_
_atom_site_type_symbol
_atom_site_label
_atom_site_fract_x
_atom_site_fract_y
_atom_site_fract_z
Si Si1 0.500000 0.695967 0.773480
Si Si2 0.500000 0.888166 0.120701
Si Si3 0.763987 0.446486 0.890738
Si Si4 0.750000 0.834724 0.750000
Si Si5 0.500000 0.692829 0.464441
Si Si6 0.000000 0.568555 0.590537
O O1 0.500000 0.686348 0.688517
O O2 0.634690 0.765749 0.791411
O O3 0.500000 0.591366 0.822931
O O4 0.362513 0.956781 0.128243
O O5 0.500000 0.816485 0.050015
O O6 0.695877 0.404311 0.816581
O O7 0.856410 0.362624 0.936370
O O8 0.633116 0.497455 0.933694
O O9 0.500000 0.816506 0.446922
#
# Coordination Sequence:
#
# PCOD8264881 Si02
#       6
#     8   8  16   8   8   8
#     4  12  23  42  70 108 137 190 238 297 364 406
#     4  11  25  46  70 101 149 191 233 296 361 430
#     4  11  23  45  71 104 139 190 236 292 360 417
#     4  12  22  42  72 106 144 178 244 308 338 426
#     4  11  26  52  68 104 153 186 236 296 358 432
#     4  12  24  46  77 105 141 188 245 298 351 430
#
# _framework density 24.875205999999999
#
# number of rings (size 3 to 8) (size 9 to 14) (size 15 to 20)
#    0.000    0.571    2.857    6.857    0.000    1.143 
#    5.143    2.857    0.000    0.000    0.000    0.000 
#    0.000    0.000    0.000    0.000    0.000    0.000 
#
# Total GULP energy -347044.285448 kJ/mol
# GULP energy per Si atom -12394.438766 kJ/mol
# Density = 2.481859 g / cm^3
# Si number density = 24.875206 Si / 1000 Ang^3
#
#
#
# Elastic Constant Matrix: (Units=GPa)
#
#
# Indices 1 2 3 4 5 6 
#
# 1 154.8334 53.8899 -5.8857 0.0000 0.0000 0.0000
# 2 53.8899 103.2081 35.3657 0.0000 0.0000 0.0000
# 3 -5.8857 35.3657 153.3613 0.0000 0.0000 0.0000
# 4 0.0000 0.0000 0.0000 7.4530 0.0000 0.0000
# 5 0.0000 0.0000 0.0000 0.0000 16.2244 0.0000
# 6 0.0000 0.0000 0.0000 0.0000 0.0000 29.8479
#
#
#
# Elastic Compliance Matrix: (Units=1/GPa)
#
#
# Indices 1 2 3 4 5 6 
#
# 1 0.008164 -0.004745 0.001407 0.000000 0.000000 0.000000
# 2 -0.004745 0.013278 -0.003244 0.000000 0.000000 0.000000
# 3 0.001407 -0.003244 0.007323 0.000000 0.000000 0.000000
# 4 0.000000 0.000000 0.000000 0.134175 0.000000 0.000000
# 5 0.000000 0.000000 0.000000 0.000000 0.061635 0.000000
# 6 0.000000 0.000000 0.000000 0.000000 0.000000 0.033503
#
#
# Mechanical properties :
#
#
# Convention : Reuss Voigt Hill
#
# Bulk Modulus (GPa) = 64.09640 64.23807 64.16724
# Shear Modulus (GPa) = 18.08701 32.57392 25.33047
#
# Velocity S-wave (km/s) = 2.69942 3.62262 3.19455
# Velocity P-wave (km/s) = 5.96146 6.58620 6.28160
#
# Compressibility (1/GPa) = 0.01560150
#
# Stress axis : x y z
#
# Youngs Moduli (GPa) = 122.49636 75.31072 136.56213
#
# Poissons Ratio (x) = 0.35734 -0.19221
# Poissons Ratio (y) = 0.58123 0.44303
# Poissons Ratio (z) = -0.17241 0.24432
#
# Static dielectric constant tensor:
#      x y z
#    x 5.350380 0.000000 0.000000 
#    y 0.000000 4.439630 0.000000 
#    z 0.000000 0.000000 4.426890 
# 
# 
# High freq. dielectric constant tensor:
#      x y z
#    x 1.996010 0.000000 0.000000 
#    y 0.000000 1.992970 0.000000 
#    z 0.000000 0.000000 2.002700 
# 
# From -- ./inp_files/36204.got.cif
#   From: 2010.03.12/outbox.cif.g09.slc.cpg/sg64_19_cif.got.tgz:36204.got - 2010.04.10 20:19:32.
