data_PCOD8264575
_publ_section_title
;
Structure prediction by ZEFSAII (Michael W. Deem and Ramdas Pophale) SiO2 
 PCOD8264575
Probable space group: C M C A
;
_chemical_formula_sum "Si O2"
_cell_formula_units_Z 64
_cell_length_a 22.148067
_cell_length_b 8.502184
_cell_length_c 14.572114
_cell_angle_alpha 90.000000
_cell_angle_beta 90.000000
_cell_angle_gamma 90.000000
_cell_volume 2744.030209
_symmetry_space_group_name_H-M "C M C A"
_symmetry_group_IT_number 64
_symmetry_cell_setting 'orthorhombic'
loop_
_space_group_symop_operation_xyz
x,y,z
-x,1/2-y,1/2+z
x,-y,-z
-x,1/2+y,1/2-z
-x,-y,-z
x,1/2+y,1/2-z
-x,y,z
x,1/2-y,1/2+z
1/2+x,1/2+y,z
1/2-x,-y,1/2+z
1/2+x,1/2-y,-z
1/2-x,y,1/2-z
1/2-x,1/2-y,-z
1/2+x,y,1/2-z
1/2-x,1/2+y,z
1/2+x,-y,1/2+z
loop_
_atom_site_type_symbol
_atom_site_label
_atom_site_fract_x
_atom_site_fract_y
_atom_site_fract_z
Si Si1 0.500000 0.341075 0.327926
Si Si2 0.120509 0.663174 0.550941
Si Si3 0.000000 0.209264 0.368353
Si Si4 0.369327 0.717168 0.632277
Si Si5 0.318831 0.480819 0.222528
O O1 0.500000 0.525380 0.347625
O O2 0.500000 0.321054 0.219316
O O3 0.441479 0.254127 0.369764
O O4 0.105558 0.500000 0.500000
O O5 0.153706 0.772988 0.473430
O O6 0.163361 0.637665 0.639204
O O7 0.059307 0.751328 0.574862
O O8 0.356524 0.552897 0.683804
O O9 0.334313 0.843014 0.694903
O O10 0.250000 0.459411 0.250000
#
# Coordination Sequence:
#
# PCOD8264575 Si02
#       5
#     8  16   8  16  16
#     4  12  25  41  75 102 141 182 233 295 356 421
#     4  10  24  42  70 102 145 188 227 286 362 417
#     4  12  24  43  70 109 147 183 229 292 363 418
#     4  11  24  45  69 100 139 183 233 290 356 416
#     4  11  24  45  69  97 136 187 237 288 345 417
#
# _framework density 23.323357999999999
#
# number of rings (size 3 to 8) (size 9 to 14) (size 15 to 20)
#    0.000    1.000    2.500    3.375    3.500    3.000 
#    0.000    2.500    0.000    0.000    0.000    0.000 
#    0.000    0.000    0.000    0.000    0.000    0.000 
#
# Total GULP energy -396724.399102 kJ/mol
# GULP energy per Si atom -12397.637472 kJ/mol
# Density = 2.327027 g / cm^3
# Si number density = 23.323358 Si / 1000 Ang^3
#
#
#
# Elastic Constant Matrix: (Units=GPa)
#
#
# Indices 1 2 3 4 5 6 
#
# 1 141.2773 27.9399 51.7223 0.0000 0.0000 0.0000
# 2 27.9399 53.5647 51.8968 0.0000 0.0000 0.0000
# 3 51.7223 51.8968 136.9676 0.0000 0.0000 0.0000
# 4 0.0000 0.0000 0.0000 33.6754 0.0000 0.0000
# 5 0.0000 0.0000 0.0000 0.0000 25.1713 0.0000
# 6 0.0000 0.0000 0.0000 0.0000 0.0000 36.0777
#
#
#
# Elastic Compliance Matrix: (Units=1/GPa)
#
#
# Indices 1 2 3 4 5 6 
#
# 1 0.008355 -0.002056 -0.002376 0.000000 0.000000 0.000000
# 2 -0.002056 0.030004 -0.010592 0.000000 0.000000 0.000000
# 3 -0.002376 -0.010592 0.012211 0.000000 0.000000 0.000000
# 4 0.000000 0.000000 0.000000 0.029695 0.000000 0.000000
# 5 0.000000 0.000000 0.000000 0.000000 0.039728 0.000000
# 6 0.000000 0.000000 0.000000 0.000000 0.000000 0.027718
#
#
# Mechanical properties :
#
#
# Convention : Reuss Voigt Hill
#
# Bulk Modulus (GPa) = 48.72791 66.10306 57.41548
# Shear Modulus (GPa) = 27.08570 32.33490 29.71030
#
# Velocity S-wave (km/s) = 3.41150 3.72744 3.57297
# Velocity P-wave (km/s) = 6.03784 6.85045 6.45694
#
# Compressibility (1/GPa) = 0.02052212
#
# Stress axis : x y z
#
# Youngs Moduli (GPa) = 119.69287 33.32938 81.89015
#
# Poissons Ratio (x) = 0.06852 0.19457
# Poissons Ratio (y) = 0.24608 0.86738
# Poissons Ratio (z) = 0.28438 0.35302
#
# Static dielectric constant tensor:
#      x y z
#    x 4.043100 0.000000 0.000000 
#    y 0.000000 4.090360 0.000000 
#    z 0.000000 0.000000 4.766600 
# 
# 
# High freq. dielectric constant tensor:
#      x y z
#    x 1.909430 0.000000 0.000000 
#    y 0.000000 1.919140 0.000000 
#    z 0.000000 0.000000 1.948680 
# 
# From -- ./inp_files/26956.got.cif
#   From: 2010.03.12/outbox.cif.g09.slc.cpg/sg64_14_cif.got.tgz:26956.got - 2010.04.10 20:19:32.
