data_PCOD8264889
_publ_section_title
;
Structure prediction by ZEFSAII (Michael W. Deem and Ramdas Pophale) SiO2 
 PCOD8264889
Probable space group: C M C A
;
_chemical_formula_sum "Si O2"
_cell_formula_units_Z 64
_cell_length_a 9.542871
_cell_length_b 35.029805
_cell_length_c 9.673808
_cell_angle_alpha 90.000000
_cell_angle_beta 90.000000
_cell_angle_gamma 90.000000
_cell_volume 3233.808039
_symmetry_space_group_name_H-M "C M C A"
_symmetry_group_IT_number 64
_symmetry_cell_setting 'orthorhombic'
loop_
_space_group_symop_operation_xyz
x,y,z
-x,1/2-y,1/2+z
x,-y,-z
-x,1/2+y,1/2-z
-x,-y,-z
x,1/2+y,1/2-z
-x,y,z
x,1/2-y,1/2+z
1/2+x,1/2+y,z
1/2-x,-y,1/2+z
1/2+x,1/2-y,-z
1/2-x,y,1/2-z
1/2-x,1/2-y,-z
1/2+x,y,1/2-z
1/2-x,1/2+y,z
1/2+x,-y,1/2+z
loop_
_atom_site_type_symbol
_atom_site_label
_atom_site_fract_x
_atom_site_fract_y
_atom_site_fract_z
Si Si1 0.168631 0.723429 0.393403
Si Si2 0.000000 0.949173 0.361225
Si Si3 0.000000 0.965232 0.684203
Si Si4 0.340823 0.637347 0.023522
Si Si5 0.250000 0.899195 0.250000
Si Si6 0.250000 0.583749 0.250000
O O1 0.250000 0.729054 0.250000
O O2 0.250000 0.750000 0.500000
O O3 0.194908 0.681012 0.448124
O O4 0.000000 0.732480 0.381593
O O5 0.863595 0.926072 0.319673
O O6 0.000000 0.956412 0.522985
O O7 0.000000 0.989773 0.283165
O O8 0.125362 0.945509 0.762588
O O9 0.500000 0.628463 0.066588
O O10 0.240168 0.610707 0.115384
O O11 0.318089 0.628656 0.862753
#
# Coordination Sequence:
#
# PCOD8264889 Si02
#       6
#    16   8   8  16   8   8
#     4  11  25  47  70 103 138 176 220 270 331 400
#     4  11  24  41  61  93 134 167 218 274 334 390
#     4  11  24  39  63  95 128 173 214 276 332 388
#     4  11  24  42  68  96 131 169 220 268 322 386
#     4  12  23  44  63  94 130 172 220 272 327 386
#     4  12  21  42  65  94 124 170 220 266 321 386
#
# _framework density 19.79091
#
# number of rings (size 3 to 8) (size 9 to 14) (size 15 to 20)
#    0.000    0.750    6.250    1.500    1.750    0.000 
#    6.750    1.250    0.000    0.000    0.000    0.000 
#    0.000    0.000    0.000    0.000    0.000    0.000 
#
# Total GULP energy -396775.360879 kJ/mol
# GULP energy per Si atom -12399.230027 kJ/mol
# Density = 1.974587 g / cm^3
# Si number density = 19.790910 Si / 1000 Ang^3
#
#
#
# Elastic Constant Matrix: (Units=GPa)
#
#
# Indices 1 2 3 4 5 6 
#
# 1 118.1767 55.6366 20.4366 0.0000 0.0000 0.0000
# 2 55.6366 126.7667 52.8726 0.0000 0.0000 0.0000
# 3 20.4366 52.8726 102.6935 0.0000 0.0000 0.0000
# 4 0.0000 0.0000 0.0000 38.8850 0.0000 0.0000
# 5 0.0000 0.0000 0.0000 0.0000 44.1098 0.0000
# 6 0.0000 0.0000 0.0000 0.0000 0.0000 36.3864
#
#
#
# Elastic Compliance Matrix: (Units=1/GPa)
#
#
# Indices 1 2 3 4 5 6 
#
# 1 0.010677 -0.004839 0.000367 0.000000 0.000000 0.000000
# 2 -0.004839 0.012239 -0.005338 0.000000 0.000000 0.000000
# 3 0.000367 -0.005338 0.012413 0.000000 0.000000 0.000000
# 4 0.000000 0.000000 0.000000 0.025717 0.000000 0.000000
# 5 0.000000 0.000000 0.000000 0.000000 0.022671 0.000000
# 6 0.000000 0.000000 0.000000 0.000000 0.000000 0.027483
#
#
# Mechanical properties :
#
#
# Convention : Reuss Voigt Hill
#
# Bulk Modulus (GPa) = 63.66337 67.28094 65.47215
# Shear Modulus (GPa) = 36.74972 38.45564 37.60268
#
# Velocity S-wave (km/s) = 4.31385 4.41284 4.36362
# Velocity P-wave (km/s) = 7.55316 7.74815 7.65128
#
# Compressibility (1/GPa) = 0.01570762
#
# Stress axis : x y z
#
# Youngs Moduli (GPa) = 93.66331 81.70822 80.55929
#
# Poissons Ratio (x) = 0.39536 -0.02953
# Poissons Ratio (y) = 0.45321 0.43005
# Poissons Ratio (z) = -0.03433 0.43618
#
# Static dielectric constant tensor:
#      x y z
#    x 3.687430 0.000000 0.000000 
#    y 0.000000 3.799380 0.000000 
#    z 0.000000 0.000000 3.604660 
# 
# 
# High freq. dielectric constant tensor:
#      x y z
#    x 1.783170 0.000000 0.000000 
#    y 0.000000 1.785140 0.000000 
#    z 0.000000 0.000000 1.777550 
# 
# From -- ./inp_files/4669.got.cif
#   From: 2010.03.12/outbox.cif.g09.slc.cpg/sg64_3_cif.got.tgz:4669.got - 2010.04.10 20:19:32.
