data_PCOD8264467
_publ_section_title
;
Structure prediction by ZEFSAII (Michael W. Deem and Ramdas Pophale) SiO2 
 PCOD8264467
Probable space group: C M C A
;
_chemical_formula_sum "Si O2"
_cell_formula_units_Z 96
_cell_length_a 12.079070
_cell_length_b 14.441431
_cell_length_c 27.449713
_cell_angle_alpha 90.000000
_cell_angle_beta 90.000000
_cell_angle_gamma 90.000000
_cell_volume 4788.302022
_symmetry_space_group_name_H-M "C M C A"
_symmetry_group_IT_number 64
_symmetry_cell_setting 'orthorhombic'
loop_
_space_group_symop_operation_xyz
x,y,z
-x,1/2-y,1/2+z
x,-y,-z
-x,1/2+y,1/2-z
-x,-y,-z
x,1/2+y,1/2-z
-x,y,z
x,1/2-y,1/2+z
1/2+x,1/2+y,z
1/2-x,-y,1/2+z
1/2+x,1/2-y,-z
1/2-x,y,1/2-z
1/2-x,1/2-y,-z
1/2+x,y,1/2-z
1/2-x,1/2+y,z
1/2+x,-y,1/2+z
loop_
_atom_site_type_symbol
_atom_site_label
_atom_site_fract_x
_atom_site_fract_y
_atom_site_fract_z
Si Si1 0.133658 0.184191 0.554512
Si Si2 0.788341 0.856458 0.551300
Si Si3 0.000000 0.905705 0.139714
Si Si4 0.338165 0.492435 0.288830
Si Si5 0.238268 0.469845 0.390312
Si Si6 0.000000 0.352424 0.246382
Si Si7 0.000000 0.206072 0.390108
Si Si8 0.000000 0.650425 0.220791
O O1 0.163073 0.139253 0.502806
O O2 0.183860 0.287453 0.556652
O O3 0.197493 0.124176 0.595261
O O4 0.000000 0.185863 0.562748
O O5 0.889356 0.831213 0.585931
O O6 0.744611 0.957764 0.565471
O O7 0.110312 0.959396 0.124221
O O8 0.000000 0.887115 0.197549
O O9 0.000000 0.815903 0.105722
O O10 0.250000 0.469433 0.250000
O O11 0.299848 0.511286 0.343472
O O12 0.401231 0.394722 0.285293
O O13 0.395946 0.585186 0.268954
O O14 0.000000 0.240350 0.244076
O O15 0.000000 0.180060 0.334401
#
# Coordination Sequence:
#
# PCOD8264467 Si02
#       8
#    16  16   8  16  16   8   8   8
#     4  11  26  44  66  99 132 171 221 273 327 394
#     4  11  24  44  67  97 132 172 216 274 329 394
#     4  11  23  43  65  91 135 176 218 258 327 394
#     4  11  23  42  63  95 128 166 220 272 320 388
#     4  12  25  43  67  98 132 173 220 271 332 387
#     4  10  23  43  63  92 129 172 210 268 324 380
#     4  11  19  43  67  93 129 174 215 257 332 394
#     4  10  23  41  65  92 126 170 215 264 328 384
#
# _framework density 20.048860000000001
#
# number of rings (size 3 to 8) (size 9 to 14) (size 15 to 20)
#    0.000    1.000    5.833    0.500    4.667    1.333 
#    3.000    0.833    0.000    0.000    0.000    0.000 
#    0.000    0.000    0.000    0.000    0.000    0.000 
#
# Total GULP energy -594837.461441 kJ/mol
# GULP energy per Si atom -12392.447113 kJ/mol
# Density = 2.000323 g / cm^3
# Si number density = 20.048860 Si / 1000 Ang^3
#
#
#
# Elastic Constant Matrix: (Units=GPa)
#
#
# Indices 1 2 3 4 5 6 
#
# 1 141.2021 39.8996 19.2925 0.0000 0.0000 0.0000
# 2 39.8996 104.2996 11.6958 0.0000 0.0000 0.0000
# 3 19.2925 11.6958 48.5301 0.0000 0.0000 0.0000
# 4 0.0000 0.0000 0.0000 36.4357 0.0000 0.0000
# 5 0.0000 0.0000 0.0000 0.0000 74.7304 0.0000
# 6 0.0000 0.0000 0.0000 0.0000 0.0000 21.8496
#
#
#
# Elastic Compliance Matrix: (Units=1/GPa)
#
#
# Indices 1 2 3 4 5 6 
#
# 1 0.008245 -0.002864 -0.002587 0.000000 0.000000 0.000000
# 2 -0.002864 0.010849 -0.001476 0.000000 0.000000 0.000000
# 3 -0.002587 -0.001476 0.021990 0.000000 0.000000 0.000000
# 4 0.000000 0.000000 0.000000 0.027446 0.000000 0.000000
# 5 0.000000 0.000000 0.000000 0.000000 0.013381 0.000000
# 6 0.000000 0.000000 0.000000 0.000000 0.000000 0.045767
#
#
# Mechanical properties :
#
#
# Convention : Reuss Voigt Hill
#
# Bulk Modulus (GPa) = 36.72557 48.42305 42.57431
# Shear Modulus (GPa) = 33.19849 41.47941 37.33895
#
# Velocity S-wave (km/s) = 4.07366 4.55347 4.32023
# Velocity P-wave (km/s) = 6.36271 7.20072 6.79465
#
# Compressibility (1/GPa) = 0.02722899
#
# Stress axis : x y z
#
# Youngs Moduli (GPa) = 121.28824 92.17555 45.47506
#
# Poissons Ratio (x) = 0.26398 0.11766
# Poissons Ratio (y) = 0.34736 0.06712
# Poissons Ratio (z) = 0.31382 0.13606
#
# Static dielectric constant tensor:
#      x y z
#    x 3.860960 0.000000 0.000000 
#    y 0.000000 3.812090 0.000000 
#    z 0.000000 0.000000 3.385060 
# 
# 
# High freq. dielectric constant tensor:
#      x y z
#    x 1.794160 0.000000 0.000000 
#    y 0.000000 1.784980 0.000000 
#    z 0.000000 0.000000 1.786140 
# 
# From -- ./inp_files/52815.got.cif
#   From: 2010.03.12/outbox.cif.g09.slc.cpg/sg64_27_cif.got.tgz:52815.got - 2010.04.10 20:19:32.
