data_PCOD8264440
_publ_section_title
;
Structure prediction by ZEFSAII (Michael W. Deem and Ramdas Pophale) SiO2 
 PCOD8264440
Probable space group: C M C A
;
_chemical_formula_sum "Si O2"
_cell_formula_units_Z 72
_cell_length_a 23.719525
_cell_length_b 15.222493
_cell_length_c 9.520442
_cell_angle_alpha 90.000000
_cell_angle_beta 90.000000
_cell_angle_gamma 90.000000
_cell_volume 3437.548880
_symmetry_space_group_name_H-M "C M C A"
_symmetry_group_IT_number 64
_symmetry_cell_setting 'orthorhombic'
loop_
_space_group_symop_operation_xyz
x,y,z
-x,1/2-y,1/2+z
x,-y,-z
-x,1/2+y,1/2-z
-x,-y,-z
x,1/2+y,1/2-z
-x,y,z
x,1/2-y,1/2+z
1/2+x,1/2+y,z
1/2-x,-y,1/2+z
1/2+x,1/2-y,-z
1/2-x,y,1/2-z
1/2-x,1/2-y,-z
1/2+x,y,1/2-z
1/2-x,1/2+y,z
1/2+x,-y,1/2+z
loop_
_atom_site_type_symbol
_atom_site_label
_atom_site_fract_x
_atom_site_fract_y
_atom_site_fract_z
Si Si1 0.702481 0.375764 0.859950
Si Si2 0.128080 0.717515 0.869910
Si Si3 0.934564 0.325273 0.399379
Si Si4 0.224927 0.586236 0.903564
Si Si5 0.878983 0.500000 0.500000
O O1 0.750000 0.403906 0.750000
O O2 0.669909 0.290424 0.803605
O O3 0.660155 0.458901 0.876848
O O4 0.729870 0.352780 0.012646
O O5 0.078491 0.694452 0.762372
O O6 0.163622 0.630116 0.900643
O O7 0.100196 0.755346 0.009895
O O8 0.918009 0.425053 0.434158
O O9 0.000000 0.311828 0.428866
O O10 0.250000 0.568253 0.750000
O O11 0.219927 0.500000 0.000000
#
# Coordination Sequence:
#
# PCOD8264440 Si02
#       5
#    16  16  16  16   8
#     4  11  22  39  63  97 132 167 206 252 319 395
#     4  11  24  42  66  94 128 170 213 266 319 381
#     4  11  24  45  68  91 124 166 224 275 321 366
#     4  12  24  38  62  95 140 173 204 253 315 395
#     4  10  23  38  66  94 126 170 211 254 320 384
#
# _framework density 20.945156999999998
#
# number of rings (size 3 to 8) (size 9 to 14) (size 15 to 20)
#    0.000    0.889    1.111    7.000    3.111    0.000 
#    0.000    1.111    0.000    1.333    0.000    0.000 
#    0.000    0.000    0.000    0.000    0.000    0.000 
#
# Total GULP energy -446428.784100 kJ/mol
# GULP energy per Si atom -12400.799558 kJ/mol
# Density = 2.089749 g / cm^3
# Si number density = 20.945157 Si / 1000 Ang^3
#
#
#
# Elastic Constant Matrix: (Units=GPa)
#
#
# Indices 1 2 3 4 5 6 
#
# 1 131.4115 48.5994 42.8052 0.0000 0.0000 0.0000
# 2 48.5994 102.5265 47.0856 0.0000 0.0000 0.0000
# 3 42.8052 47.0856 114.1041 0.0000 0.0000 0.0000
# 4 0.0000 0.0000 0.0000 22.9115 0.0000 0.0000
# 5 0.0000 0.0000 0.0000 0.0000 35.7083 0.0000
# 6 0.0000 0.0000 0.0000 0.0000 0.0000 22.7629
#
#
#
# Elastic Compliance Matrix: (Units=1/GPa)
#
#
# Indices 1 2 3 4 5 6 
#
# 1 0.009631 -0.003585 -0.002133 0.000000 0.000000 0.000000
# 2 -0.003585 0.013369 -0.004172 0.000000 0.000000 0.000000
# 3 -0.002133 -0.004172 0.011286 0.000000 0.000000 0.000000
# 4 0.000000 0.000000 0.000000 0.043646 0.000000 0.000000
# 5 0.000000 0.000000 0.000000 0.000000 0.028005 0.000000
# 6 0.000000 0.000000 0.000000 0.000000 0.000000 0.043931
#
#
# Mechanical properties :
#
#
# Convention : Reuss Voigt Hill
#
# Bulk Modulus (GPa) = 68.94448 69.44696 69.19572
# Shear Modulus (GPa) = 28.65610 30.24666 29.45138
#
# Velocity S-wave (km/s) = 3.70286 3.80424 3.75389
# Velocity P-wave (km/s) = 7.16029 7.24740 7.20398
#
# Compressibility (1/GPa) = 0.01450442
#
# Stress axis : x y z
#
# Youngs Moduli (GPa) = 103.83653 74.80005 88.60750
#
# Poissons Ratio (x) = 0.26818 0.18903
# Poissons Ratio (y) = 0.37229 0.36965
# Poissons Ratio (z) = 0.22152 0.31205
#
# Static dielectric constant tensor:
#      x y z
#    x 3.771280 0.000000 0.000000 
#    y 0.000000 3.872830 0.000000 
#    z 0.000000 0.000000 4.006430 
# 
# 
# High freq. dielectric constant tensor:
#      x y z
#    x 1.814300 0.000000 0.000000 
#    y 0.000000 1.831490 0.000000 
#    z 0.000000 0.000000 1.823290 
# 
# From -- ./inp_files/10031.got.cif
#   From: 2010.03.12/outbox.cif.g09.slc.cpg/sg64_6_cif.got.tgz:10031.got - 2010.04.10 20:19:32.
