data_PCOD8264694
_publ_section_title
;
Structure prediction by ZEFSAII (Michael W. Deem and Ramdas Pophale) SiO2 
 PCOD8264694
Probable space group: C M C A
;
_chemical_formula_sum "Si O2"
_cell_formula_units_Z 80
_cell_length_a 7.791729
_cell_length_b 28.854495
_cell_length_c 19.733496
_cell_angle_alpha 90.000000
_cell_angle_beta 90.000000
_cell_angle_gamma 90.000000
_cell_volume 4436.610973
_symmetry_space_group_name_H-M "C M C A"
_symmetry_group_IT_number 64
_symmetry_cell_setting 'orthorhombic'
loop_
_space_group_symop_operation_xyz
x,y,z
-x,1/2-y,1/2+z
x,-y,-z
-x,1/2+y,1/2-z
-x,-y,-z
x,1/2+y,1/2-z
-x,y,z
x,1/2-y,1/2+z
1/2+x,1/2+y,z
1/2-x,-y,1/2+z
1/2+x,1/2-y,-z
1/2-x,y,1/2-z
1/2-x,1/2-y,-z
1/2+x,y,1/2-z
1/2-x,1/2+y,z
1/2+x,-y,1/2+z
loop_
_atom_site_type_symbol
_atom_site_label
_atom_site_fract_x
_atom_site_fract_y
_atom_site_fract_z
Si Si1 0.193076 0.775684 0.567046
Si Si2 0.696382 0.123355 0.056842
Si Si3 0.699615 0.297488 0.327398
Si Si4 0.500000 0.044140 0.589962
Si Si5 0.694677 0.391660 0.397687
Si Si6 0.000000 0.558716 0.430240
O O1 0.250000 0.750000 0.500000
O O2 0.277025 0.826436 0.577584
O O3 0.209698 0.743994 0.632824
O O4 0.000000 0.789558 0.553484
O O5 0.500000 0.114087 0.082381
O O6 0.825464 0.085890 0.089907
O O7 0.702801 0.121110 0.975992
O O8 0.500000 0.290863 0.339246
O O9 0.750000 0.293064 0.250000
O O10 0.758652 0.347115 0.355500
O O11 0.327176 0.067248 0.620482
O O12 0.500000 0.050038 0.509872
O O13 0.500000 0.989993 0.609774
O O14 0.500000 0.406356 0.377228
#
# Coordination Sequence:
#
# PCOD8264694 Si02
#       6
#    16  16  16   8  16   8
#     4  11  21  32  53  79 107 148 186 224 269 328
#     4   9  18  31  48  75 107 139 176 216 264 317
#     4  11  23  36  51  77 112 146 182 226 276 327
#     4   9  18  30  50  73 100 138 172 206 270 321
#     4   9  18  32  49  72 105 139 174 215 264 323
#     4   9  18  30  48  75 104 134 170 220 265 310
#
# _framework density 18.031783000000001
#
# number of rings (size 3 to 8) (size 9 to 14) (size 15 to 20)
#    0.000    2.200    2.000    1.200    5.600    0.800 
#    0.000    4.000    0.000    0.000    0.000    1.400 
#    0.000    0.000    0.000    0.000    0.000    0.000 
#
# Total GULP energy -495819.460849 kJ/mol
# GULP energy per Si atom -12395.486521 kJ/mol
# Density = 1.799074 g / cm^3
# Si number density = 18.031783 Si / 1000 Ang^3
#
#
#
# Elastic Constant Matrix: (Units=GPa)
#
#
# Indices 1 2 3 4 5 6 
#
# 1 101.4044 74.3231 14.5321 0.0000 0.0000 0.0000
# 2 74.3231 171.0881 32.8857 0.0000 0.0000 0.0000
# 3 14.5321 32.8857 47.2161 0.0000 0.0000 0.0000
# 4 0.0000 0.0000 0.0000 16.1300 0.0000 0.0000
# 5 0.0000 0.0000 0.0000 0.0000 15.8021 0.0000
# 6 0.0000 0.0000 0.0000 0.0000 0.0000 32.4845
#
#
#
# Elastic Compliance Matrix: (Units=1/GPa)
#
#
# Indices 1 2 3 4 5 6 
#
# 1 0.014468 -0.006269 -0.000087 0.000000 0.000000 0.000000
# 2 -0.006269 0.009464 -0.004662 0.000000 0.000000 0.000000
# 3 -0.000087 -0.004662 0.024453 0.000000 0.000000 0.000000
# 4 0.000000 0.000000 0.000000 0.061996 0.000000 0.000000
# 5 0.000000 0.000000 0.000000 0.000000 0.063283 0.000000
# 6 0.000000 0.000000 0.000000 0.000000 0.000000 0.030784
#
#
# Mechanical properties :
#
#
# Convention : Reuss Voigt Hill
#
# Bulk Modulus (GPa) = 37.95080 62.57673 50.26376
# Shear Modulus (GPa) = 21.25230 26.08116 23.66673
#
# Velocity S-wave (km/s) = 3.43680 3.80728 3.62678
# Velocity P-wave (km/s) = 6.06969 7.35569 6.74341
#
# Compressibility (1/GPa) = 0.02634991
#
# Stress axis : x y z
#
# Youngs Moduli (GPa) = 69.11587 105.66018 40.89412
#
# Poissons Ratio (x) = 0.66234 0.00356
# Poissons Ratio (y) = 0.43326 0.19067
# Poissons Ratio (z) = 0.00602 0.49264
#
# Static dielectric constant tensor:
#      x y z
#    x 3.391330 0.000000 0.000000 
#    y 0.000000 3.638650 0.000000 
#    z 0.000000 0.000000 2.820370 
# 
# 
# High freq. dielectric constant tensor:
#      x y z
#    x 1.714050 0.000000 0.000000 
#    y 0.000000 1.701760 0.000000 
#    z 0.000000 0.000000 1.643500 
# 
# From -- ./inp_files/36691.got.cif
#   From: 2010.03.12/outbox.cif.g09.slc.cpg/sg64_19_cif.got.tgz:36691.got - 2010.04.10 20:19:32.
