data_PCOD8264971
_publ_section_title
;
Structure prediction by ZEFSAII (Michael W. Deem and Ramdas Pophale) SiO2 
 PCOD8264971
Probable space group: C M C A
;
_chemical_formula_sum "Si O2"
_cell_formula_units_Z 88
_cell_length_a 14.250268
_cell_length_b 10.693321
_cell_length_c 31.083548
_cell_angle_alpha 90.000000
_cell_angle_beta 90.000000
_cell_angle_gamma 90.000000
_cell_volume 4736.594661
_symmetry_space_group_name_H-M "C M C A"
_symmetry_group_IT_number 64
_symmetry_cell_setting 'orthorhombic'
loop_
_space_group_symop_operation_xyz
x,y,z
-x,1/2-y,1/2+z
x,-y,-z
-x,1/2+y,1/2-z
-x,-y,-z
x,1/2+y,1/2-z
-x,y,z
x,1/2-y,1/2+z
1/2+x,1/2+y,z
1/2-x,-y,1/2+z
1/2+x,1/2-y,-z
1/2-x,y,1/2-z
1/2-x,1/2-y,-z
1/2+x,y,1/2-z
1/2-x,1/2+y,z
1/2+x,-y,1/2+z
loop_
_atom_site_type_symbol
_atom_site_label
_atom_site_fract_x
_atom_site_fract_y
_atom_site_fract_z
Si Si1 0.890686 0.237052 0.592413
Si Si2 0.398089 0.244262 0.812701
Si Si3 0.897138 0.535128 0.684405
Si Si4 0.257149 0.876270 0.027266
Si Si5 0.750000 0.861137 0.250000
Si Si6 0.890177 0.522115 0.589101
O O1 0.870212 0.187618 0.640954
O O2 0.840788 0.139572 0.561156
O O3 0.853220 0.378963 0.585650
O O4 0.000000 0.232814 0.582184
O O5 0.500000 0.189022 0.797699
O O6 0.411437 0.389269 0.820227
O O7 0.317932 0.224233 0.777906
O O8 0.815731 0.557919 0.718981
O O9 0.868778 0.581483 0.636494
O O10 0.000000 0.592738 0.697732
O O11 0.160289 0.894453 0.053174
O O12 0.250000 0.750000 0.000000
O O13 0.280203 0.000000 0.000000
O O14 0.000000 0.528313 0.579314
#
# Coordination Sequence:
#
# PCOD8264971 Si02
#       6
#    16  16  16  16   8  16
#     4   9  19  38  58  76 107 151 187 222 275 332
#     4   9  19  34  52  75 106 144 182 218 266 326
#     4   9  19  34  52  76 106 143 185 220 258 323
#     4  12  23  36  57  90 114 137 181 233 281 330
#     4  12  18  28  52  84 110 136 174 228 278 306
#     4   9  19  38  59  76 105 152 193 220 264 335
#
# _framework density 18.578748000000001
#
# number of rings (size 3 to 8) (size 9 to 14) (size 15 to 20)
#    0.000    2.182    1.818    4.364    0.000    1.455 
#    0.000    0.000    0.000    0.000    0.000    0.000 
#    0.000    0.000    0.000    0.000    0.000    0.000 
#
# Total GULP energy -545287.555395 kJ/mol
# GULP energy per Si atom -12392.898986 kJ/mol
# Density = 1.853646 g / cm^3
# Si number density = 18.578748 Si / 1000 Ang^3
#
#
#
# Elastic Constant Matrix: (Units=GPa)
#
#
# Indices 1 2 3 4 5 6 
#
# 1 107.8332 34.5689 77.8512 0.0000 0.0000 0.0000
# 2 34.5689 62.5576 48.6475 0.0000 0.0000 0.0000
# 3 77.8512 48.6475 133.1445 0.0000 0.0000 0.0000
# 4 0.0000 0.0000 0.0000 28.5071 0.0000 0.0000
# 5 0.0000 0.0000 0.0000 0.0000 -225.1196 0.0000
# 6 0.0000 0.0000 0.0000 0.0000 0.0000 26.3588
#
#
#
# Elastic Compliance Matrix: (Units=1/GPa)
#
#
# Indices 1 2 3 4 5 6 
#
# 1 0.016267 -0.002224 -0.008699 0.000000 0.000000 0.000000
# 2 -0.002224 0.022634 -0.006969 0.000000 0.000000 0.000000
# 3 -0.008699 -0.006969 0.015143 0.000000 0.000000 0.000000
# 4 0.000000 0.000000 0.000000 0.035079 0.000000 0.000000
# 5 0.000000 0.000000 0.000000 0.000000 -0.004442 0.000000
# 6 0.000000 0.000000 0.000000 0.000000 0.000000 0.037938
#
#
# Mechanical properties :
#
#
# Convention : Reuss Voigt Hill
#
# Bulk Modulus (GPa) = 54.76631 69.51893 62.14262
# Shear Modulus (GPa) = 30.39701 -24.55289 2.92206
#
# Velocity S-wave (km/s) = 4.04928 -3.63927 1.25547
# Velocity P-wave (km/s) = 7.16967 4.45429 5.96846
#
# Compressibility (1/GPa) = 0.01825940
#
# Stress axis : x y z
#
# Youngs Moduli (GPa) = 61.47513 44.18123 66.03637
#
# Poissons Ratio (x) = 0.09828 0.57442
# Poissons Ratio (y) = 0.13675 0.46022
# Poissons Ratio (z) = 0.53475 0.30791
#
# Static dielectric constant tensor:
#      x y z
#    x 3.758030 0.000000 0.000000 
#    y 0.000000 3.108930 0.000000 
#    z 0.000000 0.000000 3.653260 
# 
# 
# High freq. dielectric constant tensor:
#      x y z
#    x 1.727690 0.000000 0.000000 
#    y 0.000000 1.686430 0.000000 
#    z 0.000000 0.000000 1.737570 
# 
# From -- ./inp_files/52664.got.cif
#   From: 2010.03.12/outbox.cif.g09.slc.cpg/sg64_27_cif.got.tgz:52664.got - 2010.04.10 20:19:32.
