data_PCOD8264677
_publ_section_title
;
Structure prediction by ZEFSAII (Michael W. Deem and Ramdas Pophale) SiO2 
 PCOD8264677
Probable space group: C M C A
;
_chemical_formula_sum "Si O2"
_cell_formula_units_Z 64
_cell_length_a 7.553210
_cell_length_b 15.601091
_cell_length_c 27.492451
_cell_angle_alpha 90.000000
_cell_angle_beta 90.000000
_cell_angle_gamma 90.000000
_cell_volume 3239.664144
_symmetry_space_group_name_H-M "C M C A"
_symmetry_group_IT_number 64
_symmetry_cell_setting 'orthorhombic'
loop_
_space_group_symop_operation_xyz
x,y,z
-x,1/2-y,1/2+z
x,-y,-z
-x,1/2+y,1/2-z
-x,-y,-z
x,1/2+y,1/2-z
-x,y,z
x,1/2-y,1/2+z
1/2+x,1/2+y,z
1/2-x,-y,1/2+z
1/2+x,1/2-y,-z
1/2-x,y,1/2-z
1/2-x,1/2-y,-z
1/2+x,y,1/2-z
1/2-x,1/2+y,z
1/2+x,-y,1/2+z
loop_
_atom_site_type_symbol
_atom_site_label
_atom_site_fract_x
_atom_site_fract_y
_atom_site_fract_z
Si Si1 0.296742 0.840766 0.126692
Si Si2 0.500000 0.398823 0.055115
Si Si3 0.000000 0.101238 0.053511
Si Si4 0.805664 0.844344 0.859069
Si Si5 0.292076 0.992340 0.306317
O O1 0.500000 0.827586 0.108837
O O2 0.216034 0.749414 0.145746
O O3 0.178791 0.870214 0.081647
O O4 0.295800 0.908715 0.170336
O O5 0.500000 0.499861 0.052186
O O6 0.500000 0.359577 0.000653
O O7 0.174981 0.132166 0.083297
O O8 0.706241 0.921451 0.830452
O O9 0.000000 0.837660 0.834419
O O10 0.500000 0.987682 0.317879
O O11 0.250000 0.992663 0.250000
#
# Coordination Sequence:
#
# PCOD8264677 Si02
#       5
#    16   8   8  16  16
#     4  11  21  39  61  89 124 155 197 250 289 357
#     4  11  20  38  68  84 118 168 198 239 308 345
#     4   9  18  40  64  82 124 164 192 251 300 345
#     4   8  18  38  58  83 123 154 192 247 294 348
#     4  11  21  40  61  86 119 158 199 249 303 355
#
# _framework density 19.755134000000002
#
# number of rings (size 3 to 8) (size 9 to 14) (size 15 to 20)
#    0.750    1.250    3.750    0.750    0.000    2.000 
#    4.500    5.000    0.000    0.000    0.000    0.000 
#    0.000    0.000    0.000    0.000    0.000    0.000 
#
# Total GULP energy -396477.473372 kJ/mol
# GULP energy per Si atom -12389.921043 kJ/mol
# Density = 1.971017 g / cm^3
# Si number density = 19.755134 Si / 1000 Ang^3
#
#
#
# Elastic Constant Matrix: (Units=GPa)
#
#
# Indices 1 2 3 4 5 6 
#
# 1 60.2060 15.2984 17.1887 0.0000 0.0000 0.0000
# 2 15.2984 177.7679 78.0163 0.0000 0.0000 0.0000
# 3 17.1887 78.0163 157.4820 0.0000 0.0000 0.0000
# 4 0.0000 0.0000 0.0000 13.4009 0.0000 0.0000
# 5 0.0000 0.0000 0.0000 0.0000 23.8942 0.0000
# 6 0.0000 0.0000 0.0000 0.0000 0.0000 -36.3302
#
#
#
# Elastic Compliance Matrix: (Units=1/GPa)
#
#
# Indices 1 2 3 4 5 6 
#
# 1 0.017242 -0.000841 -0.001465 0.000000 0.000000 0.000000
# 2 -0.000841 0.007229 -0.003490 0.000000 0.000000 0.000000
# 3 -0.001465 -0.003490 0.008239 0.000000 0.000000 0.000000
# 4 0.000000 0.000000 0.000000 0.074622 0.000000 0.000000
# 5 0.000000 0.000000 0.000000 0.000000 0.041851 0.000000
# 6 0.000000 0.000000 0.000000 0.000000 0.000000 -0.027525
#
#
# Mechanical properties :
#
#
# Convention : Reuss Voigt Hill
#
# Bulk Modulus (GPa) = 47.35273 68.49585 57.92429
# Shear Modulus (GPa) = 35.64110 19.18982 27.41546
#
# Velocity S-wave (km/s) = 4.25213 3.12008 3.72931
# Velocity P-wave (km/s) = 6.93753 6.90852 6.92304
#
# Compressibility (1/GPa) = 0.02111811
#
# Stress axis : x y z
#
# Youngs Moduli (GPa) = 57.99916 138.32997 121.38016
#
# Poissons Ratio (x) = 0.11629 0.17787
# Poissons Ratio (y) = 0.04876 0.42356
# Poissons Ratio (z) = 0.08499 0.48271
#
# Static dielectric constant tensor:
#      x y z
#    x 3.365270 0.000000 0.000000 
#    y 0.000000 3.920790 0.000000 
#    z 0.000000 0.000000 3.681730 
# 
# 
# High freq. dielectric constant tensor:
#      x y z
#    x 1.738110 0.000000 0.000000 
#    y 0.000000 1.792870 0.000000 
#    z 0.000000 0.000000 1.756060 
# 
# From -- ./inp_files/51632.got.cif
#   From: 2010.03.12/outbox.cif.g09.slc.cpg/sg64_26_cif.got.tgz:51632.got - 2010.04.10 20:19:32.
