data_PCOD8264126
_publ_section_title
;
Structure prediction by ZEFSAII (Michael W. Deem and Ramdas Pophale) SiO2 
 PCOD8264126
Probable space group: C M C A
;
_chemical_formula_sum "Si O2"
_cell_formula_units_Z 96
_cell_length_a 14.397082
_cell_length_b 20.407274
_cell_length_c 15.044555
_cell_angle_alpha 90.000000
_cell_angle_beta 90.000000
_cell_angle_gamma 90.000000
_cell_volume 4420.168448
_symmetry_space_group_name_H-M "C M C A"
_symmetry_group_IT_number 64
_symmetry_cell_setting 'orthorhombic'
loop_
_space_group_symop_operation_xyz
x,y,z
-x,1/2-y,1/2+z
x,-y,-z
-x,1/2+y,1/2-z
-x,-y,-z
x,1/2+y,1/2-z
-x,y,z
x,1/2-y,1/2+z
1/2+x,1/2+y,z
1/2-x,-y,1/2+z
1/2+x,1/2-y,-z
1/2-x,y,1/2-z
1/2-x,1/2-y,-z
1/2+x,y,1/2-z
1/2-x,1/2+y,z
1/2+x,-y,1/2+z
loop_
_atom_site_type_symbol
_atom_site_label
_atom_site_fract_x
_atom_site_fract_y
_atom_site_fract_z
Si Si1 0.895358 0.146883 0.622634
Si Si2 0.897294 0.428959 0.461942
Si Si3 0.730733 0.856869 0.951724
Si Si4 0.324689 0.224135 0.317459
Si Si5 0.391271 0.400537 0.709439
Si Si6 0.109526 0.455928 0.266886
O O1 0.831312 0.154108 0.537395
O O2 0.899516 0.218470 0.668917
O O3 0.853005 0.091648 0.688695
O O4 0.000000 0.127767 0.594548
O O5 0.912964 0.500000 0.500000
O O6 0.824817 0.394503 0.525742
O O7 0.854654 0.430852 0.362319
O O8 0.000000 0.394070 0.463706
O O9 0.767899 0.789521 0.908668
O O10 0.667978 0.894848 0.880104
O O11 0.250000 0.253515 0.250000
O O12 0.370351 0.157490 0.279272
O O13 0.500000 0.400213 0.685109
O O14 0.358994 0.469229 0.752165
O O15 0.000000 0.451800 0.268322
#
# Coordination Sequence:
#
# PCOD8264126 Si02
#       6
#    16  16  16  16  16  16
#     4  11  24  42  64  95 133 170 214 269 331 388
#     4  10  22  40  62  93 129 168 219 268 314 378
#     4  11  24  39  63  99 128 165 218 264 326 383
#     4  10  23  42  63  91 126 174 223 261 312 389
#     4  10  21  43  69  93 131 171 212 263 321 391
#     4   9  21  40  64  94 125 169 217 257 318 388
#
# _framework density 21.718630999999998
#
# number of rings (size 3 to 8) (size 9 to 14) (size 15 to 20)
#    0.000    1.833    0.000    2.500    4.667    2.667 
#    0.000    2.500    0.000    0.000    0.000    0.000 
#    0.000    0.000    0.000    0.000    0.000    0.000 
#
# Total GULP energy -594981.141615 kJ/mol
# GULP energy per Si atom -12395.440450 kJ/mol
# Density = 2.166920 g / cm^3
# Si number density = 21.718631 Si / 1000 Ang^3
#
#
#
# Elastic Constant Matrix: (Units=GPa)
#
#
# Indices 1 2 3 4 5 6 
#
# 1 109.3126 20.4162 40.7420 0.0000 0.0000 0.0000
# 2 20.4162 92.1771 38.8999 0.0000 0.0000 0.0000
# 3 40.7420 38.8999 123.0876 0.0000 0.0000 0.0000
# 4 0.0000 0.0000 0.0000 9.8577 0.0000 0.0000
# 5 0.0000 0.0000 0.0000 0.0000 44.9184 0.0000
# 6 0.0000 0.0000 0.0000 0.0000 0.0000 12.0169
#
#
#
# Elastic Compliance Matrix: (Units=1/GPa)
#
#
# Indices 1 2 3 4 5 6 
#
# 1 0.010514 -0.000992 -0.003166 0.000000 0.000000 0.000000
# 2 -0.000992 0.012612 -0.003657 0.000000 0.000000 0.000000
# 3 -0.003166 -0.003657 0.010328 0.000000 0.000000 0.000000
# 4 0.000000 0.000000 0.000000 0.101444 0.000000 0.000000
# 5 0.000000 0.000000 0.000000 0.000000 0.022263 0.000000
# 6 0.000000 0.000000 0.000000 0.000000 0.000000 0.083216
#
#
# Mechanical properties :
#
#
# Convention : Reuss Voigt Hill
#
# Bulk Modulus (GPa) = 56.11187 58.29928 57.20557
# Shear Modulus (GPa) = 19.08772 28.32654 23.70713
#
# Velocity S-wave (km/s) = 2.96778 3.61536 3.30746
# Velocity P-wave (km/s) = 6.13478 6.65800 6.40174
#
# Compressibility (1/GPa) = 0.01782154
#
# Stress axis : x y z
#
# Youngs Moduli (GPa) = 95.11523 79.29004 96.82232
#
# Poissons Ratio (x) = 0.07869 0.30657
# Poissons Ratio (y) = 0.09439 0.35411
# Poissons Ratio (z) = 0.30117 0.28999
#
# Static dielectric constant tensor:
#      x y z
#    x 3.970500 0.000000 0.000000 
#    y 0.000000 3.826230 0.000000 
#    z 0.000000 0.000000 3.743580 
# 
# 
# High freq. dielectric constant tensor:
#      x y z
#    x 1.862940 0.000000 0.000000 
#    y 0.000000 1.841440 0.000000 
#    z 0.000000 0.000000 1.864390 
# 
# From -- ./inp_files/23864.got.cif
#   From: 2010.03.12/outbox.cif.g09.slc.cpg/sg64_12_cif.got.tgz:23864.got - 2010.04.10 20:19:32.
