data_PCOD8264438
_publ_section_title
;
Structure prediction by ZEFSAII (Michael W. Deem and Ramdas Pophale) SiO2 
 PCOD8264438
Probable space group: C M C A
;
_chemical_formula_sum "Si O2"
_cell_formula_units_Z 96
_cell_length_a 26.222858
_cell_length_b 19.916495
_cell_length_c 8.539411
_cell_angle_alpha 90.000000
_cell_angle_beta 90.000000
_cell_angle_gamma 90.000000
_cell_volume 4459.856153
_symmetry_space_group_name_H-M "C M C A"
_symmetry_group_IT_number 64
_symmetry_cell_setting 'orthorhombic'
loop_
_space_group_symop_operation_xyz
x,y,z
-x,1/2-y,1/2+z
x,-y,-z
-x,1/2+y,1/2-z
-x,-y,-z
x,1/2+y,1/2-z
-x,y,z
x,1/2-y,1/2+z
1/2+x,1/2+y,z
1/2-x,-y,1/2+z
1/2+x,1/2-y,-z
1/2-x,y,1/2-z
1/2-x,1/2-y,-z
1/2+x,y,1/2-z
1/2-x,1/2+y,z
1/2+x,-y,1/2+z
loop_
_atom_site_type_symbol
_atom_site_label
_atom_site_fract_x
_atom_site_fract_y
_atom_site_fract_z
Si Si1 0.116453 0.975116 0.334092
Si Si2 0.107051 0.268013 0.817970
Si Si3 0.056066 0.061162 0.116700
Si Si4 0.058983 0.661200 0.902661
Si Si5 0.290362 0.944761 0.381510
Si Si6 0.356123 0.840907 0.541735
O O1 0.092359 0.901278 0.343339
O O2 0.160701 0.975467 0.204988
O O3 0.138495 0.000000 0.500000
O O4 0.076216 0.032210 0.282105
O O5 0.069720 0.225708 0.705842
O O6 0.147748 0.311677 0.717400
O O7 0.072964 0.319430 0.919135
O O8 0.141425 0.220600 0.923115
O O9 0.091732 0.116287 0.035358
O O10 0.000000 0.093030 0.143648
O O11 0.052427 0.000000 0.000000
O O12 0.000000 0.641078 0.891638
O O13 0.250000 0.921808 0.250000
O O14 0.306325 0.882518 0.491642
O O15 0.267006 0.000000 0.500000
#
# Coordination Sequence:
#
# PCOD8264438 Si02
#       6
#    16  16  16  16  16  16
#     4  12  23  39  63  97 135 167 215 277 332 392
#     4  10  23  38  63  89 132 183 221 261 309 370
#     4  11  21  37  64  94 135 182 216 260 331 394
#     4  11  22  37  60  95 136 180 228 264 308 381
#     4  12  25  48  72  99 121 161 213 277 348 406
#     4  11  21  44  64  92 133 169 221 266 320 385
#
# _framework density 21.525359000000002
#
# number of rings (size 3 to 8) (size 9 to 14) (size 15 to 20)
#    0.000    0.833    5.000    2.500    0.000    8.000 
#    0.000    0.833    0.000    0.000    0.000    0.000 
#    0.000    0.000    0.000    0.000    0.000    0.000 
#
# Total GULP energy -595284.717709 kJ/mol
# GULP energy per Si atom -12401.764952 kJ/mol
# Density = 2.147637 g / cm^3
# Si number density = 21.525359 Si / 1000 Ang^3
#
#
#
# Elastic Constant Matrix: (Units=GPa)
#
#
# Indices 1 2 3 4 5 6 
#
# 1 79.2374 31.6077 27.1775 0.0000 0.0000 0.0000
# 2 31.6077 85.1625 26.2992 0.0000 0.0000 0.0000
# 3 27.1775 26.2992 112.7431 0.0000 0.0000 0.0000
# 4 0.0000 0.0000 0.0000 44.4141 0.0000 0.0000
# 5 0.0000 0.0000 0.0000 0.0000 30.9709 0.0000
# 6 0.0000 0.0000 0.0000 0.0000 0.0000 27.8034
#
#
#
# Elastic Compliance Matrix: (Units=1/GPa)
#
#
# Indices 1 2 3 4 5 6 
#
# 1 0.015478 -0.004949 -0.002577 0.000000 0.000000 0.000000
# 2 -0.004949 0.014236 -0.002128 0.000000 0.000000 0.000000
# 3 -0.002577 -0.002128 0.009987 0.000000 0.000000 0.000000
# 4 0.000000 0.000000 0.000000 0.022515 0.000000 0.000000
# 5 0.000000 0.000000 0.000000 0.000000 0.032288 0.000000
# 6 0.000000 0.000000 0.000000 0.000000 0.000000 0.035967
#
#
# Mechanical properties :
#
#
# Convention : Reuss Voigt Hill
#
# Bulk Modulus (GPa) = 49.03267 49.70132 49.36700
# Shear Modulus (GPa) = 31.93309 33.44158 32.68734
#
# Velocity S-wave (km/s) = 3.85582 3.94584 3.90109
# Velocity P-wave (km/s) = 6.53082 6.62565 6.57841
#
# Compressibility (1/GPa) = 0.02039457
#
# Stress axis : x y z
#
# Youngs Moduli (GPa) = 64.60689 70.24376 100.12809
#
# Poissons Ratio (x) = 0.34763 0.25800
# Poissons Ratio (y) = 0.31974 0.21306
# Poissons Ratio (z) = 0.16647 0.14947
#
# Static dielectric constant tensor:
#      x y z
#    x 3.642370 0.000000 0.000000 
#    y 0.000000 4.061380 0.000000 
#    z 0.000000 0.000000 4.227330 
# 
# 
# High freq. dielectric constant tensor:
#      x y z
#    x 1.805300 0.000000 0.000000 
#    y 0.000000 1.854480 0.000000 
#    z 0.000000 0.000000 1.869330 
# 
# From -- ./inp_files/10370.got.cif
#   From: 2010.03.12/outbox.cif.g09.slc.cpg/sg64_6_cif.got.tgz:10370.got - 2010.04.10 20:19:32.
