data_PCOD8264330
_publ_section_title
;
Structure prediction by ZEFSAII (Michael W. Deem and Ramdas Pophale) SiO2 
 PCOD8264330
Probable space group: C M C A
;
_chemical_formula_sum "Si O2"
_cell_formula_units_Z 112
_cell_length_a 27.316429
_cell_length_b 14.258250
_cell_length_c 14.322701
_cell_angle_alpha 90.000000
_cell_angle_beta 90.000000
_cell_angle_gamma 90.000000
_cell_volume 5578.469662
_symmetry_space_group_name_H-M "C M C A"
_symmetry_group_IT_number 64
_symmetry_cell_setting 'orthorhombic'
loop_
_space_group_symop_operation_xyz
x,y,z
-x,1/2-y,1/2+z
x,-y,-z
-x,1/2+y,1/2-z
-x,-y,-z
x,1/2+y,1/2-z
-x,y,z
x,1/2-y,1/2+z
1/2+x,1/2+y,z
1/2-x,-y,1/2+z
1/2+x,1/2-y,-z
1/2-x,y,1/2-z
1/2-x,1/2-y,-z
1/2+x,y,1/2-z
1/2-x,1/2+y,z
1/2+x,-y,1/2+z
loop_
_atom_site_type_symbol
_atom_site_label
_atom_site_fract_x
_atom_site_fract_y
_atom_site_fract_z
Si Si1 0.275477 0.149927 0.497470
Si Si2 0.375542 0.739601 0.035331
Si Si3 0.943739 0.944030 0.245590
Si Si4 0.944133 0.239618 0.862623
Si Si5 0.367462 0.945023 0.090746
Si Si6 0.761198 0.502440 0.858936
Si Si7 0.445080 0.145397 0.316993
O O1 0.250000 0.250000 0.500000
O O2 0.333605 0.166074 0.492209
O O3 0.257950 0.093303 0.405998
O O4 0.264071 0.091577 0.591276
O O5 0.410207 0.762531 0.949114
O O6 0.352634 0.837813 0.068555
O O7 0.406573 0.695855 0.118348
O O8 0.926380 0.856643 0.184352
O O9 0.911668 0.950132 0.337630
O O10 0.000000 0.932239 0.277917
O O11 0.936817 0.034134 0.179595
O O12 0.937612 0.323789 0.789813
O O13 0.000000 0.230860 0.897229
O O14 0.319496 0.995677 0.130365
O O15 0.385884 0.000000 0.000000
O O16 0.750000 0.502927 0.750000
O O17 0.500000 0.171720 0.350417
#
# Coordination Sequence:
#
# PCOD8264330 Si02
#       7
#    16  16  16  16  16  16  16
#     4  11  24  47  63  98 134 163 222 277 327 395
#     4  12  24  39  70  96 128 179 213 269 331 390
#     4  10  23  40  64  96 134 173 214 266 321 390
#     4  10  22  41  63  96 137 171 216 264 316 388
#     4  12  23  44  68  95 130 168 224 275 323 390
#     4  11  26  45  68  94 129 175 215 281 332 390
#     4  10  22  41  63  98 138 171 218 268 318 388
#
# _framework density 20.077192
#
# number of rings (size 3 to 8) (size 9 to 14) (size 15 to 20)
#    0.000    1.143    4.286    1.286    4.000    3.143 
#    0.000    2.143    0.000    0.000    0.000    0.000 
#    0.000    0.000    0.000    0.000    0.000    0.000 
#
# Total GULP energy -694664.194993 kJ/mol
# GULP energy per Si atom -12404.717768 kJ/mol
# Density = 2.003150 g / cm^3
# Si number density = 20.077192 Si / 1000 Ang^3
#
#
#
# Elastic Constant Matrix: (Units=GPa)
#
#
# Indices 1 2 3 4 5 6 
#
# 1 96.4133 20.4975 42.3687 0.0000 0.0000 0.0000
# 2 20.4975 102.0409 21.4881 0.0000 0.0000 0.0000
# 3 42.3687 21.4881 108.6844 0.0000 0.0000 0.0000
# 4 0.0000 0.0000 0.0000 21.2897 0.0000 0.0000
# 5 0.0000 0.0000 0.0000 0.0000 -10.4159 0.0000
# 6 0.0000 0.0000 0.0000 0.0000 0.0000 -35.3855
#
#
#
# Elastic Compliance Matrix: (Units=1/GPa)
#
#
# Indices 1 2 3 4 5 6 
#
# 1 0.012756 -0.001581 -0.004660 0.000000 0.000000 0.000000
# 2 -0.001581 0.010422 -0.001444 0.000000 0.000000 0.000000
# 3 -0.004660 -0.001444 0.011303 0.000000 0.000000 0.000000
# 4 0.000000 0.000000 0.000000 0.046971 0.000000 0.000000
# 5 0.000000 0.000000 0.000000 0.000000 -0.096007 0.000000
# 6 0.000000 0.000000 0.000000 0.000000 0.000000 -0.028260
#
#
# Mechanical properties :
#
#
# Convention : Reuss Voigt Hill
#
# Bulk Modulus (GPa) = 52.32790 52.87191 52.59990
# Shear Modulus (GPa) = -237.25455 9.94993 -113.65231
#
# Velocity S-wave (km/s) = -10.88245 2.22859 -7.53197
# Velocity P-wave (km/s) = 11.47971 5.74575 7.02745
#
# Compressibility (1/GPa) = 0.01911027
#
# Stress axis : x y z
#
# Youngs Moduli (GPa) = 78.39431 95.95365 88.47094
#
# Poissons Ratio (x) = 0.15171 0.41229
# Poissons Ratio (y) = 0.12394 0.12776
# Poissons Ratio (z) = 0.36533 0.13857
#
# Static dielectric constant tensor:
#      x y z
#    x 3.704630 0.000000 0.000000 
#    y 0.000000 3.922690 0.000000 
#    z 0.000000 0.000000 3.566930 
# 
# 
# High freq. dielectric constant tensor:
#      x y z
#    x 1.792200 0.000000 0.000000 
#    y 0.000000 1.800760 0.000000 
#    z 0.000000 0.000000 1.777960 
# 
# From -- ./inp_files/28103.got.cif
#   From: 2010.03.12/outbox.cif.g09.slc.cpg/sg64_15_cif.got.tgz:28103.got - 2010.04.10 20:19:32.
