data_PCOD8264367
_publ_section_title
;
Structure prediction by ZEFSAII (Michael W. Deem and Ramdas Pophale) SiO2 
 PCOD8264367
Probable space group: C M C A
;
_chemical_formula_sum "Si O2"
_cell_formula_units_Z 104
_cell_length_a 27.658205
_cell_length_b 21.681162
_cell_length_c 8.818729
_cell_angle_alpha 90.000000
_cell_angle_beta 90.000000
_cell_angle_gamma 90.000000
_cell_volume 5288.256874
_symmetry_space_group_name_H-M "C M C A"
_symmetry_group_IT_number 64
_symmetry_cell_setting 'orthorhombic'
loop_
_space_group_symop_operation_xyz
x,y,z
-x,1/2-y,1/2+z
x,-y,-z
-x,1/2+y,1/2-z
-x,-y,-z
x,1/2+y,1/2-z
-x,y,z
x,1/2-y,1/2+z
1/2+x,1/2+y,z
1/2-x,-y,1/2+z
1/2+x,1/2-y,-z
1/2-x,y,1/2-z
1/2-x,1/2-y,-z
1/2+x,y,1/2-z
1/2-x,1/2+y,z
1/2+x,-y,1/2+z
loop_
_atom_site_type_symbol
_atom_site_label
_atom_site_fract_x
_atom_site_fract_y
_atom_site_fract_z
Si Si1 0.096092 0.663443 0.933854
Si Si2 0.669003 0.668438 0.082791
Si Si3 0.000000 0.911580 0.421920
Si Si4 0.750000 0.886390 0.750000
Si Si5 0.897667 0.553302 0.382768
Si Si6 0.000000 0.034548 0.242908
Si Si7 0.129361 0.753052 0.167555
Si Si8 0.158471 0.060441 0.410768
O O1 0.046804 0.629450 0.902025
O O2 0.106612 0.695174 0.773263
O O3 0.090249 0.717182 0.061459
O O4 0.138402 0.615612 0.982709
O O5 0.724662 0.648959 0.108694
O O6 0.628512 0.615269 0.056941
O O7 0.656690 0.700801 0.240881
O O8 0.668426 0.714358 0.941630
O O9 0.000000 0.934735 0.593131
O O10 0.000000 0.961791 0.285615
O O11 0.792249 0.925043 0.674477
O O12 0.882800 0.500000 0.500000
O O13 0.880968 0.539575 0.212080
O O14 0.955600 0.556460 0.363546
O O15 0.171313 0.000000 0.500000
#
# Coordination Sequence:
#
# PCOD8264367 Si02
#       8
#    16  16   8   8  16   8  16  16
#     4  11  22  43  63  96 122 175 205 267 308 377
#     4  10  22  42  63  92 123 168 204 267 313 374
#     4  11  22  36  68  92 128 162 223 248 310 374
#     4  10  22  42  64  96 126 160 214 266 318 376
#     4  11  23  39  64  93 130 162 205 265 315 372
#     4  11  21  38  60  98 124 168 206 256 312 385
#     4  10  22  42  66  86 128 164 215 250 323 367
#     4  11  23  43  66  91 130 164 207 259 324 374
#
# _framework density 19.666217
#
# number of rings (size 3 to 8) (size 9 to 14) (size 15 to 20)
#    0.000    1.385    4.615    1.154    4.308    3.692 
#    0.000    3.077    0.000    0.000    0.000    0.000 
#    0.000    0.000    0.000    0.000    0.000    0.000 
#
# Total GULP energy -644409.783530 kJ/mol
# GULP energy per Si atom -12392.495837 kJ/mol
# Density = 1.962146 g / cm^3
# Si number density = 19.666217 Si / 1000 Ang^3
#
#
#
# Elastic Constant Matrix: (Units=GPa)
#
#
# Indices 1 2 3 4 5 6 
#
# 1 125.6872 47.0966 19.3932 0.0000 0.0000 0.0000
# 2 47.0966 107.7154 39.6088 0.0000 0.0000 0.0000
# 3 19.3932 39.6088 69.7803 0.0000 0.0000 0.0000
# 4 0.0000 0.0000 0.0000 36.8270 0.0000 0.0000
# 5 0.0000 0.0000 0.0000 0.0000 18.3047 0.0000
# 6 0.0000 0.0000 0.0000 0.0000 0.0000 12.0409
#
#
#
# Elastic Compliance Matrix: (Units=1/GPa)
#
#
# Indices 1 2 3 4 5 6 
#
# 1 0.009522 -0.004032 -0.000358 0.000000 0.000000 0.000000
# 2 -0.004032 0.013440 -0.006508 0.000000 0.000000 0.000000
# 3 -0.000358 -0.006508 0.018124 0.000000 0.000000 0.000000
# 4 0.000000 0.000000 0.000000 0.027154 0.000000 0.000000
# 5 0.000000 0.000000 0.000000 0.000000 0.054631 0.000000
# 6 0.000000 0.000000 0.000000 0.000000 0.000000 0.083050
#
#
# Mechanical properties :
#
#
# Convention : Reuss Voigt Hill
#
# Bulk Modulus (GPa) = 51.83868 57.26444 54.55156
# Shear Modulus (GPa) = 21.35409 26.57348 23.96379
#
# Velocity S-wave (km/s) = 3.29876 3.67989 3.49453
# Velocity P-wave (km/s) = 6.39731 6.87291 6.63937
#
# Compressibility (1/GPa) = 0.01929062
#
# Stress axis : x y z
#
# Youngs Moduli (GPa) = 105.01714 74.40622 55.17447
#
# Poissons Ratio (x) = 0.29999 0.01974
# Poissons Ratio (y) = 0.42341 0.35908
# Poissons Ratio (z) = 0.03758 0.48425
#
# Static dielectric constant tensor:
#      x y z
#    x 3.645100 0.000000 0.000000 
#    y 0.000000 3.788950 0.000000 
#    z 0.000000 0.000000 3.722910 
# 
# 
# High freq. dielectric constant tensor:
#      x y z
#    x 1.756800 0.000000 0.000000 
#    y 0.000000 1.776120 0.000000 
#    z 0.000000 0.000000 1.777510 
# 
# From -- ./inp_files/11240.got.cif
#   From: 2010.03.12/outbox.cif.g09.slc.cpg/sg64_6_cif.got.tgz:11240.got - 2010.04.10 20:19:32.
