data_PCOD8264178
_publ_section_title
;
Structure prediction by ZEFSAII (Michael W. Deem and Ramdas Pophale) SiO2 
 PCOD8264178
Probable space group: C M C A
;
_chemical_formula_sum "Si O2"
_cell_formula_units_Z 96
_cell_length_a 8.901036
_cell_length_b 20.369125
_cell_length_c 28.111086
_cell_angle_alpha 90.000000
_cell_angle_beta 90.000000
_cell_angle_gamma 90.000000
_cell_volume 5096.717411
_symmetry_space_group_name_H-M "C M C A"
_symmetry_group_IT_number 64
_symmetry_cell_setting 'orthorhombic'
loop_
_space_group_symop_operation_xyz
x,y,z
-x,1/2-y,1/2+z
x,-y,-z
-x,1/2+y,1/2-z
-x,-y,-z
x,1/2+y,1/2-z
-x,y,z
x,1/2-y,1/2+z
1/2+x,1/2+y,z
1/2-x,-y,1/2+z
1/2+x,1/2-y,-z
1/2-x,y,1/2-z
1/2-x,1/2-y,-z
1/2+x,y,1/2-z
1/2-x,1/2+y,z
1/2+x,-y,1/2+z
loop_
_atom_site_type_symbol
_atom_site_label
_atom_site_fract_x
_atom_site_fract_y
_atom_site_fract_z
Si Si1 0.822058 0.614328 0.343961
Si Si2 0.177719 0.435081 0.557241
Si Si3 0.676272 0.871627 0.136186
Si Si4 0.677554 0.083865 0.547049
Si Si5 0.323109 0.248479 0.300147
Si Si6 0.177183 0.978478 0.200637
O O1 0.756015 0.604485 0.397457
O O2 0.755407 0.680202 0.320457
O O3 0.775116 0.552928 0.311283
O O4 0.000000 0.620445 0.347319
O O5 0.234146 0.510078 0.558243
O O6 0.222539 0.399612 0.507698
O O7 0.000000 0.438546 0.560918
O O8 0.500000 0.884983 0.138637
O O9 0.732508 0.866682 0.081601
O O10 0.719869 0.804476 0.162334
O O11 0.763886 0.931948 0.159345
O O12 0.500000 0.091891 0.555208
O O13 0.500000 0.243412 0.292368
O O14 0.250000 0.266184 0.250000
O O15 0.250000 0.956502 0.250000
O O16 0.000000 0.970511 0.204421
#
# Coordination Sequence:
#
# PCOD8264178 Si02
#       6
#    16  16  16  16  16  16
#     4   9  17  33  56  79 102 134 176 218 260 307
#     4   8  14  28  54  83 105 131 174 217 257 311
#     4  11  22  35  51  76 109 142 175 213 262 316
#     4   9  16  30  55  82 105 135 176 217 257 307
#     4  10  22  38  55  74 102 142 179 214 261 314
#     4  11  21  34  55  79 103 132 173 224 268 310
#
# _framework density 18.835652
#
# number of rings (size 3 to 8) (size 9 to 14) (size 15 to 20)
#    0.000    2.333    1.667    3.000    0.000    2.667 
#    0.000    3.333    0.000    0.000    0.000    0.000 
#    0.000    0.000    0.000    0.000    0.000    0.000 
#
# Total GULP energy -595113.135052 kJ/mol
# GULP energy per Si atom -12398.190314 kJ/mol
# Density = 1.879278 g / cm^3
# Si number density = 18.835652 Si / 1000 Ang^3
#
#
#
# Elastic Constant Matrix: (Units=GPa)
#
#
# Indices 1 2 3 4 5 6 
#
# 1 39.7795 25.5767 23.9892 0.0000 0.0000 0.0000
# 2 25.5767 66.7304 11.0551 0.0000 0.0000 0.0000
# 3 23.9892 11.0551 106.9249 0.0000 0.0000 0.0000
# 4 0.0000 0.0000 0.0000 26.2647 0.0000 0.0000
# 5 0.0000 0.0000 0.0000 0.0000 25.1623 0.0000
# 6 0.0000 0.0000 0.0000 0.0000 0.0000 18.3691
#
#
#
# Elastic Compliance Matrix: (Units=1/GPa)
#
#
# Indices 1 2 3 4 5 6 
#
# 1 0.038075 -0.013408 -0.007156 0.000000 0.000000 0.000000
# 2 -0.013408 0.019968 0.000944 0.000000 0.000000 0.000000
# 3 -0.007156 0.000944 0.010860 0.000000 0.000000 0.000000
# 4 0.000000 0.000000 0.000000 0.038074 0.000000 0.000000
# 5 0.000000 0.000000 0.000000 0.000000 0.039742 0.000000
# 6 0.000000 0.000000 0.000000 0.000000 0.000000 0.054439
#
#
# Mechanical properties :
#
#
# Convention : Reuss Voigt Hill
#
# Bulk Modulus (GPa) = 33.71232 37.18632 35.44932
# Shear Modulus (GPa) = 19.97703 24.14679 22.06191
#
# Velocity S-wave (km/s) = 3.26021 3.58435 3.42612
# Velocity P-wave (km/s) = 5.66648 6.07581 5.87471
#
# Compressibility (1/GPa) = 0.02966274
#
# Stress axis : x y z
#
# Youngs Moduli (GPa) = 26.26397 50.07900 92.07846
#
# Poissons Ratio (x) = 0.67146 0.65892
# Poissons Ratio (y) = 0.35215 -0.08689
# Poissons Ratio (z) = 0.18795 -0.04725
#
# Static dielectric constant tensor:
#      x y z
#    x 3.072470 0.000000 0.000000 
#    y 0.000000 3.488600 0.000000 
#    z 0.000000 0.000000 3.858310 
# 
# 
# High freq. dielectric constant tensor:
#      x y z
#    x 1.696450 0.000000 0.000000 
#    y 0.000000 1.713680 0.000000 
#    z 0.000000 0.000000 1.752710 
# 
# From -- ./inp_files/48085.got.cif
#   From: 2010.03.12/outbox.cif.g09.slc.cpg/sg64_25_cif.got.tgz:48085.got - 2010.04.10 20:19:32.
