data_PCOD8264979
_publ_section_title
;
Structure prediction by ZEFSAII (Michael W. Deem and Ramdas Pophale) SiO2 
 PCOD8264979
Probable space group: C M C A
;
_chemical_formula_sum "Si O2"
_cell_formula_units_Z 88
_cell_length_a 22.792444
_cell_length_b 14.442708
_cell_length_c 12.286348
_cell_angle_alpha 90.000000
_cell_angle_beta 90.000000
_cell_angle_gamma 90.000000
_cell_volume 4044.476715
_symmetry_space_group_name_H-M "C M C A"
_symmetry_group_IT_number 64
_symmetry_cell_setting 'orthorhombic'
loop_
_space_group_symop_operation_xyz
x,y,z
-x,1/2-y,1/2+z
x,-y,-z
-x,1/2+y,1/2-z
-x,-y,-z
x,1/2+y,1/2-z
-x,y,z
x,1/2-y,1/2+z
1/2+x,1/2+y,z
1/2-x,-y,1/2+z
1/2+x,1/2-y,-z
1/2-x,y,1/2-z
1/2-x,1/2-y,-z
1/2+x,y,1/2-z
1/2-x,1/2+y,z
1/2+x,-y,1/2+z
loop_
_atom_site_type_symbol
_atom_site_label
_atom_site_fract_x
_atom_site_fract_y
_atom_site_fract_z
Si Si1 0.681717 0.838397 0.272176
Si Si2 0.500000 0.111499 0.859301
Si Si3 0.374452 0.849596 0.720368
Si Si4 0.617188 0.605241 0.985990
Si Si5 0.622068 0.021557 0.877995
Si Si6 0.000000 0.722159 0.523780
Si Si7 0.500000 0.780180 0.754973
O O1 0.750000 0.844658 0.250000
O O2 0.660590 0.732922 0.276853
O O3 0.663129 0.884831 0.386514
O O4 0.652995 0.887560 0.168117
O O5 0.553549 0.044769 0.883205
O O6 0.500000 0.164016 0.742485
O O7 0.500000 0.213214 0.918118
O O8 0.349950 0.865817 0.598322
O O9 0.443192 0.828392 0.702933
O O10 0.364494 0.937131 0.797927
O O11 0.596992 0.500000 0.000000
O O12 0.558929 0.663359 0.964568
O O13 0.644721 0.000000 0.000000
O O14 0.000000 0.801165 0.616830
#
# Coordination Sequence:
#
# PCOD8264979 Si02
#       7
#    16   8  16  16  16   8   8
#     4  12  29  50  72 100 138 193 249 297 353 421
#     4  12  22  42  68 108 145 183 224 286 366 440
#     4  12  25  46  73 106 144 190 233 299 368 429
#     4  12  24  46  72 108 147 184 243 301 364 431
#     4  12  26  47  73 105 146 184 237 296 365 436
#     4  12  21  38  74 106 151 189 225 290 370 435
#     4  12  21  38  72 103 146 182 224 279 365 437
#
# _framework density 21.758068000000002
#
# number of rings (size 3 to 8) (size 9 to 14) (size 15 to 20)
#    0.000    0.000    7.273    2.182    2.545    2.182 
#    0.000    0.000    0.000    0.000    0.000    0.000 
#    0.000    0.000    0.000    0.000    0.000    0.000 
#
# Total GULP energy -545551.653635 kJ/mol
# GULP energy per Si atom -12398.901219 kJ/mol
# Density = 2.170855 g / cm^3
# Si number density = 21.758068 Si / 1000 Ang^3
#
#
#
# Elastic Constant Matrix: (Units=GPa)
#
#
# Indices 1 2 3 4 5 6 
#
# 1 120.2582 26.9327 40.1016 0.0000 0.0000 0.0000
# 2 26.9327 100.5038 26.5262 0.0000 0.0000 0.0000
# 3 40.1016 26.5262 131.8537 0.0000 0.0000 0.0000
# 4 0.0000 0.0000 0.0000 41.8846 0.0000 0.0000
# 5 0.0000 0.0000 0.0000 0.0000 51.3996 0.0000
# 6 0.0000 0.0000 0.0000 0.0000 0.0000 10.4625
#
#
#
# Elastic Compliance Matrix: (Units=1/GPa)
#
#
# Indices 1 2 3 4 5 6 
#
# 1 0.009586 -0.001900 -0.002533 0.000000 0.000000 0.000000
# 2 -0.001900 0.010884 -0.001612 0.000000 0.000000 0.000000
# 3 -0.002533 -0.001612 0.008679 0.000000 0.000000 0.000000
# 4 0.000000 0.000000 0.000000 0.023875 0.000000 0.000000
# 5 0.000000 0.000000 0.000000 0.000000 0.019455 0.000000
# 6 0.000000 0.000000 0.000000 0.000000 0.000000 0.095579
#
#
# Mechanical properties :
#
#
# Convention : Reuss Voigt Hill
#
# Bulk Modulus (GPa) = 58.62064 59.97076 59.29570
# Shear Modulus (GPa) = 26.90556 38.01969 32.46263
#
# Velocity S-wave (km/s) = 3.52032 4.18471 3.86681
# Velocity P-wave (km/s) = 6.59727 7.13943 6.87370
#
# Compressibility (1/GPa) = 0.01705884
#
# Stress axis : x y z
#
# Youngs Moduli (GPa) = 104.32220 91.87391 115.22289
#
# Poissons Ratio (x) = 0.17458 0.29187
# Poissons Ratio (y) = 0.19823 0.18572
# Poissons Ratio (z) = 0.26426 0.14808
#
# Static dielectric constant tensor:
#      x y z
#    x 3.661080 0.000000 0.000000 
#    y 0.000000 4.006260 0.000000 
#    z 0.000000 0.000000 4.421330 
# 
# 
# High freq. dielectric constant tensor:
#      x y z
#    x 1.826020 0.000000 0.000000 
#    y 0.000000 1.868130 0.000000 
#    z 0.000000 0.000000 1.884560 
# 
# From -- ./inp_files/18274.got.cif
#   From: 2010.03.12/outbox.cif.g09.slc.cpg/sg64_10_cif.got.tgz:18274.got - 2010.04.10 20:19:32.
