data_PCOD8264638
_publ_section_title
;
Structure prediction by ZEFSAII (Michael W. Deem and Ramdas Pophale) SiO2 
 PCOD8264638
Probable space group: C M C A
;
_chemical_formula_sum "Si O2"
_cell_formula_units_Z 104
_cell_length_a 20.999796
_cell_length_b 18.839619
_cell_length_c 14.682916
_cell_angle_alpha 90.000000
_cell_angle_beta 90.000000
_cell_angle_gamma 90.000000
_cell_volume 5808.974978
_symmetry_space_group_name_H-M "C M C A"
_symmetry_group_IT_number 64
_symmetry_cell_setting 'orthorhombic'
loop_
_space_group_symop_operation_xyz
x,y,z
-x,1/2-y,1/2+z
x,-y,-z
-x,1/2+y,1/2-z
-x,-y,-z
x,1/2+y,1/2-z
-x,y,z
x,1/2-y,1/2+z
1/2+x,1/2+y,z
1/2-x,-y,1/2+z
1/2+x,1/2-y,-z
1/2-x,y,1/2-z
1/2-x,1/2-y,-z
1/2+x,y,1/2-z
1/2-x,1/2+y,z
1/2+x,-y,1/2+z
loop_
_atom_site_type_symbol
_atom_site_label
_atom_site_fract_x
_atom_site_fract_y
_atom_site_fract_z
Si Si1 0.355316 0.000000 0.000000
Si Si2 0.767375 0.150793 0.914882
Si Si3 0.147874 0.776024 0.348911
Si Si4 0.752946 0.495323 0.354311
Si Si5 0.851623 0.231154 0.345894
Si Si6 0.574979 0.648884 0.495121
Si Si7 0.266912 0.849191 0.617545
O O1 0.314314 0.001045 0.093133
O O2 0.398335 0.069660 0.999643
O O3 0.709622 0.171730 0.846715
O O4 0.826400 0.203829 0.907198
O O5 0.791602 0.070026 0.899527
O O6 0.737148 0.155200 0.015754
O O7 0.120133 0.765305 0.246841
O O8 0.094274 0.806297 0.415390
O O9 0.170051 0.698169 0.381200
O O10 0.750000 0.473592 0.250000
O O11 0.788632 0.570828 0.359774
O O12 0.904123 0.188284 0.402083
O O13 0.791445 0.179312 0.319133
O O14 0.500000 0.643668 0.493237
#
# Coordination Sequence:
#
# PCOD8264638 Si02
#       7
#     8  16  16  16  16  16  16
#     4  12  23  42  56  86 120 148 195 230 278 352
#     4  11  18  33  55  86 118 149 176 221 298 352
#     4  11  20  35  57  83 112 143 183 239 283 339
#     4  12  20  31  55  88 118 149 173 219 293 358
#     4  11  20  35  57  83 112 143 183 239 283 339
#     4  12  25  42  59  78 110 160 204 239 275 324
#     4  11  18  33  55  86 118 149 176 221 298 352
#
# _framework density 17.903331000000001
#
# number of rings (size 3 to 8) (size 9 to 14) (size 15 to 20)
#    0.000    0.615    7.692    4.846    0.000    0.615 
#    0.000    0.000    0.000    0.000    0.000    2.154 
#    0.000    0.000    0.000    0.000    0.000    0.000 
#
# Total GULP energy -644594.656576 kJ/mol
# GULP energy per Si atom -12396.051088 kJ/mol
# Density = 1.786258 g / cm^3
# Si number density = 17.903331 Si / 1000 Ang^3
#
#
#
# Elastic Constant Matrix: (Units=GPa)
#
#
# Indices 1 2 3 4 5 6 
#
# 1 74.3958 31.1688 23.5494 0.0000 0.0000 0.0000
# 2 31.1688 119.2343 -3.5166 0.0000 0.0000 0.0000
# 3 23.5494 -3.5166 87.3755 0.0000 0.0000 0.0000
# 4 0.0000 0.0000 0.0000 27.2794 0.0000 0.0000
# 5 0.0000 0.0000 0.0000 0.0000 14.2529 0.0000
# 6 0.0000 0.0000 0.0000 0.0000 0.0000 15.4592
#
#
#
# Elastic Compliance Matrix: (Units=1/GPa)
#
#
# Indices 1 2 3 4 5 6 
#
# 1 0.016839 -0.004541 -0.004721 0.000000 0.000000 0.000000
# 2 -0.004541 0.009621 0.001611 0.000000 0.000000 0.000000
# 3 -0.004721 0.001611 0.012782 0.000000 0.000000 0.000000
# 4 0.000000 0.000000 0.000000 0.036658 0.000000 0.000000
# 5 0.000000 0.000000 0.000000 0.000000 0.070161 0.000000
# 6 0.000000 0.000000 0.000000 0.000000 0.000000 0.064687
#
#
# Mechanical properties :
#
#
# Convention : Reuss Voigt Hill
#
# Bulk Modulus (GPa) = 41.77073 42.60097 42.18585
# Shear Modulus (GPa) = 21.36483 26.71856 24.04169
#
# Velocity S-wave (km/s) = 3.45823 3.86732 3.66848
# Velocity P-wave (km/s) = 6.27118 6.61727 6.44655
#
# Compressibility (1/GPa) = 0.02394021
#
# Stress axis : x y z
#
# Youngs Moduli (GPa) = 59.38768 103.93489 78.23428
#
# Poissons Ratio (x) = 0.47196 0.36935
# Poissons Ratio (y) = 0.26968 -0.12604
# Poissons Ratio (z) = 0.28037 -0.16745
#
# Static dielectric constant tensor:
#      x y z
#    x 2.756670 0.000000 0.000000 
#    y 0.000000 3.694950 0.000000 
#    z 0.000000 0.000000 3.611720 
# 
# 
# High freq. dielectric constant tensor:
#      x y z
#    x 1.619620 0.000000 0.000000 
#    y 0.000000 1.719180 0.000000 
#    z 0.000000 0.000000 1.712630 
# 
# From -- ./inp_files/26564.got.cif
#   From: 2010.03.12/outbox.cif.g09.slc.cpg/sg64_14_cif.got.tgz:26564.got - 2010.04.10 20:19:32.
