data_PCOD8264041
_publ_section_title
;
Structure prediction by ZEFSAII (Michael W. Deem and Ramdas Pophale) SiO2 
 PCOD8264041
Probable space group: C M C A
;
_chemical_formula_sum "Si O2"
_cell_formula_units_Z 112
_cell_length_a 16.763218
_cell_length_b 21.924608
_cell_length_c 14.754611
_cell_angle_alpha 90.000000
_cell_angle_beta 90.000000
_cell_angle_gamma 90.000000
_cell_volume 5422.717673
_symmetry_space_group_name_H-M "C M C A"
_symmetry_group_IT_number 64
_symmetry_cell_setting 'orthorhombic'
loop_
_space_group_symop_operation_xyz
x,y,z
-x,1/2-y,1/2+z
x,-y,-z
-x,1/2+y,1/2-z
-x,-y,-z
x,1/2+y,1/2-z
-x,y,z
x,1/2-y,1/2+z
1/2+x,1/2+y,z
1/2-x,-y,1/2+z
1/2+x,1/2-y,-z
1/2-x,y,1/2-z
1/2-x,1/2-y,-z
1/2+x,y,1/2-z
1/2-x,1/2+y,z
1/2+x,-y,1/2+z
loop_
_atom_site_type_symbol
_atom_site_label
_atom_site_fract_x
_atom_site_fract_y
_atom_site_fract_z
Si Si1 0.693582 0.433819 0.014754
Si Si2 0.315241 0.928841 0.174471
Si Si3 0.155024 0.311041 0.425807
Si Si4 0.091882 0.968780 0.597673
Si Si5 0.304014 0.757373 0.607147
Si Si6 0.225865 0.881197 0.648428
Si Si7 0.908347 0.808389 0.264684
O O1 0.773413 0.432523 0.075978
O O2 0.634726 0.382382 0.055380
O O3 0.653353 0.500000 0.000000
O O4 0.711138 0.416622 0.912004
O O5 0.250000 0.943179 0.250000
O O6 0.361074 0.867072 0.199995
O O7 0.380617 0.982693 0.174049
O O8 0.249701 0.303951 0.400500
O O9 0.144237 0.269756 0.515738
O O10 0.098377 0.293922 0.342308
O O11 0.138542 0.904977 0.616995
O O12 0.000000 0.952156 0.610660
O O13 0.107427 0.000000 0.500000
O O14 0.238279 0.809237 0.629349
O O15 0.368815 0.750050 0.686194
O O16 0.250000 0.897789 0.750000
O O17 0.000000 0.814476 0.292540
#
# Coordination Sequence:
#
# PCOD8264041 Si02
#       7
#    16  16  16  16  16  16  16
#     4  11  20  35  61  95 119 153 219 260 314 362
#     4  12  20  38  65  90 123 165 218 261 305 384
#     4  10  21  40  65  88 124 164 215 268 307 381
#     4  11  23  38  58  94 137 164 201 269 342 390
#     4  10  22  40  64  89 122 165 220 264 309 372
#     4  11  21  36  61  88 121 170 216 257 308 386
#     4  12  24  39  63  97 130 166 212 266 328 381
#
# _framework density 20.653851
#
# number of rings (size 3 to 8) (size 9 to 14) (size 15 to 20)
#    0.000    1.000    5.714    2.143    0.000    0.571 
#    0.000    2.857    0.000    1.286    0.000    0.000 
#    0.000    0.000    0.000    0.000    0.000    0.000 
#
# Total GULP energy -693784.557181 kJ/mol
# GULP energy per Si atom -12389.009950 kJ/mol
# Density = 2.060684 g / cm^3
# Si number density = 20.653851 Si / 1000 Ang^3
#
#
#
# Elastic Constant Matrix: (Units=GPa)
#
#
# Indices 1 2 3 4 5 6 
#
# 1 93.2969 43.0779 53.9895 0.0000 0.0000 0.0000
# 2 43.0779 106.2728 40.8931 0.0000 0.0000 0.0000
# 3 53.9895 40.8931 134.3597 0.0000 0.0000 0.0000
# 4 0.0000 0.0000 0.0000 24.0044 0.0000 0.0000
# 5 0.0000 0.0000 0.0000 0.0000 20.5114 0.0000
# 6 0.0000 0.0000 0.0000 0.0000 0.0000 24.6575
#
#
#
# Elastic Compliance Matrix: (Units=1/GPa)
#
#
# Indices 1 2 3 4 5 6 
#
# 1 0.015616 -0.004435 -0.004925 0.000000 0.000000 0.000000
# 2 -0.004435 0.011917 -0.001845 0.000000 0.000000 0.000000
# 3 -0.004925 -0.001845 0.009983 0.000000 0.000000 0.000000
# 4 0.000000 0.000000 0.000000 0.041659 0.000000 0.000000
# 5 0.000000 0.000000 0.000000 0.000000 0.048753 0.000000
# 6 0.000000 0.000000 0.000000 0.000000 0.000000 0.040556
#
#
# Mechanical properties :
#
#
# Convention : Reuss Voigt Hill
#
# Bulk Modulus (GPa) = 66.19607 67.76115 66.97861
# Shear Modulus (GPa) = 25.51914 26.89925 26.20920
#
# Velocity S-wave (km/s) = 3.51887 3.61277 3.56613
# Velocity P-wave (km/s) = 6.97350 7.09098 7.03249
#
# Compressibility (1/GPa) = 0.01510664
#
# Stress axis : x y z
#
# Youngs Moduli (GPa) = 64.03521 83.91084 100.16629
#
# Poissons Ratio (x) = 0.37214 0.49335
# Poissons Ratio (y) = 0.28399 0.18481
# Poissons Ratio (z) = 0.31539 0.15482
#
# Static dielectric constant tensor:
#      x y z
#    x 3.306560 0.000000 0.000000 
#    y 0.000000 4.100720 0.000000 
#    z 0.000000 0.000000 3.974650 
# 
# 
# High freq. dielectric constant tensor:
#      x y z
#    x 1.757040 0.000000 0.000000 
#    y 0.000000 1.816510 0.000000 
#    z 0.000000 0.000000 1.826100 
# 
# From -- ./inp_files/24191.got.cif
#   From: 2010.03.12/outbox.cif.g09.slc.cpg/sg64_13_cif.got.tgz:24191.got - 2010.04.10 20:19:32.
