data_PCOD8264089
_publ_section_title
;
Structure prediction by ZEFSAII (Michael W. Deem and Ramdas Pophale) SiO2 
 PCOD8264089
Probable space group: C M C A
;
_chemical_formula_sum "Si O2"
_cell_formula_units_Z 112
_cell_length_a 15.285623
_cell_length_b 15.600704
_cell_length_c 20.790370
_cell_angle_alpha 90.000000
_cell_angle_beta 90.000000
_cell_angle_gamma 90.000000
_cell_volume 4957.806349
_symmetry_space_group_name_H-M "C M C A"
_symmetry_group_IT_number 64
_symmetry_cell_setting 'orthorhombic'
loop_
_space_group_symop_operation_xyz
x,y,z
-x,1/2-y,1/2+z
x,-y,-z
-x,1/2+y,1/2-z
-x,-y,-z
x,1/2+y,1/2-z
-x,y,z
x,1/2-y,1/2+z
1/2+x,1/2+y,z
1/2-x,-y,1/2+z
1/2+x,1/2-y,-z
1/2-x,y,1/2-z
1/2-x,1/2-y,-z
1/2+x,y,1/2-z
1/2-x,1/2+y,z
1/2+x,-y,1/2+z
loop_
_atom_site_type_symbol
_atom_site_label
_atom_site_fract_x
_atom_site_fract_y
_atom_site_fract_z
Si Si1 0.099697 0.271389 0.749622
Si Si2 0.399627 0.084316 0.894824
Si Si3 0.901396 0.916853 0.249942
Si Si4 0.700057 0.428380 0.562309
Si Si5 0.688726 0.569082 0.190903
Si Si6 0.599912 0.730674 0.395453
Si Si7 0.746845 0.328773 0.047896
O O1 0.145307 0.176976 0.749215
O O2 0.145141 0.337982 0.701121
O O3 0.106987 0.304445 0.822589
O O4 0.000000 0.265844 0.725389
O O5 0.500000 0.109781 0.910981
O O6 0.392397 0.046922 0.822390
O O7 0.334371 0.165432 0.906818
O O8 0.364215 0.009617 0.941186
O O9 0.000000 0.895987 0.230581
O O10 0.873264 0.985527 0.195929
O O11 0.765264 0.431442 0.622369
O O12 0.634565 0.347297 0.561757
O O13 0.757896 0.415660 0.496445
O O14 0.750000 0.549596 0.250000
O O15 0.500000 0.754121 0.413174
O O16 0.660456 0.815467 0.407565
O O17 0.750000 0.250000 0.000000
#
# Coordination Sequence:
#
# PCOD8264089 Si02
#       7
#    16  16  16  16  16  16  16
#     4  10  22  39  63  92 129 176 225 274 334 403
#     4  11  23  42  69  96 130 171 217 279 338 393
#     4  10  23  40  62  98 134 172 226 275 332 409
#     4  11  23  41  62  98 131 171 220 273 331 406
#     4  12  22  37  64  98 134 177 213 277 343 398
#     4  10  21  41  65  89 127 175 221 273 329 391
#     4  10  25  41  61  95 130 166 226 275 323 402
#
# _framework density 22.590636
#
# number of rings (size 3 to 8) (size 9 to 14) (size 15 to 20)
#    0.000    1.429    2.857    1.286    6.000    6.286 
#    0.000    1.429    0.000    1.714    0.000    0.000 
#    0.000    0.000    0.000    0.000    0.000    0.000 
#
# Total GULP energy -693789.846096 kJ/mol
# GULP energy per Si atom -12389.104395 kJ/mol
# Density = 2.253922 g / cm^3
# Si number density = 22.590636 Si / 1000 Ang^3
#
#
#
# Elastic Constant Matrix: (Units=GPa)
#
#
# Indices 1 2 3 4 5 6 
#
# 1 147.7565 48.1311 47.0396 0.0000 0.0000 0.0000
# 2 48.1311 115.3045 4.8086 0.0000 0.0000 0.0000
# 3 47.0396 4.8086 73.0365 0.0000 0.0000 0.0000
# 4 0.0000 0.0000 0.0000 37.1853 0.0000 0.0000
# 5 0.0000 0.0000 0.0000 0.0000 32.5101 0.0000
# 6 0.0000 0.0000 0.0000 0.0000 0.0000 40.7139
#
#
#
# Elastic Compliance Matrix: (Units=1/GPa)
#
#
# Indices 1 2 3 4 5 6 
#
# 1 0.010018 -0.003923 -0.006194 0.000000 0.000000 0.000000
# 2 -0.003923 0.010233 0.001853 0.000000 0.000000 0.000000
# 3 -0.006194 0.001853 0.017559 0.000000 0.000000 0.000000
# 4 0.000000 0.000000 0.000000 0.026892 0.000000 0.000000
# 5 0.000000 0.000000 0.000000 0.000000 0.030760 0.000000
# 6 0.000000 0.000000 0.000000 0.000000 0.000000 0.024562
#
#
# Mechanical properties :
#
#
# Convention : Reuss Voigt Hill
#
# Bulk Modulus (GPa) = 46.98828 59.56178 53.27503
# Shear Modulus (GPa) = 34.80800 37.82306 36.31553
#
# Velocity S-wave (km/s) = 3.92958 4.09624 4.01377
# Velocity P-wave (km/s) = 6.43691 6.98535 6.71673
#
# Compressibility (1/GPa) = 0.02128190
#
# Stress axis : x y z
#
# Youngs Moduli (GPa) = 99.82313 97.72195 56.95135
#
# Poissons Ratio (x) = 0.38340 0.35274
# Poissons Ratio (y) = 0.39164 -0.10554
# Poissons Ratio (z) = 0.61827 -0.18109
#
# Static dielectric constant tensor:
#      x y z
#    x 4.305610 0.000000 0.000000 
#    y 0.000000 4.559130 0.000000 
#    z 0.000000 0.000000 4.241380 
# 
# 
# High freq. dielectric constant tensor:
#      x y z
#    x 1.880030 0.000000 0.000000 
#    y 0.000000 1.895980 0.000000 
#    z 0.000000 0.000000 1.893450 
# 
# From -- ./inp_files/45308.got.cif
#   From: 2010.03.12/outbox.cif.g09.slc.cpg/sg64_23_cif.got.tgz:45308.got - 2010.04.10 20:19:32.
