data_PCOD8264693
_publ_section_title
;
Structure prediction by ZEFSAII (Michael W. Deem and Ramdas Pophale) SiO2 
 PCOD8264693
Probable space group: C M C A
;
_chemical_formula_sum "Si O2"
_cell_formula_units_Z 80
_cell_length_a 17.554952
_cell_length_b 13.308204
_cell_length_c 18.821823
_cell_angle_alpha 90.000000
_cell_angle_beta 90.000000
_cell_angle_gamma 90.000000
_cell_volume 4397.246185
_symmetry_space_group_name_H-M "C M C A"
_symmetry_group_IT_number 64
_symmetry_cell_setting 'orthorhombic'
loop_
_space_group_symop_operation_xyz
x,y,z
-x,1/2-y,1/2+z
x,-y,-z
-x,1/2+y,1/2-z
-x,-y,-z
x,1/2+y,1/2-z
-x,y,z
x,1/2-y,1/2+z
1/2+x,1/2+y,z
1/2-x,-y,1/2+z
1/2+x,1/2-y,-z
1/2-x,y,1/2-z
1/2-x,1/2-y,-z
1/2+x,y,1/2-z
1/2-x,1/2+y,z
1/2+x,-y,1/2+z
loop_
_atom_site_type_symbol
_atom_site_label
_atom_site_fract_x
_atom_site_fract_y
_atom_site_fract_z
Si Si1 0.590042 0.711181 0.361971
Si Si2 0.409281 0.886915 0.005086
Si Si3 0.087417 0.211489 0.650246
Si Si4 0.837627 0.885486 0.769147
Si Si5 0.913014 0.411528 0.289828
O O1 0.500000 0.709411 0.361169
O O2 0.622074 0.677801 0.438515
O O3 0.615160 0.631737 0.302632
O O4 0.617774 0.823580 0.342196
O O5 0.500000 0.890886 0.004440
O O6 0.380673 0.833885 0.076858
O O7 0.376433 0.000000 0.000000
O O8 0.141022 0.304469 0.670780
O O9 0.092595 0.124655 0.708784
O O10 0.000000 0.249044 0.643178
O O11 0.750000 0.877261 0.750000
O O12 0.858028 0.994094 0.801030
O O13 0.000000 0.440943 0.308503
#
# Coordination Sequence:
#
# PCOD8264693 Si02
#       5
#    16  16  16  16  16
#     4   9  18  33  53  76  99 126 167 214 254 295
#     4   9  16  29  53  81 103 126 163 211 258 301
#     4   9  18  33  54  77  99 126 166 213 254 295
#     4  11  21  32  49  73 101 136 169 203 248 299
#     4   9  17  31  51  72  97 130 167 208 249 293
#
# _framework density 18.193204999999999
#
# number of rings (size 3 to 8) (size 9 to 14) (size 15 to 20)
#    0.000    2.600    0.000    4.200    0.000    6.400 
#    0.000    2.000    0.000    7.200    0.000    0.000 
#    0.000    0.000    0.000    0.000    0.000    0.200 
#
# Total GULP energy -495984.163414 kJ/mol
# GULP energy per Si atom -12399.604085 kJ/mol
# Density = 1.815180 g / cm^3
# Si number density = 18.193205 Si / 1000 Ang^3
#
#
#
# Elastic Constant Matrix: (Units=GPa)
#
#
# Indices 1 2 3 4 5 6 
#
# 1 37.4634 50.4567 21.9757 0.0000 0.0000 0.0000
# 2 50.4567 147.6176 73.8455 0.0000 0.0000 0.0000
# 3 21.9757 73.8455 142.9187 0.0000 0.0000 0.0000
# 4 0.0000 0.0000 0.0000 20.4426 0.0000 0.0000
# 5 0.0000 0.0000 0.0000 0.0000 11.6121 0.0000
# 6 0.0000 0.0000 0.0000 0.0000 0.0000 7.5213
#
#
#
# Elastic Compliance Matrix: (Units=1/GPa)
#
#
# Indices 1 2 3 4 5 6 
#
# 1 0.049711 -0.017758 0.001532 0.000000 0.000000 0.000000
# 2 -0.017758 0.015479 -0.005267 0.000000 0.000000 0.000000
# 3 0.001532 -0.005267 0.009483 0.000000 0.000000 0.000000
# 4 0.000000 0.000000 0.000000 0.048917 0.000000 0.000000
# 5 0.000000 0.000000 0.000000 0.000000 0.086117 0.000000
# 6 0.000000 0.000000 0.000000 0.000000 0.000000 0.132955
#
#
# Mechanical properties :
#
#
# Convention : Reuss Voigt Hill
#
# Bulk Modulus (GPa) = 31.55983 68.95061 50.25522
# Shear Modulus (GPa) = 12.61954 20.03000 16.32477
#
# Velocity S-wave (km/s) = 2.63656 3.32167 2.99875
# Velocity P-wave (km/s) = 5.16268 7.25898 6.29865
#
# Compressibility (1/GPa) = 0.03168585
#
# Stress axis : x y z
#
# Youngs Moduli (GPa) = 20.11640 64.60382 105.45022
#
# Poissons Ratio (x) = 1.14721 -0.16151
# Poissons Ratio (y) = 0.35722 0.55545
# Poissons Ratio (z) = -0.03081 0.34030
#
# Static dielectric constant tensor:
#      x y z
#    x 2.982090 0.000000 0.000000 
#    y 0.000000 3.420820 0.000000 
#    z 0.000000 0.000000 3.613240 
# 
# 
# High freq. dielectric constant tensor:
#      x y z
#    x 1.666850 0.000000 0.000000 
#    y 0.000000 1.710780 0.000000 
#    z 0.000000 0.000000 1.698560 
# 
# From -- ./inp_files/32979.got.cif
#   From: 2010.03.12/outbox.cif.g09.slc.cpg/sg64_17_cif.got.tgz:32979.got - 2010.04.10 20:19:32.
