data_PCOD8264803
_publ_section_title
;
Structure prediction by ZEFSAII (Michael W. Deem and Ramdas Pophale) SiO2 
 PCOD8264803
Probable space group: C M C A
;
_chemical_formula_sum "Si O2"
_cell_formula_units_Z 96
_cell_length_a 23.850380
_cell_length_b 11.801793
_cell_length_c 17.633669
_cell_angle_alpha 90.000000
_cell_angle_beta 90.000000
_cell_angle_gamma 90.000000
_cell_volume 4963.476618
_symmetry_space_group_name_H-M "C M C A"
_symmetry_group_IT_number 64
_symmetry_cell_setting 'orthorhombic'
loop_
_space_group_symop_operation_xyz
x,y,z
-x,1/2-y,1/2+z
x,-y,-z
-x,1/2+y,1/2-z
-x,-y,-z
x,1/2+y,1/2-z
-x,y,z
x,1/2-y,1/2+z
1/2+x,1/2+y,z
1/2-x,-y,1/2+z
1/2+x,1/2-y,-z
1/2-x,y,1/2-z
1/2-x,1/2-y,-z
1/2+x,y,1/2-z
1/2-x,1/2+y,z
1/2+x,-y,1/2+z
loop_
_atom_site_type_symbol
_atom_site_label
_atom_site_fract_x
_atom_site_fract_y
_atom_site_fract_z
Si Si1 0.310549 0.833099 0.389680
Si Si2 0.119742 0.954982 0.839580
Si Si3 0.692916 0.886814 0.791885
Si Si4 0.379871 0.267427 0.964580
Si Si5 0.500000 0.183481 0.501076
Si Si6 0.500000 0.491570 0.123860
Si Si7 0.691181 0.933882 0.077646
O O1 0.300665 0.736517 0.327654
O O2 0.344472 0.782548 0.459538
O O3 0.251345 0.875206 0.420257
O O4 0.343274 0.933552 0.349082
O O5 0.141442 0.884971 0.767302
O O6 0.125571 0.881518 0.915729
O O7 0.055252 0.990842 0.824859
O O8 0.750000 0.920317 0.750000
O O9 0.680387 0.981581 0.853853
O O10 0.444383 0.241805 0.987301
O O11 0.356783 0.161731 0.917020
O O12 0.500000 0.133842 0.586716
O O13 0.500000 0.080668 0.443286
O O14 0.685092 0.000000 0.000000
#
# Coordination Sequence:
#
# PCOD8264803 Si02
#       7
#    16  16  16  16   8   8  16
#     4  12  24  40  65  94 126 167 210 266 319 388
#     4  11  23  40  68  95 126 167 213 270 321 375
#     4  12  27  42  59  93 133 171 207 261 330 384
#     4  11  22  41  68  94 127 161 222 266 317 379
#     4   9  18  36  65  98 122 162 212 270 313 369
#     4   9  18  38  64  94 127 160 214 263 314 375
#     4  12  25  42  63  94 130 169 212 262 324 396
#
# _framework density 19.341280999999999
#
# number of rings (size 3 to 8) (size 9 to 14) (size 15 to 20)
#    0.000    0.833    5.000    3.000    4.667    0.000 
#    0.000    2.917    0.000    0.000    0.000    0.000 
#    0.000    0.000    0.000    0.000    0.000    0.000 
#
# Total GULP energy -595422.838265 kJ/mol
# GULP energy per Si atom -12404.642464 kJ/mol
# Density = 1.929726 g / cm^3
# Si number density = 19.341281 Si / 1000 Ang^3
#
#
#
# Elastic Constant Matrix: (Units=GPa)
#
#
# Indices 1 2 3 4 5 6 
#
# 1 137.1935 21.7325 15.4522 0.0000 0.0000 0.0000
# 2 21.7325 71.3148 -1.9428 0.0000 0.0000 0.0000
# 3 15.4522 -1.9428 63.0737 0.0000 0.0000 0.0000
# 4 0.0000 0.0000 0.0000 -25.9187 0.0000 0.0000
# 5 0.0000 0.0000 0.0000 0.0000 27.1743 0.0000
# 6 0.0000 0.0000 0.0000 0.0000 0.0000 29.5122
#
#
#
# Elastic Compliance Matrix: (Units=1/GPa)
#
#
# Indices 1 2 3 4 5 6 
#
# 1 0.007906 -0.002464 -0.002013 0.000000 0.000000 0.000000
# 2 -0.002464 0.014802 0.001060 0.000000 0.000000 0.000000
# 3 -0.002013 0.001060 0.016380 0.000000 0.000000 0.000000
# 4 0.000000 0.000000 0.000000 -0.038582 0.000000 0.000000
# 5 0.000000 0.000000 0.000000 0.000000 0.036799 0.000000
# 6 0.000000 0.000000 0.000000 0.000000 0.000000 0.033884
#
#
# Mechanical properties :
#
#
# Convention : Reuss Voigt Hill
#
# Bulk Modulus (GPa) = 31.00411 38.00730 34.50570
# Shear Modulus (GPa) = 56.32172 21.90957 39.11565
#
# Velocity S-wave (km/s) = 5.40215 3.36934 4.50198
# Velocity P-wave (km/s) = 7.41456 5.90171 6.70097
#
# Compressibility (1/GPa) = 0.03225379
#
# Stress axis : x y z
#
# Youngs Moduli (GPa) = 126.48608 67.55793 61.04927
#
# Poissons Ratio (x) = 0.16647 0.12288
# Poissons Ratio (y) = 0.31168 -0.06469
# Poissons Ratio (z) = 0.25459 -0.07158
#
# Static dielectric constant tensor:
#      x y z
#    x 3.844820 0.000000 0.000000 
#    y 0.000000 3.601960 0.000000 
#    z 0.000000 0.000000 3.615100 
# 
# 
# High freq. dielectric constant tensor:
#      x y z
#    x 1.760210 0.000000 0.000000 
#    y 0.000000 1.751320 0.000000 
#    z 0.000000 0.000000 1.749640 
# 
# From -- ./inp_files/34980.got.cif
#   From: 2010.03.12/outbox.cif.g09.slc.cpg/sg64_18_cif.got.tgz:34980.got - 2010.04.10 20:19:32.
