data_PCOD8264202
_publ_section_title
;
Structure prediction by ZEFSAII (Michael W. Deem and Ramdas Pophale) SiO2 
 PCOD8264202
Probable space group: C M C A
;
_chemical_formula_sum "Si O2"
_cell_formula_units_Z 112
_cell_length_a 13.823580
_cell_length_b 11.852430
_cell_length_c 32.890187
_cell_angle_alpha 90.000000
_cell_angle_beta 90.000000
_cell_angle_gamma 90.000000
_cell_volume 5388.827379
_symmetry_space_group_name_H-M "C M C A"
_symmetry_group_IT_number 64
_symmetry_cell_setting 'orthorhombic'
loop_
_space_group_symop_operation_xyz
x,y,z
-x,1/2-y,1/2+z
x,-y,-z
-x,1/2+y,1/2-z
-x,-y,-z
x,1/2+y,1/2-z
-x,y,z
x,1/2-y,1/2+z
1/2+x,1/2+y,z
1/2-x,-y,1/2+z
1/2+x,1/2-y,-z
1/2-x,y,1/2-z
1/2-x,1/2-y,-z
1/2+x,y,1/2-z
1/2-x,1/2+y,z
1/2+x,-y,1/2+z
loop_
_atom_site_type_symbol
_atom_site_label
_atom_site_fract_x
_atom_site_fract_y
_atom_site_fract_z
Si Si1 0.614384 0.421742 0.962713
Si Si2 0.890546 0.997533 0.243623
Si Si3 0.110511 0.303061 0.681303
Si Si4 0.112425 0.556559 0.062114
Si Si5 0.221697 0.945806 0.882888
Si Si6 0.886811 0.170863 0.519677
Si Si7 0.233749 0.414290 0.191411
O O1 0.500000 0.421524 0.957862
O O2 0.658662 0.478263 0.922331
O O3 0.655447 0.293882 0.968731
O O4 0.647710 0.500000 0.000000
O O5 0.888501 0.114303 0.219523
O O6 0.000000 0.956008 0.251169
O O7 0.832716 0.011088 0.286407
O O8 0.834541 0.903084 0.216354
O O9 0.164415 0.351400 0.641898
O O10 0.169639 0.195714 0.695144
O O11 0.000000 0.273200 0.669057
O O12 0.173164 0.596493 0.101423
O O13 0.133272 0.422985 0.054290
O O14 0.000000 0.578982 0.070826
O O15 0.153136 0.627299 0.023727
O O16 0.240905 0.054684 0.854820
O O17 0.000000 0.183009 0.513209
#
# Coordination Sequence:
#
# PCOD8264202 Si02
#       7
#    16  16  16  16  16  16  16
#     4  10  22  39  59  84 117 163 219 269 318 383
#     4   9  20  41  66  91 123 161 205 254 301 363
#     4  10  22  42  66  91 125 169 205 248 316 379
#     4   9  19  36  57  83 117 156 206 266 320 372
#     4  11  24  36  55  92 127 158 207 261 311 370
#     4   8  17  36  59  80 107 155 213 267 319 375
#     4  10  22  38  61  95 128 160 207 250 305 377
#
# _framework density 20.783743000000001
#
# number of rings (size 3 to 8) (size 9 to 14) (size 15 to 20)
#    0.000    2.429    0.000    1.714    4.000    8.000 
#    0.000    0.714    0.000    0.857    0.000    0.000 
#    0.000    0.000    0.000    0.000    0.000    0.000 
#
# Total GULP energy -694058.630068 kJ/mol
# GULP energy per Si atom -12393.904108 kJ/mol
# Density = 2.073644 g / cm^3
# Si number density = 20.783743 Si / 1000 Ang^3
#
#
#
# Elastic Constant Matrix: (Units=GPa)
#
#
# Indices 1 2 3 4 5 6 
#
# 1 101.8088 47.3835 36.1044 0.0000 0.0000 0.0000
# 2 47.3835 87.5297 40.4841 0.0000 0.0000 0.0000
# 3 36.1044 40.4841 117.2503 0.0000 0.0000 0.0000
# 4 0.0000 0.0000 0.0000 17.3029 0.0000 0.0000
# 5 0.0000 0.0000 0.0000 0.0000 39.6556 0.0000
# 6 0.0000 0.0000 0.0000 0.0000 0.0000 24.8063
#
#
#
# Elastic Compliance Matrix: (Units=1/GPa)
#
#
# Indices 1 2 3 4 5 6 
#
# 1 0.013493 -0.006405 -0.001943 0.000000 0.000000 0.000000
# 2 -0.006405 0.016637 -0.003772 0.000000 0.000000 0.000000
# 3 -0.001943 -0.003772 0.010429 0.000000 0.000000 0.000000
# 4 0.000000 0.000000 0.000000 0.057794 0.000000 0.000000
# 5 0.000000 0.000000 0.000000 0.000000 0.025217 0.000000
# 6 0.000000 0.000000 0.000000 0.000000 0.000000 0.040312
#
#
# Mechanical properties :
#
#
# Convention : Reuss Voigt Hill
#
# Bulk Modulus (GPa) = 61.28198 61.61475 61.44837
# Shear Modulus (GPa) = 25.83148 28.52740 27.17944
#
# Velocity S-wave (km/s) = 3.52926 3.70886 3.62017
# Velocity P-wave (km/s) = 6.79390 6.93187 6.86323
#
# Compressibility (1/GPa) = 0.01631801
#
# Stress axis : x y z
#
# Youngs Moduli (GPa) = 74.11483 60.10770 95.88215
#
# Poissons Ratio (x) = 0.38501 0.18631
# Poissons Ratio (y) = 0.47473 0.36166
# Poissons Ratio (z) = 0.14401 0.22672
#
# Static dielectric constant tensor:
#      x y z
#    x 4.010400 0.000000 0.000000 
#    y 0.000000 3.739030 0.000000 
#    z 0.000000 0.000000 3.807010 
# 
# 
# High freq. dielectric constant tensor:
#      x y z
#    x 1.832160 0.000000 0.000000 
#    y 0.000000 1.786510 0.000000 
#    z 0.000000 0.000000 1.812110 
# 
# From -- ./inp_files/53231.got.cif
#   From: 2010.03.12/outbox.cif.g09.slc.cpg/sg64_27_cif.got.tgz:53231.got - 2010.04.10 20:19:32.
