data_PCOD8264867
_publ_section_title
;
Structure prediction by ZEFSAII (Michael W. Deem and Ramdas Pophale) SiO2 
 PCOD8264867
Probable space group: C M C A
;
_chemical_formula_sum "Si O2"
_cell_formula_units_Z 96
_cell_length_a 24.501970
_cell_length_b 9.124478
_cell_length_c 21.146833
_cell_angle_alpha 90.000000
_cell_angle_beta 90.000000
_cell_angle_gamma 90.000000
_cell_volume 4727.748525
_symmetry_space_group_name_H-M "C M C A"
_symmetry_group_IT_number 64
_symmetry_cell_setting 'orthorhombic'
loop_
_space_group_symop_operation_xyz
x,y,z
-x,1/2-y,1/2+z
x,-y,-z
-x,1/2+y,1/2-z
-x,-y,-z
x,1/2+y,1/2-z
-x,y,z
x,1/2-y,1/2+z
1/2+x,1/2+y,z
1/2-x,-y,1/2+z
1/2+x,1/2-y,-z
1/2-x,y,1/2-z
1/2-x,1/2-y,-z
1/2+x,y,1/2-z
1/2-x,1/2+y,z
1/2+x,-y,1/2+z
loop_
_atom_site_type_symbol
_atom_site_label
_atom_site_fract_x
_atom_site_fract_y
_atom_site_fract_z
Si Si1 0.797634 0.464198 0.663416
Si Si2 0.886726 0.489510 0.766921
Si Si3 0.310619 0.856053 0.149586
Si Si4 0.061704 0.302757 0.320495
Si Si5 0.806784 0.328640 0.008972
Si Si6 0.372461 0.596912 0.939192
O O1 0.834839 0.518616 0.720775
O O2 0.736716 0.526311 0.661118
O O3 0.790498 0.294128 0.680275
O O4 0.825566 0.503741 0.596246
O O5 0.869041 0.584744 0.827045
O O6 0.900645 0.326384 0.790840
O O7 0.937373 0.562064 0.729475
O O8 0.326515 0.808645 0.079561
O O9 0.079997 0.361526 0.389585
O O10 0.000000 0.245695 0.327258
O O11 0.799787 0.500000 0.000000
O O12 0.750000 0.250000 0.000000
O O13 0.849864 0.254716 0.961539
O O14 0.392655 0.500000 0.000000
#
# Coordination Sequence:
#
# PCOD8264867 Si02
#       6
#    16  16  16  16  16  16
#     4  11  24  37  60  96 135 177 208 252 316 394
#     4  11  24  43  64  95 131 167 217 272 330 391
#     4  12  23  37  62  93 135 174 207 254 311 390
#     4  11  25  46  71  93 122 169 223 284 336 383
#     4  12  22  36  58  92 134 176 214 255 310 389
#     4  11  23  43  64  95 134 170 220 267 327 395
#
# _framework density 20.305648999999999
#
# number of rings (size 3 to 8) (size 9 to 14) (size 15 to 20)
#    0.000    0.667    5.000    3.500    4.667    1.667 
#    0.000    0.000    0.000    5.500    0.000    0.000 
#    0.000    0.000    0.000    0.000    0.000    0.000 
#
# Total GULP energy -594851.993606 kJ/mol
# GULP energy per Si atom -12392.749867 kJ/mol
# Density = 2.025943 g / cm^3
# Si number density = 20.305649 Si / 1000 Ang^3
#
#
#
# Elastic Constant Matrix: (Units=GPa)
#
#
# Indices 1 2 3 4 5 6 
#
# 1 80.7217 25.6128 42.7405 0.0000 0.0000 0.0000
# 2 25.6128 134.7937 32.8074 0.0000 0.0000 0.0000
# 3 42.7405 32.8074 118.4308 0.0000 0.0000 0.0000
# 4 0.0000 0.0000 0.0000 41.8569 0.0000 0.0000
# 5 0.0000 0.0000 0.0000 0.0000 22.0215 0.0000
# 6 0.0000 0.0000 0.0000 0.0000 0.0000 25.2913
#
#
#
# Elastic Compliance Matrix: (Units=1/GPa)
#
#
# Indices 1 2 3 4 5 6 
#
# 1 0.015677 -0.001718 -0.005182 0.000000 0.000000 0.000000
# 2 -0.001718 0.008143 -0.001636 0.000000 0.000000 0.000000
# 3 -0.005182 -0.001636 0.010767 0.000000 0.000000 0.000000
# 4 0.000000 0.000000 0.000000 0.023891 0.000000 0.000000
# 5 0.000000 0.000000 0.000000 0.000000 0.045410 0.000000
# 6 0.000000 0.000000 0.000000 0.000000 0.000000 0.039539
#
#
# Mechanical properties :
#
#
# Convention : Reuss Voigt Hill
#
# Bulk Modulus (GPa) = 57.08947 59.58532 58.33740
# Shear Modulus (GPa) = 30.05942 33.35298 31.70620
#
# Velocity S-wave (km/s) = 3.85170 4.05723 3.95580
# Velocity P-wave (km/s) = 6.92509 7.16632 7.04674
#
# Compressibility (1/GPa) = 0.01751636
#
# Stress axis : x y z
#
# Youngs Moduli (GPa) = 63.78807 122.80041 92.87634
#
# Poissons Ratio (x) = 0.21093 0.48127
# Poissons Ratio (y) = 0.10957 0.15194
# Poissons Ratio (z) = 0.33054 0.20090
#
# Static dielectric constant tensor:
#      x y z
#    x 3.324800 0.000000 0.000000 
#    y 0.000000 3.799450 0.000000 
#    z 0.000000 0.000000 4.157230 
# 
# 
# High freq. dielectric constant tensor:
#      x y z
#    x 1.754470 0.000000 0.000000 
#    y 0.000000 1.811630 0.000000 
#    z 0.000000 0.000000 1.813450 
# 
# From -- ./inp_files/41798.got.cif
#   From: 2010.03.12/outbox.cif.g09.slc.cpg/sg64_21_cif.got.tgz:41798.got - 2010.04.10 20:19:32.
