data_PCOD8264053
_publ_section_title
;
Structure prediction by ZEFSAII (Michael W. Deem and Ramdas Pophale) SiO2 
 PCOD8264053
Probable space group: C M C A
;
_chemical_formula_sum "Si O2"
_cell_formula_units_Z 112
_cell_length_a 17.266838
_cell_length_b 27.971078
_cell_length_c 11.436168
_cell_angle_alpha 90.000000
_cell_angle_beta 90.000000
_cell_angle_gamma 90.000000
_cell_volume 5523.349761
_symmetry_space_group_name_H-M "C M C A"
_symmetry_group_IT_number 64
_symmetry_cell_setting 'orthorhombic'
loop_
_space_group_symop_operation_xyz
x,y,z
-x,1/2-y,1/2+z
x,-y,-z
-x,1/2+y,1/2-z
-x,-y,-z
x,1/2+y,1/2-z
-x,y,z
x,1/2-y,1/2+z
1/2+x,1/2+y,z
1/2-x,-y,1/2+z
1/2+x,1/2-y,-z
1/2-x,y,1/2-z
1/2-x,1/2-y,-z
1/2+x,y,1/2-z
1/2-x,1/2+y,z
1/2+x,-y,1/2+z
loop_
_atom_site_type_symbol
_atom_site_label
_atom_site_fract_x
_atom_site_fract_y
_atom_site_fract_z
Si Si1 0.669769 0.332137 0.588518
Si Si2 0.667382 0.907860 0.307469
Si Si3 0.589447 0.997494 0.637379
Si Si4 0.911251 0.105694 0.231462
Si Si5 0.412589 0.665174 0.653065
Si Si6 0.658598 0.342486 0.975142
Si Si7 0.409978 0.235842 0.642923
O O1 0.640885 0.378971 0.658061
O O2 0.645726 0.334394 0.453866
O O3 0.762250 0.329736 0.592135
O O4 0.633661 0.285951 0.650406
O O5 0.750000 0.899984 0.250000
O O6 0.602010 0.880502 0.234000
O O7 0.670339 0.887132 0.438119
O O8 0.644152 0.963128 0.303906
O O9 0.500000 0.008343 0.666293
O O10 0.615239 0.946860 0.690655
O O11 0.603470 0.000000 0.500000
O O12 0.000000 0.106094 0.271937
O O13 0.902648 0.141993 0.123022
O O14 0.500000 0.663288 0.605548
O O15 0.398562 0.712455 0.730227
O O16 0.627082 0.296098 0.041081
O O17 0.500000 0.243739 0.613077
#
# Coordination Sequence:
#
# PCOD8264053 Si02
#       7
#    16  16  16  16  16  16  16
#     4  12  24  42  62  93 135 169 204 266 323 378
#     4  11  21  40  64  93 126 162 208 262 321 383
#     4  10  21  40  67  94 121 159 211 264 314 375
#     4  11  24  42  65  93 126 164 211 263 317 379
#     4  10  22  40  63  89 125 169 214 258 312 376
#     4  11  23  41  64  93 128 165 215 267 318 373
#     4  10  23  40  64  91 123 174 224 261 306 374
#
# _framework density 20.277550000000002
#
# number of rings (size 3 to 8) (size 9 to 14) (size 15 to 20)
#    0.000    1.286    2.857    3.000    2.000    2.286 
#    2.571    0.714    0.000    2.571    0.000    0.000 
#    0.000    0.000    0.000    0.000    0.000    0.000 
#
# Total GULP energy -694724.219769 kJ/mol
# GULP energy per Si atom -12405.789639 kJ/mol
# Density = 2.023140 g / cm^3
# Si number density = 20.277550 Si / 1000 Ang^3
#
#
#
# Elastic Constant Matrix: (Units=GPa)
#
#
# Indices 1 2 3 4 5 6 
#
# 1 68.3104 38.5088 21.0756 0.0000 0.0000 0.0000
# 2 38.5088 121.7604 31.8903 0.0000 0.0000 0.0000
# 3 21.0756 31.8903 74.7971 0.0000 0.0000 0.0000
# 4 0.0000 0.0000 0.0000 25.0197 0.0000 0.0000
# 5 0.0000 0.0000 0.0000 0.0000 31.0087 0.0000
# 6 0.0000 0.0000 0.0000 0.0000 0.0000 26.7714
#
#
#
# Elastic Compliance Matrix: (Units=1/GPa)
#
#
# Indices 1 2 3 4 5 6 
#
# 1 0.018412 -0.005025 -0.003045 0.000000 0.000000 0.000000
# 2 -0.005025 0.010617 -0.003111 0.000000 0.000000 0.000000
# 3 -0.003045 -0.003111 0.015554 0.000000 0.000000 0.000000
# 4 0.000000 0.000000 0.000000 0.039968 0.000000 0.000000
# 5 0.000000 0.000000 0.000000 0.000000 0.032249 0.000000
# 6 0.000000 0.000000 0.000000 0.000000 0.000000 0.037353
#
#
# Mechanical properties :
#
#
# Convention : Reuss Voigt Hill
#
# Bulk Modulus (GPa) = 45.00483 49.75749 47.38116
# Shear Modulus (GPa) = 27.18542 28.11950 27.65246
#
# Velocity S-wave (km/s) = 3.66548 3.72792 3.69683
# Velocity P-wave (km/s) = 6.33695 6.56669 6.45284
#
# Compressibility (1/GPa) = 0.02221984
#
# Stress axis : x y z
#
# Youngs Moduli (GPa) = 54.31366 94.18934 64.29305
#
# Poissons Ratio (x) = 0.47334 0.19579
# Poissons Ratio (y) = 0.27295 0.19999
# Poissons Ratio (z) = 0.16540 0.29298
#
# Static dielectric constant tensor:
#      x y z
#    x 3.629500 0.000000 0.000000 
#    y 0.000000 3.699850 0.000000 
#    z 0.000000 0.000000 3.616230 
# 
# 
# High freq. dielectric constant tensor:
#      x y z
#    x 1.797880 0.000000 0.000000 
#    y 0.000000 1.793220 0.000000 
#    z 0.000000 0.000000 1.794770 
# 
# From -- ./inp_files/14963.got.cif
#   From: 2010.03.12/outbox.cif.g09.slc.cpg/sg64_8_cif.got.tgz:14963.got - 2010.04.10 20:19:32.
