data_PCOD8264477
_publ_section_title
;
Structure prediction by ZEFSAII (Michael W. Deem and Ramdas Pophale) SiO2 
 PCOD8264477
Probable space group: C M C A
;
_chemical_formula_sum "Si O2"
_cell_formula_units_Z 96
_cell_length_a 19.744838
_cell_length_b 8.839799
_cell_length_c 26.892793
_cell_angle_alpha 90.000000
_cell_angle_beta 90.000000
_cell_angle_gamma 90.000000
_cell_volume 4693.878826
_symmetry_space_group_name_H-M "C M C A"
_symmetry_group_IT_number 64
_symmetry_cell_setting 'orthorhombic'
loop_
_space_group_symop_operation_xyz
x,y,z
-x,1/2-y,1/2+z
x,-y,-z
-x,1/2+y,1/2-z
-x,-y,-z
x,1/2+y,1/2-z
-x,y,z
x,1/2-y,1/2+z
1/2+x,1/2+y,z
1/2-x,-y,1/2+z
1/2+x,1/2-y,-z
1/2-x,y,1/2-z
1/2-x,1/2-y,-z
1/2+x,y,1/2-z
1/2-x,1/2+y,z
1/2+x,-y,1/2+z
loop_
_atom_site_type_symbol
_atom_site_label
_atom_site_fract_x
_atom_site_fract_y
_atom_site_fract_z
Si Si1 0.335009 0.859776 0.704503
Si Si2 0.923704 0.042984 0.555293
Si Si3 0.688896 0.715636 0.799484
Si Si4 0.689394 0.464222 0.057192
Si Si5 0.810923 0.650721 0.096690
Si Si6 0.921869 0.643071 0.392935
O O1 0.359432 0.803604 0.759326
O O2 0.268141 0.757000 0.701140
O O3 0.387760 0.819646 0.660574
O O4 0.318727 0.036292 0.705874
O O5 0.916151 0.218854 0.568385
O O6 0.000000 0.986923 0.563988
O O7 0.899941 0.000000 0.500000
O O8 0.875017 0.954281 0.590981
O O9 0.666720 0.768239 0.853127
O O10 0.742912 0.548737 0.094051
O O11 0.698746 0.284141 0.057018
O O12 0.615323 0.506941 0.078144
O O13 0.701767 0.500000 0.000000
O O14 0.000000 0.598573 0.383384
#
# Coordination Sequence:
#
# PCOD8264477 Si02
#       6
#    16  16  16  16  16  16
#     4  11  23  41  64 100 120 165 212 262 328 382
#     4  10  23  42  64  90 125 172 215 255 315 385
#     4  11  22  38  67  92 123 158 207 263 318 384
#     4  12  24  39  64  95 130 169 214 268 323 382
#     4  12  22  39  63  97 124 162 209 270 318 379
#     4  11  24  43  64  90 133 172 213 271 324 386
#
# _framework density 20.452168
#
# number of rings (size 3 to 8) (size 9 to 14) (size 15 to 20)
#    0.000    0.833    3.333    5.000    4.667    1.000 
#    0.000    1.667    0.000    0.000    0.000    0.000 
#    0.000    0.000    0.000    0.000    0.000    0.000 
#
# Total GULP energy -594882.797841 kJ/mol
# GULP energy per Si atom -12393.391622 kJ/mol
# Density = 2.040562 g / cm^3
# Si number density = 20.452168 Si / 1000 Ang^3
#
#
#
# Elastic Constant Matrix: (Units=GPa)
#
#
# Indices 1 2 3 4 5 6 
#
# 1 91.4622 46.7395 30.2482 0.0000 0.0000 0.0000
# 2 46.7395 89.2630 6.6312 0.0000 0.0000 0.0000
# 3 30.2482 6.6312 82.4639 0.0000 0.0000 0.0000
# 4 0.0000 0.0000 0.0000 36.8884 0.0000 0.0000
# 5 0.0000 0.0000 0.0000 0.0000 19.8670 0.0000
# 6 0.0000 0.0000 0.0000 0.0000 0.0000 28.3770
#
#
#
# Elastic Compliance Matrix: (Units=1/GPa)
#
#
# Indices 1 2 3 4 5 6 
#
# 1 0.017170 -0.008574 -0.005608 0.000000 0.000000 0.000000
# 2 -0.008574 0.015551 0.001894 0.000000 0.000000 0.000000
# 3 -0.005608 0.001894 0.014031 0.000000 0.000000 0.000000
# 4 0.000000 0.000000 0.000000 0.027109 0.000000 0.000000
# 5 0.000000 0.000000 0.000000 0.000000 0.050335 0.000000
# 6 0.000000 0.000000 0.000000 0.000000 0.000000 0.035240
#
#
# Mechanical properties :
#
#
# Convention : Reuss Voigt Hill
#
# Bulk Modulus (GPa) = 45.09206 47.82522 46.45864
# Shear Modulus (GPa) = 26.12278 28.99782 27.56030
#
# Velocity S-wave (km/s) = 3.57776 3.76950 3.67488
# Velocity P-wave (km/s) = 6.25800 6.51001 6.38525
#
# Compressibility (1/GPa) = 0.02217685
#
# Stress axis : x y z
#
# Youngs Moduli (GPa) = 58.24219 64.30278 71.26861
#
# Poissons Ratio (x) = 0.55131 0.39971
# Poissons Ratio (y) = 0.49935 -0.13501
# Poissons Ratio (z) = 0.32665 -0.12181
#
# Static dielectric constant tensor:
#      x y z
#    x 3.664560 0.000000 0.000000 
#    y 0.000000 3.967350 0.000000 
#    z 0.000000 0.000000 5.323750 
# 
# 
# High freq. dielectric constant tensor:
#      x y z
#    x 1.776730 0.000000 0.000000 
#    y 0.000000 1.810770 0.000000 
#    z 0.000000 0.000000 1.818970 
# 
# From -- ./inp_files/50659.got.cif
#   From: 2010.03.12/outbox.cif.g09.slc.cpg/sg64_26_cif.got.tgz:50659.got - 2010.04.10 20:19:32.
