data_PCOD8264063
_publ_section_title
;
Structure prediction by ZEFSAII (Michael W. Deem and Ramdas Pophale) SiO2 
 PCOD8264063
Probable space group: C M C A
;
_chemical_formula_sum "Si O2"
_cell_formula_units_Z 96
_cell_length_a 25.514828
_cell_length_b 19.082353
_cell_length_c 9.076047
_cell_angle_alpha 90.000000
_cell_angle_beta 90.000000
_cell_angle_gamma 90.000000
_cell_volume 4418.972580
_symmetry_space_group_name_H-M "C M C A"
_symmetry_group_IT_number 64
_symmetry_cell_setting 'orthorhombic'
loop_
_space_group_symop_operation_xyz
x,y,z
-x,1/2-y,1/2+z
x,-y,-z
-x,1/2+y,1/2-z
-x,-y,-z
x,1/2+y,1/2-z
-x,y,z
x,1/2-y,1/2+z
1/2+x,1/2+y,z
1/2-x,-y,1/2+z
1/2+x,1/2-y,-z
1/2-x,y,1/2-z
1/2-x,1/2-y,-z
1/2+x,y,1/2-z
1/2-x,1/2+y,z
1/2+x,-y,1/2+z
loop_
_atom_site_type_symbol
_atom_site_label
_atom_site_fract_x
_atom_site_fract_y
_atom_site_fract_z
Si Si1 0.938913 0.044489 0.366815
Si Si2 0.811876 0.241526 0.501228
Si Si3 0.060952 0.177574 0.995986
Si Si4 0.885846 0.455588 0.369182
Si Si5 0.398427 0.306575 0.684154
Si Si6 0.189034 0.151991 0.776657
O O1 0.926302 0.125955 0.384960
O O2 0.000000 0.033108 0.363232
O O3 0.913915 0.000000 0.500000
O O4 0.916541 0.015449 0.215865
O O5 0.750000 0.250000 0.500000
O O6 0.837653 0.191003 0.375596
O O7 0.827713 0.319864 0.441350
O O8 0.830355 0.212406 0.660500
O O9 0.097937 0.192986 0.138203
O O10 0.000000 0.178226 0.044190
O O11 0.073069 0.102639 0.924107
O O12 0.071923 0.238365 0.877920
O O13 0.858513 0.500000 0.500000
O O14 0.841568 0.420957 0.263161
O O15 0.250000 0.137017 0.750000
#
# Coordination Sequence:
#
# PCOD8264063 Si02
#       6
#    16  16  16  16  16  16
#     4  11  25  43  66 100 141 183 230 279 343 412
#     4  10  21  40  69 100 133 170 217 285 348 399
#     4  12  26  42  67 100 137 179 231 285 342 407
#     4  12  25  44  68  92 141 186 226 278 343 414
#     4  12  24  43  67  99 136 173 231 283 337 410
#     4  10  22  42  67 100 134 170 226 284 344 410
#
# _framework density 21.724506999999999
#
# number of rings (size 3 to 8) (size 9 to 14) (size 15 to 20)
#    0.000    0.833    3.333    4.000    2.333    0.667 
#    0.000    4.167    0.000    0.000    0.000    0.000 
#    0.000    0.000    0.000    0.000    0.000    0.000 
#
# Total GULP energy -594682.887414 kJ/mol
# GULP energy per Si atom -12389.226821 kJ/mol
# Density = 2.167506 g / cm^3
# Si number density = 21.724507 Si / 1000 Ang^3
#
#
#
# Elastic Constant Matrix: (Units=GPa)
#
#
# Indices 1 2 3 4 5 6 
#
# 1 97.4763 19.5080 33.7892 0.0000 0.0000 0.0000
# 2 19.5080 99.2989 25.7865 0.0000 0.0000 0.0000
# 3 33.7892 25.7865 103.3733 0.0000 0.0000 0.0000
# 4 0.0000 0.0000 0.0000 42.6325 0.0000 0.0000
# 5 0.0000 0.0000 0.0000 0.0000 29.3846 0.0000
# 6 0.0000 0.0000 0.0000 0.0000 0.0000 28.8230
#
#
#
# Elastic Compliance Matrix: (Units=1/GPa)
#
#
# Indices 1 2 3 4 5 6 
#
# 1 0.011749 -0.001402 -0.003491 0.000000 0.000000 0.000000
# 2 -0.001402 0.010935 -0.002270 0.000000 0.000000 0.000000
# 3 -0.003491 -0.002270 0.011381 0.000000 0.000000 0.000000
# 4 0.000000 0.000000 0.000000 0.023456 0.000000 0.000000
# 5 0.000000 0.000000 0.000000 0.000000 0.034031 0.000000
# 6 0.000000 0.000000 0.000000 0.000000 0.000000 0.034695
#
#
# Mechanical properties :
#
#
# Convention : Reuss Voigt Hill
#
# Bulk Modulus (GPa) = 50.65529 50.92399 50.78964
# Shear Modulus (GPa) = 33.97827 34.90569 34.44198
#
# Velocity S-wave (km/s) = 3.95910 4.01277 3.98602
# Velocity P-wave (km/s) = 6.65335 6.70533 6.67939
#
# Compressibility (1/GPa) = 0.01974127
#
# Stress axis : x y z
#
# Youngs Moduli (GPa) = 85.11001 91.44624 87.86669
#
# Poissons Ratio (x) = 0.12819 0.30673
# Poissons Ratio (y) = 0.11930 0.19943
# Poissons Ratio (z) = 0.29711 0.20755
#
# Static dielectric constant tensor:
#      x y z
#    x 4.180360 0.000000 0.000000 
#    y 0.000000 3.974250 0.000000 
#    z 0.000000 0.000000 4.249850 
# 
# 
# High freq. dielectric constant tensor:
#      x y z
#    x 1.857880 0.000000 0.000000 
#    y 0.000000 1.854240 0.000000 
#    z 0.000000 0.000000 1.863240 
# 
# From -- ./inp_files/10381.got.cif
#   From: 2010.03.12/outbox.cif.g09.slc.cpg/sg64_6_cif.got.tgz:10381.got - 2010.04.10 20:19:32.
