data_PCOD8264566
_publ_section_title
;
Structure prediction by ZEFSAII (Michael W. Deem and Ramdas Pophale) SiO2 
 PCOD8264566
Probable space group: C M C A
;
_chemical_formula_sum "Si O2"
_cell_formula_units_Z 80
_cell_length_a 8.395344
_cell_length_b 24.723687
_cell_length_c 18.641817
_cell_angle_alpha 90.000000
_cell_angle_beta 90.000000
_cell_angle_gamma 90.000000
_cell_volume 3869.367444
_symmetry_space_group_name_H-M "C M C A"
_symmetry_group_IT_number 64
_symmetry_cell_setting 'orthorhombic'
loop_
_space_group_symop_operation_xyz
x,y,z
-x,1/2-y,1/2+z
x,-y,-z
-x,1/2+y,1/2-z
-x,-y,-z
x,1/2+y,1/2-z
-x,y,z
x,1/2-y,1/2+z
1/2+x,1/2+y,z
1/2-x,-y,1/2+z
1/2+x,1/2-y,-z
1/2-x,y,1/2-z
1/2-x,1/2-y,-z
1/2+x,y,1/2-z
1/2-x,1/2+y,z
1/2+x,-y,1/2+z
loop_
_atom_site_type_symbol
_atom_site_label
_atom_site_fract_x
_atom_site_fract_y
_atom_site_fract_z
Si Si1 0.685781 0.156791 0.599667
Si Si2 0.814719 0.533158 0.430017
Si Si3 0.187837 0.766593 0.671408
Si Si4 0.814825 0.053032 0.671768
Si Si5 0.314258 0.350525 0.553517
O O1 0.500000 0.145289 0.613855
O O2 0.748839 0.208277 0.644227
O O3 0.787762 0.105157 0.622510
O O4 0.713814 0.167001 0.515795
O O5 0.759854 0.500000 0.500000
O O6 0.779985 0.498088 0.359491
O O7 0.713266 0.587491 0.425228
O O8 0.000000 0.548129 0.434570
O O9 0.250000 0.779574 0.750000
O O10 0.249653 0.813251 0.618245
O O11 0.000000 0.766453 0.672681
O O12 0.750000 0.066476 0.750000
O O13 0.000000 0.038845 0.673919
O O14 0.500000 0.340527 0.538462
#
# Coordination Sequence:
#
# PCOD8264566 Si02
#       5
#    16  16  16  16  16
#     4  11  22  40  64  93 126 163 209 259 310 370
#     4  11  23  41  65  92 125 164 208 257 311 370
#     4  10  24  42  62  90 126 165 208 256 311 373
#     4  12  25  41  64  94 128 165 208 259 314 373
#     4  11  23  40  64  94 125 164 211 258 312 374
#
# _framework density 20.675215000000001
#
# number of rings (size 3 to 8) (size 9 to 14) (size 15 to 20)
#    0.000    1.000    2.000    4.800    0.000    6.400 
#    0.000    2.000    0.000    0.000    0.000    0.000 
#    0.000    0.000    0.000    0.000    0.000    0.000 
#
# Total GULP energy -496321.285548 kJ/mol
# GULP energy per Si atom -12408.032139 kJ/mol
# Density = 2.062816 g / cm^3
# Si number density = 20.675215 Si / 1000 Ang^3
#
#
#
# Elastic Constant Matrix: (Units=GPa)
#
#
# Indices 1 2 3 4 5 6 
#
# 1 47.1623 12.7455 10.5737 0.0000 0.0000 0.0000
# 2 12.7455 84.2703 37.8658 0.0000 0.0000 0.0000
# 3 10.5737 37.8658 131.8207 0.0000 0.0000 0.0000
# 4 0.0000 0.0000 0.0000 31.8918 0.0000 0.0000
# 5 0.0000 0.0000 0.0000 0.0000 35.8390 0.0000
# 6 0.0000 0.0000 0.0000 0.0000 0.0000 28.9564
#
#
#
# Elastic Compliance Matrix: (Units=1/GPa)
#
#
# Indices 1 2 3 4 5 6 
#
# 1 0.022207 -0.002938 -0.000938 0.000000 0.000000 0.000000
# 2 -0.002938 0.014014 -0.003790 0.000000 0.000000 0.000000
# 3 -0.000938 -0.003790 0.008750 0.000000 0.000000 0.000000
# 4 0.000000 0.000000 0.000000 0.031356 0.000000 0.000000
# 5 0.000000 0.000000 0.000000 0.000000 0.027903 0.000000
# 6 0.000000 0.000000 0.000000 0.000000 0.000000 0.034535
#
#
# Mechanical properties :
#
#
# Convention : Reuss Voigt Hill
#
# Bulk Modulus (GPa) = 33.73663 42.84701 38.29182
# Shear Modulus (GPa) = 30.49253 32.80867 31.65060
#
# Velocity S-wave (km/s) = 3.84452 3.98786 3.91685
# Velocity P-wave (km/s) = 6.00500 6.47865 6.24632
#
# Compressibility (1/GPa) = 0.02964137
#
# Stress axis : x y z
#
# Youngs Moduli (GPa) = 45.02998 71.35829 114.28689
#
# Poissons Ratio (x) = 0.20962 0.10714
# Poissons Ratio (y) = 0.13228 0.43313
# Poissons Ratio (z) = 0.04222 0.27044
#
# Static dielectric constant tensor:
#      x y z
#    x 3.619930 0.000000 0.000000 
#    y 0.000000 3.860790 0.000000 
#    z 0.000000 0.000000 2.960150 
# 
# 
# High freq. dielectric constant tensor:
#      x y z
#    x 1.809600 0.000000 0.000000 
#    y 0.000000 1.818300 0.000000 
#    z 0.000000 0.000000 1.816690 
# 
# From -- ./inp_files/29737.got.cif
#   From: 2010.03.12/outbox.cif.g09.slc.cpg/sg64_15_cif.got.tgz:29737.got - 2010.04.10 20:19:32.
