data_PCOD8264922
_publ_section_title
;
Structure prediction by ZEFSAII (Michael W. Deem and Ramdas Pophale) SiO2 
 PCOD8264922
Probable space group: C M C A
;
_chemical_formula_sum "Si O2"
_cell_formula_units_Z 56
_cell_length_a 21.310854
_cell_length_b 10.939609
_cell_length_c 9.539496
_cell_angle_alpha 90.000000
_cell_angle_beta 90.000000
_cell_angle_gamma 90.000000
_cell_volume 2223.965695
_symmetry_space_group_name_H-M "C M C A"
_symmetry_group_IT_number 64
_symmetry_cell_setting 'orthorhombic'
loop_
_space_group_symop_operation_xyz
x,y,z
-x,1/2-y,1/2+z
x,-y,-z
-x,1/2+y,1/2-z
-x,-y,-z
x,1/2+y,1/2-z
-x,y,z
x,1/2-y,1/2+z
1/2+x,1/2+y,z
1/2-x,-y,1/2+z
1/2+x,1/2-y,-z
1/2-x,y,1/2-z
1/2-x,1/2-y,-z
1/2+x,y,1/2-z
1/2-x,1/2+y,z
1/2+x,-y,1/2+z
loop_
_atom_site_type_symbol
_atom_site_label
_atom_site_fract_x
_atom_site_fract_y
_atom_site_fract_z
Si Si1 0.679456 0.674626 0.300458
Si Si2 0.368616 0.134320 0.489216
Si Si3 0.000000 0.872705 0.884616
Si Si4 0.500000 0.605787 0.672864
Si Si5 0.892360 0.000000 0.500000
O O1 0.750000 0.653283 0.250000
O O2 0.640110 0.695856 0.161258
O O3 0.669074 0.795054 0.391555
O O4 0.653266 0.559911 0.385927
O O5 0.443959 0.127220 0.500068
O O6 0.338627 0.000000 0.500000
O O7 0.000000 0.750700 0.783100
O O8 0.000000 0.995214 0.787070
O O9 0.437222 0.596529 0.578027
#
# Coordination Sequence:
#
# PCOD8264922 Si02
#       5
#    16  16   8   8   8
#     4  12  29  53  81 116 169 225 294 348 426 513
#     4  12  30  50  80 122 166 224 284 353 435 519
#     4  12  25  48  81 125 176 216 283 349 446 526
#     4  11  24  46  83 125 175 217 275 363 435 522
#     4  11  24  48  82 120 162 229 280 356 432 507
#
# _framework density 25.180246
#
# number of rings (size 3 to 8) (size 9 to 14) (size 15 to 20)
#    0.000    0.286    5.714    1.286   10.000    2.286 
#    0.000    0.000    0.000    0.000    0.000    0.000 
#    0.000    0.000    0.000    0.000    0.000    0.000 
#
# Total GULP energy -347003.292258 kJ/mol
# GULP energy per Si atom -12392.974723 kJ/mol
# Density = 2.512293 g / cm^3
# Si number density = 25.180246 Si / 1000 Ang^3
#
#
#
# Elastic Constant Matrix: (Units=GPa)
#
#
# Indices 1 2 3 4 5 6 
#
# 1 178.4259 36.5584 69.3641 0.0000 0.0000 0.0000
# 2 36.5584 178.0661 74.4555 0.0000 0.0000 0.0000
# 3 69.3641 74.4555 140.1912 0.0000 0.0000 0.0000
# 4 0.0000 0.0000 0.0000 51.2562 0.0000 0.0000
# 5 0.0000 0.0000 0.0000 0.0000 60.2492 0.0000
# 6 0.0000 0.0000 0.0000 0.0000 0.0000 28.2268
#
#
#
# Elastic Compliance Matrix: (Units=1/GPa)
#
#
# Indices 1 2 3 4 5 6 
#
# 1 0.006939 0.000014 -0.003441 0.000000 0.000000 0.000000
# 2 0.000014 0.007219 -0.003841 0.000000 0.000000 0.000000
# 3 -0.003441 -0.003841 0.010876 0.000000 0.000000 0.000000
# 4 0.000000 0.000000 0.000000 0.019510 0.000000 0.000000
# 5 0.000000 0.000000 0.000000 0.000000 0.016598 0.000000
# 6 0.000000 0.000000 0.000000 0.000000 0.000000 0.035427
#
#
# Mechanical properties :
#
#
# Convention : Reuss Voigt Hill
#
# Bulk Modulus (GPa) = 95.25391 95.27103 95.26247
# Shear Modulus (GPa) = 43.62845 49.03345 46.33095
#
# Velocity S-wave (km/s) = 4.16702 4.41761 4.29414
# Velocity P-wave (km/s) = 7.81428 7.99613 7.90573
#
# Compressibility (1/GPa) = 0.01049826
#
# Stress axis : x y z
#
# Youngs Moduli (GPa) = 144.10525 138.52224 91.94904
#
# Poissons Ratio (x) = -0.00195 0.31639
# Poissons Ratio (y) = -0.00203 0.35318
# Poissons Ratio (z) = 0.49586 0.53206
#
# Static dielectric constant tensor:
#      x y z
#    x 4.790610 0.000000 0.000000 
#    y 0.000000 4.580150 0.000000 
#    z 0.000000 0.000000 4.295030 
# 
# 
# High freq. dielectric constant tensor:
#      x y z
#    x 2.010400 0.000000 0.000000 
#    y 0.000000 2.021370 0.000000 
#    z 0.000000 0.000000 2.007150 
# 
# From -- ./inp_files/16730.got.cif
#   From: 2010.03.12/outbox.cif.g09.slc.cpg/sg64_9_cif.got.tgz:16730.got - 2010.04.10 20:19:32.
