data_PCOD8264691
_publ_section_title
;
Structure prediction by ZEFSAII (Michael W. Deem and Ramdas Pophale) SiO2 
 PCOD8264691
Probable space group: C M C A
;
_chemical_formula_sum "Si O2"
_cell_formula_units_Z 80
_cell_length_a 8.858347
_cell_length_b 27.755087
_cell_length_c 18.194076
_cell_angle_alpha 90.000000
_cell_angle_beta 90.000000
_cell_angle_gamma 90.000000
_cell_volume 4473.271789
_symmetry_space_group_name_H-M "C M C A"
_symmetry_group_IT_number 64
_symmetry_cell_setting 'orthorhombic'
loop_
_space_group_symop_operation_xyz
x,y,z
-x,1/2-y,1/2+z
x,-y,-z
-x,1/2+y,1/2-z
-x,-y,-z
x,1/2+y,1/2-z
-x,y,z
x,1/2-y,1/2+z
1/2+x,1/2+y,z
1/2-x,-y,1/2+z
1/2+x,1/2-y,-z
1/2-x,y,1/2-z
1/2-x,1/2-y,-z
1/2+x,y,1/2-z
1/2-x,1/2+y,z
1/2+x,-y,1/2+z
loop_
_atom_site_type_symbol
_atom_site_label
_atom_site_fract_x
_atom_site_fract_y
_atom_site_fract_z
Si Si1 0.321393 0.096089 0.674804
Si Si2 0.678796 0.193394 0.604593
Si Si3 0.821017 0.449438 0.473450
Si Si4 0.321458 0.351258 0.953757
Si Si5 0.320696 0.293116 0.670652
O O1 0.500000 0.094882 0.681794
O O2 0.250000 0.077235 0.750000
O O3 0.263817 0.150253 0.657096
O O4 0.265194 0.061183 0.609370
O O5 0.500000 0.193902 0.605714
O O6 0.731028 0.183579 0.520789
O O7 0.743825 0.243578 0.635175
O O8 0.748883 0.500000 0.500000
O O9 0.773214 0.406039 0.527512
O O10 0.000000 0.452692 0.473042
O O11 0.500000 0.347099 0.940155
O O12 0.231856 0.336839 0.880788
O O13 0.500000 0.292487 0.677363
O O14 0.250000 0.300892 0.750000
#
# Coordination Sequence:
#
# PCOD8264691 Si02
#       5
#    16  16  16  16  16
#     4   9  16  28  47  71  96 119 149 190 234 277
#     4   8  16  30  48  69  93 123 156 190 229 278
#     4   8  15  30  52  72  91 122 159 190 228 282
#     4   9  17  32  52  71  92 120 157 197 234 275
#     4  11  21  32  46  67  97 129 160 191 228 275
#
# _framework density 17.884001999999999
#
# number of rings (size 3 to 8) (size 9 to 14) (size 15 to 20)
#    0.000    3.000    0.000    4.200    0.000    0.000 
#    0.000    7.000    0.000    4.800    0.000    0.000 
#    0.000    0.000    0.000    0.000    0.000    0.000 
#
# Total GULP energy -495841.611374 kJ/mol
# GULP energy per Si atom -12396.040284 kJ/mol
# Density = 1.784330 g / cm^3
# Si number density = 17.884002 Si / 1000 Ang^3
#
#
#
# Elastic Constant Matrix: (Units=GPa)
#
#
# Indices 1 2 3 4 5 6 
#
# 1 35.5155 25.9122 35.8378 0.0000 0.0000 0.0000
# 2 25.9122 131.0564 88.6128 0.0000 0.0000 0.0000
# 3 35.8378 88.6128 160.2575 0.0000 0.0000 0.0000
# 4 0.0000 0.0000 0.0000 21.9958 0.0000 0.0000
# 5 0.0000 0.0000 0.0000 0.0000 26.1885 0.0000
# 6 0.0000 0.0000 0.0000 0.0000 0.0000 14.4506
#
#
#
# Elastic Compliance Matrix: (Units=1/GPa)
#
#
# Indices 1 2 3 4 5 6 
#
# 1 0.036971 -0.002747 -0.006749 0.000000 0.000000 0.000000
# 2 -0.002747 0.012390 -0.006237 0.000000 0.000000 0.000000
# 3 -0.006749 -0.006237 0.011198 0.000000 0.000000 0.000000
# 4 0.000000 0.000000 0.000000 0.045463 0.000000 0.000000
# 5 0.000000 0.000000 0.000000 0.000000 0.038185 0.000000
# 6 0.000000 0.000000 0.000000 0.000000 0.000000 0.069201
#
#
# Mechanical properties :
#
#
# Convention : Reuss Voigt Hill
#
# Bulk Modulus (GPa) = 34.37115 69.72832 52.04973
# Shear Modulus (GPa) = 19.64086 24.29141 21.96614
#
# Velocity S-wave (km/s) = 3.31756 3.68948 3.50845
# Velocity P-wave (km/s) = 5.82543 7.56462 6.75126
#
# Compressibility (1/GPa) = 0.02909417
#
# Stress axis : x y z
#
# Youngs Moduli (GPa) = 27.04837 80.70758 89.30269
#
# Poissons Ratio (x) = 0.22167 0.60270
# Poissons Ratio (y) = 0.07429 0.55698
# Poissons Ratio (z) = 0.18255 0.50337
#
# Static dielectric constant tensor:
#      x y z
#    x 2.845820 0.000000 0.000000 
#    y 0.000000 3.623320 0.000000 
#    z 0.000000 0.000000 3.421340 
# 
# 
# High freq. dielectric constant tensor:
#      x y z
#    x 1.652890 0.000000 0.000000 
#    y 0.000000 1.683490 0.000000 
#    z 0.000000 0.000000 1.697810 
# 
# From -- ./inp_files/22330.got.cif
#   From: 2010.03.12/outbox.cif.g09.slc.cpg/sg64_12_cif.got.tgz:22330.got - 2010.04.10 20:19:32.
