data_PCOD8264942
_publ_section_title
;
Structure prediction by ZEFSAII (Michael W. Deem and Ramdas Pophale) SiO2 
 PCOD8264942
Probable space group: C M C A
;
_chemical_formula_sum "Si O2"
_cell_formula_units_Z 80
_cell_length_a 17.716531
_cell_length_b 8.369669
_cell_length_c 24.249393
_cell_angle_alpha 90.000000
_cell_angle_beta 90.000000
_cell_angle_gamma 90.000000
_cell_volume 3595.736375
_symmetry_space_group_name_H-M "C M C A"
_symmetry_group_IT_number 64
_symmetry_cell_setting 'orthorhombic'
loop_
_space_group_symop_operation_xyz
x,y,z
-x,1/2-y,1/2+z
x,-y,-z
-x,1/2+y,1/2-z
-x,-y,-z
x,1/2+y,1/2-z
-x,y,z
x,1/2-y,1/2+z
1/2+x,1/2+y,z
1/2-x,-y,1/2+z
1/2+x,1/2-y,-z
1/2-x,y,1/2-z
1/2-x,1/2-y,-z
1/2+x,y,1/2-z
1/2-x,1/2+y,z
1/2+x,-y,1/2+z
loop_
_atom_site_type_symbol
_atom_site_label
_atom_site_fract_x
_atom_site_fract_y
_atom_site_fract_z
Si Si1 0.687977 0.823430 0.108735
Si Si2 0.846796 0.811106 0.586644
Si Si3 0.913512 0.341724 0.309854
Si Si4 0.171379 0.653414 0.279514
Si Si5 0.088063 0.177290 0.019065
O O1 0.770456 0.790889 0.084684
O O2 0.685200 0.784984 0.173500
O O3 0.670080 0.008175 0.102204
O O4 0.627709 0.714420 0.076887
O O5 0.905119 0.738226 0.630447
O O6 0.885043 0.803996 0.526748
O O7 0.890769 0.215222 0.263170
O O8 0.858534 0.492639 0.307174
O O9 0.000000 0.393099 0.301366
O O10 0.250000 0.614399 0.250000
O O11 0.000000 0.195133 0.029624
O O12 0.110273 0.000000 0.000000
#
# Coordination Sequence:
#
# PCOD8264942 Si02
#       5
#    16  16  16  16  16
#     4  12  26  44  73 102 139 188 242 296 354 429
#     4  12  25  45  70 105 140 187 239 292 358 428
#     4  12  26  44  70 104 145 185 237 299 359 422
#     4  12  25  45  72 103 139 191 241 292 357 428
#     4  11  25  46  72 103 145 189 235 296 362 428
#
# _framework density 22.248573
#
# number of rings (size 3 to 8) (size 9 to 14) (size 15 to 20)
#    0.000    0.200    2.000    7.800    0.000    5.600 
#    0.000    0.000    0.000    0.000    0.000    0.000 
#    0.000    0.000    0.000    0.000    0.000    0.000 
#
# Total GULP energy -496441.630059 kJ/mol
# GULP energy per Si atom -12411.040751 kJ/mol
# Density = 2.219793 g / cm^3
# Si number density = 22.248573 Si / 1000 Ang^3
#
#
#
# Elastic Constant Matrix: (Units=GPa)
#
#
# Indices 1 2 3 4 5 6 
#
# 1 133.6688 44.6988 43.2452 0.0000 0.0000 0.0000
# 2 44.6988 113.8408 13.8810 0.0000 0.0000 0.0000
# 3 43.2452 13.8810 98.9989 0.0000 0.0000 0.0000
# 4 0.0000 0.0000 0.0000 36.2295 0.0000 0.0000
# 5 0.0000 0.0000 0.0000 0.0000 37.4057 0.0000
# 6 0.0000 0.0000 0.0000 0.0000 0.0000 30.7545
#
#
#
# Elastic Compliance Matrix: (Units=1/GPa)
#
#
# Indices 1 2 3 4 5 6 
#
# 1 0.009858 -0.003404 -0.003829 0.000000 0.000000 0.000000
# 2 -0.003404 0.010112 0.000069 0.000000 0.000000 0.000000
# 3 -0.003829 0.000069 0.011764 0.000000 0.000000 0.000000
# 4 0.000000 0.000000 0.000000 0.027602 0.000000 0.000000
# 5 0.000000 0.000000 0.000000 0.000000 0.026734 0.000000
# 6 0.000000 0.000000 0.000000 0.000000 0.000000 0.032516
#
#
# Mechanical properties :
#
#
# Convention : Reuss Voigt Hill
#
# Bulk Modulus (GPa) = 57.44893 61.12874 59.28884
# Shear Modulus (GPa) = 36.04488 37.19017 36.61753
#
# Velocity S-wave (km/s) = 4.02941 4.09293 4.06129
# Velocity P-wave (km/s) = 6.89389 7.06194 6.97842
#
# Compressibility (1/GPa) = 0.01740676
#
# Stress axis : x y z
#
# Youngs Moduli (GPa) = 101.43818 98.88958 85.00463
#
# Poissons Ratio (x) = 0.33661 0.32549
# Poissons Ratio (y) = 0.34528 -0.00587
# Poissons Ratio (z) = 0.38841 -0.00682
#
# Static dielectric constant tensor:
#      x y z
#    x 4.005700 0.000000 0.000000 
#    y 0.000000 4.019200 0.000000 
#    z 0.000000 0.000000 4.228780 
# 
# 
# High freq. dielectric constant tensor:
#      x y z
#    x 1.883610 0.000000 0.000000 
#    y 0.000000 1.886990 0.000000 
#    z 0.000000 0.000000 1.891050 
# 
# From -- ./inp_files/50292.got.cif
#   From: 2010.03.12/outbox.cif.g09.slc.cpg/sg64_26_cif.got.tgz:50292.got - 2010.04.10 20:19:32.
