data_PCOD8264902
_publ_section_title
;
Structure prediction by ZEFSAII (Michael W. Deem and Ramdas Pophale) SiO2 
 PCOD8264902
Probable space group: C M C A
;
_chemical_formula_sum "Si O2"
_cell_formula_units_Z 80
_cell_length_a 15.229692
_cell_length_b 9.787565
_cell_length_c 26.725009
_cell_angle_alpha 90.000000
_cell_angle_beta 90.000000
_cell_angle_gamma 90.000000
_cell_volume 3983.672612
_symmetry_space_group_name_H-M "C M C A"
_symmetry_group_IT_number 64
_symmetry_cell_setting 'orthorhombic'
loop_
_space_group_symop_operation_xyz
x,y,z
-x,1/2-y,1/2+z
x,-y,-z
-x,1/2+y,1/2-z
-x,-y,-z
x,1/2+y,1/2-z
-x,y,z
x,1/2-y,1/2+z
1/2+x,1/2+y,z
1/2-x,-y,1/2+z
1/2+x,1/2-y,-z
1/2-x,y,1/2-z
1/2-x,1/2-y,-z
1/2+x,y,1/2-z
1/2-x,1/2+y,z
1/2+x,-y,1/2+z
loop_
_atom_site_type_symbol
_atom_site_label
_atom_site_fract_x
_atom_site_fract_y
_atom_site_fract_z
Si Si1 0.000000 0.355523 0.525977
Si Si2 0.166368 0.708397 0.406027
Si Si3 0.399315 0.200469 0.296285
Si Si4 0.898180 0.511607 0.207916
Si Si5 0.500000 0.393343 0.543783
Si Si6 0.171860 0.026020 0.399359
O O1 0.000000 0.500000 0.500000
O O2 0.084705 0.334496 0.560333
O O3 0.000000 0.256405 0.478778
O O4 0.150146 0.676829 0.348005
O O5 0.248935 0.615817 0.421537
O O6 0.186591 0.868267 0.414615
O O7 0.500000 0.163590 0.306494
O O8 0.360894 0.101098 0.253684
O O9 0.388798 0.354172 0.276412
O O10 0.837643 0.542743 0.160222
O O11 0.000000 0.547005 0.195842
O O12 0.500000 0.500000 0.500000
O O13 0.584268 0.414643 0.577457
#
# Coordination Sequence:
#
# PCOD8264902 Si02
#       6
#     8  16  16  16   8  16
#     4  12  28  48  69  94 128 164 215 272 326 382
#     4  11  24  44  66  96 133 168 212 264 321 379
#     4   9  18  36  63  90 127 169 207 256 309 375
#     4   9  18  36  61  92 126 167 212 251 310 378
#     4  12  24  48  73  88 124 174 209 262 332 382
#     4  11  24  42  68  97 129 169 215 262 318 385
#
# _framework density 20.081970999999999
#
# number of rings (size 3 to 8) (size 9 to 14) (size 15 to 20)
#    0.000    1.600    4.000    0.000    2.800    4.000 
#    0.000    4.000    0.000    0.000    0.000    0.000 
#    0.000    0.000    0.000    0.000    0.000    0.000 
#
# Total GULP energy -496093.418200 kJ/mol
# GULP energy per Si atom -12402.335455 kJ/mol
# Density = 2.003626 g / cm^3
# Si number density = 20.081971 Si / 1000 Ang^3
#
#
#
# Elastic Constant Matrix: (Units=GPa)
#
#
# Indices 1 2 3 4 5 6 
#
# 1 133.3097 74.3707 47.9157 0.0000 0.0000 0.0000
# 2 74.3707 156.0411 72.4890 0.0000 0.0000 0.0000
# 3 47.9157 72.4890 88.8168 0.0000 0.0000 0.0000
# 4 0.0000 0.0000 0.0000 43.4689 0.0000 0.0000
# 5 0.0000 0.0000 0.0000 0.0000 104.6466 0.0000
# 6 0.0000 0.0000 0.0000 0.0000 0.0000 33.1461
#
#
#
# Elastic Compliance Matrix: (Units=1/GPa)
#
#
# Indices 1 2 3 4 5 6 
#
# 1 0.010568 -0.003847 -0.002562 0.000000 0.000000 0.000000
# 2 -0.003847 0.011722 -0.007492 0.000000 0.000000 0.000000
# 3 -0.002562 -0.007492 0.018756 0.000000 0.000000 0.000000
# 4 0.000000 0.000000 0.000000 0.023005 0.000000 0.000000
# 5 0.000000 0.000000 0.000000 0.000000 0.009556 0.000000
# 6 0.000000 0.000000 0.000000 0.000000 0.000000 0.030170
#
#
# Mechanical properties :
#
#
# Convention : Reuss Voigt Hill
#
# Bulk Modulus (GPa) = 75.49923 85.30204 80.40063
# Shear Modulus (GPa) = 36.76643 48.47846 42.62245
#
# Velocity S-wave (km/s) = 4.28345 4.91861 4.61197
# Velocity P-wave (km/s) = 7.88296 8.65021 8.27548
#
# Compressibility (1/GPa) = 0.01324517
#
# Stress axis : x y z
#
# Youngs Moduli (GPa) = 94.62367 85.30618 53.31629
#
# Poissons Ratio (x) = 0.32816 0.13658
# Poissons Ratio (y) = 0.36400 0.39945
# Poissons Ratio (z) = 0.24241 0.63913
#
# Static dielectric constant tensor:
#      x y z
#    x 3.585270 0.000000 0.000000 
#    y 0.000000 3.717100 0.000000 
#    z 0.000000 0.000000 3.622020 
# 
# 
# High freq. dielectric constant tensor:
#      x y z
#    x 1.783370 0.000000 0.000000 
#    y 0.000000 1.788900 0.000000 
#    z 0.000000 0.000000 1.788340 
# 
# From -- ./inp_files/50324.got.cif
#   From: 2010.03.12/outbox.cif.g09.slc.cpg/sg64_26_cif.got.tgz:50324.got - 2010.04.10 20:19:32.
