data_PCOD8264534
_publ_section_title
;
Structure prediction by ZEFSAII (Michael W. Deem and Ramdas Pophale) SiO2 
 PCOD8264534
Probable space group: C M C A
;
_chemical_formula_sum "Si O2"
_cell_formula_units_Z 48
_cell_length_a 13.426615
_cell_length_b 9.636329
_cell_length_c 13.690769
_cell_angle_alpha 90.000000
_cell_angle_beta 90.000000
_cell_angle_gamma 90.000000
_cell_volume 1771.356592
_symmetry_space_group_name_H-M "C M C A"
_symmetry_group_IT_number 64
_symmetry_cell_setting 'orthorhombic'
loop_
_space_group_symop_operation_xyz
x,y,z
-x,1/2-y,1/2+z
x,-y,-z
-x,1/2+y,1/2-z
-x,-y,-z
x,1/2+y,1/2-z
-x,y,z
x,1/2-y,1/2+z
1/2+x,1/2+y,z
1/2-x,-y,1/2+z
1/2+x,1/2-y,-z
1/2-x,y,1/2-z
1/2-x,1/2-y,-z
1/2+x,y,1/2-z
1/2-x,1/2+y,z
1/2+x,-y,1/2+z
loop_
_atom_site_type_symbol
_atom_site_label
_atom_site_fract_x
_atom_site_fract_y
_atom_site_fract_z
Si Si1 0.107584 0.261752 0.933433
Si Si2 0.111948 0.454326 0.758287
Si Si3 0.313192 0.792277 0.138197
O O1 0.111117 0.399806 0.869054
O O2 0.202161 0.168058 0.901541
O O3 0.000000 0.185571 0.916822
O O4 0.112912 0.303853 0.047024
O O5 0.180689 0.363497 0.684640
O O6 0.154831 0.610436 0.770640
O O7 0.000000 0.458412 0.715334
#
# Coordination Sequence:
#
# PCOD8264534 Si02
#       3
#    16  16  16
#     4  10  23  44  72 103 139 188 240 289 348 423
#     4  11  23  43  72 103 138 183 234 291 357 422
#     4  11  24  44  73 106 142 183 236 297 355 419
#
# _framework density 27.097874000000001
#
# number of rings (size 3 to 8) (size 9 to 14) (size 15 to 20)
#    0.000    1.333    0.000    5.000    0.000    8.000 
#    0.000   10.000    0.000   32.000    0.000    0.000 
#    0.000    0.000    0.000    0.000    0.000    0.000 
#
# Total GULP energy -297460.623789 kJ/mol
# GULP energy per Si atom -12394.192658 kJ/mol
# Density = 2.703620 g / cm^3
# Si number density = 27.097874 Si / 1000 Ang^3
#
#
#
# Elastic Constant Matrix: (Units=GPa)
#
#
# Indices 1 2 3 4 5 6 
#
# 1 250.6631 26.8841 42.7359 0.0000 0.0000 0.0000
# 2 26.8841 95.8162 20.1502 0.0000 0.0000 0.0000
# 3 42.7359 20.1502 129.1083 0.0000 0.0000 0.0000
# 4 0.0000 0.0000 0.0000 36.8823 0.0000 0.0000
# 5 0.0000 0.0000 0.0000 0.0000 42.7951 0.0000
# 6 0.0000 0.0000 0.0000 0.0000 0.0000 14.1673
#
#
#
# Elastic Compliance Matrix: (Units=1/GPa)
#
#
# Indices 1 2 3 4 5 6 
#
# 1 0.004308 -0.000940 -0.001279 0.000000 0.000000 0.000000
# 2 -0.000940 0.010996 -0.001405 0.000000 0.000000 0.000000
# 3 -0.001279 -0.001405 0.008388 0.000000 0.000000 0.000000
# 4 0.000000 0.000000 0.000000 0.027113 0.000000 0.000000
# 5 0.000000 0.000000 0.000000 0.000000 0.023367 0.000000
# 6 0.000000 0.000000 0.000000 0.000000 0.000000 0.070585
#
#
# Mechanical properties :
#
#
# Convention : Reuss Voigt Hill
#
# Bulk Modulus (GPa) = 60.81300 72.79203 66.80252
# Shear Modulus (GPa) = 31.74851 44.49010 38.11930
#
# Velocity S-wave (km/s) = 3.42661 4.05635 3.75470
# Velocity P-wave (km/s) = 6.17627 6.98996 6.59567
#
# Compressibility (1/GPa) = 0.01644385
#
# Stress axis : x y z
#
# Youngs Moduli (GPa) = 232.10788 90.94368 119.21469
#
# Poissons Ratio (x) = 0.08547 0.15253
# Poissons Ratio (y) = 0.21813 0.16751
# Poissons Ratio (z) = 0.29696 0.12778
#
# Static dielectric constant tensor:
#      x y z
#    x 5.495110 0.000000 0.000000 
#    y 0.000000 4.210040 0.000000 
#    z 0.000000 0.000000 4.999980 
# 
# 
# High freq. dielectric constant tensor:
#      x y z
#    x 2.121510 0.000000 0.000000 
#    y 0.000000 2.040590 0.000000 
#    z 0.000000 0.000000 2.109110 
# 
# From -- ./inp_files/22954.got.cif
#   From: 2010.03.12/outbox.cif.g09.slc.cpg/sg64_12_cif.got.tgz:22954.got - 2010.04.10 20:19:32.
