data_PCOD8264365
_publ_section_title
;
Structure prediction by ZEFSAII (Michael W. Deem and Ramdas Pophale) SiO2 
 PCOD8264365
Probable space group: C M C A
;
_chemical_formula_sum "Si O2"
_cell_formula_units_Z 88
_cell_length_a 13.519606
_cell_length_b 20.575968
_cell_length_c 16.785723
_cell_angle_alpha 90.000000
_cell_angle_beta 90.000000
_cell_angle_gamma 90.000000
_cell_volume 4669.435310
_symmetry_space_group_name_H-M "C M C A"
_symmetry_group_IT_number 64
_symmetry_cell_setting 'orthorhombic'
loop_
_space_group_symop_operation_xyz
x,y,z
-x,1/2-y,1/2+z
x,-y,-z
-x,1/2+y,1/2-z
-x,-y,-z
x,1/2+y,1/2-z
-x,y,z
x,1/2-y,1/2+z
1/2+x,1/2+y,z
1/2-x,-y,1/2+z
1/2+x,1/2-y,-z
1/2-x,y,1/2-z
1/2-x,1/2-y,-z
1/2+x,y,1/2-z
1/2-x,1/2+y,z
1/2+x,-y,1/2+z
loop_
_atom_site_type_symbol
_atom_site_label
_atom_site_fract_x
_atom_site_fract_y
_atom_site_fract_z
Si Si1 0.500000 0.073733 0.289513
Si Si2 0.302663 0.198362 0.833811
Si Si3 0.164342 0.000000 0.500000
Si Si4 0.610451 0.669329 0.114234
Si Si5 0.500000 0.020324 0.120533
Si Si6 0.000000 0.877887 0.307695
Si Si7 0.690929 0.388175 0.045970
Si Si8 0.500000 0.931209 0.361820
O O1 0.402256 0.113160 0.318372
O O2 0.500000 0.070267 0.194056
O O3 0.500000 0.004138 0.330494
O O4 0.250000 0.188713 0.750000
O O5 0.323394 0.273763 0.849424
O O6 0.404405 0.159752 0.837115
O O7 0.230230 0.171283 0.901407
O O8 0.228645 0.944631 0.458833
O O9 0.097007 0.033486 0.432205
O O10 0.500000 0.694035 0.088462
O O11 0.667621 0.639529 0.040248
O O12 0.500000 0.947409 0.151779
O O13 0.000000 0.881810 0.212100
O O14 0.594871 0.420109 0.084243
#
# Coordination Sequence:
#
# PCOD8264365 Si02
#       8
#     8  16   8  16   8   8  16   8
#     4   9  21  42  68  88 128 175 206 266 341 373
#     4  12  24  41  68  92 127 176 222 266 321 389
#     4  11  24  37  66  98 134 167 214 269 342 396
#     4  10  23  42  62  89 133 170 211 273 322 384
#     4  10  22  42  62  94 132 168 209 273 332 399
#     4  11  20  42  62  93 125 159 217 272 316 376
#     4  12  23  40  64 100 127 172 217 272 333 388
#     4  11  21  38  70  94 127 160 220 280 316 384
#
# _framework density 18.845962
#
# number of rings (size 3 to 8) (size 9 to 14) (size 15 to 20)
#    0.545    0.545    5.455    1.636    0.000    2.545 
#    0.000    1.818    0.000    0.000    0.000    0.000 
#    0.000    0.000    0.000    0.000    0.000    0.000 
#
# Total GULP energy -545684.933616 kJ/mol
# GULP energy per Si atom -12401.930309 kJ/mol
# Density = 1.880307 g / cm^3
# Si number density = 18.845962 Si / 1000 Ang^3
#
#
#
# Elastic Constant Matrix: (Units=GPa)
#
#
# Indices 1 2 3 4 5 6 
#
# 1 114.4276 33.7009 50.7579 0.0000 0.0000 0.0000
# 2 33.7009 86.8897 41.8067 0.0000 0.0000 0.0000
# 3 50.7579 41.8067 130.4323 0.0000 0.0000 0.0000
# 4 0.0000 0.0000 0.0000 31.9272 0.0000 0.0000
# 5 0.0000 0.0000 0.0000 0.0000 14.2847 0.0000
# 6 0.0000 0.0000 0.0000 0.0000 0.0000 9.7394
#
#
#
# Elastic Compliance Matrix: (Units=1/GPa)
#
#
# Indices 1 2 3 4 5 6 
#
# 1 0.011045 -0.002620 -0.003458 0.000000 0.000000 0.000000
# 2 -0.002620 0.014229 -0.003541 0.000000 0.000000 0.000000
# 3 -0.003458 -0.003541 0.010148 0.000000 0.000000 0.000000
# 4 0.000000 0.000000 0.000000 0.031321 0.000000 0.000000
# 5 0.000000 0.000000 0.000000 0.000000 0.070005 0.000000
# 6 0.000000 0.000000 0.000000 0.000000 0.000000 0.102676
#
#
# Mechanical properties :
#
#
# Convention : Reuss Voigt Hill
#
# Bulk Modulus (GPa) = 61.79506 64.92005 63.35756
# Shear Modulus (GPa) = 18.93536 24.88919 21.91228
#
# Velocity S-wave (km/s) = 3.17321 3.63804 3.41354
# Velocity P-wave (km/s) = 6.80341 7.22285 7.01627
#
# Compressibility (1/GPa) = 0.01618252
#
# Stress axis : x y z
#
# Youngs Moduli (GPa) = 90.54019 70.28006 98.54473
#
# Poissons Ratio (x) = 0.18412 0.34081
# Poissons Ratio (y) = 0.23720 0.34896
# Poissons Ratio (z) = 0.31312 0.24887
#
# Static dielectric constant tensor:
#      x y z
#    x 3.490980 0.000000 0.000000 
#    y 0.000000 3.410400 0.000000 
#    z 0.000000 0.000000 3.590120 
# 
# 
# High freq. dielectric constant tensor:
#      x y z
#    x 1.739330 0.000000 0.000000 
#    y 0.000000 1.731200 0.000000 
#    z 0.000000 0.000000 1.741620 
# 
# From -- ./inp_files/32233.got.cif
#   From: 2010.03.12/outbox.cif.g09.slc.cpg/sg64_17_cif.got.tgz:32233.got - 2010.04.10 20:19:32.
