data_PCOD8264774
_publ_section_title
;
Structure prediction by ZEFSAII (Michael W. Deem and Ramdas Pophale) SiO2 
 PCOD8264774
Probable space group: C M C A
;
_chemical_formula_sum "Si O2"
_cell_formula_units_Z 64
_cell_length_a 16.235489
_cell_length_b 10.633593
_cell_length_c 17.459438
_cell_angle_alpha 90.000000
_cell_angle_beta 90.000000
_cell_angle_gamma 90.000000
_cell_volume 3014.225000
_symmetry_space_group_name_H-M "C M C A"
_symmetry_group_IT_number 64
_symmetry_cell_setting 'orthorhombic'
loop_
_space_group_symop_operation_xyz
x,y,z
-x,1/2-y,1/2+z
x,-y,-z
-x,1/2+y,1/2-z
-x,-y,-z
x,1/2+y,1/2-z
-x,y,z
x,1/2-y,1/2+z
1/2+x,1/2+y,z
1/2-x,-y,1/2+z
1/2+x,1/2-y,-z
1/2-x,y,1/2-z
1/2-x,1/2-y,-z
1/2+x,y,1/2-z
1/2-x,1/2+y,z
1/2+x,-y,1/2+z
loop_
_atom_site_type_symbol
_atom_site_label
_atom_site_fract_x
_atom_site_fract_y
_atom_site_fract_z
Si Si1 0.343027 0.613210 0.954805
Si Si2 0.665174 0.879550 0.970363
Si Si3 0.904577 0.130896 0.789933
Si Si4 0.665206 0.899769 0.791966
O O1 0.383024 0.747385 0.980654
O O2 0.352414 0.591110 0.864623
O O3 0.387887 0.500000 0.000000
O O4 0.246699 0.618983 0.976389
O O5 0.685898 0.893364 0.881325
O O6 0.611666 0.000000 0.000000
O O7 0.878112 0.270853 0.762446
O O8 0.000000 0.135264 0.811792
O O9 0.889578 0.024018 0.725631
O O10 0.750000 0.917285 0.750000
#
# Coordination Sequence:
#
# PCOD8264774 Si02
#       4
#    16  16  16  16
#     4   9  18  33  54  80 111 148 190 236 287 344
#     4   9  18  33  55  83 112 143 191 246 288 333
#     4  11  24  40  59  88 126 160 193 244 307 362
#     4  11  22  38  63  90 117 156 206 249 290 353
#
# _framework density 21.232654
#
# number of rings (size 3 to 8) (size 9 to 14) (size 15 to 20)
#    0.000    2.000    0.000    4.500    0.000    8.500 
#    0.000    0.000    0.000   21.750    0.000    0.000 
#    0.000    0.000    0.000    0.000    0.000    0.000 
#
# Total GULP energy -396455.900242 kJ/mol
# GULP energy per Si atom -12389.246883 kJ/mol
# Density = 2.118433 g / cm^3
# Si number density = 21.232654 Si / 1000 Ang^3
#
#
#
# Elastic Constant Matrix: (Units=GPa)
#
#
# Indices 1 2 3 4 5 6 
#
# 1 59.4145 17.8372 23.0832 0.0000 0.0000 0.0000
# 2 17.8372 200.4232 33.7801 0.0000 0.0000 0.0000
# 3 23.0832 33.7801 57.4089 0.0000 0.0000 0.0000
# 4 0.0000 0.0000 0.0000 42.5084 0.0000 0.0000
# 5 0.0000 0.0000 0.0000 0.0000 12.6249 0.0000
# 6 0.0000 0.0000 0.0000 0.0000 0.0000 18.8103
#
#
#
# Elastic Compliance Matrix: (Units=1/GPa)
#
#
# Indices 1 2 3 4 5 6 
#
# 1 0.019987 -0.000471 -0.007759 0.000000 0.000000 0.000000
# 2 -0.000471 0.005550 -0.003076 0.000000 0.000000 0.000000
# 3 -0.007759 -0.003076 0.022349 0.000000 0.000000 0.000000
# 4 0.000000 0.000000 0.000000 0.023525 0.000000 0.000000
# 5 0.000000 0.000000 0.000000 0.000000 0.079208 0.000000
# 6 0.000000 0.000000 0.000000 0.000000 0.000000 0.053162
#
#
# Mechanical properties :
#
#
# Convention : Reuss Voigt Hill
#
# Bulk Modulus (GPa) = 39.56851 51.84972 45.70912
# Shear Modulus (GPa) = 21.29308 30.95848 26.12578
#
# Velocity S-wave (km/s) = 3.17021 3.82260 3.51159
# Velocity P-wave (km/s) = 5.66361 6.62992 6.16572
#
# Compressibility (1/GPa) = 0.02527262
#
# Stress axis : x y z
#
# Youngs Moduli (GPa) = 50.03278 180.18545 44.74496
#
# Poissons Ratio (x) = 0.08487 0.34719
# Poissons Ratio (y) = 0.02357 0.13764
# Poissons Ratio (z) = 0.38822 0.55429
#
# Static dielectric constant tensor:
#      x y z
#    x 3.284540 0.000000 0.000000 
#    y 0.000000 5.530940 0.000000 
#    z 0.000000 0.000000 3.877600 
# 
# 
# High freq. dielectric constant tensor:
#      x y z
#    x 1.777150 0.000000 0.000000 
#    y 0.000000 1.877580 0.000000 
#    z 0.000000 0.000000 1.827950 
# 
# From -- ./inp_files/24862.got.cif
#   From: 2010.03.12/outbox.cif.g09.slc.cpg/sg64_13_cif.got.tgz:24862.got - 2010.04.10 20:19:32.
