data_PCOD8264907
_publ_section_title
;
Structure prediction by ZEFSAII (Michael W. Deem and Ramdas Pophale) SiO2 
 PCOD8264907
Probable space group: C M C A
;
_chemical_formula_sum "Si O2"
_cell_formula_units_Z 64
_cell_length_a 9.955028
_cell_length_b 9.657080
_cell_length_c 31.788916
_cell_angle_alpha 90.000000
_cell_angle_beta 90.000000
_cell_angle_gamma 90.000000
_cell_volume 3056.075180
_symmetry_space_group_name_H-M "C M C A"
_symmetry_group_IT_number 64
_symmetry_cell_setting 'orthorhombic'
loop_
_space_group_symop_operation_xyz
x,y,z
-x,1/2-y,1/2+z
x,-y,-z
-x,1/2+y,1/2-z
-x,-y,-z
x,1/2+y,1/2-z
-x,y,z
x,1/2-y,1/2+z
1/2+x,1/2+y,z
1/2-x,-y,1/2+z
1/2+x,1/2-y,-z
1/2-x,y,1/2-z
1/2-x,1/2-y,-z
1/2+x,y,1/2-z
1/2-x,1/2+y,z
1/2+x,-y,1/2+z
loop_
_atom_site_type_symbol
_atom_site_label
_atom_site_fract_x
_atom_site_fract_y
_atom_site_fract_z
Si Si1 0.000000 0.620936 0.288049
Si Si2 0.500000 0.365750 0.443622
Si Si3 0.000000 0.058921 0.705147
Si Si4 0.725619 0.724777 0.902983
Si Si5 0.000000 0.810374 0.538476
Si Si6 0.262974 0.517986 0.154161
O O1 0.000000 0.783901 0.278402
O O2 0.867095 0.581607 0.313259
O O3 0.000000 0.543684 0.244117
O O4 0.626299 0.316778 0.416967
O O5 0.500000 0.289869 0.488556
O O6 0.500000 0.529628 0.448871
O O7 0.869140 0.032946 0.677692
O O8 0.630644 0.732572 0.943631
O O9 0.670199 0.611949 0.869846
O O10 0.722382 0.872242 0.880881
#
# Coordination Sequence:
#
# PCOD8264907 Si02
#       6
#     8   8   8  16   8  16
#     4  12  28  46  68 101 136 174 221 273 332 399
#     4  11  24  44  65 101 141 171 222 282 330 396
#     4  12  28  47  67 102 137 174 219 275 334 397
#     4  12  23  45  70  99 131 180 223 274 331 392
#     4  11  24  43  68  98 138 181 216 276 342 390
#     4  12  25  45  72  96 137 174 224 277 326 394
#
# _framework density 20.941894000000001
#
# number of rings (size 3 to 8) (size 9 to 14) (size 15 to 20)
#    0.000    0.250    5.000    4.500    3.500    2.000 
#    0.000    1.250    0.000    0.000    0.000    0.000 
#    0.000    0.000    0.000    0.000    0.000    0.000 
#
# Total GULP energy -397027.595610 kJ/mol
# GULP energy per Si atom -12407.112363 kJ/mol
# Density = 2.089423 g / cm^3
# Si number density = 20.941894 Si / 1000 Ang^3
#
#
#
# Elastic Constant Matrix: (Units=GPa)
#
#
# Indices 1 2 3 4 5 6 
#
# 1 -159.5359 348.2528 13.6415 0.0000 0.0000 0.0000
# 2 348.2528 -267.8916 51.5805 0.0000 0.0000 0.0000
# 3 13.6415 51.5805 104.4945 0.0000 0.0000 0.0000
# 4 0.0000 0.0000 0.0000 28.1432 0.0000 0.0000
# 5 0.0000 0.0000 0.0000 0.0000 529.0836 0.0000
# 6 0.0000 0.0000 0.0000 0.0000 0.0000 19.7748
#
#
#
# Elastic Compliance Matrix: (Units=1/GPa)
#
#
# Indices 1 2 3 4 5 6 
#
# 1 0.004232 0.004927 -0.002985 0.000000 0.000000 0.000000
# 2 0.004927 0.002327 -0.001792 0.000000 0.000000 0.000000
# 3 -0.002985 -0.001792 0.010844 0.000000 0.000000 0.000000
# 4 0.000000 0.000000 0.000000 0.035533 0.000000 0.000000
# 5 0.000000 0.000000 0.000000 0.000000 0.001890 0.000000
# 6 0.000000 0.000000 0.000000 0.000000 0.000000 0.050569
#
#
# Mechanical properties :
#
#
# Convention : Reuss Voigt Hill
#
# Bulk Modulus (GPa) = 56.48206 56.00187 56.24197
# Shear Modulus (GPa) = 45.04642 66.30645 55.67643
#
# Velocity S-wave (km/s) = 4.64294 5.63301 5.16177
# Velocity P-wave (km/s) = 7.46806 8.31309 7.90188
#
# Compressibility (1/GPa) = 0.01770474
#
# Stress axis : x y z
#
# Youngs Moduli (GPa) = 236.27721 429.66736 92.21578
#
# Poissons Ratio (x) = -2.11707 0.27524
# Poissons Ratio (y) = -1.16419 0.16526
# Poissons Ratio (z) = 0.70522 0.77000
#
# Static dielectric constant tensor:
#      x y z
#    x 3.864000 0.000000 0.000000 
#    y 0.000000 4.247140 0.000000 
#    z 0.000000 0.000000 4.050690 
# 
# 
# High freq. dielectric constant tensor:
#      x y z
#    x 1.831690 0.000000 0.000000 
#    y 0.000000 1.834110 0.000000 
#    z 0.000000 0.000000 1.836260 
# 
# From -- ./inp_files/51589.got.cif
#   From: 2010.03.12/outbox.cif.g09.slc.cpg/sg64_26_cif.got.tgz:51589.got - 2010.04.10 20:19:32.
