data_PCOD8264196
_publ_section_title
;
Structure prediction by ZEFSAII (Michael W. Deem and Ramdas Pophale) SiO2 
 PCOD8264196
Probable space group: C M C A
;
_chemical_formula_sum "Si O2"
_cell_formula_units_Z 56
_cell_length_a 22.805971
_cell_length_b 13.314586
_cell_length_c 8.485932
_cell_angle_alpha 90.000000
_cell_angle_beta 90.000000
_cell_angle_gamma 90.000000
_cell_volume 2576.770751
_symmetry_space_group_name_H-M "C M C A"
_symmetry_group_IT_number 64
_symmetry_cell_setting 'orthorhombic'
loop_
_space_group_symop_operation_xyz
x,y,z
-x,1/2-y,1/2+z
x,-y,-z
-x,1/2+y,1/2-z
-x,-y,-z
x,1/2+y,1/2-z
-x,y,z
x,1/2-y,1/2+z
1/2+x,1/2+y,z
1/2-x,-y,1/2+z
1/2+x,1/2-y,-z
1/2-x,y,1/2-z
1/2-x,1/2-y,-z
1/2+x,y,1/2-z
1/2-x,1/2+y,z
1/2+x,-y,1/2+z
loop_
_atom_site_type_symbol
_atom_site_label
_atom_site_fract_x
_atom_site_fract_y
_atom_site_fract_z
Si Si1 0.567184 0.480369 0.182884
Si Si2 0.841449 0.382290 0.865594
Si Si3 0.651707 0.830275 0.227593
Si Si4 0.250000 0.524434 0.750000
O O1 0.500000 0.492215 0.233506
O O2 0.604617 0.553740 0.295715
O O3 0.588244 0.365017 0.208042
O O4 0.576809 0.500000 0.000000
O O5 0.833866 0.285139 0.756230
O O6 0.782318 0.449409 0.872104
O O7 0.851026 0.347118 0.041623
O O8 0.699746 0.901038 0.318057
#
# Coordination Sequence:
#
# PCOD8264196 Si02
#       4
#    16  16  16   8
#     4  10  22  41  64  89 119 156 199 248 299 352
#     4  11  24  40  62  90 121 159 199 244 297 353
#     4  11  24  40  62  90 121 159 199 244 297 353
#     4  10  22  38  60  86 118 154 196 240 292 346
#
# _framework density 21.732626
#
# number of rings (size 3 to 8) (size 9 to 14) (size 15 to 20)
#    0.000    1.429    0.000    6.000    0.000   19.429 
#    0.000    0.000    0.000    0.000    0.000    0.000 
#    0.000    0.000    0.000    0.000    0.000    0.000 
#
# Total GULP energy -346925.203511 kJ/mol
# GULP energy per Si atom -12390.185840 kJ/mol
# Density = 2.168316 g / cm^3
# Si number density = 21.732626 Si / 1000 Ang^3
#
#
#
# Elastic Constant Matrix: (Units=GPa)
#
#
# Indices 1 2 3 4 5 6 
#
# 1 131.2792 57.1530 57.3898 0.0000 0.0000 0.0000
# 2 57.1530 145.5082 24.6673 0.0000 0.0000 0.0000
# 3 57.3898 24.6673 82.8051 0.0000 0.0000 0.0000
# 4 0.0000 0.0000 0.0000 38.0170 0.0000 0.0000
# 5 0.0000 0.0000 0.0000 0.0000 20.4630 0.0000
# 6 0.0000 0.0000 0.0000 0.0000 0.0000 16.1723
#
#
#
# Elastic Compliance Matrix: (Units=1/GPa)
#
#
# Indices 1 2 3 4 5 6 
#
# 1 0.012517 -0.003629 -0.007594 0.000000 0.000000 0.000000
# 2 -0.003629 0.008290 0.000046 0.000000 0.000000 0.000000
# 3 -0.007594 0.000046 0.017326 0.000000 0.000000 0.000000
# 4 0.000000 0.000000 0.000000 0.026304 0.000000 0.000000
# 5 0.000000 0.000000 0.000000 0.000000 0.048869 0.000000
# 6 0.000000 0.000000 0.000000 0.000000 0.000000 0.061834
#
#
# Mechanical properties :
#
#
# Convention : Reuss Voigt Hill
#
# Bulk Modulus (GPa) = 63.37832 70.89030 67.13431
# Shear Modulus (GPa) = 24.66029 29.62263 27.14146
#
# Velocity S-wave (km/s) = 3.37220 3.69595 3.53778
# Velocity P-wave (km/s) = 6.66246 7.13467 6.90261
#
# Compressibility (1/GPa) = 0.01577827
#
# Stress axis : x y z
#
# Youngs Moduli (GPa) = 79.89034 120.62465 57.71586
#
# Poissons Ratio (x) = 0.43776 0.43830
# Poissons Ratio (y) = 0.28993 -0.00263
# Poissons Ratio (z) = 0.60670 -0.00550
#
# Static dielectric constant tensor:
#      x y z
#    x 4.178540 0.000000 0.000000 
#    y 0.000000 4.433840 0.000000 
#    z 0.000000 0.000000 3.737300 
# 
# 
# High freq. dielectric constant tensor:
#      x y z
#    x 1.851900 0.000000 0.000000 
#    y 0.000000 1.868040 0.000000 
#    z 0.000000 0.000000 1.853970 
# 
# From -- ./inp_files/8905.got.cif
#   From: 2010.03.12/outbox.cif.g09.slc.cpg/sg64_5_cif.got.tgz:8905.got - 2010.04.10 20:19:32.
