data_PCOD8264807
_publ_section_title
;
Structure prediction by ZEFSAII (Michael W. Deem and Ramdas Pophale) SiO2 
 PCOD8264807
Probable space group: C M C A
;
_chemical_formula_sum "Si O2"
_cell_formula_units_Z 96
_cell_length_a 21.280620
_cell_length_b 14.227593
_cell_length_c 14.417952
_cell_angle_alpha 90.000000
_cell_angle_beta 90.000000
_cell_angle_gamma 90.000000
_cell_volume 4365.352165
_symmetry_space_group_name_H-M "C M C A"
_symmetry_group_IT_number 64
_symmetry_cell_setting 'orthorhombic'
loop_
_space_group_symop_operation_xyz
x,y,z
-x,1/2-y,1/2+z
x,-y,-z
-x,1/2+y,1/2-z
-x,-y,-z
x,1/2+y,1/2-z
-x,y,z
x,1/2-y,1/2+z
1/2+x,1/2+y,z
1/2-x,-y,1/2+z
1/2+x,1/2-y,-z
1/2-x,y,1/2-z
1/2-x,1/2-y,-z
1/2+x,y,1/2-z
1/2-x,1/2+y,z
1/2+x,-y,1/2+z
loop_
_atom_site_type_symbol
_atom_site_label
_atom_site_fract_x
_atom_site_fract_y
_atom_site_fract_z
Si Si1 0.426523 0.003565 0.240801
Si Si2 0.655113 0.574670 0.427716
Si Si3 0.879028 0.254422 0.041770
Si Si4 0.754544 0.771542 0.641351
Si Si5 0.369758 0.839129 0.365484
Si Si6 0.568296 0.788975 0.725723
O O1 0.500000 0.974698 0.223871
O O2 0.388673 0.016855 0.145092
O O3 0.421836 0.101380 0.295178
O O4 0.391853 0.929900 0.309101
O O5 0.682830 0.500000 0.500000
O O6 0.613328 0.649925 0.484096
O O7 0.714298 0.628744 0.384858
O O8 0.810090 0.239240 0.085963
O O9 0.926648 0.262508 0.126967
O O10 0.898734 0.170031 0.969519
O O11 0.750000 0.773875 0.750000
O O12 0.795248 0.677372 0.616621
O O13 0.383969 0.746609 0.303037
O O14 0.500000 0.767155 0.767094
#
# Coordination Sequence:
#
# PCOD8264807 Si02
#       6
#    16  16  16  16  16  16
#     4  11  24  43  66  98 137 179 229 279 336 412
#     4  11  23  41  65  99 132 169 228 279 336 404
#     4  11  23  45  67  98 136 181 228 279 346 411
#     4  11  22  46  67  94 138 176 221 281 346 411
#     4  11  22  42  67  94 135 179 223 278 345 400
#     4  11  23  42  66  96 133 176 224 278 342 405
#
# _framework density 21.991354000000001
#
# number of rings (size 3 to 8) (size 9 to 14) (size 15 to 20)
#    0.000    1.000    5.000    3.500    0.000    3.000 
#   12.000    1.667    0.000    0.000    0.000    0.000 
#    0.000    0.000    0.000    0.000    0.000    0.000 
#
# Total GULP energy -594632.457944 kJ/mol
# GULP energy per Si atom -12388.176207 kJ/mol
# Density = 2.194130 g / cm^3
# Si number density = 21.991354 Si / 1000 Ang^3
#
#
#
# Elastic Constant Matrix: (Units=GPa)
#
#
# Indices 1 2 3 4 5 6 
#
# 1 51.7551 22.3889 9.8314 0.0000 0.0000 0.0000
# 2 22.3889 63.7760 13.1283 0.0000 0.0000 0.0000
# 3 9.8314 13.1283 127.4707 0.0000 0.0000 0.0000
# 4 0.0000 0.0000 0.0000 57.1805 0.0000 0.0000
# 5 0.0000 0.0000 0.0000 0.0000 12.0692 0.0000
# 6 0.0000 0.0000 0.0000 0.0000 0.0000 21.6266
#
#
#
# Elastic Compliance Matrix: (Units=1/GPa)
#
#
# Indices 1 2 3 4 5 6 
#
# 1 0.022895 -0.007840 -0.000958 0.000000 0.000000 0.000000
# 2 -0.007840 0.018704 -0.001322 0.000000 0.000000 0.000000
# 3 -0.000958 -0.001322 0.008055 0.000000 0.000000 0.000000
# 4 0.000000 0.000000 0.000000 0.017488 0.000000 0.000000
# 5 0.000000 0.000000 0.000000 0.000000 0.082856 0.000000
# 6 0.000000 0.000000 0.000000 0.000000 0.000000 0.046239
#
#
# Mechanical properties :
#
#
# Convention : Reuss Voigt Hill
#
# Bulk Modulus (GPa) = 33.99732 37.07768 35.53750
# Shear Modulus (GPa) = 22.09615 31.35214 26.72415
#
# Velocity S-wave (km/s) = 3.17324 3.77988 3.48977
# Velocity P-wave (km/s) = 5.37763 5.99556 5.69498
#
# Compressibility (1/GPa) = 0.02941409
#
# Stress axis : x y z
#
# Youngs Moduli (GPa) = 43.67676 53.46364 124.14680
#
# Poissons Ratio (x) = 0.41917 0.11898
# Poissons Ratio (y) = 0.34244 0.16408
# Poissons Ratio (z) = 0.04186 0.07066
#
# Static dielectric constant tensor:
#      x y z
#    x 3.975840 0.000000 0.000000 
#    y 0.000000 3.933980 0.000000 
#    z 0.000000 0.000000 4.436900 
# 
# 
# High freq. dielectric constant tensor:
#      x y z
#    x 1.857370 0.000000 0.000000 
#    y 0.000000 1.854500 0.000000 
#    z 0.000000 0.000000 1.889460 
# 
# From -- ./inp_files/26289.got.cif
#   From: 2010.03.12/outbox.cif.g09.slc.cpg/sg64_14_cif.got.tgz:26289.got - 2010.04.10 20:19:32.
