data_PCOD8265888
_publ_section_title
;
Structure prediction by ZEFSAII (Michael W. Deem and Ramdas Pophale) SiO2 
 PCOD8265888
Probable space group: C M M M
;
_chemical_formula_sum "Si O2"
_cell_formula_units_Z 88
_cell_length_a 20.279610
_cell_length_b 24.898253
_cell_length_c 9.843670
_cell_angle_alpha 90.000000
_cell_angle_beta 90.000000
_cell_angle_gamma 90.000000
_cell_volume 4970.333389
_symmetry_space_group_name_H-M "C M M M"
_symmetry_group_IT_number 65
_symmetry_cell_setting 'orthorhombic'
loop_
_space_group_symop_operation_xyz
x,y,z
-x,-y,z
x,-y,-z
-x,y,-z
-x,-y,-z
x,y,-z
-x,y,z
x,-y,z
1/2+x,1/2+y,z
1/2-x,1/2-y,z
1/2+x,1/2-y,-z
1/2-x,1/2+y,-z
1/2-x,1/2-y,-z
1/2+x,1/2+y,-z
1/2-x,1/2+y,z
1/2+x,1/2-y,z
loop_
_atom_site_type_symbol
_atom_site_label
_atom_site_fract_x
_atom_site_fract_y
_atom_site_fract_z
Si Si1 0.290006 0.363236 0.652644
Si Si2 0.750000 0.250000 0.247677
Si Si3 0.390844 0.769191 0.846607
Si Si4 0.427926 0.675719 0.654353
Si Si5 0.204560 0.438433 0.840871
Si Si6 0.927839 0.386969 0.839080
O O1 0.276652 0.384360 0.500000
O O2 0.265318 0.301733 0.659515
O O3 0.368460 0.365383 0.688166
O O4 0.255058 0.401428 0.760048
O O5 0.688020 0.237045 0.152541
O O6 0.426718 0.726806 0.751693
O O7 0.410266 0.827367 0.788446
O O8 0.416512 0.761332 0.000000
O O9 0.418447 0.696368 0.500000
O O10 0.500000 0.647628 0.671954
O O11 0.221866 0.500000 0.811186
O O12 0.129631 0.427357 0.790027
O O13 0.211785 0.424404 0.000000
O O14 0.000000 0.404360 0.781105
O O15 0.930447 0.387637 0.000000
#
# Coordination Sequence:
#
# PCOD8265888 Si02
#       6
#    16   8  16  16  16  16
#     4  10  20  34  55  79 104 135 173 214 258 313
#     4  10  18  30  50  78 108 136 170 210 262 312
#     4  10  18  28  47  74 106 140 173 211 252 302
#     4   9  19  34  50  73 107 141 169 204 256 315
#     4  10  21  37  55  76 103 136 176 220 266 310
#     4   9  17  30  48  72 101 133 173 216 255 297
#
# _framework density 17.705048999999999
#
# number of rings (size 3 to 8) (size 9 to 14) (size 15 to 20)
#    0.000    2.364    1.818    1.091    0.000    5.455 
#    0.000    1.818    0.000    1.091    0.000    5.091 
#    0.000    0.000    0.000    0.000    0.000    0.000 
#
# Total GULP energy -545367.264223 kJ/mol
# GULP energy per Si atom -12394.710551 kJ/mol
# Density = 1.766475 g / cm^3
# Si number density = 17.705049 Si / 1000 Ang^3
#
#
#
# Elastic Constant Matrix: (Units=GPa)
#
#
# Indices 1 2 3 4 5 6 
#
# 1 152.4719 56.9923 41.3465 0.0000 0.0000 0.0000
# 2 56.9923 84.2783 40.6153 0.0000 0.0000 0.0000
# 3 41.3465 40.6153 65.5529 0.0000 0.0000 0.0000
# 4 0.0000 0.0000 0.0000 15.6706 0.0000 0.0000
# 5 0.0000 0.0000 0.0000 0.0000 18.8065 0.0000
# 6 0.0000 0.0000 0.0000 0.0000 0.0000 18.2270
#
#
#
# Elastic Compliance Matrix: (Units=1/GPa)
#
#
# Indices 1 2 3 4 5 6 
#
# 1 0.009112 -0.004836 -0.002751 0.000000 0.000000 0.000000
# 2 -0.004836 0.019483 -0.009021 0.000000 0.000000 0.000000
# 3 -0.002751 -0.009021 0.022579 0.000000 0.000000 0.000000
# 4 0.000000 0.000000 0.000000 0.063814 0.000000 0.000000
# 5 0.000000 0.000000 0.000000 0.000000 0.053173 0.000000
# 6 0.000000 0.000000 0.000000 0.000000 0.000000 0.054864
#
#
# Mechanical properties :
#
#
# Convention : Reuss Voigt Hill
#
# Bulk Modulus (GPa) = 55.68483 64.46793 60.07638
# Shear Modulus (GPa) = 19.06734 21.43075 20.24905
#
# Velocity S-wave (km/s) = 3.28524 3.48290 3.38551
# Velocity P-wave (km/s) = 6.77570 7.25709 7.02052
#
# Compressibility (1/GPa) = 0.01795821
#
# Stress axis : x y z
#
# Youngs Moduli (GPa) = 109.74099 51.32554 44.28846
#
# Poissons Ratio (x) = 0.24823 0.12183
# Poissons Ratio (y) = 0.53075 0.39953
# Poissons Ratio (z) = 0.30189 0.46301
#
# Static dielectric constant tensor:
#      x y z
#    x 3.733170 0.000000 0.000000 
#    y 0.000000 3.019080 0.000000 
#    z 0.000000 0.000000 3.048600 
# 
# 
# High freq. dielectric constant tensor:
#      x y z
#    x 1.704810 0.000000 0.000000 
#    y 0.000000 1.650180 0.000000 
#    z 0.000000 0.000000 1.665140 
# 
# From -- ./inp_files/11777.got.cif
#   From: 2010.03.12/outbox.cif.g09.slc.cpg/sg65_6_cif.got.tgz:11777.got - 2010.04.10 20:52:16.
