data_PCOD8265410
_publ_section_title
;
Structure prediction by ZEFSAII (Michael W. Deem and Ramdas Pophale) SiO2 
 PCOD8265410
Probable space group: C M M M
;
_chemical_formula_sum "Si O2"
_cell_formula_units_Z 72
_cell_length_a 17.648145
_cell_length_b 23.437416
_cell_length_c 9.092098
_cell_angle_alpha 90.000000
_cell_angle_beta 90.000000
_cell_angle_gamma 90.000000
_cell_volume 3760.736456
_symmetry_space_group_name_H-M "C M M M"
_symmetry_group_IT_number 65
_symmetry_cell_setting 'orthorhombic'
loop_
_space_group_symop_operation_xyz
x,y,z
-x,-y,z
x,-y,-z
-x,y,-z
-x,-y,-z
x,y,-z
-x,y,z
x,-y,z
1/2+x,1/2+y,z
1/2-x,1/2-y,z
1/2+x,1/2-y,-z
1/2-x,1/2+y,-z
1/2-x,1/2-y,-z
1/2+x,1/2+y,-z
1/2-x,1/2+y,z
1/2+x,1/2-y,z
loop_
_atom_site_type_symbol
_atom_site_label
_atom_site_fract_x
_atom_site_fract_y
_atom_site_fract_z
Si Si1 0.263043 0.683174 0.832033
Si Si2 0.000000 0.434031 0.825501
Si Si3 0.117869 0.000000 0.170887
Si Si4 0.582748 0.375545 0.174559
Si Si5 0.357624 0.888490 0.334135
Si Si6 0.760838 0.500000 0.342297
O O1 0.250000 0.750000 0.822962
O O2 0.346226 0.663063 0.769426
O O3 0.196305 0.659310 0.732587
O O4 0.254829 0.661530 0.000000
O O5 0.929820 0.397601 0.767646
O O6 0.000000 0.500000 0.768092
O O7 0.000000 0.433462 0.000000
O O8 0.085474 0.940769 0.238084
O O9 0.206986 0.000000 0.201982
O O10 0.101197 0.000000 0.000000
O O11 0.500000 0.350019 0.222928
O O12 0.587593 0.377814 0.000000
O O13 0.381527 0.870925 0.500000
O O14 0.313644 0.946609 0.333382
O O15 0.716464 0.500000 0.500000
#
# Coordination Sequence:
#
# PCOD8265410 Si02
#       6
#    16   8   8  16  16   8
#     4  10  21  38  58  82 112 149 198 245 286 334
#     4  11  23  37  59  91 123 151 187 238 295 354
#     4  10  17  28  53  81 105 136 180 227 278 341
#     4   9  17  30  51  80 110 140 177 227 280 329
#     4  11  22  38  59  82 115 155 193 234 291 355
#     4  10  20  32  52  81 112 148 183 222 283 350
#
# _framework density 19.145187
#
# number of rings (size 3 to 8) (size 9 to 14) (size 15 to 20)
#    0.000    1.889    3.333    1.333    0.000    3.111 
#    2.000    0.000    0.000    3.333    0.000    0.000 
#    0.000    0.000    0.000    0.000    0.000    0.000 
#
# Total GULP energy -446045.299799 kJ/mol
# GULP energy per Si atom -12390.147217 kJ/mol
# Density = 1.910161 g / cm^3
# Si number density = 19.145187 Si / 1000 Ang^3
#
#
#
# Elastic Constant Matrix: (Units=GPa)
#
#
# Indices 1 2 3 4 5 6 
#
# 1 148.3575 45.4596 37.5773 0.0000 0.0000 0.0000
# 2 45.4596 81.0440 26.3132 0.0000 0.0000 0.0000
# 3 37.5773 26.3132 59.9208 0.0000 0.0000 0.0000
# 4 0.0000 0.0000 0.0000 16.6720 0.0000 0.0000
# 5 0.0000 0.0000 0.0000 0.0000 16.7407 0.0000
# 6 0.0000 0.0000 0.0000 0.0000 0.0000 17.4195
#
#
#
# Elastic Compliance Matrix: (Units=1/GPa)
#
#
# Indices 1 2 3 4 5 6 
#
# 1 0.008871 -0.003697 -0.003940 0.000000 0.000000 0.000000
# 2 -0.003697 0.015931 -0.004678 0.000000 0.000000 0.000000
# 3 -0.003940 -0.004678 0.021214 0.000000 0.000000 0.000000
# 4 0.000000 0.000000 0.000000 0.059981 0.000000 0.000000
# 5 0.000000 0.000000 0.000000 0.000000 0.059735 0.000000
# 6 0.000000 0.000000 0.000000 0.000000 0.000000 0.057407
#
#
# Mechanical properties :
#
#
# Convention : Reuss Voigt Hill
#
# Bulk Modulus (GPa) = 46.75650 56.44694 51.60172
# Shear Modulus (GPa) = 19.61584 22.16460 20.89022
#
# Velocity S-wave (km/s) = 3.20438 3.40621 3.30684
# Velocity P-wave (km/s) = 6.17785 6.70949 6.44915
#
# Compressibility (1/GPa) = 0.02138740
#
# Stress axis : x y z
#
# Youngs Moduli (GPa) = 112.72444 62.76920 47.13968
#
# Poissons Ratio (x) = 0.23205 0.18572
# Poissons Ratio (y) = 0.41673 0.22050
# Poissons Ratio (z) = 0.44412 0.29361
#
# Static dielectric constant tensor:
#      x y z
#    x 3.775100 0.000000 0.000000 
#    y 0.000000 3.421060 0.000000 
#    z 0.000000 0.000000 3.569860 
# 
# 
# High freq. dielectric constant tensor:
#      x y z
#    x 1.755090 0.000000 0.000000 
#    y 0.000000 1.734620 0.000000 
#    z 0.000000 0.000000 1.717140 
# 
# From -- ./inp_files/9340.got.cif
#   From: 2010.03.12/outbox.cif.g09.slc.cpg/sg65_5_cif.got.tgz:9340.got - 2010.04.10 20:52:16.
