data_PCOD8265901
_publ_section_title
;
Structure prediction by ZEFSAII (Michael W. Deem and Ramdas Pophale) SiO2 
 PCOD8265901
Probable space group: C M M M
;
_chemical_formula_sum "Si O2"
_cell_formula_units_Z 72
_cell_length_a 25.033164
_cell_length_b 9.018893
_cell_length_c 17.318716
_cell_angle_alpha 90.000000
_cell_angle_beta 90.000000
_cell_angle_gamma 90.000000
_cell_volume 3910.071235
_symmetry_space_group_name_H-M "C M M M"
_symmetry_group_IT_number 65
_symmetry_cell_setting 'orthorhombic'
loop_
_space_group_symop_operation_xyz
x,y,z
-x,-y,z
x,-y,-z
-x,y,-z
-x,-y,-z
x,y,-z
-x,y,z
x,-y,z
1/2+x,1/2+y,z
1/2-x,1/2-y,z
1/2+x,1/2-y,-z
1/2-x,1/2+y,-z
1/2-x,1/2-y,-z
1/2+x,1/2+y,-z
1/2-x,1/2+y,z
1/2+x,1/2-y,z
loop_
_atom_site_type_symbol
_atom_site_label
_atom_site_fract_x
_atom_site_fract_y
_atom_site_fract_z
Si Si1 0.191735 0.176067 0.000000
Si Si2 0.304509 0.826124 0.412832
Si Si3 0.000000 0.826871 0.289937
Si Si4 0.000000 0.330930 0.867142
Si Si5 0.105271 0.673214 0.297960
Si Si6 0.882962 0.669294 0.118650
O O1 0.250000 0.250000 0.000000
O O2 0.158260 0.224430 0.924756
O O3 0.198711 0.000000 0.000000
O O4 0.321383 0.782280 0.500000
O O5 0.250000 0.750000 0.388273
O O6 0.348068 0.767039 0.352736
O O7 0.296257 0.000000 0.404777
O O8 0.000000 0.789866 0.199596
O O9 0.947315 0.756981 0.327755
O O10 0.000000 0.000000 0.304104
O O11 0.944251 0.309372 0.913918
O O12 0.000000 0.500000 0.832215
O O13 0.095436 0.500000 0.309089
O O14 0.119006 0.710058 0.209045
O O15 0.864775 0.500000 0.104301
#
# Coordination Sequence:
#
# PCOD8265901 Si02
#       6
#     8  16   8   8  16  16
#     4  12  26  41  54  71 101 138 174 216 261 302
#     4   9  18  33  53  77 104 134 170 213 258 303
#     4  10  18  28  48  78 108 136 169 213 256 293
#     4   8  16  33  57  81 106 135 164 200 251 310
#     4   9  18  34  55  77 104 139 173 204 249 310
#     4   9  18  35  57  79 103 134 171 208 250 303
#
# _framework density 18.413986999999999
#
# number of rings (size 3 to 8) (size 9 to 14) (size 15 to 20)
#    0.000    2.667    0.000    3.333    0.000    5.778 
#    0.000    5.000    0.000    3.333    0.000    0.000 
#    0.000    0.000    0.000    0.000    0.000    0.000 
#
# Total GULP energy -446207.142274 kJ/mol
# GULP energy per Si atom -12394.642841 kJ/mol
# Density = 1.837208 g / cm^3
# Si number density = 18.413987 Si / 1000 Ang^3
#
#
#
# Elastic Constant Matrix: (Units=GPa)
#
#
# Indices 1 2 3 4 5 6 
#
# 1 182.4953 72.3083 80.5922 0.0000 0.0000 0.0000
# 2 72.3083 81.9570 39.1221 0.0000 0.0000 0.0000
# 3 80.5922 39.1221 86.7786 0.0000 0.0000 0.0000
# 4 0.0000 0.0000 0.0000 20.9405 0.0000 0.0000
# 5 0.0000 0.0000 0.0000 0.0000 -375.6211 0.0000
# 6 0.0000 0.0000 0.0000 0.0000 0.0000 33.9978
#
#
#
# Elastic Compliance Matrix: (Units=1/GPa)
#
#
# Indices 1 2 3 4 5 6 
#
# 1 0.011425 -0.006390 -0.007730 0.000000 0.000000 0.000000
# 2 -0.006390 0.019122 -0.002686 0.000000 0.000000 0.000000
# 3 -0.007730 -0.002686 0.019913 0.000000 0.000000 0.000000
# 4 0.000000 0.000000 0.000000 0.047754 0.000000 0.000000
# 5 0.000000 0.000000 0.000000 0.000000 -0.002662 0.000000
# 6 0.000000 0.000000 0.000000 0.000000 0.000000 0.029414
#
#
# Mechanical properties :
#
#
# Convention : Reuss Voigt Hill
#
# Bulk Modulus (GPa) = 59.35368 81.69736 70.52552
# Shear Modulus (GPa) = 30.45202 -53.52266 -11.53532
#
# Velocity S-wave (km/s) = 4.07104 -5.39717 -2.50560
# Velocity P-wave (km/s) = 7.37568 2.37152 5.47836
#
# Compressibility (1/GPa) = 0.01684816
#
# Stress axis : x y z
#
# Youngs Moduli (GPa) = 87.52699 52.29712 50.21835
#
# Poissons Ratio (x) = 0.33419 0.38817
# Poissons Ratio (y) = 0.55932 0.13488
# Poissons Ratio (z) = 0.67655 0.14046
#
# Static dielectric constant tensor:
#      x y z
#    x 3.692350 0.000000 0.000000 
#    y 0.000000 3.210410 0.000000 
#    z 0.000000 0.000000 3.268430 
# 
# 
# High freq. dielectric constant tensor:
#      x y z
#    x 1.726160 0.000000 0.000000 
#    y 0.000000 1.701720 0.000000 
#    z 0.000000 0.000000 1.693090 
# 
# From -- ./inp_files/56490.got.cif
#   From: 2010.03.12/outbox.cif.g09.slc.cpg/sg65_29_cif.got.tgz:56490.got - 2010.04.10 20:52:16.
