data_PCOD8265005
_publ_section_title
;
Structure prediction by ZEFSAII (Michael W. Deem and Ramdas Pophale) SiO2 
 PCOD8265005
Probable space group: C M C A
;
_chemical_formula_sum "Si O2"
_cell_formula_units_Z 64
_cell_length_a 21.633201
_cell_length_b 4.863156
_cell_length_c 25.959420
_cell_angle_alpha 90.000000
_cell_angle_beta 90.000000
_cell_angle_gamma 90.000000
_cell_volume 2731.077168
_symmetry_space_group_name_H-M "C M C A"
_symmetry_group_IT_number 64
_symmetry_cell_setting 'orthorhombic'
loop_
_space_group_symop_operation_xyz
x,y,z
-x,1/2-y,1/2+z
x,-y,-z
-x,1/2+y,1/2-z
-x,-y,-z
x,1/2+y,1/2-z
-x,y,z
x,1/2-y,1/2+z
1/2+x,1/2+y,z
1/2-x,-y,1/2+z
1/2+x,1/2-y,-z
1/2-x,y,1/2-z
1/2-x,1/2-y,-z
1/2+x,y,1/2-z
1/2-x,1/2+y,z
1/2+x,-y,1/2+z
loop_
_atom_site_type_symbol
_atom_site_label
_atom_site_fract_x
_atom_site_fract_y
_atom_site_fract_z
Si Si1 0.500000 0.642431 0.399567
Si Si2 0.130807 0.947386 0.782924
Si Si3 0.614909 0.251306 0.533710
Si Si4 0.000000 0.869179 0.828827
Si Si5 0.291854 0.362483 0.119781
O O1 0.561232 0.600095 0.433414
O O2 0.500000 0.444352 0.349391
O O3 0.500000 0.954782 0.380750
O O4 0.148789 0.140921 0.734474
O O5 0.166487 0.051795 0.832410
O O6 0.058092 0.948291 0.793904
O O7 0.643740 0.500000 0.500000
O O8 0.667711 0.109792 0.568398
O O9 0.587591 0.000000 0.500000
O O10 0.230570 0.548121 0.120900
#
# Coordination Sequence:
#
# PCOD8265005 Si02
#       5
#     8  16  16   8  16
#     4  12  24  44  76 105 145 186 226 296 365 428
#     4  12  26  46  74 105 141 183 234 294 359 425
#     4  12  26  46  74 107 145 188 239 296 363 428
#     4  12  24  44  76 105 145 182 228 291 371 425
#     4  12  28  47  72 102 143 191 243 294 348 419
#
# _framework density 23.433976999999999
#
# number of rings (size 3 to 8) (size 9 to 14) (size 15 to 20)
#    0.000    0.000    2.500    7.500    3.500    6.000 
#    0.000    0.000    0.000    0.000    0.000    0.000 
#    0.000    0.000    0.000    0.000    0.000    0.000 
#
# Total GULP energy -396943.629858 kJ/mol
# GULP energy per Si atom -12404.488433 kJ/mol
# Density = 2.338064 g / cm^3
# Si number density = 23.433977 Si / 1000 Ang^3
#
#
#
# Elastic Constant Matrix: (Units=GPa)
#
#
# Indices 1 2 3 4 5 6 
#
# 1 76.3012 30.7313 19.5225 0.0000 0.0000 0.0000
# 2 30.7313 110.0329 46.0776 0.0000 0.0000 0.0000
# 3 19.5225 46.0776 94.4216 0.0000 0.0000 0.0000
# 4 0.0000 0.0000 0.0000 49.2452 0.0000 0.0000
# 5 0.0000 0.0000 0.0000 0.0000 -18.3839 0.0000
# 6 0.0000 0.0000 0.0000 0.0000 0.0000 32.4700
#
#
#
# Elastic Compliance Matrix: (Units=1/GPa)
#
#
# Indices 1 2 3 4 5 6 
#
# 1 0.014897 -0.003608 -0.001319 0.000000 0.000000 0.000000
# 2 -0.003608 0.012296 -0.005255 0.000000 0.000000 0.000000
# 3 -0.001319 -0.005255 0.013428 0.000000 0.000000 0.000000
# 4 0.000000 0.000000 0.000000 0.020307 0.000000 0.000000
# 5 0.000000 0.000000 0.000000 0.000000 -0.054395 0.000000
# 6 0.000000 0.000000 0.000000 0.000000 0.000000 0.030798
#
#
# Mechanical properties :
#
#
# Convention : Reuss Voigt Hill
#
# Bulk Modulus (GPa) = 49.36581 52.60207 50.98394
# Shear Modulus (GPa) = 77.58455 24.96122 51.27288
#
# Velocity S-wave (km/s) = 5.76017 3.26724 4.68265
# Velocity P-wave (km/s) = 8.08400 6.06043 7.14422
#
# Compressibility (1/GPa) = 0.02025693
#
# Stress axis : x y z
#
# Youngs Moduli (GPa) = 67.12890 81.32523 74.47239
#
# Poissons Ratio (x) = 0.29343 0.09825
# Poissons Ratio (y) = 0.24221 0.39132
# Poissons Ratio (z) = 0.08856 0.42733
#
# Static dielectric constant tensor:
#      x y z
#    x 4.164900 0.000000 0.000000 
#    y 0.000000 4.290890 0.000000 
#    z 0.000000 0.000000 4.310260 
# 
# 
# High freq. dielectric constant tensor:
#      x y z
#    x 1.922190 0.000000 0.000000 
#    y 0.000000 1.943370 0.000000 
#    z 0.000000 0.000000 1.939660 
# 
# From -- ./inp_files/46102.got.cif
#   From: 2010.03.12/outbox.cif.g09.slc.cpg/sg64_24_cif.got.tgz:46102.got - 2010.04.10 20:19:32.
