data_PCOD8265310
_publ_section_title
;
Structure prediction by ZEFSAII (Michael W. Deem and Ramdas Pophale) SiO2 
 PCOD8265310
Probable space group: C M M M
;
_chemical_formula_sum "Si O2"
_cell_formula_units_Z 64
_cell_length_a 16.010433
_cell_length_b 18.771781
_cell_length_c 12.090785
_cell_angle_alpha 90.000000
_cell_angle_beta 90.000000
_cell_angle_gamma 90.000000
_cell_volume 3633.817022
_symmetry_space_group_name_H-M "C M M M"
_symmetry_group_IT_number 65
_symmetry_cell_setting 'orthorhombic'
loop_
_space_group_symop_operation_xyz
x,y,z
-x,-y,z
x,-y,-z
-x,y,-z
-x,-y,-z
x,y,-z
-x,y,z
x,-y,z
1/2+x,1/2+y,z
1/2-x,1/2-y,z
1/2+x,1/2-y,-z
1/2-x,1/2+y,-z
1/2-x,1/2-y,-z
1/2+x,1/2+y,-z
1/2-x,1/2+y,z
1/2+x,1/2-y,z
loop_
_atom_site_type_symbol
_atom_site_label
_atom_site_fract_x
_atom_site_fract_y
_atom_site_fract_z
Si Si1 0.774324 0.416525 0.240637
Si Si2 0.253524 0.919461 0.000000
Si Si3 0.593366 0.672491 0.000000
Si Si4 0.403525 0.827838 0.371746
Si Si5 0.164784 0.210941 0.221299
O O1 0.755510 0.500000 0.262979
O O2 0.849557 0.391148 0.318068
O O3 0.689399 0.369876 0.260305
O O4 0.803432 0.401045 0.112780
O O5 0.161440 0.888211 0.000000
O O6 0.229595 0.000000 0.000000
O O7 0.606275 0.717096 0.886966
O O8 0.500000 0.641014 0.000000
O O9 0.380725 0.823821 0.500000
O O10 0.500000 0.846528 0.352381
O O11 0.381851 0.750708 0.321055
O O12 0.250000 0.250000 0.189033
#
# Coordination Sequence:
#
# PCOD8265310 Si02
#       5
#    16   8   8  16  16
#     4   9  18  33  53  74  97 127 161 198 240 286
#     4   8  16  32  49  69 100 131 156 189 237 291
#     4  10  17  26  46  74  98 123 159 201 239 277
#     4  10  21  35  50  70  98 130 162 201 248 291
#     4   9  18  32  50  70  97 129 164 199 236 286
#
# _framework density 17.612334000000001
#
# number of rings (size 3 to 8) (size 9 to 14) (size 15 to 20)
#    0.000    2.750    0.000    1.125    0.000    8.750 
#    0.000    3.125    0.000    4.500    0.000    1.750 
#    0.000    0.000    0.000    0.000    0.000    0.000 
#
# Total GULP energy -396470.130947 kJ/mol
# GULP energy per Si atom -12389.691592 kJ/mol
# Density = 1.757225 g / cm^3
# Si number density = 17.612334 Si / 1000 Ang^3
#
#
#
# Elastic Constant Matrix: (Units=GPa)
#
#
# Indices 1 2 3 4 5 6 
#
# 1 83.8442 28.7416 62.0341 0.0000 0.0000 0.0000
# 2 28.7416 110.4362 50.8596 0.0000 0.0000 0.0000
# 3 62.0341 50.8596 137.7531 0.0000 0.0000 0.0000
# 4 0.0000 0.0000 0.0000 20.8812 0.0000 0.0000
# 5 0.0000 0.0000 0.0000 0.0000 23.2945 0.0000
# 6 0.0000 0.0000 0.0000 0.0000 0.0000 8.0639
#
#
#
# Elastic Compliance Matrix: (Units=1/GPa)
#
#
# Indices 1 2 3 4 5 6 
#
# 1 0.018006 -0.001147 -0.007685 0.000000 0.000000 0.000000
# 2 -0.001147 0.010983 -0.003539 0.000000 0.000000 0.000000
# 3 -0.007685 -0.003539 0.012027 0.000000 0.000000 0.000000
# 4 0.000000 0.000000 0.000000 0.047890 0.000000 0.000000
# 5 0.000000 0.000000 0.000000 0.000000 0.042929 0.000000
# 6 0.000000 0.000000 0.000000 0.000000 0.000000 0.124009
#
#
# Mechanical properties :
#
#
# Convention : Reuss Voigt Hill
#
# Bulk Modulus (GPa) = 61.44552 68.36712 64.90632
# Shear Modulus (GPa) = 17.48190 23.14114 20.31152
#
# Velocity S-wave (km/s) = 3.15396 3.62873 3.39965
# Velocity P-wave (km/s) = 6.94455 7.51392 7.23484
#
# Compressibility (1/GPa) = 0.01627458
#
# Stress axis : x y z
#
# Youngs Moduli (GPa) = 55.53661 91.04874 83.14817
#
# Poissons Ratio (x) = 0.10442 0.63901
# Poissons Ratio (y) = 0.06369 0.29423
# Poissons Ratio (z) = 0.42681 0.32218
#
# Static dielectric constant tensor:
#      x y z
#    x 3.112100 0.000000 0.000000 
#    y 0.000000 3.423790 0.000000 
#    z 0.000000 0.000000 3.566740 
# 
# 
# High freq. dielectric constant tensor:
#      x y z
#    x 1.658080 0.000000 0.000000 
#    y 0.000000 1.679800 0.000000 
#    z 0.000000 0.000000 1.689210 
# 
# From -- ./inp_files/23935.got.cif
#   From: 2010.03.12/outbox.cif.g09.slc.cpg/sg65_12_cif.got.tgz:23935.got - 2010.04.10 20:52:16.
