data_PCOD8265192
_publ_section_title
;
Structure prediction by ZEFSAII (Michael W. Deem and Ramdas Pophale) SiO2 
 PCOD8265192
Probable space group: C M M M
;
_chemical_formula_sum "Si O2"
_cell_formula_units_Z 104
_cell_length_a 14.509704
_cell_length_b 23.408993
_cell_length_c 14.752153
_cell_angle_alpha 90.000000
_cell_angle_beta 90.000000
_cell_angle_gamma 90.000000
_cell_volume 5010.680283
_symmetry_space_group_name_H-M "C M M M"
_symmetry_group_IT_number 65
_symmetry_cell_setting 'orthorhombic'
loop_
_space_group_symop_operation_xyz
x,y,z
-x,-y,z
x,-y,-z
-x,y,-z
-x,-y,-z
x,y,-z
-x,y,z
x,-y,z
1/2+x,1/2+y,z
1/2-x,1/2-y,z
1/2+x,1/2-y,-z
1/2-x,1/2+y,-z
1/2-x,1/2-y,-z
1/2+x,1/2+y,-z
1/2-x,1/2+y,z
1/2+x,1/2-y,z
loop_
_atom_site_type_symbol
_atom_site_label
_atom_site_fract_x
_atom_site_fract_y
_atom_site_fract_z
Si Si1 0.000000 0.932682 0.398278
Si Si2 0.179230 0.065772 0.710188
Si Si3 0.294101 0.612724 0.103642
Si Si4 0.232164 0.659497 0.600962
Si Si5 0.350371 0.268502 0.837642
Si Si6 0.396636 0.260826 0.357811
Si Si7 0.402369 0.850115 0.897566
O O1 0.088756 0.912447 0.342563
O O2 0.000000 0.906183 0.500000
O O3 0.000000 0.000000 0.405512
O O4 0.162351 0.072012 0.819252
O O5 0.259706 0.106844 0.671887
O O6 0.202726 0.000000 0.688709
O O7 0.345065 0.673931 0.102880
O O8 0.188544 0.619079 0.140249
O O9 0.301277 0.588194 0.000000
O O10 0.213169 0.635536 0.500000
O O11 0.326493 0.696036 0.594189
O O12 0.144641 0.696822 0.633277
O O13 0.250000 0.250000 0.802202
O O14 0.408705 0.278397 0.747161
O O15 0.393524 0.218569 0.897768
O O16 0.500000 0.263656 0.400749
O O17 0.500000 0.867446 0.848528
O O18 0.409630 0.870071 0.000000
#
# Coordination Sequence:
#
# PCOD8265192 Si02
#       7
#     8  16  16  16  16  16  16
#     4   9  20  40  65  89 109 141 194 250 302 348
#     4  11  23  41  63  86 117 155 202 255 301 356
#     4  10  20  35  56  80 116 160 197 245 306 360
#     4  11  23  39  58  88 123 153 196 247 303 370
#     4  10  16  30  49  74 114 151 192 237 287 347
#     4  11  21  36  59  87 123 160 191 235 299 369
#     4   9  17  29  49  79 111 149 200 247 288 345
#
# _framework density 20.755665
#
# number of rings (size 3 to 8) (size 9 to 14) (size 15 to 20)
#    0.000    1.769    3.077    3.231    1.077    4.308 
#    1.385    0.385    0.000    3.231    0.000    3.231 
#    0.000    0.000    0.000    0.000    0.000    0.000 
#
# Total GULP energy -644273.639987 kJ/mol
# GULP energy per Si atom -12389.877692 kJ/mol
# Density = 2.070842 g / cm^3
# Si number density = 20.755665 Si / 1000 Ang^3
#
#
#
# Elastic Constant Matrix: (Units=GPa)
#
#
# Indices 1 2 3 4 5 6 
#
# 1 100.7154 14.9918 23.2208 0.0000 0.0000 0.0000
# 2 14.9918 61.5247 19.2926 0.0000 0.0000 0.0000
# 3 23.2208 19.2926 128.5451 0.0000 0.0000 0.0000
# 4 0.0000 0.0000 0.0000 24.3184 0.0000 0.0000
# 5 0.0000 0.0000 0.0000 0.0000 18.1114 0.0000
# 6 0.0000 0.0000 0.0000 0.0000 0.0000 18.7608
#
#
#
# Elastic Compliance Matrix: (Units=1/GPa)
#
#
# Indices 1 2 3 4 5 6 
#
# 1 0.010609 -0.002082 -0.001604 0.000000 0.000000 0.000000
# 2 -0.002082 0.017465 -0.002245 0.000000 0.000000 0.000000
# 3 -0.001604 -0.002245 0.008406 0.000000 0.000000 0.000000
# 4 0.000000 0.000000 0.000000 0.041121 0.000000 0.000000
# 5 0.000000 0.000000 0.000000 0.000000 0.055214 0.000000
# 6 0.000000 0.000000 0.000000 0.000000 0.000000 0.053303
#
#
# Mechanical properties :
#
#
# Convention : Reuss Voigt Hill
#
# Bulk Modulus (GPa) = 40.62143 45.08839 42.85491
# Shear Modulus (GPa) = 24.25005 27.79013 26.02009
#
# Velocity S-wave (km/s) = 3.42183 3.66309 3.54452
# Velocity P-wave (km/s) = 5.93512 6.29774 6.11912
#
# Compressibility (1/GPa) = 0.02461755
#
# Stress axis : x y z
#
# Youngs Moduli (GPa) = 94.26235 57.25744 118.96178
#
# Poissons Ratio (x) = 0.11921 0.19080
# Poissons Ratio (y) = 0.19626 0.26708
# Poissons Ratio (z) = 0.15119 0.12855
#
# Static dielectric constant tensor:
#      x y z
#    x 4.070480 0.000000 0.000000 
#    y 0.000000 3.403140 0.000000 
#    z 0.000000 0.000000 3.713810 
# 
# 
# High freq. dielectric constant tensor:
#      x y z
#    x 1.799970 0.000000 0.000000 
#    y 0.000000 1.771620 0.000000 
#    z 0.000000 0.000000 1.817840 
# 
# From -- ./inp_files/53496.got.cif
#   From: 2010.03.12/outbox.cif.g09.slc.cpg/sg65_27_cif.got.tgz:53496.got - 2010.04.10 20:52:16.
