data_PCOD8265988
_publ_section_title
;
Structure prediction by ZEFSAII (Michael W. Deem and Ramdas Pophale) SiO2 
 PCOD8265988
Probable space group: C M M M
;
_chemical_formula_sum "Si O2"
_cell_formula_units_Z 112
_cell_length_a 26.598187
_cell_length_b 16.034388
_cell_length_c 14.740739
_cell_angle_alpha 90.000000
_cell_angle_beta 90.000000
_cell_angle_gamma 90.000000
_cell_volume 6286.713661
_symmetry_space_group_name_H-M "C M M M"
_symmetry_group_IT_number 65
_symmetry_cell_setting 'orthorhombic'
loop_
_space_group_symop_operation_xyz
x,y,z
-x,-y,z
x,-y,-z
-x,y,-z
-x,-y,-z
x,y,-z
-x,y,z
x,-y,z
1/2+x,1/2+y,z
1/2-x,1/2-y,z
1/2+x,1/2-y,-z
1/2-x,1/2+y,-z
1/2-x,1/2-y,-z
1/2+x,1/2+y,-z
1/2-x,1/2+y,z
1/2+x,1/2-y,z
loop_
_atom_site_type_symbol
_atom_site_label
_atom_site_fract_x
_atom_site_fract_y
_atom_site_fract_z
Si Si1 0.375812 0.405599 0.894732
Si Si2 0.634200 0.097988 0.601768
Si Si3 0.057501 0.404222 0.756375
Si Si4 0.790155 0.322466 0.898205
Si Si5 0.403180 0.772909 0.895522
Si Si6 0.757075 0.343954 0.402736
Si Si7 0.720544 0.592860 0.774006
O O1 0.397754 0.500000 0.873864
O O2 0.413569 0.327011 0.874585
O O3 0.326521 0.386375 0.837042
O O4 0.359632 0.400798 0.000000
O O5 0.619407 0.128042 0.500000
O O6 0.590842 0.125740 0.671442
O O7 0.686719 0.137947 0.632953
O O8 0.641074 0.000000 0.604082
O O9 0.071109 0.500000 0.787002
O O10 0.063941 0.337143 0.837220
O O11 0.000000 0.401094 0.724443
O O12 0.750000 0.250000 0.883477
O O13 0.845012 0.289778 0.873514
O O14 0.772770 0.393479 0.828507
O O15 0.788695 0.358218 0.000000
O O16 0.416417 0.791326 0.000000
O O17 0.747552 0.392275 0.500000
O O18 0.750000 0.250000 0.428036
O O19 0.717660 0.360102 0.322000
O O20 0.719862 0.500000 0.740709
#
# Coordination Sequence:
#
# PCOD8265988 Si02
#       7
#    16  16  16  16  16  16  16
#     4   9  18  32  49  73 102 132 171 215 255 296
#     4   9  18  34  55  76 100 133 173 215 258 305
#     4  10  22  38  55  78 105 132 169 219 272 322
#     4  10  18  29  45  69 100 131 166 207 248 296
#     4  10  20  33  52  73 100 141 176 208 256 310
#     4  10  21  33  46  69 102 139 173 205 245 299
#     4  11  20  28  44  67  95 135 173 209 250 289
#
# _framework density 17.815349999999999
#
# number of rings (size 3 to 8) (size 9 to 14) (size 15 to 20)
#    0.000    2.143    1.429    2.143    2.000    4.286 
#    0.000    3.571    0.000    0.429    0.000    2.000 
#    0.000    0.000    0.000    1.286    0.000    0.143 
#
# Total GULP energy -693732.789631 kJ/mol
# GULP energy per Si atom -12388.085529 kJ/mol
# Density = 1.777480 g / cm^3
# Si number density = 17.815350 Si / 1000 Ang^3
#
#
#
# Elastic Constant Matrix: (Units=GPa)
#
#
# Indices 1 2 3 4 5 6 
#
# 1 28.5331 9.9541 17.5011 0.0000 0.0000 0.0000
# 2 9.9541 71.4135 36.3768 0.0000 0.0000 0.0000
# 3 17.5011 36.3768 88.9847 0.0000 0.0000 0.0000
# 4 0.0000 0.0000 0.0000 32.0175 0.0000 0.0000
# 5 0.0000 0.0000 0.0000 0.0000 22.0965 0.0000
# 6 0.0000 0.0000 0.0000 0.0000 0.0000 21.1531
#
#
#
# Elastic Compliance Matrix: (Units=1/GPa)
#
#
# Indices 1 2 3 4 5 6 
#
# 1 0.040076 -0.001984 -0.007071 0.000000 0.000000 0.000000
# 2 -0.001984 0.017784 -0.006880 0.000000 0.000000 0.000000
# 3 -0.007071 -0.006880 0.015441 0.000000 0.000000 0.000000
# 4 0.000000 0.000000 0.000000 0.031233 0.000000 0.000000
# 5 0.000000 0.000000 0.000000 0.000000 0.045256 0.000000
# 6 0.000000 0.000000 0.000000 0.000000 0.000000 0.047274
#
#
# Mechanical properties :
#
#
# Convention : Reuss Voigt Hill
#
# Bulk Modulus (GPa) = 24.13635 35.17726 29.65680
# Shear Modulus (GPa) = 20.59776 23.39338 21.99557
#
# Velocity S-wave (km/s) = 3.40395 3.62761 3.51756
# Velocity P-wave (km/s) = 5.38764 6.11019 5.76025
#
# Compressibility (1/GPa) = 0.04143129
#
# Stress axis : x y z
#
# Youngs Moduli (GPa) = 24.95247 56.23034 64.76267
#
# Poissons Ratio (x) = 0.11158 0.45792
# Poissons Ratio (y) = 0.04951 0.44555
# Poissons Ratio (z) = 0.17643 0.38685
#
# Static dielectric constant tensor:
#      x y z
#    x 3.028350 0.000000 0.000000 
#    y 0.000000 3.564530 0.000000 
#    z 0.000000 0.000000 3.465400 
# 
# 
# High freq. dielectric constant tensor:
#      x y z
#    x 1.646780 0.000000 0.000000 
#    y 0.000000 1.691390 0.000000 
#    z 0.000000 0.000000 1.697260 
# 
# From -- ./inp_files/40822.got.cif
#   From: 2010.03.12/outbox.cif.g09.slc.cpg/sg65_21_cif.got.tgz:40822.got - 2010.04.10 20:52:16.
