data_PCOD8265150
_publ_section_title
;
Structure prediction by ZEFSAII (Michael W. Deem and Ramdas Pophale) SiO2 
 PCOD8265150
Probable space group: C M M M
;
_chemical_formula_sum "Si O2"
_cell_formula_units_Z 48
_cell_length_a 23.735200
_cell_length_b 5.268467
_cell_length_c 23.518270
_cell_angle_alpha 90.000000
_cell_angle_beta 90.000000
_cell_angle_gamma 90.000000
_cell_volume 2940.915401
_symmetry_space_group_name_H-M "C M M M"
_symmetry_group_IT_number 65
_symmetry_cell_setting 'orthorhombic'
loop_
_space_group_symop_operation_xyz
x,y,z
-x,-y,z
x,-y,-z
-x,y,-z
-x,-y,-z
x,y,-z
-x,y,z
x,-y,z
1/2+x,1/2+y,z
1/2-x,1/2-y,z
1/2+x,1/2-y,-z
1/2-x,1/2+y,-z
1/2-x,1/2-y,-z
1/2+x,1/2+y,-z
1/2-x,1/2+y,z
1/2+x,1/2-y,z
loop_
_atom_site_type_symbol
_atom_site_label
_atom_site_fract_x
_atom_site_fract_y
_atom_site_fract_z
Si Si1 0.308797 0.000000 0.828430
Si Si2 0.127101 0.500000 0.397869
Si Si3 0.287173 0.000000 0.500000
Si Si4 0.566671 0.500000 0.434569
Si Si5 0.784658 0.500000 0.304280
Si Si6 0.184027 0.000000 0.123497
Si Si7 0.212573 0.000000 0.000000
O O1 0.296730 0.000000 0.762180
O O2 0.250762 0.000000 0.863685
O O3 0.343539 0.749274 0.847190
O O4 0.175832 0.500000 0.444001
O O5 0.088965 0.250633 0.403537
O O6 0.155586 0.500000 0.336015
O O7 0.250000 0.250000 0.500000
O O8 0.500000 0.500000 0.430838
O O9 0.587239 0.500000 0.500000
O O10 0.750000 0.750000 0.322064
O O11 0.173149 0.000000 0.055882
O O12 0.250000 0.250000 0.000000
#
# Coordination Sequence:
#
# PCOD8265150 Si02
#       7
#     8   8   4   8   8   8   4
#     4  10  16  27  39  52  79 116 155 190 223 251
#     4  12  23  37  54  78  98 121 161 190 231 302
#     4  12  22  36  49  70 107 134 146 182 228 272
#     4  11  22  41  62  77  92 115 147 201 255 292
#     4  12  21  33  48  68  96 134 163 188 226 268
#     4  10  16  25  36  53  77 108 160 203 235 253
#     4  12  16  20  34  52  72 102 144 218 246 246
#
# _framework density 16.321449999999999
#
# number of rings (size 3 to 8) (size 9 to 14) (size 15 to 20)
#    0.000    0.833    8.333    3.500    0.000    1.333 
#    0.000    0.000    0.000    0.000    0.000    0.000 
#    0.000    0.000    0.000    0.000    0.000    0.000 
#
# Total GULP energy -297562.303689 kJ/mol
# GULP energy per Si atom -12398.429320 kJ/mol
# Density = 1.628430 g / cm^3
# Si number density = 16.321450 Si / 1000 Ang^3
#
#
#
# Elastic Constant Matrix: (Units=GPa)
#
#
# Indices 1 2 3 4 5 6 
#
# 1 43.8022 33.0545 27.0096 0.0000 0.0000 0.0000
# 2 33.0545 185.5847 31.0515 0.0000 0.0000 0.0000
# 3 27.0096 31.0515 81.2187 0.0000 0.0000 0.0000
# 4 0.0000 0.0000 0.0000 1071.3406 0.0000 0.0000
# 5 0.0000 0.0000 0.0000 0.0000 -0.6656 0.0000
# 6 0.0000 0.0000 0.0000 0.0000 0.0000 22.1261
#
#
#
# Elastic Compliance Matrix: (Units=1/GPa)
#
#
# Indices 1 2 3 4 5 6 
#
# 1 0.031401 -0.004108 -0.008872 0.000000 0.000000 0.000000
# 2 -0.004108 0.006294 -0.001040 0.000000 0.000000 0.000000
# 3 -0.008872 -0.001040 0.015660 0.000000 0.000000 0.000000
# 4 0.000000 0.000000 0.000000 0.000933 0.000000 0.000000
# 5 0.000000 0.000000 0.000000 0.000000 -1.502296 0.000000
# 6 0.000000 0.000000 0.000000 0.000000 0.000000 0.045195
#
#
# Mechanical properties :
#
#
# Convention : Reuss Voigt Hill
#
# Bulk Modulus (GPa) = 39.50249 54.75965 47.13107
# Shear Modulus (GPa) = -3.65943 233.19287 114.76672
#
# Velocity S-wave (km/s) = -1.49899 11.96600 8.39459
# Velocity P-wave (km/s) = 4.61079 14.98457 11.08595
#
# Compressibility (1/GPa) = 0.02531486
#
# Stress axis : x y z
#
# Youngs Moduli (GPa) = 31.84640 158.87761 63.85533
#
# Poissons Ratio (x) = 0.65273 0.56650
# Poissons Ratio (y) = 0.13084 0.06642
# Poissons Ratio (z) = 0.28253 0.16525
#
# Static dielectric constant tensor:
#      x y z
#    x 2.571970 0.000000 0.000000 
#    y 0.000000 7.195190 0.000000 
#    z 0.000000 0.000000 3.257520 
# 
# 
# High freq. dielectric constant tensor:
#      x y z
#    x 1.549780 0.000000 0.000000 
#    y 0.000000 1.669790 0.000000 
#    z 0.000000 0.000000 1.634150 
# 
# From -- ./inp_files/58352.got.cif
#   From: 2010.03.12/outbox.cif.g09.slc.cpg/sg65_30_cif.got.tgz:58352.got - 2010.04.10 20:52:16.
