data_PCOD8265439
_publ_section_title
;
Structure prediction by ZEFSAII (Michael W. Deem and Ramdas Pophale) SiO2 
 PCOD8265439
Probable space group: C M M M
;
_chemical_formula_sum "Si O2"
_cell_formula_units_Z 96
_cell_length_a 9.006323
_cell_length_b 25.808908
_cell_length_c 23.522922
_cell_angle_alpha 90.000000
_cell_angle_beta 90.000000
_cell_angle_gamma 90.000000
_cell_volume 5467.747067
_symmetry_space_group_name_H-M "C M M M"
_symmetry_group_IT_number 65
_symmetry_cell_setting 'orthorhombic'
loop_
_space_group_symop_operation_xyz
x,y,z
-x,-y,z
x,-y,-z
-x,y,-z
-x,-y,-z
x,y,-z
-x,y,z
x,-y,z
1/2+x,1/2+y,z
1/2-x,1/2-y,z
1/2+x,1/2-y,-z
1/2-x,1/2+y,-z
1/2-x,1/2-y,-z
1/2+x,1/2+y,-z
1/2-x,1/2+y,z
1/2+x,1/2-y,z
loop_
_atom_site_type_symbol
_atom_site_label
_atom_site_fract_x
_atom_site_fract_y
_atom_site_fract_z
Si Si1 0.176170 0.500000 0.624800
Si Si2 0.327198 0.596246 0.566496
Si Si3 0.324105 0.057893 0.938014
Si Si4 0.675749 0.000000 0.753596
Si Si5 0.825054 0.802863 0.238076
Si Si6 0.326653 0.302060 0.631394
Si Si7 0.676392 0.898763 0.179151
O O1 0.233243 0.550395 0.592972
O O2 0.237098 0.500000 0.689313
O O3 0.000000 0.500000 0.623534
O O4 0.295672 0.598807 0.500000
O O5 0.500000 0.586485 0.579801
O O6 0.271211 0.649827 0.593913
O O7 0.500000 0.053906 0.935738
O O8 0.271834 0.094389 0.886458
O O9 0.259003 0.000000 0.929631
O O10 0.273041 0.079950 0.000000
O O11 0.732687 0.051355 0.785532
O O12 0.500000 0.000000 0.754418
O O13 0.750000 0.750000 0.216722
O O14 0.782293 0.813319 0.303546
O O15 0.760780 0.848866 0.200938
O O16 0.000000 0.798692 0.229155
O O17 0.500000 0.293372 0.624321
O O18 0.250000 0.250000 0.608561
O O19 0.500000 0.891086 0.185326
#
# Coordination Sequence:
#
# PCOD8265439 Si02
#       7
#     8  16  16   8  16  16  16
#     4  11  22  34  49  71 100 131 166 205 240 280
#     4  10  21  37  54  71  95 129 164 197 240 295
#     4   8  13  23  43  72 103 133 165 199 235 281
#     4   9  18  30  47  75 105 131 158 195 246 292
#     4  10  20  34  51  72  98 129 164 202 245 293
#     4   9  19  35  54  75  98 124 157 199 248 297
#     4  10  17  29  50  75 103 132 164 201 240 287
#
# _framework density 17.557504999999999
#
# number of rings (size 3 to 8) (size 9 to 14) (size 15 to 20)
#    0.000    2.500    0.833    2.500    0.000    3.000 
#    0.000    1.250    0.000    1.000    0.000    1.167 
#    0.000    0.000    0.000    0.000    0.000    0.000 
#
# Total GULP energy -595143.284814 kJ/mol
# GULP energy per Si atom -12398.818434 kJ/mol
# Density = 1.751754 g / cm^3
# Si number density = 17.557505 Si / 1000 Ang^3
#
#
#
# Elastic Constant Matrix: (Units=GPa)
#
#
# Indices 1 2 3 4 5 6 
#
# 1 45.5866 48.9041 42.3886 0.0000 0.0000 0.0000
# 2 48.9041 157.6750 90.9035 0.0000 0.0000 0.0000
# 3 42.3886 90.9035 134.7111 0.0000 0.0000 0.0000
# 4 0.0000 0.0000 0.0000 57.1700 0.0000 0.0000
# 5 0.0000 0.0000 0.0000 0.0000 16.4664 0.0000
# 6 0.0000 0.0000 0.0000 0.0000 0.0000 30.3260
#
#
#
# Elastic Compliance Matrix: (Units=1/GPa)
#
#
# Indices 1 2 3 4 5 6 
#
# 1 0.035752 -0.007534 -0.006166 0.000000 0.000000 0.000000
# 2 -0.007534 0.011968 -0.005706 0.000000 0.000000 0.000000
# 3 -0.006166 -0.005706 0.013214 0.000000 0.000000 0.000000
# 4 0.000000 0.000000 0.000000 0.017492 0.000000 0.000000
# 5 0.000000 0.000000 0.000000 0.000000 0.060730 0.000000
# 6 0.000000 0.000000 0.000000 0.000000 0.000000 0.032975
#
#
# Mechanical properties :
#
#
# Convention : Reuss Voigt Hill
#
# Bulk Modulus (GPa) = 45.20193 78.04057 61.62125
# Shear Modulus (GPa) = 22.90265 31.17757 27.04011
#
# Velocity S-wave (km/s) = 3.61562 4.21853 3.92865
# Velocity P-wave (km/s) = 6.57504 8.26275 7.46673
#
# Compressibility (1/GPa) = 0.02212295
#
# Stress axis : x y z
#
# Youngs Moduli (GPa) = 27.97060 83.55422 75.67959
#
# Poissons Ratio (x) = 0.62949 0.46663
# Poissons Ratio (y) = 0.21073 0.43180
# Poissons Ratio (z) = 0.17246 0.47672
#
# Static dielectric constant tensor:
#      x y z
#    x 2.995860 0.000000 0.000000 
#    y 0.000000 3.303640 0.000000 
#    z 0.000000 0.000000 3.582850 
# 
# 
# High freq. dielectric constant tensor:
#      x y z
#    x 1.652410 0.000000 0.000000 
#    y 0.000000 1.677800 0.000000 
#    z 0.000000 0.000000 1.684630 
# 
# From -- ./inp_files/67876.got.cif
#   From: 2010.03.12/outbox.cif.g09.slc.cpg/sg65_34_cif.got.tgz:67876.got - 2010.04.10 20:52:16.
