data_PCOD8265277
_publ_section_title
;
Structure prediction by ZEFSAII (Michael W. Deem and Ramdas Pophale) SiO2 
 PCOD8265277
Probable space group: C M M M
;
_chemical_formula_sum "Si O2"
_cell_formula_units_Z 96
_cell_length_a 19.434193
_cell_length_b 8.678797
_cell_length_c 30.831224
_cell_angle_alpha 90.000000
_cell_angle_beta 90.000000
_cell_angle_gamma 90.000000
_cell_volume 5200.161219
_symmetry_space_group_name_H-M "C M M M"
_symmetry_group_IT_number 65
_symmetry_cell_setting 'orthorhombic'
loop_
_space_group_symop_operation_xyz
x,y,z
-x,-y,z
x,-y,-z
-x,y,-z
-x,-y,-z
x,y,-z
-x,y,z
x,-y,z
1/2+x,1/2+y,z
1/2-x,1/2-y,z
1/2+x,1/2-y,-z
1/2-x,1/2+y,-z
1/2-x,1/2-y,-z
1/2+x,1/2+y,-z
1/2-x,1/2+y,z
1/2+x,1/2-y,z
loop_
_atom_site_type_symbol
_atom_site_label
_atom_site_fract_x
_atom_site_fract_y
_atom_site_fract_z
Si Si1 0.674685 0.320298 0.547004
Si Si2 0.920095 0.823155 0.881350
Si Si3 0.326378 0.182145 0.368122
Si Si4 0.674704 0.681100 0.719610
Si Si5 0.580089 0.821230 0.208784
Si Si6 0.322143 0.820012 0.050304
O O1 0.637561 0.292376 0.500000
O O2 0.680771 0.500000 0.557161
O O3 0.750000 0.250000 0.543702
O O4 0.634942 0.239322 0.587614
O O5 0.897674 0.723598 0.839760
O O6 0.882175 0.762277 0.923636
O O7 0.000000 0.801941 0.891168
O O8 0.900937 0.000000 0.872263
O O9 0.250000 0.250000 0.369881
O O10 0.360037 0.248577 0.324162
O O11 0.326484 0.000000 0.366077
O O12 0.682595 0.500000 0.714051
O O13 0.750000 0.750000 0.728776
O O14 0.624216 0.718737 0.758772
O O15 0.500000 0.782942 0.216327
O O16 0.596264 0.000000 0.216563
O O17 0.250000 0.750000 0.065732
O O18 0.322130 0.000000 0.060320
O O19 0.335392 0.784280 0.000000
#
# Coordination Sequence:
#
# PCOD8265277 Si02
#       6
#    16  16  16  16  16  16
#     4   9  15  22  33  51  78 114 155 196 241 294
#     4  10  21  37  57  81 108 138 173 212 255 303
#     4  10  17  26  40  59  87 121 159 201 248 298
#     4  11  21  34  52  74 102 133 170 211 254 305
#     4  10  21  38  58  79 105 135 169 211 258 306
#     4  10  21  37  57  81 110 143 178 216 258 303
#
# _framework density 18.460965000000002
#
# number of rings (size 3 to 8) (size 9 to 14) (size 15 to 20)
#    0.000    2.000    0.000    7.000    0.000    5.000 
#    0.000    5.000    0.000    0.000    0.000    0.000 
#    0.000    0.667    0.000    7.000    0.000    5.833 
#
# Total GULP energy -595054.718375 kJ/mol
# GULP energy per Si atom -12396.973299 kJ/mol
# Density = 1.841895 g / cm^3
# Si number density = 18.460965 Si / 1000 Ang^3
#
#
#
# Elastic Constant Matrix: (Units=GPa)
#
#
# Indices 1 2 3 4 5 6 
#
# 1 42.6740 36.1604 49.2020 0.0000 0.0000 0.0000
# 2 36.1604 136.6423 52.4452 0.0000 0.0000 0.0000
# 3 49.2020 52.4452 120.9081 0.0000 0.0000 0.0000
# 4 0.0000 0.0000 0.0000 37.6214 0.0000 0.0000
# 5 0.0000 0.0000 0.0000 0.0000 -0.1828 0.0000
# 6 0.0000 0.0000 0.0000 0.0000 0.0000 23.2867
#
#
#
# Elastic Compliance Matrix: (Units=1/GPa)
#
#
# Indices 1 2 3 4 5 6 
#
# 1 0.048254 -0.006278 -0.016913 0.000000 0.000000 0.000000
# 2 -0.006278 0.009597 -0.001608 0.000000 0.000000 0.000000
# 3 -0.016913 -0.001608 0.015851 0.000000 0.000000 0.000000
# 4 0.000000 0.000000 0.000000 0.026581 0.000000 0.000000
# 5 0.000000 0.000000 0.000000 0.000000 -5.471633 0.000000
# 6 0.000000 0.000000 0.000000 0.000000 0.000000 0.042943
#
#
# Mechanical properties :
#
#
# Convention : Reuss Voigt Hill
#
# Bulk Modulus (GPa) = 41.48848 63.98217 52.73532
# Shear Modulus (GPa) = -0.94863 22.97285 11.01211
#
# Velocity S-wave (km/s) = -0.71761 3.53143 2.44500
# Velocity P-wave (km/s) = 4.67288 7.16668 6.04968
#
# Compressibility (1/GPa) = 0.02410308
#
# Stress axis : x y z
#
# Youngs Moduli (GPa) = 20.72386 104.19967 63.08862
#
# Poissons Ratio (x) = 0.65418 1.06701
# Poissons Ratio (y) = 0.13011 0.10144
# Poissons Ratio (z) = 0.35050 0.16755
#
# Static dielectric constant tensor:
#      x y z
#    x 2.912330 0.000000 0.000000 
#    y 0.000000 3.525850 0.000000 
#    z 0.000000 0.000000 4.187270 
# 
# 
# High freq. dielectric constant tensor:
#      x y z
#    x 1.658000 0.000000 0.000000 
#    y 0.000000 1.738320 0.000000 
#    z 0.000000 0.000000 1.741100 
# 
# From -- ./inp_files/75351.got.cif
#   From: 2010.03.12/outbox.cif.g09.slc.cpg/sg65_38_cif.got.tgz:75351.got - 2010.04.10 20:52:16.
