data_PCOD8265013
_publ_section_title
;
Structure prediction by ZEFSAII (Michael W. Deem and Ramdas Pophale) SiO2 
 PCOD8265013
Probable space group: C M C A
;
_chemical_formula_sum "Si O2"
_cell_formula_units_Z 64
_cell_length_a 10.242975
_cell_length_b 9.116388
_cell_length_c 32.151194
_cell_angle_alpha 90.000000
_cell_angle_beta 90.000000
_cell_angle_gamma 90.000000
_cell_volume 3002.244235
_symmetry_space_group_name_H-M "C M C A"
_symmetry_group_IT_number 64
_symmetry_cell_setting 'orthorhombic'
loop_
_space_group_symop_operation_xyz
x,y,z
-x,1/2-y,1/2+z
x,-y,-z
-x,1/2+y,1/2-z
-x,-y,-z
x,1/2+y,1/2-z
-x,y,z
x,1/2-y,1/2+z
1/2+x,1/2+y,z
1/2-x,-y,1/2+z
1/2+x,1/2-y,-z
1/2-x,y,1/2-z
1/2-x,1/2-y,-z
1/2+x,y,1/2-z
1/2-x,1/2+y,z
1/2+x,-y,1/2+z
loop_
_atom_site_type_symbol
_atom_site_label
_atom_site_fract_x
_atom_site_fract_y
_atom_site_fract_z
Si Si1 0.000000 0.828917 0.208800
Si Si2 0.500000 0.074016 0.454981
Si Si3 0.000000 0.819627 0.797609
Si Si4 0.749791 0.031073 0.904205
Si Si5 0.000000 0.078929 0.543310
Si Si6 0.262456 0.217927 0.154803
O O1 0.126915 0.766424 0.186451
O O2 0.000000 0.766995 0.254802
O O3 0.000000 0.005272 0.209316
O O4 0.500000 0.247099 0.462003
O O5 0.500000 0.000000 0.500000
O O6 0.625236 0.027677 0.428637
O O7 0.123844 0.764450 0.823185
O O8 0.626616 0.020301 0.933639
O O9 0.772299 0.196520 0.889061
O O10 0.722111 0.948814 0.860432
O O11 0.000000 0.000000 0.500000
#
# Coordination Sequence:
#
# PCOD8265013 Si02
#       6
#     8   8   8  16   8  16
#     4  12  28  46  70 103 141 183 225 284 345 404
#     4  12  28  47  68 104 145 177 227 289 341 408
#     4  12  28  47  68 105 143 178 231 282 341 412
#     4  12  25  47  74 100 138 182 230 285 341 404
#     4  12  28  46  70 104 139 184 231 277 347 414
#     4  12  25  47  74 100 138 182 230 285 341 403
#
# _framework density 21.317385999999999
#
# number of rings (size 3 to 8) (size 9 to 14) (size 15 to 20)
#    0.000    0.000    5.000    4.500    7.000    4.000 
#    0.000    0.000    0.000    0.000    0.000    0.000 
#    0.000    0.000    0.000    0.000    0.000    0.000 
#
# Total GULP energy -396926.310245 kJ/mol
# GULP energy per Si atom -12403.947195 kJ/mol
# Density = 2.126887 g / cm^3
# Si number density = 21.317386 Si / 1000 Ang^3
#
#
#
# Elastic Constant Matrix: (Units=GPa)
#
#
# Indices 1 2 3 4 5 6 
#
# 1 186.5320 71.5647 74.9898 0.0000 0.0000 0.0000
# 2 71.5647 83.0245 53.9928 0.0000 0.0000 0.0000
# 3 74.9898 53.9928 143.0508 0.0000 0.0000 0.0000
# 4 0.0000 0.0000 0.0000 54.1256 0.0000 0.0000
# 5 0.0000 0.0000 0.0000 0.0000 180.8165 0.0000
# 6 0.0000 0.0000 0.0000 0.0000 0.0000 32.6265
#
#
#
# Elastic Compliance Matrix: (Units=1/GPa)
#
#
# Indices 1 2 3 4 5 6 
#
# 1 0.008522 -0.005885 -0.002246 0.000000 0.000000 0.000000
# 2 -0.005885 0.020027 -0.004474 0.000000 0.000000 0.000000
# 3 -0.002246 -0.004474 0.009857 0.000000 0.000000 0.000000
# 4 0.000000 0.000000 0.000000 0.018476 0.000000 0.000000
# 5 0.000000 0.000000 0.000000 0.000000 0.005530 0.000000
# 6 0.000000 0.000000 0.000000 0.000000 0.000000 0.030650
#
#
# Mechanical properties :
#
#
# Convention : Reuss Voigt Hill
#
# Bulk Modulus (GPa) = 75.78414 90.41133 83.09773
# Shear Modulus (GPa) = 40.76012 67.65108 54.20560
#
# Velocity S-wave (km/s) = 4.37745 5.63951 5.04808
# Velocity P-wave (km/s) = 7.82158 9.21464 8.54654
#
# Compressibility (1/GPa) = 0.01319537
#
# Stress axis : x y z
#
# Youngs Moduli (GPa) = 117.34683 49.93352 101.45496
#
# Poissons Ratio (x) = 0.29385 0.22788
# Poissons Ratio (y) = 0.69056 0.45390
# Poissons Ratio (z) = 0.26357 0.22340
#
# Static dielectric constant tensor:
#      x y z
#    x 4.095780 0.000000 0.000000 
#    y 0.000000 3.976080 0.000000 
#    z 0.000000 0.000000 5.167560 
# 
# 
# High freq. dielectric constant tensor:
#      x y z
#    x 1.855620 0.000000 0.000000 
#    y 0.000000 1.857170 0.000000 
#    z 0.000000 0.000000 1.852310 
# 
# From -- ./inp_files/52500.got.cif
#   From: 2010.03.12/outbox.cif.g09.slc.cpg/sg64_27_cif.got.tgz:52500.got - 2010.04.10 20:19:32.
