data_PCOD8265280
_publ_section_title
;
Structure prediction by ZEFSAII (Michael W. Deem and Ramdas Pophale) SiO2 
 PCOD8265280
Probable space group: C M M M
;
_chemical_formula_sum "Si O2"
_cell_formula_units_Z 88
_cell_length_a 30.477007
_cell_length_b 23.896330
_cell_length_c 8.781895
_cell_angle_alpha 90.000000
_cell_angle_beta 90.000000
_cell_angle_gamma 90.000000
_cell_volume 6395.754161
_symmetry_space_group_name_H-M "C M M M"
_symmetry_group_IT_number 65
_symmetry_cell_setting 'orthorhombic'
loop_
_space_group_symop_operation_xyz
x,y,z
-x,-y,z
x,-y,-z
-x,y,-z
-x,-y,-z
x,y,-z
-x,y,z
x,-y,z
1/2+x,1/2+y,z
1/2-x,1/2-y,z
1/2+x,1/2-y,-z
1/2-x,1/2+y,-z
1/2-x,1/2-y,-z
1/2+x,1/2+y,-z
1/2-x,1/2+y,z
1/2+x,1/2-y,z
loop_
_atom_site_type_symbol
_atom_site_label
_atom_site_fract_x
_atom_site_fract_y
_atom_site_fract_z
Si Si1 0.794292 0.215098 0.332466
Si Si2 0.000000 0.565076 0.319218
Si Si3 0.839006 0.323914 0.681098
Si Si4 0.753384 0.378193 0.178611
Si Si5 0.912083 0.393162 0.818958
Si Si6 0.359537 0.000000 0.819514
Si Si7 0.237181 0.500000 0.820430
O O1 0.806371 0.192043 0.500000
O O2 0.750000 0.250000 0.341764
O O3 0.831312 0.258452 0.273588
O O4 0.787277 0.161977 0.222575
O O5 0.040591 0.600553 0.255894
O O6 0.000000 0.500000 0.260881
O O7 0.000000 0.566186 0.500000
O O8 0.840596 0.330849 0.500000
O O9 0.799172 0.362033 0.742465
O O10 0.885618 0.339473 0.756331
O O11 0.739475 0.441739 0.228801
O O12 0.761951 0.374019 0.000000
O O13 0.884656 0.445961 0.759945
O O14 0.916887 0.389463 0.000000
O O15 0.311314 0.000000 0.747666
O O16 0.358201 0.000000 0.000000
O O17 0.232342 0.500000 0.000000
#
# Coordination Sequence:
#
# PCOD8265280 Si02
#       7
#    16   8  16  16  16   8   8
#     4   8  16  29  40  53  77 102 124 159 204 239
#     4  11  23  35  45  61  83 105 131 164 205 252
#     4  10  19  30  42  57  78 101 127 165 208 243
#     4  10  17  26  41  58  77 102 133 164 197 240
#     4  11  20  32  48  61  75 101 135 169 206 245
#     4   9  16  27  41  56  77  99 126 166 207 239
#     4   9  16  26  37  57  82 103 126 164 208 237
#
# _framework density 13.759128
#
# number of rings (size 3 to 8) (size 9 to 14) (size 15 to 20)
#    0.000    2.273    2.727    3.000    0.000    4.364 
#    0.000    2.727    0.000    0.000    0.000    0.000 
#    0.000    0.000    0.000    0.000    0.000    0.909 
#
# Total GULP energy -545228.033430 kJ/mol
# GULP energy per Si atom -12391.546214 kJ/mol
# Density = 1.372781 g / cm^3
# Si number density = 13.759128 Si / 1000 Ang^3
#
#
#
# Elastic Constant Matrix: (Units=GPa)
#
#
# Indices 1 2 3 4 5 6 
#
# 1 66.4496 50.4297 25.9989 0.0000 0.0000 0.0000
# 2 50.4297 104.2208 37.3913 0.0000 0.0000 0.0000
# 3 25.9989 37.3913 59.4013 0.0000 0.0000 0.0000
# 4 0.0000 0.0000 0.0000 14.4118 0.0000 0.0000
# 5 0.0000 0.0000 0.0000 0.0000 18.8037 0.0000
# 6 0.0000 0.0000 0.0000 0.0000 0.0000 17.9404
#
#
#
# Elastic Compliance Matrix: (Units=1/GPa)
#
#
# Indices 1 2 3 4 5 6 
#
# 1 0.024577 -0.010376 -0.004225 0.000000 0.000000 0.000000
# 2 -0.010376 0.016775 -0.006018 0.000000 0.000000 0.000000
# 3 -0.004225 -0.006018 0.022472 0.000000 0.000000 0.000000
# 4 0.000000 0.000000 0.000000 0.069387 0.000000 0.000000
# 5 0.000000 0.000000 0.000000 0.000000 0.053181 0.000000
# 6 0.000000 0.000000 0.000000 0.000000 0.000000 0.055740
#
#
# Mechanical properties :
#
#
# Convention : Reuss Voigt Hill
#
# Bulk Modulus (GPa) = 44.27703 50.85683 47.56693
# Shear Modulus (GPa) = 17.18810 17.98131 17.58471
#
# Velocity S-wave (km/s) = 3.53826 3.61898 3.57885
# Velocity P-wave (km/s) = 6.99588 7.38276 7.19192
#
# Compressibility (1/GPa) = 0.02258507
#
# Stress axis : x y z
#
# Youngs Moduli (GPa) = 40.68876 59.61344 44.49982
#
# Poissons Ratio (x) = 0.61856 0.18803
# Poissons Ratio (y) = 0.42219 0.26779
# Poissons Ratio (z) = 0.17192 0.35874
#
# Static dielectric constant tensor:
#      x y z
#    x 2.573150 0.000000 0.000000 
#    y 0.000000 3.008560 0.000000 
#    z 0.000000 0.000000 2.705790 
# 
# 
# High freq. dielectric constant tensor:
#      x y z
#    x 1.480110 0.000000 0.000000 
#    y 0.000000 1.515350 0.000000 
#    z 0.000000 0.000000 1.528360 
# 
# From -- ./inp_files/18823.got.cif
#   From: 2010.03.12/outbox.cif.g09.slc.cpg/sg65_10_cif.got.tgz:18823.got - 2010.04.10 20:52:16.
