data_PCOD8265715
_publ_section_title
;
Structure prediction by ZEFSAII (Michael W. Deem and Ramdas Pophale) SiO2 
 PCOD8265715
Probable space group: C M M M
;
_chemical_formula_sum "Si O2"
_cell_formula_units_Z 104
_cell_length_a 27.468750
_cell_length_b 9.368045
_cell_length_c 26.297000
_cell_angle_alpha 90.000000
_cell_angle_beta 90.000000
_cell_angle_gamma 90.000000
_cell_volume 6766.967199
_symmetry_space_group_name_H-M "C M M M"
_symmetry_group_IT_number 65
_symmetry_cell_setting 'orthorhombic'
loop_
_space_group_symop_operation_xyz
x,y,z
-x,-y,z
x,-y,-z
-x,y,-z
-x,-y,-z
x,y,-z
-x,y,z
x,-y,z
1/2+x,1/2+y,z
1/2-x,1/2-y,z
1/2+x,1/2-y,-z
1/2-x,1/2+y,-z
1/2-x,1/2-y,-z
1/2+x,1/2+y,-z
1/2-x,1/2+y,z
1/2+x,1/2-y,z
loop_
_atom_site_type_symbol
_atom_site_label
_atom_site_fract_x
_atom_site_fract_y
_atom_site_fract_z
Si Si1 0.555362 0.333955 0.941680
Si Si2 0.797541 0.160393 0.500000
Si Si3 0.698824 0.332230 0.389511
Si Si4 0.298012 0.164392 0.798729
Si Si5 0.605444 0.832657 0.855683
Si Si6 0.553808 0.830572 0.755494
Si Si7 0.853362 0.667302 0.303729
O O1 0.500000 0.286214 0.929986
O O2 0.561733 0.500000 0.929889
O O3 0.593024 0.246957 0.907551
O O4 0.568252 0.300716 0.000000
O O5 0.750000 0.250000 0.500000
O O6 0.825022 0.189424 0.446327
O O7 0.778540 0.000000 0.500000
O O8 0.706796 0.500000 0.377216
O O9 0.750000 0.250000 0.384231
O O10 0.660208 0.264127 0.351452
O O11 0.250000 0.250000 0.812557
O O12 0.339038 0.201481 0.840317
O O13 0.316843 0.202077 0.742359
O O14 0.284078 0.000000 0.801346
O O15 0.570410 0.774195 0.810762
O O16 0.597740 0.000000 0.864124
O O17 0.500000 0.770606 0.742421
O O18 0.592080 0.784473 0.712141
O O19 0.554128 0.000000 0.758387
O O20 0.851295 0.500000 0.318025
#
# Coordination Sequence:
#
# PCOD8265715 Si02
#       7
#    16   8  16  16  16  16  16
#     4   9  18  31  45  64  91 117 138 165 207 256
#     4   8  16  28  40  56  79 108 139 171 208 249
#     4  10  18  28  42  60  84 112 141 173 209 248
#     4   9  18  30  43  62  88 115 142 173 207 245
#     4   9  17  29  46  67  87 109 142 178 207 241
#     4   8  14  26  44  64  87 114 140 168 206 250
#     4   9  17  28  42  63  88 112 140 172 207 247
#
# _framework density 15.368776
#
# number of rings (size 3 to 8) (size 9 to 14) (size 15 to 20)
#    0.000    3.077    0.000    3.692    0.000    4.308 
#    0.000    3.077    0.000    1.846    0.000    0.538 
#    0.000    4.308    0.000    0.000    0.000    0.000 
#
# Total GULP energy -644415.560299 kJ/mol
# GULP energy per Si atom -12392.606929 kJ/mol
# Density = 1.533380 g / cm^3
# Si number density = 15.368776 Si / 1000 Ang^3
#
#
#
# Elastic Constant Matrix: (Units=GPa)
#
#
# Indices 1 2 3 4 5 6 
#
# 1 108.1366 45.2933 62.1112 0.0000 0.0000 0.0000
# 2 45.2933 59.8325 56.2470 0.0000 0.0000 0.0000
# 3 62.1112 56.2470 118.1883 0.0000 0.0000 0.0000
# 4 0.0000 0.0000 0.0000 27.6051 0.0000 0.0000
# 5 0.0000 0.0000 0.0000 0.0000 21.9759 0.0000
# 6 0.0000 0.0000 0.0000 0.0000 0.0000 22.6552
#
#
#
# Elastic Compliance Matrix: (Units=1/GPa)
#
#
# Indices 1 2 3 4 5 6 
#
# 1 0.014704 -0.006997 -0.004397 0.000000 0.000000 0.000000
# 2 -0.006997 0.033574 -0.012301 0.000000 0.000000 0.000000
# 3 -0.004397 -0.012301 0.016626 0.000000 0.000000 0.000000
# 4 0.000000 0.000000 0.000000 0.036225 0.000000 0.000000
# 5 0.000000 0.000000 0.000000 0.000000 0.045504 0.000000
# 6 0.000000 0.000000 0.000000 0.000000 0.000000 0.044140
#
#
# Mechanical properties :
#
#
# Convention : Reuss Voigt Hill
#
# Bulk Modulus (GPa) = 57.09976 68.16226 62.63101
# Shear Modulus (GPa) = 20.49156 22.61429 21.55292
#
# Velocity S-wave (km/s) = 3.65543 3.84010 3.74890
# Velocity P-wave (km/s) = 7.41957 8.00683 7.71878
#
# Compressibility (1/GPa) = 0.01751321
#
# Stress axis : x y z
#
# Youngs Moduli (GPa) = 68.00818 29.78491 60.14602
#
# Poissons Ratio (x) = 0.20841 0.26449
# Poissons Ratio (y) = 0.47586 0.73986
# Poissons Ratio (z) = 0.29906 0.36638
#
# Static dielectric constant tensor:
#      x y z
#    x 2.910810 0.000000 0.000000 
#    y 0.000000 2.791460 0.000000 
#    z 0.000000 0.000000 3.113780 
# 
# 
# High freq. dielectric constant tensor:
#      x y z
#    x 1.569160 0.000000 0.000000 
#    y 0.000000 1.580030 0.000000 
#    z 0.000000 0.000000 1.586340 
# 
# From -- ./inp_files/76032.got.cif
#   From: 2010.03.12/outbox.cif.g09.slc.cpg/sg65_39_cif.got.tgz:76032.got - 2010.04.10 20:52:16.
