data_PCOD8265221
_publ_section_title
;
Structure prediction by ZEFSAII (Michael W. Deem and Ramdas Pophale) SiO2 
 PCOD8265221
Probable space group: C M M M
;
_chemical_formula_sum "Si O2"
_cell_formula_units_Z 128
_cell_length_a 17.718267
_cell_length_b 18.837552
_cell_length_c 22.286431
_cell_angle_alpha 90.000000
_cell_angle_beta 90.000000
_cell_angle_gamma 90.000000
_cell_volume 7438.514795
_symmetry_space_group_name_H-M "C M M M"
_symmetry_group_IT_number 65
_symmetry_cell_setting 'orthorhombic'
loop_
_space_group_symop_operation_xyz
x,y,z
-x,-y,z
x,-y,-z
-x,y,-z
-x,-y,-z
x,y,-z
-x,y,z
x,-y,z
1/2+x,1/2+y,z
1/2-x,1/2-y,z
1/2+x,1/2-y,-z
1/2-x,1/2+y,-z
1/2-x,1/2-y,-z
1/2+x,1/2+y,-z
1/2-x,1/2+y,z
1/2+x,1/2-y,z
loop_
_atom_site_type_symbol
_atom_site_label
_atom_site_fract_x
_atom_site_fract_y
_atom_site_fract_z
Si Si1 0.913827 0.779502 0.861821
Si Si2 0.844423 0.175256 0.753400
Si Si3 0.671538 0.290053 0.431415
Si Si4 0.695465 0.846337 0.177112
Si Si5 0.415359 0.218809 0.667316
Si Si6 0.356358 0.921494 0.709897
Si Si7 0.804916 0.920177 0.652452
Si Si8 0.282916 0.671399 0.066187
O O1 0.910066 0.831107 0.803592
O O2 0.870803 0.708126 0.840526
O O3 0.871226 0.819728 0.916122
O O4 0.000000 0.763182 0.880452
O O5 0.764136 0.188526 0.785536
O O6 0.856614 0.245362 0.713007
O O7 0.849573 0.105641 0.711899
O O8 0.647089 0.299739 0.500000
O O9 0.750000 0.250000 0.424724
O O10 0.608733 0.240635 0.399844
O O11 0.676961 0.368543 0.402885
O O12 0.660214 0.907502 0.219136
O O13 0.734251 0.874673 0.114650
O O14 0.500000 0.246224 0.678266
O O15 0.413510 0.134606 0.680250
O O16 0.282674 0.917559 0.668558
O O17 0.392270 0.000000 0.706188
O O18 0.830890 0.000000 0.635982
O O19 0.250000 0.750000 0.065843
O O20 0.277278 0.636195 0.000000
#
# Coordination Sequence:
#
# PCOD8265221 Si02
#       8
#    16  16  16  16  16  16  16  16
#     4  10  17  24  41  69  95 126 164 206 252 300
#     4   9  17  28  47  69  95 127 167 206 249 301
#     4  10  20  35  56  77  99 130 171 210 241 284
#     4   9  17  28  47  65  96 131 164 208 252 294
#     4  11  21  32  51  75 101 133 165 201 247 299
#     4  10  19  30  47  73 103 132 163 205 255 303
#     4   9  18  31  51  76 100 127 163 208 255 296
#     4   8  15  27  42  63  91 128 165 202 252 298
#
# _framework density 17.207736000000001
#
# number of rings (size 3 to 8) (size 9 to 14) (size 15 to 20)
#    0.000    2.500    2.500    1.500    1.750    1.000 
#    0.000    0.000    0.000   10.125    0.000    4.375 
#    0.000    0.000    0.000   17.125    0.000    0.625 
#
# Total GULP energy -792889.805463 kJ/mol
# GULP energy per Si atom -12388.903210 kJ/mol
# Density = 1.716857 g / cm^3
# Si number density = 17.207736 Si / 1000 Ang^3
#
#
#
# Elastic Constant Matrix: (Units=GPa)
#
#
# Indices 1 2 3 4 5 6 
#
# 1 81.7727 18.6226 34.7412 0.0000 0.0000 0.0000
# 2 18.6226 87.4947 42.8556 0.0000 0.0000 0.0000
# 3 34.7412 42.8556 132.3819 0.0000 0.0000 0.0000
# 4 0.0000 0.0000 0.0000 15.4379 0.0000 0.0000
# 5 0.0000 0.0000 0.0000 0.0000 13.3812 0.0000
# 6 0.0000 0.0000 0.0000 0.0000 0.0000 10.9445
#
#
#
# Elastic Compliance Matrix: (Units=1/GPa)
#
#
# Indices 1 2 3 4 5 6 
#
# 1 0.013905 -0.001393 -0.003198 0.000000 0.000000 0.000000
# 2 -0.001393 0.013723 -0.004077 0.000000 0.000000 0.000000
# 3 -0.003198 -0.004077 0.009713 0.000000 0.000000 0.000000
# 4 0.000000 0.000000 0.000000 0.064776 0.000000 0.000000
# 5 0.000000 0.000000 0.000000 0.000000 0.074732 0.000000
# 6 0.000000 0.000000 0.000000 0.000000 0.000000 0.091370
#
#
# Mechanical properties :
#
#
# Convention : Reuss Voigt Hill
#
# Bulk Modulus (GPa) = 49.98862 54.89865 52.44364
# Shear Modulus (GPa) = 17.11027 21.64804 19.37915
#
# Velocity S-wave (km/s) = 3.15673 3.55074 3.35951
# Velocity P-wave (km/s) = 6.51151 6.98448 6.75214
#
# Compressibility (1/GPa) = 0.02000455
#
# Stress axis : x y z
#
# Youngs Moduli (GPa) = 71.91651 72.87237 102.95527
#
# Poissons Ratio (x) = 0.10152 0.32926
# Poissons Ratio (y) = 0.10019 0.41973
# Poissons Ratio (z) = 0.23000 0.29709
#
# Static dielectric constant tensor:
#      x y z
#    x 3.009340 0.000000 0.000000 
#    y 0.000000 3.016530 0.000000 
#    z 0.000000 0.000000 3.527430 
# 
# 
# High freq. dielectric constant tensor:
#      x y z
#    x 1.646730 0.000000 0.000000 
#    y 0.000000 1.628130 0.000000 
#    z 0.000000 0.000000 1.666000 
# 
# From -- ./inp_files/70671.got.cif
#   From: 2010.03.12/outbox.cif.g09.slc.cpg/sg65_36_cif.got.tgz:70671.got - 2010.04.10 20:52:16.
