data_PCOD8265380
_publ_section_title
;
Structure prediction by ZEFSAII (Michael W. Deem and Ramdas Pophale) SiO2 
 PCOD8265380
Probable space group: C M M M
;
_chemical_formula_sum "Si O2"
_cell_formula_units_Z 104
_cell_length_a 7.810913
_cell_length_b 26.043351
_cell_length_c 27.799961
_cell_angle_alpha 90.000000
_cell_angle_beta 90.000000
_cell_angle_gamma 90.000000
_cell_volume 5655.133366
_symmetry_space_group_name_H-M "C M M M"
_symmetry_group_IT_number 65
_symmetry_cell_setting 'orthorhombic'
loop_
_space_group_symop_operation_xyz
x,y,z
-x,-y,z
x,-y,-z
-x,y,-z
-x,-y,-z
x,y,-z
-x,y,z
x,-y,z
1/2+x,1/2+y,z
1/2-x,1/2-y,z
1/2+x,1/2-y,-z
1/2-x,1/2+y,-z
1/2-x,1/2-y,-z
1/2+x,1/2+y,-z
1/2-x,1/2+y,z
1/2+x,1/2-y,z
loop_
_atom_site_type_symbol
_atom_site_label
_atom_site_fract_x
_atom_site_fract_y
_atom_site_fract_z
Si Si1 0.204105 0.000000 0.890404
Si Si2 0.000000 0.060910 0.553603
Si Si3 0.298493 0.305419 0.115140
Si Si4 0.807137 0.440626 0.620113
Si Si5 0.704318 0.400027 0.054197
Si Si6 0.203178 0.000000 0.217870
Si Si7 0.203807 0.903527 0.720639
Si Si8 0.201128 0.194588 0.777336
O O1 0.273548 0.050034 0.918007
O O2 0.277567 0.000000 0.836191
O O3 0.000000 0.000000 0.889612
O O4 0.828527 0.079912 0.580848
O O5 0.000000 0.084821 0.500000
O O6 0.000000 0.000000 0.550206
O O7 0.500000 0.311908 0.117740
O O8 0.250000 0.250000 0.093152
O O9 0.221865 0.349686 0.081077
O O10 0.219521 0.310610 0.168945
O O11 0.767645 0.500000 0.632369
O O12 0.788237 0.408054 0.668523
O O13 0.000000 0.433846 0.599731
O O14 0.500000 0.399710 0.053735
O O15 0.776296 0.400563 0.000000
O O16 0.269386 0.050447 0.245393
O O17 0.000000 0.000000 0.215757
O O18 0.272885 0.850369 0.743316
O O19 0.000000 0.905124 0.715055
O O20 0.250000 0.250000 0.755168
O O21 0.000000 0.188256 0.780638
#
# Coordination Sequence:
#
# PCOD8265380 Si02
#       8
#     8   8  16  16  16   8  16  16
#     4   9  15  24  37  61  89 112 148 191 236 294
#     4   9  18  32  50  70 102 146 184 220 258 297
#     4   9  17  30  45  63  88 114 150 190 235 289
#     4  10  19  30  47  72 104 139 176 215 257 301
#     4   9  16  25  39  59  86 115 143 189 245 291
#     4   9  16  23  41  64  85 119 159 196 238 296
#     4  10  17  28  46  67  94 129 164 200 251 303
#     4   9  18  30  45  64  89 125 160 198 242 299
#
# _framework density 18.390370999999998
#
# number of rings (size 3 to 8) (size 9 to 14) (size 15 to 20)
#    0.000    2.692    1.538    1.154    0.000    5.846 
#    0.000    1.538    0.000    0.000    0.000    0.538 
#    0.000    1.846    0.308    0.000    0.000    0.000 
#
# Total GULP energy -644710.799603 kJ/mol
# GULP energy per Si atom -12398.284608 kJ/mol
# Density = 1.834851 g / cm^3
# Si number density = 18.390371 Si / 1000 Ang^3
#
#
#
# Elastic Constant Matrix: (Units=GPa)
#
#
# Indices 1 2 3 4 5 6 
#
# 1 47.5858 17.5358 32.2940 0.0000 0.0000 0.0000
# 2 17.5358 141.2576 72.8281 0.0000 0.0000 0.0000
# 3 32.2940 72.8281 148.7291 0.0000 0.0000 0.0000
# 4 0.0000 0.0000 0.0000 14.8853 0.0000 0.0000
# 5 0.0000 0.0000 0.0000 0.0000 6.8038 0.0000
# 6 0.0000 0.0000 0.0000 0.0000 0.0000 17.3440
#
#
#
# Elastic Compliance Matrix: (Units=1/GPa)
#
#
# Indices 1 2 3 4 5 6 
#
# 1 0.024664 -0.000402 -0.005158 0.000000 0.000000 0.000000
# 2 -0.000402 0.009477 -0.004553 0.000000 0.000000 0.000000
# 3 -0.005158 -0.004553 0.010073 0.000000 0.000000 0.000000
# 4 0.000000 0.000000 0.000000 0.067180 0.000000 0.000000
# 5 0.000000 0.000000 0.000000 0.000000 0.146978 0.000000
# 6 0.000000 0.000000 0.000000 0.000000 0.000000 0.057657
#
#
# Mechanical properties :
#
#
# Convention : Reuss Voigt Hill
#
# Bulk Modulus (GPa) = 41.69087 64.76536 53.22812
# Shear Modulus (GPa) = 14.52430 22.13426 18.32928
#
# Velocity S-wave (km/s) = 2.81335 3.47303 3.16045
# Velocity P-wave (km/s) = 5.76822 7.16771 6.50570
#
# Compressibility (1/GPa) = 0.02398607
#
# Stress axis : x y z
#
# Youngs Moduli (GPa) = 40.54564 105.52284 99.27370
#
# Poissons Ratio (x) = 0.04245 0.51208
# Poissons Ratio (y) = 0.01631 0.45200
# Poissons Ratio (z) = 0.20915 0.48045
#
# Static dielectric constant tensor:
#      x y z
#    x 3.066480 0.000000 0.000000 
#    y 0.000000 3.427870 0.000000 
#    z 0.000000 0.000000 3.439230 
# 
# 
# High freq. dielectric constant tensor:
#      x y z
#    x 1.690750 0.000000 0.000000 
#    y 0.000000 1.696220 0.000000 
#    z 0.000000 0.000000 1.697790 
# 
# From -- ./inp_files/73856.got.cif
#   From: 2010.03.12/outbox.cif.g09.slc.cpg/sg65_37_cif.got.tgz:73856.got - 2010.04.10 20:52:16.
