data_PCOD8265510
_publ_section_title
;
Structure prediction by ZEFSAII (Michael W. Deem and Ramdas Pophale) SiO2 
 PCOD8265510
Probable space group: C M M M
;
_chemical_formula_sum "Si O2"
_cell_formula_units_Z 72
_cell_length_a 8.197573
_cell_length_b 20.880018
_cell_length_c 22.699051
_cell_angle_alpha 90.000000
_cell_angle_beta 90.000000
_cell_angle_gamma 90.000000
_cell_volume 3885.293774
_symmetry_space_group_name_H-M "C M M M"
_symmetry_group_IT_number 65
_symmetry_cell_setting 'orthorhombic'
loop_
_space_group_symop_operation_xyz
x,y,z
-x,-y,z
x,-y,-z
-x,y,-z
-x,-y,-z
x,y,-z
-x,y,z
x,-y,z
1/2+x,1/2+y,z
1/2-x,1/2-y,z
1/2+x,1/2-y,-z
1/2-x,1/2+y,-z
1/2-x,1/2-y,-z
1/2+x,1/2+y,-z
1/2-x,1/2+y,z
1/2+x,1/2-y,z
loop_
_atom_site_type_symbol
_atom_site_label
_atom_site_fract_x
_atom_site_fract_y
_atom_site_fract_z
Si Si1 0.250000 0.750000 0.868998
Si Si2 0.819088 0.355682 0.780813
Si Si3 0.000000 0.924880 0.171330
Si Si4 0.500000 0.664103 0.931745
Si Si5 0.189959 0.681094 0.350325
Si Si6 0.305814 0.071185 0.433736
O O1 0.151950 0.702615 0.826071
O O2 0.348356 0.706767 0.913889
O O3 0.668534 0.400751 0.799265
O O4 0.764792 0.328742 0.717724
O O5 0.000000 0.390099 0.777254
O O6 0.000000 0.902770 0.103449
O O7 0.000000 0.000000 0.174863
O O8 0.500000 0.646572 0.000000
O O9 0.250000 0.750000 0.372399
O O10 0.270155 0.624208 0.389505
O O11 0.000000 0.678820 0.360625
O O12 0.246498 0.086851 0.500000
O O13 0.500000 0.072076 0.431102
O O14 0.244283 0.000000 0.415064
#
# Coordination Sequence:
#
# PCOD8265510 Si02
#       6
#     8  16   8   8  16  16
#     4  10  17  32  54  82 113 140 180 220 286 328
#     4  10  20  35  57  82 114 149 178 229 281 332
#     4  10  24  39  56  82 111 151 191 221 275 331
#     4  10  20  33  56  82 109 143 183 231 269 323
#     4  10  20  30  52  81 107 139 176 223 282 333
#     4   8  15  30  49  70 100 139 184 227 266 320
#
# _framework density 18.531416
#
# number of rings (size 3 to 8) (size 9 to 14) (size 15 to 20)
#    0.000    2.444    2.222    1.000    1.556    2.000 
#    0.000    2.222    0.000    0.000    0.000    4.667 
#    0.000    0.000    0.000    0.000    0.000    0.000 
#
# Total GULP energy -445972.714989 kJ/mol
# GULP energy per Si atom -12388.130972 kJ/mol
# Density = 1.848924 g / cm^3
# Si number density = 18.531416 Si / 1000 Ang^3
#
#
#
# Elastic Constant Matrix: (Units=GPa)
#
#
# Indices 1 2 3 4 5 6 
#
# 1 73.3589 39.1516 26.7892 0.0000 0.0000 0.0000
# 2 39.1516 146.5759 67.8507 0.0000 0.0000 0.0000
# 3 26.7892 67.8507 119.7337 0.0000 0.0000 0.0000
# 4 0.0000 0.0000 0.0000 15.9183 0.0000 0.0000
# 5 0.0000 0.0000 0.0000 0.0000 11.4156 0.0000
# 6 0.0000 0.0000 0.0000 0.0000 0.0000 31.0215
#
#
#
# Elastic Compliance Matrix: (Units=1/GPa)
#
#
# Indices 1 2 3 4 5 6 
#
# 1 0.016116 -0.003573 -0.001581 0.000000 0.000000 0.000000
# 2 -0.003573 0.010040 -0.004890 0.000000 0.000000 0.000000
# 3 -0.001581 -0.004890 0.011477 0.000000 0.000000 0.000000
# 4 0.000000 0.000000 0.000000 0.062821 0.000000 0.000000
# 5 0.000000 0.000000 0.000000 0.000000 0.087599 0.000000
# 6 0.000000 0.000000 0.000000 0.000000 0.000000 0.032236
#
#
# Mechanical properties :
#
#
# Convention : Reuss Voigt Hill
#
# Bulk Modulus (GPa) = 56.99737 67.47236 62.23486
# Shear Modulus (GPa) = 20.30658 25.39622 22.85140
#
# Velocity S-wave (km/s) = 3.31387 3.70596 3.51539
# Velocity P-wave (km/s) = 6.74286 7.40277 7.08051
#
# Compressibility (1/GPa) = 0.01754467
#
# Stress axis : x y z
#
# Youngs Moduli (GPa) = 62.05100 99.59669 87.13143
#
# Poissons Ratio (x) = 0.35583 0.13777
# Poissons Ratio (y) = 0.22169 0.42611
# Poissons Ratio (z) = 0.09811 0.48707
#
# Static dielectric constant tensor:
#      x y z
#    x 3.120330 0.000000 0.000000 
#    y 0.000000 3.683090 0.000000 
#    z 0.000000 0.000000 3.475460 
# 
# 
# High freq. dielectric constant tensor:
#      x y z
#    x 1.706420 0.000000 0.000000 
#    y 0.000000 1.709590 0.000000 
#    z 0.000000 0.000000 1.717820 
# 
# From -- ./inp_files/64422.got.cif
#   From: 2010.03.12/outbox.cif.g09.slc.cpg/sg65_33_cif.got.tgz:64422.got - 2010.04.10 20:52:16.
