data_PCOD8265051
_publ_section_title
;
Structure prediction by ZEFSAII (Michael W. Deem and Ramdas Pophale) SiO2 
 PCOD8265051
Probable space group: C M M M
;
_chemical_formula_sum "Si O2"
_cell_formula_units_Z 72
_cell_length_a 22.108057
_cell_length_b 17.664881
_cell_length_c 11.646816
_cell_angle_alpha 90.000000
_cell_angle_beta 90.000000
_cell_angle_gamma 90.000000
_cell_volume 4548.503217
_symmetry_space_group_name_H-M "C M M M"
_symmetry_group_IT_number 65
_symmetry_cell_setting 'orthorhombic'
loop_
_space_group_symop_operation_xyz
x,y,z
-x,-y,z
x,-y,-z
-x,y,-z
-x,-y,-z
x,y,-z
-x,y,z
x,-y,z
1/2+x,1/2+y,z
1/2-x,1/2-y,z
1/2+x,1/2-y,-z
1/2-x,1/2+y,-z
1/2-x,1/2-y,-z
1/2+x,1/2+y,-z
1/2-x,1/2+y,z
1/2+x,1/2-y,z
loop_
_atom_site_type_symbol
_atom_site_label
_atom_site_fract_x
_atom_site_fract_y
_atom_site_fract_z
Si Si1 0.352294 0.124443 0.749595
Si Si2 0.705578 0.320180 0.500000
Si Si3 0.180446 0.588052 0.500000
Si Si4 0.770564 0.915413 0.130808
Si Si5 0.317447 0.283522 0.741068
Si Si6 0.071455 0.500000 0.868174
O O1 0.352882 0.121811 0.611515
O O2 0.289183 0.090053 0.792553
O O3 0.360248 0.213848 0.781904
O O4 0.405891 0.075887 0.804968
O O5 0.750000 0.250000 0.500000
O O6 0.747688 0.394786 0.500000
O O7 0.664523 0.315879 0.385165
O O8 0.170863 0.500000 0.500000
O O9 0.820577 0.853779 0.170458
O O10 0.797744 0.000000 0.144189
O O11 0.752531 0.898345 0.000000
O O12 0.250000 0.250000 0.736764
O O13 0.000000 0.500000 0.861556
O O14 0.094369 0.500000 0.000000
#
# Coordination Sequence:
#
# PCOD8265051 Si02
#       6
#    16   8   8  16  16   8
#     4  11  19  31  46  64  85 119 155 193 235 275
#     4  10  14  26  38  62  90 112 144 179 214 268
#     4  12  18  26  46  66  88 124 156 186 227 272
#     4  10  18  27  40  62  92 121 150 185 224 278
#     4   9  17  26  42  62  89 114 150 183 221 278
#     4  11  24  39  51  63  85 120 167 213 242 271
#
# _framework density 15.829383
#
# number of rings (size 3 to 8) (size 9 to 14) (size 15 to 20)
#    0.000    1.667    8.889    0.667    0.000    4.889 
#    0.000    1.111    0.000    0.000    0.000    0.000 
#    0.000    0.889    0.000    4.889    0.000    7.556 
#
# Total GULP energy -446153.890169 kJ/mol
# GULP energy per Si atom -12393.163616 kJ/mol
# Density = 1.579335 g / cm^3
# Si number density = 15.829383 Si / 1000 Ang^3
#
#
#
# Elastic Constant Matrix: (Units=GPa)
#
#
# Indices 1 2 3 4 5 6 
#
# 1 28.6206 26.2170 20.0611 0.0000 0.0000 0.0000
# 2 26.2170 113.7467 49.7329 0.0000 0.0000 0.0000
# 3 20.0611 49.7329 114.6215 0.0000 0.0000 0.0000
# 4 0.0000 0.0000 0.0000 26.4740 0.0000 0.0000
# 5 0.0000 0.0000 0.0000 0.0000 5.8641 0.0000
# 6 0.0000 0.0000 0.0000 0.0000 0.0000 14.5746
#
#
#
# Elastic Compliance Matrix: (Units=1/GPa)
#
#
# Indices 1 2 3 4 5 6 
#
# 1 0.045910 -0.008723 -0.004250 0.000000 0.000000 0.000000
# 2 -0.008723 0.012507 -0.003900 0.000000 0.000000 0.000000
# 3 -0.004250 -0.003900 0.011160 0.000000 0.000000 0.000000
# 4 0.000000 0.000000 0.000000 0.037773 0.000000 0.000000
# 5 0.000000 0.000000 0.000000 0.000000 0.170528 0.000000
# 6 0.000000 0.000000 0.000000 0.000000 0.000000 0.068613
#
#
# Mechanical properties :
#
#
# Convention : Reuss Voigt Hill
#
# Bulk Modulus (GPa) = 27.90930 49.89008 38.89969
# Shear Modulus (GPa) = 12.74920 20.11438 16.43179
#
# Velocity S-wave (km/s) = 2.84106 3.56855 3.22538
# Velocity P-wave (km/s) = 5.33214 6.96888 6.20472
#
# Compressibility (1/GPa) = 0.03583035
#
# Stress axis : x y z
#
# Youngs Moduli (GPa) = 21.78197 79.95400 89.60245
#
# Poissons Ratio (x) = 0.69745 0.38083
# Poissons Ratio (y) = 0.19001 0.34945
# Poissons Ratio (z) = 0.09258 0.31182
#
# Static dielectric constant tensor:
#      x y z
#    x 1.602570 0.000000 0.000000 
#    y 0.000000 3.668870 0.000000 
#    z 0.000000 0.000000 3.607490 
# 
# 
# High freq. dielectric constant tensor:
#      x y z
#    x 1.505750 0.000000 0.000000 
#    y 0.000000 1.625580 0.000000 
#    z 0.000000 0.000000 1.631300 
# 
# From -- ./inp_files/26610.got.cif
#   From: 2010.03.12/outbox.cif.g09.slc.cpg/sg65_14_cif.got.tgz:26610.got - 2010.04.10 20:52:16.
