data_PCOD8265111
_publ_section_title
;
Structure prediction by ZEFSAII (Michael W. Deem and Ramdas Pophale) SiO2 
 PCOD8265111
Probable space group: C M M M
;
_chemical_formula_sum "Si O2"
_cell_formula_units_Z 88
_cell_length_a 8.927051
_cell_length_b 18.499533
_cell_length_c 28.241663
_cell_angle_alpha 90.000000
_cell_angle_beta 90.000000
_cell_angle_gamma 90.000000
_cell_volume 4664.005432
_symmetry_space_group_name_H-M "C M M M"
_symmetry_group_IT_number 65
_symmetry_cell_setting 'orthorhombic'
loop_
_space_group_symop_operation_xyz
x,y,z
-x,-y,z
x,-y,-z
-x,y,-z
-x,-y,-z
x,y,-z
-x,y,z
x,-y,z
1/2+x,1/2+y,z
1/2-x,1/2-y,z
1/2+x,1/2-y,-z
1/2-x,1/2+y,-z
1/2-x,1/2-y,-z
1/2+x,1/2+y,-z
1/2-x,1/2+y,z
1/2+x,1/2-y,z
loop_
_atom_site_type_symbol
_atom_site_label
_atom_site_fract_x
_atom_site_fract_y
_atom_site_fract_z
Si Si1 0.327182 0.582569 0.554670
Si Si2 0.824665 0.416923 0.724482
Si Si3 0.178386 0.330294 0.000000
Si Si4 0.673272 0.672579 0.804699
Si Si5 0.173786 0.827026 0.909488
Si Si6 0.676104 0.172879 0.366545
O O1 0.299303 0.601422 0.500000
O O2 0.500000 0.594703 0.568044
O O3 0.280298 0.500000 0.565006
O O4 0.225408 0.635856 0.584835
O O5 0.779434 0.500000 0.718262
O O6 0.739715 0.385869 0.769514
O O7 0.771663 0.376249 0.677261
O O8 0.000000 0.406994 0.733159
O O9 0.250000 0.250000 0.000000
O O10 0.240562 0.369959 0.047830
O O11 0.000000 0.329157 0.000000
O O12 0.500000 0.685089 0.793395
O O13 0.750000 0.750000 0.798101
O O14 0.694315 0.638037 0.857485
O O15 0.250000 0.750000 0.905112
O O16 0.000000 0.819086 0.923132
O O17 0.500000 0.183296 0.367793
O O18 0.750000 0.250000 0.360221
#
# Coordination Sequence:
#
# PCOD8265111 Si02
#       6
#    16  16   8  16  16  16
#     4   9  19  37  60  85 113 145 181 221 265 312
#     4  10  22  39  57  78 105 136 172 217 266 316
#     4  10  16  22  36  60  91 128 167 204 249 303
#     4  10  20  33  52  77 104 137 175 215 261 313
#     4   9  16  26  40  62  94 129 165 206 252 301
#     4  11  23  38  57  82 111 143 180 220 265 315
#
# _framework density 18.867902000000001
#
# number of rings (size 3 to 8) (size 9 to 14) (size 15 to 20)
#    0.000    2.182    0.000    5.182    0.000    7.273 
#    0.000    0.909    0.000    0.000    0.000    0.636 
#    0.000    5.091    0.000    0.000    0.000    0.000 
#
# Total GULP energy -545461.321761 kJ/mol
# GULP energy per Si atom -12396.848222 kJ/mol
# Density = 1.882496 g / cm^3
# Si number density = 18.867902 Si / 1000 Ang^3
#
#
#
# Elastic Constant Matrix: (Units=GPa)
#
#
# Indices 1 2 3 4 5 6 
#
# 1 105.0417 54.2092 71.8199 0.0000 0.0000 0.0000
# 2 54.2092 103.6497 70.6771 0.0000 0.0000 0.0000
# 3 71.8199 70.6771 146.8541 0.0000 0.0000 0.0000
# 4 0.0000 0.0000 0.0000 0.9099 0.0000 0.0000
# 5 0.0000 0.0000 0.0000 0.0000 34.3433 0.0000
# 6 0.0000 0.0000 0.0000 0.0000 0.0000 10.2274
#
#
#
# Elastic Compliance Matrix: (Units=1/GPa)
#
#
# Indices 1 2 3 4 5 6 
#
# 1 0.015534 -0.004382 -0.005488 0.000000 0.000000 0.000000
# 2 -0.004382 0.015597 -0.005363 0.000000 0.000000 0.000000
# 3 -0.005488 -0.005363 0.012075 0.000000 0.000000 0.000000
# 4 0.000000 0.000000 0.000000 1.099052 0.000000 0.000000
# 5 0.000000 0.000000 0.000000 0.000000 0.029118 0.000000
# 6 0.000000 0.000000 0.000000 0.000000 0.000000 0.097776
#
#
# Mechanical properties :
#
#
# Convention : Reuss Voigt Hill
#
# Bulk Modulus (GPa) = 78.50119 83.21753 80.85936
# Shear Modulus (GPa) = 3.83476 19.68541 11.76008
#
# Velocity S-wave (km/s) = 1.42718 3.23356 2.49928
# Velocity P-wave (km/s) = 6.66422 7.62511 7.16080
#
# Compressibility (1/GPa) = 0.01273866
#
# Stress axis : x y z
#
# Youngs Moduli (GPa) = 64.37605 64.11536 82.81864
#
# Poissons Ratio (x) = 0.28096 0.45450
# Poissons Ratio (y) = 0.28210 0.44418
# Poissons Ratio (z) = 0.35329 0.34387
#
# Static dielectric constant tensor:
#      x y z
#    x 3.552860 0.000000 0.000000 
#    y 0.000000 3.105720 0.000000 
#    z 0.000000 0.000000 4.234760 
# 
# 
# High freq. dielectric constant tensor:
#      x y z
#    x 1.742180 0.000000 0.000000 
#    y 0.000000 1.690950 0.000000 
#    z 0.000000 0.000000 1.758780 
# 
# From -- ./inp_files/76482.got.cif
#   From: 2010.03.12/outbox.cif.g09.slc.cpg/sg65_39_cif.got.tgz:76482.got - 2010.04.10 20:52:16.
