data_PCOD8265263
_publ_section_title
;
Structure prediction by ZEFSAII (Michael W. Deem and Ramdas Pophale) SiO2 
 PCOD8265263
Probable space group: C M M M
;
_chemical_formula_sum "Si O2"
_cell_formula_units_Z 72
_cell_length_a 25.125716
_cell_length_b 8.687111
_cell_length_c 20.505397
_cell_angle_alpha 90.000000
_cell_angle_beta 90.000000
_cell_angle_gamma 90.000000
_cell_volume 4475.710621
_symmetry_space_group_name_H-M "C M M M"
_symmetry_group_IT_number 65
_symmetry_cell_setting 'orthorhombic'
loop_
_space_group_symop_operation_xyz
x,y,z
-x,-y,z
x,-y,-z
-x,y,-z
-x,-y,-z
x,y,-z
-x,y,z
x,-y,z
1/2+x,1/2+y,z
1/2-x,1/2-y,z
1/2+x,1/2-y,-z
1/2-x,1/2+y,-z
1/2-x,1/2-y,-z
1/2+x,1/2+y,-z
1/2-x,1/2+y,z
1/2+x,1/2-y,z
loop_
_atom_site_type_symbol
_atom_site_label
_atom_site_fract_x
_atom_site_fract_y
_atom_site_fract_z
Si Si1 0.691793 0.181274 0.170101
Si Si2 0.809126 0.817932 0.698296
Si Si3 0.000000 0.673435 0.077472
Si Si4 0.691795 0.179528 0.570691
Si Si5 0.608848 0.322700 0.923053
O O1 0.750000 0.250000 0.157856
O O2 0.664479 0.250536 0.235895
O O3 0.655331 0.223375 0.109030
O O4 0.697017 0.000000 0.177246
O O5 0.750000 0.750000 0.695885
O O6 0.838904 0.761057 0.631626
O O7 0.808973 0.000000 0.701693
O O8 0.052045 0.762340 0.102957
O O9 0.000000 0.500000 0.105346
O O10 0.000000 0.671672 0.000000
O O11 0.663070 0.207023 0.500000
O O12 0.750000 0.250000 0.565631
O O13 0.696562 0.000000 0.586146
O O14 0.614889 0.500000 0.903060
O O15 0.613890 0.299039 0.000000
#
# Coordination Sequence:
#
# PCOD8265263 Si02
#       5
#    16  16   8  16  16
#     4  11  21  33  47  63  87 118 152 186 222 266
#     4  10  17  26  39  54  76 106 141 177 214 257
#     4   9  17  31  51  73  93 113 140 175 218 265
#     4   9  15  22  33  50  72  99 134 174 212 249
#     4  10  20  34  51  70  91 115 145 182 223 265
#
# _framework density 16.086832000000001
#
# number of rings (size 3 to 8) (size 9 to 14) (size 15 to 20)
#    0.000    2.111    0.000    8.333    0.000    4.444 
#    0.000    0.000    0.000    0.000    0.000    0.000 
#    0.000    0.000    0.000    1.000    0.000   18.889 
#
# Total GULP energy -446140.449170 kJ/mol
# GULP energy per Si atom -12392.790255 kJ/mol
# Density = 1.605022 g / cm^3
# Si number density = 16.086832 Si / 1000 Ang^3
#
#
#
# Elastic Constant Matrix: (Units=GPa)
#
#
# Indices 1 2 3 4 5 6 
#
# 1 55.5321 31.2453 34.4527 0.0000 0.0000 0.0000
# 2 31.2453 148.9459 48.6790 0.0000 0.0000 0.0000
# 3 34.4527 48.6790 78.7227 0.0000 0.0000 0.0000
# 4 0.0000 0.0000 0.0000 28.4522 0.0000 0.0000
# 5 0.0000 0.0000 0.0000 0.0000 0.6927 0.0000
# 6 0.0000 0.0000 0.0000 0.0000 0.0000 20.2139
#
#
#
# Elastic Compliance Matrix: (Units=1/GPa)
#
#
# Indices 1 2 3 4 5 6 
#
# 1 0.025238 -0.002111 -0.009740 0.000000 0.000000 0.000000
# 2 -0.002111 0.008591 -0.004388 0.000000 0.000000 0.000000
# 3 -0.009740 -0.004388 0.019679 0.000000 0.000000 0.000000
# 4 0.000000 0.000000 0.000000 0.035147 0.000000 0.000000
# 5 0.000000 0.000000 0.000000 0.000000 1.443647 0.000000
# 6 0.000000 0.000000 0.000000 0.000000 0.000000 0.049471
#
#
# Mechanical properties :
#
#
# Convention : Reuss Voigt Hill
#
# Bulk Modulus (GPa) = 47.55271 56.88384 52.21827
# Shear Modulus (GPa) = 3.08402 21.12667 12.10535
#
# Velocity S-wave (km/s) = 1.38610 3.62787 2.74615
# Velocity P-wave (km/s) = 5.67326 7.27914 6.52578
#
# Compressibility (1/GPa) = 0.02102929
#
# Stress axis : x y z
#
# Youngs Moduli (GPa) = 39.62244 116.40183 50.81545
#
# Poissons Ratio (x) = 0.24574 0.49494
# Poissons Ratio (y) = 0.08365 0.22300
# Poissons Ratio (z) = 0.38592 0.51081
#
# Static dielectric constant tensor:
#      x y z
#    x 2.568700 0.000000 0.000000 
#    y 0.000000 3.301430 0.000000 
#    z 0.000000 0.000000 4.009230 
# 
# 
# High freq. dielectric constant tensor:
#      x y z
#    x 1.544060 0.000000 0.000000 
#    y 0.000000 1.644860 0.000000 
#    z 0.000000 0.000000 1.629340 
# 
# From -- ./inp_files/57136.got.cif
#   From: 2010.03.12/outbox.cif.g09.slc.cpg/sg65_29_cif.got.tgz:57136.got - 2010.04.10 20:52:16.
