data_PCOD8265401
_publ_section_title
;
Structure prediction by ZEFSAII (Michael W. Deem and Ramdas Pophale) SiO2 
 PCOD8265401
Probable space group: C M M M
;
_chemical_formula_sum "Si O2"
_cell_formula_units_Z 104
_cell_length_a 8.716715
_cell_length_b 28.453501
_cell_length_c 23.280379
_cell_angle_alpha 90.000000
_cell_angle_beta 90.000000
_cell_angle_gamma 90.000000
_cell_volume 5774.024253
_symmetry_space_group_name_H-M "C M M M"
_symmetry_group_IT_number 65
_symmetry_cell_setting 'orthorhombic'
loop_
_space_group_symop_operation_xyz
x,y,z
-x,-y,z
x,-y,-z
-x,y,-z
-x,-y,-z
x,y,-z
-x,y,z
x,-y,z
1/2+x,1/2+y,z
1/2-x,1/2-y,z
1/2+x,1/2-y,-z
1/2-x,1/2+y,-z
1/2-x,1/2-y,-z
1/2+x,1/2+y,-z
1/2-x,1/2+y,z
1/2+x,1/2-y,z
loop_
_atom_site_type_symbol
_atom_site_label
_atom_site_fract_x
_atom_site_fract_y
_atom_site_fract_z
Si Si1 0.318613 0.299483 0.851341
Si Si2 0.682317 0.892634 0.891711
Si Si3 0.180533 0.798932 0.280286
Si Si4 0.817729 0.552622 0.436384
Si Si5 0.319121 0.554807 0.000000
Si Si6 0.317783 0.947475 0.779839
Si Si7 0.682473 0.110510 0.329096
O O1 0.500000 0.298317 0.858684
O O2 0.250000 0.250000 0.872392
O O3 0.247853 0.339855 0.891460
O O4 0.268915 0.309120 0.785395
O O5 0.500000 0.890705 0.895280
O O6 0.742063 0.918895 0.834717
O O7 0.746948 0.921166 0.944788
O O8 0.250000 0.750000 0.301604
O O9 0.246279 0.838228 0.322512
O O10 0.000000 0.796595 0.285976
O O11 0.763981 0.569035 0.500000
O O12 0.755792 0.500000 0.423799
O O13 0.754514 0.588497 0.388582
O O14 0.000000 0.551553 0.433216
O O15 0.274988 0.500000 0.000000
O O16 0.500000 0.562529 0.000000
O O17 0.500000 0.949444 0.779898
O O18 0.257531 0.922377 0.722458
O O19 0.249107 0.000000 0.781971
O O20 0.500000 0.114644 0.328330
#
# Coordination Sequence:
#
# PCOD8265401 Si02
#       7
#    16  16  16  16   8  16  16
#     4  10  20  35  56  81 110 141 175 215 267 323
#     4  11  21  36  58  82 109 140 179 222 265 316
#     4  10  20  33  51  75 106 138 173 214 263 320
#     4   8  14  25  44  73 107 142 180 219 257 303
#     4  11  25  43  60  79 108 147 187 223 263 313
#     4   9  17  28  46  75 106 134 168 213 260 306
#     4  10  17  28  49  76 106 137 174 217 264 311
#
# _framework density 18.011700999999999
#
# number of rings (size 3 to 8) (size 9 to 14) (size 15 to 20)
#    0.000    2.231    1.538    3.000    0.000    4.308 
#    0.000    0.385    0.000    3.692    0.000    1.077 
#    0.000    0.000    0.000    0.000    0.000    0.000 
#
# Total GULP energy -644848.611629 kJ/mol
# GULP energy per Si atom -12400.934839 kJ/mol
# Density = 1.797071 g / cm^3
# Si number density = 18.011701 Si / 1000 Ang^3
#
#
#
# Elastic Constant Matrix: (Units=GPa)
#
#
# Indices 1 2 3 4 5 6 
#
# 1 53.3520 45.7522 36.5017 0.0000 0.0000 0.0000
# 2 45.7522 168.2920 81.9176 0.0000 0.0000 0.0000
# 3 36.5017 81.9176 131.0085 0.0000 0.0000 0.0000
# 4 0.0000 0.0000 0.0000 34.4764 0.0000 0.0000
# 5 0.0000 0.0000 0.0000 0.0000 9.6970 0.0000
# 6 0.0000 0.0000 0.0000 0.0000 0.0000 25.5856
#
#
#
# Elastic Compliance Matrix: (Units=1/GPa)
#
#
# Indices 1 2 3 4 5 6 
#
# 1 0.025846 -0.005062 -0.004036 0.000000 0.000000 0.000000
# 2 -0.005062 0.009533 -0.004551 0.000000 0.000000 0.000000
# 3 -0.004036 -0.004551 0.011603 0.000000 0.000000 0.000000
# 4 0.000000 0.000000 0.000000 0.029005 0.000000 0.000000
# 5 0.000000 0.000000 0.000000 0.000000 0.103125 0.000000
# 6 0.000000 0.000000 0.000000 0.000000 0.000000 0.039084
#
#
# Mechanical properties :
#
#
# Convention : Reuss Voigt Hill
#
# Bulk Modulus (GPa) = 50.80053 75.66615 63.23334
# Shear Modulus (GPa) = 19.83692 26.51721 23.17706
#
# Velocity S-wave (km/s) = 3.32224 3.84112 3.59106
# Velocity P-wave (km/s) = 6.55605 7.85957 7.23722
#
# Compressibility (1/GPa) = 0.01968483
#
# Stress axis : x y z
#
# Youngs Moduli (GPa) = 38.69135 104.89607 86.18419
#
# Poissons Ratio (x) = 0.53097 0.34784
# Poissons Ratio (y) = 0.19585 0.39219
# Poissons Ratio (z) = 0.15616 0.47735
#
# Static dielectric constant tensor:
#      x y z
#    x 3.033630 0.000000 0.000000 
#    y 0.000000 3.466630 0.000000 
#    z 0.000000 0.000000 3.412650 
# 
# 
# High freq. dielectric constant tensor:
#      x y z
#    x 1.674460 0.000000 0.000000 
#    y 0.000000 1.707730 0.000000 
#    z 0.000000 0.000000 1.684300 
# 
# From -- ./inp_files/60849.got.cif
#   From: 2010.03.12/outbox.cif.g09.slc.cpg/sg65_31_cif.got.tgz:60849.got - 2010.04.10 20:52:16.
