data_PCOD8265372
_publ_section_title
;
Structure prediction by ZEFSAII (Michael W. Deem and Ramdas Pophale) SiO2 
 PCOD8265372
Probable space group: C M M M
;
_chemical_formula_sum "Si O2"
_cell_formula_units_Z 72
_cell_length_a 27.567649
_cell_length_b 10.268119
_cell_length_c 16.729118
_cell_angle_alpha 90.000000
_cell_angle_beta 90.000000
_cell_angle_gamma 90.000000
_cell_volume 4735.476309
_symmetry_space_group_name_H-M "C M M M"
_symmetry_group_IT_number 65
_symmetry_cell_setting 'orthorhombic'
loop_
_space_group_symop_operation_xyz
x,y,z
-x,-y,z
x,-y,-z
-x,y,-z
-x,-y,-z
x,y,-z
-x,y,z
x,-y,z
1/2+x,1/2+y,z
1/2-x,1/2-y,z
1/2+x,1/2-y,-z
1/2-x,1/2+y,-z
1/2-x,1/2-y,-z
1/2+x,1/2+y,-z
1/2-x,1/2+y,z
1/2+x,1/2-y,z
loop_
_atom_site_type_symbol
_atom_site_label
_atom_site_fract_x
_atom_site_fract_y
_atom_site_fract_z
Si Si1 0.790453 0.647175 0.407840
Si Si2 0.942599 0.500000 0.088296
Si Si3 0.054442 0.345254 0.500000
Si Si4 0.942373 0.252218 0.812872
Si Si5 0.605950 0.848742 0.341357
Si Si6 0.942585 0.000000 0.090087
O O1 0.805987 0.670234 0.500000
O O2 0.770302 0.500000 0.397578
O O3 0.750000 0.750000 0.380657
O O4 0.836454 0.667963 0.350572
O O5 0.924758 0.626890 0.134400
O O6 0.000000 0.500000 0.081409
O O7 0.919358 0.500000 0.000000
O O8 0.056395 0.500000 0.500000
O O9 0.081001 0.293409 0.421190
O O10 0.000000 0.291331 0.500000
O O11 0.913780 0.258766 0.729671
O O12 0.000000 0.253741 0.796425
O O13 0.925130 0.125421 0.860860
O O14 0.591892 0.000000 0.326069
O O15 0.000000 0.000000 0.082714
O O16 0.920504 0.000000 0.000000
#
# Coordination Sequence:
#
# PCOD8265372 Si02
#       6
#    16   8   8  16  16   8
#     4   9  17  31  49  67  89 117 153 194 236 274
#     4   9  16  26  42  65  90 117 150 189 230 267
#     4   9  16  24  39  63  93 129 159 183 212 263
#     4  10  18  28  44  66  94 125 155 191 226 267
#     4  10  17  28  44  67  95 122 155 190 230 267
#     4   9  18  32  46  61  88 129 164 187 226 277
#
# _framework density 15.204383999999999
#
# number of rings (size 3 to 8) (size 9 to 14) (size 15 to 20)
#    0.000    2.556    2.222    1.333    0.000    3.556 
#    2.000    0.000    0.000    0.667    0.000    3.111 
#    0.000    5.333    0.000    0.000    0.000    0.000 
#
# Total GULP energy -446348.576103 kJ/mol
# GULP energy per Si atom -12398.571558 kJ/mol
# Density = 1.516978 g / cm^3
# Si number density = 15.204384 Si / 1000 Ang^3
#
#
#
# Elastic Constant Matrix: (Units=GPa)
#
#
# Indices 1 2 3 4 5 6 
#
# 1 58.8938 36.3027 39.6059 0.0000 0.0000 0.0000
# 2 36.3027 104.2858 60.3485 0.0000 0.0000 0.0000
# 3 39.6059 60.3485 130.1497 0.0000 0.0000 0.0000
# 4 0.0000 0.0000 0.0000 14.6738 0.0000 0.0000
# 5 0.0000 0.0000 0.0000 0.0000 7.2392 0.0000
# 6 0.0000 0.0000 0.0000 0.0000 0.0000 14.1564
#
#
#
# Elastic Compliance Matrix: (Units=1/GPa)
#
#
# Indices 1 2 3 4 5 6 
#
# 1 0.023461 -0.005515 -0.004582 0.000000 0.000000 0.000000
# 2 -0.005515 0.014402 -0.005000 0.000000 0.000000 0.000000
# 3 -0.004582 -0.005000 0.011396 0.000000 0.000000 0.000000
# 4 0.000000 0.000000 0.000000 0.068149 0.000000 0.000000
# 5 0.000000 0.000000 0.000000 0.000000 0.138138 0.000000
# 6 0.000000 0.000000 0.000000 0.000000 0.000000 0.070640
#
#
# Mechanical properties :
#
#
# Convention : Reuss Voigt Hill
#
# Bulk Modulus (GPa) = 52.45213 62.87150 57.66182
# Shear Modulus (GPa) = 13.78420 17.68535 15.73477
#
# Velocity S-wave (km/s) = 3.01424 3.41423 3.22045
# Velocity P-wave (km/s) = 6.83279 7.54873 7.19967
#
# Compressibility (1/GPa) = 0.01906500
#
# Stress axis : x y z
#
# Youngs Moduli (GPa) = 42.62431 69.43366 87.74937
#
# Poissons Ratio (x) = 0.38295 0.40206
# Poissons Ratio (y) = 0.23509 0.43872
# Poissons Ratio (z) = 0.19530 0.34715
#
# Static dielectric constant tensor:
#      x y z
#    x 2.607880 0.000000 0.000000 
#    y 0.000000 2.861150 0.000000 
#    z 0.000000 0.000000 2.989590 
# 
# 
# High freq. dielectric constant tensor:
#      x y z
#    x 1.542700 0.000000 0.000000 
#    y 0.000000 1.570760 0.000000 
#    z 0.000000 0.000000 1.584320 
# 
# From -- ./inp_files/57182.got.cif
#   From: 2010.03.12/outbox.cif.g09.slc.cpg/sg65_29_cif.got.tgz:57182.got - 2010.04.10 20:52:16.
