data_PCOD8265585
_publ_section_title
;
Structure prediction by ZEFSAII (Michael W. Deem and Ramdas Pophale) SiO2 
 PCOD8265585
Probable space group: C M M M
;
_chemical_formula_sum "Si O2"
_cell_formula_units_Z 112
_cell_length_a 34.017200
_cell_length_b 13.637635
_cell_length_c 13.808220
_cell_angle_alpha 90.000000
_cell_angle_beta 90.000000
_cell_angle_gamma 90.000000
_cell_volume 6405.828745
_symmetry_space_group_name_H-M "C M M M"
_symmetry_group_IT_number 65
_symmetry_cell_setting 'orthorhombic'
loop_
_space_group_symop_operation_xyz
x,y,z
-x,-y,z
x,-y,-z
-x,y,-z
-x,-y,-z
x,y,-z
-x,y,z
x,-y,z
1/2+x,1/2+y,z
1/2-x,1/2-y,z
1/2+x,1/2-y,-z
1/2-x,1/2+y,-z
1/2-x,1/2-y,-z
1/2+x,1/2+y,-z
1/2-x,1/2+y,z
1/2+x,1/2-y,z
loop_
_atom_site_type_symbol
_atom_site_label
_atom_site_fract_x
_atom_site_fract_y
_atom_site_fract_z
Si Si1 0.544904 0.386627 0.388804
Si Si2 0.311564 0.610118 0.386310
Si Si3 0.350218 0.885471 0.386585
Si Si4 0.731669 0.882951 0.300686
Si Si5 0.615382 0.712859 0.291421
Si Si6 0.736994 0.385121 0.895411
Si Si7 0.353026 0.613890 0.888573
O O1 0.551891 0.356937 0.500000
O O2 0.500000 0.366263 0.358848
O O3 0.555582 0.500000 0.373527
O O4 0.572172 0.321697 0.320657
O O5 0.309080 0.609430 0.500000
O O6 0.313996 0.500000 0.344076
O O7 0.271517 0.661309 0.347457
O O8 0.351111 0.663103 0.355724
O O9 0.356589 0.862366 0.500000
O O10 0.307000 0.845572 0.355892
O O11 0.381434 0.828625 0.318036
O O12 0.355351 0.000000 0.364677
O O13 0.732699 0.848031 0.187433
O O14 0.732714 0.000000 0.309634
O O15 0.621082 0.686147 0.178480
O O16 0.740750 0.500000 0.906153
O O17 0.692257 0.360910 0.865843
O O18 0.747898 0.337420 0.000000
O O19 0.362211 0.500000 0.864915
O O20 0.363365 0.636630 0.000000
#
# Coordination Sequence:
#
# PCOD8265585 Si02
#       7
#    16  16  16  16  16  16  16
#     4   9  18  32  51  79 112 136 152 182 241 314
#     4  10  18  26  41  68  96 121 155 199 243 294
#     4  10  22  37  49  64  93 135 177 217 261 297
#     4   9  16  29  44  60  90 130 165 203 254 299
#     4  12  20  31  52  73  96 127 172 208 240 295
#     4   8  13  24  43  64  88 123 165 204 246 295
#     4   9  17  30  49  75 105 131 158 200 254 307
#
# _framework density 17.484076000000002
#
# number of rings (size 3 to 8) (size 9 to 14) (size 15 to 20)
#    0.000    2.429    1.429    4.286    0.000    3.429 
#    0.000    2.143    0.000    3.857    0.000    4.000 
#    0.000    0.000    0.000    1.286    0.000    0.286 
#
# Total GULP energy -694116.171295 kJ/mol
# GULP energy per Si atom -12394.931630 kJ/mol
# Density = 1.744428 g / cm^3
# Si number density = 17.484076 Si / 1000 Ang^3
#
#
#
# Elastic Constant Matrix: (Units=GPa)
#
#
# Indices 1 2 3 4 5 6 
#
# 1 66.7524 29.8702 33.3547 0.0000 0.0000 0.0000
# 2 29.8702 57.5427 33.1240 0.0000 0.0000 0.0000
# 3 33.3547 33.1240 101.1642 0.0000 0.0000 0.0000
# 4 0.0000 0.0000 0.0000 13.4204 0.0000 0.0000
# 5 0.0000 0.0000 0.0000 0.0000 38.1891 0.0000
# 6 0.0000 0.0000 0.0000 0.0000 0.0000 20.2554
#
#
#
# Elastic Compliance Matrix: (Units=1/GPa)
#
#
# Indices 1 2 3 4 5 6 
#
# 1 0.020805 -0.008442 -0.004095 0.000000 0.000000 0.000000
# 2 -0.008442 0.024840 -0.005350 0.000000 0.000000 0.000000
# 3 -0.004095 -0.005350 0.012987 0.000000 0.000000 0.000000
# 4 0.000000 0.000000 0.000000 0.074513 0.000000 0.000000
# 5 0.000000 0.000000 0.000000 0.000000 0.026185 0.000000
# 6 0.000000 0.000000 0.000000 0.000000 0.000000 0.049370
#
#
# Mechanical properties :
#
#
# Convention : Reuss Voigt Hill
#
# Bulk Modulus (GPa) = 43.75012 46.46189 45.10601
# Shear Modulus (GPa) = 19.83384 22.98035 21.40710
#
# Velocity S-wave (km/s) = 3.37173 3.62934 3.50291
# Velocity P-wave (km/s) = 6.34313 6.64788 6.49729
#
# Compressibility (1/GPa) = 0.02285708
#
# Stress axis : x y z
#
# Youngs Moduli (GPa) = 48.06589 40.25701 77.00073
#
# Poissons Ratio (x) = 0.33986 0.31534
# Poissons Ratio (y) = 0.40578 0.41195
# Poissons Ratio (z) = 0.19684 0.21537
#
# Static dielectric constant tensor:
#      x y z
#    x 2.923150 0.000000 0.000000 
#    y 0.000000 3.346620 0.000000 
#    z 0.000000 0.000000 4.517310 
# 
# 
# High freq. dielectric constant tensor:
#      x y z
#    x 1.627730 0.000000 0.000000 
#    y 0.000000 1.670440 0.000000 
#    z 0.000000 0.000000 1.681290 
# 
# From -- ./inp_files/48002.got.cif
#   From: 2010.03.12/outbox.cif.g09.slc.cpg/sg65_25_cif.got.tgz:48002.got - 2010.04.10 20:52:16.
