data_PCOD8265198
_publ_section_title
;
Structure prediction by ZEFSAII (Michael W. Deem and Ramdas Pophale) SiO2 
 PCOD8265198
Probable space group: C M M M
;
_chemical_formula_sum "Si O2"
_cell_formula_units_Z 96
_cell_length_a 17.910995
_cell_length_b 18.939131
_cell_length_c 16.637151
_cell_angle_alpha 90.000000
_cell_angle_beta 90.000000
_cell_angle_gamma 90.000000
_cell_volume 5643.632412
_symmetry_space_group_name_H-M "C M M M"
_symmetry_group_IT_number 65
_symmetry_cell_setting 'orthorhombic'
loop_
_space_group_symop_operation_xyz
x,y,z
-x,-y,z
x,-y,-z
-x,y,-z
-x,-y,-z
x,y,-z
-x,y,z
x,-y,z
1/2+x,1/2+y,z
1/2-x,1/2-y,z
1/2+x,1/2-y,-z
1/2-x,1/2+y,-z
1/2-x,1/2-y,-z
1/2+x,1/2+y,-z
1/2-x,1/2+y,z
1/2+x,1/2-y,z
loop_
_atom_site_type_symbol
_atom_site_label
_atom_site_fract_x
_atom_site_fract_y
_atom_site_fract_z
Si Si1 0.583802 0.623899 0.259432
Si Si2 0.195209 0.686892 0.091278
Si Si3 0.679252 0.581153 0.590640
Si Si4 0.217214 0.671898 0.675689
Si Si5 0.720372 0.580273 0.179032
Si Si6 0.915962 0.710306 0.232437
O O1 0.500000 0.593735 0.257088
O O2 0.616473 0.609473 0.348501
O O3 0.630227 0.584373 0.188252
O O4 0.584356 0.706311 0.241222
O O5 0.250000 0.750000 0.116375
O O6 0.244032 0.614619 0.099015
O O7 0.123234 0.687807 0.148944
O O8 0.166796 0.693963 0.000000
O O9 0.648802 0.589355 0.500000
O O10 0.698122 0.500000 0.610997
O O11 0.756319 0.627212 0.597946
O O12 0.250000 0.750000 0.672332
O O13 0.251922 0.629210 0.749159
O O14 0.128133 0.676437 0.690929
O O15 0.748138 0.500000 0.184936
O O16 0.000000 0.680082 0.232639
#
# Coordination Sequence:
#
# PCOD8265198 Si02
#       6
#    16  16  16  16  16  16
#     4  10  18  31  49  73 105 137 167 201 242 292
#     4  10  19  34  53  73  99 133 171 210 250 292
#     4  10  21  34  50  75 103 134 170 205 247 297
#     4  10  16  32  52  73  97 132 172 208 246 283
#     4  10  18  30  50  75 100 132 169 202 244 296
#     4  10  18  31  52  77 103 127 164 212 251 295
#
# _framework density 17.010321999999999
#
# number of rings (size 3 to 8) (size 9 to 14) (size 15 to 20)
#    0.000    2.000    5.000    3.000    0.000    2.667 
#    0.000    0.833    0.000   13.500    0.000    7.000 
#    0.000    0.000    0.000    0.000    0.000    0.000 
#
# Total GULP energy -594693.989216 kJ/mol
# GULP energy per Si atom -12389.458109 kJ/mol
# Density = 1.697161 g / cm^3
# Si number density = 17.010322 Si / 1000 Ang^3
#
#
#
# Elastic Constant Matrix: (Units=GPa)
#
#
# Indices 1 2 3 4 5 6 
#
# 1 132.5837 36.1581 42.6595 0.0000 0.0000 0.0000
# 2 36.1581 93.5717 27.5854 0.0000 0.0000 0.0000
# 3 42.6595 27.5854 63.6253 0.0000 0.0000 0.0000
# 4 0.0000 0.0000 0.0000 18.0474 0.0000 0.0000
# 5 0.0000 0.0000 0.0000 0.0000 17.5422 0.0000
# 6 0.0000 0.0000 0.0000 0.0000 0.0000 17.0371
#
#
#
# Elastic Compliance Matrix: (Units=1/GPa)
#
#
# Indices 1 2 3 4 5 6 
#
# 1 0.009984 -0.002161 -0.005757 0.000000 0.000000 0.000000
# 2 -0.002161 0.012721 -0.004066 0.000000 0.000000 0.000000
# 3 -0.005757 -0.004066 0.021340 0.000000 0.000000 0.000000
# 4 0.000000 0.000000 0.000000 0.055410 0.000000 0.000000
# 5 0.000000 0.000000 0.000000 0.000000 0.057005 0.000000
# 6 0.000000 0.000000 0.000000 0.000000 0.000000 0.058696
#
#
# Mechanical properties :
#
#
# Convention : Reuss Voigt Hill
#
# Bulk Modulus (GPa) = 49.81073 55.84299 52.82686
# Shear Modulus (GPa) = 20.34036 22.75053 21.54544
#
# Velocity S-wave (km/s) = 3.46174 3.66109 3.56281
# Velocity P-wave (km/s) = 6.73234 7.12542 6.93167
#
# Compressibility (1/GPa) = 0.02007600
#
# Stress axis : x y z
#
# Youngs Moduli (GPa) = 100.15882 78.61156 46.85984
#
# Poissons Ratio (x) = 0.16986 0.26979
# Poissons Ratio (y) = 0.21642 0.19055
# Poissons Ratio (z) = 0.57665 0.31967
#
# Static dielectric constant tensor:
#      x y z
#    x 3.604970 0.000000 0.000000 
#    y 0.000000 3.379710 0.000000 
#    z 0.000000 0.000000 3.339200 
# 
# 
# High freq. dielectric constant tensor:
#      x y z
#    x 1.643670 0.000000 0.000000 
#    y 0.000000 1.659880 0.000000 
#    z 0.000000 0.000000 1.636570 
# 
# From -- ./inp_files/54465.got.cif
#   From: 2010.03.12/outbox.cif.g09.slc.cpg/sg65_28_cif.got.tgz:54465.got - 2010.04.10 20:52:16.
