data_PCOD8265324
_publ_section_title
;
Structure prediction by ZEFSAII (Michael W. Deem and Ramdas Pophale) SiO2 
 PCOD8265324
Probable space group: C M M M
;
_chemical_formula_sum "Si O2"
_cell_formula_units_Z 96
_cell_length_a 11.914414
_cell_length_b 25.449568
_cell_length_c 21.819130
_cell_angle_alpha 90.000000
_cell_angle_beta 90.000000
_cell_angle_gamma 90.000000
_cell_volume 6615.924361
_symmetry_space_group_name_H-M "C M M M"
_symmetry_group_IT_number 65
_symmetry_cell_setting 'orthorhombic'
loop_
_space_group_symop_operation_xyz
x,y,z
-x,-y,z
x,-y,-z
-x,y,-z
-x,-y,-z
x,y,-z
-x,y,z
x,-y,z
1/2+x,1/2+y,z
1/2-x,1/2-y,z
1/2+x,1/2-y,-z
1/2-x,1/2+y,-z
1/2-x,1/2-y,-z
1/2+x,1/2+y,-z
1/2-x,1/2+y,z
1/2+x,1/2-y,z
loop_
_atom_site_type_symbol
_atom_site_label
_atom_site_fract_x
_atom_site_fract_y
_atom_site_fract_z
Si Si1 0.236655 0.690101 0.571006
Si Si2 0.633115 0.602440 0.642050
Si Si3 0.633314 0.500000 0.431014
Si Si4 0.500000 0.940142 0.672869
Si Si5 0.500000 0.141623 0.569416
Si Si6 0.725188 0.938579 0.255426
Si Si7 0.866486 0.442251 0.000000
Si Si8 0.126126 0.562918 0.131155
O O1 0.270182 0.682085 0.500000
O O2 0.250000 0.750000 0.591623
O O3 0.318994 0.654859 0.611754
O O4 0.107946 0.676632 0.583898
O O5 0.500000 0.606373 0.643439
O O6 0.677050 0.552096 0.603290
O O7 0.677613 0.595136 0.711546
O O8 0.500000 0.500000 0.431967
O O9 0.681799 0.500000 0.500000
O O10 0.500000 0.909922 0.609599
O O11 0.391877 0.925867 0.712276
O O12 0.500000 0.000000 0.653086
O O13 0.500000 0.121634 0.500000
O O14 0.711821 0.919480 0.184783
O O15 0.756298 0.000000 0.258668
O O16 0.831114 0.414400 0.935406
O O17 0.811556 0.500000 0.000000
O O18 0.000000 0.447223 0.000000
O O19 0.121763 0.500000 0.128280
O O20 0.000000 0.583524 0.145375
#
# Coordination Sequence:
#
# PCOD8265324 Si02
#       8
#    16  16   8   8   8  16   8  16
#     4  10  22  37  52  67  84 109 143 184 226 270
#     4  11  21  32  47  66  87 114 148 184 223 263
#     4   9  18  32  46  61  83 108 139 181 224 265
#     4  10  18  29  44  63  88 116 144 174 218 272
#     4  10  20  35  50  66  85 108 144 182 220 266
#     4  10  17  27  42  61  87 118 147 177 216 264
#     4   7  10  16  28  50  81 109 144 183 211 241
#     4   8  12  19  33  55  81 114 147 179 214 252
#
# _framework density 14.510444
#
# number of rings (size 3 to 8) (size 9 to 14) (size 15 to 20)
#    0.000    2.500    3.333    1.500    1.167    1.167 
#    0.000    0.000    0.000    0.000    0.000    0.583 
#    0.000    3.333    0.000    0.750    0.000    4.583 
#
# Total GULP energy -594880.600033 kJ/mol
# GULP energy per Si atom -12393.345834 kJ/mol
# Density = 1.447742 g / cm^3
# Si number density = 14.510444 Si / 1000 Ang^3
#
#
#
# Elastic Constant Matrix: (Units=GPa)
#
#
# Indices 1 2 3 4 5 6 
#
# 1 68.4456 29.2147 44.7117 0.0000 0.0000 0.0000
# 2 29.2147 60.9959 47.2996 0.0000 0.0000 0.0000
# 3 44.7117 47.2996 130.8077 0.0000 0.0000 0.0000
# 4 0.0000 0.0000 0.0000 8.8287 0.0000 0.0000
# 5 0.0000 0.0000 0.0000 0.0000 19.9735 0.0000
# 6 0.0000 0.0000 0.0000 0.0000 0.0000 -16.7556
#
#
#
# Elastic Compliance Matrix: (Units=1/GPa)
#
#
# Indices 1 2 3 4 5 6 
#
# 1 0.020290 -0.006031 -0.004755 0.000000 0.000000 0.000000
# 2 -0.006031 0.024576 -0.006825 0.000000 0.000000 0.000000
# 3 -0.004755 -0.006825 0.011738 0.000000 0.000000 0.000000
# 4 0.000000 0.000000 0.000000 0.113267 0.000000 0.000000
# 5 0.000000 0.000000 0.000000 0.000000 0.050066 0.000000
# 6 0.000000 0.000000 0.000000 0.000000 0.000000 -0.059682
#
#
# Mechanical properties :
#
#
# Convention : Reuss Voigt Hill
#
# Bulk Modulus (GPa) = 46.76766 55.85569 51.31168
# Shear Modulus (GPa) = 24.67851 11.67752 18.17802
#
# Velocity S-wave (km/s) = 4.12848 2.83992 3.54327
# Velocity P-wave (km/s) = 7.41796 7.02357 7.22346
#
# Compressibility (1/GPa) = 0.02138230
#
# Stress axis : x y z
#
# Youngs Moduli (GPa) = 49.28436 40.69047 85.19437
#
# Poissons Ratio (x) = 0.24542 0.40506
# Poissons Ratio (y) = 0.29725 0.58145
# Poissons Ratio (z) = 0.23433 0.27771
#
# Static dielectric constant tensor:
#      x y z
#    x 2.694190 0.000000 0.000000 
#    y 0.000000 2.515470 0.000000 
#    z 0.000000 0.000000 3.187890 
# 
# 
# High freq. dielectric constant tensor:
#      x y z
#    x 1.539680 0.000000 0.000000 
#    y 0.000000 1.509390 0.000000 
#    z 0.000000 0.000000 1.557080 
# 
# From -- ./inp_files/61676.got.cif
#   From: 2010.03.12/outbox.cif.g09.slc.cpg/sg65_31_cif.got.tgz:61676.got - 2010.04.10 20:52:16.
