data_PCOD8265326
_publ_section_title
;
Structure prediction by ZEFSAII (Michael W. Deem and Ramdas Pophale) SiO2 
 PCOD8265326
Probable space group: C M M M
;
_chemical_formula_sum "Si O2"
_cell_formula_units_Z 72
_cell_length_a 25.005596
_cell_length_b 10.241426
_cell_length_c 18.180905
_cell_angle_alpha 90.000000
_cell_angle_beta 90.000000
_cell_angle_gamma 90.000000
_cell_volume 4656.001795
_symmetry_space_group_name_H-M "C M M M"
_symmetry_group_IT_number 65
_symmetry_cell_setting 'orthorhombic'
loop_
_space_group_symop_operation_xyz
x,y,z
-x,-y,z
x,-y,-z
-x,y,-z
-x,-y,-z
x,y,-z
-x,y,z
x,-y,z
1/2+x,1/2+y,z
1/2-x,1/2-y,z
1/2+x,1/2-y,-z
1/2-x,1/2+y,-z
1/2-x,1/2-y,-z
1/2+x,1/2+y,-z
1/2-x,1/2+y,z
1/2+x,1/2-y,z
loop_
_atom_site_type_symbol
_atom_site_label
_atom_site_fract_x
_atom_site_fract_y
_atom_site_fract_z
Si Si1 0.598861 0.652685 0.323012
Si Si2 0.203843 0.851042 0.584423
Si Si3 0.563366 0.000000 0.916885
Si Si4 0.063634 0.752518 0.827737
Si Si5 0.000000 0.845214 0.418778
Si Si6 0.563347 0.500000 0.918800
O O1 0.590693 0.500000 0.303704
O O2 0.654846 0.679571 0.362100
O O3 0.594820 0.738611 0.249321
O O4 0.552626 0.703272 0.376978
O O5 0.185453 0.830481 0.500000
O O6 0.250000 0.750000 0.606020
O O7 0.224037 0.000000 0.595682
O O8 0.582887 0.874958 0.871343
O O9 0.500000 0.000000 0.923226
O O10 0.587378 0.000000 0.000000
O O11 0.083220 0.872697 0.876738
O O12 0.000000 0.754936 0.813367
O O13 0.000000 0.782612 0.500000
O O14 0.000000 0.000000 0.424799
O O15 0.500000 0.500000 0.924594
O O16 0.588852 0.500000 0.000000
#
# Coordination Sequence:
#
# PCOD8265326 Si02
#       6
#    16  16   8  16   8   8
#     4  10  17  27  45  69  97 122 152 192 232 276
#     4   9  18  33  51  69  91 121 158 199 238 272
#     4   9  18  30  42  58  89 130 167 189 214 270
#     4  10  17  27  42  63  93 126 153 189 231 267
#     4   9  16  24  40  67  96 125 153 183 223 277
#     4   9  16  24  40  62  87 120 155 183 222 274
#
# _framework density 15.46391
#
# number of rings (size 3 to 8) (size 9 to 14) (size 15 to 20)
#    0.000    2.556    2.222    1.333    0.000    5.333 
#    2.000    0.000    0.000    0.000    0.000    0.778 
#    0.000    5.333    0.000    0.000    0.000    0.000 
#
# Total GULP energy -446335.856195 kJ/mol
# GULP energy per Si atom -12398.218228 kJ/mol
# Density = 1.542871 g / cm^3
# Si number density = 15.463910 Si / 1000 Ang^3
#
#
#
# Elastic Constant Matrix: (Units=GPa)
#
#
# Indices 1 2 3 4 5 6 
#
# 1 66.9993 40.7623 51.5734 0.0000 0.0000 0.0000
# 2 40.7623 104.8433 67.1848 0.0000 0.0000 0.0000
# 3 51.5734 67.1848 151.0278 0.0000 0.0000 0.0000
# 4 0.0000 0.0000 0.0000 25.8550 0.0000 0.0000
# 5 0.0000 0.0000 0.0000 0.0000 17.1740 0.0000
# 6 0.0000 0.0000 0.0000 0.0000 0.0000 11.1828
#
#
#
# Elastic Compliance Matrix: (Units=1/GPa)
#
#
# Indices 1 2 3 4 5 6 
#
# 1 0.022148 -0.005265 -0.005221 0.000000 0.000000 0.000000
# 2 -0.005265 0.014593 -0.004694 0.000000 0.000000 0.000000
# 3 -0.005221 -0.004694 0.010492 0.000000 0.000000 0.000000
# 4 0.000000 0.000000 0.000000 0.038677 0.000000 0.000000
# 5 0.000000 0.000000 0.000000 0.000000 0.058227 0.000000
# 6 0.000000 0.000000 0.000000 0.000000 0.000000 0.089423
#
#
# Mechanical properties :
#
#
# Convention : Reuss Voigt Hill
#
# Bulk Modulus (GPa) = 59.26564 71.32348 65.29456
# Shear Modulus (GPa) = 18.54984 21.73237 20.14110
#
# Velocity S-wave (km/s) = 3.46722 3.75288 3.61287
# Velocity P-wave (km/s) = 7.37815 8.06235 7.72783
#
# Compressibility (1/GPa) = 0.01687318
#
# Stress axis : x y z
#
# Youngs Moduli (GPa) = 45.15140 68.52646 95.31008
#
# Poissons Ratio (x) = 0.36081 0.49759
# Poissons Ratio (y) = 0.23774 0.44735
# Poissons Ratio (z) = 0.23573 0.32164
#
# Static dielectric constant tensor:
#      x y z
#    x 2.550540 0.000000 0.000000 
#    y 0.000000 2.898760 0.000000 
#    z 0.000000 0.000000 3.131100 
# 
# 
# High freq. dielectric constant tensor:
#      x y z
#    x 1.542500 0.000000 0.000000 
#    y 0.000000 1.580760 0.000000 
#    z 0.000000 0.000000 1.608270 
# 
# From -- ./inp_files/51318.got.cif
#   From: 2010.03.12/outbox.cif.g09.slc.cpg/sg65_26_cif.got.tgz:51318.got - 2010.04.10 20:52:16.
