data_PCOD8265429
_publ_section_title
;
Structure prediction by ZEFSAII (Michael W. Deem and Ramdas Pophale) SiO2 
 PCOD8265429
Probable space group: C M M M
;
_chemical_formula_sum "Si O2"
_cell_formula_units_Z 104
_cell_length_a 29.250937
_cell_length_b 7.869923
_cell_length_c 24.898104
_cell_angle_alpha 90.000000
_cell_angle_beta 90.000000
_cell_angle_gamma 90.000000
_cell_volume 5731.608820
_symmetry_space_group_name_H-M "C M M M"
_symmetry_group_IT_number 65
_symmetry_cell_setting 'orthorhombic'
loop_
_space_group_symop_operation_xyz
x,y,z
-x,-y,z
x,-y,-z
-x,y,-z
-x,-y,-z
x,y,-z
-x,y,z
x,-y,z
1/2+x,1/2+y,z
1/2-x,1/2-y,z
1/2+x,1/2-y,-z
1/2-x,1/2+y,-z
1/2-x,1/2-y,-z
1/2+x,1/2+y,-z
1/2-x,1/2+y,z
1/2+x,1/2-y,z
loop_
_atom_site_type_symbol
_atom_site_label
_atom_site_fract_x
_atom_site_fract_y
_atom_site_fract_z
Si Si1 0.201621 0.699247 0.727634
Si Si2 0.895092 0.298723 0.764269
Si Si3 0.947259 0.190952 0.867171
Si Si4 0.298343 0.800121 0.607782
Si Si5 0.108925 0.297365 0.440692
Si Si6 0.945801 0.500000 0.940147
Si Si7 0.551175 0.798077 0.341382
O O1 0.197746 0.500000 0.722313
O O2 0.250000 0.750000 0.755471
O O3 0.158033 0.760951 0.762231
O O4 0.199430 0.780073 0.667848
O O5 0.900590 0.500000 0.772613
O O6 0.918271 0.201961 0.813143
O O7 0.919294 0.237961 0.709461
O O8 0.928882 0.329326 0.909917
O O9 0.000000 0.229999 0.852959
O O10 0.941918 0.000000 0.891010
O O11 0.250000 0.750000 0.580550
O O12 0.340237 0.727777 0.572815
O O13 0.303285 0.000000 0.611528
O O14 0.094971 0.230723 0.500000
O O15 0.108735 0.500000 0.439778
O O16 0.073654 0.226594 0.396255
O O17 0.000000 0.500000 0.943955
O O18 0.924510 0.500000 0.000000
O O19 0.500000 0.724090 0.336558
O O20 0.550254 0.000000 0.343280
#
# Coordination Sequence:
#
# PCOD8265429 Si02
#       7
#    16  16  16  16  16   8  16
#     4   9  17  28  44  64  90 123 157 196 249 312
#     4  10  17  29  48  68  95 132 167 208 258 312
#     4  10  20  32  49  78 111 144 184 224 258 298
#     4   9  16  28  43  61  84 111 146 187 239 300
#     4   9  16  26  39  57  83 112 148 198 251 301
#     4   9  18  34  54  76 110 154 189 219 259 299
#     4   9  16  25  40  61  83 116 160 199 246 306
#
# _framework density 18.144992999999999
#
# number of rings (size 3 to 8) (size 9 to 14) (size 15 to 20)
#    0.000    2.692    2.308    0.462    0.000    2.154 
#    0.000    3.077    0.000    0.000    0.000    0.000 
#    0.000    0.615    0.308    4.615    0.000    4.615 
#
# Total GULP energy -644518.942168 kJ/mol
# GULP energy per Si atom -12394.595042 kJ/mol
# Density = 1.810369 g / cm^3
# Si number density = 18.144993 Si / 1000 Ang^3
#
#
#
# Elastic Constant Matrix: (Units=GPa)
#
#
# Indices 1 2 3 4 5 6 
#
# 1 127.7220 19.6475 51.3520 0.0000 0.0000 0.0000
# 2 19.6475 49.1624 31.8838 0.0000 0.0000 0.0000
# 3 51.3520 31.8838 116.0172 0.0000 0.0000 0.0000
# 4 0.0000 0.0000 0.0000 6.9691 0.0000 0.0000
# 5 0.0000 0.0000 0.0000 0.0000 7.0490 0.0000
# 6 0.0000 0.0000 0.0000 0.0000 0.0000 19.0275
#
#
#
# Elastic Compliance Matrix: (Units=1/GPa)
#
#
# Indices 1 2 3 4 5 6 
#
# 1 0.009594 -0.001314 -0.003885 0.000000 0.000000 0.000000
# 2 -0.001314 0.024932 -0.006270 0.000000 0.000000 0.000000
# 3 -0.003885 -0.006270 0.012062 0.000000 0.000000 0.000000
# 4 0.000000 0.000000 0.000000 0.143491 0.000000 0.000000
# 5 0.000000 0.000000 0.000000 0.000000 0.141865 0.000000
# 6 0.000000 0.000000 0.000000 0.000000 0.000000 0.052556
#
#
# Mechanical properties :
#
#
# Convention : Reuss Voigt Hill
#
# Bulk Modulus (GPa) = 42.28503 55.40756 48.84630
# Shear Modulus (GPa) = 12.03883 19.27700 15.65791
#
# Velocity S-wave (km/s) = 2.57860 3.26296 2.94076
# Velocity P-wave (km/s) = 5.67628 6.69315 6.20558
#
# Compressibility (1/GPa) = 0.02364903
#
# Stress axis : x y z
#
# Youngs Moduli (GPa) = 104.23413 40.10829 82.90322
#
# Poissons Ratio (x) = 0.05272 0.32210
# Poissons Ratio (y) = 0.13700 0.51982
# Poissons Ratio (z) = 0.40497 0.25149
#
# Static dielectric constant tensor:
#      x y z
#    x 3.651490 0.000000 0.000000 
#    y 0.000000 3.064080 0.000000 
#    z 0.000000 0.000000 3.247970 
# 
# 
# High freq. dielectric constant tensor:
#      x y z
#    x 1.697140 0.000000 0.000000 
#    y 0.000000 1.680240 0.000000 
#    z 0.000000 0.000000 1.667980 
# 
# From -- ./inp_files/72130.got.cif
#   From: 2010.03.12/outbox.cif.g09.slc.cpg/sg65_37_cif.got.tgz:72130.got - 2010.04.10 20:52:16.
