data_PCOD8265688
_publ_section_title
;
Structure prediction by ZEFSAII (Michael W. Deem and Ramdas Pophale) SiO2 
 PCOD8265688
Probable space group: C M M M
;
_chemical_formula_sum "Si O2"
_cell_formula_units_Z 64
_cell_length_a 37.664138
_cell_length_b 7.686736
_cell_length_c 12.955907
_cell_angle_alpha 90.000000
_cell_angle_beta 90.000000
_cell_angle_gamma 90.000000
_cell_volume 3750.920158
_symmetry_space_group_name_H-M "C M M M"
_symmetry_group_IT_number 65
_symmetry_cell_setting 'orthorhombic'
loop_
_space_group_symop_operation_xyz
x,y,z
-x,-y,z
x,-y,-z
-x,y,-z
-x,-y,-z
x,y,-z
-x,y,z
x,-y,z
1/2+x,1/2+y,z
1/2-x,1/2-y,z
1/2+x,1/2-y,-z
1/2-x,1/2+y,-z
1/2-x,1/2-y,-z
1/2+x,1/2+y,-z
1/2-x,1/2+y,z
1/2+x,1/2-y,z
loop_
_atom_site_type_symbol
_atom_site_label
_atom_site_fract_x
_atom_site_fract_y
_atom_site_fract_z
Si Si1 0.667395 0.206181 0.195264
Si Si2 0.709081 0.795426 0.000000
Si Si3 0.039479 0.000000 0.122233
Si Si4 0.908821 0.301164 0.121253
Si Si5 0.710528 0.795313 0.614058
O O1 0.690409 0.285765 0.101322
O O2 0.626280 0.257772 0.182838
O O3 0.682556 0.282605 0.303209
O O4 0.671413 0.000000 0.193926
O O5 0.750000 0.750000 0.000000
O O6 0.703103 0.000000 0.000000
O O7 0.059703 0.174556 0.158646
O O8 0.000000 0.000000 0.171141
O O9 0.036721 0.000000 0.000000
O O10 0.919694 0.500000 0.146883
O O11 0.900776 0.280613 0.000000
O O12 0.703554 0.713582 0.500000
O O13 0.750000 0.750000 0.652378
O O14 0.705959 0.000000 0.607778
#
# Coordination Sequence:
#
# PCOD8265688 Si02
#       5
#    16   8   8  16  16
#     4   9  16  28  43  57  82 114 146 182 221 270
#     4  10  18  28  38  56  82 109 143 182 218 261
#     4   9  18  30  44  68  97 119 151 187 214 273
#     4   9  16  29  46  63  88 123 151 179 228 270
#     4   9  17  29  43  58  80 111 147 190 234 269
#
# _framework density 17.062479
#
# number of rings (size 3 to 8) (size 9 to 14) (size 15 to 20)
#    0.000    2.875    1.250    0.750    0.000    0.500 
#    4.500    2.500    0.000    0.000    0.000    0.000 
#    0.000    2.000    0.000    9.750    0.000    0.250 
#
# Total GULP energy -396636.819062 kJ/mol
# GULP energy per Si atom -12394.900596 kJ/mol
# Density = 1.702364 g / cm^3
# Si number density = 17.062479 Si / 1000 Ang^3
#
#
#
# Elastic Constant Matrix: (Units=GPa)
#
#
# Indices 1 2 3 4 5 6 
#
# 1 156.8343 45.5176 64.3025 0.0000 0.0000 0.0000
# 2 45.5176 53.6137 21.1310 0.0000 0.0000 0.0000
# 3 64.3025 21.1310 89.9876 0.0000 0.0000 0.0000
# 4 0.0000 0.0000 0.0000 4.6122 0.0000 0.0000
# 5 0.0000 0.0000 0.0000 0.0000 18.6955 0.0000
# 6 0.0000 0.0000 0.0000 0.0000 0.0000 26.3352
#
#
#
# Elastic Compliance Matrix: (Units=1/GPa)
#
#
# Indices 1 2 3 4 5 6 
#
# 1 0.010885 -0.006806 -0.006180 0.000000 0.000000 0.000000
# 2 -0.006806 0.024809 -0.000963 0.000000 0.000000 0.000000
# 3 -0.006180 -0.000963 0.015755 0.000000 0.000000 0.000000
# 4 0.000000 0.000000 0.000000 0.216817 0.000000 0.000000
# 5 0.000000 0.000000 0.000000 0.000000 0.053489 0.000000
# 6 0.000000 0.000000 0.000000 0.000000 0.000000 0.037972
#
#
# Mechanical properties :
#
#
# Convention : Reuss Voigt Hill
#
# Bulk Modulus (GPa) = 42.45829 62.48196 52.47013
# Shear Modulus (GPa) = 12.64303 21.22753 16.93528
#
# Velocity S-wave (km/s) = 2.72506 3.53101 3.15389
# Velocity P-wave (km/s) = 5.90248 7.30227 6.63937
#
# Compressibility (1/GPa) = 0.02355253
#
# Stress axis : x y z
#
# Youngs Moduli (GPa) = 91.86755 40.30741 63.47251
#
# Poissons Ratio (x) = 0.27432 0.39227
# Poissons Ratio (y) = 0.62522 0.06110
# Poissons Ratio (z) = 0.56776 0.03880
#
# Static dielectric constant tensor:
#      x y z
#    x 3.216200 0.000000 0.000000 
#    y 0.000000 2.994820 0.000000 
#    z 0.000000 0.000000 3.429200 
# 
# 
# High freq. dielectric constant tensor:
#      x y z
#    x 1.642970 0.000000 0.000000 
#    y 0.000000 1.650330 0.000000 
#    z 0.000000 0.000000 1.626320 
# 
# From -- ./inp_files/46392.got.cif
#   From: 2010.03.12/outbox.cif.g09.slc.cpg/sg65_24_cif.got.tgz:46392.got - 2010.04.10 20:52:16.
