data_PCOD8265034
_publ_section_title
;
Structure prediction by ZEFSAII (Michael W. Deem and Ramdas Pophale) SiO2 
 PCOD8265034
Probable space group: C M C A
;
_chemical_formula_sum "Si O2"
_cell_formula_units_Z 112
_cell_length_a 9.613898
_cell_length_b 27.206475
_cell_length_c 28.098067
_cell_angle_alpha 90.000000
_cell_angle_beta 90.000000
_cell_angle_gamma 90.000000
_cell_volume 7349.338148
_symmetry_space_group_name_H-M "C M C A"
_symmetry_group_IT_number 64
_symmetry_cell_setting 'orthorhombic'
loop_
_space_group_symop_operation_xyz
x,y,z
-x,1/2-y,1/2+z
x,-y,-z
-x,1/2+y,1/2-z
-x,-y,-z
x,1/2+y,1/2-z
-x,y,z
x,1/2-y,1/2+z
1/2+x,1/2+y,z
1/2-x,-y,1/2+z
1/2+x,1/2-y,-z
1/2-x,y,1/2-z
1/2-x,1/2-y,-z
1/2+x,y,1/2-z
1/2-x,1/2+y,z
1/2+x,-y,1/2+z
loop_
_atom_site_type_symbol
_atom_site_label
_atom_site_fract_x
_atom_site_fract_y
_atom_site_fract_z
Si Si1 0.338793 0.631578 0.704868
Si Si2 0.161943 0.754186 0.294644
Si Si3 0.163210 0.050546 0.976407
Si Si4 0.158667 0.804412 0.452352
Si Si5 0.161768 0.284721 0.608245
Si Si6 0.160398 0.148053 0.028280
Si Si7 0.157980 0.904243 0.396793
O O1 0.500000 0.624051 0.717402
O O2 0.250000 0.613077 0.750000
O O3 0.308408 0.688729 0.693780
O O4 0.297456 0.598776 0.658764
O O5 0.250000 0.735941 0.250000
O O6 0.220423 0.720717 0.338374
O O7 0.000000 0.745073 0.283810
O O8 0.242631 0.059207 0.926570
O O9 0.000000 0.049545 0.964719
O O10 0.201787 0.092274 0.015506
O O11 0.213732 0.000000 0.000000
O O12 0.223692 0.757153 0.426195
O O13 0.251009 0.813296 0.498547
O O14 0.170674 0.849643 0.416503
O O15 0.000000 0.796320 0.468903
O O16 0.187991 0.338548 0.584238
O O17 0.000000 0.272166 0.612990
O O18 0.000000 0.157280 0.015516
O O19 0.000000 0.923689 0.401608
#
# Coordination Sequence:
#
# PCOD8265034 Si02
#       7
#    16  16  16  16  16  16  16
#     4   9  16  26  40  59  84 112 139 166 196 236
#     4   9  16  27  40  56  80 111 141 167 196 232
#     4   9  18  31  44  60  84 108 135 176 218 251
#     4   9  15  25  39  56  82 111 133 159 196 233
#     4   9  15  25  41  57  79 110 138 162 194 237
#     4   9  17  27  40  59  79 104 138 168 197 242
#     4   9  16  27  43  62  83 110 140 166 200 247
#
# _framework density 15.239468
#
# number of rings (size 3 to 8) (size 9 to 14) (size 15 to 20)
#    0.000    3.000    1.429    0.429    0.000    0.857 
#    0.000    1.429    0.000    0.000    0.000    1.000 
#    0.000    4.571    0.000    0.000    0.000    0.000 
#
# Total GULP energy -693996.126186 kJ/mol
# GULP energy per Si atom -12392.787968 kJ/mol
# Density = 1.520478 g / cm^3
# Si number density = 15.239468 Si / 1000 Ang^3
#
#
#
# Elastic Constant Matrix: (Units=GPa)
#
#
# Indices 1 2 3 4 5 6 
#
# 1 46.1654 25.6597 52.2599 0.0000 0.0000 0.0000
# 2 25.6597 60.4059 55.5191 0.0000 0.0000 0.0000
# 3 52.2599 55.5191 137.3023 0.0000 0.0000 0.0000
# 4 0.0000 0.0000 0.0000 20.2862 0.0000 0.0000
# 5 0.0000 0.0000 0.0000 0.0000 26.2901 0.0000
# 6 0.0000 0.0000 0.0000 0.0000 0.0000 12.5949
#
#
#
# Elastic Compliance Matrix: (Units=1/GPa)
#
#
# Indices 1 2 3 4 5 6 
#
# 1 0.038859 -0.004636 -0.012916 0.000000 0.000000 0.000000
# 2 -0.004636 0.026899 -0.009112 0.000000 0.000000 0.000000
# 3 -0.012916 -0.009112 0.015884 0.000000 0.000000 0.000000
# 4 0.000000 0.000000 0.000000 0.049295 0.000000 0.000000
# 5 0.000000 0.000000 0.000000 0.000000 0.038037 0.000000
# 6 0.000000 0.000000 0.000000 0.000000 0.000000 0.079397
#
#
# Mechanical properties :
#
#
# Convention : Reuss Voigt Hill
#
# Bulk Modulus (GPa) = 35.31848 56.75010 46.03429
# Shear Modulus (GPa) = 16.07008 19.19656 17.63332
#
# Velocity S-wave (km/s) = 3.25084 3.55302 3.40528
# Velocity P-wave (km/s) = 6.10873 7.35878 6.76270
#
# Compressibility (1/GPa) = 0.02831379
#
# Stress axis : x y z
#
# Youngs Moduli (GPa) = 25.73405 37.17602 62.95675
#
# Poissons Ratio (x) = 0.17234 0.81315
# Poissons Ratio (y) = 0.11930 0.57368
# Poissons Ratio (z) = 0.33238 0.33876
#
# Static dielectric constant tensor:
#      x y z
#    x 2.862290 0.000000 0.000000 
#    y 0.000000 2.690360 0.000000 
#    z 0.000000 0.000000 3.066000 
# 
# 
# High freq. dielectric constant tensor:
#      x y z
#    x 1.572450 0.000000 0.000000 
#    y 0.000000 1.545030 0.000000 
#    z 0.000000 0.000000 1.583740 
# 
# From -- ./inp_files/38493.got.cif
#   From: 2010.03.12/outbox.cif.g09.slc.cpg/sg64_20_cif.got.tgz:38493.got - 2010.04.10 20:19:32.
