data_PCOD8265920
_publ_section_title
;
Structure prediction by ZEFSAII (Michael W. Deem and Ramdas Pophale) SiO2 
 PCOD8265920
Probable space group: C M M M
;
_chemical_formula_sum "Si O2"
_cell_formula_units_Z 104
_cell_length_a 19.379235
_cell_length_b 30.262140
_cell_length_c 10.611847
_cell_angle_alpha 90.000000
_cell_angle_beta 90.000000
_cell_angle_gamma 90.000000
_cell_volume 6223.393258
_symmetry_space_group_name_H-M "C M M M"
_symmetry_group_IT_number 65
_symmetry_cell_setting 'orthorhombic'
loop_
_space_group_symop_operation_xyz
x,y,z
-x,-y,z
x,-y,-z
-x,y,-z
-x,-y,-z
x,y,-z
-x,y,z
x,-y,z
1/2+x,1/2+y,z
1/2-x,1/2-y,z
1/2+x,1/2-y,-z
1/2-x,1/2+y,-z
1/2-x,1/2-y,-z
1/2+x,1/2+y,-z
1/2-x,1/2+y,z
1/2+x,1/2-y,z
loop_
_atom_site_type_symbol
_atom_site_label
_atom_site_fract_x
_atom_site_fract_y
_atom_site_fract_z
Si Si1 0.918130 0.281916 0.857429
Si Si2 0.576920 0.947645 0.500000
Si Si3 0.582111 0.282542 0.358724
Si Si4 0.661173 0.051054 0.259772
Si Si5 0.575015 0.121452 0.144182
Si Si6 0.812061 0.949866 0.646527
Si Si7 0.923736 0.881779 0.351990
O O1 0.886864 0.248425 0.752070
O O2 0.898624 0.330929 0.804674
O O3 0.000000 0.276597 0.861646
O O4 0.888866 0.272382 0.000000
O O5 0.500000 0.927278 0.500000
O O6 0.619254 0.931256 0.619817
O O7 0.574001 0.000000 0.500000
O O8 0.609857 0.269900 0.500000
O O9 0.500000 0.279806 0.362328
O O10 0.604138 0.332634 0.324086
O O11 0.632168 0.082905 0.151946
O O12 0.742200 0.058221 0.276326
O O13 0.644471 0.000000 0.228444
O O14 0.500000 0.107879 0.204553
O O15 0.561301 0.131116 0.000000
O O16 0.796269 0.940407 0.500000
O O17 0.870053 0.917494 0.703916
O O18 0.837907 0.000000 0.664799
O O19 0.929641 0.889686 0.500000
O O20 0.000000 0.889140 0.291714
#
# Coordination Sequence:
#
# PCOD8265920 Si02
#       7
#    16   8  16  16  16  16  16
#     4   8  14  26  43  62  87 117 145 178 224 271
#     4   9  16  26  40  58  81 108 139 177 216 253
#     4   8  13  23  40  64  92 115 141 181 224 265
#     4  10  18  29  43  60  84 116 149 179 218 264
#     4   9  18  31  45  63  86 111 144 188 229 260
#     4   9  16  27  42  61  89 122 152 180 216 267
#     4   8  14  24  41  66  92 117 145 182 224 259
#
# _framework density 16.71114
#
# number of rings (size 3 to 8) (size 9 to 14) (size 15 to 20)
#    0.000    3.308    0.769    2.308    0.000    1.538 
#    1.385    2.308    0.000    1.846    0.000    5.385 
#    0.000    0.000    0.000    9.385    0.000    6.308 
#
# Total GULP energy -644206.439590 kJ/mol
# GULP energy per Si atom -12388.585377 kJ/mol
# Density = 1.667310 g / cm^3
# Si number density = 16.711140 Si / 1000 Ang^3
#
#
#
# Elastic Constant Matrix: (Units=GPa)
#
#
# Indices 1 2 3 4 5 6 
#
# 1 61.4512 54.6779 19.2870 0.0000 0.0000 0.0000
# 2 54.6779 124.0227 42.9438 0.0000 0.0000 0.0000
# 3 19.2870 42.9438 48.6824 0.0000 0.0000 0.0000
# 4 0.0000 0.0000 0.0000 16.1334 0.0000 0.0000
# 5 0.0000 0.0000 0.0000 0.0000 10.8762 0.0000
# 6 0.0000 0.0000 0.0000 0.0000 0.0000 12.7547
#
#
#
# Elastic Compliance Matrix: (Units=1/GPa)
#
#
# Indices 1 2 3 4 5 6 
#
# 1 0.026780 -0.011709 -0.000281 0.000000 0.000000 0.000000
# 2 -0.011709 0.016729 -0.010118 0.000000 0.000000 0.000000
# 3 -0.000281 -0.010118 0.029578 0.000000 0.000000 0.000000
# 4 0.000000 0.000000 0.000000 0.061983 0.000000 0.000000
# 5 0.000000 0.000000 0.000000 0.000000 0.091944 0.000000
# 6 0.000000 0.000000 0.000000 0.000000 0.000000 0.078402
#
#
# Mechanical properties :
#
#
# Convention : Reuss Voigt Hill
#
# Bulk Modulus (GPa) = 34.63709 51.99706 43.31708
# Shear Modulus (GPa) = 13.91773 15.76937 14.84355
#
# Velocity S-wave (km/s) = 2.88903 3.07521 2.98357
# Velocity P-wave (km/s) = 5.64806 6.61755 6.15193
#
# Compressibility (1/GPa) = 0.02887078
#
# Stress axis : x y z
#
# Youngs Moduli (GPa) = 37.34159 59.77767 33.80942
#
# Poissons Ratio (x) = 0.69995 0.00949
# Poissons Ratio (y) = 0.43724 0.34207
# Poissons Ratio (z) = 0.01048 0.60481
#
# Static dielectric constant tensor:
#      x y z
#    x 2.969410 0.000000 0.000000 
#    y 0.000000 3.239870 0.000000 
#    z 0.000000 0.000000 3.029320 
# 
# 
# High freq. dielectric constant tensor:
#      x y z
#    x 1.608720 0.000000 0.000000 
#    y 0.000000 1.644670 0.000000 
#    z 0.000000 0.000000 1.611830 
# 
# From -- ./inp_files/27737.got.cif
#   From: 2010.03.12/outbox.cif.g09.slc.cpg/sg65_14_cif.got.tgz:27737.got - 2010.04.10 20:52:16.
