data_PCOD8265664
_publ_section_title
;
Structure prediction by ZEFSAII (Michael W. Deem and Ramdas Pophale) SiO2 
 PCOD8265664
Probable space group: C M M M
;
_chemical_formula_sum "Si O2"
_cell_formula_units_Z 128
_cell_length_a 24.989345
_cell_length_b 18.037451
_cell_length_c 17.287524
_cell_angle_alpha 90.000000
_cell_angle_beta 90.000000
_cell_angle_gamma 90.000000
_cell_volume 7792.249204
_symmetry_space_group_name_H-M "C M M M"
_symmetry_group_IT_number 65
_symmetry_cell_setting 'orthorhombic'
loop_
_space_group_symop_operation_xyz
x,y,z
-x,-y,z
x,-y,-z
-x,y,-z
-x,-y,-z
x,y,-z
-x,y,z
x,-y,z
1/2+x,1/2+y,z
1/2-x,1/2-y,z
1/2+x,1/2-y,-z
1/2-x,1/2+y,-z
1/2-x,1/2-y,-z
1/2+x,1/2+y,-z
1/2-x,1/2+y,z
1/2+x,1/2-y,z
loop_
_atom_site_type_symbol
_atom_site_label
_atom_site_fract_x
_atom_site_fract_y
_atom_site_fract_z
Si Si1 0.629197 0.218694 0.913826
Si Si2 0.623680 0.083256 0.707634
Si Si3 0.810327 0.662777 0.408969
Si Si4 0.210938 0.184627 0.834304
Si Si5 0.150350 0.802314 0.681623
Si Si6 0.300974 0.417668 0.410444
Si Si7 0.937831 0.717024 0.763461
Si Si8 0.806102 0.585101 0.145293
O O1 0.672408 0.284736 0.902219
O O2 0.581936 0.227323 0.851536
O O3 0.657199 0.137989 0.907506
O O4 0.605088 0.225970 0.000000
O O5 0.644705 0.105964 0.622669
O O6 0.574247 0.133499 0.735576
O O7 0.673589 0.092846 0.766443
O O8 0.601736 0.000000 0.705474
O O9 0.819885 0.676909 0.500000
O O10 0.815352 0.738825 0.361531
O O11 0.752549 0.628205 0.392628
O O12 0.250000 0.250000 0.809273
O O13 0.177334 0.166451 0.758756
O O14 0.244371 0.112187 0.860443
O O15 0.148432 0.873968 0.626036
O O16 0.091648 0.772815 0.704035
O O17 0.312269 0.424217 0.500000
O O18 0.295808 0.500000 0.374389
O O19 0.000000 0.734457 0.759379
O O20 0.809897 0.500000 0.116139
#
# Coordination Sequence:
#
# PCOD8265664 Si02
#       8
#    16  16  16  16  16  16  16  16
#     4   9  18  31  46  66  92 116 140 178 225 268
#     4   9  17  29  45  65  92 122 150 184 221 257
#     4  10  18  27  43  68  97 128 156 178 209 261
#     4   9  16  26  42  63  88 121 154 177 206 254
#     4  10  18  30  46  64  90 122 156 193 227 261
#     4  10  19  28  42  69 101 127 150 179 219 266
#     4   9  19  34  51  68  82 107 152 195 231 271
#     4   9  17  28  43  65  93 125 154 174 201 253
#
# _framework density 16.426579
#
# number of rings (size 3 to 8) (size 9 to 14) (size 15 to 20)
#    0.000    2.625    0.000    4.875    0.000    6.250 
#    0.000    0.000    0.000    9.750    0.000    7.875 
#    0.000    0.000    0.000    5.500    0.000    0.000 
#
# Total GULP energy -793264.113322 kJ/mol
# GULP energy per Si atom -12394.751771 kJ/mol
# Density = 1.638919 g / cm^3
# Si number density = 16.426579 Si / 1000 Ang^3
#
#
#
# Elastic Constant Matrix: (Units=GPa)
#
#
# Indices 1 2 3 4 5 6 
#
# 1 91.2521 47.2422 34.8582 0.0000 0.0000 0.0000
# 2 47.2422 88.6540 40.2443 0.0000 0.0000 0.0000
# 3 34.8582 40.2443 76.9491 0.0000 0.0000 0.0000
# 4 0.0000 0.0000 0.0000 14.6806 0.0000 0.0000
# 5 0.0000 0.0000 0.0000 0.0000 12.9881 0.0000
# 6 0.0000 0.0000 0.0000 0.0000 0.0000 11.3007
#
#
#
# Elastic Compliance Matrix: (Units=1/GPa)
#
#
# Indices 1 2 3 4 5 6 
#
# 1 0.015870 -0.006810 -0.003627 0.000000 0.000000 0.000000
# 2 -0.006810 0.017714 -0.006179 0.000000 0.000000 0.000000
# 3 -0.003627 -0.006179 0.017871 0.000000 0.000000 0.000000
# 4 0.000000 0.000000 0.000000 0.068117 0.000000 0.000000
# 5 0.000000 0.000000 0.000000 0.000000 0.076994 0.000000
# 6 0.000000 0.000000 0.000000 0.000000 0.000000 0.088490
#
#
# Mechanical properties :
#
#
# Convention : Reuss Voigt Hill
#
# Bulk Modulus (GPa) = 54.88279 55.72720 55.30500
# Shear Modulus (GPa) = 15.41482 16.76124 16.08803
#
# Velocity S-wave (km/s) = 3.06667 3.19779 3.13292
# Velocity P-wave (km/s) = 6.78401 6.90168 6.84310
#
# Compressibility (1/GPa) = 0.01822065
#
# Stress axis : x y z
#
# Youngs Moduli (GPa) = 63.01180 56.45272 55.95777
#
# Poissons Ratio (x) = 0.38445 0.20298
# Poissons Ratio (y) = 0.42912 0.34578
# Poissons Ratio (z) = 0.22857 0.34884
#
# Static dielectric constant tensor:
#      x y z
#    x 2.726740 0.000000 0.000000 
#    y 0.000000 3.258340 0.000000 
#    z 0.000000 0.000000 3.057050 
# 
# 
# High freq. dielectric constant tensor:
#      x y z
#    x 1.586860 0.000000 0.000000 
#    y 0.000000 1.629270 0.000000 
#    z 0.000000 0.000000 1.631730 
# 
# From -- ./inp_files/55108.got.cif
#   From: 2010.03.12/outbox.cif.g09.slc.cpg/sg65_28_cif.got.tgz:55108.got - 2010.04.10 20:52:16.
