data_PCOD8265946
_publ_section_title
;
Structure prediction by ZEFSAII (Michael W. Deem and Ramdas Pophale) SiO2 
 PCOD8265946
Probable space group: C M M M
;
_chemical_formula_sum "Si O2"
_cell_formula_units_Z 120
_cell_length_a 25.450520
_cell_length_b 14.185417
_cell_length_c 20.708709
_cell_angle_alpha 90.000000
_cell_angle_beta 90.000000
_cell_angle_gamma 90.000000
_cell_volume 7476.387326
_symmetry_space_group_name_H-M "C M M M"
_symmetry_group_IT_number 65
_symmetry_cell_setting 'orthorhombic'
loop_
_space_group_symop_operation_xyz
x,y,z
-x,-y,z
x,-y,-z
-x,y,-z
-x,-y,-z
x,y,-z
-x,y,z
x,-y,z
1/2+x,1/2+y,z
1/2-x,1/2-y,z
1/2+x,1/2-y,-z
1/2-x,1/2+y,-z
1/2-x,1/2-y,-z
1/2+x,1/2+y,-z
1/2-x,1/2+y,z
1/2+x,1/2-y,z
loop_
_atom_site_type_symbol
_atom_site_label
_atom_site_fract_x
_atom_site_fract_y
_atom_site_fract_z
Si Si1 0.437176 0.391659 0.860050
Si Si2 0.940857 0.213667 0.381479
Si Si3 0.382006 0.715265 0.251366
Si Si4 0.894148 0.605825 0.573875
Si Si5 0.212248 0.888465 0.305408
Si Si6 0.653732 0.392425 0.429507
Si Si7 0.943230 0.110488 0.000000
Si Si8 0.331011 0.107946 0.698976
O O1 0.500000 0.380982 0.858130
O O2 0.421992 0.500000 0.841394
O O3 0.410770 0.314234 0.814062
O O4 0.414725 0.364858 0.932005
O O5 0.921989 0.191136 0.309023
O O6 0.939582 0.324117 0.401168
O O7 0.901801 0.161024 0.429911
O O8 0.000000 0.176140 0.389399
O O9 0.327798 0.656621 0.254403
O O10 0.367985 0.826854 0.255712
O O11 0.876113 0.627552 0.500000
O O12 0.916926 0.500000 0.578657
O O13 0.844845 0.618362 0.622724
O O14 0.194309 0.852840 0.376538
O O15 0.271568 0.854660 0.292841
O O16 0.209692 0.000000 0.299284
O O17 0.679754 0.380261 0.500000
O O18 0.640602 0.500000 0.413645
O O19 0.000000 0.161484 0.000000
O O20 0.953199 0.000000 0.000000
O O21 0.337951 0.000000 0.722018
#
# Coordination Sequence:
#
# PCOD8265946 Si02
#       8
#    16  16  16  16  16  16   8  16
#     4   9  16  27  46  72 100 125 145 168 202 243
#     4  10  20  31  41  55  79 109 138 170 208 253
#     4  10  18  29  44  64  88 113 143 175 208 252
#     4   9  18  31  45  60  75  95 133 185 234 274
#     4   9  17  29  44  62  83 107 137 177 223 265
#     4   9  18  30  42  58  79 103 135 174 214 261
#     4   7  12  24  42  68 100 125 143 167 200 238
#     4   9  18  31  45  61  83 110 142 183 228 268
#
# _framework density 16.050533000000001
#
# number of rings (size 3 to 8) (size 9 to 14) (size 15 to 20)
#    0.000    2.867    0.000    2.400    0.000    2.667 
#    0.000    4.000    0.000    6.000    0.000    2.333 
#    0.000    3.733    0.000    0.000    0.000    0.000 
#
# Total GULP energy -743419.004238 kJ/mol
# GULP energy per Si atom -12390.316737 kJ/mol
# Density = 1.601400 g / cm^3
# Si number density = 16.050533 Si / 1000 Ang^3
#
#
#
# Elastic Constant Matrix: (Units=GPa)
#
#
# Indices 1 2 3 4 5 6 
#
# 1 58.2283 23.4512 25.0417 0.0000 0.0000 0.0000
# 2 23.4512 46.3966 35.3704 0.0000 0.0000 0.0000
# 3 25.0417 35.3704 100.4800 0.0000 0.0000 0.0000
# 4 0.0000 0.0000 0.0000 19.3508 0.0000 0.0000
# 5 0.0000 0.0000 0.0000 0.0000 9.9021 0.0000
# 6 0.0000 0.0000 0.0000 0.0000 0.0000 20.9772
#
#
#
# Elastic Compliance Matrix: (Units=1/GPa)
#
#
# Indices 1 2 3 4 5 6 
#
# 1 0.021893 -0.009439 -0.002133 0.000000 0.000000 0.000000
# 2 -0.009439 0.033529 -0.009450 0.000000 0.000000 0.000000
# 3 -0.002133 -0.009450 0.013810 0.000000 0.000000 0.000000
# 4 0.000000 0.000000 0.000000 0.051677 0.000000 0.000000
# 5 0.000000 0.000000 0.000000 0.000000 0.100989 0.000000
# 6 0.000000 0.000000 0.000000 0.000000 0.000000 0.047671
#
#
# Mechanical properties :
#
#
# Convention : Reuss Voigt Hill
#
# Bulk Modulus (GPa) = 36.78314 41.42573 39.10443
# Shear Modulus (GPa) = 15.59199 18.12878 16.86038
#
# Velocity S-wave (km/s) = 3.12016 3.36442 3.24459
# Velocity P-wave (km/s) = 5.99561 6.39985 6.20102
#
# Compressibility (1/GPa) = 0.02718637
#
# Stress axis : x y z
#
# Youngs Moduli (GPa) = 45.67675 29.82514 72.40875
#
# Poissons Ratio (x) = 0.28153 0.15447
# Poissons Ratio (y) = 0.43116 0.68427
# Poissons Ratio (z) = 0.09744 0.28185
#
# Static dielectric constant tensor:
#      x y z
#    x 2.893520 0.000000 0.000000 
#    y 0.000000 3.107720 0.000000 
#    z 0.000000 0.000000 2.985540 
# 
# 
# High freq. dielectric constant tensor:
#      x y z
#    x 1.597770 0.000000 0.000000 
#    y 0.000000 1.616750 0.000000 
#    z 0.000000 0.000000 1.586280 
# 
# From -- ./inp_files/65566.got.cif
#   From: 2010.03.12/outbox.cif.g09.slc.cpg/sg65_33_cif.got.tgz:65566.got - 2010.04.10 20:52:16.
