data_PCOD8265911
_publ_section_title
;
Structure prediction by ZEFSAII (Michael W. Deem and Ramdas Pophale) SiO2 
 PCOD8265911
Probable space group: C M M M
;
_chemical_formula_sum "Si O2"
_cell_formula_units_Z 112
_cell_length_a 20.563815
_cell_length_b 22.611764
_cell_length_c 19.636079
_cell_angle_alpha 90.000000
_cell_angle_beta 90.000000
_cell_angle_gamma 90.000000
_cell_volume 9130.465144
_symmetry_space_group_name_H-M "C M M M"
_symmetry_group_IT_number 65
_symmetry_cell_setting 'orthorhombic'
loop_
_space_group_symop_operation_xyz
x,y,z
-x,-y,z
x,-y,-z
-x,y,-z
-x,-y,-z
x,y,-z
-x,y,z
x,-y,z
1/2+x,1/2+y,z
1/2-x,1/2-y,z
1/2+x,1/2-y,-z
1/2-x,1/2+y,-z
1/2-x,1/2-y,-z
1/2+x,1/2+y,-z
1/2-x,1/2+y,z
1/2+x,1/2-y,z
loop_
_atom_site_type_symbol
_atom_site_label
_atom_site_fract_x
_atom_site_fract_y
_atom_site_fract_z
Si Si1 0.072743 0.070110 0.571999
Si Si2 0.000000 0.932221 0.073135
Si Si3 0.500000 0.933748 0.918542
Si Si4 0.620337 0.620154 0.853233
Si Si5 0.922442 0.931364 0.719309
Si Si6 0.422953 0.262562 0.920550
Si Si7 0.376773 0.865292 0.919583
Si Si8 0.752140 0.930782 0.079952
O O1 0.108037 0.090002 0.500000
O O2 0.104285 0.089619 0.644256
O O3 0.000000 0.095844 0.569676
O O4 0.069087 0.000000 0.574427
O O5 0.063770 0.918234 0.114327
O O6 0.000000 0.000000 0.056823
O O7 0.000000 0.897733 0.000000
O O8 0.436518 0.901974 0.888142
O O9 0.500000 0.000000 0.891110
O O10 0.500000 0.931159 0.000000
O O11 0.614891 0.611202 0.772089
O O12 0.610616 0.688102 0.873891
O O13 0.688135 0.595066 0.878607
O O14 0.000000 0.922518 0.724179
O O15 0.905042 0.000000 0.733909
O O16 0.500000 0.257852 0.905626
O O17 0.385771 0.202904 0.898611
O O18 0.411009 0.276642 0.000000
O O19 0.309709 0.893512 0.893200
O O20 0.379448 0.871719 0.000000
O O21 0.741435 0.000000 0.095798
O O22 0.764606 0.920839 0.000000
#
# Coordination Sequence:
#
# PCOD8265911 Si02
#       8
#    16   8   8  16  16  16  16  16
#     4   7  10  17  30  47  65  85 111 147 189 222
#     4  11  20  27  35  45  60  91 133 166 185 199
#     4   9  14  23  43  63  71  78 100 143 200 249
#     4  12  20  27  37  50  71 100 129 155 180 206
#     4   9  15  23  34  48  67  92 125 159 185 211
#     4  10  18  29  42  54  69  90 123 161 189 220
#     4   9  17  29  43  56  69  86 111 150 198 239
#     4  10  20  31  40  53  73  93 118 155 196 233
#
# _framework density 12.266626
#
# number of rings (size 3 to 8) (size 9 to 14) (size 15 to 20)
#    0.000    2.429    2.143    4.286    0.000    3.429 
#    0.000    2.143    0.000    0.000    0.000    0.000 
#    0.000    0.000    0.000    2.571    0.000    2.571 
#
# Total GULP energy -693795.983670 kJ/mol
# GULP energy per Si atom -12389.213994 kJ/mol
# Density = 1.223871 g / cm^3
# Si number density = 12.266626 Si / 1000 Ang^3
#
#
#
# Elastic Constant Matrix: (Units=GPa)
#
#
# Indices 1 2 3 4 5 6 
#
# 1 72.0921 37.7130 33.6486 0.0000 0.0000 0.0000
# 2 37.7130 80.7426 36.7453 0.0000 0.0000 0.0000
# 3 33.6486 36.7453 83.5029 0.0000 0.0000 0.0000
# 4 0.0000 0.0000 0.0000 14.3531 0.0000 0.0000
# 5 0.0000 0.0000 0.0000 0.0000 0.5953 0.0000
# 6 0.0000 0.0000 0.0000 0.0000 0.0000 21.1792
#
#
#
# Elastic Compliance Matrix: (Units=1/GPa)
#
#
# Indices 1 2 3 4 5 6 
#
# 1 0.019838 -0.007037 -0.004897 0.000000 0.000000 0.000000
# 2 -0.007037 0.017983 -0.005077 0.000000 0.000000 0.000000
# 3 -0.004897 -0.005077 0.016183 0.000000 0.000000 0.000000
# 4 0.000000 0.000000 0.000000 0.069671 0.000000 0.000000
# 5 0.000000 0.000000 0.000000 0.000000 1.679799 0.000000
# 6 0.000000 0.000000 0.000000 0.000000 0.000000 0.047216
#
#
# Mechanical properties :
#
#
# Convention : Reuss Voigt Hill
#
# Bulk Modulus (GPa) = 50.04957 50.28347 50.16652
# Shear Modulus (GPa) = 2.64358 15.77425 9.20891
#
# Velocity S-wave (km/s) = 1.46962 3.58990 2.74292
# Velocity P-wave (km/s) = 6.61587 7.63310 7.14262
#
# Compressibility (1/GPa) = 0.01998019
#
# Stress axis : x y z
#
# Youngs Moduli (GPa) = 50.40753 55.60900 61.79163
#
# Poissons Ratio (x) = 0.39134 0.30262
# Poissons Ratio (y) = 0.35473 0.31375
# Poissons Ratio (z) = 0.24686 0.28235
#
# Static dielectric constant tensor:
#      x y z
#    x 2.529120 0.000000 0.000000 
#    y 0.000000 2.515860 0.000000 
#    z 0.000000 0.000000 2.600430 
# 
# 
# High freq. dielectric constant tensor:
#      x y z
#    x 1.447630 0.000000 0.000000 
#    y 0.000000 1.455600 0.000000 
#    z 0.000000 0.000000 1.430890 
# 
# From -- ./inp_files/64914.got.cif
#   From: 2010.03.12/outbox.cif.g09.slc.cpg/sg65_33_cif.got.tgz:64914.got - 2010.04.10 20:52:16.
