data_PCOD8265026
_publ_section_title
;
Structure prediction by ZEFSAII (Michael W. Deem and Ramdas Pophale) SiO2 
 PCOD8265026
Probable space group: C M C A
;
_chemical_formula_sum "Si O2"
_cell_formula_units_Z 128
_cell_length_a 18.310671
_cell_length_b 21.242466
_cell_length_c 21.864018
_cell_angle_alpha 90.000000
_cell_angle_beta 90.000000
_cell_angle_gamma 90.000000
_cell_volume 8504.311659
_symmetry_space_group_name_H-M "C M C A"
_symmetry_group_IT_number 64
_symmetry_cell_setting 'orthorhombic'
loop_
_space_group_symop_operation_xyz
x,y,z
-x,1/2-y,1/2+z
x,-y,-z
-x,1/2+y,1/2-z
-x,-y,-z
x,1/2+y,1/2-z
-x,y,z
x,1/2-y,1/2+z
1/2+x,1/2+y,z
1/2-x,-y,1/2+z
1/2+x,1/2-y,-z
1/2-x,y,1/2-z
1/2-x,1/2-y,-z
1/2+x,y,1/2-z
1/2-x,1/2+y,z
1/2+x,-y,1/2+z
loop_
_atom_site_type_symbol
_atom_site_label
_atom_site_fract_x
_atom_site_fract_y
_atom_site_fract_z
Si Si1 0.585823 0.822897 0.061598
Si Si2 0.083973 0.331466 0.250190
Si Si3 0.324889 0.758223 0.335383
Si Si4 0.330069 0.855737 0.742459
Si Si5 0.585206 0.322141 0.579108
Si Si6 0.657089 0.744903 0.153035
Si Si7 0.084742 0.071409 0.652815
Si Si8 0.414601 0.566404 0.330966
O O1 0.500000 0.814444 0.071848
O O2 0.625837 0.758594 0.085035
O O3 0.617396 0.882923 0.099934
O O4 0.605013 0.833837 0.991135
O O5 0.135691 0.321331 0.309503
O O6 0.102585 0.282367 0.196972
O O7 0.096782 0.400463 0.221017
O O8 0.000000 0.321600 0.270030
O O9 0.336246 0.706012 0.283878
O O10 0.365448 0.735671 0.397057
O O11 0.239761 0.771686 0.345135
O O12 0.250000 0.885799 0.750000
O O13 0.344354 0.829522 0.672986
O O14 0.386178 0.908634 0.765102
O O15 0.500000 0.305560 0.588734
O O16 0.606468 0.385766 0.614992
O O17 0.000000 0.064906 0.637353
O O18 0.120402 0.001587 0.652160
O O19 0.500000 0.559278 0.322555
#
# Coordination Sequence:
#
# PCOD8265026 Si02
#       8
#    16  16  16  16  16  16  16  16
#     4   9  17  28  40  56  79 104 131 160 191 228
#     4   9  15  25  41  58  79 104 127 157 196 231
#     4   9  16  26  40  58  80 101 128 161 194 231
#     4   8  15  26  38  55  77 100 123 154 193 229
#     4   9  17  27  40  58  78 103 133 161 189 226
#     4   9  16  26  40  57  79 103 128 159 195 234
#     4   8  15  26  39  57  79 102 127 157 190 223
#     4   9  16  26  40  57  77 101 130 158 185 225
#
# _framework density 15.051189000000001
#
# number of rings (size 3 to 8) (size 9 to 14) (size 15 to 20)
#    0.000    3.250    0.000    2.625    0.000    4.500 
#    0.000    5.000    0.000    0.000    0.000    0.000 
#    0.000    1.000    0.000    7.375    0.000    0.500 
#
# Total GULP energy -792932.435112 kJ/mol
# GULP energy per Si atom -12389.569299 kJ/mol
# Density = 1.501693 g / cm^3
# Si number density = 15.051189 Si / 1000 Ang^3
#
#
#
# Elastic Constant Matrix: (Units=GPa)
#
#
# Indices 1 2 3 4 5 6 
#
# 1 48.0740 20.2210 38.9806 0.0000 0.0000 0.0000
# 2 20.2210 54.1299 47.3903 0.0000 0.0000 0.0000
# 3 38.9806 47.3903 79.3917 0.0000 0.0000 0.0000
# 4 0.0000 0.0000 0.0000 16.1356 0.0000 0.0000
# 5 0.0000 0.0000 0.0000 0.0000 16.6122 0.0000
# 6 0.0000 0.0000 0.0000 0.0000 0.0000 9.9419
#
#
#
# Elastic Compliance Matrix: (Units=1/GPa)
#
#
# Indices 1 2 3 4 5 6 
#
# 1 0.034995 0.004127 -0.019646 0.000000 0.000000 0.000000
# 2 0.004127 0.039184 -0.025416 0.000000 0.000000 0.000000
# 3 -0.019646 -0.025416 0.037413 0.000000 0.000000 0.000000
# 4 0.000000 0.000000 0.000000 0.061975 0.000000 0.000000
# 5 0.000000 0.000000 0.000000 0.000000 0.060197 0.000000
# 6 0.000000 0.000000 0.000000 0.000000 0.000000 0.100585
#
#
# Mechanical properties :
#
#
# Convention : Reuss Voigt Hill
#
# Bulk Modulus (GPa) = 33.64472 43.86437 38.75454
# Shear Modulus (GPa) = 11.73368 13.53817 12.63593
#
# Velocity S-wave (km/s) = 2.79513 3.00238 2.90061
# Velocity P-wave (km/s) = 5.72879 6.42073 6.08461
#
# Compressibility (1/GPa) = 0.02972235
#
# Stress axis : x y z
#
# Youngs Moduli (GPa) = 28.57547 25.52083 26.72899
#
# Poissons Ratio (x) = -0.10531 0.52510
# Poissons Ratio (y) = -0.11792 0.67933
# Poissons Ratio (z) = 0.56138 0.64863
#
# Static dielectric constant tensor:
#      x y z
#    x 2.909690 0.000000 0.000000 
#    y 0.000000 2.975820 0.000000 
#    z 0.000000 0.000000 2.960820 
# 
# 
# High freq. dielectric constant tensor:
#      x y z
#    x 1.568000 0.000000 0.000000 
#    y 0.000000 1.549090 0.000000 
#    z 0.000000 0.000000 1.557440 
# 
# From -- ./inp_files/40586.got.cif
#   From: 2010.03.12/outbox.cif.g09.slc.cpg/sg64_21_cif.got.tgz:40586.got - 2010.04.10 20:19:32.
