data_PCOD8265606
_publ_section_title
;
Structure prediction by ZEFSAII (Michael W. Deem and Ramdas Pophale) SiO2 
 PCOD8265606
Probable space group: C M M M
;
_chemical_formula_sum "Si O2"
_cell_formula_units_Z 104
_cell_length_a 27.272693
_cell_length_b 19.322490
_cell_length_c 14.015761
_cell_angle_alpha 90.000000
_cell_angle_beta 90.000000
_cell_angle_gamma 90.000000
_cell_volume 7385.974403
_symmetry_space_group_name_H-M "C M M M"
_symmetry_group_IT_number 65
_symmetry_cell_setting 'orthorhombic'
loop_
_space_group_symop_operation_xyz
x,y,z
-x,-y,z
x,-y,-z
-x,y,-z
-x,-y,-z
x,y,-z
-x,y,z
x,-y,z
1/2+x,1/2+y,z
1/2-x,1/2-y,z
1/2+x,1/2-y,-z
1/2-x,1/2+y,-z
1/2-x,1/2-y,-z
1/2+x,1/2+y,-z
1/2-x,1/2+y,z
1/2+x,1/2-y,z
loop_
_atom_site_type_symbol
_atom_site_label
_atom_site_fract_x
_atom_site_fract_y
_atom_site_fract_z
Si Si1 0.554924 0.918035 0.605257
Si Si2 0.906195 0.838590 0.113698
Si Si3 0.554371 0.804158 0.112251
Si Si4 0.293007 0.081836 0.893793
Si Si5 0.814545 0.922531 0.886624
Si Si6 0.500000 0.577845 0.886373
Si Si7 0.610944 0.918385 0.211107
O O1 0.569328 0.889358 0.500000
O O2 0.500000 0.891768 0.633202
O O3 0.595923 0.894076 0.681966
O O4 0.554018 0.000000 0.602117
O O5 0.912152 0.759556 0.150500
O O6 0.855850 0.871013 0.155387
O O7 0.951802 0.883426 0.152287
O O8 0.905082 0.841098 0.000000
O O9 0.500000 0.796789 0.156152
O O10 0.575899 0.878538 0.138604
O O11 0.550947 0.799056 0.000000
O O12 0.239348 0.107427 0.858765
O O13 0.333276 0.103392 0.814651
O O14 0.290372 0.000000 0.903381
O O15 0.305967 0.112012 0.000000
O O16 0.822836 0.000000 0.844954
O O17 0.818181 0.926299 0.000000
O O18 0.500000 0.500000 0.846114
O O19 0.500000 0.577776 0.000000
O O20 0.602385 0.000000 0.195851
#
# Coordination Sequence:
#
# PCOD8265606 Si02
#       7
#    16  16  16  16  16   8  16
#     4   8  14  25  40  57  74  88 109 151 199 231
#     4   9  15  24  34  48  71  97 124 156 194 227
#     4  10  19  28  35  47  74 106 129 157 193 215
#     4   8  14  24  36  52  74  97 125 163 192 204
#     4   8  13  22  37  53  69  93 124 158 194 225
#     4   9  14  20  34  52  67  89 126 161 185 223
#     4  10  18  27  40  54  69  97 134 158 176 214
#
# _framework density 14.080742000000001
#
# number of rings (size 3 to 8) (size 9 to 14) (size 15 to 20)
#    0.000    3.154    0.769    2.769    0.000    3.692 
#    0.000    1.538    0.000    3.692    0.000    0.000 
#    0.000    2.462    0.000    0.462    0.000    3.385 
#
# Total GULP energy -644219.215223 kJ/mol
# GULP energy per Si atom -12388.831062 kJ/mol
# Density = 1.404869 g / cm^3
# Si number density = 14.080742 Si / 1000 Ang^3
#
#
#
# Elastic Constant Matrix: (Units=GPa)
#
#
# Indices 1 2 3 4 5 6 
#
# 1 132.8588 38.3833 43.9631 0.0000 0.0000 0.0000
# 2 38.3833 56.3559 14.6401 0.0000 0.0000 0.0000
# 3 43.9631 14.6401 28.0626 0.0000 0.0000 0.0000
# 4 0.0000 0.0000 0.0000 4.0992 0.0000 0.0000
# 5 0.0000 0.0000 0.0000 0.0000 4.6689 0.0000
# 6 0.0000 0.0000 0.0000 0.0000 0.0000 14.6529
#
#
#
# Elastic Compliance Matrix: (Units=1/GPa)
#
#
# Indices 1 2 3 4 5 6 
#
# 1 0.016924 -0.005366 -0.023714 0.000000 0.000000 0.000000
# 2 -0.005366 0.022228 -0.003189 0.000000 0.000000 0.000000
# 3 -0.023714 -0.003189 0.074448 0.000000 0.000000 0.000000
# 4 0.000000 0.000000 0.000000 0.243952 0.000000 0.000000
# 5 0.000000 0.000000 0.000000 0.000000 0.214185 0.000000
# 6 0.000000 0.000000 0.000000 0.000000 0.000000 0.068246
#
#
# Mechanical properties :
#
#
# Convention : Reuss Voigt Hill
#
# Bulk Modulus (GPa) = 20.38244 45.69448 33.03846
# Shear Modulus (GPa) = 6.93601 12.70356 9.81979
#
# Velocity S-wave (km/s) = 2.22184 3.00691 2.64368
# Velocity P-wave (km/s) = 4.59227 6.67664 5.73003
#
# Compressibility (1/GPa) = 0.04906185
#
# Stress axis : x y z
#
# Youngs Moduli (GPa) = 59.08757 44.98859 13.43214
#
# Poissons Ratio (x) = 0.24143 0.31853
# Poissons Ratio (y) = 0.31709 0.04284
# Poissons Ratio (z) = 1.40118 0.14347
#
# Static dielectric constant tensor:
#      x y z
#    x 3.160290 0.000000 0.000000 
#    y 0.000000 2.692640 0.000000 
#    z 0.000000 0.000000 2.481100 
# 
# 
# High freq. dielectric constant tensor:
#      x y z
#    x 1.548210 0.000000 0.000000 
#    y 0.000000 1.518500 0.000000 
#    z 0.000000 0.000000 1.469170 
# 
# From -- ./inp_files/47177.got.cif
#   From: 2010.03.12/outbox.cif.g09.slc.cpg/sg65_24_cif.got.tgz:47177.got - 2010.04.10 20:52:16.
