data_PCOD8265099
_publ_section_title
;
Structure prediction by ZEFSAII (Michael W. Deem and Ramdas Pophale) SiO2 
 PCOD8265099
Probable space group: C M M M
;
_chemical_formula_sum "Si O2"
_cell_formula_units_Z 80
_cell_length_a 9.061841
_cell_length_b 35.937965
_cell_length_c 17.878459
_cell_angle_alpha 90.000000
_cell_angle_beta 90.000000
_cell_angle_gamma 90.000000
_cell_volume 5822.372701
_symmetry_space_group_name_H-M "C M M M"
_symmetry_group_IT_number 65
_symmetry_cell_setting 'orthorhombic'
loop_
_space_group_symop_operation_xyz
x,y,z
-x,-y,z
x,-y,-z
-x,y,-z
-x,-y,-z
x,y,-z
-x,y,z
x,-y,z
1/2+x,1/2+y,z
1/2-x,1/2-y,z
1/2+x,1/2-y,-z
1/2-x,1/2+y,-z
1/2-x,1/2-y,-z
1/2+x,1/2+y,-z
1/2-x,1/2+y,z
1/2+x,1/2-y,z
loop_
_atom_site_type_symbol
_atom_site_label
_atom_site_fract_x
_atom_site_fract_y
_atom_site_fract_z
Si Si1 0.828248 0.210684 0.858437
Si Si2 0.677049 0.791196 0.000000
Si Si3 0.664048 0.500000 0.589384
Si Si4 0.673113 0.153203 0.586559
Si Si5 0.170686 0.789371 0.306916
Si Si6 0.663093 0.929396 0.411290
O O1 0.750000 0.250000 0.850982
O O2 0.810590 0.192460 0.776267
O O3 0.000000 0.215226 0.880416
O O4 0.740842 0.188478 0.924839
O O5 0.750000 0.750000 0.000000
O O6 0.500000 0.790630 0.000000
O O7 0.500000 0.500000 0.620591
O O8 0.669303 0.500000 0.500000
O O9 0.738386 0.462618 0.622018
O O10 0.708035 0.160930 0.500000
O O11 0.500000 0.157808 0.602508
O O12 0.764668 0.181992 0.634440
O O13 0.725251 0.111470 0.609482
O O14 0.250000 0.750000 0.315415
O O15 0.000000 0.782471 0.324855
O O16 0.654958 0.932644 0.500000
O O17 0.500000 0.934381 0.377444
#
# Coordination Sequence:
#
# PCOD8265099 Si02
#       6
#    16   8   8  16  16  16
#     4   9  16  26  38  53  72  92 115 144 180 221
#     4  10  16  22  36  56  74  92 112 137 174 217
#     4   9  15  21  33  55  77  93 111 140 177 216
#     4   9  18  31  44  56  71  94 126 163 199 231
#     4  10  20  31  43  56  71  95 126 161 198 231
#     4   8  14  25  39  53  70  93 118 144 179 224
#
# _framework density 13.740103
#
# number of rings (size 3 to 8) (size 9 to 14) (size 15 to 20)
#    0.000    2.900    0.000    4.800    0.000    5.200 
#    0.000    2.000    0.000    0.000    0.000    0.000 
#    0.000    0.000    0.000    0.000    0.000    1.000 
#
# Total GULP energy -495525.719996 kJ/mol
# GULP energy per Si atom -12388.143000 kJ/mol
# Density = 1.370883 g / cm^3
# Si number density = 13.740103 Si / 1000 Ang^3
#
#
#
# Elastic Constant Matrix: (Units=GPa)
#
#
# Indices 1 2 3 4 5 6 
#
# 1 108.3541 51.5176 50.4267 0.0000 0.0000 0.0000
# 2 51.5176 81.4031 41.0328 0.0000 0.0000 0.0000
# 3 50.4267 41.0328 67.7215 0.0000 0.0000 0.0000
# 4 0.0000 0.0000 0.0000 -0.8962 0.0000 0.0000
# 5 0.0000 0.0000 0.0000 0.0000 18.7763 0.0000
# 6 0.0000 0.0000 0.0000 0.0000 0.0000 19.6517
#
#
#
# Elastic Compliance Matrix: (Units=1/GPa)
#
#
# Indices 1 2 3 4 5 6 
#
# 1 0.015865 -0.005882 -0.008249 0.000000 0.000000 0.000000
# 2 -0.005882 0.019867 -0.007658 0.000000 0.000000 0.000000
# 3 -0.008249 -0.007658 0.025549 0.000000 0.000000 0.000000
# 4 0.000000 0.000000 0.000000 -1.115813 0.000000 0.000000
# 5 0.000000 0.000000 0.000000 0.000000 0.053259 0.000000
# 6 0.000000 0.000000 0.000000 0.000000 0.000000 0.050886
#
#
# Mechanical properties :
#
#
# Convention : Reuss Voigt Hill
#
# Bulk Modulus (GPa) = 56.48878 60.38142 58.43510
# Shear Modulus (GPa) = -5.54995 15.13979 4.79492
#
# Velocity S-wave (km/s) = -2.01197 3.32304 1.87011
# Velocity P-wave (km/s) = 5.98367 7.66579 6.87636
#
# Compressibility (1/GPa) = 0.01770263
#
# Stress axis : x y z
#
# Youngs Moduli (GPa) = 63.03270 50.33424 39.14107
#
# Poissons Ratio (x) = 0.29608 0.32288
# Poissons Ratio (y) = 0.37077 0.29973
# Poissons Ratio (z) = 0.51997 0.38544
#
# Static dielectric constant tensor:
#      x y z
#    x 2.891920 0.000000 0.000000 
#    y 0.000000 2.566190 0.000000 
#    z 0.000000 0.000000 3.108660 
# 
# 
# High freq. dielectric constant tensor:
#      x y z
#    x 1.539160 0.000000 0.000000 
#    y 0.000000 1.485240 0.000000 
#    z 0.000000 0.000000 1.497080 
# 
# From -- ./inp_files/60559.got.cif
#   From: 2010.03.12/outbox.cif.g09.slc.cpg/sg65_31_cif.got.tgz:60559.got - 2010.04.10 20:52:16.
