data_PCOD8265644
_publ_section_title
;
Structure prediction by ZEFSAII (Michael W. Deem and Ramdas Pophale) SiO2 
 PCOD8265644
Probable space group: C M M M
;
_chemical_formula_sum "Si O2"
_cell_formula_units_Z 80
_cell_length_a 24.853114
_cell_length_b 17.792747
_cell_length_c 11.636483
_cell_angle_alpha 90.000000
_cell_angle_beta 90.000000
_cell_angle_gamma 90.000000
_cell_volume 5145.712938
_symmetry_space_group_name_H-M "C M M M"
_symmetry_group_IT_number 65
_symmetry_cell_setting 'orthorhombic'
loop_
_space_group_symop_operation_xyz
x,y,z
-x,-y,z
x,-y,-z
-x,y,-z
-x,-y,-z
x,y,-z
-x,y,z
x,-y,z
1/2+x,1/2+y,z
1/2-x,1/2-y,z
1/2+x,1/2-y,-z
1/2-x,1/2+y,-z
1/2-x,1/2-y,-z
1/2+x,1/2+y,-z
1/2-x,1/2+y,z
1/2+x,1/2-y,z
loop_
_atom_site_type_symbol
_atom_site_label
_atom_site_fract_x
_atom_site_fract_y
_atom_site_fract_z
Si Si1 0.183607 0.248357 0.500000
Si Si2 0.254494 0.083429 0.258048
Si Si3 0.936934 0.586791 0.131244
Si Si4 0.293797 0.583152 0.500000
Si Si5 0.855045 0.680921 0.262994
Si Si6 0.303615 0.299579 0.127963
O O1 0.250000 0.250000 0.500000
O O2 0.168276 0.158350 0.500000
O O3 0.155845 0.290734 0.392883
O O4 0.246722 0.086454 0.393908
O O5 0.309963 0.122004 0.224365
O O6 0.204091 0.124310 0.199032
O O7 0.256366 0.000000 0.208516
O O8 0.922763 0.500000 0.156765
O O9 0.910530 0.638817 0.231472
O O10 0.000000 0.600516 0.142114
O O11 0.918211 0.607145 0.000000
O O12 0.324207 0.500000 0.500000
O O13 0.852906 0.754144 0.182489
O O14 0.250000 0.250000 0.136282
O O15 0.319055 0.321944 0.000000
#
# Coordination Sequence:
#
# PCOD8265644 Si02
#       6
#     8  16  16   8  16  16
#     4  12  18  32  47  69  98 132 158 200 241 284
#     4  10  18  27  41  62  92 126 160 196 230 282
#     4   9  19  36  54  71  95 128 167 211 252 288
#     4  10  18  30  44  62  91 129 166 188 219 275
#     4  11  18  29  48  68  91 124 169 199 240 286
#     4   9  17  27  39  59  88 118 151 196 242 284
#
# _framework density 15.546923
#
# number of rings (size 3 to 8) (size 9 to 14) (size 15 to 20)
#    0.000    2.000    4.000    2.400    0.000    1.200 
#    0.000    2.000    0.000    1.200    0.000    0.000 
#    0.000    4.000    0.000   11.000    0.000    0.000 
#
# Total GULP energy -495535.371394 kJ/mol
# GULP energy per Si atom -12388.384285 kJ/mol
# Density = 1.551154 g / cm^3
# Si number density = 15.546923 Si / 1000 Ang^3
#
#
#
# Elastic Constant Matrix: (Units=GPa)
#
#
# Indices 1 2 3 4 5 6 
#
# 1 47.6542 35.8331 32.1014 0.0000 0.0000 0.0000
# 2 35.8331 118.3408 43.3115 0.0000 0.0000 0.0000
# 3 32.1014 43.3115 100.0337 0.0000 0.0000 0.0000
# 4 0.0000 0.0000 0.0000 22.6328 0.0000 0.0000
# 5 0.0000 0.0000 0.0000 0.0000 21.9361 0.0000
# 6 0.0000 0.0000 0.0000 0.0000 0.0000 25.0105
#
#
#
# Elastic Compliance Matrix: (Units=1/GPa)
#
#
# Indices 1 2 3 4 5 6 
#
# 1 0.030749 -0.006772 -0.006935 0.000000 0.000000 0.000000
# 2 -0.006772 0.011533 -0.002820 0.000000 0.000000 0.000000
# 3 -0.006935 -0.002820 0.013443 0.000000 0.000000 0.000000
# 4 0.000000 0.000000 0.000000 0.044184 0.000000 0.000000
# 5 0.000000 0.000000 0.000000 0.000000 0.045587 0.000000
# 6 0.000000 0.000000 0.000000 0.000000 0.000000 0.039983
#
#
# Mechanical properties :
#
#
# Convention : Reuss Voigt Hill
#
# Bulk Modulus (GPa) = 44.11220 54.28009 49.19615
# Shear Modulus (GPa) = 22.11501 24.23470 23.17486
#
# Velocity S-wave (km/s) = 3.77565 3.95246 3.86507
# Velocity P-wave (km/s) = 6.88786 7.47120 7.18545
#
# Compressibility (1/GPa) = 0.02266946
#
# Stress axis : x y z
#
# Youngs Moduli (GPa) = 32.52166 86.70808 74.38695
#
# Poissons Ratio (x) = 0.58722 0.51589
# Poissons Ratio (y) = 0.22025 0.20978
# Poissons Ratio (z) = 0.22555 0.24453
#
# Static dielectric constant tensor:
#      x y z
#    x 2.509270 0.000000 0.000000 
#    y 0.000000 3.343870 0.000000 
#    z 0.000000 0.000000 3.030640 
# 
# 
# High freq. dielectric constant tensor:
#      x y z
#    x 1.531960 0.000000 0.000000 
#    y 0.000000 1.608530 0.000000 
#    z 0.000000 0.000000 1.606940 
# 
# From -- ./inp_files/30719.got.cif
#   From: 2010.03.12/outbox.cif.g09.slc.cpg/sg65_16_cif.got.tgz:30719.got - 2010.04.10 20:52:16.
