data_PCOD8265447
_publ_section_title
;
Structure prediction by ZEFSAII (Michael W. Deem and Ramdas Pophale) SiO2 
 PCOD8265447
Probable space group: C M M M
;
_chemical_formula_sum "Si O2"
_cell_formula_units_Z 104
_cell_length_a 32.801377
_cell_length_b 19.619675
_cell_length_c 8.932928
_cell_angle_alpha 90.000000
_cell_angle_beta 90.000000
_cell_angle_gamma 90.000000
_cell_volume 5748.806863
_symmetry_space_group_name_H-M "C M M M"
_symmetry_group_IT_number 65
_symmetry_cell_setting 'orthorhombic'
loop_
_space_group_symop_operation_xyz
x,y,z
-x,-y,z
x,-y,-z
-x,y,-z
-x,-y,-z
x,y,-z
-x,y,z
x,-y,z
1/2+x,1/2+y,z
1/2-x,1/2-y,z
1/2+x,1/2-y,-z
1/2-x,1/2+y,-z
1/2-x,1/2-y,-z
1/2+x,1/2+y,-z
1/2-x,1/2+y,z
1/2+x,1/2-y,z
loop_
_atom_site_type_symbol
_atom_site_label
_atom_site_fract_x
_atom_site_fract_y
_atom_site_fract_z
Si Si1 0.739612 0.670935 0.831370
Si Si2 0.320299 0.153065 0.675640
Si Si3 0.575069 0.330122 0.177917
Si Si4 0.044758 0.683789 0.822360
Si Si5 0.610413 0.922085 0.172930
Si Si6 0.158469 0.193831 0.676976
Si Si7 0.000000 0.922606 0.822124
O O1 0.750000 0.750000 0.829529
O O2 0.777235 0.634235 0.750598
O O3 0.698061 0.655388 0.742071
O O4 0.734927 0.643264 0.000000
O O5 0.313688 0.151337 0.500000
O O6 0.350249 0.093716 0.728408
O O7 0.338841 0.226467 0.725070
O O8 0.560717 0.256319 0.234814
O O9 0.618810 0.343171 0.253976
O O10 0.541179 0.384645 0.233675
O O11 0.580456 0.333314 0.000000
O O12 0.073463 0.623403 0.764300
O O13 0.000000 0.670844 0.754660
O O14 0.042732 0.684486 0.000000
O O15 0.597557 0.000000 0.193801
O O16 0.620004 0.904677 0.000000
O O17 0.157717 0.185174 0.500000
O O18 0.000000 0.000000 0.760257
O O19 0.000000 0.921416 0.000000
#
# Coordination Sequence:
#
# PCOD8265447 Si02
#       7
#    16  16  16  16  16  16   8
#     4   9  17  29  48  74 102 131 164 206 256 308
#     4  10  19  31  48  70 101 137 170 212 262 309
#     4  10  17  29  52  76 101 136 171 209 257 306
#     4   9  16  28  48  73  99 129 171 217 260 305
#     4  10  20  32  48  71 100 136 178 222 262 305
#     4  10  19  30  47  75 106 133 167 212 259 307
#     4   9  18  32  53  83 110 132 167 212 257 308
#
# _framework density 18.090710999999999
#
# number of rings (size 3 to 8) (size 9 to 14) (size 15 to 20)
#    0.000    2.385    2.308    1.385    0.000    3.692 
#    0.000    1.923    0.000    3.231    0.000    3.231 
#    0.000    0.000    0.000    0.000    0.000    0.000 
#
# Total GULP energy -644750.791676 kJ/mol
# GULP energy per Si atom -12399.053686 kJ/mol
# Density = 1.804954 g / cm^3
# Si number density = 18.090711 Si / 1000 Ang^3
#
#
#
# Elastic Constant Matrix: (Units=GPa)
#
#
# Indices 1 2 3 4 5 6 
#
# 1 178.0926 56.6777 46.4161 0.0000 0.0000 0.0000
# 2 56.6777 83.8689 21.8752 0.0000 0.0000 0.0000
# 3 46.4161 21.8752 57.6953 0.0000 0.0000 0.0000
# 4 0.0000 0.0000 0.0000 13.5236 0.0000 0.0000
# 5 0.0000 0.0000 0.0000 0.0000 8.7155 0.0000
# 6 0.0000 0.0000 0.0000 0.0000 0.0000 22.5638
#
#
#
# Elastic Compliance Matrix: (Units=1/GPa)
#
#
# Indices 1 2 3 4 5 6 
#
# 1 0.008296 -0.004290 -0.005048 0.000000 0.000000 0.000000
# 2 -0.004290 0.015450 -0.002407 0.000000 0.000000 0.000000
# 3 -0.005048 -0.002407 0.022306 0.000000 0.000000 0.000000
# 4 0.000000 0.000000 0.000000 0.073945 0.000000 0.000000
# 5 0.000000 0.000000 0.000000 0.000000 0.114739 0.000000
# 6 0.000000 0.000000 0.000000 0.000000 0.000000 0.044319
#
#
# Mechanical properties :
#
#
# Convention : Reuss Voigt Hill
#
# Bulk Modulus (GPa) = 44.31945 63.28833 53.80389
# Shear Modulus (GPa) = 16.12576 21.93976 19.03276
#
# Velocity S-wave (km/s) = 2.98884 3.48625 3.24709
# Velocity P-wave (km/s) = 6.03842 7.15997 6.62298
#
# Compressibility (1/GPa) = 0.02256345
#
# Stress axis : x y z
#
# Youngs Moduli (GPa) = 120.54329 64.72472 44.83149
#
# Poissons Ratio (x) = 0.27765 0.22629
# Poissons Ratio (y) = 0.51709 0.10790
# Poissons Ratio (z) = 0.60845 0.15578
#
# Static dielectric constant tensor:
#      x y z
#    x 3.595040 0.000000 0.000000 
#    y 0.000000 3.084990 0.000000 
#    z 0.000000 0.000000 3.079920 
# 
# 
# High freq. dielectric constant tensor:
#      x y z
#    x 1.717820 0.000000 0.000000 
#    y 0.000000 1.659600 0.000000 
#    z 0.000000 0.000000 1.678450 
# 
# From -- ./inp_files/18635.got.cif
#   From: 2010.03.12/outbox.cif.g09.slc.cpg/sg65_10_cif.got.tgz:18635.got - 2010.04.10 20:52:16.
