data_PCOD8265878
_publ_section_title
;
Structure prediction by ZEFSAII (Michael W. Deem and Ramdas Pophale) SiO2 
 PCOD8265878
Probable space group: C M M M
;
_chemical_formula_sum "Si O2"
_cell_formula_units_Z 88
_cell_length_a 19.051808
_cell_length_b 20.745461
_cell_length_c 13.629201
_cell_angle_alpha 90.000000
_cell_angle_beta 90.000000
_cell_angle_gamma 90.000000
_cell_volume 5386.785502
_symmetry_space_group_name_H-M "C M M M"
_symmetry_group_IT_number 65
_symmetry_cell_setting 'orthorhombic'
loop_
_space_group_symop_operation_xyz
x,y,z
-x,-y,z
x,-y,-z
-x,y,-z
-x,-y,-z
x,y,-z
-x,y,z
x,-y,z
1/2+x,1/2+y,z
1/2-x,1/2-y,z
1/2+x,1/2-y,-z
1/2-x,1/2+y,-z
1/2-x,1/2-y,-z
1/2+x,1/2+y,-z
1/2-x,1/2+y,z
1/2+x,1/2-y,z
loop_
_atom_site_type_symbol
_atom_site_label
_atom_site_fract_x
_atom_site_fract_y
_atom_site_fract_z
Si Si1 0.421646 0.000000 0.812711
Si Si2 0.827957 0.271571 0.244290
Si Si3 0.581210 0.862445 0.115637
Si Si4 0.627799 0.340017 0.385827
Si Si5 0.781689 0.373827 0.393004
Si Si6 0.132343 0.500000 0.392878
Si Si7 0.000000 0.071914 0.615695
O O1 0.386985 0.932777 0.851167
O O2 0.500000 0.000000 0.854883
O O3 0.424118 0.000000 0.693982
O O4 0.750000 0.250000 0.206725
O O5 0.874923 0.301200 0.156898
O O6 0.869515 0.217322 0.305902
O O7 0.820444 0.328858 0.318843
O O8 0.500000 0.856367 0.150613
O O9 0.587606 0.857670 0.000000
O O10 0.616181 0.316482 0.500000
O O11 0.698955 0.380314 0.375816
O O12 0.567611 0.388247 0.349822
O O13 0.795646 0.343647 0.500000
O O14 0.814390 0.442602 0.381096
O O15 0.094219 0.500000 0.500000
O O16 0.000000 0.064543 0.500000
O O17 0.000000 0.000000 0.663115
#
# Coordination Sequence:
#
# PCOD8265878 Si02
#       7
#     8  16  16  16  16   8   8
#     4  10  19  35  54  71  96 129 164 202 238 287
#     4  10  19  32  51  73  98 127 158 199 244 292
#     4  10  21  36  54  73  95 126 165 207 252 296
#     4   9  18  30  46  69  99 132 164 195 235 288
#     4   9  17  29  46  68  97 132 164 193 231 284
#     4  10  18  28  47  73 100 131 165 195 234 281
#     4   9  18  30  44  66  97 130 165 200 229 266
#
# _framework density 16.336272999999998
#
# number of rings (size 3 to 8) (size 9 to 14) (size 15 to 20)
#    0.000    2.455    1.818    0.818    2.545    3.818 
#    0.000    0.000    0.000    0.000    0.000    0.000 
#    0.000    0.727    0.000    0.000    0.000    0.364 
#
# Total GULP energy -545114.171772 kJ/mol
# GULP energy per Si atom -12388.958449 kJ/mol
# Density = 1.629909 g / cm^3
# Si number density = 16.336273 Si / 1000 Ang^3
#
#
#
# Elastic Constant Matrix: (Units=GPa)
#
#
# Indices 1 2 3 4 5 6 
#
# 1 62.5454 41.5300 33.1093 0.0000 0.0000 0.0000
# 2 41.5300 98.2042 38.6328 0.0000 0.0000 0.0000
# 3 33.1093 38.6328 74.5510 0.0000 0.0000 0.0000
# 4 0.0000 0.0000 0.0000 4.9941 0.0000 0.0000
# 5 0.0000 0.0000 0.0000 0.0000 23.2769 0.0000
# 6 0.0000 0.0000 0.0000 0.0000 0.0000 29.6079
#
#
#
# Elastic Compliance Matrix: (Units=1/GPa)
#
#
# Indices 1 2 3 4 5 6 
#
# 1 0.024849 -0.007746 -0.007022 0.000000 0.000000 0.000000
# 2 -0.007746 0.015205 -0.004439 0.000000 0.000000 0.000000
# 3 -0.007022 -0.004439 0.018832 0.000000 0.000000 0.000000
# 4 0.000000 0.000000 0.000000 0.200235 0.000000 0.000000
# 5 0.000000 0.000000 0.000000 0.000000 0.042961 0.000000
# 6 0.000000 0.000000 0.000000 0.000000 0.000000 0.033775
#
#
# Mechanical properties :
#
#
# Convention : Reuss Voigt Hill
#
# Bulk Modulus (GPa) = 48.84631 51.31611 50.08121
# Shear Modulus (GPa) = 13.12007 19.71101 16.41554
#
# Velocity S-wave (km/s) = 2.83702 3.47735 3.17338
# Velocity P-wave (km/s) = 6.37942 6.89951 6.64456
#
# Compressibility (1/GPa) = 0.02047238
#
# Stress axis : x y z
#
# Youngs Moduli (GPa) = 40.24333 65.76785 53.09978
#
# Poissons Ratio (x) = 0.50945 0.37285
# Poissons Ratio (y) = 0.31173 0.23572
# Poissons Ratio (z) = 0.28258 0.29195
#
# Static dielectric constant tensor:
#      x y z
#    x 3.055840 0.000000 0.000000 
#    y 0.000000 3.877650 0.000000 
#    z 0.000000 0.000000 2.980050 
# 
# 
# High freq. dielectric constant tensor:
#      x y z
#    x 1.619720 0.000000 0.000000 
#    y 0.000000 1.635640 0.000000 
#    z 0.000000 0.000000 1.607000 
# 
# From -- ./inp_files/42804.got.cif
#   From: 2010.03.12/outbox.cif.g09.slc.cpg/sg65_22_cif.got.tgz:42804.got - 2010.04.10 20:52:16.
