data_PCOD8265424
_publ_section_title
;
Structure prediction by ZEFSAII (Michael W. Deem and Ramdas Pophale) SiO2 
 PCOD8265424
Probable space group: C M M M
;
_chemical_formula_sum "Si O2"
_cell_formula_units_Z 128
_cell_length_a 19.600483
_cell_length_b 17.362700
_cell_length_c 22.317733
_cell_angle_alpha 90.000000
_cell_angle_beta 90.000000
_cell_angle_gamma 90.000000
_cell_volume 7595.110775
_symmetry_space_group_name_H-M "C M M M"
_symmetry_group_IT_number 65
_symmetry_cell_setting 'orthorhombic'
loop_
_space_group_symop_operation_xyz
x,y,z
-x,-y,z
x,-y,-z
-x,y,-z
-x,-y,-z
x,y,-z
-x,y,z
x,-y,z
1/2+x,1/2+y,z
1/2-x,1/2-y,z
1/2+x,1/2-y,-z
1/2-x,1/2+y,-z
1/2-x,1/2-y,-z
1/2+x,1/2+y,-z
1/2-x,1/2+y,z
1/2+x,1/2-y,z
loop_
_atom_site_type_symbol
_atom_site_label
_atom_site_fract_x
_atom_site_fract_y
_atom_site_fract_z
Si Si1 0.843936 0.804858 0.823564
Si Si2 0.926244 0.125767 0.728714
Si Si3 0.821038 0.206508 0.567928
Si Si4 0.717060 0.912038 0.147521
Si Si5 0.424265 0.220963 0.653211
Si Si6 0.321358 0.839107 0.741328
Si Si7 0.796378 0.914160 0.665909
Si Si8 0.175595 0.713658 0.065977
O O1 0.909550 0.847970 0.796805
O O2 0.786062 0.867348 0.836482
O O3 0.814659 0.743496 0.774970
O O4 0.867014 0.763166 0.885399
O O5 0.931802 0.199660 0.687256
O O6 0.865778 0.072620 0.703876
O O7 0.000000 0.083066 0.729203
O O8 0.841145 0.186396 0.500000
O O9 0.750000 0.250000 0.571746
O O10 0.879288 0.263202 0.594078
O O11 0.814668 0.125848 0.603068
O O12 0.669189 0.903982 0.206852
O O13 0.681185 0.874255 0.089434
O O14 0.732687 0.000000 0.132418
O O15 0.500000 0.189252 0.636352
O O16 0.385904 0.159713 0.696424
O O17 0.253777 0.857986 0.702552
O O18 0.765443 0.000000 0.655133
O O19 0.250000 0.750000 0.062070
O O20 0.140825 0.714529 0.000000
#
# Coordination Sequence:
#
# PCOD8265424 Si02
#       8
#    16  16  16  16  16  16  16  16
#     4   9  17  27  47  64  94 130 161 203 248 293
#     4   9  18  29  45  70  98 127 160 200 244 294
#     4  10  20  34  53  75  98 128 167 207 243 286
#     4  10  18  25  41  70  96 126 161 198 246 302
#     4   9  18  31  51  74  95 124 162 205 248 289
#     4  10  17  29  47  70  97 126 163 204 245 296
#     4  11  21  31  50  74 100 133 163 197 245 299
#     4   8  15  27  42  62  89 126 164 204 250 290
#
# _framework density 16.852947
#
# number of rings (size 3 to 8) (size 9 to 14) (size 15 to 20)
#    0.000    2.500    2.500    1.500    3.500    1.000 
#    0.000    0.000    0.000    1.875    0.000    3.500 
#    0.000    2.000    0.000   17.125    0.000    0.750 
#
# Total GULP energy -792888.215953 kJ/mol
# GULP energy per Si atom -12388.878374 kJ/mol
# Density = 1.681459 g / cm^3
# Si number density = 16.852947 Si / 1000 Ang^3
#
#
#
# Elastic Constant Matrix: (Units=GPa)
#
#
# Indices 1 2 3 4 5 6 
#
# 1 82.5416 17.7064 39.4898 0.0000 0.0000 0.0000
# 2 17.7064 80.9296 36.9729 0.0000 0.0000 0.0000
# 3 39.4898 36.9729 138.3649 0.0000 0.0000 0.0000
# 4 0.0000 0.0000 0.0000 13.4063 0.0000 0.0000
# 5 0.0000 0.0000 0.0000 0.0000 12.6239 0.0000
# 6 0.0000 0.0000 0.0000 0.0000 0.0000 4.7497
#
#
#
# Elastic Compliance Matrix: (Units=1/GPa)
#
#
# Indices 1 2 3 4 5 6 
#
# 1 0.014174 -0.001427 -0.003664 0.000000 0.000000 0.000000
# 2 -0.001427 0.014218 -0.003392 0.000000 0.000000 0.000000
# 3 -0.003664 -0.003392 0.009179 0.000000 0.000000 0.000000
# 4 0.000000 0.000000 0.000000 0.074592 0.000000 0.000000
# 5 0.000000 0.000000 0.000000 0.000000 0.079215 0.000000
# 6 0.000000 0.000000 0.000000 0.000000 0.000000 0.210540
#
#
# Mechanical properties :
#
#
# Convention : Reuss Voigt Hill
#
# Bulk Modulus (GPa) = 48.53081 54.46381 51.49731
# Shear Modulus (GPa) = 11.74388 20.00044 15.87216
#
# Velocity S-wave (km/s) = 2.64264 3.44868 3.07221
# Velocity P-wave (km/s) = 6.17823 6.94587 6.57327
#
# Compressibility (1/GPa) = 0.02060547
#
# Stress axis : x y z
#
# Youngs Moduli (GPa) = 70.55072 70.33182 108.94011
#
# Poissons Ratio (x) = 0.10038 0.39915
# Poissons Ratio (y) = 0.10069 0.36952
# Poissons Ratio (z) = 0.25850 0.23856
#
# Static dielectric constant tensor:
#      x y z
#    x 3.346370 0.000000 0.000000 
#    y 0.000000 2.917100 0.000000 
#    z 0.000000 0.000000 3.488750 
# 
# 
# High freq. dielectric constant tensor:
#      x y z
#    x 1.619620 0.000000 0.000000 
#    y 0.000000 1.627820 0.000000 
#    z 0.000000 0.000000 1.648910 
# 
# From -- ./inp_files/70672.got.cif
#   From: 2010.03.12/outbox.cif.g09.slc.cpg/sg65_36_cif.got.tgz:70672.got - 2010.04.10 20:52:16.
