data_PCOD8265573
_publ_section_title
;
Structure prediction by ZEFSAII (Michael W. Deem and Ramdas Pophale) SiO2 
 PCOD8265573
Probable space group: C M M M
;
_chemical_formula_sum "Si O2"
_cell_formula_units_Z 88
_cell_length_a 21.820259
_cell_length_b 20.607703
_cell_length_c 12.930437
_cell_angle_alpha 90.000000
_cell_angle_beta 90.000000
_cell_angle_gamma 90.000000
_cell_volume 5814.370344
_symmetry_space_group_name_H-M "C M M M"
_symmetry_group_IT_number 65
_symmetry_cell_setting 'orthorhombic'
loop_
_space_group_symop_operation_xyz
x,y,z
-x,-y,z
x,-y,-z
-x,y,-z
-x,-y,-z
x,y,-z
-x,y,z
x,-y,z
1/2+x,1/2+y,z
1/2-x,1/2-y,z
1/2+x,1/2-y,-z
1/2-x,1/2+y,-z
1/2-x,1/2-y,-z
1/2+x,1/2+y,-z
1/2-x,1/2+y,z
1/2+x,1/2-y,z
loop_
_atom_site_type_symbol
_atom_site_label
_atom_site_fract_x
_atom_site_fract_y
_atom_site_fract_z
Si Si1 0.500000 0.076639 0.119987
Si Si2 0.653047 0.777944 0.385127
Si Si3 0.218170 0.150216 0.614780
Si Si4 0.744286 0.923782 0.804274
Si Si5 0.654366 0.223909 0.000000
Si Si6 0.218992 0.148119 0.000000
Si Si7 0.883653 0.650208 0.806796
O O1 0.559216 0.103214 0.178660
O O2 0.500000 0.000000 0.130720
O O3 0.500000 0.097760 0.000000
O O4 0.624401 0.786736 0.500000
O O5 0.718189 0.812351 0.379382
O O6 0.663774 0.701586 0.361240
O O7 0.608477 0.810208 0.300506
O O8 0.209116 0.120134 0.500000
O O9 0.218875 0.093204 0.699314
O O10 0.784421 0.896801 0.898996
O O11 0.676794 0.893613 0.806285
O O12 0.737336 0.000000 0.814883
O O13 0.719424 0.189267 0.000000
O O14 0.662164 0.301770 0.000000
O O15 0.617381 0.202964 0.101710
#
# Coordination Sequence:
#
# PCOD8265573 Si02
#       7
#     8  16  16  16   8   8  16
#     4  11  22  34  45  59  83 115 152 190 220 244
#     4   8  14  26  45  63  80 103 135 176 218 255
#     4   8  14  25  41  62  83 106 137 170 205 251
#     4  10  18  26  38  58  86 118 143 167 201 249
#     4   9  16  27  43  60  74  98 135 182 223 251
#     4   9  17  26  38  58  81 102 132 171 215 263
#     4  10  18  30  44  60  79 108 150 187 213 245
#
# _framework density 15.134914999999999
#
# number of rings (size 3 to 8) (size 9 to 14) (size 15 to 20)
#    0.000    2.818    0.909    3.000    0.000    4.727 
#    0.000    0.455    0.000    2.182    0.000    0.000 
#    0.000    0.000    0.000   33.545    0.000   27.273 
#
# Total GULP energy -545384.945713 kJ/mol
# GULP energy per Si atom -12395.112403 kJ/mol
# Density = 1.510047 g / cm^3
# Si number density = 15.134915 Si / 1000 Ang^3
#
#
#
# Elastic Constant Matrix: (Units=GPa)
#
#
# Indices 1 2 3 4 5 6 
#
# 1 33.7708 29.7157 33.5173 0.0000 0.0000 0.0000
# 2 29.7157 84.0162 60.3690 0.0000 0.0000 0.0000
# 3 33.5173 60.3690 137.1750 0.0000 0.0000 0.0000
# 4 0.0000 0.0000 0.0000 20.3505 0.0000 0.0000
# 5 0.0000 0.0000 0.0000 0.0000 10.2179 0.0000
# 6 0.0000 0.0000 0.0000 0.0000 0.0000 22.0075
#
#
#
# Elastic Compliance Matrix: (Units=1/GPa)
#
#
# Indices 1 2 3 4 5 6 
#
# 1 0.046119 -0.012014 -0.005982 0.000000 0.000000 0.000000
# 2 -0.012014 0.020536 -0.006102 0.000000 0.000000 0.000000
# 3 -0.005982 -0.006102 0.011437 0.000000 0.000000 0.000000
# 4 0.000000 0.000000 0.000000 0.049139 0.000000 0.000000
# 5 0.000000 0.000000 0.000000 0.000000 0.097868 0.000000
# 6 0.000000 0.000000 0.000000 0.000000 0.000000 0.045439
#
#
# Mechanical properties :
#
#
# Convention : Reuss Voigt Hill
#
# Bulk Modulus (GPa) = 33.44806 55.79622 44.62214
# Shear Modulus (GPa) = 15.21145 19.27253 17.24199
#
# Velocity S-wave (km/s) = 3.17370 3.57232 3.37889
# Velocity P-wave (km/s) = 5.96471 7.34583 6.69100
#
# Compressibility (1/GPa) = 0.02989710
#
# Stress axis : x y z
#
# Youngs Moduli (GPa) = 21.68290 48.69397 87.43499
#
# Poissons Ratio (x) = 0.58500 0.52300
# Poissons Ratio (y) = 0.26050 0.53356
# Poissons Ratio (z) = 0.12970 0.29715
#
# Static dielectric constant tensor:
#      x y z
#    x 2.470880 0.000000 0.000000 
#    y 0.000000 2.862080 0.000000 
#    z 0.000000 0.000000 3.297300 
# 
# 
# High freq. dielectric constant tensor:
#      x y z
#    x 1.517660 0.000000 0.000000 
#    y 0.000000 1.569740 0.000000 
#    z 0.000000 0.000000 1.599120 
# 
# From -- ./inp_files/44357.got.cif
#   From: 2010.03.12/outbox.cif.g09.slc.cpg/sg65_23_cif.got.tgz:44357.got - 2010.04.10 20:52:16.
