data_PCOD8265071
_publ_section_title
;
Structure prediction by ZEFSAII (Michael W. Deem and Ramdas Pophale) SiO2 
 PCOD8265071
Probable space group: C M M M
;
_chemical_formula_sum "Si O2"
_cell_formula_units_Z 80
_cell_length_a 19.522316
_cell_length_b 8.736123
_cell_length_c 26.453882
_cell_angle_alpha 90.000000
_cell_angle_beta 90.000000
_cell_angle_gamma 90.000000
_cell_volume 4511.692481
_symmetry_space_group_name_H-M "C M M M"
_symmetry_group_IT_number 65
_symmetry_cell_setting 'orthorhombic'
loop_
_space_group_symop_operation_xyz
x,y,z
-x,-y,z
x,-y,-z
-x,y,-z
-x,-y,-z
x,y,-z
-x,y,z
x,-y,z
1/2+x,1/2+y,z
1/2-x,1/2-y,z
1/2+x,1/2-y,-z
1/2-x,1/2+y,-z
1/2-x,1/2-y,-z
1/2+x,1/2+y,-z
1/2-x,1/2+y,z
1/2+x,1/2-y,z
loop_
_atom_site_type_symbol
_atom_site_label
_atom_site_fract_x
_atom_site_fract_y
_atom_site_fract_z
Si Si1 0.173745 0.181626 0.600520
Si Si2 0.324361 0.178743 0.300863
Si Si3 0.326222 0.182312 0.500000
Si Si4 0.081389 0.827270 0.000000
Si Si5 0.324283 0.821422 0.810182
Si Si6 0.922431 0.681485 0.897421
O O1 0.250000 0.250000 0.603292
O O2 0.135965 0.236383 0.652548
O O3 0.136655 0.253465 0.550783
O O4 0.174675 0.000000 0.596148
O O5 0.250000 0.250000 0.296238
O O6 0.357722 0.208512 0.245656
O O7 0.319730 0.000000 0.313848
O O8 0.250000 0.250000 0.500000
O O9 0.325404 0.000000 0.500000
O O10 0.109231 0.744194 0.050231
O O11 0.000000 0.817419 0.000000
O O12 0.108507 0.000000 0.000000
O O13 0.250000 0.750000 0.817440
O O14 0.376796 0.753683 0.851360
O O15 0.314147 0.000000 0.818624
O O16 0.920985 0.500000 0.899498
O O17 0.000000 0.741061 0.889276
#
# Coordination Sequence:
#
# PCOD8265071 Si02
#       6
#    16  16   8   8  16  16
#     4  10  16  22  31  45  65  92 128 166 204 245
#     4   9  15  24  36  51  72  99 132 166 202 245
#     4  10  16  22  30  42  62  90 125 166 209 246
#     4   9  17  29  46  69  92 113 141 177 216 257
#     4   9  18  30  45  65  88 115 146 180 216 256
#     4   9  17  31  50  69  89 115 146 178 214 257
#
# _framework density 17.731705000000002
#
# number of rings (size 3 to 8) (size 9 to 14) (size 15 to 20)
#    0.000    2.700    0.000    6.000    0.000    2.800 
#    0.000    0.500    0.000    0.000    0.000    0.000 
#    0.000    0.000    0.000    0.900    0.000   22.200 
#
# Total GULP energy -495552.135913 kJ/mol
# GULP energy per Si atom -12388.803398 kJ/mol
# Density = 1.769135 g / cm^3
# Si number density = 17.731705 Si / 1000 Ang^3
#
#
#
# Elastic Constant Matrix: (Units=GPa)
#
#
# Indices 1 2 3 4 5 6 
#
# 1 30.4206 15.7957 43.0272 0.0000 0.0000 0.0000
# 2 15.7957 101.2916 62.9273 0.0000 0.0000 0.0000
# 3 43.0272 62.9273 209.2499 0.0000 0.0000 0.0000
# 4 0.0000 0.0000 0.0000 26.9884 0.0000 0.0000
# 5 0.0000 0.0000 0.0000 0.0000 3.9055 0.0000
# 6 0.0000 0.0000 0.0000 0.0000 0.0000 9.5719
#
#
#
# Elastic Compliance Matrix: (Units=1/GPa)
#
#
# Indices 1 2 3 4 5 6 
#
# 1 0.046568 -0.001615 -0.009090 0.000000 0.000000 0.000000
# 2 -0.001615 0.012197 -0.003336 0.000000 0.000000 0.000000
# 3 -0.009090 -0.003336 0.007651 0.000000 0.000000 0.000000
# 4 0.000000 0.000000 0.000000 0.037053 0.000000 0.000000
# 5 0.000000 0.000000 0.000000 0.000000 0.256049 0.000000
# 6 0.000000 0.000000 0.000000 0.000000 0.000000 0.104473
#
#
# Mechanical properties :
#
#
# Convention : Reuss Voigt Hill
#
# Bulk Modulus (GPa) = 26.08608 64.94029 45.51319
# Shear Modulus (GPa) = 9.90393 22.70728 16.30561
#
# Velocity S-wave (km/s) = 2.36592 3.58243 3.03574
# Velocity P-wave (km/s) = 4.71242 7.33588 6.16531
#
# Compressibility (1/GPa) = 0.03833462
#
# Stress axis : x y z
#
# Youngs Moduli (GPa) = 21.47405 81.98941 130.69710
#
# Poissons Ratio (x) = 0.13240 1.18803
# Poissons Ratio (y) = 0.03468 0.43598
# Poissons Ratio (z) = 0.19520 0.27350
#
# Static dielectric constant tensor:
#      x y z
#    x 2.666130 0.000000 0.000000 
#    y 0.000000 3.346640 0.000000 
#    z 0.000000 0.000000 4.937110 
# 
# 
# High freq. dielectric constant tensor:
#      x y z
#    x 1.589370 0.000000 0.000000 
#    y 0.000000 1.693320 0.000000 
#    z 0.000000 0.000000 1.724980 
# 
# From -- ./inp_files/75297.got.cif
#   From: 2010.03.12/outbox.cif.g09.slc.cpg/sg65_38_cif.got.tgz:75297.got - 2010.04.10 20:52:16.
