data_PCOD8265025
_publ_section_title
;
Structure prediction by ZEFSAII (Michael W. Deem and Ramdas Pophale) SiO2 
 PCOD8265025
Probable space group: C M C A
;
_chemical_formula_sum "Si O2"
_cell_formula_units_Z 96
_cell_length_a 9.755670
_cell_length_b 18.203805
_cell_length_c 32.476369
_cell_angle_alpha 90.000000
_cell_angle_beta 90.000000
_cell_angle_gamma 90.000000
_cell_volume 5767.488579
_symmetry_space_group_name_H-M "C M C A"
_symmetry_group_IT_number 64
_symmetry_cell_setting 'orthorhombic'
loop_
_space_group_symop_operation_xyz
x,y,z
-x,1/2-y,1/2+z
x,-y,-z
-x,1/2+y,1/2-z
-x,-y,-z
x,1/2+y,1/2-z
-x,y,z
x,1/2-y,1/2+z
1/2+x,1/2+y,z
1/2-x,-y,1/2+z
1/2+x,1/2-y,-z
1/2-x,y,1/2-z
1/2-x,1/2-y,-z
1/2+x,y,1/2-z
1/2-x,1/2+y,z
1/2+x,-y,1/2+z
loop_
_atom_site_type_symbol
_atom_site_label
_atom_site_fract_x
_atom_site_fract_y
_atom_site_fract_z
Si Si1 0.162668 0.716021 0.869787
Si Si2 0.841761 0.460653 0.958387
Si Si3 0.159019 0.949277 0.376508
Si Si4 0.348995 0.440580 0.837909
Si Si5 0.338884 0.799857 0.710619
Si Si6 0.846978 0.151891 0.079123
O O1 0.216335 0.633699 0.877069
O O2 0.213503 0.746104 0.825744
O O3 0.212708 0.768069 0.907634
O O4 0.000000 0.720147 0.870218
O O5 0.814426 0.516961 0.921321
O O6 0.754170 0.386123 0.953585
O O7 0.000000 0.437085 0.960604
O O8 0.793826 0.500000 0.000000
O O9 0.000000 0.951708 0.364333
O O10 0.239360 0.993844 0.341095
O O11 0.500000 0.474156 0.829481
O O12 0.308415 0.384566 0.801510
O O13 0.353111 0.395815 0.879909
O O14 0.500000 0.788554 0.719737
O O15 0.250000 0.778531 0.750000
O O16 0.000000 0.157634 0.059843
#
# Coordination Sequence:
#
# PCOD8265025 Si02
#       6
#    16  16  16  16  16  16
#     4   8  15  29  47  65  85 112 145 178 213 254
#     4   9  17  28  42  63  90 115 141 179 222 257
#     4   9  16  28  47  65  83 113 148 176 209 259
#     4   8  15  28  44  62  84 108 136 173 210 242
#     4   9  17  30  47  65  86 111 140 175 212 251
#     4   8  14  27  46  62  79 109 146 176 204 249
#
# _framework density 16.645028
#
# number of rings (size 3 to 8) (size 9 to 14) (size 15 to 20)
#    0.000    3.500    0.000    2.000    0.000    1.000 
#    0.000    5.833    0.000    4.000    0.000    0.000 
#    0.000    0.000    0.000    0.000    0.000    0.000 
#
# Total GULP energy -594917.345880 kJ/mol
# GULP energy per Si atom -12394.111372 kJ/mol
# Density = 1.660714 g / cm^3
# Si number density = 16.645028 Si / 1000 Ang^3
#
#
#
# Elastic Constant Matrix: (Units=GPa)
#
#
# Indices 1 2 3 4 5 6 
#
# 1 51.3682 37.9734 21.7543 0.0000 0.0000 0.0000
# 2 37.9734 106.5786 17.3364 0.0000 0.0000 0.0000
# 3 21.7543 17.3364 46.7059 0.0000 0.0000 0.0000
# 4 0.0000 0.0000 0.0000 16.0238 0.0000 0.0000
# 5 0.0000 0.0000 0.0000 0.0000 24.5961 0.0000
# 6 0.0000 0.0000 0.0000 0.0000 0.0000 20.5926
#
#
#
# Elastic Compliance Matrix: (Units=1/GPa)
#
#
# Indices 1 2 3 4 5 6 
#
# 1 0.030951 -0.009241 -0.010986 0.000000 0.000000 0.000000
# 2 -0.009241 0.012745 -0.000427 0.000000 0.000000 0.000000
# 3 -0.010986 -0.000427 0.026686 0.000000 0.000000 0.000000
# 4 0.000000 0.000000 0.000000 0.062407 0.000000 0.000000
# 5 0.000000 0.000000 0.000000 0.000000 0.040657 0.000000
# 6 0.000000 0.000000 0.000000 0.000000 0.000000 0.048561
#
#
# Mechanical properties :
#
#
# Convention : Reuss Voigt Hill
#
# Bulk Modulus (GPa) = 34.39400 39.86455 37.12927
# Shear Modulus (GPa) = 18.31470 20.74839 19.53155
#
# Velocity S-wave (km/s) = 3.32069 3.53444 3.42923
# Velocity P-wave (km/s) = 5.95069 6.37638 6.16721
#
# Compressibility (1/GPa) = 0.02907484
#
# Stress axis : x y z
#
# Youngs Moduli (GPa) = 32.30928 78.46515 37.47301
#
# Poissons Ratio (x) = 0.72507 0.41168
# Poissons Ratio (y) = 0.29856 0.01598
# Poissons Ratio (z) = 0.35495 0.03347
#
# Static dielectric constant tensor:
#      x y z
#    x 3.108490 0.000000 0.000000 
#    y 0.000000 3.409940 0.000000 
#    z 0.000000 0.000000 2.935320 
# 
# 
# High freq. dielectric constant tensor:
#      x y z
#    x 1.624750 0.000000 0.000000 
#    y 0.000000 1.637060 0.000000 
#    z 0.000000 0.000000 1.617280 
# 
# From -- ./inp_files/49309.got.cif
#   From: 2010.03.12/outbox.cif.g09.slc.cpg/sg64_25_cif.got.tgz:49309.got - 2010.04.10 20:19:32.
