data_PCOD8265802
_publ_section_title
;
Structure prediction by ZEFSAII (Michael W. Deem and Ramdas Pophale) SiO2 
 PCOD8265802
Probable space group: C M M M
;
_chemical_formula_sum "Si O2"
_cell_formula_units_Z 112
_cell_length_a 21.927266
_cell_length_b 18.297786
_cell_length_c 17.588095
_cell_angle_alpha 90.000000
_cell_angle_beta 90.000000
_cell_angle_gamma 90.000000
_cell_volume 7056.702878
_symmetry_space_group_name_H-M "C M M M"
_symmetry_group_IT_number 65
_symmetry_cell_setting 'orthorhombic'
loop_
_space_group_symop_operation_xyz
x,y,z
-x,-y,z
x,-y,-z
-x,y,-z
-x,-y,-z
x,y,-z
-x,y,z
x,-y,z
1/2+x,1/2+y,z
1/2-x,1/2-y,z
1/2+x,1/2-y,-z
1/2-x,1/2+y,-z
1/2-x,1/2-y,-z
1/2+x,1/2+y,-z
1/2-x,1/2+y,z
1/2+x,1/2-y,z
loop_
_atom_site_type_symbol
_atom_site_label
_atom_site_fract_x
_atom_site_fract_y
_atom_site_fract_z
Si Si1 0.428694 0.582469 0.084407
Si Si2 0.765439 0.582862 0.089438
Si Si3 0.149953 0.336231 0.186004
Si Si4 0.837955 0.166538 0.823147
Si Si5 0.929914 0.414778 0.296986
Si Si6 0.746622 0.332940 0.692220
Si Si7 0.326359 0.914305 0.414721
O O1 0.500000 0.584875 0.097813
O O2 0.403979 0.500000 0.088117
O O3 0.399968 0.626284 0.154518
O O4 0.412574 0.614207 0.000000
O O5 0.756846 0.500000 0.120924
O O6 0.831922 0.614378 0.113250
O O7 0.713943 0.637613 0.120380
O O8 0.760934 0.582653 0.000000
O O9 0.148409 0.251735 0.163027
O O10 0.087070 0.365775 0.223067
O O11 0.202983 0.351263 0.245847
O O12 0.818532 0.152095 0.734511
O O13 0.920253 0.500000 0.277052
O O14 0.886848 0.391420 0.367699
O O15 0.000000 0.398771 0.319287
O O16 0.750000 0.250000 0.664032
O O17 0.762746 0.382913 0.619882
O O18 0.334560 0.883665 0.500000
O O19 0.318219 0.000000 0.415348
#
# Coordination Sequence:
#
# PCOD8265802 Si02
#       7
#    16  16  16  16  16  16  16
#     4   9  18  31  44  60  85 114 143 179 224 268
#     4  10  19  29  43  63  86 113 143 176 218 263
#     4   9  18  30  43  62  88 111 139 182 220 248
#     4  10  18  28  45  65  84 110 146 180 211 256
#     4   9  17  30  48  65  83 114 149 174 203 249
#     4   8  16  29  42  61  86 112 140 168 204 251
#     4   9  17  28  43  66  93 114 134 168 211 248
#
# _framework density 15.871435
#
# number of rings (size 3 to 8) (size 9 to 14) (size 15 to 20)
#    0.000    2.857    0.000    3.000    0.000    8.000 
#    0.000    1.429    0.000    0.429    0.000    2.000 
#    0.000    0.571    0.000    3.143    0.000    0.000 
#
# Total GULP energy -693913.552076 kJ/mol
# GULP energy per Si atom -12391.313430 kJ/mol
# Density = 1.583531 g / cm^3
# Si number density = 15.871435 Si / 1000 Ang^3
#
#
#
# Elastic Constant Matrix: (Units=GPa)
#
#
# Indices 1 2 3 4 5 6 
#
# 1 59.1394 39.7698 40.7758 0.0000 0.0000 0.0000
# 2 39.7698 79.8547 52.0122 0.0000 0.0000 0.0000
# 3 40.7758 52.0122 71.2264 0.0000 0.0000 0.0000
# 4 0.0000 0.0000 0.0000 17.3274 0.0000 0.0000
# 5 0.0000 0.0000 0.0000 0.0000 22.3150 0.0000
# 6 0.0000 0.0000 0.0000 0.0000 0.0000 16.7766
#
#
#
# Elastic Compliance Matrix: (Units=1/GPa)
#
#
# Indices 1 2 3 4 5 6 
#
# 1 0.029930 -0.007143 -0.011918 0.000000 0.000000 0.000000
# 2 -0.007143 0.025586 -0.014595 0.000000 0.000000 0.000000
# 3 -0.011918 -0.014595 0.031520 0.000000 0.000000 0.000000
# 4 0.000000 0.000000 0.000000 0.057712 0.000000 0.000000
# 5 0.000000 0.000000 0.000000 0.000000 0.044813 0.000000
# 6 0.000000 0.000000 0.000000 0.000000 0.000000 0.059607
#
#
# Mechanical properties :
#
#
# Convention : Reuss Voigt Hill
#
# Bulk Modulus (GPa) = 50.69844 52.81513 51.75678
# Shear Modulus (GPa) = 15.47717 16.46131 15.96924
#
# Velocity S-wave (km/s) = 3.12614 3.22400 3.17545
# Velocity P-wave (km/s) = 6.71140 6.87081 6.79157
#
# Compressibility (1/GPa) = 0.01972447
#
# Stress axis : x y z
#
# Youngs Moduli (GPa) = 33.41088 39.08333 31.72556
#
# Poissons Ratio (x) = 0.27919 0.37811
# Poissons Ratio (y) = 0.23866 0.46303
# Poissons Ratio (z) = 0.39820 0.57041
#
# Static dielectric constant tensor:
#      x y z
#    x 3.020650 0.000000 0.000000 
#    y 0.000000 3.137790 0.000000 
#    z 0.000000 0.000000 3.193850 
# 
# 
# High freq. dielectric constant tensor:
#      x y z
#    x 1.590040 0.000000 0.000000 
#    y 0.000000 1.610220 0.000000 
#    z 0.000000 0.000000 1.593120 
# 
# From -- ./inp_files/54850.got.cif
#   From: 2010.03.12/outbox.cif.g09.slc.cpg/sg65_28_cif.got.tgz:54850.got - 2010.04.10 20:52:16.
