data_PCOD8265391
_publ_section_title
;
Structure prediction by ZEFSAII (Michael W. Deem and Ramdas Pophale) SiO2 
 PCOD8265391
Probable space group: C M M M
;
_chemical_formula_sum "Si O2"
_cell_formula_units_Z 72
_cell_length_a 21.598230
_cell_length_b 20.189115
_cell_length_c 8.863979
_cell_angle_alpha 90.000000
_cell_angle_beta 90.000000
_cell_angle_gamma 90.000000
_cell_volume 3865.130502
_symmetry_space_group_name_H-M "C M M M"
_symmetry_group_IT_number 65
_symmetry_cell_setting 'orthorhombic'
loop_
_space_group_symop_operation_xyz
x,y,z
-x,-y,z
x,-y,-z
-x,y,-z
-x,-y,-z
x,y,-z
-x,y,z
x,-y,z
1/2+x,1/2+y,z
1/2-x,1/2-y,z
1/2+x,1/2-y,-z
1/2-x,1/2+y,-z
1/2-x,1/2-y,-z
1/2+x,1/2+y,-z
1/2-x,1/2+y,z
1/2+x,1/2-y,z
loop_
_atom_site_type_symbol
_atom_site_label
_atom_site_fract_x
_atom_site_fract_y
_atom_site_fract_z
Si Si1 0.647391 0.500000 0.179431
Si Si2 0.570949 0.236790 0.677617
Si Si3 0.712723 0.000000 0.820079
Si Si4 0.070951 0.124895 0.173494
Si Si5 0.628210 0.880526 0.180309
Si Si6 0.500000 0.076178 0.836705
O O1 0.717519 0.500000 0.241078
O O2 0.612983 0.565560 0.238625
O O3 0.645802 0.500000 0.000000
O O4 0.576111 0.230927 0.500000
O O5 0.500000 0.217217 0.730864
O O6 0.585122 0.311453 0.725982
O O7 0.627346 0.193653 0.751730
O O8 0.680141 0.932081 0.759987
O O9 0.709363 0.000000 0.000000
O O10 0.000000 0.102157 0.188224
O O11 0.087335 0.141410 0.000000
O O12 0.562799 0.905787 0.249479
O O13 0.631102 0.878263 0.000000
O O14 0.500000 0.000000 0.868942
O O15 0.500000 0.112921 0.000000
#
# Coordination Sequence:
#
# PCOD8265391 Si02
#       6
#     8  16   8  16  16   8
#     4   9  17  32  53  78 102 120 154 209 252 286
#     4  10  20  32  47  72 104 131 159 202 249 287
#     4   9  18  30  49  76 101 128 164 205 244 281
#     4   9  17  31  54  79  99 123 156 197 249 302
#     4  10  17  28  48  72  99 131 165 198 237 287
#     4   9  14  22  41  69  95 120 157 200 233 273
#
# _framework density 18.62809
#
# number of rings (size 3 to 8) (size 9 to 14) (size 15 to 20)
#    0.000    2.556    2.222    1.000    0.000    2.222 
#    0.000    2.222    0.000   14.000    0.000    0.000 
#    0.000    0.000    0.000    0.000    0.000    0.000 
#
# Total GULP energy -445985.268102 kJ/mol
# GULP energy per Si atom -12388.479669 kJ/mol
# Density = 1.858569 g / cm^3
# Si number density = 18.628090 Si / 1000 Ang^3
#
#
#
# Elastic Constant Matrix: (Units=GPa)
#
#
# Indices 1 2 3 4 5 6 
#
# 1 111.6146 72.5947 20.0573 0.0000 0.0000 0.0000
# 2 72.5947 134.4034 28.9326 0.0000 0.0000 0.0000
# 3 20.0573 28.9326 34.1872 0.0000 0.0000 0.0000
# 4 0.0000 0.0000 0.0000 3.3331 0.0000 0.0000
# 5 0.0000 0.0000 0.0000 0.0000 11.0473 0.0000
# 6 0.0000 0.0000 0.0000 0.0000 0.0000 18.7356
#
#
#
# Elastic Compliance Matrix: (Units=1/GPa)
#
#
# Indices 1 2 3 4 5 6 
#
# 1 0.013947 -0.007057 -0.002210 0.000000 0.000000 0.000000
# 2 -0.007057 0.012669 -0.006581 0.000000 0.000000 0.000000
# 3 -0.002210 -0.006581 0.036117 0.000000 0.000000 0.000000
# 4 0.000000 0.000000 0.000000 0.300021 0.000000 0.000000
# 5 0.000000 0.000000 0.000000 0.000000 0.090520 0.000000
# 6 0.000000 0.000000 0.000000 0.000000 0.000000 0.053374
#
#
# Mechanical properties :
#
#
# Convention : Reuss Voigt Hill
#
# Bulk Modulus (GPa) = 32.22090 58.15272 45.18681
# Shear Modulus (GPa) = 9.11263 17.19791 13.15527
#
# Velocity S-wave (km/s) = 2.21416 3.04176 2.66034
# Velocity P-wave (km/s) = 4.88581 6.60469 5.80918
#
# Compressibility (1/GPa) = 0.03103576
#
# Stress axis : x y z
#
# Youngs Moduli (GPa) = 71.70239 78.93431 27.68793
#
# Poissons Ratio (x) = 0.55705 0.06119
# Poissons Ratio (y) = 0.50602 0.18222
# Poissons Ratio (z) = 0.15845 0.51948
#
# Static dielectric constant tensor:
#      x y z
#    x 3.432520 0.000000 0.000000 
#    y 0.000000 3.574450 0.000000 
#    z 0.000000 0.000000 2.988760 
# 
# 
# High freq. dielectric constant tensor:
#      x y z
#    x 1.699470 0.000000 0.000000 
#    y 0.000000 1.735740 0.000000 
#    z 0.000000 0.000000 1.677180 
# 
# From -- ./inp_files/11310.got.cif
#   From: 2010.03.12/outbox.cif.g09.slc.cpg/sg65_6_cif.got.tgz:11310.got - 2010.04.10 20:52:16.
