data_PCOD8265685
_publ_section_title
;
Structure prediction by ZEFSAII (Michael W. Deem and Ramdas Pophale) SiO2 
 PCOD8265685
Probable space group: C M M M
;
_chemical_formula_sum "Si O2"
_cell_formula_units_Z 104
_cell_length_a 26.765559
_cell_length_b 14.986009
_cell_length_c 17.420744
_cell_angle_alpha 90.000000
_cell_angle_beta 90.000000
_cell_angle_gamma 90.000000
_cell_volume 6987.615604
_symmetry_space_group_name_H-M "C M M M"
_symmetry_group_IT_number 65
_symmetry_cell_setting 'orthorhombic'
loop_
_space_group_symop_operation_xyz
x,y,z
-x,-y,z
x,-y,-z
-x,y,-z
-x,-y,-z
x,y,-z
-x,y,z
x,-y,z
1/2+x,1/2+y,z
1/2-x,1/2-y,z
1/2+x,1/2-y,-z
1/2-x,1/2+y,-z
1/2-x,1/2-y,-z
1/2+x,1/2+y,-z
1/2-x,1/2+y,z
1/2+x,1/2-y,z
loop_
_atom_site_type_symbol
_atom_site_label
_atom_site_fract_x
_atom_site_fract_y
_atom_site_fract_z
Si Si1 0.278832 0.163923 0.170545
Si Si2 0.301789 0.899009 0.588786
Si Si3 0.440764 0.000000 0.585301
Si Si4 0.650472 0.234740 0.298692
Si Si5 0.710334 0.597988 0.304205
Si Si6 0.443888 0.000000 0.167093
Si Si7 0.334420 0.000000 0.909589
Si Si8 0.944531 0.645059 0.703911
O O1 0.250000 0.250000 0.130254
O O2 0.323097 0.202846 0.221545
O O3 0.239259 0.115214 0.225066
O O4 0.303984 0.089645 0.115424
O O5 0.298361 0.874234 0.500000
O O6 0.337137 0.829231 0.630388
O O7 0.246613 0.890723 0.623580
O O8 0.322716 0.000000 0.601552
O O9 0.424450 0.087831 0.631506
O O10 0.500000 0.000000 0.579771
O O11 0.416153 0.000000 0.500000
O O12 0.664519 0.335669 0.317406
O O13 0.591027 0.230440 0.285996
O O14 0.686857 0.500000 0.301024
O O15 0.441928 0.087110 0.219376
O O16 0.500000 0.000000 0.125405
O O17 0.393326 0.000000 0.115336
O O18 0.334778 0.000000 0.000000
O O19 0.000000 0.681209 0.689264
#
# Coordination Sequence:
#
# PCOD8265685 Si02
#       8
#    16  16   8  16  16   8   8  16
#     4   9  18  32  47  65  91 119 148 182 213 259
#     4   9  18  28  40  63  92 116 141 178 219 262
#     4   8  15  26  38  57  86 115 141 174 216 256
#     4  10  18  27  46  64  82 118 151 178 215 262
#     4   9  17  30  47  61  82 117 150 183 218 256
#     4   9  18  32  46  64  93 123 151 180 209 262
#     4  12  21  30  51  72  93 124 147 183 227 261
#     4   9  17  28  44  61  84 118 148 179 216 259
#
# _framework density 14.883474
#
# number of rings (size 3 to 8) (size 9 to 14) (size 15 to 20)
#    0.000    2.692    2.308    2.308    3.231    2.308 
#    0.000    0.000    0.000    0.462    0.000    0.000 
#    0.000    0.000    0.000    9.077    0.000   21.000 
#
# Total GULP energy -644182.720372 kJ/mol
# GULP energy per Si atom -12388.129238 kJ/mol
# Density = 1.484960 g / cm^3
# Si number density = 14.883474 Si / 1000 Ang^3
#
#
#
# Elastic Constant Matrix: (Units=GPa)
#
#
# Indices 1 2 3 4 5 6 
#
# 1 99.9656 66.5488 28.2050 0.0000 0.0000 0.0000
# 2 66.5488 90.3363 25.5883 0.0000 0.0000 0.0000
# 3 28.2050 25.5883 72.3718 0.0000 0.0000 0.0000
# 4 0.0000 0.0000 0.0000 13.4994 0.0000 0.0000
# 5 0.0000 0.0000 0.0000 0.0000 9.9655 0.0000
# 6 0.0000 0.0000 0.0000 0.0000 0.0000 26.9235
#
#
#
# Elastic Compliance Matrix: (Units=1/GPa)
#
#
# Indices 1 2 3 4 5 6 
#
# 1 0.020163 -0.014033 -0.002896 0.000000 0.000000 0.000000
# 2 -0.014033 0.022069 -0.002334 0.000000 0.000000 0.000000
# 3 -0.002896 -0.002334 0.015771 0.000000 0.000000 0.000000
# 4 0.000000 0.000000 0.000000 0.074077 0.000000 0.000000
# 5 0.000000 0.000000 0.000000 0.000000 0.100346 0.000000
# 6 0.000000 0.000000 0.000000 0.000000 0.000000 0.037142
#
#
# Mechanical properties :
#
#
# Convention : Reuss Voigt Hill
#
# Bulk Modulus (GPa) = 51.34351 55.92866 53.63609
# Shear Modulus (GPa) = 15.89389 19.56646 17.73018
#
# Velocity S-wave (km/s) = 3.27140 3.62973 3.45522
# Velocity P-wave (km/s) = 6.98866 7.43141 7.21343
#
# Compressibility (1/GPa) = 0.01947666
#
# Stress axis : x y z
#
# Youngs Moduli (GPa) = 49.59681 45.31331 63.40586
#
# Poissons Ratio (x) = 0.63588 0.18364
# Poissons Ratio (y) = 0.69599 0.14797
# Poissons Ratio (z) = 0.14364 0.10575
#
# Static dielectric constant tensor:
#      x y z
#    x 2.965280 0.000000 0.000000 
#    y 0.000000 2.728630 0.000000 
#    z 0.000000 0.000000 2.719410 
# 
# 
# High freq. dielectric constant tensor:
#      x y z
#    x 1.565370 0.000000 0.000000 
#    y 0.000000 1.553240 0.000000 
#    z 0.000000 0.000000 1.546880 
# 
# From -- ./inp_files/57683.got.cif
#   From: 2010.03.12/outbox.cif.g09.slc.cpg/sg65_29_cif.got.tgz:57683.got - 2010.04.10 20:52:16.
