data_PCOD8265465
_publ_section_title
;
Structure prediction by ZEFSAII (Michael W. Deem and Ramdas Pophale) SiO2 
 PCOD8265465
Probable space group: C M M M
;
_chemical_formula_sum "Si O2"
_cell_formula_units_Z 96
_cell_length_a 17.408268
_cell_length_b 27.882904
_cell_length_c 12.098397
_cell_angle_alpha 90.000000
_cell_angle_beta 90.000000
_cell_angle_gamma 90.000000
_cell_volume 5872.478007
_symmetry_space_group_name_H-M "C M M M"
_symmetry_group_IT_number 65
_symmetry_cell_setting 'orthorhombic'
loop_
_space_group_symop_operation_xyz
x,y,z
-x,-y,z
x,-y,-z
-x,y,-z
-x,-y,-z
x,y,-z
-x,y,z
x,-y,z
1/2+x,1/2+y,z
1/2-x,1/2-y,z
1/2+x,1/2-y,-z
1/2-x,1/2+y,-z
1/2-x,1/2-y,-z
1/2+x,1/2+y,-z
1/2-x,1/2+y,z
1/2+x,1/2-y,z
loop_
_atom_site_type_symbol
_atom_site_label
_atom_site_fract_x
_atom_site_fract_y
_atom_site_fract_z
Si Si1 0.720626 0.853500 0.500000
Si Si2 0.695034 0.447388 0.500000
Si Si3 0.089107 0.280669 0.500000
Si Si4 0.088713 0.225825 0.723832
Si Si5 0.648424 0.554566 0.738240
Si Si6 0.319242 0.787343 0.123397
Si Si7 0.500000 0.443822 0.875813
Si Si8 0.781863 0.848755 0.264508
O O1 0.731079 0.911640 0.500000
O O2 0.634697 0.831544 0.500000
O O3 0.762958 0.835194 0.390684
O O4 0.733331 0.500000 0.500000
O O5 0.638002 0.441535 0.394763
O O6 0.110728 0.248182 0.605304
O O7 0.000000 0.295186 0.500000
O O8 0.106224 0.266209 0.815688
O O9 0.137879 0.178787 0.755160
O O10 0.000000 0.210827 0.729245
O O11 0.673338 0.500000 0.771645
O O12 0.573253 0.571343 0.803971
O O13 0.712065 0.594710 0.765469
O O14 0.250000 0.750000 0.124785
O O15 0.288532 0.833826 0.186924
O O16 0.343600 0.801703 0.000000
O O17 0.500000 0.500000 0.891622
O O18 0.500000 0.420349 0.000000
#
# Coordination Sequence:
#
# PCOD8265465 Si02
#       8
#     8   8   8  16  16  16   8  16
#     4  10  17  30  51  72  92 128 155 185 239 286
#     4   8  16  30  47  72  95 118 154 195 236 282
#     4  10  19  31  48  73  98 121 153 192 235 282
#     4  10  20  31  46  69  97 124 155 195 234 277
#     4   9  18  31  47  68  94 123 158 197 239 280
#     4   9  18  32  47  65  90 122 159 195 233 278
#     4   9  18  31  45  61  87 126 163 197 237 273
#     4  10  19  30  50  70  93 126 159 195 233 280
#
# _framework density 16.347442000000001
#
# number of rings (size 3 to 8) (size 9 to 14) (size 15 to 20)
#    0.000    2.583    1.667    0.500    1.167    2.000 
#    0.000    1.667    0.000    0.250    0.000    0.000 
#    0.000    0.667    0.000    1.500    0.000    0.000 
#
# Total GULP energy -594659.876360 kJ/mol
# GULP energy per Si atom -12388.747424 kJ/mol
# Density = 1.631023 g / cm^3
# Si number density = 16.347442 Si / 1000 Ang^3
#
#
#
# Elastic Constant Matrix: (Units=GPa)
#
#
# Indices 1 2 3 4 5 6 
#
# 1 46.7728 33.8313 14.4962 0.0000 0.0000 0.0000
# 2 33.8313 83.2944 38.1213 0.0000 0.0000 0.0000
# 3 14.4962 38.1213 94.3545 0.0000 0.0000 0.0000
# 4 0.0000 0.0000 0.0000 10.6645 0.0000 0.0000
# 5 0.0000 0.0000 0.0000 0.0000 17.4659 0.0000
# 6 0.0000 0.0000 0.0000 0.0000 0.0000 21.8135
#
#
#
# Elastic Compliance Matrix: (Units=1/GPa)
#
#
# Indices 1 2 3 4 5 6 
#
# 1 0.030286 -0.012479 0.000389 0.000000 0.000000 0.000000
# 2 -0.012479 0.019871 -0.006111 0.000000 0.000000 0.000000
# 3 0.000389 -0.006111 0.013008 0.000000 0.000000 0.000000
# 4 0.000000 0.000000 0.000000 0.093769 0.000000 0.000000
# 5 0.000000 0.000000 0.000000 0.000000 0.057255 0.000000
# 6 0.000000 0.000000 0.000000 0.000000 0.000000 0.045843
#
#
# Mechanical properties :
#
#
# Convention : Reuss Voigt Hill
#
# Bulk Modulus (GPa) = 37.36675 44.14660 40.75668
# Shear Modulus (GPa) = 16.37441 19.18694 17.78068
#
# Velocity S-wave (km/s) = 3.16832 3.42964 3.30157
# Velocity P-wave (km/s) = 6.02427 6.53813 6.28645
#
# Compressibility (1/GPa) = 0.02676176
#
# Stress axis : x y z
#
# Youngs Moduli (GPa) = 33.01900 50.32466 76.87808
#
# Poissons Ratio (x) = 0.62800 -0.02989
# Poissons Ratio (y) = 0.41204 0.46981
# Poissons Ratio (z) = -0.01284 0.30754
#
# Static dielectric constant tensor:
#      x y z
#    x 2.827940 0.000000 0.000000 
#    y 0.000000 3.079080 0.000000 
#    z 0.000000 0.000000 3.370120 
# 
# 
# High freq. dielectric constant tensor:
#      x y z
#    x 1.592310 0.000000 0.000000 
#    y 0.000000 1.619860 0.000000 
#    z 0.000000 0.000000 1.640940 
# 
# From -- ./inp_files/25523.got.cif
#   From: 2010.03.12/outbox.cif.g09.slc.cpg/sg65_13_cif.got.tgz:25523.got - 2010.04.10 20:52:16.
