data_PCOD8265503
_publ_section_title
;
Structure prediction by ZEFSAII (Michael W. Deem and Ramdas Pophale) SiO2 
 PCOD8265503
Probable space group: C M M M
;
_chemical_formula_sum "Si O2"
_cell_formula_units_Z 120
_cell_length_a 14.422977
_cell_length_b 22.332279
_cell_length_c 20.895406
_cell_angle_alpha 90.000000
_cell_angle_beta 90.000000
_cell_angle_gamma 90.000000
_cell_volume 6730.367361
_symmetry_space_group_name_H-M "C M M M"
_symmetry_group_IT_number 65
_symmetry_cell_setting 'orthorhombic'
loop_
_space_group_symop_operation_xyz
x,y,z
-x,-y,z
x,-y,-z
-x,y,-z
-x,-y,-z
x,y,-z
-x,y,z
x,-y,z
1/2+x,1/2+y,z
1/2-x,1/2-y,z
1/2+x,1/2-y,-z
1/2-x,1/2+y,-z
1/2-x,1/2-y,-z
1/2+x,1/2+y,-z
1/2-x,1/2+y,z
1/2+x,1/2-y,z
loop_
_atom_site_type_symbol
_atom_site_label
_atom_site_fract_x
_atom_site_fract_y
_atom_site_fract_z
Si Si1 0.103374 0.428970 0.429410
Si Si2 0.750000 0.750000 0.100427
Si Si3 0.604035 0.749465 0.201646
Si Si4 0.281264 0.120391 0.930388
Si Si5 0.103527 0.867344 0.267241
Si Si6 0.224143 0.569114 0.313296
Si Si7 0.608926 0.114289 0.197877
Si Si8 0.104658 0.930312 0.132004
O O1 0.140359 0.409989 0.500000
O O2 0.099470 0.500000 0.424054
O O3 0.168329 0.403437 0.373465
O O4 0.000000 0.403013 0.419128
O O5 0.666654 0.725955 0.144322
O O6 0.720423 0.807599 0.060001
O O7 0.500000 0.746150 0.175310
O O8 0.617264 0.704764 0.261851
O O9 0.629066 0.817561 0.220202
O O10 0.351900 0.102022 0.873614
O O11 0.178745 0.094211 0.918672
O O12 0.315053 0.095578 0.000000
O O13 0.180079 0.894206 0.314116
O O14 0.119226 0.895886 0.198021
O O15 0.000000 0.882078 0.293010
O O16 0.248950 0.500000 0.323681
O O17 0.163828 0.573894 0.248449
O O18 0.500000 0.098276 0.198712
O O19 0.000000 0.919988 0.105649
O O20 0.123249 0.000000 0.145167
#
# Coordination Sequence:
#
# PCOD8265503 Si02
#       8
#    16   8  16  16  16  16  16  16
#     4   8  15  29  49  74 105 138 169 203 244 287
#     4  10  17  32  50  68  90 118 159 208 255 306
#     4   9  17  31  51  71  94 124 160 207 255 295
#     4  11  22  34  49  69  95 127 163 205 255 304
#     4  10  18  31  52  75  99 128 164 206 250 292
#     4  11  20  31  51  79 106 133 164 200 244 292
#     4  10  21  35  51  72  97 127 167 209 248 296
#     4  10  20  35  53  71  94 124 160 205 253 301
#
# _framework density 17.829636000000001
#
# number of rings (size 3 to 8) (size 9 to 14) (size 15 to 20)
#    0.000    2.133    2.667    2.200    0.000    2.400 
#    0.000    0.667    0.000    2.800    0.000    5.600 
#    0.000    3.200    0.000    0.000    0.000    0.000 
#
# Total GULP energy -743691.231488 kJ/mol
# GULP energy per Si atom -12394.853858 kJ/mol
# Density = 1.778905 g / cm^3
# Si number density = 17.829636 Si / 1000 Ang^3
#
#
#
# Elastic Constant Matrix: (Units=GPa)
#
#
# Indices 1 2 3 4 5 6 
#
# 1 113.9772 22.0544 52.3893 0.0000 0.0000 0.0000
# 2 22.0544 49.0056 14.0540 0.0000 0.0000 0.0000
# 3 52.3893 14.0540 100.3665 0.0000 0.0000 0.0000
# 4 0.0000 0.0000 0.0000 12.3920 0.0000 0.0000
# 5 0.0000 0.0000 0.0000 0.0000 24.0320 0.0000
# 6 0.0000 0.0000 0.0000 0.0000 0.0000 27.3238
#
#
#
# Elastic Compliance Matrix: (Units=1/GPa)
#
#
# Indices 1 2 3 4 5 6 
#
# 1 0.012191 -0.003815 -0.005829 0.000000 0.000000 0.000000
# 2 -0.003815 0.022453 -0.001153 0.000000 0.000000 0.000000
# 3 -0.005829 -0.001153 0.013168 0.000000 0.000000 0.000000
# 4 0.000000 0.000000 0.000000 0.080697 0.000000 0.000000
# 5 0.000000 0.000000 0.000000 0.000000 0.041611 0.000000
# 6 0.000000 0.000000 0.000000 0.000000 0.000000 0.036598
#
#
# Mechanical properties :
#
#
# Convention : Reuss Voigt Hill
#
# Bulk Modulus (GPa) = 38.14141 48.92718 43.53429
# Shear Modulus (GPa) = 21.09236 24.40631 22.74934
#
# Velocity S-wave (km/s) = 3.44320 3.70383 3.57589
# Velocity P-wave (km/s) = 6.10296 6.76699 6.44353
#
# Compressibility (1/GPa) = 0.02621822
#
# Stress axis : x y z
#
# Youngs Moduli (GPa) = 82.02552 44.53706 75.94298
#
# Poissons Ratio (x) = 0.16990 0.44271
# Poissons Ratio (y) = 0.31291 0.08755
# Poissons Ratio (z) = 0.47816 0.05134
#
# Static dielectric constant tensor:
#      x y z
#    x 3.464040 0.000000 0.000000 
#    y 0.000000 3.285110 0.000000 
#    z 0.000000 0.000000 3.087570 
# 
# 
# High freq. dielectric constant tensor:
#      x y z
#    x 1.699460 0.000000 0.000000 
#    y 0.000000 1.680610 0.000000 
#    z 0.000000 0.000000 1.648600 
# 
# From -- ./inp_files/63021.got.cif
#   From: 2010.03.12/outbox.cif.g09.slc.cpg/sg65_32_cif.got.tgz:63021.got - 2010.04.10 20:52:16.
