data_PCOD8265745
_publ_section_title
;
Structure prediction by ZEFSAII (Michael W. Deem and Ramdas Pophale) SiO2 
 PCOD8265745
Probable space group: C M M M
;
_chemical_formula_sum "Si O2"
_cell_formula_units_Z 104
_cell_length_a 17.245755
_cell_length_b 32.512743
_cell_length_c 10.103120
_cell_angle_alpha 90.000000
_cell_angle_beta 90.000000
_cell_angle_gamma 90.000000
_cell_volume 5664.888087
_symmetry_space_group_name_H-M "C M M M"
_symmetry_group_IT_number 65
_symmetry_cell_setting 'orthorhombic'
loop_
_space_group_symop_operation_xyz
x,y,z
-x,-y,z
x,-y,-z
-x,y,-z
-x,-y,-z
x,y,-z
-x,y,z
x,-y,z
1/2+x,1/2+y,z
1/2-x,1/2-y,z
1/2+x,1/2-y,-z
1/2-x,1/2+y,-z
1/2-x,1/2-y,-z
1/2+x,1/2+y,-z
1/2-x,1/2+y,z
1/2+x,1/2-y,z
loop_
_atom_site_type_symbol
_atom_site_label
_atom_site_fract_x
_atom_site_fract_y
_atom_site_fract_z
Si Si1 0.315832 0.345780 0.842127
Si Si2 0.500000 0.954531 0.195514
Si Si3 0.086711 0.766435 0.843537
Si Si4 0.181596 0.080208 0.341434
Si Si5 0.000000 0.365523 0.142056
Si Si6 0.353266 0.179988 0.157353
Si Si7 0.086995 0.000000 0.656282
Si Si8 0.342728 0.046561 0.353654
O O1 0.367507 0.306934 0.801732
O O2 0.348302 0.382732 0.751137
O O3 0.229052 0.336089 0.791840
O O4 0.321021 0.355859 0.000000
O O5 0.500000 0.914193 0.105628
O O6 0.577643 0.949439 0.277490
O O7 0.500000 0.000000 0.124764
O O8 0.130933 0.726034 0.788992
O O9 0.000000 0.768110 0.783667
O O10 0.082464 0.763321 0.000000
O O11 0.173756 0.088920 0.500000
O O12 0.131553 0.040869 0.297063
O O13 0.271407 0.073267 0.298470
O O14 0.921390 0.350198 0.214446
O O15 0.000000 0.342493 0.000000
O O16 0.349827 0.179255 0.000000
O O17 0.083061 0.000000 0.500000
O O18 0.000000 0.000000 0.716460
O O19 0.362817 0.061562 0.500000
O O20 0.312015 0.000000 0.353170
#
# Coordination Sequence:
#
# PCOD8265745 Si02
#       8
#    16   8  16  16   8  16   8  16
#     4  10  20  31  49  78 106 126 156 205 257 301
#     4  10  19  27  40  67  99 126 157 201 251 291
#     4   9  16  29  49  72  97 127 163 206 250 291
#     4  10  19  34  54  74  98 131 168 205 246 292
#     4  10  18  28  43  62  92 133 171 202 234 283
#     4   9  16  29  48  69  95 129 170 209 241 284
#     4   9  18  34  57  78  96 128 177 217 239 281
#     4   9  16  29  48  67  89 121 163 207 241 277
#
# _framework density 18.358702999999998
#
# number of rings (size 3 to 8) (size 9 to 14) (size 15 to 20)
#    0.000    2.538    1.538    1.615    0.000    3.538 
#    0.000    0.385    0.000    3.231    0.000    0.000 
#    0.000    0.000    0.000    0.000    0.000    0.000 
#
# Total GULP energy -644193.175509 kJ/mol
# GULP energy per Si atom -12388.330298 kJ/mol
# Density = 1.831692 g / cm^3
# Si number density = 18.358703 Si / 1000 Ang^3
#
#
#
# Elastic Constant Matrix: (Units=GPa)
#
#
# Indices 1 2 3 4 5 6 
#
# 1 101.6810 52.8294 20.9464 0.0000 0.0000 0.0000
# 2 52.8294 151.6816 31.9528 0.0000 0.0000 0.0000
# 3 20.9464 31.9528 34.3289 0.0000 0.0000 0.0000
# 4 0.0000 0.0000 0.0000 -21.4865 0.0000 0.0000
# 5 0.0000 0.0000 0.0000 0.0000 10.4805 0.0000
# 6 0.0000 0.0000 0.0000 0.0000 0.0000 5.2928
#
#
#
# Elastic Compliance Matrix: (Units=1/GPa)
#
#
# Indices 1 2 3 4 5 6 
#
# 1 0.012533 -0.003426 -0.004458 0.000000 0.000000 0.000000
# 2 -0.003426 0.009137 -0.006414 0.000000 0.000000 0.000000
# 3 -0.004458 -0.006414 0.037821 0.000000 0.000000 0.000000
# 4 0.000000 0.000000 0.000000 -0.046541 0.000000 0.000000
# 5 0.000000 0.000000 0.000000 0.000000 0.095415 0.000000
# 6 0.000000 0.000000 0.000000 0.000000 0.000000 0.188935
#
#
# Mechanical properties :
#
#
# Convention : Reuss Voigt Hill
#
# Bulk Modulus (GPa) = 32.36925 55.46095 43.91510
# Shear Modulus (GPa) = 14.87230 10.98823 12.93027
#
# Velocity S-wave (km/s) = 2.84931 2.44914 2.65677
# Velocity P-wave (km/s) = 5.33803 6.18651 5.77787
#
# Compressibility (1/GPa) = 0.03089352
#
# Stress axis : x y z
#
# Youngs Moduli (GPa) = 79.78854 109.44246 26.44050
#
# Poissons Ratio (x) = 0.37495 0.11788
# Poissons Ratio (y) = 0.27335 0.16960
# Poissons Ratio (z) = 0.35573 0.70200
#
# Static dielectric constant tensor:
#      x y z
#    x 3.653790 0.000000 0.000000 
#    y 0.000000 3.550860 0.000000 
#    z 0.000000 0.000000 2.797080 
# 
# 
# High freq. dielectric constant tensor:
#      x y z
#    x 1.725570 0.000000 0.000000 
#    y 0.000000 1.722790 0.000000 
#    z 0.000000 0.000000 1.646010 
# 
# From -- ./inp_files/27558.got.cif
#   From: 2010.03.12/outbox.cif.g09.slc.cpg/sg65_14_cif.got.tgz:27558.got - 2010.04.10 20:52:16.
