data_PCOD8265058
_publ_section_title
;
Structure prediction by ZEFSAII (Michael W. Deem and Ramdas Pophale) SiO2 
 PCOD8265058
Probable space group: C M M M
;
_chemical_formula_sum "Si O2"
_cell_formula_units_Z 88
_cell_length_a 28.076525
_cell_length_b 19.499150
_cell_length_c 9.413355
_cell_angle_alpha 90.000000
_cell_angle_beta 90.000000
_cell_angle_gamma 90.000000
_cell_volume 5153.514141
_symmetry_space_group_name_H-M "C M M M"
_symmetry_group_IT_number 65
_symmetry_cell_setting 'orthorhombic'
loop_
_space_group_symop_operation_xyz
x,y,z
-x,-y,z
x,-y,-z
-x,y,-z
-x,-y,-z
x,y,-z
-x,y,z
x,-y,z
1/2+x,1/2+y,z
1/2-x,1/2-y,z
1/2+x,1/2-y,-z
1/2-x,1/2+y,-z
1/2-x,1/2-y,-z
1/2+x,1/2+y,-z
1/2-x,1/2+y,z
1/2+x,1/2-y,z
loop_
_atom_site_type_symbol
_atom_site_label
_atom_site_fract_x
_atom_site_fract_y
_atom_site_fract_z
Si Si1 0.447062 0.861657 0.331673
Si Si2 0.226975 0.349474 0.345365
Si Si3 0.694969 0.500000 0.156665
Si Si4 0.135064 0.263027 0.333867
Si Si5 0.791425 0.500000 0.278772
Si Si6 0.182663 0.850941 0.829690
Si Si7 0.396389 0.000000 0.329858
O O1 0.449205 0.863488 0.500000
O O2 0.500000 0.851416 0.267476
O O3 0.413833 0.798681 0.282670
O O4 0.426072 0.934069 0.280210
O O5 0.243334 0.321678 0.500000
O O6 0.177135 0.316235 0.299411
O O7 0.219686 0.430862 0.365006
O O8 0.266181 0.326270 0.230435
O O9 0.753213 0.500000 0.149242
O O10 0.675197 0.570404 0.226240
O O11 0.674707 0.500000 0.000000
O O12 0.133422 0.243495 0.500000
O O13 0.141131 0.194696 0.239314
O O14 0.847237 0.500000 0.239415
O O15 0.182849 0.844966 0.000000
O O16 0.385248 0.000000 0.500000
#
# Coordination Sequence:
#
# PCOD8265058 Si02
#       7
#    16  16   8  16   8  16   8
#     4   9  17  28  44  67  95 126 159 198 238 271
#     4  10  18  28  43  65  95 126 157 192 227 264
#     4   8  18  34  47  63  89 117 153 195 230 274
#     4  10  19  30  45  67  95 123 153 190 233 276
#     4  10  16  25  44  66  92 129 164 192 224 261
#     4  10  20  33  48  66  89 119 153 189 231 280
#     4  10  15  24  42  66  94 124 164 200 227 260
#
# _framework density 17.075727000000001
#
# number of rings (size 3 to 8) (size 9 to 14) (size 15 to 20)
#    0.000    2.364    1.818    2.182    0.000    4.000 
#    0.000    1.364    0.000    0.545    0.000    0.636 
#    0.000    7.273    0.000    0.000    0.000    0.000 
#
# Total GULP energy -545155.523560 kJ/mol
# GULP energy per Si atom -12389.898263 kJ/mol
# Density = 1.703686 g / cm^3
# Si number density = 17.075727 Si / 1000 Ang^3
#
#
#
# Elastic Constant Matrix: (Units=GPa)
#
#
# Indices 1 2 3 4 5 6 
#
# 1 108.0878 71.1121 26.1747 0.0000 0.0000 0.0000
# 2 71.1121 125.4297 35.2811 0.0000 0.0000 0.0000
# 3 26.1747 35.2811 46.9804 0.0000 0.0000 0.0000
# 4 0.0000 0.0000 0.0000 17.8153 0.0000 0.0000
# 5 0.0000 0.0000 0.0000 0.0000 4.9497 0.0000
# 6 0.0000 0.0000 0.0000 0.0000 0.0000 27.0835
#
#
#
# Elastic Compliance Matrix: (Units=1/GPa)
#
#
# Indices 1 2 3 4 5 6 
#
# 1 0.014983 -0.007793 -0.002496 0.000000 0.000000 0.000000
# 2 -0.007793 0.014161 -0.006293 0.000000 0.000000 0.000000
# 3 -0.002496 -0.006293 0.027402 0.000000 0.000000 0.000000
# 4 0.000000 0.000000 0.000000 0.056131 0.000000 0.000000
# 5 0.000000 0.000000 0.000000 0.000000 0.202034 0.000000
# 6 0.000000 0.000000 0.000000 0.000000 0.000000 0.036923
#
#
# Mechanical properties :
#
#
# Convention : Reuss Voigt Hill
#
# Bulk Modulus (GPa) = 42.76543 60.62594 51.69569
# Shear Modulus (GPa) = 12.73597 19.83170 16.28383
#
# Velocity S-wave (km/s) = 2.73399 3.41163 3.09143
# Velocity P-wave (km/s) = 5.92159 7.14844 6.56374
#
# Compressibility (1/GPa) = 0.02338337
#
# Stress axis : x y z
#
# Youngs Moduli (GPa) = 66.74292 70.61863 36.49432
#
# Poissons Ratio (x) = 0.55030 0.09107
# Poissons Ratio (y) = 0.52010 0.22965
# Poissons Ratio (z) = 0.16656 0.44438
#
# Static dielectric constant tensor:
#      x y z
#    x 3.198460 0.000000 0.000000 
#    y 0.000000 3.462660 0.000000 
#    z 0.000000 0.000000 2.831330 
# 
# 
# High freq. dielectric constant tensor:
#      x y z
#    x 1.629110 0.000000 0.000000 
#    y 0.000000 1.672110 0.000000 
#    z 0.000000 0.000000 1.619600 
# 
# From -- ./inp_files/14069.got.cif
#   From: 2010.03.12/outbox.cif.g09.slc.cpg/sg65_8_cif.got.tgz:14069.got - 2010.04.10 20:52:16.
