data_PCOD8265808
_publ_section_title
;
Structure prediction by ZEFSAII (Michael W. Deem and Ramdas Pophale) SiO2 
 PCOD8265808
Probable space group: C M M M
;
_chemical_formula_sum "Si O2"
_cell_formula_units_Z 120
_cell_length_a 21.783756
_cell_length_b 23.389831
_cell_length_c 13.996702
_cell_angle_alpha 90.000000
_cell_angle_beta 90.000000
_cell_angle_gamma 90.000000
_cell_volume 7131.576808
_symmetry_space_group_name_H-M "C M M M"
_symmetry_group_IT_number 65
_symmetry_cell_setting 'orthorhombic'
loop_
_space_group_symop_operation_xyz
x,y,z
-x,-y,z
x,-y,-z
-x,y,-z
-x,-y,-z
x,y,-z
-x,y,z
x,-y,z
1/2+x,1/2+y,z
1/2-x,1/2-y,z
1/2+x,1/2-y,-z
1/2-x,1/2+y,-z
1/2-x,1/2-y,-z
1/2+x,1/2+y,-z
1/2-x,1/2+y,z
1/2+x,1/2-y,z
loop_
_atom_site_type_symbol
_atom_site_label
_atom_site_fract_x
_atom_site_fract_y
_atom_site_fract_z
Si Si1 0.429107 0.145192 0.389236
Si Si2 0.750227 0.932869 0.216398
Si Si3 0.131408 0.932667 0.891150
Si Si4 0.678867 0.433399 0.395167
Si Si5 0.614557 0.932377 0.769952
Si Si6 0.000000 0.432047 0.893388
Si Si7 0.072483 0.228309 0.605815
Si Si8 0.428453 0.383307 0.712489
O O1 0.419104 0.131944 0.500000
O O2 0.500000 0.139239 0.360473
O O3 0.391340 0.097863 0.331941
O O4 0.403565 0.208728 0.363893
O O5 0.797796 0.916325 0.132476
O O6 0.773636 0.906119 0.317786
O O7 0.681279 0.913873 0.188469
O O8 0.750917 0.000000 0.231009
O O9 0.086292 0.896184 0.823451
O O10 0.119724 0.000000 0.873913
O O11 0.117473 0.915461 0.000000
O O12 0.687555 0.404637 0.500000
O O13 0.690568 0.500000 0.405315
O O14 0.609608 0.425086 0.356393
O O15 0.561621 0.910041 0.841201
O O16 0.609180 0.000000 0.753896
O O17 0.000000 0.500000 0.896573
O O18 0.000000 0.406447 0.000000
O O19 0.098179 0.211590 0.500000
O O20 0.091481 0.181662 0.685199
O O21 0.000000 0.233078 0.597445
O O22 0.500000 0.393670 0.692566
#
# Coordination Sequence:
#
# PCOD8265808 Si02
#       8
#    16  16  16  16  16   8  16  16
#     4   9  17  29  45  67  96 127 153 182 224 278
#     4   8  16  29  44  63  88 121 159 187 216 267
#     4   9  18  32  48  67  92 121 154 192 233 278
#     4   9  17  28  41  60  89 121 150 184 224 266
#     4  10  18  29  47  71  96 122 151 188 233 280
#     4   9  18  30  43  65  95 119 142 180 230 277
#     4   8  15  28  45  65  89 121 158 188 218 264
#     4  10  18  28  45  68  90 117 152 189 231 274
#
# _framework density 16.826574000000001
#
# number of rings (size 3 to 8) (size 9 to 14) (size 15 to 20)
#    0.000    3.000    0.667    2.400    0.000    3.467 
#    0.000    6.000    0.000    4.000    0.000    9.333 
#    0.000    0.000    0.000    0.000    0.000    0.000 
#
# Total GULP energy -743478.184002 kJ/mol
# GULP energy per Si atom -12391.303067 kJ/mol
# Density = 1.678828 g / cm^3
# Si number density = 16.826574 Si / 1000 Ang^3
#
#
#
# Elastic Constant Matrix: (Units=GPa)
#
#
# Indices 1 2 3 4 5 6 
#
# 1 83.3978 12.7041 28.7793 0.0000 0.0000 0.0000
# 2 12.7041 44.9299 31.0184 0.0000 0.0000 0.0000
# 3 28.7793 31.0184 104.1893 0.0000 0.0000 0.0000
# 4 0.0000 0.0000 0.0000 19.8396 0.0000 0.0000
# 5 0.0000 0.0000 0.0000 0.0000 16.6154 0.0000
# 6 0.0000 0.0000 0.0000 0.0000 0.0000 8.7699
#
#
#
# Elastic Compliance Matrix: (Units=1/GPa)
#
#
# Indices 1 2 3 4 5 6 
#
# 1 0.013339 -0.001546 -0.003224 0.000000 0.000000 0.000000
# 2 -0.001546 0.028194 -0.007967 0.000000 0.000000 0.000000
# 3 -0.003224 -0.007967 0.012860 0.000000 0.000000 0.000000
# 4 0.000000 0.000000 0.000000 0.050404 0.000000 0.000000
# 5 0.000000 0.000000 0.000000 0.000000 0.060185 0.000000
# 6 0.000000 0.000000 0.000000 0.000000 0.000000 0.114027
#
#
# Mechanical properties :
#
#
# Convention : Reuss Voigt Hill
#
# Bulk Modulus (GPa) = 34.57844 41.94675 38.26260
# Shear Modulus (GPa) = 15.91733 19.71263 17.81498
#
# Velocity S-wave (km/s) = 3.07899 3.42646 3.25736
# Velocity P-wave (km/s) = 5.76496 6.37473 6.07749
#
# Compressibility (1/GPa) = 0.02891975
#
# Stress axis : x y z
#
# Youngs Moduli (GPa) = 74.96900 35.46855 77.75841
#
# Poissons Ratio (x) = 0.05482 0.25072
# Poissons Ratio (y) = 0.11587 0.61948
# Poissons Ratio (z) = 0.24172 0.28257
#
# Static dielectric constant tensor:
#      x y z
#    x 3.260290 0.000000 0.000000 
#    y 0.000000 2.970250 0.000000 
#    z 0.000000 0.000000 3.233060 
# 
# 
# High freq. dielectric constant tensor:
#      x y z
#    x 1.638030 0.000000 0.000000 
#    y 0.000000 1.609890 0.000000 
#    z 0.000000 0.000000 1.644920 
# 
# From -- ./inp_files/44794.got.cif
#   From: 2010.03.12/outbox.cif.g09.slc.cpg/sg65_23_cif.got.tgz:44794.got - 2010.04.10 20:52:16.
