data_PCOD8265655
_publ_section_title
;
Structure prediction by ZEFSAII (Michael W. Deem and Ramdas Pophale) SiO2 
 PCOD8265655
Probable space group: C M M M
;
_chemical_formula_sum "Si O2"
_cell_formula_units_Z 96
_cell_length_a 27.031786
_cell_length_b 9.028012
_cell_length_c 24.227594
_cell_angle_alpha 90.000000
_cell_angle_beta 90.000000
_cell_angle_gamma 90.000000
_cell_volume 5912.581710
_symmetry_space_group_name_H-M "C M M M"
_symmetry_group_IT_number 65
_symmetry_cell_setting 'orthorhombic'
loop_
_space_group_symop_operation_xyz
x,y,z
-x,-y,z
x,-y,-z
-x,y,-z
-x,-y,-z
x,y,-z
-x,y,z
x,-y,z
1/2+x,1/2+y,z
1/2-x,1/2-y,z
1/2+x,1/2-y,-z
1/2-x,1/2+y,-z
1/2-x,1/2-y,-z
1/2+x,1/2+y,-z
1/2-x,1/2+y,z
1/2+x,1/2-y,z
loop_
_atom_site_type_symbol
_atom_site_label
_atom_site_fract_x
_atom_site_fract_y
_atom_site_fract_z
Si Si1 0.599841 0.672942 0.937811
Si Si2 0.700176 0.329029 0.882326
Si Si3 0.697055 0.826374 0.559964
Si Si4 0.696610 0.675657 0.334020
Si Si5 0.141817 0.173845 0.776667
Si Si6 0.443440 0.171149 0.835416
O O1 0.589500 0.500000 0.928640
O O2 0.657480 0.707682 0.926458
O O3 0.565072 0.760711 0.895939
O O4 0.587006 0.722328 0.000000
O O5 0.713035 0.500000 0.880547
O O6 0.750000 0.250000 0.900956
O O7 0.682135 0.274617 0.821933
O O8 0.670324 0.803936 0.500000
O O9 0.750000 0.750000 0.556582
O O10 0.669826 0.743989 0.611023
O O11 0.702877 0.000000 0.573095
O O12 0.703057 0.500000 0.339665
O O13 0.750000 0.750000 0.324948
O O14 0.661387 0.718624 0.283366
O O15 0.089890 0.253743 0.788190
O O16 0.132150 0.000000 0.782370
O O17 0.500000 0.196342 0.818023
O O18 0.429407 0.000000 0.838596
#
# Coordination Sequence:
#
# PCOD8265655 Si02
#       6
#    16  16  16  16  16  16
#     4   9  19  35  51  67  89 117 148 178 210 258
#     4   9  17  29  44  63  88 116 146 178 211 250
#     4   9  16  25  37  55  83 121 161 194 223 256
#     4  10  18  27  42  65  92 122 156 190 223 258
#     4   9  19  33  47  65  89 117 149 182 216 263
#     4  10  21  35  51  71  91 110 136 177 227 270
#
# _framework density 16.236561999999999
#
# number of rings (size 3 to 8) (size 9 to 14) (size 15 to 20)
#    0.000    2.667    0.000    4.000    0.000    7.333 
#    0.000    1.667    0.000    0.000    0.000    0.000 
#    0.000    0.667    0.000    7.333    0.000    5.333 
#
# Total GULP energy -594953.301518 kJ/mol
# GULP energy per Si atom -12394.860448 kJ/mol
# Density = 1.619961 g / cm^3
# Si number density = 16.236562 Si / 1000 Ang^3
#
#
#
# Elastic Constant Matrix: (Units=GPa)
#
#
# Indices 1 2 3 4 5 6 
#
# 1 62.9515 36.0520 33.9274 0.0000 0.0000 0.0000
# 2 36.0520 75.4185 48.5006 0.0000 0.0000 0.0000
# 3 33.9274 48.5006 131.9902 0.0000 0.0000 0.0000
# 4 0.0000 0.0000 0.0000 23.9524 0.0000 0.0000
# 5 0.0000 0.0000 0.0000 0.0000 6.0736 0.0000
# 6 0.0000 0.0000 0.0000 0.0000 0.0000 25.0160
#
#
#
# Elastic Compliance Matrix: (Units=1/GPa)
#
#
# Indices 1 2 3 4 5 6 
#
# 1 0.022435 -0.009187 -0.002391 0.000000 0.000000 0.000000
# 2 -0.009187 0.021124 -0.005401 0.000000 0.000000 0.000000
# 3 -0.002391 -0.005401 0.010175 0.000000 0.000000 0.000000
# 4 0.000000 0.000000 0.000000 0.041749 0.000000 0.000000
# 5 0.000000 0.000000 0.000000 0.000000 0.164648 0.000000
# 6 0.000000 0.000000 0.000000 0.000000 0.000000 0.039974
#
#
# Mechanical properties :
#
#
# Convention : Reuss Voigt Hill
#
# Bulk Modulus (GPa) = 50.56304 56.36892 53.46598
# Shear Modulus (GPa) = 14.67755 21.13374 17.90564
#
# Velocity S-wave (km/s) = 3.00989 3.61170 3.32444
# Velocity P-wave (km/s) = 6.57939 7.22393 6.90918
#
# Compressibility (1/GPa) = 0.01977729
#
# Stress axis : x y z
#
# Youngs Moduli (GPa) = 44.57276 47.33937 98.27571
#
# Poissons Ratio (x) = 0.43491 0.23498
# Poissons Ratio (y) = 0.40949 0.53076
# Poissons Ratio (z) = 0.10658 0.25567
#
# Static dielectric constant tensor:
#      x y z
#    x 2.744040 0.000000 0.000000 
#    y 0.000000 3.119290 0.000000 
#    z 0.000000 0.000000 3.645190 
# 
# 
# High freq. dielectric constant tensor:
#      x y z
#    x 1.583100 0.000000 0.000000 
#    y 0.000000 1.633270 0.000000 
#    z 0.000000 0.000000 1.629790 
# 
# From -- ./inp_files/71683.got.cif
#   From: 2010.03.12/outbox.cif.g09.slc.cpg/sg65_36_cif.got.tgz:71683.got - 2010.04.10 20:52:16.
