data_PCOD8265730
_publ_section_title
;
Structure prediction by ZEFSAII (Michael W. Deem and Ramdas Pophale) SiO2 
 PCOD8265730
Probable space group: C M M M
;
_chemical_formula_sum "Si O2"
_cell_formula_units_Z 88
_cell_length_a 27.592555
_cell_length_b 8.851740
_cell_length_c 21.420762
_cell_angle_alpha 90.000000
_cell_angle_beta 90.000000
_cell_angle_gamma 90.000000
_cell_volume 5231.852383
_symmetry_space_group_name_H-M "C M M M"
_symmetry_group_IT_number 65
_symmetry_cell_setting 'orthorhombic'
loop_
_space_group_symop_operation_xyz
x,y,z
-x,-y,z
x,-y,-z
-x,y,-z
-x,-y,-z
x,y,-z
-x,y,z
x,-y,z
1/2+x,1/2+y,z
1/2-x,1/2-y,z
1/2+x,1/2-y,-z
1/2-x,1/2+y,-z
1/2-x,1/2-y,-z
1/2+x,1/2+y,-z
1/2-x,1/2+y,z
1/2+x,1/2-y,z
loop_
_atom_site_type_symbol
_atom_site_label
_atom_site_fract_x
_atom_site_fract_y
_atom_site_fract_z
Si Si1 0.612675 0.324992 0.430310
Si Si2 0.445852 0.678303 0.311149
Si Si3 0.197363 0.679417 0.875395
Si Si4 0.359378 0.176864 0.752172
Si Si5 0.196600 0.819165 0.000000
Si Si6 0.698574 0.177395 0.631937
O O1 0.592318 0.294975 0.500000
O O2 0.625475 0.500000 0.420286
O O3 0.572624 0.272171 0.379997
O O4 0.661851 0.230822 0.421669
O O5 0.500000 0.743504 0.302231
O O6 0.446013 0.500000 0.304521
O O7 0.411274 0.744171 0.257284
O O8 0.202966 0.500000 0.883682
O O9 0.250000 0.750000 0.862365
O O10 0.162193 0.723289 0.818802
O O11 0.172241 0.753763 0.936907
O O12 0.321818 0.231515 0.699116
O O13 0.368118 0.000000 0.747011
O O14 0.250000 0.750000 0.000000
O O15 0.196621 0.000000 0.000000
O O16 0.750000 0.250000 0.619219
O O17 0.704718 0.000000 0.629016
#
# Coordination Sequence:
#
# PCOD8265730 Si02
#       6
#    16  16  16  16   8  16
#     4   9  18  32  48  66  89 117 149 184 224 272
#     4   9  18  32  50  71  92 114 144 186 233 277
#     4  10  18  29  45  67  96 128 160 190 222 260
#     4   9  19  32  47  68  92 120 153 188 226 270
#     4  10  18  28  42  64  95 130 163 190 220 257
#     4  10  19  31  46  65  90 119 152 188 225 266
#
# _framework density 16.820046999999999
#
# number of rings (size 3 to 8) (size 9 to 14) (size 15 to 20)
#    0.000    2.545    0.000    3.545    0.000    3.636 
#    0.000    1.818    0.000    0.000    0.000    5.727 
#    0.000    5.091    0.000    0.000    0.000    0.000 
#
# Total GULP energy -545527.001632 kJ/mol
# GULP energy per Si atom -12398.340946 kJ/mol
# Density = 1.678176 g / cm^3
# Si number density = 16.820047 Si / 1000 Ang^3
#
#
#
# Elastic Constant Matrix: (Units=GPa)
#
#
# Indices 1 2 3 4 5 6 
#
# 1 114.3080 34.0483 49.6839 0.0000 0.0000 0.0000
# 2 34.0483 59.5233 37.2716 0.0000 0.0000 0.0000
# 3 49.6839 37.2716 121.5499 0.0000 0.0000 0.0000
# 4 0.0000 0.0000 0.0000 25.7646 0.0000 0.0000
# 5 0.0000 0.0000 0.0000 0.0000 17.8055 0.0000
# 6 0.0000 0.0000 0.0000 0.0000 0.0000 23.9194
#
#
#
# Elastic Compliance Matrix: (Units=1/GPa)
#
#
# Indices 1 2 3 4 5 6 
#
# 1 0.011542 -0.004515 -0.003333 0.000000 0.000000 0.000000
# 2 -0.004515 0.022559 -0.005072 0.000000 0.000000 0.000000
# 3 -0.003333 -0.005072 0.011145 0.000000 0.000000 0.000000
# 4 0.000000 0.000000 0.000000 0.038813 0.000000 0.000000
# 5 0.000000 0.000000 0.000000 0.000000 0.056163 0.000000
# 6 0.000000 0.000000 0.000000 0.000000 0.000000 0.041807
#
#
# Mechanical properties :
#
#
# Convention : Reuss Voigt Hill
#
# Bulk Modulus (GPa) = 51.53274 59.70985 55.62130
# Shear Modulus (GPa) = 23.32781 25.12305 24.22543
#
# Velocity S-wave (km/s) = 3.72816 3.86895 3.79921
# Velocity P-wave (km/s) = 7.01687 7.45216 7.23779
#
# Compressibility (1/GPa) = 0.01940514
#
# Stress axis : x y z
#
# Youngs Moduli (GPa) = 86.64021 44.32912 89.72812
#
# Poissons Ratio (x) = 0.20014 0.29910
# Poissons Ratio (y) = 0.39118 0.45508
# Poissons Ratio (z) = 0.28880 0.22483
#
# Static dielectric constant tensor:
#      x y z
#    x 3.045980 0.000000 0.000000 
#    y 0.000000 3.153250 0.000000 
#    z 0.000000 0.000000 3.507950 
# 
# 
# High freq. dielectric constant tensor:
#      x y z
#    x 1.620590 0.000000 0.000000 
#    y 0.000000 1.653080 0.000000 
#    z 0.000000 0.000000 1.648620 
# 
# From -- ./inp_files/65752.got.cif
#   From: 2010.03.12/outbox.cif.g09.slc.cpg/sg65_33_cif.got.tgz:65752.got - 2010.04.10 20:52:16.
