data_PCOD8265529
_publ_section_title
;
Structure prediction by ZEFSAII (Michael W. Deem and Ramdas Pophale) SiO2 
 PCOD8265529
Probable space group: C M M M
;
_chemical_formula_sum "Si O2"
_cell_formula_units_Z 96
_cell_length_a 23.750535
_cell_length_b 8.730372
_cell_length_c 26.161190
_cell_angle_alpha 90.000000
_cell_angle_beta 90.000000
_cell_angle_gamma 90.000000
_cell_volume 5424.549058
_symmetry_space_group_name_H-M "C M M M"
_symmetry_group_IT_number 65
_symmetry_cell_setting 'orthorhombic'
loop_
_space_group_symop_operation_xyz
x,y,z
-x,-y,z
x,-y,-z
-x,y,-z
-x,-y,-z
x,y,-z
-x,y,z
x,-y,z
1/2+x,1/2+y,z
1/2-x,1/2-y,z
1/2+x,1/2-y,-z
1/2-x,1/2+y,-z
1/2-x,1/2-y,-z
1/2+x,1/2+y,-z
1/2-x,1/2+y,z
1/2+x,1/2-y,z
loop_
_atom_site_type_symbol
_atom_site_label
_atom_site_fract_x
_atom_site_fract_y
_atom_site_fract_z
Si Si1 0.385097 0.681202 0.254127
Si Si2 0.689262 0.178966 0.053895
Si Si3 0.883637 0.817931 0.556625
Si Si4 0.189130 0.181062 0.350138
Si Si5 0.312293 0.818128 0.835003
Si Si6 0.500000 0.318316 0.604219
Si Si7 0.500000 0.181002 0.716101
O O1 0.392429 0.500000 0.253418
O O2 0.351035 0.734867 0.304281
O O3 0.352949 0.736311 0.204273
O O4 0.445780 0.758994 0.253804
O O5 0.750000 0.250000 0.052491
O O6 0.661458 0.223469 0.108470
O O7 0.698371 0.000000 0.054297
O O8 0.657190 0.226566 0.000000
O O9 0.869748 0.753300 0.500000
O O10 0.837263 0.756383 0.596693
O O11 0.945571 0.762250 0.573021
O O12 0.882982 0.000000 0.556262
O O13 0.250000 0.250000 0.341349
O O14 0.194600 0.000000 0.351115
O O15 0.250000 0.750000 0.828515
O O16 0.310226 0.000000 0.825053
O O17 0.500000 0.500000 0.612772
O O18 0.500000 0.241599 0.658895
O O19 0.500000 0.000000 0.716049
#
# Coordination Sequence:
#
# PCOD8265529 Si02
#       7
#    16  16  16  16  16   8   8
#     4  11  22  38  56  75 101 135 174 216 260 310
#     4   8  14  25  42  66 100 140 178 215 254 297
#     4   9  17  31  54  80 101 128 169 211 251 301
#     4  10  21  35  52  74 101 134 170 207 248 300
#     4  10  19  31  49  77 110 144 181 218 258 306
#     4  10  17  34  58  80 102 127 165 209 256 309
#     4  12  24  37  57  81 103 129 162 209 264 318
#
# _framework density 17.697324999999999
#
# number of rings (size 3 to 8) (size 9 to 14) (size 15 to 20)
#    0.000    2.167    1.667    2.500    0.000    4.667 
#    0.000    0.000    0.000    2.000    0.000    0.583 
#    0.000    4.667    0.000    0.000    0.000    0.000 
#
# Total GULP energy -594796.036950 kJ/mol
# GULP energy per Si atom -12391.584103 kJ/mol
# Density = 1.765704 g / cm^3
# Si number density = 17.697325 Si / 1000 Ang^3
#
#
#
# Elastic Constant Matrix: (Units=GPa)
#
#
# Indices 1 2 3 4 5 6 
#
# 1 89.6059 11.2846 36.9373 0.0000 0.0000 0.0000
# 2 11.2846 25.8649 14.2543 0.0000 0.0000 0.0000
# 3 36.9373 14.2543 141.8498 0.0000 0.0000 0.0000
# 4 0.0000 0.0000 0.0000 19.8997 0.0000 0.0000
# 5 0.0000 0.0000 0.0000 0.0000 128.9592 0.0000
# 6 0.0000 0.0000 0.0000 0.0000 0.0000 23.2692
#
#
#
# Elastic Compliance Matrix: (Units=1/GPa)
#
#
# Indices 1 2 3 4 5 6 
#
# 1 0.012880 -0.003992 -0.002953 0.000000 0.000000 0.000000
# 2 -0.003992 0.042166 -0.003198 0.000000 0.000000 0.000000
# 3 -0.002953 -0.003198 0.008140 0.000000 0.000000 0.000000
# 4 0.000000 0.000000 0.000000 0.050252 0.000000 0.000000
# 5 0.000000 0.000000 0.000000 0.000000 0.007754 0.000000
# 6 0.000000 0.000000 0.000000 0.000000 0.000000 0.042975
#
#
# Mechanical properties :
#
#
# Convention : Reuss Voigt Hill
#
# Bulk Modulus (GPa) = 23.30938 42.47478 32.89208
# Shear Modulus (GPa) = 25.15680 47.41524 36.28602
#
# Velocity S-wave (km/s) = 3.77437 5.18175 4.53301
# Velocity P-wave (km/s) = 5.67400 7.73650 6.78409
#
# Compressibility (1/GPa) = 0.04290118
#
# Stress axis : x y z
#
# Youngs Moduli (GPa) = 77.64034 23.71553 122.85127
#
# Poissons Ratio (x) = 0.09468 0.36275
# Poissons Ratio (y) = 0.30995 0.39284
# Poissons Ratio (z) = 0.22925 0.07584
#
# Static dielectric constant tensor:
#      x y z
#    x 3.175520 0.000000 0.000000 
#    y 0.000000 3.166760 0.000000 
#    z 0.000000 0.000000 4.010170 
# 
# 
# High freq. dielectric constant tensor:
#      x y z
#    x 1.657080 0.000000 0.000000 
#    y 0.000000 1.672220 0.000000 
#    z 0.000000 0.000000 1.705850 
# 
# From -- ./inp_files/71475.got.cif
#   From: 2010.03.12/outbox.cif.g09.slc.cpg/sg65_36_cif.got.tgz:71475.got - 2010.04.10 20:52:16.
