data_PCOD8265453
_publ_section_title
;
Structure prediction by ZEFSAII (Michael W. Deem and Ramdas Pophale) SiO2 
 PCOD8265453
Probable space group: C M M M
;
_chemical_formula_sum "Si O2"
_cell_formula_units_Z 112
_cell_length_a 31.795494
_cell_length_b 32.625511
_cell_length_c 8.981599
_cell_angle_alpha 90.000000
_cell_angle_beta 90.000000
_cell_angle_gamma 90.000000
_cell_volume 9317.009982
_symmetry_space_group_name_H-M "C M M M"
_symmetry_group_IT_number 65
_symmetry_cell_setting 'orthorhombic'
loop_
_space_group_symop_operation_xyz
x,y,z
-x,-y,z
x,-y,-z
-x,y,-z
-x,-y,-z
x,y,-z
-x,y,z
x,-y,z
1/2+x,1/2+y,z
1/2-x,1/2-y,z
1/2+x,1/2-y,-z
1/2-x,1/2+y,-z
1/2-x,1/2-y,-z
1/2+x,1/2+y,-z
1/2-x,1/2+y,z
1/2+x,1/2-y,z
loop_
_atom_site_type_symbol
_atom_site_label
_atom_site_fract_x
_atom_site_fract_y
_atom_site_fract_z
Si Si1 0.710920 0.664240 0.332995
Si Si2 0.000000 0.174505 0.322723
Si Si3 0.414000 0.454538 0.176799
Si Si4 0.153525 0.755844 0.668174
Si Si5 0.278664 0.209853 0.832077
Si Si6 0.500000 0.413832 0.823188
Si Si7 0.416140 0.697555 0.174101
Si Si8 0.858940 0.880469 0.173282
O O1 0.722999 0.651493 0.500000
O O2 0.683265 0.704886 0.331302
O O3 0.753801 0.672040 0.242371
O O4 0.684411 0.627509 0.259608
O O5 0.040556 0.198735 0.263899
O O6 0.000000 0.173600 0.500000
O O7 0.000000 0.129024 0.259300
O O8 0.405219 0.500000 0.241602
O O9 0.459659 0.439486 0.229779
O O10 0.377995 0.423356 0.232840
O O11 0.413746 0.455334 0.000000
O O12 0.140687 0.744135 0.500000
O O13 0.178414 0.717910 0.741585
O O14 0.112233 0.765172 0.765250
O O15 0.250000 0.250000 0.830170
O O16 0.290377 0.197560 0.000000
O O17 0.500000 0.405252 0.000000
O O18 0.393534 0.654299 0.204868
O O19 0.424659 0.704111 0.000000
O O20 0.847817 0.881945 0.000000
#
# Coordination Sequence:
#
# PCOD8265453 Si02
#       8
#    16   8  16  16  16   8  16  16
#     4   9  16  24  35  50  68  88 106 126 153 186
#     4  12  22  29  39  53  68  86 108 138 174 210
#     4   9  16  26  42  59  69  80 104 138 173 210
#     4   9  16  25  36  52  71  88 105 127 155 188
#     4   9  15  23  35  51  69  89 109 127 147 177
#     4  10  17  30  44  56  66  80 104 136 172 214
#     4  10  18  29  41  52  65  85 110 136 164 198
#     4   9  16  26  39  53  67  82 104 132 162 200
#
# _framework density 12.021023
#
# number of rings (size 3 to 8) (size 9 to 14) (size 15 to 20)
#    0.000    2.571    1.429    2.571    0.000    6.571 
#    0.000    0.000    0.000    2.143    0.000    0.000 
#    0.000    0.000    0.000    0.000    0.000    0.000 
#
# Total GULP energy -694297.512805 kJ/mol
# GULP energy per Si atom -12398.169872 kJ/mol
# Density = 1.199366 g / cm^3
# Si number density = 12.021023 Si / 1000 Ang^3
#
#
#
# Elastic Constant Matrix: (Units=GPa)
#
#
# Indices 1 2 3 4 5 6 
#
# 1 70.7484 46.5310 37.3558 0.0000 0.0000 0.0000
# 2 46.5310 44.3106 24.9382 0.0000 0.0000 0.0000
# 3 37.3558 24.9382 74.9981 0.0000 0.0000 0.0000
# 4 0.0000 0.0000 0.0000 8.0542 0.0000 0.0000
# 5 0.0000 0.0000 0.0000 0.0000 18.5854 0.0000
# 6 0.0000 0.0000 0.0000 0.0000 0.0000 12.1178
#
#
#
# Elastic Compliance Matrix: (Units=1/GPa)
#
#
# Indices 1 2 3 4 5 6 
#
# 1 0.050403 -0.047732 -0.009234 0.000000 0.000000 0.000000
# 2 -0.047732 0.072966 -0.000488 0.000000 0.000000 0.000000
# 3 -0.009234 -0.000488 0.018095 0.000000 0.000000 0.000000
# 4 0.000000 0.000000 0.000000 0.124158 0.000000 0.000000
# 5 0.000000 0.000000 0.000000 0.000000 0.053806 0.000000
# 6 0.000000 0.000000 0.000000 0.000000 0.000000 0.082523
#
#
# Mechanical properties :
#
#
# Convention : Reuss Voigt Hill
#
# Bulk Modulus (GPa) = 37.65378 45.30077 41.47727
# Shear Modulus (GPa) = 9.51092 13.16696 11.33894
#
# Velocity S-wave (km/s) = 2.81586 3.31316 3.07458
# Velocity P-wave (km/s) = 6.47791 7.23896 6.86898
#
# Compressibility (1/GPa) = 0.02655776
#
# Stress axis : x y z
#
# Youngs Moduli (GPa) = 19.83997 13.70493 55.26399
#
# Poissons Ratio (x) = 0.65417 0.51028
# Poissons Ratio (y) = 0.94701 0.02695
# Poissons Ratio (z) = 0.18319 0.00668
#
# Static dielectric constant tensor:
#      x y z
#    x 2.499930 0.000000 0.000000 
#    y 0.000000 2.286590 0.000000 
#    z 0.000000 0.000000 2.544930 
# 
# 
# High freq. dielectric constant tensor:
#      x y z
#    x 1.440000 0.000000 0.000000 
#    y 0.000000 1.403940 0.000000 
#    z 0.000000 0.000000 1.462130 
# 
# From -- ./inp_files/19230.got.cif
#   From: 2010.03.12/outbox.cif.g09.slc.cpg/sg65_10_cif.got.tgz:19230.got - 2010.04.10 20:52:16.
