data_PCOD8265984
_publ_section_title
;
Structure prediction by ZEFSAII (Michael W. Deem and Ramdas Pophale) SiO2 
 PCOD8265984
Probable space group: C M M M
;
_chemical_formula_sum "Si O2"
_cell_formula_units_Z 96
_cell_length_a 26.916336
_cell_length_b 9.008598
_cell_length_c 24.110763
_cell_angle_alpha 90.000000
_cell_angle_beta 90.000000
_cell_angle_gamma 90.000000
_cell_volume 5846.340456
_symmetry_space_group_name_H-M "C M M M"
_symmetry_group_IT_number 65
_symmetry_cell_setting 'orthorhombic'
loop_
_space_group_symop_operation_xyz
x,y,z
-x,-y,z
x,-y,-z
-x,y,-z
-x,-y,-z
x,y,-z
-x,y,z
x,-y,z
1/2+x,1/2+y,z
1/2-x,1/2-y,z
1/2+x,1/2-y,-z
1/2-x,1/2+y,-z
1/2-x,1/2-y,-z
1/2+x,1/2+y,-z
1/2-x,1/2+y,z
1/2+x,1/2-y,z
loop_
_atom_site_type_symbol
_atom_site_label
_atom_site_fract_x
_atom_site_fract_y
_atom_site_fract_z
Si Si1 0.142199 0.675779 0.219261
Si Si2 0.300990 0.669084 0.000000
Si Si3 0.900892 0.674964 0.615581
Si Si4 0.555871 0.175975 0.500000
Si Si5 0.800557 0.671665 0.328419
Si Si6 0.696221 0.325132 0.879666
Si Si7 0.442919 0.670748 0.719208
O O1 0.138467 0.500000 0.211797
O O2 0.181531 0.719717 0.267130
O O3 0.158115 0.751593 0.162421
O O4 0.088403 0.738149 0.235611
O O5 0.250000 0.750000 0.000000
O O6 0.328018 0.705097 0.058702
O O7 0.285510 0.500000 0.000000
O O8 0.910673 0.500000 0.623696
O O9 0.914539 0.731243 0.554149
O O10 0.843213 0.712998 0.627163
O O11 0.935991 0.761098 0.658188
O O12 0.500000 0.241648 0.500000
O O13 0.553370 0.000000 0.500000
O O14 0.788715 0.500000 0.329410
O O15 0.750000 0.750000 0.345802
O O16 0.701694 0.500000 0.867261
O O17 0.750000 0.250000 0.873611
O O18 0.500000 0.684946 0.736770
O O19 0.425433 0.500000 0.718588
#
# Coordination Sequence:
#
# PCOD8265984 Si02
#       7
#    16   8  16   8  16  16  16
#     4  10  20  32  47  69  93 121 158 195 234 277
#     4   8  16  28  42  62  91 128 163 194 230 271
#     4   9  18  32  49  70  93 118 153 191 227 273
#     4   9  16  28  50  73  89 113 151 193 234 275
#     4   9  18  30  44  63  89 120 151 185 223 265
#     4  10  18  29  45  67  97 130 163 197 232 273
#     4  10  20  33  49  70  95 121 148 184 234 286
#
# _framework density 16.420528999999998
#
# number of rings (size 3 to 8) (size 9 to 14) (size 15 to 20)
#    0.000    2.583    0.000    3.500    0.000    7.333 
#    0.000    0.833    0.000    1.500    0.000    0.583 
#    0.000    4.667    0.000    0.000    0.000    0.000 
#
# Total GULP energy -594983.697479 kJ/mol
# GULP energy per Si atom -12395.493697 kJ/mol
# Density = 1.638315 g / cm^3
# Si number density = 16.420529 Si / 1000 Ang^3
#
#
#
# Elastic Constant Matrix: (Units=GPa)
#
#
# Indices 1 2 3 4 5 6 
#
# 1 95.3425 41.2154 61.2906 0.0000 0.0000 0.0000
# 2 41.2154 70.8428 51.0044 0.0000 0.0000 0.0000
# 3 61.2906 51.0044 150.3429 0.0000 0.0000 0.0000
# 4 0.0000 0.0000 0.0000 22.5597 0.0000 0.0000
# 5 0.0000 0.0000 0.0000 0.0000 17.9020 0.0000
# 6 0.0000 0.0000 0.0000 0.0000 0.0000 27.3668
#
#
#
# Elastic Compliance Matrix: (Units=1/GPa)
#
#
# Indices 1 2 3 4 5 6 
#
# 1 0.015983 -0.006097 -0.004448 0.000000 0.000000 0.000000
# 2 -0.006097 0.021003 -0.004640 0.000000 0.000000 0.000000
# 3 -0.004448 -0.004640 0.010039 0.000000 0.000000 0.000000
# 4 0.000000 0.000000 0.000000 0.044327 0.000000 0.000000
# 5 0.000000 0.000000 0.000000 0.000000 0.055860 0.000000
# 6 0.000000 0.000000 0.000000 0.000000 0.000000 0.036541
#
#
# Mechanical properties :
#
#
# Convention : Reuss Voigt Hill
#
# Bulk Modulus (GPa) = 60.03579 69.28322 64.65951
# Shear Modulus (GPa) = 22.76111 24.43358 23.59735
#
# Velocity S-wave (km/s) = 3.72713 3.86163 3.79497
# Velocity P-wave (km/s) = 7.42716 7.88464 7.65932
#
# Compressibility (1/GPa) = 0.01665673
#
# Stress axis : x y z
#
# Youngs Moduli (GPa) = 62.56611 47.61138 99.61400
#
# Poissons Ratio (x) = 0.29027 0.44304
# Poissons Ratio (y) = 0.38144 0.46221
# Poissons Ratio (z) = 0.27827 0.22092
#
# Static dielectric constant tensor:
#      x y z
#    x 2.931930 0.000000 0.000000 
#    y 0.000000 3.115450 0.000000 
#    z 0.000000 0.000000 3.568940 
# 
# 
# High freq. dielectric constant tensor:
#      x y z
#    x 1.611770 0.000000 0.000000 
#    y 0.000000 1.635730 0.000000 
#    z 0.000000 0.000000 1.630810 
# 
# From -- ./inp_files/71698.got.cif
#   From: 2010.03.12/outbox.cif.g09.slc.cpg/sg65_36_cif.got.tgz:71698.got - 2010.04.10 20:52:16.
