data_PCOD8265877
_publ_section_title
;
Structure prediction by ZEFSAII (Michael W. Deem and Ramdas Pophale) SiO2 
 PCOD8265877
Probable space group: C M M M
;
_chemical_formula_sum "Si O2"
_cell_formula_units_Z 104
_cell_length_a 14.308470
_cell_length_b 21.659389
_cell_length_c 18.623261
_cell_angle_alpha 90.000000
_cell_angle_beta 90.000000
_cell_angle_gamma 90.000000
_cell_volume 5771.585429
_symmetry_space_group_name_H-M "C M M M"
_symmetry_group_IT_number 65
_symmetry_cell_setting 'orthorhombic'
loop_
_space_group_symop_operation_xyz
x,y,z
-x,-y,z
x,-y,-z
-x,y,-z
-x,-y,-z
x,y,-z
-x,y,z
x,-y,z
1/2+x,1/2+y,z
1/2-x,1/2-y,z
1/2+x,1/2-y,-z
1/2-x,1/2+y,-z
1/2-x,1/2-y,-z
1/2+x,1/2+y,-z
1/2-x,1/2+y,z
1/2+x,1/2-y,z
loop_
_atom_site_type_symbol
_atom_site_label
_atom_site_fract_x
_atom_site_fract_y
_atom_site_fract_z
Si Si1 0.889831 0.500000 0.919042
Si Si2 0.897937 0.855836 0.159491
Si Si3 0.252828 0.176721 0.579383
Si Si4 0.889558 0.337735 0.696885
Si Si5 0.106086 0.273155 0.083021
Si Si6 0.101761 0.197708 0.686741
Si Si7 0.304357 0.884868 0.839684
O O1 0.858686 0.439711 0.876963
O O2 0.000000 0.500000 0.922758
O O3 0.848426 0.500000 0.000000
O O4 0.880454 0.794546 0.114103
O O5 0.903050 0.843046 0.243222
O O6 0.806861 0.899300 0.150190
O O7 0.000000 0.885078 0.136657
O O8 0.245337 0.146430 0.500000
O O9 0.250000 0.250000 0.571004
O O10 0.346166 0.149321 0.617701
O O11 0.165164 0.160961 0.629960
O O12 0.864393 0.265906 0.711295
O O13 0.836972 0.379079 0.756665
O O14 0.000000 0.352077 0.697885
O O15 0.174205 0.320248 0.122259
O O16 0.000000 0.296116 0.095334
O O17 0.133025 0.271452 0.000000
O O18 0.000000 0.204562 0.650510
#
# Coordination Sequence:
#
# PCOD8265877 Si02
#       7
#     8  16  16  16  16  16  16
#     4  11  26  44  59  79 106 136 178 229 271 313
#     4  10  20  33  52  79 108 136 169 213 264 317
#     4   9  17  27  41  67 104 143 175 206 252 312
#     4  10  18  28  47  72  99 138 178 213 256 308
#     4  10  20  32  50  79 108 133 166 212 266 319
#     4   9  16  28  45  70 105 140 174 210 252 305
#     4  12  21  35  57  75 101 141 181 219 265 315
#
# _framework density 18.019311999999999
#
# number of rings (size 3 to 8) (size 9 to 14) (size 15 to 20)
#    0.000    1.923    3.077    2.308    0.000    3.692 
#    0.000    3.462    0.000    0.462    0.000    0.538 
#    0.000    1.846    0.000    3.385    0.000    0.154 
#
# Total GULP energy -644341.640740 kJ/mol
# GULP energy per Si atom -12391.185399 kJ/mol
# Density = 1.797830 g / cm^3
# Si number density = 18.019312 Si / 1000 Ang^3
#
#
#
# Elastic Constant Matrix: (Units=GPa)
#
#
# Indices 1 2 3 4 5 6 
#
# 1 212.8550 44.6695 95.5162 0.0000 0.0000 0.0000
# 2 44.6695 32.2173 35.3095 0.0000 0.0000 0.0000
# 3 95.5162 35.3095 149.8759 0.0000 0.0000 0.0000
# 4 0.0000 0.0000 0.0000 10.7839 0.0000 0.0000
# 5 0.0000 0.0000 0.0000 0.0000 26.3490 0.0000
# 6 0.0000 0.0000 0.0000 0.0000 0.0000 18.2798
#
#
#
# Elastic Compliance Matrix: (Units=1/GPa)
#
#
# Indices 1 2 3 4 5 6 
#
# 1 0.007609 -0.007058 -0.003187 0.000000 0.000000 0.000000
# 2 -0.007058 0.048389 -0.006902 0.000000 0.000000 0.000000
# 3 -0.003187 -0.006902 0.010329 0.000000 0.000000 0.000000
# 4 0.000000 0.000000 0.000000 0.092731 0.000000 0.000000
# 5 0.000000 0.000000 0.000000 0.000000 0.037952 0.000000
# 6 0.000000 0.000000 0.000000 0.000000 0.000000 0.054705
#
#
# Mechanical properties :
#
#
# Convention : Reuss Voigt Hill
#
# Bulk Modulus (GPa) = 31.21621 82.88207 57.04914
# Shear Modulus (GPa) = 16.85278 25.71274 21.28276
#
# Velocity S-wave (km/s) = 3.06152 3.78160 3.44045
# Velocity P-wave (km/s) = 5.46430 8.07239 6.89282
#
# Compressibility (1/GPa) = 0.03203463
#
# Stress axis : x y z
#
# Youngs Moduli (GPa) = 131.42214 20.66567 96.81368
#
# Poissons Ratio (x) = 0.14585 0.30850
# Poissons Ratio (y) = 0.92753 0.66824
# Poissons Ratio (z) = 0.41878 0.14264
#
# Static dielectric constant tensor:
#      x y z
#    x 4.041100 0.000000 0.000000 
#    y 0.000000 2.620140 0.000000 
#    z 0.000000 0.000000 3.548930 
# 
# 
# High freq. dielectric constant tensor:
#      x y z
#    x 1.720760 0.000000 0.000000 
#    y 0.000000 1.618820 0.000000 
#    z 0.000000 0.000000 1.703720 
# 
# From -- ./inp_files/53325.got.cif
#   From: 2010.03.12/outbox.cif.g09.slc.cpg/sg65_27_cif.got.tgz:53325.got - 2010.04.10 20:52:16.
