data_PCOD8265863
_publ_section_title
;
Structure prediction by ZEFSAII (Michael W. Deem and Ramdas Pophale) SiO2 
 PCOD8265863
Probable space group: C M M M
;
_chemical_formula_sum "Si O2"
_cell_formula_units_Z 112
_cell_length_a 18.670250
_cell_length_b 14.756217
_cell_length_c 23.400292
_cell_angle_alpha 90.000000
_cell_angle_beta 90.000000
_cell_angle_gamma 90.000000
_cell_volume 6446.833341
_symmetry_space_group_name_H-M "C M M M"
_symmetry_group_IT_number 65
_symmetry_cell_setting 'orthorhombic'
loop_
_space_group_symop_operation_xyz
x,y,z
-x,-y,z
x,-y,-z
-x,y,-z
-x,-y,-z
x,y,-z
-x,y,z
x,-y,z
1/2+x,1/2+y,z
1/2-x,1/2-y,z
1/2+x,1/2-y,-z
1/2-x,1/2+y,-z
1/2-x,1/2-y,-z
1/2+x,1/2+y,-z
1/2-x,1/2+y,z
1/2+x,1/2-y,z
loop_
_atom_site_type_symbol
_atom_site_label
_atom_site_fract_x
_atom_site_fract_y
_atom_site_fract_z
Si Si1 0.157583 0.896256 0.566683
Si Si2 0.080335 0.741040 0.375446
Si Si3 0.304387 0.104134 0.233450
Si Si4 0.298276 0.896023 0.365749
Si Si5 0.158426 0.893827 0.174040
Si Si6 0.419236 0.749995 0.757384
Si Si7 0.919776 0.892656 0.062960
O O1 0.171881 0.884105 0.500000
O O2 0.094163 0.830642 0.586947
O O3 0.228591 0.865212 0.599897
O O4 0.136862 0.000000 0.581452
O O5 0.134919 0.660408 0.390226
O O6 0.089455 0.765697 0.309551
O O7 0.000000 0.707141 0.388882
O O8 0.281329 0.120938 0.299008
O O9 0.239574 0.131838 0.191244
O O10 0.371265 0.167651 0.218347
O O11 0.327310 0.000000 0.223860
O O12 0.317510 0.000000 0.377612
O O13 0.102999 0.844868 0.215465
O O14 0.139662 0.861596 0.109348
O O15 0.145365 0.000000 0.182583
O O16 0.500000 0.774823 0.774294
O O17 0.000000 0.857526 0.079155
O O18 0.921704 0.000000 0.060911
O O19 0.898019 0.855113 0.000000
#
# Coordination Sequence:
#
# PCOD8265863 Si02
#       7
#    16  16  16  16  16  16  16
#     4  10  21  36  53  71  92 123 160 191 223 274
#     4  10  21  34  49  72  98 123 153 191 235 279
#     4   9  18  32  50  70  93 124 158 194 234 273
#     4   9  18  34  54  73  93 119 155 196 235 276
#     4  10  18  28  46  72  99 124 153 191 236 282
#     4  10  20  32  47  69  97 127 157 190 230 279
#     4   8  14  25  41  63  94 130 162 191 229 280
#
# _framework density 17.372869999999999
#
# number of rings (size 3 to 8) (size 9 to 14) (size 15 to 20)
#    0.000    2.571    0.000    2.571    0.000    7.143 
#    0.000    5.000    0.000    1.714    0.000    3.000 
#    0.000    0.000    0.000    8.571    0.000    0.429 
#
# Total GULP energy -694311.646549 kJ/mol
# GULP energy per Si atom -12398.422260 kJ/mol
# Density = 1.733333 g / cm^3
# Si number density = 17.372870 Si / 1000 Ang^3
#
#
#
# Elastic Constant Matrix: (Units=GPa)
#
#
# Indices 1 2 3 4 5 6 
#
# 1 109.9631 43.9717 53.9764 0.0000 0.0000 0.0000
# 2 43.9717 57.8754 32.5010 0.0000 0.0000 0.0000
# 3 53.9764 32.5010 57.9580 0.0000 0.0000 0.0000
# 4 0.0000 0.0000 0.0000 14.9140 0.0000 0.0000
# 5 0.0000 0.0000 0.0000 0.0000 8.6569 0.0000
# 6 0.0000 0.0000 0.0000 0.0000 0.0000 23.0468
#
#
#
# Elastic Compliance Matrix: (Units=1/GPa)
#
#
# Indices 1 2 3 4 5 6 
#
# 1 0.018196 -0.006289 -0.013419 0.000000 0.000000 0.000000
# 2 -0.006289 0.027394 -0.009505 0.000000 0.000000 0.000000
# 3 -0.013419 -0.009505 0.035081 0.000000 0.000000 0.000000
# 4 0.000000 0.000000 0.000000 0.067051 0.000000 0.000000
# 5 0.000000 0.000000 0.000000 0.000000 0.115515 0.000000
# 6 0.000000 0.000000 0.000000 0.000000 0.000000 0.043390
#
#
# Mechanical properties :
#
#
# Convention : Reuss Voigt Hill
#
# Bulk Modulus (GPa) = 44.95343 54.07721 49.51532
# Shear Modulus (GPa) = 13.42398 15.68003 14.55201
#
# Velocity S-wave (km/s) = 2.78276 3.00752 2.89732
# Velocity P-wave (km/s) = 6.02136 6.57687 6.30524
#
# Compressibility (1/GPa) = 0.02224524
#
# Stress axis : x y z
#
# Youngs Moduli (GPa) = 54.95863 36.50406 28.50516
#
# Poissons Ratio (x) = 0.22956 0.38251
# Poissons Ratio (y) = 0.34561 0.27095
# Poissons Ratio (z) = 0.73749 0.34698
#
# Static dielectric constant tensor:
#      x y z
#    x 3.324220 0.000000 0.000000 
#    y 0.000000 3.170840 0.000000 
#    z 0.000000 0.000000 3.382780 
# 
# 
# High freq. dielectric constant tensor:
#      x y z
#    x 1.667350 0.000000 0.000000 
#    y 0.000000 1.660320 0.000000 
#    z 0.000000 0.000000 1.659160 
# 
# From -- ./inp_files/70000.got.cif
#   From: 2010.03.12/outbox.cif.g09.slc.cpg/sg65_35_cif.got.tgz:70000.got - 2010.04.10 20:52:16.
