data_PCOD8265965
_publ_section_title
;
Structure prediction by ZEFSAII (Michael W. Deem and Ramdas Pophale) SiO2 
 PCOD8265965
Probable space group: C M M M
;
_chemical_formula_sum "Si O2"
_cell_formula_units_Z 104
_cell_length_a 27.532741
_cell_length_b 14.791405
_cell_length_c 15.718192
_cell_angle_alpha 90.000000
_cell_angle_beta 90.000000
_cell_angle_gamma 90.000000
_cell_volume 6401.201044
_symmetry_space_group_name_H-M "C M M M"
_symmetry_group_IT_number 65
_symmetry_cell_setting 'orthorhombic'
loop_
_space_group_symop_operation_xyz
x,y,z
-x,-y,z
x,-y,-z
-x,y,-z
-x,-y,-z
x,y,-z
-x,y,z
x,-y,z
1/2+x,1/2+y,z
1/2-x,1/2-y,z
1/2+x,1/2-y,-z
1/2-x,1/2+y,-z
1/2-x,1/2-y,-z
1/2+x,1/2+y,-z
1/2-x,1/2+y,z
1/2+x,1/2-y,z
loop_
_atom_site_type_symbol
_atom_site_label
_atom_site_fract_x
_atom_site_fract_y
_atom_site_fract_z
Si Si1 0.944015 0.395093 0.748968
Si Si2 0.304415 0.739512 0.098147
Si Si3 0.877144 0.396440 0.095617
Si Si4 0.444756 0.600779 0.681332
Si Si5 0.556688 0.780288 0.592738
Si Si6 0.380750 0.604581 0.845097
Si Si7 0.445755 0.392546 0.000000
O O1 0.937241 0.500000 0.727900
O O2 0.917703 0.367122 0.836273
O O3 0.920804 0.340147 0.669243
O O4 0.000000 0.368939 0.762216
O O5 0.250000 0.750000 0.133775
O O6 0.329611 0.836461 0.109581
O O7 0.331536 0.662749 0.153122
O O8 0.303828 0.708077 0.000000
O O9 0.861290 0.500000 0.109747
O O10 0.898351 0.382500 0.000000
O O11 0.500000 0.610987 0.716012
O O12 0.436898 0.500000 0.643691
O O13 0.434203 0.673720 0.608279
O O14 0.407787 0.619726 0.756968
O O15 0.579719 0.804240 0.500000
O O16 0.500000 0.802401 0.589244
O O17 0.367268 0.500000 0.860149
O O18 0.416702 0.642106 0.917833
O O19 0.449331 0.500000 0.000000
O O20 0.500000 0.350967 0.000000
#
# Coordination Sequence:
#
# PCOD8265965 Si02
#       7
#    16  16  16  16  16  16   8
#     4   9  17  29  46  67  91 119 150 187 227 265
#     4  10  20  32  45  61  85 117 155 196 230 265
#     4   9  18  32  48  65  88 119 153 187 224 267
#     4   9  17  28  43  64  91 122 150 179 219 265
#     4   9  17  28  42  61  88 123 158 188 217 256
#     4  10  18  29  45  65  90 118 150 187 224 264
#     4   9  16  26  41  62  89 119 148 177 212 256
#
# _framework density 16.246950999999999
#
# number of rings (size 3 to 8) (size 9 to 14) (size 15 to 20)
#    0.000    2.692    0.769    1.385    0.000    3.385 
#    0.000    6.923    0.000    0.000    0.000    0.000 
#    0.000    9.846    0.000   27.077    0.000    1.538 
#
# Total GULP energy -644652.763312 kJ/mol
# GULP energy per Si atom -12397.168525 kJ/mol
# Density = 1.620997 g / cm^3
# Si number density = 16.246951 Si / 1000 Ang^3
#
#
#
# Elastic Constant Matrix: (Units=GPa)
#
#
# Indices 1 2 3 4 5 6 
#
# 1 84.2002 38.1296 41.9537 0.0000 0.0000 0.0000
# 2 38.1296 69.2482 48.3432 0.0000 0.0000 0.0000
# 3 41.9537 48.3432 104.8250 0.0000 0.0000 0.0000
# 4 0.0000 0.0000 0.0000 19.3693 0.0000 0.0000
# 5 0.0000 0.0000 0.0000 0.0000 6.1919 0.0000
# 6 0.0000 0.0000 0.0000 0.0000 0.0000 22.7304
#
#
#
# Elastic Compliance Matrix: (Units=1/GPa)
#
#
# Indices 1 2 3 4 5 6 
#
# 1 0.016695 -0.006678 -0.003602 0.000000 0.000000 0.000000
# 2 -0.006678 0.023969 -0.008381 0.000000 0.000000 0.000000
# 3 -0.003602 -0.008381 0.014847 0.000000 0.000000 0.000000
# 4 0.000000 0.000000 0.000000 0.051628 0.000000 0.000000
# 5 0.000000 0.000000 0.000000 0.000000 0.161501 0.000000
# 6 0.000000 0.000000 0.000000 0.000000 0.000000 0.043994
#
#
# Mechanical properties :
#
#
# Convention : Reuss Voigt Hill
#
# Bulk Modulus (GPa) = 54.98125 57.23624 56.10875
# Shear Modulus (GPa) = 14.04417 18.31478 16.17948
#
# Velocity S-wave (km/s) = 2.94329 3.36113 3.15913
# Velocity P-wave (km/s) = 6.74278 7.09707 6.92219
#
# Compressibility (1/GPa) = 0.01818802
#
# Stress axis : x y z
#
# Youngs Moduli (GPa) = 59.89668 41.72045 67.35536
#
# Poissons Ratio (x) = 0.27862 0.24262
# Poissons Ratio (y) = 0.40000 0.56452
# Poissons Ratio (z) = 0.21575 0.34967
#
# Static dielectric constant tensor:
#      x y z
#    x 2.819160 0.000000 0.000000 
#    y 0.000000 3.168270 0.000000 
#    z 0.000000 0.000000 3.091090 
# 
# 
# High freq. dielectric constant tensor:
#      x y z
#    x 1.582150 0.000000 0.000000 
#    y 0.000000 1.636870 0.000000 
#    z 0.000000 0.000000 1.610610 
# 
# From -- ./inp_files/47993.got.cif
#   From: 2010.03.12/outbox.cif.g09.slc.cpg/sg65_24_cif.got.tgz:47993.got - 2010.04.10 20:52:16.
