data_PCOD8265425
_publ_section_title
;
Structure prediction by ZEFSAII (Michael W. Deem and Ramdas Pophale) SiO2 
 PCOD8265425
Probable space group: C M M M
;
_chemical_formula_sum "Si O2"
_cell_formula_units_Z 104
_cell_length_a 8.882878
_cell_length_b 32.643317
_cell_length_c 20.766417
_cell_angle_alpha 90.000000
_cell_angle_beta 90.000000
_cell_angle_gamma 90.000000
_cell_volume 6021.567382
_symmetry_space_group_name_H-M "C M M M"
_symmetry_group_IT_number 65
_symmetry_cell_setting 'orthorhombic'
loop_
_space_group_symop_operation_xyz
x,y,z
-x,-y,z
x,-y,-z
-x,y,-z
-x,-y,-z
x,y,-z
-x,y,z
x,-y,z
1/2+x,1/2+y,z
1/2-x,1/2-y,z
1/2+x,1/2-y,-z
1/2-x,1/2+y,-z
1/2-x,1/2-y,-z
1/2+x,1/2+y,-z
1/2-x,1/2+y,z
1/2+x,1/2-y,z
loop_
_atom_site_type_symbol
_atom_site_label
_atom_site_fract_x
_atom_site_fract_y
_atom_site_fract_z
Si Si1 0.178251 0.500000 0.790856
Si Si2 0.821663 0.453402 0.000000
Si Si3 0.827162 0.656856 0.427777
Si Si4 0.178226 0.500000 0.646365
Si Si5 0.324010 0.583228 0.365106
Si Si6 0.822424 0.131653 0.761489
Si Si7 0.821450 0.579390 0.135610
Si Si8 0.323313 0.793448 0.304878
O O1 0.240931 0.500000 0.718990
O O2 0.238683 0.539610 0.827273
O O3 0.000000 0.500000 0.791504
O O4 0.769957 0.426935 0.061759
O O5 0.754458 0.500000 0.000000
O O6 0.000000 0.458281 0.000000
O O7 0.798982 0.673424 0.500000
O O8 0.723950 0.617316 0.416569
O O9 0.783969 0.692711 0.377875
O O10 0.000000 0.643503 0.417295
O O11 0.241265 0.458697 0.614364
O O12 0.000000 0.500000 0.640970
O O13 0.500000 0.575646 0.369981
O O14 0.276680 0.598465 0.293432
O O15 0.761413 0.117783 0.831381
O O16 0.745322 0.174732 0.745827
O O17 0.000000 0.138052 0.763944
O O18 0.000000 0.585479 0.141604
O O19 0.500000 0.790434 0.293180
O O20 0.250000 0.750000 0.291553
#
# Coordination Sequence:
#
# PCOD8265425 Si02
#       8
#     8   8  16   8  16  16  16  16
#     4   9  16  24  43  69  94 127 170 211 249 292
#     4   9  16  26  45  71 102 139 180 221 253 287
#     4   9  19  36  55  74  99 132 165 195 235 293
#     4  11  19  29  47  70  93 126 171 215 255 298
#     4  10  20  32  47  70  98 127 164 211 256 293
#     4  10  20  33  49  71 100 133 167 206 251 298
#     4  10  17  29  47  71 100 136 178 215 251 293
#     4  10  20  35  56  81 106 129 156 196 244 297
#
# _framework density 17.271249999999998
#
# number of rings (size 3 to 8) (size 9 to 14) (size 15 to 20)
#    0.000    2.231    2.308    1.615    0.000    2.462 
#    0.000    1.154    0.000    2.769    0.000    0.538 
#    0.000    0.000    0.000    0.000    0.000    0.000 
#
# Total GULP energy -644780.987704 kJ/mol
# GULP energy per Si atom -12399.634379 kJ/mol
# Density = 1.723194 g / cm^3
# Si number density = 17.271250 Si / 1000 Ang^3
#
#
#
# Elastic Constant Matrix: (Units=GPa)
#
#
# Indices 1 2 3 4 5 6 
#
# 1 68.3042 48.9434 25.6233 0.0000 0.0000 0.0000
# 2 48.9434 128.0352 43.4929 0.0000 0.0000 0.0000
# 3 25.6233 43.4929 93.5614 0.0000 0.0000 0.0000
# 4 0.0000 0.0000 0.0000 14.4126 0.0000 0.0000
# 5 0.0000 0.0000 0.0000 0.0000 18.5853 0.0000
# 6 0.0000 0.0000 0.0000 0.0000 0.0000 28.1910
#
#
#
# Elastic Compliance Matrix: (Units=1/GPa)
#
#
# Indices 1 2 3 4 5 6 
#
# 1 0.020590 -0.007072 -0.002351 0.000000 0.000000 0.000000
# 2 -0.007072 0.011704 -0.003504 0.000000 0.000000 0.000000
# 3 -0.002351 -0.003504 0.012961 0.000000 0.000000 0.000000
# 4 0.000000 0.000000 0.000000 0.069384 0.000000 0.000000
# 5 0.000000 0.000000 0.000000 0.000000 0.053806 0.000000
# 6 0.000000 0.000000 0.000000 0.000000 0.000000 0.035472
#
#
# Mechanical properties :
#
#
# Convention : Reuss Voigt Hill
#
# Bulk Modulus (GPa) = 51.54586 58.44667 54.99626
# Shear Modulus (GPa) = 21.16505 23.69386 22.42945
#
# Velocity S-wave (km/s) = 3.50444 3.70789 3.60760
# Velocity P-wave (km/s) = 6.80327 7.22808 7.01889
#
# Compressibility (1/GPa) = 0.01940020
#
# Stress axis : x y z
#
# Youngs Moduli (GPa) = 48.56735 85.44076 77.15476
#
# Poissons Ratio (x) = 0.60424 0.18142
# Poissons Ratio (y) = 0.34347 0.27034
# Poissons Ratio (z) = 0.11420 0.29938
#
# Static dielectric constant tensor:
#      x y z
#    x 3.052270 0.000000 0.000000 
#    y 0.000000 3.079210 0.000000 
#    z 0.000000 0.000000 3.217360 
# 
# 
# High freq. dielectric constant tensor:
#      x y z
#    x 1.659840 0.000000 0.000000 
#    y 0.000000 1.653170 0.000000 
#    z 0.000000 0.000000 1.649620 
# 
# From -- ./inp_files/60980.got.cif
#   From: 2010.03.12/outbox.cif.g09.slc.cpg/sg65_31_cif.got.tgz:60980.got - 2010.04.10 20:52:16.
