data_PCOD8265794
_publ_section_title
;
Structure prediction by ZEFSAII (Michael W. Deem and Ramdas Pophale) SiO2 
 PCOD8265794
Probable space group: C M M M
;
_chemical_formula_sum "Si O2"
_cell_formula_units_Z 120
_cell_length_a 34.058128
_cell_length_b 14.090214
_cell_length_c 14.384965
_cell_angle_alpha 90.000000
_cell_angle_beta 90.000000
_cell_angle_gamma 90.000000
_cell_volume 6903.147802
_symmetry_space_group_name_H-M "C M M M"
_symmetry_group_IT_number 65
_symmetry_cell_setting 'orthorhombic'
loop_
_space_group_symop_operation_xyz
x,y,z
-x,-y,z
x,-y,-z
-x,y,-z
-x,-y,-z
x,y,-z
-x,y,z
x,-y,z
1/2+x,1/2+y,z
1/2-x,1/2-y,z
1/2+x,1/2-y,-z
1/2-x,1/2+y,-z
1/2-x,1/2-y,-z
1/2+x,1/2+y,-z
1/2-x,1/2+y,z
1/2+x,1/2-y,z
loop_
_atom_site_type_symbol
_atom_site_label
_atom_site_fract_x
_atom_site_fract_y
_atom_site_fract_z
Si Si1 0.727925 0.613333 0.104790
Si Si2 0.079490 0.795167 0.892349
Si Si3 0.620973 0.108142 0.107066
Si Si4 0.000000 0.108379 0.110111
Si Si5 0.848659 0.886520 0.208628
Si Si6 0.263889 0.143470 0.397424
Si Si7 0.302771 0.890391 0.788445
Si Si8 0.178294 0.103794 0.600471
O O1 0.727827 0.500000 0.109489
O O2 0.688016 0.653685 0.149969
O O3 0.765484 0.656477 0.159377
O O4 0.730019 0.650501 0.000000
O O5 0.084517 0.681063 0.878470
O O6 0.037511 0.831348 0.855105
O O7 0.111066 0.852560 0.833938
O O8 0.085038 0.822713 0.000000
O O9 0.655936 0.149613 0.172517
O O10 0.608134 0.000000 0.133613
O O11 0.635318 0.110869 0.000000
O O12 0.000000 0.000000 0.150052
O O13 0.000000 0.103138 0.000000
O O14 0.843792 0.844499 0.314073
O O15 0.847722 0.000000 0.210630
O O16 0.280198 0.115710 0.500000
O O17 0.250000 0.250000 0.394809
O O18 0.298159 0.123569 0.322624
O O19 0.224197 0.086330 0.373895
O O20 0.303847 0.000000 0.815276
O O21 0.174025 0.158524 0.500000
O O22 0.159488 0.000000 0.589074
#
# Coordination Sequence:
#
# PCOD8265794 Si02
#       8
#    16  16  16   8  16  16  16  16
#     4   9  16  25  38  59  88 121 158 196 234 278
#     4  10  20  33  51  74  99 128 157 190 238 291
#     4   9  19  34  49  67  94 128 167 207 242 279
#     4   9  18  34  55  79 106 130 151 180 227 293
#     4  10  18  28  44  69  96 124 158 199 245 293
#     4  10  20  30  41  59  85 120 164 213 256 289
#     4  10  18  29  45  62  84 123 165 203 246 283
#     4   9  17  30  45  60  84 120 161 203 246 291
#
# _framework density 17.383374
#
# number of rings (size 3 to 8) (size 9 to 14) (size 15 to 20)
#    0.000    2.467    1.333    1.600    1.867    3.733 
#    0.000    0.333    0.000    5.200    0.000    0.467 
#    0.000    2.667    0.000    0.000    0.000    6.000 
#
# Total GULP energy -743498.166786 kJ/mol
# GULP energy per Si atom -12391.636113 kJ/mol
# Density = 1.734381 g / cm^3
# Si number density = 17.383374 Si / 1000 Ang^3
#
#
#
# Elastic Constant Matrix: (Units=GPa)
#
#
# Indices 1 2 3 4 5 6 
#
# 1 113.6145 43.2747 49.7213 0.0000 0.0000 0.0000
# 2 43.2747 52.2558 22.1126 0.0000 0.0000 0.0000
# 3 49.7213 22.1126 111.1646 0.0000 0.0000 0.0000
# 4 0.0000 0.0000 0.0000 13.5810 0.0000 0.0000
# 5 0.0000 0.0000 0.0000 0.0000 24.4552 0.0000
# 6 0.0000 0.0000 0.0000 0.0000 0.0000 24.5494
#
#
#
# Elastic Compliance Matrix: (Units=1/GPa)
#
#
# Indices 1 2 3 4 5 6 
#
# 1 0.014687 -0.010245 -0.004531 0.000000 0.000000 0.000000
# 2 -0.010245 0.028042 -0.000996 0.000000 0.000000 0.000000
# 3 -0.004531 -0.000996 0.011220 0.000000 0.000000 0.000000
# 4 0.000000 0.000000 0.000000 0.073632 0.000000 0.000000
# 5 0.000000 0.000000 0.000000 0.000000 0.040891 0.000000
# 6 0.000000 0.000000 0.000000 0.000000 0.000000 0.040734
#
#
# Mechanical properties :
#
#
# Convention : Reuss Voigt Hill
#
# Bulk Modulus (GPa) = 44.63180 56.36134 50.49657
# Shear Modulus (GPa) = 20.14338 23.31220 21.72779
#
# Velocity S-wave (km/s) = 3.40777 3.66603 3.53925
# Velocity P-wave (km/s) = 6.41986 7.10018 6.76857
#
# Compressibility (1/GPa) = 0.02240555
#
# Stress axis : x y z
#
# Youngs Moduli (GPa) = 68.08712 35.66017 89.12324
#
# Poissons Ratio (x) = 0.36535 0.40383
# Poissons Ratio (y) = 0.69758 0.08873
# Poissons Ratio (z) = 0.30852 0.03550
#
# Static dielectric constant tensor:
#      x y z
#    x 3.272320 0.000000 0.000000 
#    y 0.000000 3.267300 0.000000 
#    z 0.000000 0.000000 3.402230 
# 
# 
# High freq. dielectric constant tensor:
#      x y z
#    x 1.618420 0.000000 0.000000 
#    y 0.000000 1.677970 0.000000 
#    z 0.000000 0.000000 1.665360 
# 
# From -- ./inp_files/48068.got.cif
#   From: 2010.03.12/outbox.cif.g09.slc.cpg/sg65_25_cif.got.tgz:48068.got - 2010.04.10 20:52:16.
