data_PCOD8265733
_publ_section_title
;
Structure prediction by ZEFSAII (Michael W. Deem and Ramdas Pophale) SiO2 
 PCOD8265733
Probable space group: C M M M
;
_chemical_formula_sum "Si O2"
_cell_formula_units_Z 104
_cell_length_a 14.440585
_cell_length_b 26.917157
_cell_length_c 17.572074
_cell_angle_alpha 90.000000
_cell_angle_beta 90.000000
_cell_angle_gamma 90.000000
_cell_volume 6830.256266
_symmetry_space_group_name_H-M "C M M M"
_symmetry_group_IT_number 65
_symmetry_cell_setting 'orthorhombic'
loop_
_space_group_symop_operation_xyz
x,y,z
-x,-y,z
x,-y,-z
-x,y,-z
-x,-y,-z
x,y,-z
-x,y,z
x,-y,z
1/2+x,1/2+y,z
1/2-x,1/2-y,z
1/2+x,1/2-y,-z
1/2-x,1/2+y,-z
1/2-x,1/2-y,-z
1/2+x,1/2+y,-z
1/2-x,1/2+y,z
1/2+x,1/2-y,z
loop_
_atom_site_type_symbol
_atom_site_label
_atom_site_fract_x
_atom_site_fract_y
_atom_site_fract_z
Si Si1 0.209159 0.559132 0.852010
Si Si2 0.208576 0.372357 0.590117
Si Si3 0.101321 0.832534 0.590219
Si Si4 0.603962 0.059227 0.000000
Si Si5 0.101355 0.059041 0.913995
Si Si6 0.892827 0.441153 0.701649
Si Si7 0.893879 0.276927 0.412807
O O1 0.204556 0.500000 0.851346
O O2 0.154358 0.579925 0.924986
O O3 0.316164 0.577942 0.858536
O O4 0.160383 0.579655 0.776099
O O5 0.192701 0.377765 0.500000
O O6 0.318242 0.371696 0.611729
O O7 0.157850 0.418732 0.628291
O O8 0.166977 0.320887 0.623923
O O9 0.096075 0.826179 0.500000
O O10 0.123924 0.777453 0.624346
O O11 0.000000 0.850994 0.620002
O O12 0.500000 0.079811 0.000000
O O13 0.605521 0.000000 0.000000
O O14 0.000000 0.077821 0.885040
O O15 0.102534 0.000000 0.915419
O O16 0.119170 0.078293 0.000000
O O17 0.884684 0.500000 0.695085
O O18 0.000000 0.424627 0.705335
O O19 0.863503 0.274004 0.500000
O O20 0.000000 0.292607 0.403432
#
# Coordination Sequence:
#
# PCOD8265733 Si02
#       7
#    16  16  16   8  16  16  16
#     4   9  15  25  38  53  73  97 126 161 201 242
#     4  10  18  28  43  59  77 107 144 175 206 245
#     4   8  14  25  42  64  85 100 118 155 210 264
#     4   9  14  20  35  55  69  87 119 156 195 245
#     4   8  12  19  34  56  77  93 112 144 189 240
#     4  10  21  33  41  52  75 107 143 183 214 231
#     4   8  13  22  39  64  87 101 119 154 203 259
#
# _framework density 15.226368000000001
#
# number of rings (size 3 to 8) (size 9 to 14) (size 15 to 20)
#    0.000    3.154    0.769    2.769    0.000    4.923 
#    0.000    1.538    0.000    1.385    0.000    2.154 
#    0.000    0.000    0.000    2.769    0.000    8.923 
#
# Total GULP energy -644201.996682 kJ/mol
# GULP energy per Si atom -12388.499936 kJ/mol
# Density = 1.519171 g / cm^3
# Si number density = 15.226368 Si / 1000 Ang^3
#
#
#
# Elastic Constant Matrix: (Units=GPa)
#
#
# Indices 1 2 3 4 5 6 
#
# 1 137.7961 31.1556 49.2190 0.0000 0.0000 0.0000
# 2 31.1556 22.1095 18.7734 0.0000 0.0000 0.0000
# 3 49.2190 18.7734 58.9092 0.0000 0.0000 0.0000
# 4 0.0000 0.0000 0.0000 1.0011 0.0000 0.0000
# 5 0.0000 0.0000 0.0000 0.0000 22.4362 0.0000
# 6 0.0000 0.0000 0.0000 0.0000 0.0000 17.9445
#
#
#
# Elastic Compliance Matrix: (Units=1/GPa)
#
#
# Indices 1 2 3 4 5 6 
#
# 1 0.012220 -0.011723 -0.006474 0.000000 0.000000 0.000000
# 2 -0.011723 0.073254 -0.013551 0.000000 0.000000 0.000000
# 3 -0.006474 -0.013551 0.026703 0.000000 0.000000 0.000000
# 4 0.000000 0.000000 0.000000 0.998936 0.000000 0.000000
# 5 0.000000 0.000000 0.000000 0.000000 0.044571 0.000000
# 6 0.000000 0.000000 0.000000 0.000000 0.000000 0.055727
#
#
# Mechanical properties :
#
#
# Convention : Reuss Voigt Hill
#
# Bulk Modulus (GPa) = 20.54129 46.34565 33.44347
# Shear Modulus (GPa) = 3.87257 16.25414 10.06335
#
# Velocity S-wave (km/s) = 1.59651 3.27081 2.57362
# Velocity P-wave (km/s) = 4.11319 6.69089 5.55367
#
# Compressibility (1/GPa) = 0.04868243
#
# Stress axis : x y z
#
# Youngs Moduli (GPa) = 81.83272 13.65109 37.44928
#
# Poissons Ratio (x) = 0.16003 0.24245
# Poissons Ratio (y) = 0.95930 0.50746
# Poissons Ratio (z) = 0.52980 0.18498
#
# Static dielectric constant tensor:
#      x y z
#    x 3.400390 0.000000 0.000000 
#    y 0.000000 2.502770 0.000000 
#    z 0.000000 0.000000 2.659300 
# 
# 
# High freq. dielectric constant tensor:
#      x y z
#    x 1.611500 0.000000 0.000000 
#    y 0.000000 1.521430 0.000000 
#    z 0.000000 0.000000 1.540820 
# 
# From -- ./inp_files/53503.got.cif
#   From: 2010.03.12/outbox.cif.g09.slc.cpg/sg65_27_cif.got.tgz:53503.got - 2010.04.10 20:52:16.
