data_PCOD8265463
_publ_section_title
;
Structure prediction by ZEFSAII (Michael W. Deem and Ramdas Pophale) SiO2 
 PCOD8265463
Probable space group: C M M M
;
_chemical_formula_sum "Si O2"
_cell_formula_units_Z 128
_cell_length_a 23.020827
_cell_length_b 18.401978
_cell_length_c 16.780777
_cell_angle_alpha 90.000000
_cell_angle_beta 90.000000
_cell_angle_gamma 90.000000
_cell_volume 7108.819618
_symmetry_space_group_name_H-M "C M M M"
_symmetry_group_IT_number 65
_symmetry_cell_setting 'orthorhombic'
loop_
_space_group_symop_operation_xyz
x,y,z
-x,-y,z
x,-y,-z
-x,y,-z
-x,-y,-z
x,y,-z
-x,y,z
x,-y,z
1/2+x,1/2+y,z
1/2-x,1/2-y,z
1/2+x,1/2-y,-z
1/2-x,1/2+y,-z
1/2-x,1/2-y,-z
1/2+x,1/2+y,-z
1/2-x,1/2+y,z
1/2+x,1/2-y,z
loop_
_atom_site_type_symbol
_atom_site_label
_atom_site_fract_x
_atom_site_fract_y
_atom_site_fract_z
Si Si1 0.065424 0.345674 0.231054
Si Si2 0.336812 0.419184 0.200904
Si Si3 0.734128 0.828837 0.149489
Si Si4 0.872416 0.583648 0.090176
Si Si5 0.676581 0.161146 0.319196
Si Si6 0.862859 0.201729 0.411800
Si Si7 0.065701 0.820428 0.259897
Si Si8 0.219102 0.920695 0.373206
O O1 0.077490 0.384431 0.147011
O O2 0.112716 0.371417 0.297120
O O3 0.072515 0.259016 0.221032
O O4 0.000000 0.365341 0.259424
O O5 0.349181 0.500000 0.167050
O O6 0.292242 0.377133 0.143945
O O7 0.396965 0.375381 0.206582
O O8 0.307731 0.424317 0.286259
O O9 0.750000 0.750000 0.113330
O O10 0.686166 0.869663 0.097187
O O11 0.710013 0.816304 0.238700
O O12 0.859365 0.500000 0.113964
O O13 0.895567 0.588886 0.000000
O O14 0.672269 0.231335 0.374822
O O15 0.713016 0.101205 0.367187
O O16 0.887631 0.220743 0.500000
O O17 0.915112 0.180131 0.352741
O O18 0.817403 0.136285 0.424414
O O19 0.000000 0.848280 0.257393
O O20 0.216067 0.000000 0.414067
#
# Coordination Sequence:
#
# PCOD8265463 Si02
#       8
#    16  16  16  16  16  16  16  16
#     4   9  18  33  51  68  91 126 165 200 234 277
#     4   9  16  27  46  70  92 119 157 197 236 278
#     4  10  17  30  51  71  97 131 163 196 234 277
#     4  10  21  34  48  73 108 136 157 187 229 278
#     4   9  17  30  47  68  91 120 157 198 241 281
#     4  10  19  30  45  66  92 121 154 194 241 291
#     4   9  18  33  50  68  92 123 161 203 242 282
#     4   9  17  28  42  62  89 119 151 189 233 283
#
# _framework density 18.005801999999999
#
# number of rings (size 3 to 8) (size 9 to 14) (size 15 to 20)
#    0.000    2.625    0.000    4.500    0.000    5.500 
#    0.000    0.625    0.000    0.000    0.000    3.500 
#    0.000    0.000    0.000   42.375    0.000    1.375 
#
# Total GULP energy -793361.519164 kJ/mol
# GULP energy per Si atom -12396.273737 kJ/mol
# Density = 1.796482 g / cm^3
# Si number density = 18.005802 Si / 1000 Ang^3
#
#
#
# Elastic Constant Matrix: (Units=GPa)
#
#
# Indices 1 2 3 4 5 6 
#
# 1 122.2773 42.0476 15.2598 0.0000 0.0000 0.0000
# 2 42.0476 100.9800 32.7350 0.0000 0.0000 0.0000
# 3 15.2598 32.7350 48.8993 0.0000 0.0000 0.0000
# 4 0.0000 0.0000 0.0000 6.4509 0.0000 0.0000
# 5 0.0000 0.0000 0.0000 0.0000 11.4463 0.0000
# 6 0.0000 0.0000 0.0000 0.0000 0.0000 18.6441
#
#
#
# Elastic Compliance Matrix: (Units=1/GPa)
#
#
# Indices 1 2 3 4 5 6 
#
# 1 0.009551 -0.003845 -0.000406 0.000000 0.000000 0.000000
# 2 -0.003845 0.014196 -0.008303 0.000000 0.000000 0.000000
# 3 -0.000406 -0.008303 0.026135 0.000000 0.000000 0.000000
# 4 0.000000 0.000000 0.000000 0.155017 0.000000 0.000000
# 5 0.000000 0.000000 0.000000 0.000000 0.087365 0.000000
# 6 0.000000 0.000000 0.000000 0.000000 0.000000 0.053636
#
#
# Mechanical properties :
#
#
# Convention : Reuss Voigt Hill
#
# Bulk Modulus (GPa) = 40.36715 50.24904 45.30809
# Shear Modulus (GPa) = 13.18331 19.44921 16.31626
#
# Velocity S-wave (km/s) = 2.70880 3.29015 3.01353
# Velocity P-wave (km/s) = 5.67901 6.51162 6.10951
#
# Compressibility (1/GPa) = 0.02477262
#
# Stress axis : x y z
#
# Youngs Moduli (GPa) = 104.69959 70.44333 38.26214
#
# Poissons Ratio (x) = 0.27088 0.01555
# Poissons Ratio (y) = 0.40260 0.31770
# Poissons Ratio (z) = 0.04255 0.58491
#
# Static dielectric constant tensor:
#      x y z
#    x 3.381180 0.000000 0.000000 
#    y 0.000000 3.544660 0.000000 
#    z 0.000000 0.000000 2.954040 
# 
# 
# High freq. dielectric constant tensor:
#      x y z
#    x 1.692780 0.000000 0.000000 
#    y 0.000000 1.700990 0.000000 
#    z 0.000000 0.000000 1.659050 
# 
# From -- ./inp_files/56973.got.cif
#   From: 2010.03.12/outbox.cif.g09.slc.cpg/sg65_29_cif.got.tgz:56973.got - 2010.04.10 20:52:16.
