data_PCOD8265207
_publ_section_title
;
Structure prediction by ZEFSAII (Michael W. Deem and Ramdas Pophale) SiO2 
 PCOD8265207
Probable space group: C M M M
;
_chemical_formula_sum "Si O2"
_cell_formula_units_Z 88
_cell_length_a 22.320454
_cell_length_b 20.372758
_cell_length_c 12.926408
_cell_angle_alpha 90.000000
_cell_angle_beta 90.000000
_cell_angle_gamma 90.000000
_cell_volume 5878.015269
_symmetry_space_group_name_H-M "C M M M"
_symmetry_group_IT_number 65
_symmetry_cell_setting 'orthorhombic'
loop_
_space_group_symop_operation_xyz
x,y,z
-x,-y,z
x,-y,-z
-x,y,-z
-x,-y,-z
x,y,-z
-x,y,z
x,-y,z
1/2+x,1/2+y,z
1/2-x,1/2-y,z
1/2+x,1/2-y,-z
1/2-x,1/2+y,-z
1/2-x,1/2-y,-z
1/2+x,1/2+y,-z
1/2-x,1/2+y,z
1/2+x,1/2-y,z
loop_
_atom_site_type_symbol
_atom_site_label
_atom_site_fract_x
_atom_site_fract_y
_atom_site_fract_z
Si Si1 0.858151 0.879264 0.806845
Si Si2 0.337156 0.299597 0.614921
Si Si3 0.778609 0.576477 0.195689
Si Si4 0.429138 0.500000 0.118428
Si Si5 0.835954 0.202585 0.000000
Si Si6 0.700093 0.158680 0.385139
Si Si7 0.200322 0.656337 0.000000
O O1 0.873114 0.842028 0.699406
O O2 0.792210 0.910505 0.806499
O O3 0.866859 0.826758 0.898216
O O4 0.906158 0.936385 0.821194
O O5 0.362752 0.314858 0.500000
O O6 0.342004 0.221696 0.638929
O O7 0.268142 0.318509 0.620739
O O8 0.791220 0.500000 0.185743
O O9 0.809959 0.602052 0.300795
O O10 0.811263 0.612666 0.101053
O O11 0.500000 0.500000 0.120461
O O12 0.404777 0.500000 0.000000
O O13 0.844307 0.281306 0.000000
O O14 0.766950 0.183688 0.000000
O O15 0.685658 0.131029 0.500000
#
# Coordination Sequence:
#
# PCOD8265207 Si02
#       7
#    16  16  16   8   8  16   8
#     4  10  17  28  43  56  72  97 134 172 205 243
#     4   8  14  25  41  57  74  97 127 166 202 231
#     4  10  17  23  35  53  79 109 134 160 195 233
#     4  11  22  34  45  59  79 103 134 177 225 259
#     4   9  16  25  40  55  70  91 126 168 205 235
#     4   8  14  24  36  54  78 101 130 165 193 221
#     4   9  17  24  33  54  76  96 123 163 202 236
#
# _framework density 14.971038999999999
#
# number of rings (size 3 to 8) (size 9 to 14) (size 15 to 20)
#    0.000    2.818    1.818    2.455    0.000    4.727 
#    0.000    0.455    0.000    1.091    0.000    0.000 
#    0.000    0.000    0.000    0.000    0.000   37.273 
#
# Total GULP energy -545387.918369 kJ/mol
# GULP energy per Si atom -12395.179963 kJ/mol
# Density = 1.493696 g / cm^3
# Si number density = 14.971039 Si / 1000 Ang^3
#
#
#
# Elastic Constant Matrix: (Units=GPa)
#
#
# Indices 1 2 3 4 5 6 
#
# 1 19.2425 19.8049 19.9854 0.0000 0.0000 0.0000
# 2 19.8049 129.9859 78.3938 0.0000 0.0000 0.0000
# 3 19.9854 78.3938 139.4494 0.0000 0.0000 0.0000
# 4 0.0000 0.0000 0.0000 23.3444 0.0000 0.0000
# 5 0.0000 0.0000 0.0000 0.0000 7.8899 0.0000
# 6 0.0000 0.0000 0.0000 0.0000 0.0000 8.4875
#
#
#
# Elastic Compliance Matrix: (Units=1/GPa)
#
#
# Indices 1 2 3 4 5 6 
#
# 1 0.064419 -0.006426 -0.005620 0.000000 0.000000 0.000000
# 2 -0.006426 0.012280 -0.005983 0.000000 0.000000 0.000000
# 3 -0.005620 -0.005983 0.011340 0.000000 0.000000 0.000000
# 4 0.000000 0.000000 0.000000 0.042837 0.000000 0.000000
# 5 0.000000 0.000000 0.000000 0.000000 0.126745 0.000000
# 6 0.000000 0.000000 0.000000 0.000000 0.000000 0.117821
#
#
# Mechanical properties :
#
#
# Convention : Reuss Voigt Hill
#
# Bulk Modulus (GPa) = 19.23738 58.33844 38.78791
# Shear Modulus (GPa) = 11.65978 19.31060 15.48519
#
# Velocity S-wave (km/s) = 2.79377 3.59536 3.21961
# Velocity P-wave (km/s) = 4.82540 7.50251 6.30762
#
# Compressibility (1/GPa) = 0.05198214
#
# Stress axis : x y z
#
# Youngs Moduli (GPa) = 15.52348 81.43141 88.18527
#
# Poissons Ratio (x) = 0.52324 0.49560
# Poissons Ratio (y) = 0.09975 0.52758
# Poissons Ratio (z) = 0.08724 0.48718
#
# Static dielectric constant tensor:
#      x y z
#    x 2.199650 0.000000 0.000000 
#    y 0.000000 2.990750 0.000000 
#    z 0.000000 0.000000 3.258020 
# 
# 
# High freq. dielectric constant tensor:
#      x y z
#    x 1.481800 0.000000 0.000000 
#    y 0.000000 1.579260 0.000000 
#    z 0.000000 0.000000 1.592310 
# 
# From -- ./inp_files/44346.got.cif
#   From: 2010.03.12/outbox.cif.g09.slc.cpg/sg65_23_cif.got.tgz:44346.got - 2010.04.10 20:52:16.
