data_PCOD8265858
_publ_section_title
;
Structure prediction by ZEFSAII (Michael W. Deem and Ramdas Pophale) SiO2 
 PCOD8265858
Probable space group: C M M M
;
_chemical_formula_sum "Si O2"
_cell_formula_units_Z 112
_cell_length_a 13.935092
_cell_length_b 14.795732
_cell_length_c 27.272232
_cell_angle_alpha 90.000000
_cell_angle_beta 90.000000
_cell_angle_gamma 90.000000
_cell_volume 5622.985702
_symmetry_space_group_name_H-M "C M M M"
_symmetry_group_IT_number 65
_symmetry_cell_setting 'orthorhombic'
loop_
_space_group_symop_operation_xyz
x,y,z
-x,-y,z
x,-y,-z
-x,y,-z
-x,-y,-z
x,y,-z
-x,y,z
x,-y,z
1/2+x,1/2+y,z
1/2-x,1/2-y,z
1/2+x,1/2-y,-z
1/2-x,1/2+y,-z
1/2-x,1/2-y,-z
1/2+x,1/2+y,-z
1/2-x,1/2+y,z
1/2+x,1/2-y,z
loop_
_atom_site_type_symbol
_atom_site_label
_atom_site_fract_x
_atom_site_fract_y
_atom_site_fract_z
Si Si1 0.394873 0.124676 0.773834
Si Si2 0.392560 0.107726 0.055011
Si Si3 0.238665 0.401393 0.860726
Si Si4 0.390008 0.237065 0.557371
Si Si5 0.265077 0.396376 0.594190
Si Si6 0.237927 0.856174 0.703013
Si Si7 0.893656 0.164900 0.790620
O O1 0.500000 0.081495 0.768877
O O2 0.342620 0.082086 0.820127
O O3 0.336916 0.102835 0.724116
O O4 0.400766 0.230626 0.780919
O O5 0.500000 0.143248 0.068298
O O6 0.312510 0.147336 0.092572
O O7 0.392623 0.000000 0.058981
O O8 0.365388 0.138733 0.000000
O O9 0.278264 0.500000 0.876117
O O10 0.328401 0.345455 0.839363
O O11 0.379375 0.218559 0.500000
O O12 0.500000 0.235225 0.574747
O O13 0.348031 0.336684 0.568775
O O14 0.335601 0.155582 0.585195
O O15 0.263410 0.500000 0.573482
O O16 0.286718 0.403426 0.651993
O O17 0.250000 0.750000 0.693915
O O18 0.155321 0.880132 0.742862
O O19 0.000000 0.122930 0.798624
#
# Coordination Sequence:
#
# PCOD8265858 Si02
#       7
#    16  16  16  16  16  16  16
#     4   9  18  32  51  72  98 136 173 205 249 311
#     4   8  14  25  42  66  95 125 159 204 262 322
#     4  10  18  28  46  71  98 125 160 212 264 307
#     4  10  23  43  64  87 118 156 194 235 286 344
#     4  11  22  38  62  91 119 150 190 240 291 339
#     4   9  17  33  51  78 106 140 177 220 262 317
#     4   9  19  34  51  69  96 141 182 207 242 303
#
# _framework density 19.918244000000001
#
# number of rings (size 3 to 8) (size 9 to 14) (size 15 to 20)
#    0.000    2.571    1.429    3.000    0.000    6.286 
#    0.000    1.429    0.000    2.143    0.000    4.000 
#    0.000    0.000    0.000    0.000    0.000    0.000 
#
# Total GULP energy -693954.361203 kJ/mol
# GULP energy per Si atom -12392.042164 kJ/mol
# Density = 1.987291 g / cm^3
# Si number density = 19.918244 Si / 1000 Ang^3
#
#
#
# Elastic Constant Matrix: (Units=GPa)
#
#
# Indices 1 2 3 4 5 6 
#
# 1 157.7353 31.8060 49.0786 0.0000 0.0000 0.0000
# 2 31.8060 76.1749 13.3792 0.0000 0.0000 0.0000
# 3 49.0786 13.3792 102.7765 0.0000 0.0000 0.0000
# 4 0.0000 0.0000 0.0000 18.3844 0.0000 0.0000
# 5 0.0000 0.0000 0.0000 0.0000 22.5190 0.0000
# 6 0.0000 0.0000 0.0000 0.0000 0.0000 18.0800
#
#
#
# Elastic Compliance Matrix: (Units=1/GPa)
#
#
# Indices 1 2 3 4 5 6 
#
# 1 0.007961 -0.002718 -0.003448 0.000000 0.000000 0.000000
# 2 -0.002718 0.014363 -0.000572 0.000000 0.000000 0.000000
# 3 -0.003448 -0.000572 0.011451 0.000000 0.000000 0.000000
# 4 0.000000 0.000000 0.000000 0.054394 0.000000 0.000000
# 5 0.000000 0.000000 0.000000 0.000000 0.044407 0.000000
# 6 0.000000 0.000000 0.000000 0.000000 0.000000 0.055310
#
#
# Mechanical properties :
#
#
# Convention : Reuss Voigt Hill
#
# Bulk Modulus (GPa) = 49.26314 58.35717 53.81016
# Shear Modulus (GPa) = 24.02390 27.95822 25.99106
#
# Velocity S-wave (km/s) = 3.47670 3.75059 3.61624
# Velocity P-wave (km/s) = 6.39554 6.93671 6.67161
#
# Compressibility (1/GPa) = 0.02029915
#
# Stress axis : x y z
#
# Youngs Moduli (GPa) = 125.61967 69.62288 87.33205
#
# Poissons Ratio (x) = 0.18926 0.30108
# Poissons Ratio (y) = 0.34147 0.04993
# Poissons Ratio (z) = 0.43308 0.03980
#
# Static dielectric constant tensor:
#      x y z
#    x 4.111620 0.000000 0.000000 
#    y 0.000000 3.411060 0.000000 
#    z 0.000000 0.000000 3.691010 
# 
# 
# High freq. dielectric constant tensor:
#      x y z
#    x 1.771750 0.000000 0.000000 
#    y 0.000000 1.758310 0.000000 
#    z 0.000000 0.000000 1.770490 
# 
# From -- ./inp_files/74912.got.cif
#   From: 2010.03.12/outbox.cif.g09.slc.cpg/sg65_38_cif.got.tgz:74912.got - 2010.04.10 20:52:16.
