data_PCOD8265713
_publ_section_title
;
Structure prediction by ZEFSAII (Michael W. Deem and Ramdas Pophale) SiO2 
 PCOD8265713
Probable space group: C M M M
;
_chemical_formula_sum "Si O2"
_cell_formula_units_Z 104
_cell_length_a 27.372145
_cell_length_b 8.852214
_cell_length_c 26.781534
_cell_angle_alpha 90.000000
_cell_angle_beta 90.000000
_cell_angle_gamma 90.000000
_cell_volume 6489.275096
_symmetry_space_group_name_H-M "C M M M"
_symmetry_group_IT_number 65
_symmetry_cell_setting 'orthorhombic'
loop_
_space_group_symop_operation_xyz
x,y,z
-x,-y,z
x,-y,-z
-x,y,-z
-x,-y,-z
x,y,-z
-x,y,z
x,-y,z
1/2+x,1/2+y,z
1/2-x,1/2-y,z
1/2+x,1/2-y,-z
1/2-x,1/2+y,-z
1/2-x,1/2-y,-z
1/2+x,1/2+y,-z
1/2-x,1/2+y,z
1/2+x,1/2-y,z
loop_
_atom_site_type_symbol
_atom_site_label
_atom_site_fract_x
_atom_site_fract_y
_atom_site_fract_z
Si Si1 0.303856 0.680317 0.500000
Si Si2 0.300206 0.677953 0.207009
Si Si3 0.103345 0.178785 0.846418
Si Si4 0.849372 0.324792 0.702382
Si Si5 0.554223 0.175570 0.755784
Si Si6 0.802695 0.677946 0.400971
Si Si7 0.055050 0.179637 0.054737
O O1 0.303773 0.500000 0.500000
O O2 0.250000 0.750000 0.500000
O O3 0.328510 0.744622 0.550616
O O4 0.294562 0.500000 0.207070
O O5 0.250000 0.750000 0.188075
O O6 0.342524 0.733720 0.169071
O O7 0.312721 0.730485 0.262986
O O8 0.063702 0.237441 0.807138
O O9 0.090368 0.242643 0.901577
O O10 0.100447 0.000000 0.845466
O O11 0.839490 0.500000 0.713751
O O12 0.905687 0.279641 0.713858
O O13 0.838514 0.286340 0.644995
O O14 0.500000 0.218032 0.735916
O O15 0.558085 0.000000 0.768300
O O16 0.796059 0.500000 0.410169
O O17 0.750000 0.750000 0.389845
O O18 0.000000 0.238423 0.064185
O O19 0.055126 0.000000 0.055824
O O20 0.073400 0.235825 0.000000
#
# Coordination Sequence:
#
# PCOD8265713 Si02
#       7
#     8  16  16  16  16  16  16
#     4  10  18  28  42  60  83 110 139 169 204 245
#     4  10  19  29  42  60  83 111 141 174 209 247
#     4   9  17  28  43  63  84 108 140 174 208 247
#     4   9  18  30  44  63  86 113 142 172 206 245
#     4   9  17  29  44  63  88 115 140 167 205 251
#     4  10  18  28  42  60  84 111 139 170 204 241
#     4   8  13  22  39  63  86 105 129 167 212 251
#
# _framework density 16.026443
#
# number of rings (size 3 to 8) (size 9 to 14) (size 15 to 20)
#    0.000    2.769    0.000    3.923    0.000    4.000 
#    0.000    0.000    0.000    0.923    0.000    2.692 
#    0.000    4.308    0.000    0.000    0.000    0.462 
#
# Total GULP energy -644530.837694 kJ/mol
# GULP energy per Si atom -12394.823802 kJ/mol
# Density = 1.598997 g / cm^3
# Si number density = 16.026443 Si / 1000 Ang^3
#
#
#
# Elastic Constant Matrix: (Units=GPa)
#
#
# Indices 1 2 3 4 5 6 
#
# 1 96.3210 24.8115 61.4626 0.0000 0.0000 0.0000
# 2 24.8115 45.8824 35.4266 0.0000 0.0000 0.0000
# 3 61.4626 35.4266 145.2018 0.0000 0.0000 0.0000
# 4 0.0000 0.0000 0.0000 17.8139 0.0000 0.0000
# 5 0.0000 0.0000 0.0000 0.0000 22.1805 0.0000
# 6 0.0000 0.0000 0.0000 0.0000 0.0000 16.2689
#
#
#
# Elastic Compliance Matrix: (Units=1/GPa)
#
#
# Indices 1 2 3 4 5 6 
#
# 1 0.014767 -0.003893 -0.005301 0.000000 0.000000 0.000000
# 2 -0.003893 0.027880 -0.005154 0.000000 0.000000 0.000000
# 3 -0.005301 -0.005154 0.010388 0.000000 0.000000 0.000000
# 4 0.000000 0.000000 0.000000 0.056136 0.000000 0.000000
# 5 0.000000 0.000000 0.000000 0.000000 0.045085 0.000000
# 6 0.000000 0.000000 0.000000 0.000000 0.000000 0.061467
#
#
# Mechanical properties :
#
#
# Convention : Reuss Voigt Hill
#
# Bulk Modulus (GPa) = 41.08602 58.97851 50.03227
# Shear Modulus (GPa) = 19.79944 22.29962 21.04953
#
# Velocity S-wave (km/s) = 3.51867 3.73423 3.62805
# Velocity P-wave (km/s) = 6.49616 7.44804 6.98833
#
# Compressibility (1/GPa) = 0.02433918
#
# Stress axis : x y z
#
# Youngs Moduli (GPa) = 67.71708 35.86849 96.26037
#
# Poissons Ratio (x) = 0.13962 0.51029
# Poissons Ratio (y) = 0.26359 0.49617
# Poissons Ratio (z) = 0.35898 0.18488
#
# Static dielectric constant tensor:
#      x y z
#    x 3.083810 0.000000 0.000000 
#    y 0.000000 2.949310 0.000000 
#    z 0.000000 0.000000 3.452430 
# 
# 
# High freq. dielectric constant tensor:
#      x y z
#    x 1.593540 0.000000 0.000000 
#    y 0.000000 1.608870 0.000000 
#    z 0.000000 0.000000 1.613760 
# 
# From -- ./inp_files/76054.got.cif
#   From: 2010.03.12/outbox.cif.g09.slc.cpg/sg65_39_cif.got.tgz:76054.got - 2010.04.10 20:52:16.
