data_PCOD8265692
_publ_section_title
;
Structure prediction by ZEFSAII (Michael W. Deem and Ramdas Pophale) SiO2 
 PCOD8265692
Probable space group: C M M M
;
_chemical_formula_sum "Si O2"
_cell_formula_units_Z 64
_cell_length_a 34.197629
_cell_length_b 9.295941
_cell_length_c 12.762770
_cell_angle_alpha 90.000000
_cell_angle_beta 90.000000
_cell_angle_gamma 90.000000
_cell_volume 4057.273626
_symmetry_space_group_name_H-M "C M M M"
_symmetry_group_IT_number 65
_symmetry_cell_setting 'orthorhombic'
loop_
_space_group_symop_operation_xyz
x,y,z
-x,-y,z
x,-y,-z
-x,y,-z
-x,-y,-z
x,y,-z
-x,y,z
x,-y,z
1/2+x,1/2+y,z
1/2-x,1/2-y,z
1/2+x,1/2-y,-z
1/2-x,1/2+y,-z
1/2-x,1/2-y,-z
1/2+x,1/2+y,-z
1/2-x,1/2+y,z
1/2+x,1/2-y,z
loop_
_atom_site_type_symbol
_atom_site_label
_atom_site_fract_x
_atom_site_fract_y
_atom_site_fract_z
Si Si1 0.075082 0.166103 0.376454
Si Si2 0.289182 0.668213 0.881201
Si Si3 0.000000 0.662388 0.375333
Si Si4 0.209107 0.828640 0.500000
Si Si5 0.157895 0.169895 0.306084
O O1 0.081415 0.185593 0.500000
O O2 0.038519 0.256997 0.333450
O O3 0.113723 0.228460 0.318700
O O4 0.067081 0.000000 0.348942
O O5 0.280594 0.500000 0.867448
O O6 0.250000 0.750000 0.847830
O O7 0.324453 0.718389 0.805798
O O8 0.301407 0.706466 0.000000
O O9 0.000000 0.500000 0.332424
O O10 0.000000 0.666547 0.500000
O O11 0.250000 0.750000 0.500000
O O12 0.185648 0.773252 0.601553
O O13 0.215334 0.000000 0.500000
O O14 0.155418 0.000000 0.316606
#
# Coordination Sequence:
#
# PCOD8265692 Si02
#       5
#    16  16   8   8  16
#     4   9  15  26  43  60  78 107 142 169 195 240
#     4   9  17  29  44  61  82 109 141 177 213 245
#     4   9  17  27  39  59  88 113 130 160 205 246
#     4  10  18  28  40  57  82 111 139 168 203 244
#     4   9  16  27  43  61  82 108 140 174 205 239
#
# _framework density 15.774139
#
# number of rings (size 3 to 8) (size 9 to 14) (size 15 to 20)
#    0.000    2.875    1.250    1.125    0.000    1.500 
#    0.000    2.500    0.000    0.000    0.000    0.875 
#    0.000    7.000    0.000    0.000    0.000    0.000 
#
# Total GULP energy -396714.341705 kJ/mol
# GULP energy per Si atom -12397.323178 kJ/mol
# Density = 1.573824 g / cm^3
# Si number density = 15.774139 Si / 1000 Ang^3
#
#
#
# Elastic Constant Matrix: (Units=GPa)
#
#
# Indices 1 2 3 4 5 6 
#
# 1 175.6380 54.5376 63.3112 0.0000 0.0000 0.0000
# 2 54.5376 50.5656 24.8988 0.0000 0.0000 0.0000
# 3 63.3112 24.8988 73.2866 0.0000 0.0000 0.0000
# 4 0.0000 0.0000 0.0000 9.9751 0.0000 0.0000
# 5 0.0000 0.0000 0.0000 0.0000 21.3091 0.0000
# 6 0.0000 0.0000 0.0000 0.0000 0.0000 25.0061
#
#
#
# Elastic Compliance Matrix: (Units=1/GPa)
#
#
# Indices 1 2 3 4 5 6 
#
# 1 0.010522 -0.008253 -0.006286 0.000000 0.000000 0.000000
# 2 -0.008253 0.030223 -0.003138 0.000000 0.000000 0.000000
# 3 -0.006286 -0.003138 0.020141 0.000000 0.000000 0.000000
# 4 0.000000 0.000000 0.000000 0.100250 0.000000 0.000000
# 5 0.000000 0.000000 0.000000 0.000000 0.046928 0.000000
# 6 0.000000 0.000000 0.000000 0.000000 0.000000 0.039990
#
#
# Mechanical properties :
#
#
# Convention : Reuss Voigt Hill
#
# Bulk Modulus (GPa) = 39.16660 64.99839 52.08249
# Shear Modulus (GPa) = 17.12791 21.70757 19.41774
#
# Velocity S-wave (km/s) = 3.29876 3.71367 3.51235
# Velocity P-wave (km/s) = 6.27635 7.72552 7.03833
#
# Compressibility (1/GPa) = 0.02553196
#
# Stress axis : x y z
#
# Youngs Moduli (GPa) = 95.03760 33.08698 49.64879
#
# Poissons Ratio (x) = 0.27308 0.31208
# Poissons Ratio (y) = 0.78439 0.15581
# Poissons Ratio (z) = 0.59739 0.10383
#
# Static dielectric constant tensor:
#      x y z
#    x 3.207070 0.000000 0.000000 
#    y 0.000000 2.825650 0.000000 
#    z 0.000000 0.000000 2.905610 
# 
# 
# High freq. dielectric constant tensor:
#      x y z
#    x 1.612840 0.000000 0.000000 
#    y 0.000000 1.582580 0.000000 
#    z 0.000000 0.000000 1.574460 
# 
# From -- ./inp_files/46393.got.cif
#   From: 2010.03.12/outbox.cif.g09.slc.cpg/sg65_24_cif.got.tgz:46393.got - 2010.04.10 20:52:16.
