data_PCOD8265351
_publ_section_title
;
Structure prediction by ZEFSAII (Michael W. Deem and Ramdas Pophale) SiO2 
 PCOD8265351
Probable space group: C M M M
;
_chemical_formula_sum "Si O2"
_cell_formula_units_Z 88
_cell_length_a 22.937792
_cell_length_b 24.596225
_cell_length_c 8.943972
_cell_angle_alpha 90.000000
_cell_angle_beta 90.000000
_cell_angle_gamma 90.000000
_cell_volume 5046.037787
_symmetry_space_group_name_H-M "C M M M"
_symmetry_group_IT_number 65
_symmetry_cell_setting 'orthorhombic'
loop_
_space_group_symop_operation_xyz
x,y,z
-x,-y,z
x,-y,-z
-x,y,-z
-x,-y,-z
x,y,-z
-x,y,z
x,-y,z
1/2+x,1/2+y,z
1/2-x,1/2-y,z
1/2+x,1/2-y,-z
1/2-x,1/2+y,-z
1/2-x,1/2-y,-z
1/2+x,1/2+y,-z
1/2-x,1/2+y,z
1/2+x,1/2-y,z
loop_
_atom_site_type_symbol
_atom_site_label
_atom_site_fract_x
_atom_site_fract_y
_atom_site_fract_z
Si Si1 0.389741 0.129961 0.677876
Si Si2 0.217672 0.439435 0.322494
Si Si3 0.152469 0.060583 0.677671
Si Si4 0.932833 0.264769 0.824323
Si Si5 0.566944 0.346965 0.675560
Si Si6 0.000000 0.438926 0.322478
O O1 0.390911 0.136154 0.500000
O O2 0.330058 0.102924 0.738147
O O3 0.393256 0.189157 0.750322
O O4 0.442964 0.092628 0.735028
O O5 0.214542 0.440522 0.500000
O O6 0.203290 0.500000 0.262159
O O7 0.282504 0.422020 0.269690
O O8 0.149728 0.059621 0.500000
O O9 0.105646 0.103511 0.739978
O O10 0.137656 0.000000 0.738381
O O11 0.912344 0.207180 0.759217
O O12 0.000000 0.275593 0.780802
O O13 0.923032 0.264648 0.000000
O O14 0.576688 0.338054 0.500000
O O15 0.500000 0.360877 0.712325
O O16 0.000000 0.500000 0.256020
O O17 0.000000 0.441739 0.500000
#
# Coordination Sequence:
#
# PCOD8265351 Si02
#       6
#    16  16  16  16  16   8
#     4  10  17  27  46  69  91 118 154 192 226 264
#     4   8  14  25  43  68  96 123 149 180 224 275
#     4   8  14  26  45  71 100 122 142 178 228 276
#     4  10  20  33  47  63  89 124 157 190 232 275
#     4   9  17  29  48  72  94 117 150 189 226 268
#     4   9  16  24  39  67  95 113 140 189 234 261
#
# _framework density 17.439426000000001
#
# number of rings (size 3 to 8) (size 9 to 14) (size 15 to 20)
#    0.000    3.000    0.909    2.182    0.000    3.273 
#    0.000    2.727    0.000    9.818    0.000    5.091 
#    0.000    0.000    0.000    0.000    0.000    0.000 
#
# Total GULP energy -545464.244722 kJ/mol
# GULP energy per Si atom -12396.914653 kJ/mol
# Density = 1.739973 g / cm^3
# Si number density = 17.439426 Si / 1000 Ang^3
#
#
#
# Elastic Constant Matrix: (Units=GPa)
#
#
# Indices 1 2 3 4 5 6 
#
# 1 123.2596 100.7622 22.8189 0.0000 0.0000 0.0000
# 2 100.7622 166.3083 30.8917 0.0000 0.0000 0.0000
# 3 22.8189 30.8917 24.0087 0.0000 0.0000 0.0000
# 4 0.0000 0.0000 0.0000 -0.5930 0.0000 0.0000
# 5 0.0000 0.0000 0.0000 0.0000 8.1016 0.0000
# 6 0.0000 0.0000 0.0000 0.0000 0.0000 33.9864
#
#
#
# Elastic Compliance Matrix: (Units=1/GPa)
#
#
# Indices 1 2 3 4 5 6 
#
# 1 0.016316 -0.009205 -0.003664 0.000000 0.000000 0.000000
# 2 -0.009205 0.013095 -0.008100 0.000000 0.000000 0.000000
# 3 -0.003664 -0.008100 0.055555 0.000000 0.000000 0.000000
# 4 0.000000 0.000000 0.000000 -1.686372 0.000000 0.000000
# 5 0.000000 0.000000 0.000000 0.000000 0.123432 0.000000
# 6 0.000000 0.000000 0.000000 0.000000 0.000000 0.029424
#
#
# Mechanical properties :
#
#
# Convention : Reuss Voigt Hill
#
# Bulk Modulus (GPa) = 23.23993 69.16912 46.20453
# Shear Modulus (GPa) = -3.59125 18.90594 7.65734
#
# Velocity S-wave (km/s) = -1.43657 3.29613 2.09770
# Velocity P-wave (km/s) = 3.25628 7.36441 5.69376
#
# Compressibility (1/GPa) = 0.04302938
#
# Stress axis : x y z
#
# Youngs Moduli (GPa) = 61.28909 76.36759 18.00009
#
# Poissons Ratio (x) = 0.70297 0.06594
# Poissons Ratio (y) = 0.56417 0.14580
# Poissons Ratio (z) = 0.22453 0.61856
#
# Static dielectric constant tensor:
#      x y z
#    x 3.419300 0.000000 0.000000 
#    y 0.000000 3.435380 0.000000 
#    z 0.000000 0.000000 2.714190 
# 
# 
# High freq. dielectric constant tensor:
#      x y z
#    x 1.668810 0.000000 0.000000 
#    y 0.000000 1.680640 0.000000 
#    z 0.000000 0.000000 1.621640 
# 
# From -- ./inp_files/13955.got.cif
#   From: 2010.03.12/outbox.cif.g09.slc.cpg/sg65_7_cif.got.tgz:13955.got - 2010.04.10 20:52:16.
