data_PCOD8265147
_publ_section_title
;
Structure prediction by ZEFSAII (Michael W. Deem and Ramdas Pophale) SiO2 
 PCOD8265147
Probable space group: C M M M
;
_chemical_formula_sum "Si O2"
_cell_formula_units_Z 80
_cell_length_a 19.334951
_cell_length_b 20.046620
_cell_length_c 12.596864
_cell_angle_alpha 90.000000
_cell_angle_beta 90.000000
_cell_angle_gamma 90.000000
_cell_volume 4882.549719
_symmetry_space_group_name_H-M "C M M M"
_symmetry_group_IT_number 65
_symmetry_cell_setting 'orthorhombic'
loop_
_space_group_symop_operation_xyz
x,y,z
-x,-y,z
x,-y,-z
-x,y,-z
-x,-y,-z
x,y,-z
-x,y,z
x,-y,z
1/2+x,1/2+y,z
1/2-x,1/2-y,z
1/2+x,1/2-y,-z
1/2-x,1/2+y,-z
1/2-x,1/2-y,-z
1/2+x,1/2+y,-z
1/2-x,1/2+y,z
1/2+x,1/2-y,z
loop_
_atom_site_type_symbol
_atom_site_label
_atom_site_fract_x
_atom_site_fract_y
_atom_site_fract_z
Si Si1 0.709748 0.074834 0.877439
Si Si2 0.219572 0.175104 0.278129
Si Si3 0.727873 0.172889 0.500000
Si Si4 0.076559 0.228666 0.277634
Si Si5 0.575181 0.201641 0.500000
Si Si6 0.922750 0.347664 0.119888
O O1 0.754694 0.128023 0.814757
O O2 0.628609 0.090716 0.861623
O O3 0.723025 0.000000 0.835414
O O4 0.731148 0.080982 0.000000
O O5 0.250000 0.250000 0.266938
O O6 0.240849 0.142337 0.391706
O O7 0.136333 0.173821 0.265825
O O8 0.750000 0.250000 0.500000
O O9 0.644907 0.157378 0.500000
O O10 0.078012 0.251766 0.398298
O O11 0.096399 0.289298 0.200663
O O12 0.000000 0.200066 0.248904
O O13 0.500000 0.162414 0.500000
O O14 0.000000 0.374491 0.141757
O O15 0.915663 0.319427 0.000000
#
# Coordination Sequence:
#
# PCOD8265147 Si02
#       6
#    16  16   8  16   8  16
#     4  10  21  34  48  69  96 127 163 199 237 283
#     4  11  18  31  51  72  96 127 156 199 240 276
#     4  10  16  28  45  72  99 124 155 194 237 280
#     4  10  18  28  45  72  98 122 155 193 236 281
#     4  10  16  24  40  66 100 128 150 184 234 284
#     4   9  17  29  45  67  96 126 156 191 232 278
#
# _framework density 16.384882000000001
#
# number of rings (size 3 to 8) (size 9 to 14) (size 15 to 20)
#    0.000    2.000    6.000    0.000    0.000    1.600 
#    0.000    2.500    0.000    0.600    0.000    1.400 
#    0.000   15.200    0.000    0.000    0.000    0.000 
#
# Total GULP energy -495667.518022 kJ/mol
# GULP energy per Si atom -12391.687951 kJ/mol
# Density = 1.634759 g / cm^3
# Si number density = 16.384882 Si / 1000 Ang^3
#
#
#
# Elastic Constant Matrix: (Units=GPa)
#
#
# Indices 1 2 3 4 5 6 
#
# 1 129.5957 45.1963 37.4820 0.0000 0.0000 0.0000
# 2 45.1963 58.3106 47.3613 0.0000 0.0000 0.0000
# 3 37.4820 47.3613 90.5125 0.0000 0.0000 0.0000
# 4 0.0000 0.0000 0.0000 14.7613 0.0000 0.0000
# 5 0.0000 0.0000 0.0000 0.0000 25.2237 0.0000
# 6 0.0000 0.0000 0.0000 0.0000 0.0000 14.0201
#
#
#
# Elastic Compliance Matrix: (Units=1/GPa)
#
#
# Indices 1 2 3 4 5 6 
#
# 1 0.010576 -0.008070 -0.000157 0.000000 0.000000 0.000000
# 2 -0.008070 0.035983 -0.015487 0.000000 0.000000 0.000000
# 3 -0.000157 -0.015487 0.019217 0.000000 0.000000 0.000000
# 4 0.000000 0.000000 0.000000 0.067745 0.000000 0.000000
# 5 0.000000 0.000000 0.000000 0.000000 0.039645 0.000000
# 6 0.000000 0.000000 0.000000 0.000000 0.000000 0.071326
#
#
# Mechanical properties :
#
#
# Convention : Reuss Voigt Hill
#
# Bulk Modulus (GPa) = 54.49943 59.83311 57.16627
# Shear Modulus (GPa) = 16.77650 20.69294 18.73472
#
# Velocity S-wave (km/s) = 3.20332 3.55763 3.38511
# Velocity P-wave (km/s) = 6.85681 7.31247 7.08830
#
# Compressibility (1/GPa) = 0.01834882
#
# Stress axis : x y z
#
# Youngs Moduli (GPa) = 94.55277 27.79074 52.03805
#
# Poissons Ratio (x) = 0.22427 0.00817
# Poissons Ratio (y) = 0.76304 0.80589
# Poissons Ratio (z) = 0.01484 0.43039
#
# Static dielectric constant tensor:
#      x y z
#    x 3.591740 0.000000 0.000000 
#    y 0.000000 2.571260 0.000000 
#    z 0.000000 0.000000 3.374580 
# 
# 
# High freq. dielectric constant tensor:
#      x y z
#    x 1.647930 0.000000 0.000000 
#    y 0.000000 1.556700 0.000000 
#    z 0.000000 0.000000 1.650670 
# 
# From -- ./inp_files/28598.got.cif
#   From: 2010.03.12/outbox.cif.g09.slc.cpg/sg65_15_cif.got.tgz:28598.got - 2010.04.10 20:52:16.
