data_PCOD8265868
_publ_section_title
;
Structure prediction by ZEFSAII (Michael W. Deem and Ramdas Pophale) SiO2 
 PCOD8265868
Probable space group: C M M M
;
_chemical_formula_sum "Si O2"
_cell_formula_units_Z 72
_cell_length_a 14.333049
_cell_length_b 24.366774
_cell_length_c 11.960205
_cell_angle_alpha 90.000000
_cell_angle_beta 90.000000
_cell_angle_gamma 90.000000
_cell_volume 4177.103578
_symmetry_space_group_name_H-M "C M M M"
_symmetry_group_IT_number 65
_symmetry_cell_setting 'orthorhombic'
loop_
_space_group_symop_operation_xyz
x,y,z
-x,-y,z
x,-y,-z
-x,y,-z
-x,-y,-z
x,y,-z
-x,y,z
x,-y,z
1/2+x,1/2+y,z
1/2-x,1/2-y,z
1/2+x,1/2-y,-z
1/2-x,1/2+y,-z
1/2-x,1/2-y,-z
1/2+x,1/2+y,-z
1/2-x,1/2+y,z
1/2+x,1/2-y,z
loop_
_atom_site_type_symbol
_atom_site_label
_atom_site_fract_x
_atom_site_fract_y
_atom_site_fract_z
Si Si1 0.389499 0.000000 0.133247
Si Si2 0.500000 0.148162 0.630868
Si Si3 0.849428 0.777983 0.000000
Si Si4 0.682528 0.696178 0.760938
Si Si5 0.400858 0.164005 0.000000
Si Si6 0.000000 0.224523 0.630974
Si Si7 0.667467 0.886083 0.777721
O O1 0.332954 0.050771 0.185686
O O2 0.500000 0.000000 0.164915
O O3 0.378258 0.000000 0.000000
O O4 0.500000 0.136436 0.500000
O O5 0.500000 0.211694 0.661699
O O6 0.410025 0.120377 0.683713
O O7 0.750000 0.750000 0.000000
O O8 0.859287 0.812496 0.886154
O O9 0.923876 0.728599 0.000000
O O10 0.750000 0.750000 0.748604
O O11 0.594728 0.698807 0.678800
O O12 0.736918 0.639619 0.728579
O O13 0.346306 0.150175 0.111603
O O14 0.500000 0.131444 0.000000
O O15 0.000000 0.213876 0.500000
#
# Coordination Sequence:
#
# PCOD8265868 Si02
#       7
#     8   8   8  16   8   8  16
#     4  11  22  34  58  89 116 151 189 228 281 346
#     4  11  22  34  54  81 115 154 189 234 277 325
#     4  10  18  28  46  80 109 144 175 211 288 346
#     4  11  21  34  56  83 117 151 185 233 291 345
#     4  12  18  27  53  79 116 146 177 229 272 347
#     4  11  24  39  56  85 116 155 201 237 282 342
#     4  12  21  36  53  83 118 150 188 226 283 343
#
# _framework density 17.236823999999999
#
# number of rings (size 3 to 8) (size 9 to 14) (size 15 to 20)
#    0.000    0.778   10.000    0.000    1.556    1.333 
#    0.000    1.111    0.000    0.667    0.000    1.556 
#    0.000    0.000    0.000    0.000    0.000    0.000 
#
# Total GULP energy -446133.474780 kJ/mol
# GULP energy per Si atom -12392.596522 kJ/mol
# Density = 1.719759 g / cm^3
# Si number density = 17.236824 Si / 1000 Ang^3
#
#
#
# Elastic Constant Matrix: (Units=GPa)
#
#
# Indices 1 2 3 4 5 6 
#
# 1 98.9478 51.9896 40.0612 0.0000 0.0000 0.0000
# 2 51.9896 115.5459 34.6337 0.0000 0.0000 0.0000
# 3 40.0612 34.6337 79.4202 0.0000 0.0000 0.0000
# 4 0.0000 0.0000 0.0000 20.6747 0.0000 0.0000
# 5 0.0000 0.0000 0.0000 0.0000 31.0376 0.0000
# 6 0.0000 0.0000 0.0000 0.0000 0.0000 22.3297
#
#
#
# Elastic Compliance Matrix: (Units=1/GPa)
#
#
# Indices 1 2 3 4 5 6 
#
# 1 0.014953 -0.005139 -0.005302 0.000000 0.000000 0.000000
# 2 -0.005139 0.011722 -0.002520 0.000000 0.000000 0.000000
# 3 -0.005302 -0.002520 0.016364 0.000000 0.000000 0.000000
# 4 0.000000 0.000000 0.000000 0.048368 0.000000 0.000000
# 5 0.000000 0.000000 0.000000 0.000000 0.032219 0.000000
# 6 0.000000 0.000000 0.000000 0.000000 0.000000 0.044783
#
#
# Mechanical properties :
#
#
# Convention : Reuss Voigt Hill
#
# Bulk Modulus (GPa) = 58.41461 60.80922 59.61191
# Shear Modulus (GPa) = 24.99544 25.95702 25.47623
#
# Velocity S-wave (km/s) = 3.81217 3.88481 3.84866
# Velocity P-wave (km/s) = 7.30342 7.44833 7.37623
#
# Compressibility (1/GPa) = 0.01711900
#
# Stress axis : x y z
#
# Youngs Moduli (GPa) = 66.87656 85.30936 61.10897
#
# Poissons Ratio (x) = 0.43840 0.32397
# Poissons Ratio (y) = 0.34367 0.15397
# Poissons Ratio (z) = 0.35455 0.21494
#
# Static dielectric constant tensor:
#      x y z
#    x 3.366160 0.000000 0.000000 
#    y 0.000000 3.220700 0.000000 
#    z 0.000000 0.000000 3.284440 
# 
# 
# High freq. dielectric constant tensor:
#      x y z
#    x 1.657490 0.000000 0.000000 
#    y 0.000000 1.632650 0.000000 
#    z 0.000000 0.000000 1.667310 
# 
# From -- ./inp_files/24563.got.cif
#   From: 2010.03.12/outbox.cif.g09.slc.cpg/sg65_13_cif.got.tgz:24563.got - 2010.04.10 20:52:16.
