data_PCOD8265102
_publ_section_title
;
Structure prediction by ZEFSAII (Michael W. Deem and Ramdas Pophale) SiO2 
 PCOD8265102
Probable space group: C M M M
;
_chemical_formula_sum "Si O2"
_cell_formula_units_Z 72
_cell_length_a 8.879622
_cell_length_b 23.639941
_cell_length_c 20.753433
_cell_angle_alpha 90.000000
_cell_angle_beta 90.000000
_cell_angle_gamma 90.000000
_cell_volume 4356.430743
_symmetry_space_group_name_H-M "C M M M"
_symmetry_group_IT_number 65
_symmetry_cell_setting 'orthorhombic'
loop_
_space_group_symop_operation_xyz
x,y,z
-x,-y,z
x,-y,-z
-x,y,-z
-x,-y,-z
x,y,-z
-x,y,z
x,-y,z
1/2+x,1/2+y,z
1/2-x,1/2-y,z
1/2+x,1/2-y,-z
1/2-x,1/2+y,-z
1/2-x,1/2-y,-z
1/2+x,1/2+y,-z
1/2-x,1/2+y,z
1/2+x,1/2-y,z
loop_
_atom_site_type_symbol
_atom_site_label
_atom_site_fract_x
_atom_site_fract_y
_atom_site_fract_z
Si Si1 0.321152 0.312903 0.000000
Si Si2 0.678128 0.380692 0.376517
Si Si3 0.322508 0.689379 0.500000
Si Si4 0.674401 0.811048 0.733602
Si Si5 0.174363 0.689615 0.876466
Si Si6 0.821212 0.000000 0.572552
O O1 0.250000 0.250000 0.000000
O O2 0.259562 0.343975 0.065230
O O3 0.500000 0.311937 0.000000
O O4 0.500000 0.377478 0.367586
O O5 0.732460 0.343848 0.437087
O O6 0.755516 0.357754 0.312584
O O7 0.733241 0.444842 0.388494
O O8 0.500000 0.695773 0.500000
O O9 0.250000 0.750000 0.500000
O O10 0.500000 0.802234 0.717401
O O11 0.750000 0.750000 0.724061
O O12 0.695468 0.837439 0.805632
O O13 0.250000 0.750000 0.870682
O O14 0.000000 0.695731 0.895024
O O15 0.753702 0.000000 0.500000
O O16 0.000000 0.000000 0.566416
#
# Coordination Sequence:
#
# PCOD8265102 Si02
#       6
#     8  16   8  16  16   8
#     4  10  16  22  36  58  84 115 152 189 220 258
#     4  10  19  32  51  70  90 118 153 193 234 278
#     4  10  20  31  45  67  91 118 149 184 225 272
#     4  10  20  32  46  66  94 126 158 192 232 278
#     4   9  16  26  39  56  83 119 154 186 221 264
#     4   9  16  32  55  73  89 114 153 194 235 283
#
# _framework density 16.527291000000002
#
# number of rings (size 3 to 8) (size 9 to 14) (size 15 to 20)
#    0.000    2.333    1.111    4.333    0.000    5.333 
#    0.000    0.556    0.000    0.667    0.000    0.000 
#    0.000    0.889    0.000   10.000    0.000    5.556 
#
# Total GULP energy -446136.558195 kJ/mol
# GULP energy per Si atom -12392.682172 kJ/mol
# Density = 1.648967 g / cm^3
# Si number density = 16.527291 Si / 1000 Ang^3
#
#
#
# Elastic Constant Matrix: (Units=GPa)
#
#
# Indices 1 2 3 4 5 6 
#
# 1 87.2232 32.9522 61.9021 0.0000 0.0000 0.0000
# 2 32.9522 95.6872 58.6933 0.0000 0.0000 0.0000
# 3 61.9021 58.6933 155.1410 0.0000 0.0000 0.0000
# 4 0.0000 0.0000 0.0000 3.9677 0.0000 0.0000
# 5 0.0000 0.0000 0.0000 0.0000 29.3488 0.0000
# 6 0.0000 0.0000 0.0000 0.0000 0.0000 16.1923
#
#
#
# Elastic Compliance Matrix: (Units=1/GPa)
#
#
# Indices 1 2 3 4 5 6 
#
# 1 0.016317 -0.002117 -0.005710 0.000000 0.000000 0.000000
# 2 -0.002117 0.013883 -0.004408 0.000000 0.000000 0.000000
# 3 -0.005710 -0.004408 0.010391 0.000000 0.000000 0.000000
# 4 0.000000 0.000000 0.000000 0.252034 0.000000 0.000000
# 5 0.000000 0.000000 0.000000 0.000000 0.034073 0.000000
# 6 0.000000 0.000000 0.000000 0.000000 0.000000 0.061758
#
#
# Mechanical properties :
#
#
# Convention : Reuss Voigt Hill
#
# Bulk Modulus (GPa) = 62.02281 71.68296 66.85288
# Shear Modulus (GPa) = 11.95316 22.20201 17.07759
#
# Velocity S-wave (km/s) = 2.69223 3.66916 3.21798
# Velocity P-wave (km/s) = 6.87554 7.83689 7.37191
#
# Compressibility (1/GPa) = 0.01612310
#
# Stress axis : x y z
#
# Youngs Moduli (GPa) = 61.28719 72.02864 96.23297
#
# Poissons Ratio (x) = 0.15247 0.54945
# Poissons Ratio (y) = 0.12974 0.42417
# Poissons Ratio (z) = 0.34992 0.31748
#
# Static dielectric constant tensor:
#      x y z
#    x 3.071970 0.000000 0.000000 
#    y 0.000000 2.755570 0.000000 
#    z 0.000000 0.000000 4.158870 
# 
# 
# High freq. dielectric constant tensor:
#      x y z
#    x 1.636810 0.000000 0.000000 
#    y 0.000000 1.577820 0.000000 
#    z 0.000000 0.000000 1.659830 
# 
# From -- ./inp_files/59583.got.cif
#   From: 2010.03.12/outbox.cif.g09.slc.cpg/sg65_30_cif.got.tgz:59583.got - 2010.04.10 20:52:16.
