data_PCOD8265866
_publ_section_title
;
Structure prediction by ZEFSAII (Michael W. Deem and Ramdas Pophale) SiO2 
 PCOD8265866
Probable space group: C M M M
;
_chemical_formula_sum "Si O2"
_cell_formula_units_Z 72
_cell_length_a 25.540780
_cell_length_b 8.484888
_cell_length_c 17.497356
_cell_angle_alpha 90.000000
_cell_angle_beta 90.000000
_cell_angle_gamma 90.000000
_cell_volume 3791.863527
_symmetry_space_group_name_H-M "C M M M"
_symmetry_group_IT_number 65
_symmetry_cell_setting 'orthorhombic'
loop_
_space_group_symop_operation_xyz
x,y,z
-x,-y,z
x,-y,-z
-x,y,-z
-x,-y,-z
x,y,-z
-x,y,z
x,-y,z
1/2+x,1/2+y,z
1/2-x,1/2-y,z
1/2+x,1/2-y,-z
1/2-x,1/2+y,-z
1/2-x,1/2-y,-z
1/2+x,1/2+y,-z
1/2-x,1/2+y,z
1/2+x,1/2-y,z
loop_
_atom_site_type_symbol
_atom_site_label
_atom_site_fract_x
_atom_site_fract_y
_atom_site_fract_z
Si Si1 0.500000 0.681159 0.622432
Si Si2 0.605945 0.313001 0.800860
Si Si3 0.500000 0.183148 0.214729
Si Si4 0.694811 0.313634 0.914088
Si Si5 0.112510 0.812289 0.373243
Si Si6 0.691444 0.687021 0.500000
O O1 0.500000 0.500000 0.599280
O O2 0.500000 0.699541 0.713367
O O3 0.555896 0.753719 0.593986
O O4 0.599308 0.500000 0.806260
O O5 0.552847 0.228130 0.830741
O O6 0.650820 0.249079 0.856854
O O7 0.620571 0.258209 0.714412
O O8 0.500000 0.000000 0.237918
O O9 0.696243 0.500000 0.912548
O O10 0.750000 0.250000 0.883923
O O11 0.683430 0.251497 0.000000
O O12 0.160157 0.749137 0.425377
O O13 0.110726 0.000000 0.377117
O O14 0.693666 0.500000 0.500000
O O15 0.750000 0.750000 0.500000
#
# Coordination Sequence:
#
# PCOD8265866 Si02
#       6
#     8  16   8  16  16   8
#     4   8  14  29  50  69  89 115 148 189 237 279
#     4   9  17  32  51  69  93 126 159 187 226 282
#     4  10  18  28  46  74 101 122 150 192 236 273
#     4   9  18  32  50  71  94 121 155 196 237 275
#     4   8  15  28  48  69  88 115 151 189 224 265
#     4  10  20  33  45  63  93 124 155 188 224 266
#
# _framework density 18.988026000000001
#
# number of rings (size 3 to 8) (size 9 to 14) (size 15 to 20)
#    0.000    3.111    0.000    2.333    0.000    2.222 
#    0.000    7.222    0.000    3.333    0.000   13.222 
#    0.000    0.000    0.000    0.000    0.000    0.000 
#
# Total GULP energy -445974.726260 kJ/mol
# GULP energy per Si atom -12388.186841 kJ/mol
# Density = 1.894481 g / cm^3
# Si number density = 18.988026 Si / 1000 Ang^3
#
#
#
# Elastic Constant Matrix: (Units=GPa)
#
#
# Indices 1 2 3 4 5 6 
#
# 1 218.8594 21.0350 96.0294 0.0000 0.0000 0.0000
# 2 21.0350 15.1113 16.6512 0.0000 0.0000 0.0000
# 3 96.0294 16.6512 98.6887 0.0000 0.0000 0.0000
# 4 0.0000 0.0000 0.0000 10.3096 0.0000 0.0000
# 5 0.0000 0.0000 0.0000 0.0000 22.1733 0.0000
# 6 0.0000 0.0000 0.0000 0.0000 0.0000 28.4059
#
#
#
# Elastic Compliance Matrix: (Units=1/GPa)
#
#
# Indices 1 2 3 4 5 6 
#
# 1 0.008096 -0.003180 -0.007341 0.000000 0.000000 0.000000
# 2 -0.003180 0.082538 -0.010832 0.000000 0.000000 0.000000
# 3 -0.007341 -0.010832 0.019104 0.000000 0.000000 0.000000
# 4 0.000000 0.000000 0.000000 0.096997 0.000000 0.000000
# 5 0.000000 0.000000 0.000000 0.000000 0.045099 0.000000
# 6 0.000000 0.000000 0.000000 0.000000 0.000000 0.035204
#
#
# Mechanical properties :
#
#
# Convention : Reuss Voigt Hill
#
# Bulk Modulus (GPa) = 14.91837 66.67675 40.79756
# Shear Modulus (GPa) = 14.20101 25.44067 19.82084
#
# Velocity S-wave (km/s) = 2.73773 3.66434 3.23439
# Velocity P-wave (km/s) = 4.22698 7.28660 5.95659
#
# Compressibility (1/GPa) = 0.06703144
#
# Stress axis : x y z
#
# Youngs Moduli (GPa) = 123.51929 12.11567 52.34576
#
# Poissons Ratio (x) = 0.03853 0.38428
# Poissons Ratio (y) = 0.39283 0.56698
# Poissons Ratio (z) = 0.90677 0.13123
#
# Static dielectric constant tensor:
#      x y z
#    x 2.575500 0.000000 0.000000 
#    y 0.000000 3.026310 0.000000 
#    z 0.000000 0.000000 3.547840 
# 
# 
# High freq. dielectric constant tensor:
#      x y z
#    x 1.755580 0.000000 0.000000 
#    y 0.000000 1.696420 0.000000 
#    z 0.000000 0.000000 1.715190 
# 
# From -- ./inp_files/57191.got.cif
#   From: 2010.03.12/outbox.cif.g09.slc.cpg/sg65_29_cif.got.tgz:57191.got - 2010.04.10 20:52:16.
