data_PCOD8265194
_publ_section_title
;
Structure prediction by ZEFSAII (Michael W. Deem and Ramdas Pophale) SiO2 
 PCOD8265194
Probable space group: C M M M
;
_chemical_formula_sum "Si O2"
_cell_formula_units_Z 104
_cell_length_a 24.191621
_cell_length_b 23.793120
_cell_length_c 9.549328
_cell_angle_alpha 90.000000
_cell_angle_beta 90.000000
_cell_angle_gamma 90.000000
_cell_volume 5496.537252
_symmetry_space_group_name_H-M "C M M M"
_symmetry_group_IT_number 65
_symmetry_cell_setting 'orthorhombic'
loop_
_space_group_symop_operation_xyz
x,y,z
-x,-y,z
x,-y,-z
-x,y,-z
-x,-y,-z
x,y,-z
-x,y,z
x,-y,z
1/2+x,1/2+y,z
1/2-x,1/2-y,z
1/2+x,1/2-y,-z
1/2-x,1/2+y,-z
1/2-x,1/2-y,-z
1/2+x,1/2+y,-z
1/2-x,1/2+y,z
1/2+x,1/2-y,z
loop_
_atom_site_type_symbol
_atom_site_label
_atom_site_fract_x
_atom_site_fract_y
_atom_site_fract_z
Si Si1 0.250000 0.250000 0.761469
Si Si2 0.636520 0.066010 0.334190
Si Si3 0.564500 0.147150 0.836887
Si Si4 0.257186 0.129802 0.342363
Si Si5 0.870642 0.758960 0.844599
Si Si6 0.938788 0.065991 0.152724
Si Si7 0.364063 0.635053 0.666249
O O1 0.263625 0.197014 0.662747
O O2 0.195876 0.244314 0.857187
O O3 0.629737 0.076850 0.500000
O O4 0.584857 0.094114 0.254610
O O5 0.692543 0.095282 0.271222
O O6 0.638226 0.000000 0.299565
O O7 0.500000 0.158178 0.804464
O O8 0.600369 0.201650 0.792407
O O9 0.573788 0.133085 0.000000
O O10 0.257170 0.108452 0.500000
O O11 0.196832 0.117036 0.277140
O O12 0.886189 0.807284 0.734609
O O13 0.893103 0.773681 0.000000
O O14 0.903400 0.085759 0.284066
O O15 0.000000 0.091525 0.167855
O O16 0.941649 0.000000 0.161466
O O17 0.914352 0.084318 0.000000
O O18 0.364991 0.642629 0.500000
#
# Coordination Sequence:
#
# PCOD8265194 Si02
#       7
#     8  16  16  16  16  16  16
#     4  10  16  30  56  82 105 140 181 228 269 314
#     4  10  21  38  59  82 110 146 187 231 281 336
#     4  10  22  40  59  80 109 146 187 232 285 338
#     4   9  18  32  52  81 114 147 179 220 276 333
#     4  10  20  34  54  82 112 146 183 226 277 331
#     4   9  19  37  58  77 103 145 192 234 278 329
#     4  10  21  34  53  85 118 149 184 227 279 336
#
# _framework density 18.921002999999999
#
# number of rings (size 3 to 8) (size 9 to 14) (size 15 to 20)
#    0.000    2.308    1.538    1.385    0.000    4.000 
#    0.000    6.154    0.000    0.000    0.000    0.000 
#    0.000    0.000    0.000    0.000    0.000    0.000 
#
# Total GULP energy -644440.900324 kJ/mol
# GULP energy per Si atom -12393.094237 kJ/mol
# Density = 1.887794 g / cm^3
# Si number density = 18.921003 Si / 1000 Ang^3
#
#
#
# Elastic Constant Matrix: (Units=GPa)
#
#
# Indices 1 2 3 4 5 6 
#
# 1 101.8598 61.2402 40.3425 0.0000 0.0000 0.0000
# 2 61.2402 83.1477 33.7865 0.0000 0.0000 0.0000
# 3 40.3425 33.7865 68.4363 0.0000 0.0000 0.0000
# 4 0.0000 0.0000 0.0000 31.2545 0.0000 0.0000
# 5 0.0000 0.0000 0.0000 0.0000 26.3381 0.0000
# 6 0.0000 0.0000 0.0000 0.0000 0.0000 32.8075
#
#
#
# Elastic Compliance Matrix: (Units=1/GPa)
#
#
# Indices 1 2 3 4 5 6 
#
# 1 0.019089 -0.011868 -0.005394 0.000000 0.000000 0.000000
# 2 -0.011868 0.022423 -0.004074 0.000000 0.000000 0.000000
# 3 -0.005394 -0.004074 0.019803 0.000000 0.000000 0.000000
# 4 0.000000 0.000000 0.000000 0.031995 0.000000 0.000000
# 5 0.000000 0.000000 0.000000 0.000000 0.037968 0.000000
# 6 0.000000 0.000000 0.000000 0.000000 0.000000 0.030481
#
#
# Mechanical properties :
#
#
# Convention : Reuss Voigt Hill
#
# Bulk Modulus (GPa) = 53.63715 58.24249 55.93982
# Shear Modulus (GPa) = 23.73668 25.95164 24.84416
#
# Velocity S-wave (km/s) = 3.54576 3.70750 3.62753
# Velocity P-wave (km/s) = 6.72106 7.01257 6.86836
#
# Compressibility (1/GPa) = 0.01864379
#
# Stress axis : x y z
#
# Youngs Moduli (GPa) = 52.38728 44.59691 50.49722
#
# Poissons Ratio (x) = 0.52926 0.27236
# Poissons Ratio (y) = 0.62171 0.20574
# Poissons Ratio (z) = 0.28256 0.18170
#
# Static dielectric constant tensor:
#      x y z
#    x 3.675460 0.000000 0.000000 
#    y 0.000000 3.370970 0.000000 
#    z 0.000000 0.000000 3.320090 
# 
# 
# High freq. dielectric constant tensor:
#      x y z
#    x 1.738800 0.000000 0.000000 
#    y 0.000000 1.729340 0.000000 
#    z 0.000000 0.000000 1.720480 
# 
# From -- ./inp_files/14722.got.cif
#   From: 2010.03.12/outbox.cif.g09.slc.cpg/sg65_8_cif.got.tgz:14722.got - 2010.04.10 20:52:16.
