data_PCOD8265744
_publ_section_title
;
Structure prediction by ZEFSAII (Michael W. Deem and Ramdas Pophale) SiO2 
 PCOD8265744
Probable space group: C M M M
;
_chemical_formula_sum "Si O2"
_cell_formula_units_Z 88
_cell_length_a 18.744887
_cell_length_b 22.202196
_cell_length_c 13.582988
_cell_angle_alpha 90.000000
_cell_angle_beta 90.000000
_cell_angle_gamma 90.000000
_cell_volume 5652.936096
_symmetry_space_group_name_H-M "C M M M"
_symmetry_group_IT_number 65
_symmetry_cell_setting 'orthorhombic'
loop_
_space_group_symop_operation_xyz
x,y,z
-x,-y,z
x,-y,-z
-x,y,-z
-x,-y,-z
x,y,-z
-x,y,z
x,-y,z
1/2+x,1/2+y,z
1/2-x,1/2-y,z
1/2+x,1/2-y,-z
1/2-x,1/2+y,-z
1/2-x,1/2-y,-z
1/2+x,1/2+y,-z
1/2-x,1/2+y,z
1/2+x,1/2-y,z
loop_
_atom_site_type_symbol
_atom_site_label
_atom_site_fract_x
_atom_site_fract_y
_atom_site_fract_z
Si Si1 0.834329 0.756092 0.113869
Si Si2 0.579863 0.500000 0.117564
Si Si3 0.415371 0.067531 0.389921
Si Si4 0.915950 0.348107 0.784858
Si Si5 0.327078 0.609863 0.883566
Si Si6 0.177715 0.565809 0.885689
O O1 0.750000 0.750000 0.125834
O O2 0.875770 0.714208 0.191597
O O3 0.855878 0.824006 0.144139
O O4 0.855731 0.741127 0.000000
O O5 0.500000 0.500000 0.159890
O O6 0.619489 0.559386 0.158787
O O7 0.579465 0.500000 0.000000
O O8 0.388778 0.083635 0.500000
O O9 0.500000 0.066610 0.385816
O O10 0.388450 0.120527 0.316800
O O11 0.387890 0.000000 0.360807
O O12 0.893806 0.395839 0.868482
O O13 0.000000 0.336266 0.786476
O O14 0.247417 0.599159 0.840337
O O15 0.322987 0.604237 0.000000
O O16 0.169629 0.500000 0.836739
O O17 0.189515 0.558095 0.000000
#
# Coordination Sequence:
#
# PCOD8265744 Si02
#       6
#    16   8  16  16  16  16
#     4  10  19  31  45  60  86 129 166 184 213 272
#     4   9  16  26  42  62  79  99 144 209 247 251
#     4   8  15  30  50  69  91 119 149 184 231 284
#     4  11  21  30  44  69  95 117 150 194 229 264
#     4   9  16  28  44  59  78 114 159 191 223 268
#     4  10  18  28  43  62  88 123 156 183 220 272
#
# _framework density 15.567131
#
# number of rings (size 3 to 8) (size 9 to 14) (size 15 to 20)
#    0.000    2.455    2.727    1.636    0.000    3.273 
#    0.000    2.727    0.000    0.545    0.000    0.000 
#    0.000    0.000    0.000    0.000    0.000   10.818 
#
# Total GULP energy -545152.215744 kJ/mol
# GULP energy per Si atom -12389.823085 kJ/mol
# Density = 1.553170 g / cm^3
# Si number density = 15.567131 Si / 1000 Ang^3
#
#
#
# Elastic Constant Matrix: (Units=GPa)
#
#
# Indices 1 2 3 4 5 6 
#
# 1 62.0850 42.9777 25.4002 0.0000 0.0000 0.0000
# 2 42.9777 143.3513 46.8787 0.0000 0.0000 0.0000
# 3 25.4002 46.8787 45.8747 0.0000 0.0000 0.0000
# 4 0.0000 0.0000 0.0000 21.6851 0.0000 0.0000
# 5 0.0000 0.0000 0.0000 0.0000 8.7652 0.0000
# 6 0.0000 0.0000 0.0000 0.0000 0.0000 27.4946
#
#
#
# Elastic Compliance Matrix: (Units=1/GPa)
#
#
# Indices 1 2 3 4 5 6 
#
# 1 0.022229 -0.003964 -0.008257 0.000000 0.000000 0.000000
# 2 -0.003964 0.011184 -0.009234 0.000000 0.000000 0.000000
# 3 -0.008257 -0.009234 0.035806 0.000000 0.000000 0.000000
# 4 0.000000 0.000000 0.000000 0.046115 0.000000 0.000000
# 5 0.000000 0.000000 0.000000 0.000000 0.114087 0.000000
# 6 0.000000 0.000000 0.000000 0.000000 0.000000 0.036371
#
#
# Mechanical properties :
#
#
# Convention : Reuss Voigt Hill
#
# Bulk Modulus (GPa) = 38.00936 53.53600 45.77268
# Shear Modulus (GPa) = 15.74941 20.65930 18.20435
#
# Velocity S-wave (km/s) = 3.18419 3.64690 3.42337
# Velocity P-wave (km/s) = 6.16345 7.22484 6.71515
#
# Compressibility (1/GPa) = 0.02630931
#
# Stress axis : x y z
#
# Youngs Moduli (GPa) = 44.98572 89.41323 27.92809
#
# Poissons Ratio (x) = 0.35446 0.23060
# Poissons Ratio (y) = 0.17834 0.25788
# Poissons Ratio (z) = 0.37145 0.82563
#
# Static dielectric constant tensor:
#      x y z
#    x 2.888220 0.000000 0.000000 
#    y 0.000000 3.336550 0.000000 
#    z 0.000000 0.000000 2.722730 
# 
# 
# High freq. dielectric constant tensor:
#      x y z
#    x 1.581670 0.000000 0.000000 
#    y 0.000000 1.613680 0.000000 
#    z 0.000000 0.000000 1.538460 
# 
# From -- ./inp_files/42735.got.cif
#   From: 2010.03.12/outbox.cif.g09.slc.cpg/sg65_22_cif.got.tgz:42735.got - 2010.04.10 20:52:16.
