data_PCOD8265568
_publ_section_title
;
Structure prediction by ZEFSAII (Michael W. Deem and Ramdas Pophale) SiO2 
 PCOD8265568
Probable space group: C M M M
;
_chemical_formula_sum "Si O2"
_cell_formula_units_Z 80
_cell_length_a 28.151289
_cell_length_b 22.669273
_cell_length_c 9.544865
_cell_angle_alpha 90.000000
_cell_angle_beta 90.000000
_cell_angle_gamma 90.000000
_cell_volume 6091.239392
_symmetry_space_group_name_H-M "C M M M"
_symmetry_group_IT_number 65
_symmetry_cell_setting 'orthorhombic'
loop_
_space_group_symop_operation_xyz
x,y,z
-x,-y,z
x,-y,-z
-x,y,-z
-x,-y,-z
x,y,-z
-x,y,z
x,-y,z
1/2+x,1/2+y,z
1/2-x,1/2-y,z
1/2+x,1/2-y,-z
1/2-x,1/2+y,-z
1/2-x,1/2-y,-z
1/2+x,1/2+y,-z
1/2-x,1/2+y,z
1/2+x,1/2-y,z
loop_
_atom_site_type_symbol
_atom_site_label
_atom_site_fract_x
_atom_site_fract_y
_atom_site_fract_z
Si Si1 0.271273 0.658249 0.656816
Si Si2 0.444817 0.067969 0.340697
Si Si3 0.325480 0.230360 0.657836
Si Si4 0.870645 0.636842 0.164131
Si Si5 0.274981 0.932905 0.162557
O O1 0.280592 0.634907 0.500000
O O2 0.314308 0.701892 0.702931
O O3 0.223002 0.694513 0.662135
O O4 0.267069 0.602175 0.758750
O O5 0.428143 0.080766 0.500000
O O6 0.500000 0.083053 0.324238
O O7 0.416989 0.108499 0.232155
O O8 0.435199 0.000000 0.302922
O O9 0.346519 0.228695 0.500000
O O10 0.362312 0.201093 0.766212
O O11 0.826485 0.593988 0.195557
O O12 0.879266 0.645834 0.000000
O O13 0.275186 0.000000 0.216009
O O14 0.263037 0.928606 0.000000
#
# Coordination Sequence:
#
# PCOD8265568 Si02
#       5
#    16  16  16  16  16
#     4   8  14  24  37  51  66  87 116 147 175 205
#     4   9  18  31  43  53  67  90 119 149 183 221
#     4   8  14  25  38  51  68  88 112 144 179 211
#     4  10  18  26  38  55  72  90 116 149 182 216
#     4   9  17  26  34  48  72  97 118 144 179 215
#
# _framework density 13.133616
#
# number of rings (size 3 to 8) (size 9 to 14) (size 15 to 20)
#    0.000    3.200    0.000    3.000    0.000    3.600 
#    0.000    5.000    0.000    0.000    0.000    0.000 
#    0.000    0.000    0.000    0.000    0.000    1.000 
#
# Total GULP energy -495786.947606 kJ/mol
# GULP energy per Si atom -12394.673690 kJ/mol
# Density = 1.310372 g / cm^3
# Si number density = 13.133616 Si / 1000 Ang^3
#
#
#
# Elastic Constant Matrix: (Units=GPa)
#
#
# Indices 1 2 3 4 5 6 
#
# 1 40.8261 33.3585 37.8407 0.0000 0.0000 0.0000
# 2 33.3585 71.2718 46.8386 0.0000 0.0000 0.0000
# 3 37.8407 46.8386 78.0342 0.0000 0.0000 0.0000
# 4 0.0000 0.0000 0.0000 23.4786 0.0000 0.0000
# 5 0.0000 0.0000 0.0000 0.0000 18.9939 0.0000
# 6 0.0000 0.0000 0.0000 0.0000 0.0000 22.9423
#
#
#
# Elastic Compliance Matrix: (Units=1/GPa)
#
#
# Indices 1 2 3 4 5 6 
#
# 1 0.050377 -0.012426 -0.016970 0.000000 0.000000 0.000000
# 2 -0.012426 0.026236 -0.009722 0.000000 0.000000 0.000000
# 3 -0.016970 -0.009722 0.026880 0.000000 0.000000 0.000000
# 4 0.000000 0.000000 0.000000 0.042592 0.000000 0.000000
# 5 0.000000 0.000000 0.000000 0.000000 0.052648 0.000000
# 6 0.000000 0.000000 0.000000 0.000000 0.000000 0.043588
#
#
# Mechanical properties :
#
#
# Convention : Reuss Voigt Hill
#
# Bulk Modulus (GPa) = 39.59523 47.35643 43.47583
# Shear Modulus (GPa) = 15.19871 17.88926 16.54398
#
# Velocity S-wave (km/s) = 3.40551 3.69466 3.55303
# Velocity P-wave (km/s) = 6.75846 7.37132 7.07153
#
# Compressibility (1/GPa) = 0.02525557
#
# Stress axis : x y z
#
# Youngs Moduli (GPa) = 19.85043 38.11588 37.20281
#
# Poissons Ratio (x) = 0.47363 0.63135
# Poissons Ratio (y) = 0.24666 0.36168
# Poissons Ratio (z) = 0.33687 0.37056
#
# Static dielectric constant tensor:
#      x y z
#    x 2.341030 0.000000 0.000000 
#    y 0.000000 2.774330 0.000000 
#    z 0.000000 0.000000 2.725770 
# 
# 
# High freq. dielectric constant tensor:
#      x y z
#    x 1.451810 0.000000 0.000000 
#    y 0.000000 1.487040 0.000000 
#    z 0.000000 0.000000 1.507980 
# 
# From -- ./inp_files/12502.got.cif
#   From: 2010.03.12/outbox.cif.g09.slc.cpg/sg65_7_cif.got.tgz:12502.got - 2010.04.10 20:52:16.
