data_PCOD8265050
_publ_section_title
;
Structure prediction by ZEFSAII (Michael W. Deem and Ramdas Pophale) SiO2 
 PCOD8265050
Probable space group: C M M M
;
_chemical_formula_sum "Si O2"
_cell_formula_units_Z 96
_cell_length_a 23.359247
_cell_length_b 26.054507
_cell_length_c 11.731968
_cell_angle_alpha 90.000000
_cell_angle_beta 90.000000
_cell_angle_gamma 90.000000
_cell_volume 7140.236036
_symmetry_space_group_name_H-M "C M M M"
_symmetry_group_IT_number 65
_symmetry_cell_setting 'orthorhombic'
loop_
_space_group_symop_operation_xyz
x,y,z
-x,-y,z
x,-y,-z
-x,y,-z
-x,-y,-z
x,y,-z
-x,y,z
x,-y,z
1/2+x,1/2+y,z
1/2-x,1/2-y,z
1/2+x,1/2-y,-z
1/2-x,1/2+y,-z
1/2-x,1/2-y,-z
1/2+x,1/2+y,-z
1/2-x,1/2+y,z
1/2+x,1/2-y,z
loop_
_atom_site_type_symbol
_atom_site_label
_atom_site_fract_x
_atom_site_fract_y
_atom_site_fract_z
Si Si1 0.770471 0.057286 0.500000
Si Si2 0.406922 0.557698 0.500000
Si Si3 0.303244 0.787574 0.372228
Si Si4 0.564207 0.390509 0.733830
Si Si5 0.833809 0.940503 0.865576
Si Si6 0.763827 0.874930 0.297590
Si Si7 0.370242 0.307042 0.367571
O O1 0.838867 0.060672 0.500000
O O2 0.744341 0.082509 0.612656
O O3 0.747853 0.000000 0.500000
O O4 0.429151 0.500000 0.500000
O O5 0.432473 0.584222 0.610530
O O6 0.314640 0.809426 0.500000
O O7 0.250000 0.750000 0.378597
O O8 0.289503 0.834592 0.284266
O O9 0.356722 0.752095 0.331060
O O10 0.500000 0.393521 0.783022
O O11 0.605181 0.420344 0.821310
O O12 0.581183 0.330322 0.715957
O O13 0.782618 0.904320 0.817600
O O14 0.825609 0.000000 0.827229
O O15 0.832283 0.935312 0.000000
O O16 0.815665 0.843728 0.353385
O O17 0.388965 0.308965 0.500000
#
# Coordination Sequence:
#
# PCOD8265050 Si02
#       7
#     8   8  16  16  16  16  16
#     4  11  16  21  36  56  74  94 113 146 192 229
#     4  11  19  26  36  54  75  93 117 157 207 236
#     4   8  13  20  37  58  76  92 110 138 182 235
#     4  11  20  29  41  54  72  97 126 164 200 225
#     4  10  21  33  41  50  69 101 137 165 188 220
#     4  10  14  25  39  55  72  90 118 151 184 228
#     4   9  14  24  37  56  78  93 112 145 188 237
#
# _framework density 13.444934
#
# number of rings (size 3 to 8) (size 9 to 14) (size 15 to 20)
#    0.000    2.167    5.833    2.250    0.000    2.000 
#    0.000    0.833    0.000   12.500    0.000    0.000 
#    0.000    0.000    0.000    0.000    0.000    4.167 
#
# Total GULP energy -594629.948151 kJ/mol
# GULP energy per Si atom -12388.123920 kJ/mol
# Density = 1.341433 g / cm^3
# Si number density = 13.444934 Si / 1000 Ang^3
#
#
#
# Elastic Constant Matrix: (Units=GPa)
#
#
# Indices 1 2 3 4 5 6 
#
# 1 27.0598 41.1344 17.2549 0.0000 0.0000 0.0000
# 2 41.1344 103.0248 37.6909 0.0000 0.0000 0.0000
# 3 17.2549 37.6909 55.1812 0.0000 0.0000 0.0000
# 4 0.0000 0.0000 0.0000 15.9310 0.0000 0.0000
# 5 0.0000 0.0000 0.0000 0.0000 9.9566 0.0000
# 6 0.0000 0.0000 0.0000 0.0000 0.0000 14.8424
#
#
#
# Elastic Compliance Matrix: (Units=1/GPa)
#
#
# Indices 1 2 3 4 5 6 
#
# 1 0.095069 -0.036104 -0.005067 0.000000 0.000000 0.000000
# 2 -0.036104 0.026651 -0.006914 0.000000 0.000000 0.000000
# 3 -0.005067 -0.006914 0.024429 0.000000 0.000000 0.000000
# 4 0.000000 0.000000 0.000000 0.062771 0.000000 0.000000
# 5 0.000000 0.000000 0.000000 0.000000 0.100436 0.000000
# 6 0.000000 0.000000 0.000000 0.000000 0.000000 0.067374
#
#
# Mechanical properties :
#
#
# Convention : Reuss Voigt Hill
#
# Bulk Modulus (GPa) = 20.00857 41.93626 30.97241
# Shear Modulus (GPa) = 10.21323 14.09172 12.15247
#
# Velocity S-wave (km/s) = 2.75914 3.24096 3.00970
# Velocity P-wave (km/s) = 5.00646 6.72785 5.92995
#
# Compressibility (1/GPa) = 0.04997859
#
# Stress axis : x y z
#
# Youngs Moduli (GPa) = 10.51864 37.52196 40.93464
#
# Poissons Ratio (x) = 1.35470 0.20742
# Poissons Ratio (y) = 0.37977 0.28302
# Poissons Ratio (z) = 0.05330 0.25943
#
# Static dielectric constant tensor:
#      x y z
#    x 2.602710 0.000000 0.000000 
#    y 0.000000 3.179880 0.000000 
#    z 0.000000 0.000000 2.505140 
# 
# 
# High freq. dielectric constant tensor:
#      x y z
#    x 1.458280 0.000000 0.000000 
#    y 0.000000 1.518160 0.000000 
#    z 0.000000 0.000000 1.487860 
# 
# From -- ./inp_files/32878.got.cif
#   From: 2010.03.12/outbox.cif.g09.slc.cpg/sg65_17_cif.got.tgz:32878.got - 2010.04.10 20:52:16.
