data_PCOD8265004
_publ_section_title
;
Structure prediction by ZEFSAII (Michael W. Deem and Ramdas Pophale) SiO2 
 PCOD8265004
Probable space group: C M C A
;
_chemical_formula_sum "Si O2"
_cell_formula_units_Z 80
_cell_length_a 25.111513
_cell_length_b 8.811782
_cell_length_c 15.527211
_cell_angle_alpha 90.000000
_cell_angle_beta 90.000000
_cell_angle_gamma 90.000000
_cell_volume 3435.817436
_symmetry_space_group_name_H-M "C M C A"
_symmetry_group_IT_number 64
_symmetry_cell_setting 'orthorhombic'
loop_
_space_group_symop_operation_xyz
x,y,z
-x,1/2-y,1/2+z
x,-y,-z
-x,1/2+y,1/2-z
-x,-y,-z
x,1/2+y,1/2-z
-x,y,z
x,1/2-y,1/2+z
1/2+x,1/2+y,z
1/2-x,-y,1/2+z
1/2+x,1/2-y,-z
1/2-x,y,1/2-z
1/2-x,1/2-y,-z
1/2+x,y,1/2-z
1/2-x,1/2+y,z
1/2+x,-y,1/2+z
loop_
_atom_site_type_symbol
_atom_site_label
_atom_site_fract_x
_atom_site_fract_y
_atom_site_fract_z
Si Si1 0.718481 0.515200 0.333762
Si Si2 0.905573 0.332694 0.503215
Si Si3 0.391166 0.650524 0.676851
Si Si4 0.439405 0.675180 0.332895
Si Si5 0.792235 0.193355 0.934165
O O1 0.750000 0.565218 0.250000
O O2 0.671781 0.390139 0.324198
O O3 0.766595 0.452152 0.390368
O O4 0.692251 0.667762 0.370989
O O5 0.932967 0.500000 0.500000
O O6 0.909102 0.257869 0.597743
O O7 0.933005 0.227719 0.431667
O O8 0.844433 0.359965 0.481649
O O9 0.426683 0.501592 0.671906
O O10 0.401377 0.733714 0.767418
O O11 0.500000 0.700761 0.303570
O O12 0.750000 0.250000 0.000000
#
# Coordination Sequence:
#
# PCOD8265004 Si02
#       5
#    16  16  16  16  16
#     4  12  26  42  68 106 150 198 240 299 363 444
#     4  12  26  48  75 110 152 199 247 307 377 450
#     4  12  27  48  77 107 152 197 249 312 377 450
#     4  12  28  50  78 109 144 191 257 322 381 445
#     4  12  24  42  69 103 149 197 240 293 361 441
#
# _framework density 23.284123999999998
#
# number of rings (size 3 to 8) (size 9 to 14) (size 15 to 20)
#    0.000    0.000    4.000    6.000    2.800    2.800 
#    0.000    0.000    0.000    0.000    0.000    0.000 
#    0.000    0.000    0.000    0.000    0.000    0.000 
#
# Total GULP energy -496108.916764 kJ/mol
# GULP energy per Si atom -12402.722919 kJ/mol
# Density = 2.323113 g / cm^3
# Si number density = 23.284124 Si / 1000 Ang^3
#
#
#
# Elastic Constant Matrix: (Units=GPa)
#
#
# Indices 1 2 3 4 5 6 
#
# 1 80.0868 2.8025 7.2147 0.0000 0.0000 0.0000
# 2 2.8025 130.6598 35.0629 0.0000 0.0000 0.0000
# 3 7.2147 35.0629 113.2826 0.0000 0.0000 0.0000
# 4 0.0000 0.0000 0.0000 28.8919 0.0000 0.0000
# 5 0.0000 0.0000 0.0000 0.0000 17.6801 0.0000
# 6 0.0000 0.0000 0.0000 0.0000 0.0000 26.1887
#
#
#
# Elastic Compliance Matrix: (Units=1/GPa)
#
#
# Indices 1 2 3 4 5 6 
#
# 1 0.012559 -0.000060 -0.000781 0.000000 0.000000 0.000000
# 2 -0.000060 0.008347 -0.002580 0.000000 0.000000 0.000000
# 3 -0.000781 -0.002580 0.009676 0.000000 0.000000 0.000000
# 4 0.000000 0.000000 0.000000 0.034612 0.000000 0.000000
# 5 0.000000 0.000000 0.000000 0.000000 0.056561 0.000000
# 6 0.000000 0.000000 0.000000 0.000000 0.000000 0.038184
#
#
# Mechanical properties :
#
#
# Convention : Reuss Voigt Hill
#
# Bulk Modulus (GPa) = 42.12291 46.02106 44.07198
# Shear Modulus (GPa) = 28.62157 33.14876 30.88517
#
# Velocity S-wave (km/s) = 3.50984 3.77724 3.64599
# Velocity P-wave (km/s) = 5.87839 6.23148 6.05750
#
# Compressibility (1/GPa) = 0.02374005
#
# Stress axis : x y z
#
# Youngs Moduli (GPa) = 79.62464 119.80315 103.35150
#
# Poissons Ratio (x) = 0.00715 0.08076
# Poissons Ratio (y) = 0.00475 0.26662
# Poissons Ratio (z) = 0.06222 0.30906
#
# Static dielectric constant tensor:
#      x y z
#    x 4.072540 0.000000 0.000000 
#    y 0.000000 6.189060 0.000000 
#    z 0.000000 0.000000 4.038370 
# 
# 
# High freq. dielectric constant tensor:
#      x y z
#    x 1.921700 0.000000 0.000000 
#    y 0.000000 1.937380 0.000000 
#    z 0.000000 0.000000 1.932190 
# 
# From -- ./inp_files/35352.got.cif
#   From: 2010.03.12/outbox.cif.g09.slc.cpg/sg64_18_cif.got.tgz:35352.got - 2010.04.10 20:19:32.
