data_PCOD8265419
_publ_section_title
;
Structure prediction by ZEFSAII (Michael W. Deem and Ramdas Pophale) SiO2 
 PCOD8265419
Probable space group: C M M M
;
_chemical_formula_sum "Si O2"
_cell_formula_units_Z 128
_cell_length_a 23.074853
_cell_length_b 18.422600
_cell_length_c 19.125891
_cell_angle_alpha 90.000000
_cell_angle_beta 90.000000
_cell_angle_gamma 90.000000
_cell_volume 8130.393062
_symmetry_space_group_name_H-M "C M M M"
_symmetry_group_IT_number 65
_symmetry_cell_setting 'orthorhombic'
loop_
_space_group_symop_operation_xyz
x,y,z
-x,-y,z
x,-y,-z
-x,y,-z
-x,-y,-z
x,y,-z
-x,y,z
x,-y,z
1/2+x,1/2+y,z
1/2-x,1/2-y,z
1/2+x,1/2-y,-z
1/2-x,1/2+y,-z
1/2-x,1/2-y,-z
1/2+x,1/2+y,-z
1/2-x,1/2+y,z
1/2+x,1/2-y,z
loop_
_atom_site_type_symbol
_atom_site_label
_atom_site_fract_x
_atom_site_fract_y
_atom_site_fract_z
Si Si1 0.067910 0.079771 0.076664
Si Si2 0.247034 0.584212 0.834540
Si Si3 0.157996 0.783836 0.318414
Si Si4 0.138935 0.822290 0.834057
Si Si5 0.307777 0.797325 0.920872
Si Si6 0.727491 0.862132 0.683577
Si Si7 0.066772 0.719834 0.418128
Si Si8 0.137979 0.580951 0.579916
O O1 0.083266 0.138504 0.134764
O O2 0.000000 0.076974 0.071173
O O3 0.091626 0.000000 0.097881
O O4 0.093637 0.101054 0.000000
O O5 0.250669 0.500000 0.855568
O O6 0.307851 0.623477 0.846353
O O7 0.201255 0.623873 0.885608
O O8 0.227957 0.591044 0.754019
O O9 0.127124 0.809212 0.247514
O O10 0.207112 0.842108 0.341552
O O11 0.190538 0.709479 0.301133
O O12 0.108538 0.776241 0.377590
O O13 0.145829 0.746119 0.874356
O O14 0.250000 0.750000 0.920251
O O15 0.330469 0.808414 0.000000
O O16 0.696848 0.908191 0.623245
O O17 0.072913 0.736864 0.500000
O O18 0.087426 0.637883 0.400285
O O19 0.000000 0.728265 0.393887
O O20 0.156595 0.592087 0.500000
O O21 0.113324 0.500000 0.593253
#
# Coordination Sequence:
#
# PCOD8265419 Si02
#       8
#    16  16  16  16  16  16  16  16
#     4   9  18  31  45  63  88 115 143 181 231 278
#     4  10  18  27  42  63  88 118 145 174 218 265
#     4   9  17  28  46  64  87 116 153 185 225 265
#     4  10  17  29  45  64  85 115 149 185 218 264
#     4   9  17  28  41  59  85 115 146 179 214 257
#     4   9  16  29  43  63  89 119 145 183 223 271
#     4   9  18  31  45  64  91 120 151 188 229 272
#     4   9  17  28  44  66  90 117 147 180 222 273
#
# _framework density 15.743396000000001
#
# number of rings (size 3 to 8) (size 9 to 14) (size 15 to 20)
#    0.000    2.750    1.250    1.500    0.000    2.000 
#    0.000    3.750    0.000    0.000    0.000    0.000 
#    0.000    0.500    0.000   52.125    0.000    0.750 
#
# Total GULP energy -793301.592291 kJ/mol
# GULP energy per Si atom -12395.337380 kJ/mol
# Density = 1.570756 g / cm^3
# Si number density = 15.743396 Si / 1000 Ang^3
#
#
#
# Elastic Constant Matrix: (Units=GPa)
#
#
# Indices 1 2 3 4 5 6 
#
# 1 64.8337 25.0783 43.8635 0.0000 0.0000 0.0000
# 2 25.0783 76.5112 39.8237 0.0000 0.0000 0.0000
# 3 43.8635 39.8237 80.2842 0.0000 0.0000 0.0000
# 4 0.0000 0.0000 0.0000 23.1637 0.0000 0.0000
# 5 0.0000 0.0000 0.0000 0.0000 22.4544 0.0000
# 6 0.0000 0.0000 0.0000 0.0000 0.0000 18.2646
#
#
#
# Elastic Compliance Matrix: (Units=1/GPa)
#
#
# Indices 1 2 3 4 5 6 
#
# 1 0.024585 -0.001438 -0.012719 0.000000 0.000000 0.000000
# 2 -0.001438 0.017703 -0.007995 0.000000 0.000000 0.000000
# 3 -0.012719 -0.007995 0.023371 0.000000 0.000000 0.000000
# 4 0.000000 0.000000 0.000000 0.043171 0.000000 0.000000
# 5 0.000000 0.000000 0.000000 0.000000 0.044535 0.000000
# 6 0.000000 0.000000 0.000000 0.000000 0.000000 0.054751
#
#
# Mechanical properties :
#
#
# Convention : Reuss Voigt Hill
#
# Bulk Modulus (GPa) = 46.82984 48.79556 47.81270
# Shear Modulus (GPa) = 19.26492 20.30076 19.78284
#
# Velocity S-wave (km/s) = 3.50191 3.59483 3.54867
# Velocity P-wave (km/s) = 6.79422 6.94924 6.87217
#
# Compressibility (1/GPa) = 0.02135391
#
# Stress axis : x y z
#
# Youngs Moduli (GPa) = 40.67450 56.48751 42.78854
#
# Poissons Ratio (x) = 0.08125 0.54422
# Poissons Ratio (y) = 0.05850 0.34211
# Poissons Ratio (z) = 0.51733 0.45164
#
# Static dielectric constant tensor:
#      x y z
#    x 2.780160 0.000000 0.000000 
#    y 0.000000 3.009600 0.000000 
#    z 0.000000 0.000000 3.047080 
# 
# 
# High freq. dielectric constant tensor:
#      x y z
#    x 1.575440 0.000000 0.000000 
#    y 0.000000 1.596140 0.000000 
#    z 0.000000 0.000000 1.608160 
# 
# From -- ./inp_files/57009.got.cif
#   From: 2010.03.12/outbox.cif.g09.slc.cpg/sg65_29_cif.got.tgz:57009.got - 2010.04.10 20:52:16.
