data_PCOD8265003
_publ_section_title
;
Structure prediction by ZEFSAII (Michael W. Deem and Ramdas Pophale) SiO2 
 PCOD8265003
Probable space group: C M C A
;
_chemical_formula_sum "Si O2"
_cell_formula_units_Z 104
_cell_length_a 29.099063
_cell_length_b 19.894581
_cell_length_c 8.279977
_cell_angle_alpha 90.000000
_cell_angle_beta 90.000000
_cell_angle_gamma 90.000000
_cell_volume 4793.391838
_symmetry_space_group_name_H-M "C M C A"
_symmetry_group_IT_number 64
_symmetry_cell_setting 'orthorhombic'
loop_
_space_group_symop_operation_xyz
x,y,z
-x,1/2-y,1/2+z
x,-y,-z
-x,1/2+y,1/2-z
-x,-y,-z
x,1/2+y,1/2-z
-x,y,z
x,1/2-y,1/2+z
1/2+x,1/2+y,z
1/2-x,-y,1/2+z
1/2+x,1/2-y,-z
1/2-x,y,1/2-z
1/2-x,1/2-y,-z
1/2+x,y,1/2-z
1/2-x,1/2+y,z
1/2+x,-y,1/2+z
loop_
_atom_site_type_symbol
_atom_site_label
_atom_site_fract_x
_atom_site_fract_y
_atom_site_fract_z
Si Si1 0.847687 0.940009 0.624733
Si Si2 0.500000 0.292296 0.549440
Si Si3 0.598422 0.320638 0.456650
Si Si4 0.500000 0.157787 0.385197
Si Si5 0.872866 0.681419 0.597484
Si Si6 0.587444 0.934204 0.591968
Si Si7 0.231416 0.682284 0.572359
Si Si8 0.750000 0.901938 0.750000
O O1 0.864100 0.868611 0.546582
O O2 0.887456 0.960064 0.748393
O O3 0.797615 0.940409 0.711550
O O4 0.846038 0.000000 0.500000
O O5 0.544755 0.334965 0.492090
O O6 0.500000 0.211127 0.529868
O O7 0.500000 0.290349 0.740353
O O8 0.603199 0.328962 0.267409
O O9 0.604909 0.242885 0.501578
O O10 0.543743 0.110863 0.375399
O O11 0.876194 0.611387 0.503143
O O12 0.820246 0.697703 0.617444
O O13 0.570739 0.000000 0.500000
O O14 0.250000 0.659041 0.750000
O O15 0.250000 0.750000 0.500000
O O16 0.239972 0.632939 0.422416
#
# Coordination Sequence:
#
# PCOD8265003 Si02
#       8
#    16   8  16   8  16  16  16   8
#     4  12  27  52  73 104 149 198 255 310 380 458
#     4  12  24  44  76 108 147 186 242 306 375 442
#     4  12  25  44  74 108 145 194 246 309 378 445
#     4  12  25  48  72 114 146 189 248 311 369 457
#     4  12  24  44  71 105 150 191 243 311 376 445
#     4  12  26  47  74 105 150 195 245 306 375 451
#     4  12  24  41  70 111 151 196 250 310 383 457
#     4  12  26  48  76 106 150 196 258 316 380 462
#
# _framework density 21.696535999999998
#
# number of rings (size 3 to 8) (size 9 to 14) (size 15 to 20)
#    0.000    0.000    5.385    5.769    0.000    0.615 
#    4.154    3.077    0.000    0.000    0.000    0.000 
#    0.000    0.000    0.000    0.000    0.000    0.000 
#
# Total GULP energy -644286.933551 kJ/mol
# GULP energy per Si atom -12390.133338 kJ/mol
# Density = 2.164715 g / cm^3
# Si number density = 21.696536 Si / 1000 Ang^3
#
#
#
# Elastic Constant Matrix: (Units=GPa)
#
#
# Indices 1 2 3 4 5 6 
#
# 1 137.9047 64.5028 34.3786 0.0000 0.0000 0.0000
# 2 64.5028 100.9796 62.9182 0.0000 0.0000 0.0000
# 3 34.3786 62.9182 148.5098 0.0000 0.0000 0.0000
# 4 0.0000 0.0000 0.0000 44.6787 0.0000 0.0000
# 5 0.0000 0.0000 0.0000 0.0000 -14.9630 0.0000
# 6 0.0000 0.0000 0.0000 0.0000 0.0000 52.3455
#
#
#
# Elastic Compliance Matrix: (Units=1/GPa)
#
#
# Indices 1 2 3 4 5 6 
#
# 1 0.010374 -0.006970 0.000552 0.000000 0.000000 0.000000
# 2 -0.006970 0.018138 -0.006071 0.000000 0.000000 0.000000
# 3 0.000552 -0.006071 0.009178 0.000000 0.000000 0.000000
# 4 0.000000 0.000000 0.000000 0.022382 0.000000 0.000000
# 5 0.000000 0.000000 0.000000 0.000000 -0.066832 0.000000
# 6 0.000000 0.000000 0.000000 0.000000 0.000000 0.019104
#
#
# Mechanical properties :
#
#
# Convention : Reuss Voigt Hill
#
# Bulk Modulus (GPa) = 78.67336 78.99926 78.83631
# Shear Modulus (GPa) = 120.30599 31.45188 75.87894
#
# Velocity S-wave (km/s) = 7.45451 3.81153 5.92020
# Velocity P-wave (km/s) = 10.50869 7.47398 9.11847
#
# Compressibility (1/GPa) = 0.01271078
#
# Stress axis : x y z
#
# Youngs Moduli (GPa) = 96.39313 55.13246 108.95745
#
# Poissons Ratio (x) = 0.38430 -0.06010
# Poissons Ratio (y) = 0.67190 0.66147
# Poissons Ratio (z) = -0.05317 0.33470
#
# Static dielectric constant tensor:
#      x y z
#    x 4.077370 0.000000 0.000000 
#    y 0.000000 4.708260 0.000000 
#    z 0.000000 0.000000 4.074910 
# 
# 
# High freq. dielectric constant tensor:
#      x y z
#    x 1.877460 0.000000 0.000000 
#    y 0.000000 1.837810 0.000000 
#    z 0.000000 0.000000 1.874050 
# 
# From -- ./inp_files/11228.got.cif
#   From: 2010.03.12/outbox.cif.g09.slc.cpg/sg64_6_cif.got.tgz:11228.got - 2010.04.10 20:19:32.
