data_PCOD8265809
_publ_section_title
;
Structure prediction by ZEFSAII (Michael W. Deem and Ramdas Pophale) SiO2 
 PCOD8265809
Probable space group: C M M M
;
_chemical_formula_sum "Si O2"
_cell_formula_units_Z 96
_cell_length_a 8.721007
_cell_length_b 27.725386
_cell_length_c 24.092662
_cell_angle_alpha 90.000000
_cell_angle_beta 90.000000
_cell_angle_gamma 90.000000
_cell_volume 5825.443899
_symmetry_space_group_name_H-M "C M M M"
_symmetry_group_IT_number 65
_symmetry_cell_setting 'orthorhombic'
loop_
_space_group_symop_operation_xyz
x,y,z
-x,-y,z
x,-y,-z
-x,y,-z
-x,-y,-z
x,y,-z
-x,y,z
x,-y,z
1/2+x,1/2+y,z
1/2-x,1/2-y,z
1/2+x,1/2-y,-z
1/2-x,1/2+y,-z
1/2-x,1/2-y,-z
1/2+x,1/2+y,-z
1/2-x,1/2+y,z
1/2+x,1/2-y,z
loop_
_atom_site_type_symbol
_atom_site_label
_atom_site_fract_x
_atom_site_fract_y
_atom_site_fract_z
Si Si1 0.818132 0.301584 0.061690
Si Si2 0.180586 0.644372 0.167027
Si Si3 0.679602 0.054636 0.233185
Si Si4 0.181430 0.698271 0.724492
Si Si5 0.317983 0.446096 0.438695
Si Si6 0.818763 0.109756 0.332562
O O1 0.750000 0.250000 0.077150
O O2 0.752946 0.339794 0.106997
O O3 0.000000 0.297459 0.064290
O O4 0.764868 0.317978 0.000000
O O5 0.227089 0.589246 0.181530
O O6 0.242036 0.679806 0.215510
O O7 0.000000 0.649449 0.164577
O O8 0.500000 0.061175 0.246762
O O9 0.774154 0.069672 0.287167
O O10 0.720160 0.000000 0.216376
O O11 0.250000 0.750000 0.710731
O O12 0.237161 0.660706 0.678001
O O13 0.000000 0.701281 0.722846
O O14 0.264362 0.428562 0.500000
O O15 0.500000 0.448060 0.435988
O O16 0.253641 0.500000 0.427224
O O17 0.257572 0.409289 0.392010
O O18 0.000000 0.117379 0.331618
#
# Coordination Sequence:
#
# PCOD8265809 Si02
#       6
#    16  16  16  16  16  16
#     4   9  16  26  41  60  82 107 136 172 212 254
#     4   8  15  27  42  61  84 111 141 172 210 254
#     4   9  17  29  44  61  85 117 147 176 213 256
#     4  10  19  31  46  64  88 116 145 177 214 257
#     4   8  14  25  42  65  91 116 141 171 209 252
#     4  10  18  28  45  68  91 114 142 177 214 254
#
# _framework density 16.479431000000002
#
# number of rings (size 3 to 8) (size 9 to 14) (size 15 to 20)
#    0.000    3.000    0.000    3.500    0.000    1.000 
#    0.000    3.333    0.000    3.000    0.000    9.333 
#    0.000    0.000    0.000   10.167    0.000   11.000 
#
# Total GULP energy -594896.520460 kJ/mol
# GULP energy per Si atom -12393.677510 kJ/mol
# Density = 1.644192 g / cm^3
# Si number density = 16.479431 Si / 1000 Ang^3
#
#
#
# Elastic Constant Matrix: (Units=GPa)
#
#
# Indices 1 2 3 4 5 6 
#
# 1 31.5127 23.6426 18.6110 0.0000 0.0000 0.0000
# 2 23.6426 141.9681 84.4817 0.0000 0.0000 0.0000
# 3 18.6110 84.4817 141.8048 0.0000 0.0000 0.0000
# 4 0.0000 0.0000 0.0000 27.2891 0.0000 0.0000
# 5 0.0000 0.0000 0.0000 0.0000 16.4276 0.0000
# 6 0.0000 0.0000 0.0000 0.0000 0.0000 22.0307
#
#
#
# Elastic Compliance Matrix: (Units=1/GPa)
#
#
# Indices 1 2 3 4 5 6 
#
# 1 0.036563 -0.005009 -0.001814 0.000000 0.000000 0.000000
# 2 -0.005009 0.011599 -0.006253 0.000000 0.000000 0.000000
# 3 -0.001814 -0.006253 0.011015 0.000000 0.000000 0.000000
# 4 0.000000 0.000000 0.000000 0.036645 0.000000 0.000000
# 5 0.000000 0.000000 0.000000 0.000000 0.060873 0.000000
# 6 0.000000 0.000000 0.000000 0.000000 0.000000 0.045391
#
#
# Mechanical properties :
#
#
# Convention : Reuss Voigt Hill
#
# Bulk Modulus (GPa) = 30.28064 63.19512 46.73788
# Shear Modulus (GPa) = 20.89890 25.71950 23.30920
#
# Velocity S-wave (km/s) = 3.56502 3.95486 3.76499
# Velocity P-wave (km/s) = 5.94647 7.69972 6.87918
#
# Compressibility (1/GPa) = 0.03302440
#
# Stress axis : x y z
#
# Youngs Moduli (GPa) = 27.35000 86.21500 90.78379
#
# Poissons Ratio (x) = 0.43188 0.16471
# Poissons Ratio (y) = 0.13701 0.56765
# Poissons Ratio (z) = 0.04962 0.53908
#
# Static dielectric constant tensor:
#      x y z
#    x 2.857790 0.000000 0.000000 
#    y 0.000000 3.208810 0.000000 
#    z 0.000000 0.000000 3.470470 
# 
# 
# High freq. dielectric constant tensor:
#      x y z
#    x 1.611900 0.000000 0.000000 
#    y 0.000000 1.626930 0.000000 
#    z 0.000000 0.000000 1.628350 
# 
# From -- ./inp_files/68012.got.cif
#   From: 2010.03.12/outbox.cif.g09.slc.cpg/sg65_35_cif.got.tgz:68012.got - 2010.04.10 20:52:16.
