data_PCOD8265561
_publ_section_title
;
Structure prediction by ZEFSAII (Michael W. Deem and Ramdas Pophale) SiO2 
 PCOD8265561
Probable space group: C M M M
;
_chemical_formula_sum "Si O2"
_cell_formula_units_Z 88
_cell_length_a 33.555308
_cell_length_b 23.030217
_cell_length_c 9.192093
_cell_angle_alpha 90.000000
_cell_angle_beta 90.000000
_cell_angle_gamma 90.000000
_cell_volume 7103.521009
_symmetry_space_group_name_H-M "C M M M"
_symmetry_group_IT_number 65
_symmetry_cell_setting 'orthorhombic'
loop_
_space_group_symop_operation_xyz
x,y,z
-x,-y,z
x,-y,-z
-x,y,-z
-x,-y,-z
x,y,-z
-x,y,z
x,-y,z
1/2+x,1/2+y,z
1/2-x,1/2-y,z
1/2+x,1/2-y,-z
1/2-x,1/2+y,-z
1/2-x,1/2-y,-z
1/2+x,1/2+y,-z
1/2-x,1/2+y,z
1/2+x,1/2-y,z
loop_
_atom_site_type_symbol
_atom_site_label
_atom_site_fract_x
_atom_site_fract_y
_atom_site_fract_z
Si Si1 0.348968 0.128103 0.829460
Si Si2 0.500000 0.068942 0.164748
Si Si3 0.729078 0.338541 0.337027
Si Si4 0.578453 0.068291 0.330303
Si Si5 0.312556 0.773479 0.664513
Si Si6 0.233250 0.565132 0.830232
O O1 0.384814 0.100682 0.741304
O O2 0.342734 0.194292 0.774150
O O3 0.310284 0.089786 0.792814
O O4 0.358740 0.128661 0.000000
O O5 0.538731 0.091259 0.250872
O O6 0.500000 0.000000 0.161767
O O7 0.500000 0.093710 0.000000
O O8 0.719307 0.358880 0.500000
O O9 0.694738 0.293339 0.283926
O O10 0.770799 0.305975 0.331883
O O11 0.731506 0.395886 0.238200
O O12 0.575556 0.083830 0.500000
O O13 0.584216 0.000000 0.306016
O O14 0.329729 0.774734 0.500000
O O15 0.235997 0.500000 0.766927
O O16 0.240815 0.565520 0.000000
#
# Coordination Sequence:
#
# PCOD8265561 Si02
#       6
#    16   8  16  16  16  16
#     4  10  18  26  37  52  69  88 111 140 173 207
#     4   9  17  29  43  55  67  85 109 137 168 203
#     4   8  14  24  37  49  62  83 109 137 167 202
#     4  10  19  29  40  53  69  89 112 138 170 207
#     4   8  14  25  37  49  65  83 106 136 170 204
#     4   9  17  26  34  47  68  90 111 139 174 208
#
# _framework density 12.388223
#
# number of rings (size 3 to 8) (size 9 to 14) (size 15 to 20)
#    0.000    3.000    0.000    3.000    0.000    4.727 
#    0.000    3.636    0.000    0.000    0.000    0.000 
#    0.000    0.000    0.000    0.000    0.000    0.000 
#
# Total GULP energy -545329.071066 kJ/mol
# GULP energy per Si atom -12393.842524 kJ/mol
# Density = 1.236003 g / cm^3
# Si number density = 12.388223 Si / 1000 Ang^3
#
#
#
# Elastic Constant Matrix: (Units=GPa)
#
#
# Indices 1 2 3 4 5 6 
#
# 1 45.4125 39.4443 42.3246 0.0000 0.0000 0.0000
# 2 39.4443 79.1459 44.5019 0.0000 0.0000 0.0000
# 3 42.3246 44.5019 75.5913 0.0000 0.0000 0.0000
# 4 0.0000 0.0000 0.0000 20.7383 0.0000 0.0000
# 5 0.0000 0.0000 0.0000 0.0000 20.4011 0.0000
# 6 0.0000 0.0000 0.0000 0.0000 0.0000 12.5361
#
#
#
# Elastic Compliance Matrix: (Units=1/GPa)
#
#
# Indices 1 2 3 4 5 6 
#
# 1 0.056406 -0.015476 -0.022471 0.000000 0.000000 0.000000
# 2 -0.015476 0.023133 -0.004954 0.000000 0.000000 0.000000
# 3 -0.022471 -0.004954 0.028727 0.000000 0.000000 0.000000
# 4 0.000000 0.000000 0.000000 0.048220 0.000000 0.000000
# 5 0.000000 0.000000 0.000000 0.000000 0.049017 0.000000
# 6 0.000000 0.000000 0.000000 0.000000 0.000000 0.079770
#
#
# Mechanical properties :
#
#
# Convention : Reuss Voigt Hill
#
# Bulk Modulus (GPa) = 44.51525 50.29904 47.40714
# Shear Modulus (GPa) = 13.20783 15.66036 14.43409
#
# Velocity S-wave (km/s) = 3.26875 3.55932 3.41713
# Velocity P-wave (km/s) = 7.08928 7.58829 7.34302
#
# Compressibility (1/GPa) = 0.02246421
#
# Stress axis : x y z
#
# Youngs Moduli (GPa) = 17.72858 43.22803 34.81013
#
# Poissons Ratio (x) = 0.66901 0.78223
# Poissons Ratio (y) = 0.27437 0.17243
# Poissons Ratio (z) = 0.39839 0.21413
#
# Static dielectric constant tensor:
#      x y z
#    x 2.350440 0.000000 0.000000 
#    y 0.000000 2.695600 0.000000 
#    z 0.000000 0.000000 2.673920 
# 
# 
# High freq. dielectric constant tensor:
#      x y z
#    x 1.429480 0.000000 0.000000 
#    y 0.000000 1.449220 0.000000 
#    z 0.000000 0.000000 1.481920 
# 
# From -- ./inp_files/14956.got.cif
#   From: 2010.03.12/outbox.cif.g09.slc.cpg/sg65_8_cif.got.tgz:14956.got - 2010.04.10 20:52:16.
