data_PCOD8265256
_publ_section_title
;
Structure prediction by ZEFSAII (Michael W. Deem and Ramdas Pophale) SiO2 
 PCOD8265256
Probable space group: C M M M
;
_chemical_formula_sum "Si O2"
_cell_formula_units_Z 112
_cell_length_a 22.726491
_cell_length_b 29.679324
_cell_length_c 9.299203
_cell_angle_alpha 90.000000
_cell_angle_beta 90.000000
_cell_angle_gamma 90.000000
_cell_volume 6272.376493
_symmetry_space_group_name_H-M "C M M M"
_symmetry_group_IT_number 65
_symmetry_cell_setting 'orthorhombic'
loop_
_space_group_symop_operation_xyz
x,y,z
-x,-y,z
x,-y,-z
-x,y,-z
-x,-y,-z
x,y,-z
-x,y,z
x,-y,z
1/2+x,1/2+y,z
1/2-x,1/2-y,z
1/2+x,1/2-y,-z
1/2-x,1/2+y,-z
1/2-x,1/2-y,-z
1/2+x,1/2+y,-z
1/2-x,1/2+y,z
1/2+x,1/2-y,z
loop_
_atom_site_type_symbol
_atom_site_label
_atom_site_fract_x
_atom_site_fract_y
_atom_site_fract_z
Si Si1 0.334514 0.886916 0.829054
Si Si2 0.195978 0.696941 0.329892
Si Si3 0.935357 0.450312 0.829347
Si Si4 0.329465 0.296680 0.669362
Si Si5 0.233890 0.049126 0.170236
Si Si6 0.399589 0.551479 0.169415
Si Si7 0.566046 0.361775 0.667639
O O1 0.342347 0.839086 0.754574
O O2 0.388880 0.915313 0.768386
O O3 0.275966 0.911833 0.770568
O O4 0.334468 0.881118 0.000000
O O5 0.190774 0.691297 0.500000
O O6 0.264012 0.688366 0.281941
O O7 0.167620 0.744523 0.281202
O O8 0.921565 0.500000 0.767809
O O9 0.000000 0.434539 0.780257
O O10 0.930946 0.452148 0.000000
O O11 0.334837 0.298871 0.500000
O O12 0.383259 0.327696 0.732224
O O13 0.167609 0.059311 0.217092
O O14 0.253332 0.000000 0.230418
O O15 0.238671 0.047445 0.000000
O O16 0.419276 0.500000 0.209318
O O17 0.435192 0.589627 0.254111
O O18 0.408631 0.558893 0.000000
O O19 0.578504 0.370321 0.500000
O O20 0.500000 0.341067 0.689574
#
# Coordination Sequence:
#
# PCOD8265256 Si02
#       7
#    16  16  16  16  16  16  16
#     4  10  17  25  43  71  95 113 143 190 232 261
#     4   9  17  31  51  69  88 116 146 179 224 277
#     4   8  14  25  41  61  87 122 159 186 211 255
#     4   8  16  33  52  67  86 117 153 182 216 268
#     4   8  14  25  42  65  92 121 151 183 221 263
#     4   9  18  32  48  67  94 125 152 179 217 267
#     4  10  20  33  50  70  90 115 151 192 224 252
#
# _framework density 17.856069999999999
#
# number of rings (size 3 to 8) (size 9 to 14) (size 15 to 20)
#    0.000    3.143    0.000    3.429    0.000    2.571 
#    0.000    4.286    0.000    3.857    0.000    1.000 
#    0.000    0.000    0.000    0.000    0.000    0.000 
#
# Total GULP energy -693757.309590 kJ/mol
# GULP energy per Si atom -12388.523386 kJ/mol
# Density = 1.781543 g / cm^3
# Si number density = 17.856070 Si / 1000 Ang^3
#
#
#
# Elastic Constant Matrix: (Units=GPa)
#
#
# Indices 1 2 3 4 5 6 
#
# 1 96.7464 64.8972 20.6610 0.0000 0.0000 0.0000
# 2 64.8972 124.9239 28.5252 0.0000 0.0000 0.0000
# 3 20.6610 28.5252 22.4391 0.0000 0.0000 0.0000
# 4 0.0000 0.0000 0.0000 -8.9588 0.0000 0.0000
# 5 0.0000 0.0000 0.0000 0.0000 10.5659 0.0000
# 6 0.0000 0.0000 0.0000 0.0000 0.0000 25.6299
#
#
#
# Elastic Compliance Matrix: (Units=1/GPa)
#
#
# Indices 1 2 3 4 5 6 
#
# 1 0.016423 -0.007156 -0.006025 0.000000 0.000000 0.000000
# 2 -0.007156 0.014397 -0.011713 0.000000 0.000000 0.000000
# 3 -0.006025 -0.011713 0.065002 0.000000 0.000000 0.000000
# 4 0.000000 0.000000 0.000000 -0.111622 0.000000 0.000000
# 5 0.000000 0.000000 0.000000 0.000000 0.094644 0.000000
# 6 0.000000 0.000000 0.000000 0.000000 0.000000 0.039017
#
#
# Mechanical properties :
#
#
# Convention : Reuss Voigt Hill
#
# Bulk Modulus (GPa) = 21.72261 52.47514 37.09887
# Shear Modulus (GPa) = 27.32337 14.11581 20.71959
#
# Velocity S-wave (km/s) = 3.91602 2.81469 3.41011
# Velocity P-wave (km/s) = 5.71303 6.32574 6.02718
#
# Compressibility (1/GPa) = 0.04603498
#
# Stress axis : x y z
#
# Youngs Moduli (GPa) = 60.88940 69.45945 15.38408
#
# Poissons Ratio (x) = 0.49705 0.09269
# Poissons Ratio (y) = 0.43573 0.18019
# Poissons Ratio (z) = 0.36685 0.81356
#
# Static dielectric constant tensor:
#      x y z
#    x 3.570320 0.000000 0.000000 
#    y 0.000000 3.495770 0.000000 
#    z 0.000000 0.000000 2.764240 
# 
# 
# High freq. dielectric constant tensor:
#      x y z
#    x 1.690980 0.000000 0.000000 
#    y 0.000000 1.695180 0.000000 
#    z 0.000000 0.000000 1.637930 
# 
# From -- ./inp_files/31060.got.cif
#   From: 2010.03.12/outbox.cif.g09.slc.cpg/sg65_16_cif.got.tgz:31060.got - 2010.04.10 20:52:16.
