data_PCOD8265572
_publ_section_title
;
Structure prediction by ZEFSAII (Michael W. Deem and Ramdas Pophale) SiO2 
 PCOD8265572
Probable space group: C M M M
;
_chemical_formula_sum "Si O2"
_cell_formula_units_Z 104
_cell_length_a 9.094801
_cell_length_b 27.380754
_cell_length_c 26.961054
_cell_angle_alpha 90.000000
_cell_angle_beta 90.000000
_cell_angle_gamma 90.000000
_cell_volume 6713.909309
_symmetry_space_group_name_H-M "C M M M"
_symmetry_group_IT_number 65
_symmetry_cell_setting 'orthorhombic'
loop_
_space_group_symop_operation_xyz
x,y,z
-x,-y,z
x,-y,-z
-x,y,-z
-x,-y,-z
x,y,-z
-x,y,z
x,-y,z
1/2+x,1/2+y,z
1/2-x,1/2-y,z
1/2+x,1/2-y,-z
1/2-x,1/2+y,-z
1/2-x,1/2-y,-z
1/2+x,1/2+y,-z
1/2-x,1/2+y,z
1/2+x,1/2-y,z
loop_
_atom_site_type_symbol
_atom_site_label
_atom_site_fract_x
_atom_site_fract_y
_atom_site_fract_z
Si Si1 0.329263 0.800540 0.398581
Si Si2 0.827226 0.802183 0.212520
Si Si3 0.827890 0.198224 0.000000
Si Si4 0.330753 0.390050 0.556767
Si Si5 0.670755 0.699094 0.895218
Si Si6 0.669838 0.944701 0.361506
Si Si7 0.667916 0.145559 0.297706
O O1 0.500000 0.795527 0.411843
O O2 0.250000 0.750000 0.409058
O O3 0.258922 0.840534 0.434543
O O4 0.306322 0.815673 0.341529
O O5 0.750000 0.750000 0.220369
O O6 0.789765 0.825681 0.157794
O O7 0.771440 0.841425 0.251927
O O8 0.000000 0.794088 0.220125
O O9 0.750000 0.250000 0.000000
O O10 0.787424 0.170408 0.052645
O O11 0.000000 0.208604 0.000000
O O12 0.313781 0.406391 0.500000
O O13 0.500000 0.380914 0.571050
O O14 0.266917 0.433758 0.590163
O O15 0.500000 0.710740 0.894971
O O16 0.750000 0.750000 0.896649
O O17 0.500000 0.935487 0.376046
O O18 0.712812 0.908489 0.316605
O O19 0.698133 0.000000 0.343859
O O20 0.500000 0.146667 0.279492
#
# Coordination Sequence:
#
# PCOD8265572 Si02
#       7
#    16  16   8  16  16  16  16
#     4  10  20  33  49  67  88 116 148 178 208 244
#     4  10  18  26  38  58  84 113 144 175 207 243
#     4   8  12  20  32  44  64  96 135 176 209 235
#     4  10  21  35  50  70  94 116 139 168 202 243
#     4   8  14  22  32  48  70 100 138 175 207 238
#     4   9  19  36  55  71  86 107 136 169 207 252
#     4   9  18  31  46  64  84 107 136 169 205 246
#
# _framework density 15.490228999999999
#
# number of rings (size 3 to 8) (size 9 to 14) (size 15 to 20)
#    0.000    2.769    0.000    2.769    0.000    7.077 
#    0.000    1.538    0.000    0.000    0.000    0.000 
#    0.000    0.000    0.000    0.692    0.000   15.615 
#
# Total GULP energy -644200.433855 kJ/mol
# GULP energy per Si atom -12388.469882 kJ/mol
# Density = 1.545497 g / cm^3
# Si number density = 15.490229 Si / 1000 Ang^3
#
#
#
# Elastic Constant Matrix: (Units=GPa)
#
#
# Indices 1 2 3 4 5 6 
#
# 1 71.7676 29.7237 50.0929 0.0000 0.0000 0.0000
# 2 29.7237 73.0678 37.2888 0.0000 0.0000 0.0000
# 3 50.0929 37.2888 125.0908 0.0000 0.0000 0.0000
# 4 0.0000 0.0000 0.0000 10.1386 0.0000 0.0000
# 5 0.0000 0.0000 0.0000 0.0000 16.5193 0.0000
# 6 0.0000 0.0000 0.0000 0.0000 0.0000 19.1200
#
#
#
# Elastic Compliance Matrix: (Units=1/GPa)
#
#
# Indices 1 2 3 4 5 6 
#
# 1 0.020757 -0.004956 -0.006835 0.000000 0.000000 0.000000
# 2 -0.004956 0.017325 -0.003180 0.000000 0.000000 0.000000
# 3 -0.006835 -0.003180 0.011679 0.000000 0.000000 0.000000
# 4 0.000000 0.000000 0.000000 0.098633 0.000000 0.000000
# 5 0.000000 0.000000 0.000000 0.000000 0.060535 0.000000
# 6 0.000000 0.000000 0.000000 0.000000 0.000000 0.052301
#
#
# Mechanical properties :
#
#
# Convention : Reuss Voigt Hill
#
# Bulk Modulus (GPa) = 50.45463 56.01523 53.23493
# Shear Modulus (GPa) = 16.79103 19.34363 18.06733
#
# Velocity S-wave (km/s) = 3.29595 3.53762 3.41892
# Velocity P-wave (km/s) = 6.86491 7.27506 7.07296
#
# Compressibility (1/GPa) = 0.01981979
#
# Stress axis : x y z
#
# Youngs Moduli (GPa) = 48.17631 57.72106 85.62274
#
# Poissons Ratio (x) = 0.28606 0.58523
# Poissons Ratio (y) = 0.23875 0.27226
# Poissons Ratio (z) = 0.32928 0.18354
#
# Static dielectric constant tensor:
#      x y z
#    x 3.057570 0.000000 0.000000 
#    y 0.000000 2.635130 0.000000 
#    z 0.000000 0.000000 3.498320 
# 
# 
# High freq. dielectric constant tensor:
#      x y z
#    x 1.606710 0.000000 0.000000 
#    y 0.000000 1.543470 0.000000 
#    z 0.000000 0.000000 1.603100 
# 
# From -- ./inp_files/73751.got.cif
#   From: 2010.03.12/outbox.cif.g09.slc.cpg/sg65_37_cif.got.tgz:73751.got - 2010.04.10 20:52:16.
