data_PCOD8265581
_publ_section_title
;
Structure prediction by ZEFSAII (Michael W. Deem and Ramdas Pophale) SiO2 
 PCOD8265581
Probable space group: C M M M
;
_chemical_formula_sum "Si O2"
_cell_formula_units_Z 96
_cell_length_a 27.377683
_cell_length_b 9.099907
_cell_length_c 24.125012
_cell_angle_alpha 90.000000
_cell_angle_beta 90.000000
_cell_angle_gamma 90.000000
_cell_volume 6010.369646
_symmetry_space_group_name_H-M "C M M M"
_symmetry_group_IT_number 65
_symmetry_cell_setting 'orthorhombic'
loop_
_space_group_symop_operation_xyz
x,y,z
-x,-y,z
x,-y,-z
-x,y,-z
-x,-y,-z
x,y,-z
-x,y,z
x,-y,z
1/2+x,1/2+y,z
1/2-x,1/2-y,z
1/2+x,1/2-y,-z
1/2-x,1/2+y,-z
1/2-x,1/2-y,-z
1/2+x,1/2+y,-z
1/2-x,1/2+y,z
1/2+x,1/2-y,z
loop_
_atom_site_type_symbol
_atom_site_label
_atom_site_fract_x
_atom_site_fract_y
_atom_site_fract_z
Si Si1 0.354437 0.167788 0.226038
Si Si2 0.300528 0.829353 0.113297
Si Si3 0.390028 0.669150 0.063446
Si Si4 0.300815 0.670252 0.558473
Si Si5 0.197815 0.827308 0.321175
Si Si6 0.444691 0.169726 0.845301
O O1 0.315655 0.193411 0.177065
O O2 0.341428 0.271363 0.277170
O O3 0.408489 0.212607 0.204898
O O4 0.353334 0.000000 0.246439
O O5 0.250000 0.750000 0.101610
O O6 0.340528 0.758907 0.073142
O O7 0.295509 0.000000 0.098428
O O8 0.380889 0.500000 0.079456
O O9 0.433749 0.733058 0.100733
O O10 0.406362 0.685938 0.000000
O O11 0.329822 0.708405 0.500000
O O12 0.288534 0.500000 0.559482
O O13 0.250000 0.750000 0.556396
O O14 0.325661 0.710188 0.617638
O O15 0.250000 0.750000 0.312471
O O16 0.205847 0.000000 0.312557
O O17 0.500000 0.197901 0.825578
O O18 0.435461 0.000000 0.861595
#
# Coordination Sequence:
#
# PCOD8265581 Si02
#       6
#    16  16  16  16  16  16
#     4   9  18  31  46  65  88 112 141 178 216 258
#     4  10  20  33  49  67  89 120 153 183 217 256
#     4  10  21  35  50  70  94 117 143 176 214 258
#     4   8  14  24  36  52  78 113 151 185 213 243
#     4  10  18  26  40  62  88 120 153 182 214 251
#     4   9  19  36  55  71  87 111 142 176 219 268
#
# _framework density 15.972395000000001
#
# number of rings (size 3 to 8) (size 9 to 14) (size 15 to 20)
#    0.000    2.667    0.000    3.000    0.000    7.667 
#    0.000    1.667    0.000    0.000    0.000    0.000 
#    0.000    0.667    0.000    8.333    0.000    0.000 
#
# Total GULP energy -594818.072907 kJ/mol
# GULP energy per Si atom -12392.043186 kJ/mol
# Density = 1.593604 g / cm^3
# Si number density = 15.972395 Si / 1000 Ang^3
#
#
#
# Elastic Constant Matrix: (Units=GPa)
#
#
# Indices 1 2 3 4 5 6 
#
# 1 82.4122 34.3051 39.5176 0.0000 0.0000 0.0000
# 2 34.3051 81.4727 53.3311 0.0000 0.0000 0.0000
# 3 39.5176 53.3311 118.5554 0.0000 0.0000 0.0000
# 4 0.0000 0.0000 0.0000 21.1716 0.0000 0.0000
# 5 0.0000 0.0000 0.0000 0.0000 15.9590 0.0000
# 6 0.0000 0.0000 0.0000 0.0000 0.0000 21.3933
#
#
#
# Elastic Compliance Matrix: (Units=1/GPa)
#
#
# Indices 1 2 3 4 5 6 
#
# 1 0.015507 -0.004459 -0.003163 0.000000 0.000000 0.000000
# 2 -0.004459 0.018679 -0.006916 0.000000 0.000000 0.000000
# 3 -0.003163 -0.006916 0.012600 0.000000 0.000000 0.000000
# 4 0.000000 0.000000 0.000000 0.047233 0.000000 0.000000
# 5 0.000000 0.000000 0.000000 0.000000 0.062661 0.000000
# 6 0.000000 0.000000 0.000000 0.000000 0.000000 0.046744
#
#
# Mechanical properties :
#
#
# Convention : Reuss Voigt Hill
#
# Bulk Modulus (GPa) = 56.46599 59.63865 58.05232
# Shear Modulus (GPa) = 20.97289 22.05721 21.51505
#
# Velocity S-wave (km/s) = 3.62756 3.72016 3.67415
# Velocity P-wave (km/s) = 7.27837 7.47478 7.37723
#
# Compressibility (1/GPa) = 0.01770978
#
# Stress axis : x y z
#
# Youngs Moduli (GPa) = 64.48731 53.53661 79.36246
#
# Poissons Ratio (x) = 0.23871 0.25103
# Poissons Ratio (y) = 0.28754 0.54889
# Poissons Ratio (z) = 0.20398 0.37027
#
# Static dielectric constant tensor:
#      x y z
#    x 2.767540 0.000000 0.000000 
#    y 0.000000 3.132460 0.000000 
#    z 0.000000 0.000000 3.411460 
# 
# 
# High freq. dielectric constant tensor:
#      x y z
#    x 1.573840 0.000000 0.000000 
#    y 0.000000 1.626820 0.000000 
#    z 0.000000 0.000000 1.616740 
# 
# From -- ./inp_files/68046.got.cif
#   From: 2010.03.12/outbox.cif.g09.slc.cpg/sg65_35_cif.got.tgz:68046.got - 2010.04.10 20:52:16.
