data_PCOD8265859
_publ_section_title
;
Structure prediction by ZEFSAII (Michael W. Deem and Ramdas Pophale) SiO2 
 PCOD8265859
Probable space group: C M M M
;
_chemical_formula_sum "Si O2"
_cell_formula_units_Z 104
_cell_length_a 16.916019
_cell_length_b 14.584204
_cell_length_c 23.578307
_cell_angle_alpha 90.000000
_cell_angle_beta 90.000000
_cell_angle_gamma 90.000000
_cell_volume 5816.925651
_symmetry_space_group_name_H-M "C M M M"
_symmetry_group_IT_number 65
_symmetry_cell_setting 'orthorhombic'
loop_
_space_group_symop_operation_xyz
x,y,z
-x,-y,z
x,-y,-z
-x,y,-z
-x,-y,-z
x,y,-z
-x,y,z
x,-y,z
1/2+x,1/2+y,z
1/2-x,1/2-y,z
1/2+x,1/2-y,-z
1/2-x,1/2+y,-z
1/2-x,1/2-y,-z
1/2+x,1/2+y,-z
1/2-x,1/2+y,z
1/2+x,1/2-y,z
loop_
_atom_site_type_symbol
_atom_site_label
_atom_site_fract_x
_atom_site_fract_y
_atom_site_fract_z
Si Si1 0.654196 0.106600 0.157660
Si Si2 0.405504 0.897255 0.621324
Si Si3 0.408123 0.401525 0.235871
Si Si4 0.330898 0.397872 0.880304
Si Si5 0.913174 0.609112 0.500000
Si Si6 0.594483 0.206941 0.268572
Si Si7 0.909843 0.735544 0.936464
O O1 0.746329 0.123174 0.147122
O O2 0.633270 0.150581 0.217800
O O3 0.605721 0.153576 0.107142
O O4 0.631157 0.000000 0.158917
O O5 0.500000 0.896295 0.617824
O O6 0.371007 0.862413 0.559755
O O7 0.375078 0.832720 0.671724
O O8 0.375603 0.000000 0.634382
O O9 0.500000 0.406909 0.248140
O O10 0.369345 0.500000 0.255340
O O11 0.395527 0.388377 0.169008
O O12 0.374433 0.312384 0.268215
O O13 0.332237 0.500000 0.907468
O O14 0.352349 0.322695 0.927236
O O15 0.921341 0.500000 0.500000
O O16 0.000000 0.654336 0.500000
O O17 0.500000 0.200561 0.261880
O O18 0.000000 0.768476 0.929664
O O19 0.893605 0.698708 0.000000
#
# Coordination Sequence:
#
# PCOD8265859 Si02
#       7
#    16  16  16  16   8  16  16
#     4  11  23  36  52  75 103 133 161 194 241 298
#     4   8  13  21  35  59  92 129 167 203 239 285
#     4   9  17  30  49  71  94 121 156 199 247 294
#     4  10  21  37  56  76  98 124 156 201 252 294
#     4   7  10  18  32  52  85 128 167 203 241 277
#     4  10  18  28  46  71  98 131 166 200 242 291
#     4  11  24  40  57  76  97 126 164 202 243 293
#
# _framework density 17.87886
#
# number of rings (size 3 to 8) (size 9 to 14) (size 15 to 20)
#    0.000    2.385    1.538    2.769    0.000    4.615 
#    0.000    3.077    0.000    0.000    0.000    0.538 
#    0.000    6.769    0.000    5.923    0.000    8.538 
#
# Total GULP energy -644334.361604 kJ/mol
# GULP energy per Si atom -12391.045415 kJ/mol
# Density = 1.783817 g / cm^3
# Si number density = 17.878860 Si / 1000 Ang^3
#
#
#
# Elastic Constant Matrix: (Units=GPa)
#
#
# Indices 1 2 3 4 5 6 
#
# 1 31.5025 29.5496 22.6498 0.0000 0.0000 0.0000
# 2 29.5496 130.5573 78.2662 0.0000 0.0000 0.0000
# 3 22.6498 78.2662 153.8421 0.0000 0.0000 0.0000
# 4 0.0000 0.0000 0.0000 26.0386 0.0000 0.0000
# 5 0.0000 0.0000 0.0000 0.0000 9.5265 0.0000
# 6 0.0000 0.0000 0.0000 0.0000 0.0000 19.0215
#
#
#
# Elastic Compliance Matrix: (Units=1/GPa)
#
#
# Indices 1 2 3 4 5 6 
#
# 1 0.040673 -0.008080 -0.001877 0.000000 0.000000 0.000000
# 2 -0.008080 0.012626 -0.005234 0.000000 0.000000 0.000000
# 3 -0.001877 -0.005234 0.009439 0.000000 0.000000 0.000000
# 4 0.000000 0.000000 0.000000 0.038405 0.000000 0.000000
# 5 0.000000 0.000000 0.000000 0.000000 0.104971 0.000000
# 6 0.000000 0.000000 0.000000 0.000000 0.000000 0.052572
#
#
# Mechanical properties :
#
#
# Convention : Reuss Voigt Hill
#
# Bulk Modulus (GPa) = 30.90708 64.09259 47.49983
# Shear Modulus (GPa) = 16.67489 23.27972 19.97730
#
# Velocity S-wave (km/s) = 3.05726 3.61235 3.34633
# Velocity P-wave (km/s) = 5.45774 7.30239 6.44639
#
# Compressibility (1/GPa) = 0.03235505
#
# Stress axis : x y z
#
# Youngs Moduli (GPa) = 24.58663 79.20331 105.94158
#
# Poissons Ratio (x) = 0.63997 0.19890
# Poissons Ratio (y) = 0.19866 0.55446
# Poissons Ratio (z) = 0.04616 0.41452
#
# Static dielectric constant tensor:
#      x y z
#    x 3.036180 0.000000 0.000000 
#    y 0.000000 3.649470 0.000000 
#    z 0.000000 0.000000 3.470330 
# 
# 
# High freq. dielectric constant tensor:
#      x y z
#    x 1.659580 0.000000 0.000000 
#    y 0.000000 1.694250 0.000000 
#    z 0.000000 0.000000 1.680300 
# 
# From -- ./inp_files/70553.got.cif
#   From: 2010.03.12/outbox.cif.g09.slc.cpg/sg65_36_cif.got.tgz:70553.got - 2010.04.10 20:52:16.
