data_PCOD8265331
_publ_section_title
;
Structure prediction by ZEFSAII (Michael W. Deem and Ramdas Pophale) SiO2 
 PCOD8265331
Probable space group: C M M M
;
_chemical_formula_sum "Si O2"
_cell_formula_units_Z 80
_cell_length_a 23.511828
_cell_length_b 26.295057
_cell_length_c 9.067153
_cell_angle_alpha 90.000000
_cell_angle_beta 90.000000
_cell_angle_gamma 90.000000
_cell_volume 5605.720714
_symmetry_space_group_name_H-M "C M M M"
_symmetry_group_IT_number 65
_symmetry_cell_setting 'orthorhombic'
loop_
_space_group_symop_operation_xyz
x,y,z
-x,-y,z
x,-y,-z
-x,y,-z
-x,-y,-z
x,y,-z
-x,y,z
x,-y,z
1/2+x,1/2+y,z
1/2-x,1/2-y,z
1/2+x,1/2-y,-z
1/2-x,1/2+y,-z
1/2-x,1/2-y,-z
1/2+x,1/2+y,-z
1/2-x,1/2+y,z
1/2+x,1/2-y,z
loop_
_atom_site_type_symbol
_atom_site_label
_atom_site_fract_x
_atom_site_fract_y
_atom_site_fract_z
Si Si1 0.000000 0.784552 0.672866
Si Si2 0.000000 0.897941 0.324845
Si Si3 0.317580 0.354900 0.825223
Si Si4 0.619071 0.558696 0.327613
Si Si5 0.210019 0.701093 0.837196
Si Si6 0.377062 0.260835 0.326551
O O1 0.943380 0.753441 0.717889
O O2 0.000000 0.793608 0.500000
O O3 0.000000 0.841098 0.743425
O O4 0.943901 0.927287 0.269061
O O5 0.000000 0.897639 0.500000
O O6 0.334033 0.409798 0.762712
O O7 0.250584 0.345563 0.786905
O O8 0.356458 0.312393 0.749383
O O9 0.327245 0.351732 0.000000
O O10 0.625047 0.571705 0.500000
O O11 0.631062 0.500000 0.295326
O O12 0.250000 0.750000 0.840084
O O13 0.157371 0.710950 0.727327
O O14 0.184749 0.691073 0.000000
O O15 0.368249 0.266893 0.500000
#
# Coordination Sequence:
#
# PCOD8265331 Si02
#       6
#     8   8  16  16  16  16
#     4   9  16  25  40  60  83 107 132 167 204 239
#     4   9  15  28  43  56  78 106 136 173 213 241
#     4  10  19  30  42  56  79 106 131 166 209 247
#     4  10  19  30  45  61  76 101 140 179 210 241
#     4   8  16  29  41  56  78 102 128 161 203 245
#     4  10  17  27  43  61  79 102 134 167 199 238
#
# _framework density 14.271136
#
# number of rings (size 3 to 8) (size 9 to 14) (size 15 to 20)
#    0.000    2.600    2.000    2.700    0.000    6.000 
#    0.000    3.500    0.000    1.200    0.000    0.000 
#    0.000    0.000    0.000    0.900    0.000   17.600 
#
# Total GULP energy -495760.171035 kJ/mol
# GULP energy per Si atom -12394.004276 kJ/mol
# Density = 1.423865 g / cm^3
# Si number density = 14.271136 Si / 1000 Ang^3
#
#
#
# Elastic Constant Matrix: (Units=GPa)
#
#
# Indices 1 2 3 4 5 6 
#
# 1 109.6538 58.6474 51.2634 0.0000 0.0000 0.0000
# 2 58.6474 66.4762 33.9926 0.0000 0.0000 0.0000
# 3 51.2634 33.9926 62.6314 0.0000 0.0000 0.0000
# 4 0.0000 0.0000 0.0000 17.0157 0.0000 0.0000
# 5 0.0000 0.0000 0.0000 0.0000 4.2114 0.0000
# 6 0.0000 0.0000 0.0000 0.0000 0.0000 23.2912
#
#
#
# Elastic Compliance Matrix: (Units=1/GPa)
#
#
# Indices 1 2 3 4 5 6 
#
# 1 0.020872 -0.013396 -0.009813 0.000000 0.000000 0.000000
# 2 -0.013396 0.029419 -0.005003 0.000000 0.000000 0.000000
# 3 -0.009813 -0.005003 0.026713 0.000000 0.000000 0.000000
# 4 0.000000 0.000000 0.000000 0.058769 0.000000 0.000000
# 5 0.000000 0.000000 0.000000 0.000000 0.237448 0.000000
# 6 0.000000 0.000000 0.000000 0.000000 0.000000 0.042935
#
#
# Mechanical properties :
#
#
# Convention : Reuss Voigt Hill
#
# Bulk Modulus (GPa) = 48.58703 58.50759 53.54731
# Shear Modulus (GPa) = 10.42882 15.22753 12.82817
#
# Velocity S-wave (km/s) = 2.70620 3.27006 3.00140
# Velocity P-wave (km/s) = 6.62452 7.43935 7.04373
#
# Compressibility (1/GPa) = 0.02058163
#
# Stress axis : x y z
#
# Youngs Moduli (GPa) = 47.91118 33.99118 37.43437
#
# Poissons Ratio (x) = 0.45535 0.36734
# Poissons Ratio (y) = 0.64182 0.18727
# Poissons Ratio (z) = 0.47015 0.17004
#
# Static dielectric constant tensor:
#      x y z
#    x 3.039420 0.000000 0.000000 
#    y 0.000000 2.648530 0.000000 
#    z 0.000000 0.000000 2.739000 
# 
# 
# High freq. dielectric constant tensor:
#      x y z
#    x 1.537680 0.000000 0.000000 
#    y 0.000000 1.505170 0.000000 
#    z 0.000000 0.000000 1.539610 
# 
# From -- ./inp_files/16260.got.cif
#   From: 2010.03.12/outbox.cif.g09.slc.cpg/sg65_9_cif.got.tgz:16260.got - 2010.04.10 20:52:16.
