data_PCOD8265844
_publ_section_title
;
Structure prediction by ZEFSAII (Michael W. Deem and Ramdas Pophale) SiO2 
 PCOD8265844
Probable space group: C M M M
;
_chemical_formula_sum "Si O2"
_cell_formula_units_Z 112
_cell_length_a 15.787282
_cell_length_b 17.674972
_cell_length_c 22.720692
_cell_angle_alpha 90.000000
_cell_angle_beta 90.000000
_cell_angle_gamma 90.000000
_cell_volume 6339.976609
_symmetry_space_group_name_H-M "C M M M"
_symmetry_group_IT_number 65
_symmetry_cell_setting 'orthorhombic'
loop_
_space_group_symop_operation_xyz
x,y,z
-x,-y,z
x,-y,-z
-x,y,-z
-x,-y,-z
x,y,-z
-x,y,z
x,-y,z
1/2+x,1/2+y,z
1/2-x,1/2-y,z
1/2+x,1/2-y,-z
1/2-x,1/2+y,-z
1/2-x,1/2-y,-z
1/2+x,1/2+y,-z
1/2-x,1/2+y,z
1/2+x,1/2-y,z
loop_
_atom_site_type_symbol
_atom_site_label
_atom_site_fract_x
_atom_site_fract_y
_atom_site_fract_z
Si Si1 0.099915 0.915400 0.066189
Si Si2 0.196472 0.818875 0.842421
Si Si3 0.306859 0.914387 0.764173
Si Si4 0.904435 0.301327 0.382994
Si Si5 0.094503 0.271313 0.251773
Si Si6 0.096189 0.145228 0.433207
Si Si7 0.256990 0.085508 0.366576
O O1 0.134230 0.850104 0.108357
O O2 0.000000 0.909224 0.067738
O O3 0.127695 0.000000 0.086349
O O4 0.133252 0.900482 0.000000
O O5 0.250000 0.750000 0.871190
O O6 0.251280 0.889706 0.820124
O O7 0.152771 0.785283 0.784352
O O8 0.388018 0.859733 0.761753
O O9 0.253224 0.905911 0.703967
O O10 0.338418 0.000000 0.773597
O O11 0.889821 0.258288 0.320887
O O12 0.894082 0.236262 0.431594
O O13 0.832991 0.364433 0.394205
O O14 0.000000 0.336913 0.384780
O O15 0.000000 0.252732 0.232388
O O16 0.112350 0.118760 0.500000
O O17 0.164750 0.106195 0.391305
O O18 0.000000 0.122714 0.413452
O O19 0.278507 0.000000 0.384697
#
# Coordination Sequence:
#
# PCOD8265844 Si02
#       7
#    16  16  16  16  16  16  16
#     4   9  18  32  48  65  88 121 158 193 229 270
#     4  10  18  28  46  70  95 121 150 188 230 269
#     4   9  18  31  46  67  95 124 152 182 222 274
#     4   9  18  33  52  73  96 122 155 192 229 276
#     4   9  17  29  47  70  94 121 151 185 225 267
#     4  10  21  36  53  70  89 120 160 196 232 279
#     4  10  20  33  50  72  98 125 152 189 235 278
#
# _framework density 17.665680999999999
#
# number of rings (size 3 to 8) (size 9 to 14) (size 15 to 20)
#    0.000    2.571    0.000    2.571    0.000    4.857 
#    0.000    4.286    0.000    1.714    0.000    3.000 
#    0.000    0.000    0.000   26.571    0.000    0.286 
#
# Total GULP energy -694149.286316 kJ/mol
# GULP energy per Si atom -12395.522970 kJ/mol
# Density = 1.762547 g / cm^3
# Si number density = 17.665681 Si / 1000 Ang^3
#
#
#
# Elastic Constant Matrix: (Units=GPa)
#
#
# Indices 1 2 3 4 5 6 
#
# 1 67.5603 18.4779 19.1266 0.0000 0.0000 0.0000
# 2 18.4779 71.1746 21.3554 0.0000 0.0000 0.0000
# 3 19.1266 21.3554 48.2662 0.0000 0.0000 0.0000
# 4 0.0000 0.0000 0.0000 20.7995 0.0000 0.0000
# 5 0.0000 0.0000 0.0000 0.0000 24.9274 0.0000
# 6 0.0000 0.0000 0.0000 0.0000 0.0000 23.9252
#
#
#
# Elastic Compliance Matrix: (Units=1/GPa)
#
#
# Indices 1 2 3 4 5 6 
#
# 1 0.017136 -0.002780 -0.005560 0.000000 0.000000 0.000000
# 2 -0.002780 0.016652 -0.006266 0.000000 0.000000 0.000000
# 3 -0.005560 -0.006266 0.025694 0.000000 0.000000 0.000000
# 4 0.000000 0.000000 0.000000 0.048078 0.000000 0.000000
# 5 0.000000 0.000000 0.000000 0.000000 0.040116 0.000000
# 6 0.000000 0.000000 0.000000 0.000000 0.000000 0.041797
#
#
# Mechanical properties :
#
#
# Convention : Reuss Voigt Hill
#
# Bulk Modulus (GPa) = 33.03720 33.88011 33.45865
# Shear Modulus (GPa) = 21.85539 22.46652 22.16096
#
# Velocity S-wave (km/s) = 3.52115 3.57004 3.54568
# Velocity P-wave (km/s) = 5.93913 6.01779 5.97859
#
# Compressibility (1/GPa) = 0.03026891
#
# Stress axis : x y z
#
# Youngs Moduli (GPa) = 58.35592 60.05363 38.91933
#
# Poissons Ratio (x) = 0.16698 0.21641
# Poissons Ratio (y) = 0.16225 0.24386
# Poissons Ratio (z) = 0.32448 0.37628
#
# Static dielectric constant tensor:
#      x y z
#    x 3.249880 0.000000 0.000000 
#    y 0.000000 3.273650 0.000000 
#    z 0.000000 0.000000 3.119740 
# 
# 
# High freq. dielectric constant tensor:
#      x y z
#    x 1.680050 0.000000 0.000000 
#    y 0.000000 1.681310 0.000000 
#    z 0.000000 0.000000 1.664940 
# 
# From -- ./inp_files/63944.got.cif
#   From: 2010.03.12/outbox.cif.g09.slc.cpg/sg65_32_cif.got.tgz:63944.got - 2010.04.10 20:52:16.
