data_PCOD8265434
_publ_section_title
;
Structure prediction by ZEFSAII (Michael W. Deem and Ramdas Pophale) SiO2 
 PCOD8265434
Probable space group: C M M M
;
_chemical_formula_sum "Si O2"
_cell_formula_units_Z 88
_cell_length_a 22.333765
_cell_length_b 14.396548
_cell_length_c 14.128894
_cell_angle_alpha 90.000000
_cell_angle_beta 90.000000
_cell_angle_gamma 90.000000
_cell_volume 4542.850852
_symmetry_space_group_name_H-M "C M M M"
_symmetry_group_IT_number 65
_symmetry_cell_setting 'orthorhombic'
loop_
_space_group_symop_operation_xyz
x,y,z
-x,-y,z
x,-y,-z
-x,y,-z
-x,-y,-z
x,y,-z
-x,y,z
x,-y,z
1/2+x,1/2+y,z
1/2-x,1/2-y,z
1/2+x,1/2-y,-z
1/2-x,1/2+y,-z
1/2-x,1/2-y,-z
1/2+x,1/2+y,-z
1/2-x,1/2+y,z
1/2+x,1/2-y,z
loop_
_atom_site_type_symbol
_atom_site_label
_atom_site_fract_x
_atom_site_fract_y
_atom_site_fract_z
Si Si1 0.112670 0.699572 0.792485
Si Si2 0.839660 0.900048 0.222044
Si Si3 0.500000 0.892542 0.112204
Si Si4 0.735752 0.647736 0.392878
Si Si5 0.131727 0.397447 0.394329
Si Si6 0.229038 0.353594 0.104103
O O1 0.118709 0.811701 0.804060
O O2 0.056677 0.664074 0.850948
O O3 0.104823 0.674404 0.681642
O O4 0.169697 0.643290 0.831889
O O5 0.816970 0.894375 0.330045
O O6 0.781735 0.908805 0.155060
O O7 0.874001 0.000000 0.210960
O O8 0.500000 0.000000 0.147511
O O9 0.500000 0.889307 0.000000
O O10 0.711172 0.652786 0.500000
O O11 0.750000 0.750000 0.352079
O O12 0.796711 0.590202 0.386215
O O13 0.115180 0.360983 0.500000
O O14 0.104076 0.500000 0.377501
O O15 0.250000 0.250000 0.090470
O O16 0.215944 0.397000 0.000000
#
# Coordination Sequence:
#
# PCOD8265434 Si02
#       6
#    16  16   8  16  16  16
#     4  11  21  39  59  81 113 150 187 238 285 332
#     4  11  21  33  53  85 119 153 189 225 278 345
#     4  11  26  46  68  88 104 137 192 244 292 346
#     4  10  17  29  49  79 122 163 194 226 272 332
#     4  10  19  31  52  82 115 151 188 229 281 337
#     4   9  18  33  53  77 108 143 178 223 282 337
#
# _framework density 19.371095
#
# number of rings (size 3 to 8) (size 9 to 14) (size 15 to 20)
#    0.000    1.727    3.636    2.182    0.000    2.909 
#    0.000    0.909    0.000    2.182    0.000    0.000 
#    0.000    2.909    0.000    0.000    0.000    0.000 
#
# Total GULP energy -545361.155296 kJ/mol
# GULP energy per Si atom -12394.571711 kJ/mol
# Density = 1.932701 g / cm^3
# Si number density = 19.371095 Si / 1000 Ang^3
#
#
#
# Elastic Constant Matrix: (Units=GPa)
#
#
# Indices 1 2 3 4 5 6 
#
# 1 63.2951 40.8130 27.9852 0.0000 0.0000 0.0000
# 2 40.8130 144.3104 39.6449 0.0000 0.0000 0.0000
# 3 27.9852 39.6449 119.2066 0.0000 0.0000 0.0000
# 4 0.0000 0.0000 0.0000 10.2464 0.0000 0.0000
# 5 0.0000 0.0000 0.0000 0.0000 21.7770 0.0000
# 6 0.0000 0.0000 0.0000 0.0000 0.0000 12.1932
#
#
#
# Elastic Compliance Matrix: (Units=1/GPa)
#
#
# Indices 1 2 3 4 5 6 
#
# 1 0.020344 -0.004888 -0.003150 0.000000 0.000000 0.000000
# 2 -0.004888 0.008801 -0.001779 0.000000 0.000000 0.000000
# 3 -0.003150 -0.001779 0.009720 0.000000 0.000000 0.000000
# 4 0.000000 0.000000 0.000000 0.097595 0.000000 0.000000
# 5 0.000000 0.000000 0.000000 0.000000 0.045920 0.000000
# 6 0.000000 0.000000 0.000000 0.000000 0.000000 0.082013
#
#
# Mechanical properties :
#
#
# Convention : Reuss Voigt Hill
#
# Bulk Modulus (GPa) = 52.00431 60.41093 56.20762
# Shear Modulus (GPa) = 17.21537 23.40124 20.30830
#
# Velocity S-wave (km/s) = 2.98437 3.47947 3.24138
# Velocity P-wave (km/s) = 6.22735 6.88448 6.56414
#
# Compressibility (1/GPa) = 0.01922918
#
# Stress axis : x y z
#
# Youngs Moduli (GPa) = 49.15522 113.62678 102.87912
#
# Poissons Ratio (x) = 0.55541 0.32410
# Poissons Ratio (y) = 0.24027 0.18306
# Poissons Ratio (z) = 0.15485 0.20218
#
# Static dielectric constant tensor:
#      x y z
#    x 3.103500 0.000000 0.000000 
#    y 0.000000 3.711550 0.000000 
#    z 0.000000 0.000000 3.849210 
# 
# 
# High freq. dielectric constant tensor:
#      x y z
#    x 1.685650 0.000000 0.000000 
#    y 0.000000 1.758860 0.000000 
#    z 0.000000 0.000000 1.773700 
# 
# From -- ./inp_files/40550.got.cif
#   From: 2010.03.12/outbox.cif.g09.slc.cpg/sg65_21_cif.got.tgz:40550.got - 2010.04.10 20:52:16.
