data_PCOD8265078
_publ_section_title
;
Structure prediction by ZEFSAII (Michael W. Deem and Ramdas Pophale) SiO2 
 PCOD8265078
Probable space group: C M M M
;
_chemical_formula_sum "Si O2"
_cell_formula_units_Z 104
_cell_length_a 27.400785
_cell_length_b 8.967877
_cell_length_c 27.083316
_cell_angle_alpha 90.000000
_cell_angle_beta 90.000000
_cell_angle_gamma 90.000000
_cell_volume 6655.098459
_symmetry_space_group_name_H-M "C M M M"
_symmetry_group_IT_number 65
_symmetry_cell_setting 'orthorhombic'
loop_
_space_group_symop_operation_xyz
x,y,z
-x,-y,z
x,-y,-z
-x,y,-z
-x,-y,-z
x,y,-z
-x,y,z
x,-y,z
1/2+x,1/2+y,z
1/2-x,1/2-y,z
1/2+x,1/2-y,-z
1/2-x,1/2+y,-z
1/2-x,1/2-y,-z
1/2+x,1/2+y,-z
1/2-x,1/2+y,z
1/2+x,1/2-y,z
loop_
_atom_site_type_symbol
_atom_site_label
_atom_site_fract_x
_atom_site_fract_y
_atom_site_fract_z
Si Si1 0.604096 0.174919 0.444428
Si Si2 0.554160 0.325266 0.643413
Si Si3 0.148657 0.175454 0.300884
Si Si4 0.700778 0.825131 0.388149
Si Si5 0.301632 0.672718 0.797227
Si Si6 0.197584 0.175170 0.094686
Si Si7 0.304071 0.178133 0.000000
O O1 0.597005 0.234611 0.500000
O O2 0.564537 0.251129 0.409330
O O3 0.658652 0.215530 0.427069
O O4 0.595199 0.000000 0.441486
O O5 0.500000 0.278019 0.661431
O O6 0.557583 0.500000 0.634911
O O7 0.593584 0.273912 0.684661
O O8 0.187657 0.259991 0.334606
O O9 0.159198 0.222165 0.244232
O O10 0.155508 0.000000 0.309277
O O11 0.750000 0.750000 0.408148
O O12 0.708844 0.000000 0.382900
O O13 0.289484 0.500000 0.792393
O O14 0.250000 0.750000 0.788867
O O15 0.326131 0.704358 0.851234
O O16 0.250000 0.250000 0.098269
O O17 0.169016 0.259035 0.049671
O O18 0.201721 0.000000 0.082540
O O19 0.250000 0.250000 0.000000
O O20 0.302967 0.000000 0.000000
#
# Coordination Sequence:
#
# PCOD8265078 Si02
#       7
#    16  16  16  16  16  16   8
#     4   9  19  34  48  63  84 108 134 164 197 236
#     4   9  18  32  49  67  85 105 130 162 201 244
#     4   9  17  30  45  61  82 107 135 166 200 239
#     4  10  19  30  44  62  83 108 137 165 196 235
#     4   9  17  26  38  56  78 105 135 166 197 231
#     4   9  15  23  33  47  68  96 131 166 197 226
#     4  10  16  22  32  46  66  96 133 168 199 227
#
# _framework density 15.627115999999999
#
# number of rings (size 3 to 8) (size 9 to 14) (size 15 to 20)
#    0.000    2.769    0.000    3.000    0.000    4.308 
#    0.000    1.538    0.000    0.000    0.000    0.000 
#    0.000    0.000    0.000    0.692    0.000   18.846 
#
# Total GULP energy -644404.853005 kJ/mol
# GULP energy per Si atom -12392.401019 kJ/mol
# Density = 1.559155 g / cm^3
# Si number density = 15.627116 Si / 1000 Ang^3
#
#
#
# Elastic Constant Matrix: (Units=GPa)
#
#
# Indices 1 2 3 4 5 6 
#
# 1 69.6066 21.0096 39.9514 0.0000 0.0000 0.0000
# 2 21.0096 52.1669 36.1936 0.0000 0.0000 0.0000
# 3 39.9514 36.1936 141.9821 0.0000 0.0000 0.0000
# 4 0.0000 0.0000 0.0000 22.8420 0.0000 0.0000
# 5 0.0000 0.0000 0.0000 0.0000 10.8352 0.0000
# 6 0.0000 0.0000 0.0000 0.0000 0.0000 15.8923
#
#
#
# Elastic Compliance Matrix: (Units=1/GPa)
#
#
# Indices 1 2 3 4 5 6 
#
# 1 0.017974 -0.004531 -0.003902 0.000000 0.000000 0.000000
# 2 -0.004531 0.024430 -0.004953 0.000000 0.000000 0.000000
# 3 -0.003902 -0.004953 0.009404 0.000000 0.000000 0.000000
# 4 0.000000 0.000000 0.000000 0.043779 0.000000 0.000000
# 5 0.000000 0.000000 0.000000 0.000000 0.092292 0.000000
# 6 0.000000 0.000000 0.000000 0.000000 0.000000 0.062924
#
#
# Mechanical properties :
#
#
# Convention : Reuss Voigt Hill
#
# Bulk Modulus (GPa) = 39.94369 50.89608 45.41988
# Shear Modulus (GPa) = 17.48739 21.02064 19.25402
#
# Velocity S-wave (km/s) = 3.34884 3.67159 3.51392
# Velocity P-wave (km/s) = 6.36937 7.11435 6.75214
#
# Compressibility (1/GPa) = 0.02503525
#
# Stress axis : x y z
#
# Youngs Moduli (GPa) = 55.63584 40.93276 106.34058
#
# Poissons Ratio (x) = 0.18548 0.41499
# Poissons Ratio (y) = 0.25210 0.52667
# Poissons Ratio (z) = 0.21712 0.20273
#
# Static dielectric constant tensor:
#      x y z
#    x 2.815280 0.000000 0.000000 
#    y 0.000000 3.035000 0.000000 
#    z 0.000000 0.000000 3.848110 
# 
# 
# High freq. dielectric constant tensor:
#      x y z
#    x 1.550450 0.000000 0.000000 
#    y 0.000000 1.606520 0.000000 
#    z 0.000000 0.000000 1.607960 
# 
# From -- ./inp_files/76215.got.cif
#   From: 2010.03.12/outbox.cif.g09.slc.cpg/sg65_39_cif.got.tgz:76215.got - 2010.04.10 20:52:16.
