data_PCOD8265224
_publ_section_title
;
Structure prediction by ZEFSAII (Michael W. Deem and Ramdas Pophale) SiO2 
 PCOD8265224
Probable space group: C M M M
;
_chemical_formula_sum "Si O2"
_cell_formula_units_Z 80
_cell_length_a 23.175605
_cell_length_b 29.091575
_cell_length_c 8.641131
_cell_angle_alpha 90.000000
_cell_angle_beta 90.000000
_cell_angle_gamma 90.000000
_cell_volume 5825.978850
_symmetry_space_group_name_H-M "C M M M"
_symmetry_group_IT_number 65
_symmetry_cell_setting 'orthorhombic'
loop_
_space_group_symop_operation_xyz
x,y,z
-x,-y,z
x,-y,-z
-x,y,-z
-x,-y,-z
x,y,-z
-x,y,z
x,-y,z
1/2+x,1/2+y,z
1/2-x,1/2-y,z
1/2+x,1/2-y,-z
1/2-x,1/2+y,-z
1/2-x,1/2-y,-z
1/2+x,1/2+y,-z
1/2-x,1/2+y,z
1/2+x,1/2-y,z
loop_
_atom_site_type_symbol
_atom_site_label
_atom_site_fract_x
_atom_site_fract_y
_atom_site_fract_z
Si Si1 0.065818 0.552795 0.820675
Si Si2 0.936194 0.720162 0.316569
Si Si3 0.829244 0.772719 0.680262
Si Si4 0.270210 0.184692 0.819464
Si Si5 0.634899 0.867320 0.318780
O O1 0.081840 0.500000 0.788896
O O2 0.108598 0.583252 0.718971
O O3 0.000000 0.562362 0.769842
O O4 0.073982 0.564978 0.000000
O O5 0.940401 0.717127 0.500000
O O6 0.896200 0.764134 0.270047
O O7 0.908595 0.672302 0.256556
O O8 0.000000 0.726413 0.243351
O O9 0.824608 0.784223 0.500000
O O10 0.798478 0.814331 0.775965
O O11 0.797806 0.724740 0.715999
O O12 0.303139 0.138059 0.768921
O O13 0.278201 0.194299 0.000000
O O14 0.646058 0.863147 0.500000
#
# Coordination Sequence:
#
# PCOD8265224 Si02
#       5
#    16  16  16  16  16
#     4   9  18  31  43  55  74  98 121 148 186 229
#     4   8  14  23  35  52  72  93 117 148 184 216
#     4   9  15  24  37  52  71  92 117 149 181 215
#     4  10  17  25  37  51  69  92 118 148 185 224
#     4  10  18  27  40  56  72  91 122 160 190 218
#
# _framework density 13.731598
#
# number of rings (size 3 to 8) (size 9 to 14) (size 15 to 20)
#    0.000    2.800    0.000    6.600    0.000    1.600 
#    0.000    1.000    0.000   12.000    0.000    0.000 
#    0.000    0.000    0.000    0.000    0.000    1.000 
#
# Total GULP energy -495601.762950 kJ/mol
# GULP energy per Si atom -12390.044074 kJ/mol
# Density = 1.370034 g / cm^3
# Si number density = 13.731598 Si / 1000 Ang^3
#
#
#
# Elastic Constant Matrix: (Units=GPa)
#
#
# Indices 1 2 3 4 5 6 
#
# 1 86.9210 43.9659 25.7873 0.0000 0.0000 0.0000
# 2 43.9659 47.9386 19.6743 0.0000 0.0000 0.0000
# 3 25.7873 19.6743 43.8001 0.0000 0.0000 0.0000
# 4 0.0000 0.0000 0.0000 17.9054 0.0000 0.0000
# 5 0.0000 0.0000 0.0000 0.0000 16.1166 0.0000
# 6 0.0000 0.0000 0.0000 0.0000 0.0000 24.2934
#
#
#
# Elastic Compliance Matrix: (Units=1/GPa)
#
#
# Indices 1 2 3 4 5 6 
#
# 1 0.022262 -0.018437 -0.004825 0.000000 0.000000 0.000000
# 2 -0.018437 0.040844 -0.007492 0.000000 0.000000 0.000000
# 3 -0.004825 -0.007492 0.029037 0.000000 0.000000 0.000000
# 4 0.000000 0.000000 0.000000 0.055849 0.000000 0.000000
# 5 0.000000 0.000000 0.000000 0.000000 0.062048 0.000000
# 6 0.000000 0.000000 0.000000 0.000000 0.000000 0.041163
#
#
# Mechanical properties :
#
#
# Convention : Reuss Voigt Hill
#
# Bulk Modulus (GPa) = 32.64213 39.72384 36.18299
# Shear Modulus (GPa) = 15.48365 17.61189 16.54777
#
# Velocity S-wave (km/s) = 3.36161 3.58520 3.47520
# Velocity P-wave (km/s) = 6.23621 6.79189 6.51998
#
# Compressibility (1/GPa) = 0.03063525
#
# Stress axis : x y z
#
# Youngs Moduli (GPa) = 44.92013 24.48369 34.43887
#
# Poissons Ratio (x) = 0.45140 0.16617
# Poissons Ratio (y) = 0.82818 0.25801
# Poissons Ratio (z) = 0.21675 0.18342
#
# Static dielectric constant tensor:
#      x y z
#    x 3.327370 0.000000 0.000000 
#    y 0.000000 2.508260 0.000000 
#    z 0.000000 0.000000 2.586850 
# 
# 
# High freq. dielectric constant tensor:
#      x y z
#    x 1.517370 0.000000 0.000000 
#    y 0.000000 1.471430 0.000000 
#    z 0.000000 0.000000 1.523720 
# 
# From -- ./inp_files/14901.got.cif
#   From: 2010.03.12/outbox.cif.g09.slc.cpg/sg65_8_cif.got.tgz:14901.got - 2010.04.10 20:52:16.
