data_PCOD8265345
_publ_section_title
;
Structure prediction by ZEFSAII (Michael W. Deem and Ramdas Pophale) SiO2 
 PCOD8265345
Probable space group: C M M M
;
_chemical_formula_sum "Si O2"
_cell_formula_units_Z 112
_cell_length_a 27.114739
_cell_length_b 31.694626
_cell_length_c 9.315358
_cell_angle_alpha 90.000000
_cell_angle_beta 90.000000
_cell_angle_gamma 90.000000
_cell_volume 8005.539594
_symmetry_space_group_name_H-M "C M M M"
_symmetry_group_IT_number 65
_symmetry_cell_setting 'orthorhombic'
loop_
_space_group_symop_operation_xyz
x,y,z
-x,-y,z
x,-y,-z
-x,y,-z
-x,-y,-z
x,y,-z
-x,y,z
x,-y,z
1/2+x,1/2+y,z
1/2-x,1/2-y,z
1/2+x,1/2-y,-z
1/2-x,1/2+y,-z
1/2-x,1/2-y,-z
1/2+x,1/2+y,-z
1/2-x,1/2+y,z
1/2+x,1/2-y,z
loop_
_atom_site_type_symbol
_atom_site_label
_atom_site_fract_x
_atom_site_fract_y
_atom_site_fract_z
Si Si1 0.795142 0.282063 0.162789
Si Si2 0.553917 0.331645 0.662943
Si Si3 0.765358 0.845113 0.334248
Si Si4 0.925367 0.908738 0.156149
Si Si5 0.335507 0.500000 0.659406
Si Si6 0.944847 0.000000 0.265961
Si Si7 0.354708 0.280517 0.664450
Si Si8 0.687345 0.581415 0.835235
O O1 0.750000 0.250000 0.161045
O O2 0.781053 0.322657 0.257951
O O3 0.841925 0.259638 0.237163
O O4 0.808691 0.295569 0.000000
O O5 0.569851 0.339961 0.500000
O O6 0.500000 0.310070 0.675136
O O7 0.549522 0.378022 0.730706
O O8 0.594825 0.300426 0.729532
O O9 0.752304 0.855329 0.500000
O O10 0.812845 0.815626 0.325700
O O11 0.775420 0.887516 0.245768
O O12 0.940847 0.957524 0.172843
O O13 0.867369 0.900091 0.167267
O O14 0.944185 0.894977 0.000000
O O15 0.312970 0.500000 0.500000
O O16 0.395494 0.500000 0.636457
O O17 0.313736 0.461378 0.746934
O O18 0.000000 0.000000 0.341441
O O19 0.361111 0.265164 0.500000
O O20 0.704804 0.574175 0.000000
#
# Coordination Sequence:
#
# PCOD8265345 Si02
#       8
#    16  16  16  16   8   8  16  16
#     4   9  17  27  41  62  83 101 122 151 190 235
#     4  10  20  32  44  58  77 101 130 163 199 239
#     4  10  17  27  45  64  81 102 126 154 192 238
#     4  10  20  32  45  57  72  94 123 160 203 248
#     4  10  21  34  46  58  74  98 130 162 199 243
#     4  10  21  33  43  57  73  91 119 163 211 252
#     4   9  17  29  42  57  79 103 127 157 194 235
#     4  10  19  31  45  60  79 101 126 159 199 240
#
# _framework density 13.990311999999999
#
# number of rings (size 3 to 8) (size 9 to 14) (size 15 to 20)
#    0.000    2.286    1.429    2.143    0.000    8.429 
#    0.000    0.000    0.000    0.000    0.000    0.000 
#    0.000    0.000    0.000    0.000    0.000    0.000 
#
# Total GULP energy -693976.579743 kJ/mol
# GULP energy per Si atom -12392.438924 kJ/mol
# Density = 1.395847 g / cm^3
# Si number density = 13.990312 Si / 1000 Ang^3
#
#
#
# Elastic Constant Matrix: (Units=GPa)
#
#
# Indices 1 2 3 4 5 6 
#
# 1 51.3748 44.2800 31.3356 0.0000 0.0000 0.0000
# 2 44.2800 77.3753 50.4700 0.0000 0.0000 0.0000
# 3 31.3356 50.4700 109.8444 0.0000 0.0000 0.0000
# 4 0.0000 0.0000 0.0000 18.3063 0.0000 0.0000
# 5 0.0000 0.0000 0.0000 0.0000 9.9994 0.0000
# 6 0.0000 0.0000 0.0000 0.0000 0.0000 13.9630
#
#
#
# Elastic Compliance Matrix: (Units=1/GPa)
#
#
# Indices 1 2 3 4 5 6 
#
# 1 0.038526 -0.021246 -0.001228 0.000000 0.000000 0.000000
# 2 -0.021246 0.030172 -0.007802 0.000000 0.000000 0.000000
# 3 -0.001228 -0.007802 0.013039 0.000000 0.000000 0.000000
# 4 0.000000 0.000000 0.000000 0.054626 0.000000 0.000000
# 5 0.000000 0.000000 0.000000 0.000000 0.100006 0.000000
# 6 0.000000 0.000000 0.000000 0.000000 0.000000 0.071618
#
#
# Mechanical properties :
#
#
# Convention : Reuss Voigt Hill
#
# Bulk Modulus (GPa) = 47.20653 54.52953 50.86803
# Shear Modulus (GPa) = 13.31195 15.95433 14.63314
#
# Velocity S-wave (km/s) = 3.08801 3.38062 3.23762
# Velocity P-wave (km/s) = 6.82128 7.36881 7.10033
#
# Compressibility (1/GPa) = 0.02118351
#
# Stress axis : x y z
#
# Youngs Moduli (GPa) = 25.95621 33.14345 76.69293
#
# Poissons Ratio (x) = 0.70418 0.09422
# Poissons Ratio (y) = 0.55148 0.59836
# Poissons Ratio (z) = 0.03189 0.25858
#
# Static dielectric constant tensor:
#      x y z
#    x 2.590760 0.000000 0.000000 
#    y 0.000000 2.641950 0.000000 
#    z 0.000000 0.000000 2.885060 
# 
# 
# High freq. dielectric constant tensor:
#      x y z
#    x 1.491610 0.000000 0.000000 
#    y 0.000000 1.510010 0.000000 
#    z 0.000000 0.000000 1.547530 
# 
# From -- ./inp_files/19228.got.cif
#   From: 2010.03.12/outbox.cif.g09.slc.cpg/sg65_10_cif.got.tgz:19228.got - 2010.04.10 20:52:16.
