data_PCOD8265157
_publ_section_title
;
Structure prediction by ZEFSAII (Michael W. Deem and Ramdas Pophale) SiO2 
 PCOD8265157
Probable space group: C M M M
;
_chemical_formula_sum "Si O2"
_cell_formula_units_Z 80
_cell_length_a 33.299134
_cell_length_b 19.345436
_cell_length_c 9.460988
_cell_angle_alpha 90.000000
_cell_angle_beta 90.000000
_cell_angle_gamma 90.000000
_cell_volume 6094.638529
_symmetry_space_group_name_H-M "C M M M"
_symmetry_group_IT_number 65
_symmetry_cell_setting 'orthorhombic'
loop_
_space_group_symop_operation_xyz
x,y,z
-x,-y,z
x,-y,-z
-x,y,-z
-x,-y,-z
x,y,-z
-x,y,z
x,-y,z
1/2+x,1/2+y,z
1/2-x,1/2-y,z
1/2+x,1/2-y,-z
1/2-x,1/2+y,-z
1/2-x,1/2-y,-z
1/2+x,1/2+y,-z
1/2-x,1/2+y,z
1/2+x,1/2-y,z
loop_
_atom_site_type_symbol
_atom_site_label
_atom_site_fract_x
_atom_site_fract_y
_atom_site_fract_z
Si Si1 0.955840 0.077370 0.332309
Si Si2 0.624783 0.639402 0.662910
Si Si3 0.747452 0.000000 0.167356
Si Si4 0.326875 0.500000 0.658852
Si Si5 0.686563 0.279130 0.832547
Si Si6 0.232731 0.648789 0.833235
O O1 0.952491 0.072057 0.500000
O O2 0.920962 0.129589 0.280025
O O3 0.000000 0.105611 0.287195
O O4 0.949717 0.000000 0.270014
O O5 0.625899 0.662913 0.500000
O O6 0.646104 0.566478 0.685242
O O7 0.645869 0.698839 0.754849
O O8 0.791600 0.000000 0.229288
O O9 0.724029 0.930250 0.216779
O O10 0.752670 0.000000 0.000000
O O11 0.309121 0.500000 0.500000
O O12 0.723228 0.327777 0.779366
O O13 0.697642 0.200708 0.782541
O O14 0.679707 0.284207 0.000000
O O15 0.234512 0.654724 0.000000
#
# Coordination Sequence:
#
# PCOD8265157 Si02
#       6
#    16  16   8   8  16  16
#     4   8  13  22  36  52  70  93 120 149 179 207
#     4  10  17  25  37  54  73  93 120 153 181 209
#     4  10  16  26  42  53  63  91 129 155 172 205
#     4  10  18  24  31  52  78  92 112 153 189 206
#     4   9  16  27  38  51  71  94 117 147 182 214
#     4   8  15  25  38  53  69  89 120 153 177 205
#
# _framework density 13.126291999999999
#
# number of rings (size 3 to 8) (size 9 to 14) (size 15 to 20)
#    0.000    3.000    3.000    1.800    0.000    0.000 
#    0.000    3.000    0.000    0.600    0.000    1.400 
#    0.000    0.000    0.000    0.900    0.000   20.200 
#
# Total GULP energy -495556.616430 kJ/mol
# GULP energy per Si atom -12388.915411 kJ/mol
# Density = 1.309642 g / cm^3
# Si number density = 13.126292 Si / 1000 Ang^3
#
#
#
# Elastic Constant Matrix: (Units=GPa)
#
#
# Indices 1 2 3 4 5 6 
#
# 1 99.6431 53.0726 25.5057 0.0000 0.0000 0.0000
# 2 53.0726 99.0529 22.9631 0.0000 0.0000 0.0000
# 3 25.5057 22.9631 22.7373 0.0000 0.0000 0.0000
# 4 0.0000 0.0000 0.0000 13.6360 0.0000 0.0000
# 5 0.0000 0.0000 0.0000 0.0000 9.2538 0.0000
# 6 0.0000 0.0000 0.0000 0.0000 0.0000 20.8110
#
#
#
# Elastic Compliance Matrix: (Units=1/GPa)
#
#
# Indices 1 2 3 4 5 6 
#
# 1 0.016340 -0.005883 -0.012388 0.000000 0.000000 0.000000
# 2 -0.005883 0.015300 -0.008852 0.000000 0.000000 0.000000
# 3 -0.012388 -0.008852 0.066818 0.000000 0.000000 0.000000
# 4 0.000000 0.000000 0.000000 0.073335 0.000000 0.000000
# 5 0.000000 0.000000 0.000000 0.000000 0.108064 0.000000
# 6 0.000000 0.000000 0.000000 0.000000 0.000000 0.048051
#
#
# Mechanical properties :
#
#
# Convention : Reuss Voigt Hill
#
# Bulk Modulus (GPa) = 22.61923 47.16846 34.89385
# Shear Modulus (GPa) = 12.59783 16.73295 14.66539
#
# Velocity S-wave (km/s) = 3.10133 3.57426 3.34616
# Velocity P-wave (km/s) = 5.48578 7.28328 6.44747
#
# Compressibility (1/GPa) = 0.04421017
#
# Stress axis : x y z
#
# Youngs Moduli (GPa) = 61.19782 65.35900 14.96608
#
# Poissons Ratio (x) = 0.38452 0.18540
# Poissons Ratio (y) = 0.36004 0.13249
# Poissons Ratio (z) = 0.75814 0.57859
#
# Static dielectric constant tensor:
#      x y z
#    x 2.684550 0.000000 0.000000 
#    y 0.000000 2.855190 0.000000 
#    z 0.000000 0.000000 2.373270 
# 
# 
# High freq. dielectric constant tensor:
#      x y z
#    x 1.477430 0.000000 0.000000 
#    y 0.000000 1.483390 0.000000 
#    z 0.000000 0.000000 1.470870 
# 
# From -- ./inp_files/18446.got.cif
#   From: 2010.03.12/outbox.cif.g09.slc.cpg/sg65_10_cif.got.tgz:18446.got - 2010.04.10 20:52:16.
