data_PCOD8265032
_publ_section_title
;
Structure prediction by ZEFSAII (Michael W. Deem and Ramdas Pophale) SiO2 
 PCOD8265032
Probable space group: C M C A
;
_chemical_formula_sum "Si O2"
_cell_formula_units_Z 96
_cell_length_a 18.402129
_cell_length_b 29.063665
_cell_length_c 10.025485
_cell_angle_alpha 90.000000
_cell_angle_beta 90.000000
_cell_angle_gamma 90.000000
_cell_volume 5361.963352
_symmetry_space_group_name_H-M "C M C A"
_symmetry_group_IT_number 64
_symmetry_cell_setting 'orthorhombic'
loop_
_space_group_symop_operation_xyz
x,y,z
-x,1/2-y,1/2+z
x,-y,-z
-x,1/2+y,1/2-z
-x,-y,-z
x,1/2+y,1/2-z
-x,y,z
x,1/2-y,1/2+z
1/2+x,1/2+y,z
1/2-x,-y,1/2+z
1/2+x,1/2-y,-z
1/2-x,y,1/2-z
1/2-x,1/2-y,-z
1/2+x,y,1/2-z
1/2-x,1/2+y,z
1/2+x,-y,1/2+z
loop_
_atom_site_type_symbol
_atom_site_label
_atom_site_fract_x
_atom_site_fract_y
_atom_site_fract_z
Si Si1 0.163770 0.282477 0.088361
Si Si2 0.334251 0.795309 0.386715
Si Si3 0.913397 0.037562 0.396668
Si Si4 0.581286 0.632344 0.513305
Si Si5 0.918228 0.382844 0.325814
Si Si6 0.913416 0.984519 0.141414
O O1 0.247927 0.294965 0.101777
O O2 0.136248 0.277540 0.241708
O O3 0.130019 0.322547 0.995901
O O4 0.140218 0.236526 0.009515
O O5 0.366964 0.846495 0.403570
O O6 0.884230 0.088634 0.433993
O O7 0.000000 0.039271 0.406460
O O8 0.882898 0.000000 0.500000
O O9 0.885360 0.020964 0.251800
O O10 0.500000 0.642124 0.459695
O O11 0.579047 0.623487 0.669318
O O12 0.883078 0.433109 0.342680
O O13 0.000000 0.379082 0.385839
O O14 0.000000 0.982880 0.149587
O O15 0.883273 0.000000 0.000000
#
# Coordination Sequence:
#
# PCOD8265032 Si02
#       6
#    16  16  16  16  16  16
#     4   9  18  33  50  68  89 120 158 190 231 282
#     4   9  18  33  51  67  88 122 157 191 230 282
#     4   9  14  24  43  65  90 120 151 182 217 266
#     4   9  16  27  47  72  93 117 155 196 231 269
#     4   9  16  28  47  70  93 121 154 189 233 277
#     4   9  16  26  41  65  96 123 149 182 223 273
#
# _framework density 17.903890000000001
#
# number of rings (size 3 to 8) (size 9 to 14) (size 15 to 20)
#    0.000    3.000    1.667    0.000    0.000    0.667 
#    3.000    0.000    0.000    1.000    0.000    0.000 
#    0.000    0.000    0.000    0.000    0.000    0.000 
#
# Total GULP energy -594650.010919 kJ/mol
# GULP energy per Si atom -12388.541894 kJ/mol
# Density = 1.786314 g / cm^3
# Si number density = 17.903890 Si / 1000 Ang^3
#
#
#
# Elastic Constant Matrix: (Units=GPa)
#
#
# Indices 1 2 3 4 5 6 
#
# 1 15.2758 26.5979 16.9016 0.0000 0.0000 0.0000
# 2 26.5979 125.6233 48.1388 0.0000 0.0000 0.0000
# 3 16.9016 48.1388 83.0732 0.0000 0.0000 0.0000
# 4 0.0000 0.0000 0.0000 37.1331 0.0000 0.0000
# 5 0.0000 0.0000 0.0000 0.0000 11.8540 0.0000
# 6 0.0000 0.0000 0.0000 0.0000 0.0000 2.9833
#
#
#
# Elastic Compliance Matrix: (Units=1/GPa)
#
#
# Indices 1 2 3 4 5 6 
#
# 1 0.111761 -0.019217 -0.011603 0.000000 0.000000 0.000000
# 2 -0.019217 0.013537 -0.003934 0.000000 0.000000 0.000000
# 3 -0.011603 -0.003934 0.016678 0.000000 0.000000 0.000000
# 4 0.000000 0.000000 0.000000 0.026930 0.000000 0.000000
# 5 0.000000 0.000000 0.000000 0.000000 0.084360 0.000000
# 6 0.000000 0.000000 0.000000 0.000000 0.000000 0.335202
#
#
# Mechanical properties :
#
#
# Convention : Reuss Voigt Hill
#
# Bulk Modulus (GPa) = 13.79922 45.24987 29.52455
# Shear Modulus (GPa) = 7.32997 19.21633 13.27315
#
# Velocity S-wave (km/s) = 2.02558 3.27969 2.72574
# Velocity P-wave (km/s) = 3.63245 6.29845 5.14126
#
# Compressibility (1/GPa) = 0.07246785
#
# Stress axis : x y z
#
# Youngs Moduli (GPa) = 8.94770 73.87340 59.95888
#
# Poissons Ratio (x) = 1.41960 0.69568
# Poissons Ratio (y) = 0.17194 0.23590
# Poissons Ratio (z) = 0.10382 0.29065
#
# Static dielectric constant tensor:
#      x y z
#    x 3.008880 0.000000 0.000000 
#    y 0.000000 3.677580 0.000000 
#    z 0.000000 0.000000 3.379700 
# 
# 
# High freq. dielectric constant tensor:
#      x y z
#    x 1.642670 0.000000 0.000000 
#    y 0.000000 1.701130 0.000000 
#    z 0.000000 0.000000 1.683450 
# 
# From -- ./inp_files/18714.got.cif
#   From: 2010.03.12/outbox.cif.g09.slc.cpg/sg64_10_cif.got.tgz:18714.got - 2010.04.10 20:19:32.
