data_PCOD8265458
_publ_section_title
;
Structure prediction by ZEFSAII (Michael W. Deem and Ramdas Pophale) SiO2 
 PCOD8265458
Probable space group: C M M M
;
_chemical_formula_sum "Si O2"
_cell_formula_units_Z 96
_cell_length_a 17.887454
_cell_length_b 17.363027
_cell_length_c 18.516957
_cell_angle_alpha 90.000000
_cell_angle_beta 90.000000
_cell_angle_gamma 90.000000
_cell_volume 5751.002926
_symmetry_space_group_name_H-M "C M M M"
_symmetry_group_IT_number 65
_symmetry_cell_setting 'orthorhombic'
loop_
_space_group_symop_operation_xyz
x,y,z
-x,-y,z
x,-y,-z
-x,y,-z
-x,-y,-z
x,y,-z
-x,y,z
x,-y,z
1/2+x,1/2+y,z
1/2-x,1/2-y,z
1/2+x,1/2-y,-z
1/2-x,1/2+y,-z
1/2-x,1/2-y,-z
1/2+x,1/2+y,-z
1/2-x,1/2+y,z
1/2+x,1/2-y,z
loop_
_atom_site_type_symbol
_atom_site_label
_atom_site_fract_x
_atom_site_fract_y
_atom_site_fract_z
Si Si1 0.789149 0.411481 0.219100
Si Si2 0.918561 0.214920 0.080483
Si Si3 0.414827 0.588136 0.585098
Si Si4 0.234643 0.160901 0.081059
Si Si5 0.914966 0.300146 0.775420
Si Si6 0.814001 0.809588 0.315667
O O1 0.788765 0.500000 0.238881
O O2 0.775700 0.397650 0.134050
O O3 0.870303 0.378539 0.240464
O O4 0.723693 0.370989 0.263157
O O5 0.855148 0.149544 0.088901
O O6 0.909179 0.282445 0.139142
O O7 0.000000 0.175288 0.090208
O O8 0.910963 0.252400 0.000000
O O9 0.406876 0.597592 0.500000
O O10 0.500000 0.608705 0.608857
O O11 0.396940 0.500000 0.607903
O O12 0.354399 0.646127 0.619234
O O13 0.250000 0.250000 0.102539
O O14 0.262371 0.143184 0.000000
O O15 0.878307 0.231607 0.730091
O O16 0.000000 0.311321 0.749939
O O17 0.750000 0.750000 0.344375
#
# Coordination Sequence:
#
# PCOD8265458 Si02
#       6
#    16  16  16  16  16  16
#     4  11  21  32  45  68 100 127 156 195 243 292
#     4   9  16  27  47  68  85 112 154 202 242 276
#     4   9  18  33  53  77 104 130 153 183 232 288
#     4  10  17  30  48  64  87 119 160 202 238 283
#     4  10  19  32  50  69  91 123 164 203 237 277
#     4  10  19  33  51  73  97 126 164 200 228 266
#
# _framework density 16.692741000000002
#
# number of rings (size 3 to 8) (size 9 to 14) (size 15 to 20)
#    0.000    2.167    3.333    2.000    0.000    1.000 
#    0.000    0.000    0.000    1.500    0.000    5.833 
#    0.000    0.000    0.000   31.000    0.000    0.000 
#
# Total GULP energy -594903.997758 kJ/mol
# GULP energy per Si atom -12393.833287 kJ/mol
# Density = 1.665475 g / cm^3
# Si number density = 16.692741 Si / 1000 Ang^3
#
#
#
# Elastic Constant Matrix: (Units=GPa)
#
#
# Indices 1 2 3 4 5 6 
#
# 1 128.9776 53.1982 37.4173 0.0000 0.0000 0.0000
# 2 53.1982 96.1985 34.1375 0.0000 0.0000 0.0000
# 3 37.4173 34.1375 58.6718 0.0000 0.0000 0.0000
# 4 0.0000 0.0000 0.0000 18.3477 0.0000 0.0000
# 5 0.0000 0.0000 0.0000 0.0000 25.0394 0.0000
# 6 0.0000 0.0000 0.0000 0.0000 0.0000 19.4751
#
#
#
# Elastic Compliance Matrix: (Units=1/GPa)
#
#
# Indices 1 2 3 4 5 6 
#
# 1 0.010849 -0.004466 -0.004320 0.000000 0.000000 0.000000
# 2 -0.004466 0.014939 -0.005844 0.000000 0.000000 0.000000
# 3 -0.004320 -0.005844 0.023199 0.000000 0.000000 0.000000
# 4 0.000000 0.000000 0.000000 0.054503 0.000000 0.000000
# 5 0.000000 0.000000 0.000000 0.000000 0.039937 0.000000
# 6 0.000000 0.000000 0.000000 0.000000 0.000000 0.051348
#
#
# Mechanical properties :
#
#
# Convention : Reuss Voigt Hill
#
# Bulk Modulus (GPa) = 50.69276 59.26155 54.97716
# Shear Modulus (GPa) = 21.68167 23.17875 22.43021
#
# Velocity S-wave (km/s) = 3.60789 3.73037 3.66964
# Velocity P-wave (km/s) = 6.91303 7.35749 7.13872
#
# Compressibility (1/GPa) = 0.01972668
#
# Stress axis : x y z
#
# Youngs Moduli (GPa) = 92.17658 66.93978 43.10537
#
# Poissons Ratio (x) = 0.29898 0.18621
# Poissons Ratio (y) = 0.41170 0.25189
# Poissons Ratio (z) = 0.39820 0.39117
#
# Static dielectric constant tensor:
#      x y z
#    x 3.494850 0.000000 0.000000 
#    y 0.000000 2.839610 0.000000 
#    z 0.000000 0.000000 2.993430 
# 
# 
# High freq. dielectric constant tensor:
#      x y z
#    x 1.663030 0.000000 0.000000 
#    y 0.000000 1.603470 0.000000 
#    z 0.000000 0.000000 1.630830 
# 
# From -- ./inp_files/54510.got.cif
#   From: 2010.03.12/outbox.cif.g09.slc.cpg/sg65_28_cif.got.tgz:54510.got - 2010.04.10 20:52:16.
