data_PCOD8265393
_publ_section_title
;
Structure prediction by ZEFSAII (Michael W. Deem and Ramdas Pophale) SiO2 
 PCOD8265393
Probable space group: C M M M
;
_chemical_formula_sum "Si O2"
_cell_formula_units_Z 88
_cell_length_a 21.428682
_cell_length_b 28.711221
_cell_length_c 7.775308
_cell_angle_alpha 90.000000
_cell_angle_beta 90.000000
_cell_angle_gamma 90.000000
_cell_volume 4783.708677
_symmetry_space_group_name_H-M "C M M M"
_symmetry_group_IT_number 65
_symmetry_cell_setting 'orthorhombic'
loop_
_space_group_symop_operation_xyz
x,y,z
-x,-y,z
x,-y,-z
-x,y,-z
-x,-y,-z
x,y,-z
-x,y,z
x,-y,z
1/2+x,1/2+y,z
1/2-x,1/2-y,z
1/2+x,1/2-y,-z
1/2-x,1/2+y,-z
1/2-x,1/2-y,-z
1/2+x,1/2+y,-z
1/2-x,1/2+y,z
1/2+x,1/2-y,z
loop_
_atom_site_type_symbol
_atom_site_label
_atom_site_fract_x
_atom_site_fract_y
_atom_site_fract_z
Si Si1 0.378523 0.605921 0.703113
Si Si2 0.574226 0.866228 0.500000
Si Si3 0.000000 0.052427 0.704605
Si Si4 0.668145 0.054100 0.500000
Si Si5 0.926273 0.302786 0.809781
Si Si6 0.429570 0.296255 0.702409
Si Si7 0.758712 0.947038 0.192790
O O1 0.371274 0.598899 0.500000
O O2 0.438542 0.578226 0.773846
O O3 0.386252 0.660141 0.752999
O O4 0.317702 0.586710 0.796077
O O5 0.500000 0.872642 0.500000
O O6 0.604172 0.917200 0.500000
O O7 0.599264 0.838523 0.332382
O O8 0.000000 0.053964 0.500000
O O9 0.000000 0.000000 0.775667
O O10 0.706681 0.067982 0.670104
O O11 0.649683 0.000000 0.500000
O O12 0.899877 0.250434 0.784543
O O13 0.000000 0.299256 0.785437
O O14 0.907730 0.320902 0.000000
O O15 0.431394 0.289024 0.500000
O O16 0.500000 0.305614 0.769696
O O17 0.780323 0.000000 0.232684
O O18 0.730677 0.943129 0.000000
#
# Coordination Sequence:
#
# PCOD8265393 Si02
#       7
#    16   8   8   8  16  16  16
#     4  10  17  28  48  75 105 144 190 239 282 318
#     4  10  20  37  61  91 116 134 159 203 260 324
#     4   9  16  24  39  69 105 142 185 237 294 330
#     4  10  22  41  63  84 109 139 170 208 259 319
#     4   9  17  30  51  80 113 147 175 207 255 316
#     4   9  15  26  45  73 110 145 186 230 273 316
#     4  10  21  37  56  77 103 143 193 232 263 312
#
# _framework density 18.395769000000001
#
# number of rings (size 3 to 8) (size 9 to 14) (size 15 to 20)
#    0.000    2.455    2.727    0.545    0.000    2.364 
#    0.000    0.455    0.000    3.818    0.000    7.636 
#    0.000    0.000    0.000    0.000    0.000    0.000 
#
# Total GULP energy -545522.652718 kJ/mol
# GULP energy per Si atom -12398.242107 kJ/mol
# Density = 1.835390 g / cm^3
# Si number density = 18.395769 Si / 1000 Ang^3
#
#
#
# Elastic Constant Matrix: (Units=GPa)
#
#
# Indices 1 2 3 4 5 6 
#
# 1 56.1097 47.5089 33.6041 0.0000 0.0000 0.0000
# 2 47.5089 108.7197 49.1529 0.0000 0.0000 0.0000
# 3 33.6041 49.1529 103.1022 0.0000 0.0000 0.0000
# 4 0.0000 0.0000 0.0000 14.5079 0.0000 0.0000
# 5 0.0000 0.0000 0.0000 0.0000 5.6326 0.0000
# 6 0.0000 0.0000 0.0000 0.0000 0.0000 22.5256
#
#
#
# Elastic Compliance Matrix: (Units=1/GPa)
#
#
# Indices 1 2 3 4 5 6 
#
# 1 0.029823 -0.011011 -0.004471 0.000000 0.000000 0.000000
# 2 -0.011011 0.015790 -0.003939 0.000000 0.000000 0.000000
# 3 -0.004471 -0.003939 0.013034 0.000000 0.000000 0.000000
# 4 0.000000 0.000000 0.000000 0.068928 0.000000 0.000000
# 5 0.000000 0.000000 0.000000 0.000000 0.177538 0.000000
# 6 0.000000 0.000000 0.000000 0.000000 0.000000 0.044394
#
#
# Mechanical properties :
#
#
# Convention : Reuss Voigt Hill
#
# Bulk Modulus (GPa) = 50.49019 58.71816 54.60418
# Shear Modulus (GPa) = 12.65979 17.71092 15.18536
#
# Velocity S-wave (km/s) = 2.62618 3.10622 2.87624
# Velocity P-wave (km/s) = 6.05822 6.69728 6.38575
#
# Compressibility (1/GPa) = 0.01980583
#
# Stress axis : x y z
#
# Youngs Moduli (GPa) = 33.53136 63.32936 76.72078
#
# Poissons Ratio (x) = 0.69731 0.34301
# Poissons Ratio (y) = 0.36921 0.30222
# Poissons Ratio (z) = 0.14991 0.24947
#
# Static dielectric constant tensor:
#      x y z
#    x 2.882860 0.000000 0.000000 
#    y 0.000000 3.402410 0.000000 
#    z 0.000000 0.000000 3.404810 
# 
# 
# High freq. dielectric constant tensor:
#      x y z
#    x 1.659760 0.000000 0.000000 
#    y 0.000000 1.714000 0.000000 
#    z 0.000000 0.000000 1.716570 
# 
# From -- ./inp_files/12700.got.cif
#   From: 2010.03.12/outbox.cif.g09.slc.cpg/sg65_7_cif.got.tgz:12700.got - 2010.04.10 20:52:16.
