data_PCOD8265926
_publ_section_title
;
Structure prediction by ZEFSAII (Michael W. Deem and Ramdas Pophale) SiO2 
 PCOD8265926
Probable space group: C M M M
;
_chemical_formula_sum "Si O2"
_cell_formula_units_Z 72
_cell_length_a 32.543733
_cell_length_b 10.373338
_cell_length_c 13.646167
_cell_angle_alpha 90.000000
_cell_angle_beta 90.000000
_cell_angle_gamma 90.000000
_cell_volume 4606.770519
_symmetry_space_group_name_H-M "C M M M"
_symmetry_group_IT_number 65
_symmetry_cell_setting 'orthorhombic'
loop_
_space_group_symop_operation_xyz
x,y,z
-x,-y,z
x,-y,-z
-x,y,-z
-x,-y,-z
x,y,-z
-x,y,z
x,-y,z
1/2+x,1/2+y,z
1/2-x,1/2-y,z
1/2+x,1/2-y,-z
1/2-x,1/2+y,-z
1/2-x,1/2-y,-z
1/2+x,1/2+y,-z
1/2-x,1/2+y,z
1/2+x,1/2-y,z
loop_
_atom_site_type_symbol
_atom_site_label
_atom_site_fract_x
_atom_site_fract_y
_atom_site_fract_z
Si Si1 0.130812 0.500000 0.616395
Si Si2 0.860319 0.000000 0.615587
Si Si3 0.801715 0.500000 0.773666
Si Si4 0.701346 0.748707 0.890644
Si Si5 0.086393 0.241210 0.384023
Si Si6 0.000000 0.853200 0.383045
Si Si7 0.704609 0.500000 0.228497
O O1 0.139324 0.500000 0.500000
O O2 0.174853 0.500000 0.669883
O O3 0.104684 0.623249 0.651656
O O4 0.884930 0.874859 0.652361
O O5 0.853147 0.000000 0.500000
O O6 0.815605 0.000000 0.664521
O O7 0.815019 0.624761 0.835589
O O8 0.753210 0.500000 0.752720
O O9 0.750000 0.750000 0.898801
O O10 0.688151 0.622793 0.831125
O O11 0.682262 0.744887 0.000000
O O12 0.084445 0.238149 0.500000
O O13 0.040273 0.221008 0.342460
O O14 0.000000 0.854658 0.500000
O O15 0.000000 0.000000 0.344266
#
# Coordination Sequence:
#
# PCOD8265926 Si02
#       7
#     8   8   8  16  16   8   8
#     4  10  20  31  41  60  93 127 154 182 214 249
#     4  10  18  29  43  62  89 123 158 184 210 249
#     4  10  19  31  45  62  87 123 157 181 217 265
#     4   9  17  30  47  65  83 106 143 191 239 277
#     4   9  17  28  43  61  84 116 150 184 221 259
#     4   9  14  25  45  65  81 105 148 188 221 268
#     4  10  19  29  45  66  87 117 155 191 221 253
#
# _framework density 15.62917
#
# number of rings (size 3 to 8) (size 9 to 14) (size 15 to 20)
#    0.000    2.556    1.111    2.000    0.000    3.556 
#    0.000    2.222    0.000    8.000    0.000    0.000 
#    0.000    0.000    0.000   70.000    0.000    7.778 
#
# Total GULP energy -446304.942708 kJ/mol
# GULP energy per Si atom -12397.359520 kJ/mol
# Density = 1.559360 g / cm^3
# Si number density = 15.629170 Si / 1000 Ang^3
#
#
#
# Elastic Constant Matrix: (Units=GPa)
#
#
# Indices 1 2 3 4 5 6 
#
# 1 86.0614 49.7571 43.5429 0.0000 0.0000 0.0000
# 2 49.7571 153.2598 40.4419 0.0000 0.0000 0.0000
# 3 43.5429 40.4419 62.4862 0.0000 0.0000 0.0000
# 4 0.0000 0.0000 0.0000 9.3215 0.0000 0.0000
# 5 0.0000 0.0000 0.0000 0.0000 4.5448 0.0000
# 6 0.0000 0.0000 0.0000 0.0000 0.0000 12.6396
#
#
#
# Elastic Compliance Matrix: (Units=1/GPa)
#
#
# Indices 1 2 3 4 5 6 
#
# 1 0.019210 -0.003261 -0.011276 0.000000 0.000000 0.000000
# 2 -0.003261 0.008422 -0.003178 0.000000 0.000000 0.000000
# 3 -0.011276 -0.003178 0.025918 0.000000 0.000000 0.000000
# 4 0.000000 0.000000 0.000000 0.107279 0.000000 0.000000
# 5 0.000000 0.000000 0.000000 0.000000 0.220034 0.000000
# 6 0.000000 0.000000 0.000000 0.000000 0.000000 0.079116
#
#
# Mechanical properties :
#
#
# Convention : Reuss Voigt Hill
#
# Bulk Modulus (GPa) = 55.18861 63.25459 59.22160
# Shear Modulus (GPa) = 9.97108 16.50553 13.23830
#
# Velocity S-wave (km/s) = 2.52856 3.25325 2.91353
# Velocity P-wave (km/s) = 6.62667 7.39402 7.02084
#
# Compressibility (1/GPa) = 0.01811968
#
# Stress axis : x y z
#
# Youngs Moduli (GPa) = 52.05593 118.73072 38.58326
#
# Poissons Ratio (x) = 0.38722 0.43505
# Poissons Ratio (y) = 0.16977 0.12264
# Poissons Ratio (z) = 0.58696 0.37738
#
# Static dielectric constant tensor:
#      x y z
#    x 2.894910 0.000000 0.000000 
#    y 0.000000 3.331380 0.000000 
#    z 0.000000 0.000000 2.698190 
# 
# 
# High freq. dielectric constant tensor:
#      x y z
#    x 1.577540 0.000000 0.000000 
#    y 0.000000 1.621270 0.000000 
#    z 0.000000 0.000000 1.558890 
# 
# From -- ./inp_files/46617.got.cif
#   From: 2010.03.12/outbox.cif.g09.slc.cpg/sg65_24_cif.got.tgz:46617.got - 2010.04.10 20:52:16.
