data_PCOD8265889
_publ_section_title
;
Structure prediction by ZEFSAII (Michael W. Deem and Ramdas Pophale) SiO2 
 PCOD8265889
Probable space group: C M M M
;
_chemical_formula_sum "Si O2"
_cell_formula_units_Z 80
_cell_length_a 25.758540
_cell_length_b 9.137658
_cell_length_c 19.081648
_cell_angle_alpha 90.000000
_cell_angle_beta 90.000000
_cell_angle_gamma 90.000000
_cell_volume 4491.299565
_symmetry_space_group_name_H-M "C M M M"
_symmetry_group_IT_number 65
_symmetry_cell_setting 'orthorhombic'
loop_
_space_group_symop_operation_xyz
x,y,z
-x,-y,z
x,-y,-z
-x,y,-z
-x,-y,-z
x,y,-z
-x,y,z
x,-y,z
1/2+x,1/2+y,z
1/2-x,1/2-y,z
1/2+x,1/2-y,-z
1/2-x,1/2+y,-z
1/2-x,1/2-y,-z
1/2+x,1/2+y,-z
1/2-x,1/2+y,z
1/2+x,1/2-y,z
loop_
_atom_site_type_symbol
_atom_site_label
_atom_site_fract_x
_atom_site_fract_y
_atom_site_fract_z
Si Si1 0.198246 0.170996 0.580699
Si Si2 0.602068 0.830019 0.171715
Si Si3 0.387404 0.835169 0.664038
Si Si4 0.198157 0.328779 0.080367
Si Si5 0.000000 0.827543 0.179023
Si Si6 0.500000 0.165911 0.679577
O O1 0.188208 0.212449 0.500000
O O2 0.250000 0.250000 0.608727
O O3 0.148861 0.221428 0.624777
O O4 0.206144 0.000000 0.591570
O O5 0.613385 0.801570 0.253410
O O6 0.650832 0.771557 0.127574
O O7 0.551849 0.740904 0.144824
O O8 0.591742 0.000000 0.156696
O O9 0.446841 0.815504 0.635124
O O10 0.367751 0.000000 0.648968
O O11 0.206865 0.500000 0.090571
O O12 0.250000 0.250000 0.107094
O O13 0.186076 0.287943 0.000000
O O14 0.000000 0.787724 0.260754
O O15 0.000000 0.000000 0.167834
O O16 0.500000 0.000000 0.713031
#
# Coordination Sequence:
#
# PCOD8265889 Si02
#       6
#    16  16  16  16   8   8
#     4  10  21  36  52  70  95 128 163 200 243 288
#     4   9  18  33  51  72 100 131 162 197 239 289
#     4   9  17  31  52  75  98 126 160 198 238 283
#     4   9  18  33  52  72  96 129 165 200 242 290
#     4  10  18  28  47  74  99 127 163 201 243 284
#     4   8  16  32  51  72 101 133 159 189 237 290
#
# _framework density 17.812215999999999
#
# number of rings (size 3 to 8) (size 9 to 14) (size 15 to 20)
#    0.000    2.800    0.000    2.700    0.000    6.000 
#    0.000    3.000    0.000    6.000    0.000    0.000 
#    0.000    0.000    0.000    0.000    0.000    0.000 
#
# Total GULP energy -495901.776035 kJ/mol
# GULP energy per Si atom -12397.544401 kJ/mol
# Density = 1.777167 g / cm^3
# Si number density = 17.812216 Si / 1000 Ang^3
#
#
#
# Elastic Constant Matrix: (Units=GPa)
#
#
# Indices 1 2 3 4 5 6 
#
# 1 179.0066 69.5519 59.5274 0.0000 0.0000 0.0000
# 2 69.5519 78.6314 31.9276 0.0000 0.0000 0.0000
# 3 59.5274 31.9276 46.5651 0.0000 0.0000 0.0000
# 4 0.0000 0.0000 0.0000 21.3507 0.0000 0.0000
# 5 0.0000 0.0000 0.0000 0.0000 3.7729 0.0000
# 6 0.0000 0.0000 0.0000 0.0000 0.0000 36.9962
#
#
#
# Elastic Compliance Matrix: (Units=1/GPa)
#
#
# Indices 1 2 3 4 5 6 
#
# 1 0.011318 -0.005732 -0.010538 0.000000 0.000000 0.000000
# 2 -0.005732 0.020527 -0.006747 0.000000 0.000000 0.000000
# 3 -0.010538 -0.006747 0.039573 0.000000 0.000000 0.000000
# 4 0.000000 0.000000 0.000000 0.046837 0.000000 0.000000
# 5 0.000000 0.000000 0.000000 0.000000 0.265050 0.000000
# 6 0.000000 0.000000 0.000000 0.000000 0.000000 0.027030
#
#
# Mechanical properties :
#
#
# Convention : Reuss Voigt Hill
#
# Bulk Modulus (GPa) = 39.39507 69.57966 54.48736
# Shear Modulus (GPa) = 10.75659 21.97037 16.36348
#
# Velocity S-wave (km/s) = 2.46008 3.51585 3.03424
# Velocity P-wave (km/s) = 5.49857 7.45851 6.55223
#
# Compressibility (1/GPa) = 0.02538389
#
# Stress axis : x y z
#
# Youngs Moduli (GPa) = 88.35459 48.71556 25.26952
#
# Poissons Ratio (x) = 0.27924 0.26630
# Poissons Ratio (y) = 0.50646 0.17049
# Poissons Ratio (z) = 0.93111 0.32868
#
# Static dielectric constant tensor:
#      x y z
#    x 3.610110 0.000000 0.000000 
#    y 0.000000 3.177910 0.000000 
#    z 0.000000 0.000000 3.029100 
# 
# 
# High freq. dielectric constant tensor:
#      x y z
#    x 1.707290 0.000000 0.000000 
#    y 0.000000 1.684390 0.000000 
#    z 0.000000 0.000000 1.652800 
# 
# From -- ./inp_files/57274.got.cif
#   From: 2010.03.12/outbox.cif.g09.slc.cpg/sg65_29_cif.got.tgz:57274.got - 2010.04.10 20:52:16.
