data_PCOD8265498
_publ_section_title
;
Structure prediction by ZEFSAII (Michael W. Deem and Ramdas Pophale) SiO2 
 PCOD8265498
Probable space group: C M M M
;
_chemical_formula_sum "Si O2"
_cell_formula_units_Z 104
_cell_length_a 8.898569
_cell_length_b 26.726389
_cell_length_c 23.087518
_cell_angle_alpha 90.000000
_cell_angle_beta 90.000000
_cell_angle_gamma 90.000000
_cell_volume 5490.826292
_symmetry_space_group_name_H-M "C M M M"
_symmetry_group_IT_number 65
_symmetry_cell_setting 'orthorhombic'
loop_
_space_group_symop_operation_xyz
x,y,z
-x,-y,z
x,-y,-z
-x,y,-z
-x,-y,-z
x,y,-z
-x,y,z
x,-y,z
1/2+x,1/2+y,z
1/2-x,1/2-y,z
1/2+x,1/2-y,-z
1/2-x,1/2+y,-z
1/2-x,1/2-y,-z
1/2+x,1/2+y,-z
1/2-x,1/2+y,z
1/2+x,1/2-y,z
loop_
_atom_site_type_symbol
_atom_site_label
_atom_site_fract_x
_atom_site_fract_y
_atom_site_fract_z
Si Si1 0.321676 0.902356 0.134420
Si Si2 0.678312 0.000000 0.934959
Si Si3 0.831322 0.201897 0.740985
Si Si4 0.668593 0.299951 0.122212
Si Si5 0.323669 0.945051 0.254053
Si Si6 0.323405 0.301855 0.565865
Si Si7 0.826708 0.367035 0.659098
O O1 0.500000 0.895753 0.131983
O O2 0.252569 0.851665 0.106693
O O3 0.261351 0.911499 0.200328
O O4 0.265410 0.949861 0.097148
O O5 0.500000 0.000000 0.935200
O O6 0.743414 0.000000 0.000000
O O7 0.750000 0.250000 0.714350
O O8 0.836457 0.204333 0.809186
O O9 0.724310 0.158395 0.718784
O O10 0.000000 0.197287 0.715049
O O11 0.500000 0.301471 0.096643
O O12 0.750000 0.250000 0.096981
O O13 0.500000 0.949497 0.242551
O O14 0.296367 0.924021 0.319798
O O15 0.248783 0.000000 0.251926
O O16 0.274279 0.313180 0.500000
O O17 0.500000 0.296003 0.571687
O O18 0.250000 0.250000 0.587583
O O19 0.269713 0.348882 0.604321
O O20 0.000000 0.356709 0.644723
#
# Coordination Sequence:
#
# PCOD8265498 Si02
#       7
#    16   8  16  16  16  16  16
#     4  10  17  31  55  79 111 148 183 226 273 325
#     4   9  18  32  57  91 117 145 188 233 274 322
#     4  10  19  29  42  64  98 133 165 202 244 300
#     4  10  20  32  48  73 107 144 182 220 266 327
#     4   9  17  30  49  75 103 137 175 213 264 318
#     4  10  21  37  55  74 100 134 173 215 260 312
#     4  11  20  30  49  73 100 131 169 213 257 311
#
# _framework density 18.940684000000001
#
# number of rings (size 3 to 8) (size 9 to 14) (size 15 to 20)
#    0.000    2.077    2.308    2.308    0.000    2.154 
#    0.000    0.385    0.000    5.538    0.000    3.231 
#    0.000    0.000    0.000    0.000    0.000    0.000 
#
# Total GULP energy -644295.542225 kJ/mol
# GULP energy per Si atom -12390.298889 kJ/mol
# Density = 1.889757 g / cm^3
# Si number density = 18.940684 Si / 1000 Ang^3
#
#
#
# Elastic Constant Matrix: (Units=GPa)
#
#
# Indices 1 2 3 4 5 6 
#
# 1 62.7205 41.2744 19.2612 0.0000 0.0000 0.0000
# 2 41.2744 140.8893 35.3229 0.0000 0.0000 0.0000
# 3 19.2612 35.3229 76.8836 0.0000 0.0000 0.0000
# 4 0.0000 0.0000 0.0000 27.9706 0.0000 0.0000
# 5 0.0000 0.0000 0.0000 0.0000 13.8775 0.0000
# 6 0.0000 0.0000 0.0000 0.0000 0.0000 22.1709
#
#
#
# Elastic Compliance Matrix: (Units=1/GPa)
#
#
# Indices 1 2 3 4 5 6 
#
# 1 0.020218 -0.005259 -0.002649 0.000000 0.000000 0.000000
# 2 -0.005259 0.009390 -0.002996 0.000000 0.000000 0.000000
# 3 -0.002649 -0.002996 0.015047 0.000000 0.000000 0.000000
# 4 0.000000 0.000000 0.000000 0.035752 0.000000 0.000000
# 5 0.000000 0.000000 0.000000 0.000000 0.072059 0.000000
# 6 0.000000 0.000000 0.000000 0.000000 0.000000 0.045104
#
#
# Mechanical properties :
#
#
# Convention : Reuss Voigt Hill
#
# Bulk Modulus (GPa) = 43.77137 52.46782 48.11959
# Shear Modulus (GPa) = 22.02708 25.11280 23.56994
#
# Velocity S-wave (km/s) = 3.41391 3.64519 3.53144
# Velocity P-wave (km/s) = 6.22090 6.74373 6.48758
#
# Compressibility (1/GPa) = 0.02284598
#
# Stress axis : x y z
#
# Youngs Moduli (GPa) = 49.46108 106.50048 66.45851
#
# Poissons Ratio (x) = 0.56007 0.17605
# Poissons Ratio (y) = 0.26011 0.19914
# Poissons Ratio (z) = 0.13102 0.31912
#
# Static dielectric constant tensor:
#      x y z
#    x 3.379180 0.000000 0.000000 
#    y 0.000000 3.396590 0.000000 
#    z 0.000000 0.000000 3.262300 
# 
# 
# High freq. dielectric constant tensor:
#      x y z
#    x 1.718730 0.000000 0.000000 
#    y 0.000000 1.736940 0.000000 
#    z 0.000000 0.000000 1.709640 
# 
# From -- ./inp_files/68260.got.cif
#   From: 2010.03.12/outbox.cif.g09.slc.cpg/sg65_35_cif.got.tgz:68260.got - 2010.04.10 20:52:16.
