data_PCOD8265985
_publ_section_title
;
Structure prediction by ZEFSAII (Michael W. Deem and Ramdas Pophale) SiO2 
 PCOD8265985
Probable space group: C M M M
;
_chemical_formula_sum "Si O2"
_cell_formula_units_Z 88
_cell_length_a 28.841433
_cell_length_b 13.896644
_cell_length_c 12.872777
_cell_angle_alpha 90.000000
_cell_angle_beta 90.000000
_cell_angle_gamma 90.000000
_cell_volume 5159.397782
_symmetry_space_group_name_H-M "C M M M"
_symmetry_group_IT_number 65
_symmetry_cell_setting 'orthorhombic'
loop_
_space_group_symop_operation_xyz
x,y,z
-x,-y,z
x,-y,-z
-x,y,-z
-x,-y,-z
x,y,-z
-x,y,z
x,-y,z
1/2+x,1/2+y,z
1/2-x,1/2-y,z
1/2+x,1/2-y,-z
1/2-x,1/2+y,-z
1/2-x,1/2-y,-z
1/2+x,1/2+y,-z
1/2-x,1/2+y,z
1/2+x,1/2-y,z
loop_
_atom_site_type_symbol
_atom_site_label
_atom_site_fract_x
_atom_site_fract_y
_atom_site_fract_z
Si Si1 0.500000 0.105954 0.622655
Si Si2 0.922504 0.248376 0.620578
Si Si3 0.050277 0.111186 0.794327
Si Si4 0.756459 0.390007 0.618763
Si Si5 0.146263 0.888274 0.117665
Si Si6 0.679181 0.266850 0.305070
O O1 0.500000 0.095871 0.500000
O O2 0.546849 0.160553 0.658127
O O3 0.500000 0.000000 0.674492
O O4 0.930566 0.227436 0.500000
O O5 0.939859 0.156228 0.682391
O O6 0.868768 0.266839 0.644346
O O7 0.091224 0.135408 0.875204
O O8 0.000000 0.145627 0.838796
O O9 0.048883 0.000000 0.770446
O O10 0.774014 0.380525 0.500000
O O11 0.756851 0.500000 0.656034
O O12 0.704277 0.347909 0.624547
O O13 0.789219 0.329305 0.696897
O O14 0.173712 0.813627 0.190714
O O15 0.155638 0.000000 0.149721
O O16 0.162486 0.869936 0.000000
#
# Coordination Sequence:
#
# PCOD8265985 Si02
#       6
#     8  16  16  16  16  16
#     4   9  18  30  43  63  94 131 167 199 231 274
#     4  10  18  29  45  67  98 132 165 199 241 290
#     4   9  17  28  43  66  96 127 162 202 244 291
#     4  10  20  34  52  76 105 134 164 200 246 302
#     4   9  18  32  50  72  98 130 168 211 257 300
#     4  10  19  33  52  73  99 129 169 211 252 295
#
# _framework density 17.056253999999999
#
# number of rings (size 3 to 8) (size 9 to 14) (size 15 to 20)
#    0.000    2.455    0.909    2.727    0.000    2.182 
#    0.000    6.364    0.000    1.636    0.000    0.000 
#    0.000    3.636    0.000    0.000    0.000    0.000 
#
# Total GULP energy -545302.311213 kJ/mol
# GULP energy per Si atom -12393.234346 kJ/mol
# Density = 1.701743 g / cm^3
# Si number density = 17.056254 Si / 1000 Ang^3
#
#
#
# Elastic Constant Matrix: (Units=GPa)
#
#
# Indices 1 2 3 4 5 6 
#
# 1 110.4996 53.2493 24.2376 0.0000 0.0000 0.0000
# 2 53.2493 92.7593 33.4534 0.0000 0.0000 0.0000
# 3 24.2376 33.4534 66.3361 0.0000 0.0000 0.0000
# 4 0.0000 0.0000 0.0000 19.9610 0.0000 0.0000
# 5 0.0000 0.0000 0.0000 0.0000 16.3057 0.0000
# 6 0.0000 0.0000 0.0000 0.0000 0.0000 24.4907
#
#
#
# Elastic Compliance Matrix: (Units=1/GPa)
#
#
# Indices 1 2 3 4 5 6 
#
# 1 0.012584 -0.006803 -0.001167 0.000000 0.000000 0.000000
# 2 -0.006803 0.016855 -0.006014 0.000000 0.000000 0.000000
# 3 -0.001167 -0.006014 0.018534 0.000000 0.000000 0.000000
# 4 0.000000 0.000000 0.000000 0.050098 0.000000 0.000000
# 5 0.000000 0.000000 0.000000 0.000000 0.061328 0.000000
# 6 0.000000 0.000000 0.000000 0.000000 0.000000 0.040832
#
#
# Mechanical properties :
#
#
# Convention : Reuss Voigt Hill
#
# Bulk Modulus (GPa) = 49.98930 54.60839 52.29885
# Shear Modulus (GPa) = 21.28849 22.72845 22.00847
#
# Velocity S-wave (km/s) = 3.53673 3.65438 3.59604
# Velocity P-wave (km/s) = 6.78602 7.06344 6.92612
#
# Compressibility (1/GPa) = 0.02000428
#
# Stress axis : x y z
#
# Youngs Moduli (GPa) = 79.46454 59.32941 53.95427
#
# Poissons Ratio (x) = 0.40363 0.06297
# Poissons Ratio (y) = 0.54061 0.32450
# Poissons Ratio (z) = 0.09275 0.35683
#
# Static dielectric constant tensor:
#      x y z
#    x 3.486560 0.000000 0.000000 
#    y 0.000000 3.237920 0.000000 
#    z 0.000000 0.000000 2.910020 
# 
# 
# High freq. dielectric constant tensor:
#      x y z
#    x 1.668590 0.000000 0.000000 
#    y 0.000000 1.649740 0.000000 
#    z 0.000000 0.000000 1.627430 
# 
# From -- ./inp_files/33803.got.cif
#   From: 2010.03.12/outbox.cif.g09.slc.cpg/sg65_17_cif.got.tgz:33803.got - 2010.04.10 20:52:16.
