data_PCOD8265505
_publ_section_title
;
Structure prediction by ZEFSAII (Michael W. Deem and Ramdas Pophale) SiO2 
 PCOD8265505
Probable space group: C M M M
;
_chemical_formula_sum "Si O2"
_cell_formula_units_Z 88
_cell_length_a 28.092056
_cell_length_b 19.221322
_cell_length_c 9.260491
_cell_angle_alpha 90.000000
_cell_angle_beta 90.000000
_cell_angle_gamma 90.000000
_cell_volume 5000.354488
_symmetry_space_group_name_H-M "C M M M"
_symmetry_group_IT_number 65
_symmetry_cell_setting 'orthorhombic'
loop_
_space_group_symop_operation_xyz
x,y,z
-x,-y,z
x,-y,-z
-x,y,-z
-x,-y,-z
x,y,-z
-x,y,z
x,-y,z
1/2+x,1/2+y,z
1/2-x,1/2-y,z
1/2+x,1/2-y,-z
1/2-x,1/2+y,-z
1/2-x,1/2-y,-z
1/2+x,1/2+y,-z
1/2-x,1/2+y,z
1/2+x,1/2-y,z
loop_
_atom_site_type_symbol
_atom_site_label
_atom_site_fract_x
_atom_site_fract_y
_atom_site_fract_z
Si Si1 0.444948 0.855769 0.332182
Si Si2 0.218729 0.347232 0.341229
Si Si3 0.695706 0.500000 0.157846
Si Si4 0.133739 0.283017 0.168179
Si Si5 0.792480 0.500000 0.278091
Si Si6 0.189737 0.850085 0.831166
Si Si7 0.396546 0.000000 0.330857
O O1 0.435544 0.840302 0.500000
O O2 0.500000 0.849512 0.292233
O O3 0.417469 0.798364 0.237602
O O4 0.427743 0.933022 0.291429
O O5 0.216565 0.312186 0.500000
O O6 0.172522 0.329943 0.247813
O O7 0.218996 0.430260 0.367279
O O8 0.265508 0.319625 0.257759
O O9 0.753893 0.500000 0.147437
O O10 0.677239 0.572240 0.230597
O O11 0.673555 0.500000 0.000000
O O12 0.145260 0.201213 0.191257
O O13 0.133614 0.302710 0.000000
O O14 0.848385 0.500000 0.234058
O O15 0.204529 0.854507 0.000000
O O16 0.381840 0.000000 0.500000
#
# Coordination Sequence:
#
# PCOD8265505 Si02
#       7
#    16  16   8  16   8  16   8
#     4  10  21  37  56  75  95 125 168 213 252 290
#     4  11  20  31  48  71  99 132 171 208 239 280
#     4   8  16  32  51  69  96 129 167 201 234 287
#     4  11  22  34  49  70 100 131 160 199 250 301
#     4  10  18  29  46  70 100 133 170 209 242 276
#     4   9  19  34  50  71  98 130 162 198 245 293
#     4  10  17  32  52  71  96 127 168 212 249 280
#
# _framework density 17.598751
#
# number of rings (size 3 to 8) (size 9 to 14) (size 15 to 20)
#    0.000    2.000    1.818    2.727    0.000    5.818 
#    0.000    0.455    0.000    1.091    0.000    0.636 
#    0.000    5.091    0.000    0.000    0.000    0.000 
#
# Total GULP energy -545263.713244 kJ/mol
# GULP energy per Si atom -12392.357119 kJ/mol
# Density = 1.755870 g / cm^3
# Si number density = 17.598751 Si / 1000 Ang^3
#
#
#
# Elastic Constant Matrix: (Units=GPa)
#
#
# Indices 1 2 3 4 5 6 
#
# 1 103.5947 57.8577 43.2686 0.0000 0.0000 0.0000
# 2 57.8577 105.0171 41.5016 0.0000 0.0000 0.0000
# 3 43.2686 41.5016 78.7891 0.0000 0.0000 0.0000
# 4 0.0000 0.0000 0.0000 15.0425 0.0000 0.0000
# 5 0.0000 0.0000 0.0000 0.0000 26.8144 0.0000
# 6 0.0000 0.0000 0.0000 0.0000 0.0000 27.7405
#
#
#
# Elastic Compliance Matrix: (Units=1/GPa)
#
#
# Indices 1 2 3 4 5 6 
#
# 1 0.015374 -0.006483 -0.005028 0.000000 0.000000 0.000000
# 2 -0.006483 0.014759 -0.004214 0.000000 0.000000 0.000000
# 3 -0.005028 -0.004214 0.017673 0.000000 0.000000 0.000000
# 4 0.000000 0.000000 0.000000 0.066478 0.000000 0.000000
# 5 0.000000 0.000000 0.000000 0.000000 0.037293 0.000000
# 6 0.000000 0.000000 0.000000 0.000000 0.000000 0.036048
#
#
# Mechanical properties :
#
#
# Convention : Reuss Voigt Hill
#
# Bulk Modulus (GPa) = 61.13936 63.62854 62.38395
# Shear Modulus (GPa) = 22.26889 23.57101 22.91995
#
# Velocity S-wave (km/s) = 3.56106 3.66369 3.61274
# Velocity P-wave (km/s) = 7.19196 7.35734 7.27512
#
# Compressibility (1/GPa) = 0.01635608
#
# Stress axis : x y z
#
# Youngs Moduli (GPa) = 65.04572 67.75370 56.58327
#
# Poissons Ratio (x) = 0.43925 0.28450
# Poissons Ratio (y) = 0.42169 0.23845
# Poissons Ratio (z) = 0.32705 0.28552
#
# Static dielectric constant tensor:
#      x y z
#    x 3.056970 0.000000 0.000000 
#    y 0.000000 3.488680 0.000000 
#    z 0.000000 0.000000 3.167880 
# 
# 
# High freq. dielectric constant tensor:
#      x y z
#    x 1.644390 0.000000 0.000000 
#    y 0.000000 1.689420 0.000000 
#    z 0.000000 0.000000 1.668470 
# 
# From -- ./inp_files/14067.got.cif
#   From: 2010.03.12/outbox.cif.g09.slc.cpg/sg65_8_cif.got.tgz:14067.got - 2010.04.10 20:52:16.
