data_PCOD8265513
_publ_section_title
;
Structure prediction by ZEFSAII (Michael W. Deem and Ramdas Pophale) SiO2 
 PCOD8265513
Probable space group: C M M M
;
_chemical_formula_sum "Si O2"
_cell_formula_units_Z 80
_cell_length_a 8.971190
_cell_length_b 23.837242
_cell_length_c 20.421543
_cell_angle_alpha 90.000000
_cell_angle_beta 90.000000
_cell_angle_gamma 90.000000
_cell_volume 4367.114849
_symmetry_space_group_name_H-M "C M M M"
_symmetry_group_IT_number 65
_symmetry_cell_setting 'orthorhombic'
loop_
_space_group_symop_operation_xyz
x,y,z
-x,-y,z
x,-y,-z
-x,y,-z
-x,-y,-z
x,y,-z
-x,y,z
x,-y,z
1/2+x,1/2+y,z
1/2-x,1/2-y,z
1/2+x,1/2-y,-z
1/2-x,1/2+y,-z
1/2-x,1/2-y,-z
1/2+x,1/2+y,-z
1/2-x,1/2+y,z
1/2+x,1/2-y,z
loop_
_atom_site_type_symbol
_atom_site_label
_atom_site_fract_x
_atom_site_fract_y
_atom_site_fract_z
Si Si1 0.676605 0.309989 0.192934
Si Si2 0.323551 0.500000 0.873269
Si Si3 0.825451 0.307104 0.426819
Si Si4 0.172013 0.378741 0.694466
Si Si5 0.677144 0.616782 0.927359
Si Si6 0.830799 0.500000 0.737467
O O1 0.500000 0.303305 0.194644
O O2 0.750000 0.250000 0.202481
O O3 0.725099 0.350945 0.250848
O O4 0.732711 0.336608 0.124206
O O5 0.500000 0.500000 0.877922
O O6 0.258292 0.444472 0.908273
O O7 0.280437 0.500000 0.797812
O O8 0.770208 0.323431 0.500000
O O9 0.750000 0.250000 0.402235
O O10 0.780552 0.356486 0.377063
O O11 0.000000 0.296232 0.426477
O O12 0.199153 0.445425 0.693086
O O13 0.000000 0.363868 0.709930
O O14 0.500000 0.613905 0.925916
O O15 0.735098 0.632947 0.000000
O O16 0.000000 0.500000 0.764347
#
# Coordination Sequence:
#
# PCOD8265513 Si02
#       6
#    16   8  16  16  16   8
#     4  11  22  35  53  76 103 135 174 215 258 308
#     4  10  17  32  56  79  99 128 172 216 255 304
#     4   9  18  33  53  77 104 135 172 211 251 297
#     4  10  20  35  54  77 106 138 171 210 257 305
#     4   9  18  32  52  77 102 130 168 214 260 306
#     4  10  20  33  52  77 108 137 164 208 262 306
#
# _framework density 18.318731
#
# number of rings (size 3 to 8) (size 9 to 14) (size 15 to 20)
#    0.000    2.200    2.000    1.500    0.000    4.000 
#    0.000    0.500    0.000    8.400    0.000    0.000 
#    0.000    5.600    0.000    0.000    0.000    0.000 
#
# Total GULP energy -495980.785924 kJ/mol
# GULP energy per Si atom -12399.519648 kJ/mol
# Density = 1.827704 g / cm^3
# Si number density = 18.318731 Si / 1000 Ang^3
#
#
#
# Elastic Constant Matrix: (Units=GPa)
#
#
# Indices 1 2 3 4 5 6 
#
# 1 32.3416 29.7270 25.9374 0.0000 0.0000 0.0000
# 2 29.7270 140.0719 68.1301 0.0000 0.0000 0.0000
# 3 25.9374 68.1301 130.2775 0.0000 0.0000 0.0000
# 4 0.0000 0.0000 0.0000 36.4317 0.0000 0.0000
# 5 0.0000 0.0000 0.0000 0.0000 23.3067 0.0000
# 6 0.0000 0.0000 0.0000 0.0000 0.0000 16.8225
#
#
#
# Elastic Compliance Matrix: (Units=1/GPa)
#
#
# Indices 1 2 3 4 5 6 
#
# 1 0.040525 -0.006271 -0.004789 0.000000 0.000000 0.000000
# 2 -0.006271 0.010545 -0.004266 0.000000 0.000000 0.000000
# 3 -0.004789 -0.004266 0.010860 0.000000 0.000000 0.000000
# 4 0.000000 0.000000 0.000000 0.027449 0.000000 0.000000
# 5 0.000000 0.000000 0.000000 0.000000 0.042906 0.000000
# 6 0.000000 0.000000 0.000000 0.000000 0.000000 0.059444
#
#
# Mechanical properties :
#
#
# Convention : Reuss Voigt Hill
#
# Bulk Modulus (GPa) = 31.97128 61.14224 46.55676
# Shear Modulus (GPa) = 21.47702 27.23859 24.35781
#
# Velocity S-wave (km/s) = 3.42776 3.86025 3.65042
# Velocity P-wave (km/s) = 5.75819 7.30192 6.57551
#
# Compressibility (1/GPa) = 0.03127807
#
# Stress axis : x y z
#
# Youngs Moduli (GPa) = 24.67643 94.83028 92.07836
#
# Poissons Ratio (x) = 0.59471 0.44092
# Poissons Ratio (y) = 0.15475 0.39282
# Poissons Ratio (z) = 0.11816 0.40456
#
# Static dielectric constant tensor:
#      x y z
#    x 3.170390 0.000000 0.000000 
#    y 0.000000 3.553320 0.000000 
#    z 0.000000 0.000000 3.621970 
# 
# 
# High freq. dielectric constant tensor:
#      x y z
#    x 1.686500 0.000000 0.000000 
#    y 0.000000 1.714850 0.000000 
#    z 0.000000 0.000000 1.712810 
# 
# From -- ./inp_files/59699.got.cif
#   From: 2010.03.12/outbox.cif.g09.slc.cpg/sg65_30_cif.got.tgz:59699.got - 2010.04.10 20:52:16.
