data_PCOD8265193
_publ_section_title
;
Structure prediction by ZEFSAII (Michael W. Deem and Ramdas Pophale) SiO2 
 PCOD8265193
Probable space group: C M M M
;
_chemical_formula_sum "Si O2"
_cell_formula_units_Z 112
_cell_length_a 16.884705
_cell_length_b 19.483108
_cell_length_c 20.028063
_cell_angle_alpha 90.000000
_cell_angle_beta 90.000000
_cell_angle_gamma 90.000000
_cell_volume 6588.562409
_symmetry_space_group_name_H-M "C M M M"
_symmetry_group_IT_number 65
_symmetry_cell_setting 'orthorhombic'
loop_
_space_group_symop_operation_xyz
x,y,z
-x,-y,z
x,-y,-z
-x,y,-z
-x,-y,-z
x,y,-z
-x,y,z
x,-y,z
1/2+x,1/2+y,z
1/2-x,1/2-y,z
1/2+x,1/2-y,-z
1/2-x,1/2+y,-z
1/2-x,1/2-y,-z
1/2+x,1/2+y,-z
1/2-x,1/2+y,z
1/2+x,1/2-y,z
loop_
_atom_site_type_symbol
_atom_site_label
_atom_site_fract_x
_atom_site_fract_y
_atom_site_fract_z
Si Si1 0.000000 0.422941 0.139599
Si Si2 0.500000 0.783035 0.076652
Si Si3 0.091030 0.923412 0.346132
Si Si4 0.822027 0.923176 0.208376
Si Si5 0.593598 0.706028 0.426552
Si Si6 0.412806 0.296731 0.820502
Si Si7 0.094285 0.292868 0.303245
Si Si8 0.856698 0.576491 0.239406
O O1 0.077403 0.410262 0.183722
O O2 0.000000 0.500000 0.108878
O O3 0.000000 0.365895 0.081609
O O4 0.421884 0.751274 0.113421
O O5 0.500000 0.760837 0.000000
O O6 0.146678 0.910631 0.282952
O O7 0.116562 0.870859 0.403928
O O8 0.000000 0.910615 0.324327
O O9 0.102645 0.000000 0.374706
O O10 0.859761 0.863605 0.162149
O O11 0.728085 0.914755 0.204933
O O12 0.846413 0.000000 0.183804
O O13 0.630732 0.720044 0.500000
O O14 0.500000 0.713447 0.430552
O O15 0.626105 0.760406 0.372326
O O16 0.500000 0.323065 0.798131
O O17 0.375591 0.252877 0.759439
O O18 0.131969 0.368661 0.298623
O O19 0.000000 0.298458 0.301161
O O20 0.865325 0.500000 0.270174
#
# Coordination Sequence:
#
# PCOD8265193 Si02
#       8
#     8   8  16  16  16  16  16  16
#     4  10  18  35  56  77 103 133 163 204 265 307
#     4  10  20  35  55  82 108 135 169 204 237 292
#     4   9  16  27  44  66  99 135 165 202 252 301
#     4  10  19  29  47  78 105 129 169 212 248 291
#     4   9  17  27  43  68  98 129 166 210 250 299
#     4   9  17  31  51  75 102 135 162 199 240 289
#     4  10  16  30  50  71  96 128 164 206 254 298
#     4  10  19  31  51  77 101 125 165 217 258 297
#
# _framework density 16.999155999999999
#
# number of rings (size 3 to 8) (size 9 to 14) (size 15 to 20)
#    0.429    2.000    3.571    0.429    0.000    1.857 
#    0.000    1.429    0.000    4.714    0.000    6.000 
#    0.000    0.000    0.000    0.000    0.000    0.000 
#
# Total GULP energy -693997.221667 kJ/mol
# GULP energy per Si atom -12392.807530 kJ/mol
# Density = 1.696046 g / cm^3
# Si number density = 16.999156 Si / 1000 Ang^3
#
#
#
# Elastic Constant Matrix: (Units=GPa)
#
#
# Indices 1 2 3 4 5 6 
#
# 1 55.5280 31.5475 18.1477 0.0000 0.0000 0.0000
# 2 31.5475 146.2903 55.0289 0.0000 0.0000 0.0000
# 3 18.1477 55.0289 95.6271 0.0000 0.0000 0.0000
# 4 0.0000 0.0000 0.0000 19.5216 0.0000 0.0000
# 5 0.0000 0.0000 0.0000 0.0000 4.9224 0.0000
# 6 0.0000 0.0000 0.0000 0.0000 0.0000 19.9017
#
#
#
# Elastic Compliance Matrix: (Units=1/GPa)
#
#
# Indices 1 2 3 4 5 6 
#
# 1 0.020748 -0.003820 -0.001739 0.000000 0.000000 0.000000
# 2 -0.003820 0.009428 -0.004700 0.000000 0.000000 0.000000
# 3 -0.001739 -0.004700 0.013492 0.000000 0.000000 0.000000
# 4 0.000000 0.000000 0.000000 0.051225 0.000000 0.000000
# 5 0.000000 0.000000 0.000000 0.000000 0.203153 0.000000
# 6 0.000000 0.000000 0.000000 0.000000 0.000000 0.050247
#
#
# Mechanical properties :
#
#
# Convention : Reuss Voigt Hill
#
# Bulk Modulus (GPa) = 43.19925 56.32150 49.76038
# Shear Modulus (GPa) = 13.27923 21.71721 17.49822
#
# Velocity S-wave (km/s) = 2.79797 3.57816 3.21184
# Velocity P-wave (km/s) = 5.99216 7.09047 6.56433
#
# Compressibility (1/GPa) = 0.02314855
#
# Stress axis : x y z
#
# Youngs Moduli (GPa) = 48.19832 106.07233 74.11778
#
# Poissons Ratio (x) = 0.40520 0.12890
# Poissons Ratio (y) = 0.18412 0.34836
# Poissons Ratio (z) = 0.08382 0.49856
#
# Static dielectric constant tensor:
#      x y z
#    x 2.998370 0.000000 0.000000 
#    y 0.000000 3.501100 0.000000 
#    z 0.000000 0.000000 2.857800 
# 
# 
# High freq. dielectric constant tensor:
#      x y z
#    x 1.631420 0.000000 0.000000 
#    y 0.000000 1.675230 0.000000 
#    z 0.000000 0.000000 1.606610 
# 
# From -- ./inp_files/64078.got.cif
#   From: 2010.03.12/outbox.cif.g09.slc.cpg/sg65_33_cif.got.tgz:64078.got - 2010.04.10 20:52:16.
