data_PCOD8265456
_publ_section_title
;
Structure prediction by ZEFSAII (Michael W. Deem and Ramdas Pophale) SiO2 
 PCOD8265456
Probable space group: C M M M
;
_chemical_formula_sum "Si O2"
_cell_formula_units_Z 84
_cell_length_a 20.742804
_cell_length_b 14.417475
_cell_length_c 16.196511
_cell_angle_alpha 90.000000
_cell_angle_beta 90.000000
_cell_angle_gamma 90.000000
_cell_volume 4843.710085
_symmetry_space_group_name_H-M "C M M M"
_symmetry_group_IT_number 65
_symmetry_cell_setting 'orthorhombic'
loop_
_space_group_symop_operation_xyz
x,y,z
-x,-y,z
x,-y,-z
-x,y,-z
-x,-y,-z
x,y,-z
-x,y,z
x,-y,z
1/2+x,1/2+y,z
1/2-x,1/2-y,z
1/2+x,1/2-y,-z
1/2-x,1/2+y,-z
1/2-x,1/2-y,-z
1/2+x,1/2+y,-z
1/2-x,1/2+y,z
1/2+x,1/2-y,z
loop_
_atom_site_type_symbol
_atom_site_label
_atom_site_fract_x
_atom_site_fract_y
_atom_site_fract_z
Si Si1 0.312613 0.500000 0.840684
Si Si2 0.821377 0.000000 0.500000
Si Si3 0.072236 0.799586 0.677540
Si Si4 0.226489 0.352102 0.088619
Si Si5 0.071629 0.845694 0.500000
Si Si6 0.311196 0.819571 0.738824
Si Si7 0.259077 0.000000 0.668684
Si Si8 0.072842 0.000000 0.743551
O O1 0.290228 0.589450 0.890501
O O2 0.290470 0.500000 0.744651
O O3 0.389547 0.500000 0.831129
O O4 0.867551 0.087620 0.500000
O O5 0.776251 0.000000 0.419148
O O6 0.076615 0.780021 0.579924
O O7 0.123093 0.734217 0.722154
O O8 0.000000 0.777394 0.710796
O O9 0.089213 0.908461 0.689947
O O10 0.250000 0.250000 0.075578
O O11 0.179385 0.360031 0.167614
O O12 0.195977 0.385788 0.000000
O O13 0.000000 0.895315 0.500000
O O14 0.250000 0.750000 0.733476
O O15 0.302254 0.906045 0.676239
O O16 0.000000 0.000000 0.772238
#
# Coordination Sequence:
#
# PCOD8265456 Si02
#       8
#     8   4  16  16   8  16   8   8
#     4  10  17  30  46  67  99 128 155 197 251 296
#     4  12  19  30  48  72 107 134 166 214 260 288
#     4  10  20  33  50  73 101 136 173 209 249 296
#     4   9  17  28  47  71  91 119 158 197 240 294
#     4  10  19  29  46  72 101 134 172 205 243 300
#     4  10  19  34  52  71 100 130 165 210 257 302
#     4  10  22  32  46  72  97 130 168 207 255 300
#     4  10  18  28  46  72  99 131 170 204 246 301
#
# _framework density 17.342078000000001
#
# number of rings (size 3 to 8) (size 9 to 14) (size 15 to 20)
#    0.000    2.095    0.000    6.714    0.000    2.286 
#    0.000    2.381    0.000    1.714    0.000   13.333 
#    0.000    4.571    0.000    0.190    0.000    0.000 
#
# Total GULP energy -520332.287231 kJ/mol
# GULP energy per Si atom -12388.863982 kJ/mol
# Density = 1.730261 g / cm^3
# Si number density = 17.342078 Si / 1000 Ang^3
#
#
#
# Elastic Constant Matrix: (Units=GPa)
#
#
# Indices 1 2 3 4 5 6 
#
# 1 98.6779 48.9966 56.6353 0.0000 0.0000 0.0000
# 2 48.9966 86.5585 39.9434 0.0000 0.0000 0.0000
# 3 56.6353 39.9434 127.5045 0.0000 0.0000 0.0000
# 4 0.0000 0.0000 0.0000 18.6396 0.0000 0.0000
# 5 0.0000 0.0000 0.0000 0.0000 17.3134 0.0000
# 6 0.0000 0.0000 0.0000 0.0000 0.0000 32.6024
#
#
#
# Elastic Compliance Matrix: (Units=1/GPa)
#
#
# Indices 1 2 3 4 5 6 
#
# 1 0.016576 -0.006997 -0.005171 0.000000 0.000000 0.000000
# 2 -0.006997 0.016458 -0.002048 0.000000 0.000000 0.000000
# 3 -0.005171 -0.002048 0.010781 0.000000 0.000000 0.000000
# 4 0.000000 0.000000 0.000000 0.053649 0.000000 0.000000
# 5 0.000000 0.000000 0.000000 0.000000 0.057759 0.000000
# 6 0.000000 0.000000 0.000000 0.000000 0.000000 0.030673
#
#
# Mechanical properties :
#
#
# Convention : Reuss Voigt Hill
#
# Bulk Modulus (GPa) = 65.00141 67.09907 66.05024
# Shear Modulus (GPa) = 22.78365 24.85545 23.81955
#
# Velocity S-wave (km/s) = 3.62854 3.78993 3.71011
# Velocity P-wave (km/s) = 7.42417 7.61097 7.51815
#
# Compressibility (1/GPa) = 0.01538428
#
# Stress axis : x y z
#
# Youngs Moduli (GPa) = 60.32906 60.75897 92.75325
#
# Poissons Ratio (x) = 0.42511 0.47961
# Poissons Ratio (y) = 0.42210 0.18998
# Poissons Ratio (z) = 0.31195 0.12445
#
# Static dielectric constant tensor:
#      x y z
#    x 3.107870 0.000000 0.000000 
#    y 0.000000 3.221420 0.000000 
#    z 0.000000 0.000000 3.615870 
# 
# 
# High freq. dielectric constant tensor:
#      x y z
#    x 1.639970 0.000000 0.000000 
#    y 0.000000 1.662550 0.000000 
#    z 0.000000 0.000000 1.674920 
# 
# From -- ./inp_files/44079.got.cif
#   From: 2010.03.12/outbox.cif.g09.slc.cpg/sg65_23_cif.got.tgz:44079.got - 2010.04.10 20:52:16.
