data_PCOD8265042
_publ_section_title
;
Structure prediction by ZEFSAII (Michael W. Deem and Ramdas Pophale) SiO2 
 PCOD8265042
Probable space group: C M C A
;
_chemical_formula_sum "Si O2"
_cell_formula_units_Z 36
_cell_length_a 15.000000
_cell_length_b 15.000000
_cell_length_c 18.000000
_cell_angle_alpha 90.000000
_cell_angle_beta 90.000000
_cell_angle_gamma 90.000000
_cell_volume 4050.000000
_symmetry_space_group_name_H-M "C M C A"
_symmetry_group_IT_number 64
_symmetry_cell_setting 'orthorhombic'
loop_
_space_group_symop_operation_xyz
x,y,z
-x,1/2-y,1/2+z
x,-y,-z
-x,1/2+y,1/2-z
-x,-y,-z
x,1/2+y,1/2-z
-x,y,z
x,1/2-y,1/2+z
1/2+x,1/2+y,z
1/2-x,-y,1/2+z
1/2+x,1/2-y,-z
1/2-x,y,1/2-z
1/2-x,1/2-y,-z
1/2+x,y,1/2-z
1/2-x,1/2+y,z
1/2+x,-y,1/2+z
loop_
_atom_site_type_symbol
_atom_site_label
_atom_site_fract_x
_atom_site_fract_y
_atom_site_fract_z
Si Si1 0.602016 0.544416 0.359928
Si Si2 0.837066 0.634200 0.797523
Si Si3 0.779448 0.500000 0.000000
Si Si4 0.399794 0.239590 0.175681
Si Si5 0.266627 0.321127 0.063749
O O1 0.500000 0.550672 0.384948
O O2 0.612173 0.460134 0.304510
O O3 0.659876 0.535734 0.433603
O O4 0.632529 0.636208 0.318339
O O5 0.750000 0.612912 0.750000
O O6 0.891674 0.711220 0.755117
O O7 0.817297 0.672860 0.879770
O O8 0.717315 0.581341 0.972369
O O9 0.500000 0.240745 0.149011
O O10 0.351645 0.293838 0.110986
O O11 0.250000 0.250000 0.000000
#
# Coordination Sequence:
#
# PCOD8265042 Si02
#       5
#    16  16   8  16  16
#     4  10  19  32  54  79 104 135 175 224 267 307
#     4   9  20  34  52  76 103 140 177 213 261 318
#     4  10  19  34  55  80 104 136 180 218 263 316
#     4  10  20  36  54  78 109 140 174 219 268 313
#     4  10  19  36  55  80 105 140 176 216 261 314
#
# _framework density 8.8888890000000007
#
# number of rings (size 3 to 8) (size 9 to 14) (size 15 to 20)
#    0.000    2.222    2.222    1.000    0.000    2.667 
#    4.000    1.667    0.000    0.000    0.000    0.000 
#    0.000    0.000    0.000    0.000    0.000    0.000 
#
# Total GULP energy -446220.471337 kJ/mol
# GULP energy per Si atom -12395.013093 kJ/mol
# Density = 0.886866 g / cm^3
# Si number density = 8.888889 Si / 1000 Ang^3
#
#
#
# Elastic Constant Matrix: (Units=GPa)
#
#
# Indices 1 2 3 4 5 6 
#
# 1 50.8059 47.0998 18.0586 0.0000 0.0000 0.0000
# 2 47.0998 192.2999 78.0073 0.0000 0.0000 0.0000
# 3 18.0586 78.0073 104.1223 0.0000 0.0000 0.0000
# 4 0.0000 0.0000 0.0000 41.7915 0.0000 0.0000
# 5 0.0000 0.0000 0.0000 0.0000 5.2820 0.0000
# 6 0.0000 0.0000 0.0000 0.0000 0.0000 26.4418
#
#
#
# Elastic Compliance Matrix: (Units=1/GPa)
#
#
# Indices 1 2 3 4 5 6 
#
# 1 0.025475 -0.006389 0.000368 0.000000 0.000000 0.000000
# 2 -0.006389 0.009073 -0.005689 0.000000 0.000000 0.000000
# 3 0.000368 -0.005689 0.013803 0.000000 0.000000 0.000000
# 4 0.000000 0.000000 0.000000 0.023928 0.000000 0.000000
# 5 0.000000 0.000000 0.000000 0.000000 0.189323 0.000000
# 6 0.000000 0.000000 0.000000 0.000000 0.000000 0.037819
#
#
# Mechanical properties :
#
#
# Convention : Reuss Voigt Hill
#
# Bulk Modulus (GPa) = 40.11172 70.39550 55.25361
# Shear Modulus (GPa) = 15.09887 28.30721 21.70304
#
# Velocity S-wave (km/s) = 2.91746 3.99467 3.49778
# Velocity P-wave (km/s) = 5.82757 7.80768 6.88914
#
# Compressibility (1/GPa) = 0.02493037
#
# Stress axis : x y z
#
# Youngs Moduli (GPa) = 39.25462 110.21838 72.45038
#
# Poissons Ratio (x) = 0.70417 -0.02668
# Poissons Ratio (y) = 0.25079 0.41219
# Poissons Ratio (z) = -0.01445 0.62706
#
# Static dielectric constant tensor:
#      x y z
#    x 3.064610 0.000000 0.000000 
#    y 0.000000 3.748830 0.000000 
#    z 0.000000 0.000000 3.450020 
# 
# 
# High freq. dielectric constant tensor:
#      x y z
#    x 1.660630 0.000000 0.000000 
#    y 0.000000 1.712570 0.000000 
#    z 0.000000 0.000000 1.691440 
# 
# From -- ./inp_files/31875.got.cif
#   From: 2010.03.12/outbox.ucp.g09.slc.cvg/sg64_16_cif.got.tgz:31875.got - 2010.05.04 19:41:48.
