data_PCOD8265119
_publ_section_title
;
Structure prediction by ZEFSAII (Michael W. Deem and Ramdas Pophale) SiO2 
 PCOD8265119
Probable space group: C M M M
;
_chemical_formula_sum "Si O2"
_cell_formula_units_Z 104
_cell_length_a 27.442066
_cell_length_b 8.650371
_cell_length_c 26.755219
_cell_angle_alpha 90.000000
_cell_angle_beta 90.000000
_cell_angle_gamma 90.000000
_cell_volume 6351.262296
_symmetry_space_group_name_H-M "C M M M"
_symmetry_group_IT_number 65
_symmetry_cell_setting 'orthorhombic'
loop_
_space_group_symop_operation_xyz
x,y,z
-x,-y,z
x,-y,-z
-x,y,-z
-x,-y,-z
x,y,-z
-x,y,z
x,-y,z
1/2+x,1/2+y,z
1/2-x,1/2-y,z
1/2+x,1/2-y,-z
1/2-x,1/2+y,-z
1/2-x,1/2-y,-z
1/2+x,1/2+y,-z
1/2-x,1/2+y,z
1/2+x,1/2-y,z
loop_
_atom_site_type_symbol
_atom_site_label
_atom_site_fract_x
_atom_site_fract_y
_atom_site_fract_z
Si Si1 0.610254 0.320763 0.444528
Si Si2 0.697966 0.180647 0.393281
Si Si3 0.303497 0.682427 0.798605
Si Si4 0.804451 0.816415 0.000000
Si Si5 0.055450 0.181600 0.653370
Si Si6 0.356088 0.818174 0.294056
Si Si7 0.804169 0.316310 0.099891
O O1 0.590153 0.281109 0.500000
O O2 0.622991 0.500000 0.439502
O O3 0.660400 0.229671 0.436149
O O4 0.569948 0.273003 0.403527
O O5 0.750000 0.250000 0.405454
O O6 0.678359 0.237551 0.339458
O O7 0.703352 0.000000 0.393247
O O8 0.298707 0.500000 0.805139
O O9 0.250000 0.750000 0.787279
O O10 0.339912 0.723286 0.754169
O O11 0.328038 0.755752 0.848659
O O12 0.750000 0.750000 0.000000
O O13 0.830981 0.752349 0.050304
O O14 0.804002 0.000000 0.000000
O O15 0.088287 0.274906 0.692824
O O16 0.000000 0.233115 0.661968
O O17 0.062533 0.000000 0.662504
O O18 0.351779 0.000000 0.283710
O O19 0.804458 0.500000 0.097622
O O20 0.750000 0.250000 0.100907
#
# Coordination Sequence:
#
# PCOD8265119 Si02
#       7
#    16  16  16   8  16  16  16
#     4   9  18  32  49  69  92 116 143 176 213 256
#     4  10  20  32  47  65  87 116 148 180 215 257
#     4  11  20  30  44  64  90 120 153 189 228 268
#     4  10  16  24  36  52  76 110 153 196 233 266
#     4   9  18  33  52  72  92 114 141 175 218 267
#     4  10  20  33  48  67  89 115 147 183 222 265
#     4  10  17  26  38  55  80 113 153 193 230 266
#
# _framework density 16.374697999999999
#
# number of rings (size 3 to 8) (size 9 to 14) (size 15 to 20)
#    0.000    2.154    0.000    6.692    0.000    4.308 
#    0.000    1.538    0.000    0.000    0.000    4.308 
#    0.000    0.000    0.000    0.692    0.000   12.846 
#
# Total GULP energy -644692.264548 kJ/mol
# GULP energy per Si atom -12397.928164 kJ/mol
# Density = 1.633743 g / cm^3
# Si number density = 16.374698 Si / 1000 Ang^3
#
#
#
# Elastic Constant Matrix: (Units=GPa)
#
#
# Indices 1 2 3 4 5 6 
#
# 1 65.3483 19.1111 26.4297 0.0000 0.0000 0.0000
# 2 19.1111 94.5493 40.5993 0.0000 0.0000 0.0000
# 3 26.4297 40.5993 119.2363 0.0000 0.0000 0.0000
# 4 0.0000 0.0000 0.0000 26.7345 0.0000 0.0000
# 5 0.0000 0.0000 0.0000 0.0000 12.0872 0.0000
# 6 0.0000 0.0000 0.0000 0.0000 0.0000 19.6906
#
#
#
# Elastic Compliance Matrix: (Units=1/GPa)
#
#
# Indices 1 2 3 4 5 6 
#
# 1 0.017175 -0.002151 -0.003074 0.000000 0.000000 0.000000
# 2 -0.002151 0.012657 -0.003833 0.000000 0.000000 0.000000
# 3 -0.003074 -0.003833 0.010373 0.000000 0.000000 0.000000
# 4 0.000000 0.000000 0.000000 0.037405 0.000000 0.000000
# 5 0.000000 0.000000 0.000000 0.000000 0.082732 0.000000
# 6 0.000000 0.000000 0.000000 0.000000 0.000000 0.050786
#
#
# Mechanical properties :
#
#
# Convention : Reuss Voigt Hill
#
# Bulk Modulus (GPa) = 45.27301 50.15712 47.71506
# Shear Modulus (GPa) = 21.13195 24.56872 22.85034
#
# Velocity S-wave (km/s) = 3.59628 3.87771 3.73965
# Velocity P-wave (km/s) = 6.70466 7.12364 6.91732
#
# Compressibility (1/GPa) = 0.02208821
#
# Stress axis : x y z
#
# Youngs Moduli (GPa) = 58.22329 79.00668 96.40178
#
# Poissons Ratio (x) = 0.16998 0.29639
# Poissons Ratio (y) = 0.12526 0.36949
# Poissons Ratio (z) = 0.17901 0.30282
#
# Static dielectric constant tensor:
#      x y z
#    x 2.760630 0.000000 0.000000 
#    y 0.000000 3.163750 0.000000 
#    z 0.000000 0.000000 3.838400 
# 
# 
# High freq. dielectric constant tensor:
#      x y z
#    x 1.575790 0.000000 0.000000 
#    y 0.000000 1.644080 0.000000 
#    z 0.000000 0.000000 1.639460 
# 
# From -- ./inp_files/75974.got.cif
#   From: 2010.03.12/outbox.cif.g09.slc.cpg/sg65_38_cif.got.tgz:75974.got - 2010.04.10 20:52:16.
