data_PCOD8265924
_publ_section_title
;
Structure prediction by ZEFSAII (Michael W. Deem and Ramdas Pophale) SiO2 
 PCOD8265924
Probable space group: C M M M
;
_chemical_formula_sum "Si O2"
_cell_formula_units_Z 104
_cell_length_a 30.281094
_cell_length_b 10.619948
_cell_length_c 19.361898
_cell_angle_alpha 90.000000
_cell_angle_beta 90.000000
_cell_angle_gamma 90.000000
_cell_volume 6226.469707
_symmetry_space_group_name_H-M "C M M M"
_symmetry_group_IT_number 65
_symmetry_cell_setting 'orthorhombic'
loop_
_space_group_symop_operation_xyz
x,y,z
-x,-y,z
x,-y,-z
-x,y,-z
-x,-y,-z
x,y,-z
-x,y,z
x,-y,z
1/2+x,1/2+y,z
1/2-x,1/2-y,z
1/2+x,1/2-y,-z
1/2-x,1/2+y,-z
1/2-x,1/2-y,-z
1/2+x,1/2+y,-z
1/2-x,1/2+y,z
1/2+x,1/2-y,z
loop_
_atom_site_type_symbol
_atom_site_label
_atom_site_fract_x
_atom_site_fract_y
_atom_site_fract_z
Si Si1 0.782024 0.358812 0.582189
Si Si2 0.217557 0.857243 0.081945
Si Si3 0.449926 0.146618 0.687317
Si Si4 0.879100 0.144053 0.925041
Si Si5 0.618942 0.148218 0.423615
Si Si6 0.551023 0.760259 0.838460
Si Si7 0.552333 0.000000 0.922982
O O1 0.779200 0.361443 0.500000
O O2 0.769578 0.500000 0.609744
O O3 0.750000 0.250000 0.612817
O O4 0.831883 0.322379 0.604244
O O5 0.250000 0.750000 0.113666
O O6 0.168395 0.805589 0.101522
O O7 0.227091 0.000000 0.111330
O O8 0.222792 0.862427 0.000000
O O9 0.500000 0.165712 0.661138
O O10 0.417161 0.203336 0.629495
O O11 0.441752 0.223089 0.757253
O O12 0.440743 0.000000 0.702599
O O13 0.917454 0.152063 0.867427
O O14 0.870094 0.000000 0.939252
O O15 0.892733 0.205054 0.000000
O O16 0.611632 0.208119 0.500000
O O17 0.612090 0.000000 0.429595
O O18 0.500000 0.729352 0.854856
O O19 0.568723 0.880498 0.880409
O O20 0.500000 0.000000 0.925846
O O21 0.572622 0.000000 0.000000
#
# Coordination Sequence:
#
# PCOD8265924 Si02
#       7
#    16  16  16  16  16  16   8
#     4   8  13  22  38  62  91 118 144 178 219 263
#     4   8  14  27  45  64  88 114 142 181 227 270
#     4   9  16  27  42  60  86 119 151 182 221 268
#     4   9  18  31  46  65  88 113 143 184 228 263
#     4   8  14  24  40  64  90 115 146 185 222 257
#     4  10  18  29  43  61  87 118 149 179 218 269
#     4   9  16  26  40  58  83 113 141 177 220 256
#
# _framework density 16.702884000000001
#
# number of rings (size 3 to 8) (size 9 to 14) (size 15 to 20)
#    0.000    3.308    0.769    2.308    0.000    1.538 
#    1.385    2.308    0.000    1.846    0.000    4.308 
#    0.000    0.000    0.000    9.385    0.000    6.308 
#
# Total GULP energy -644200.049204 kJ/mol
# GULP energy per Si atom -12388.462485 kJ/mol
# Density = 1.666487 g / cm^3
# Si number density = 16.702884 Si / 1000 Ang^3
#
#
#
# Elastic Constant Matrix: (Units=GPa)
#
#
# Indices 1 2 3 4 5 6 
#
# 1 126.2923 43.6601 55.1670 0.0000 0.0000 0.0000
# 2 43.6601 48.4591 19.2763 0.0000 0.0000 0.0000
# 3 55.1670 19.2763 61.8626 0.0000 0.0000 0.0000
# 4 0.0000 0.0000 0.0000 10.6889 0.0000 0.0000
# 5 0.0000 0.0000 0.0000 0.0000 12.6227 0.0000
# 6 0.0000 0.0000 0.0000 0.0000 0.0000 24.8829
#
#
#
# Elastic Compliance Matrix: (Units=1/GPa)
#
#
# Indices 1 2 3 4 5 6 
#
# 1 0.016504 -0.010291 -0.011511 0.000000 0.000000 0.000000
# 2 -0.010291 0.029972 -0.000162 0.000000 0.000000 0.000000
# 3 -0.011511 -0.000162 0.026481 0.000000 0.000000 0.000000
# 4 0.000000 0.000000 0.000000 0.093555 0.000000 0.000000
# 5 0.000000 0.000000 0.000000 0.000000 0.079223 0.000000
# 6 0.000000 0.000000 0.000000 0.000000 0.000000 0.040188
#
#
# Mechanical properties :
#
#
# Convention : Reuss Voigt Hill
#
# Bulk Modulus (GPa) = 34.44902 52.53564 43.49233
# Shear Modulus (GPa) = 14.72637 17.53960 16.13299
#
# Velocity S-wave (km/s) = 2.97251 3.24403 3.11123
# Velocity P-wave (km/s) = 5.69653 6.74929 6.24513
#
# Compressibility (1/GPa) = 0.02902840
#
# Stress axis : x y z
#
# Youngs Moduli (GPa) = 60.59141 33.36444 37.76325
#
# Poissons Ratio (x) = 0.34334 0.43470
# Poissons Ratio (y) = 0.62352 0.00613
# Poissons Ratio (z) = 0.69748 0.00542
#
# Static dielectric constant tensor:
#      x y z
#    x 3.257720 0.000000 0.000000 
#    y 0.000000 3.035380 0.000000 
#    z 0.000000 0.000000 2.960870 
# 
# 
# High freq. dielectric constant tensor:
#      x y z
#    x 1.644790 0.000000 0.000000 
#    y 0.000000 1.611860 0.000000 
#    z 0.000000 0.000000 1.607970 
# 
# From -- ./inp_files/58204.got.cif
#   From: 2010.03.12/outbox.cif.g09.slc.cpg/sg65_30_cif.got.tgz:58204.got - 2010.04.10 20:52:16.
