data_PCOD8265354
_publ_section_title
;
Structure prediction by ZEFSAII (Michael W. Deem and Ramdas Pophale) SiO2 
 PCOD8265354
Probable space group: C M M M
;
_chemical_formula_sum "Si O2"
_cell_formula_units_Z 104
_cell_length_a 22.676585
_cell_length_b 29.526431
_cell_length_c 9.007999
_cell_angle_alpha 90.000000
_cell_angle_beta 90.000000
_cell_angle_gamma 90.000000
_cell_volume 6031.383400
_symmetry_space_group_name_H-M "C M M M"
_symmetry_group_IT_number 65
_symmetry_cell_setting 'orthorhombic'
loop_
_space_group_symop_operation_xyz
x,y,z
-x,-y,z
x,-y,-z
-x,y,-z
-x,-y,-z
x,y,-z
-x,y,z
x,-y,z
1/2+x,1/2+y,z
1/2-x,1/2-y,z
1/2+x,1/2-y,-z
1/2-x,1/2+y,-z
1/2-x,1/2-y,-z
1/2+x,1/2+y,-z
1/2-x,1/2+y,z
1/2+x,1/2-y,z
loop_
_atom_site_type_symbol
_atom_site_label
_atom_site_fract_x
_atom_site_fract_y
_atom_site_fract_z
Si Si1 0.851483 0.446870 0.670338
Si Si2 0.000000 0.050693 0.323949
Si Si3 0.570077 0.787288 0.332570
Si Si4 0.068167 0.622926 0.826660
Si Si5 0.219374 0.050074 0.675856
Si Si6 0.568458 0.303167 0.174639
Si Si7 0.610981 0.391245 0.676554
O O1 0.862129 0.432470 0.500000
O O2 0.862525 0.500000 0.690435
O O3 0.896697 0.421097 0.775360
O O4 0.785014 0.434223 0.721252
O O5 0.057674 0.077037 0.267890
O O6 0.000000 0.047814 0.500000
O O7 0.000000 0.000000 0.256499
O O8 0.594498 0.784783 0.500000
O O9 0.500000 0.788096 0.329544
O O10 0.594038 0.832868 0.255884
O O11 0.592618 0.743767 0.241986
O O12 0.000000 0.614953 0.785973
O O13 0.076928 0.630741 0.000000
O O14 0.215267 0.046497 0.500000
O O15 0.171482 0.085951 0.733890
O O16 0.205870 0.000000 0.741941
O O17 0.500000 0.310717 0.216219
O O18 0.606875 0.342791 0.246277
O O19 0.578295 0.302020 0.000000
O O20 0.609344 0.384618 0.500000
#
# Coordination Sequence:
#
# PCOD8265354 Si02
#       7
#    16   8  16  16  16  16  16
#     4   9  18  33  52  73  98 130 167 202 236 279
#     4   9  16  24  39  67  97 123 157 205 252 289
#     4   9  17  30  50  73  96 124 160 198 236 285
#     4  10  20  33  50  75 105 131 155 188 238 292
#     4   8  15  29  49  71  94 124 165 210 248 282
#     4  10  19  30  44  65  98 133 163 198 245 294
#     4  10  17  27  46  70  95 124 164 209 249 290
#
# _framework density 17.243143
#
# number of rings (size 3 to 8) (size 9 to 14) (size 15 to 20)
#    0.000    2.692    0.769    2.769    0.000    5.846 
#    0.000    2.308    0.000    4.154    0.000    6.462 
#    0.000    0.000    0.000    0.000    0.000    0.000 
#
# Total GULP energy -644769.211818 kJ/mol
# GULP energy per Si atom -12399.407920 kJ/mol
# Density = 1.720390 g / cm^3
# Si number density = 17.243143 Si / 1000 Ang^3
#
#
#
# Elastic Constant Matrix: (Units=GPa)
#
#
# Indices 1 2 3 4 5 6 
#
# 1 80.7298 59.8714 35.7812 0.0000 0.0000 0.0000
# 2 59.8714 118.6196 45.4780 0.0000 0.0000 0.0000
# 3 35.7812 45.4780 65.0523 0.0000 0.0000 0.0000
# 4 0.0000 0.0000 0.0000 11.0706 0.0000 0.0000
# 5 0.0000 0.0000 0.0000 0.0000 13.5318 0.0000
# 6 0.0000 0.0000 0.0000 0.0000 0.0000 20.1789
#
#
#
# Elastic Compliance Matrix: (Units=1/GPa)
#
#
# Indices 1 2 3 4 5 6 
#
# 1 0.021252 -0.008532 -0.005725 0.000000 0.000000 0.000000
# 2 -0.008532 0.014942 -0.005753 0.000000 0.000000 0.000000
# 3 -0.005725 -0.005753 0.022543 0.000000 0.000000 0.000000
# 4 0.000000 0.000000 0.000000 0.090329 0.000000 0.000000
# 5 0.000000 0.000000 0.000000 0.000000 0.073900 0.000000
# 6 0.000000 0.000000 0.000000 0.000000 0.000000 0.049557
#
#
# Mechanical properties :
#
#
# Convention : Reuss Voigt Hill
#
# Bulk Modulus (GPa) = 53.42558 60.74031 57.08294
# Shear Modulus (GPa) = 15.68470 17.17434 16.42952
#
# Velocity S-wave (km/s) = 3.01926 3.15939 3.09012
# Velocity P-wave (km/s) = 6.57309 6.97217 6.77557
#
# Compressibility (1/GPa) = 0.01871763
#
# Stress axis : x y z
#
# Youngs Moduli (GPa) = 47.05532 66.92402 44.35904
#
# Poissons Ratio (x) = 0.57097 0.25395
# Poissons Ratio (y) = 0.40146 0.25522
# Poissons Ratio (z) = 0.26938 0.38505
#
# Static dielectric constant tensor:
#      x y z
#    x 3.104620 0.000000 0.000000 
#    y 0.000000 3.334370 0.000000 
#    z 0.000000 0.000000 3.000830 
# 
# 
# High freq. dielectric constant tensor:
#      x y z
#    x 1.636510 0.000000 0.000000 
#    y 0.000000 1.674590 0.000000 
#    z 0.000000 0.000000 1.646990 
# 
# From -- ./inp_files/14702.got.cif
#   From: 2010.03.12/outbox.cif.g09.slc.cpg/sg65_8_cif.got.tgz:14702.got - 2010.04.10 20:52:16.
