data_PCOD8265796
_publ_section_title
;
Structure prediction by ZEFSAII (Michael W. Deem and Ramdas Pophale) SiO2 
 PCOD8265796
Probable space group: C M M M
;
_chemical_formula_sum "Si O2"
_cell_formula_units_Z 56
_cell_length_a 26.548271
_cell_length_b 7.791577
_cell_length_c 15.586410
_cell_angle_alpha 90.000000
_cell_angle_beta 90.000000
_cell_angle_gamma 90.000000
_cell_volume 3224.094073
_symmetry_space_group_name_H-M "C M M M"
_symmetry_group_IT_number 65
_symmetry_cell_setting 'orthorhombic'
loop_
_space_group_symop_operation_xyz
x,y,z
-x,-y,z
x,-y,-z
-x,y,-z
-x,-y,-z
x,y,-z
-x,y,z
x,-y,z
1/2+x,1/2+y,z
1/2-x,1/2-y,z
1/2+x,1/2-y,-z
1/2-x,1/2+y,-z
1/2-x,1/2-y,-z
1/2+x,1/2+y,-z
1/2-x,1/2+y,z
1/2+x,1/2-y,z
loop_
_atom_site_type_symbol
_atom_site_label
_atom_site_fract_x
_atom_site_fract_y
_atom_site_fract_z
Si Si1 0.559056 0.500000 0.600619
Si Si2 0.307917 0.804833 0.817153
Si Si3 0.692299 0.299902 0.000000
Si Si4 0.871916 0.706864 0.340378
Si Si5 0.192715 0.300722 0.500000
O O1 0.500000 0.500000 0.615624
O O2 0.572909 0.500000 0.500000
O O3 0.578756 0.323730 0.645406
O O4 0.250000 0.750000 0.810087
O O5 0.345268 0.724101 0.746952
O O6 0.308050 0.000000 0.793391
O O7 0.331429 0.772944 0.912126
O O8 0.750000 0.250000 0.000000
O O9 0.684929 0.500000 0.000000
O O10 0.884526 0.500000 0.341168
O O11 0.833860 0.767441 0.414692
O O12 0.186859 0.500000 0.500000
O O13 0.250000 0.250000 0.500000
#
# Coordination Sequence:
#
# PCOD8265796 Si02
#       5
#     8  16   8  16   8
#     4  11  24  40  62  81 101 143 187 234 284 319
#     4  10  19  31  49  75 109 150 182 217 264 316
#     4  10  18  28  44  70 106 147 186 221 253 305
#     4  10  22  37  53  79 110 139 180 224 271 327
#     4  10  20  32  48  75 109 146 174 208 257 314
#
# _framework density 17.369219999999999
#
# number of rings (size 3 to 8) (size 9 to 14) (size 15 to 20)
#    0.000    1.857    1.429    4.714    6.000    0.571 
#    0.000    1.429    0.000    0.000    0.000    2.000 
#    0.000    4.571    0.000    0.000    0.000    0.000 
#
# Total GULP energy -346896.591906 kJ/mol
# GULP energy per Si atom -12389.163997 kJ/mol
# Density = 1.732969 g / cm^3
# Si number density = 17.369220 Si / 1000 Ang^3
#
#
#
# Elastic Constant Matrix: (Units=GPa)
#
#
# Indices 1 2 3 4 5 6 
#
# 1 87.1148 35.7624 56.9256 0.0000 0.0000 0.0000
# 2 35.7624 65.8595 28.6586 0.0000 0.0000 0.0000
# 3 56.9256 28.6586 159.9684 0.0000 0.0000 0.0000
# 4 0.0000 0.0000 0.0000 48.0936 0.0000 0.0000
# 5 0.0000 0.0000 0.0000 0.0000 11.2194 0.0000
# 6 0.0000 0.0000 0.0000 0.0000 0.0000 26.8736
#
#
#
# Elastic Compliance Matrix: (Units=1/GPa)
#
#
# Indices 1 2 3 4 5 6 
#
# 1 0.017827 -0.007505 -0.004999 0.000000 0.000000 0.000000
# 2 -0.007505 0.019627 -0.000846 0.000000 0.000000 0.000000
# 3 -0.004999 -0.000846 0.008182 0.000000 0.000000 0.000000
# 4 0.000000 0.000000 0.000000 0.020793 0.000000 0.000000
# 5 0.000000 0.000000 0.000000 0.000000 0.089132 0.000000
# 6 0.000000 0.000000 0.000000 0.000000 0.000000 0.037211
#
#
# Mechanical properties :
#
#
# Convention : Reuss Voigt Hill
#
# Bulk Modulus (GPa) = 52.80868 61.73733 57.27301
# Shear Modulus (GPa) = 22.14524 30.01040 26.07782
#
# Velocity S-wave (km/s) = 3.57455 4.16118 3.87897
# Velocity P-wave (km/s) = 6.89247 7.66215 7.28748
#
# Compressibility (1/GPa) = 0.01893628
#
# Stress axis : x y z
#
# Youngs Moduli (GPa) = 56.09562 50.95046 122.22338
#
# Poissons Ratio (x) = 0.38237 0.61103
# Poissons Ratio (y) = 0.42098 0.10336
# Poissons Ratio (z) = 0.28044 0.04308
#
# Static dielectric constant tensor:
#      x y z
#    x 2.674070 0.000000 0.000000 
#    y 0.000000 3.608420 0.000000 
#    z 0.000000 0.000000 3.919450 
# 
# 
# High freq. dielectric constant tensor:
#      x y z
#    x 1.619600 0.000000 0.000000 
#    y 0.000000 1.684140 0.000000 
#    z 0.000000 0.000000 1.688280 
# 
# From -- ./inp_files/44996.got.cif
#   From: 2010.03.12/outbox.cif.g09.slc.cpg/sg65_23_cif.got.tgz:44996.got - 2010.04.10 20:52:16.
