data_PCOD8265976
_publ_section_title
;
Structure prediction by ZEFSAII (Michael W. Deem and Ramdas Pophale) SiO2 
 PCOD8265976
Probable space group: C M M M
;
_chemical_formula_sum "Si O2"
_cell_formula_units_Z 96
_cell_length_a 27.122918
_cell_length_b 8.903459
_cell_length_c 23.824587
_cell_angle_alpha 90.000000
_cell_angle_beta 90.000000
_cell_angle_gamma 90.000000
_cell_volume 5753.346824
_symmetry_space_group_name_H-M "C M M M"
_symmetry_group_IT_number 65
_symmetry_cell_setting 'orthorhombic'
loop_
_space_group_symop_operation_xyz
x,y,z
-x,-y,z
x,-y,-z
-x,y,-z
-x,-y,-z
x,y,-z
-x,y,z
x,-y,z
1/2+x,1/2+y,z
1/2-x,1/2-y,z
1/2+x,1/2-y,-z
1/2-x,1/2+y,-z
1/2-x,1/2-y,-z
1/2+x,1/2+y,-z
1/2-x,1/2+y,z
1/2+x,1/2-y,z
loop_
_atom_site_type_symbol
_atom_site_label
_atom_site_fract_x
_atom_site_fract_y
_atom_site_fract_z
Si Si1 0.143628 0.674711 0.222240
Si Si2 0.301631 0.673182 0.000000
Si Si3 0.892463 0.825118 0.606279
Si Si4 0.442956 0.822177 0.500000
Si Si5 0.802726 0.677471 0.336314
Si Si6 0.696624 0.323650 0.878573
Si Si7 0.443658 0.672635 0.722239
O O1 0.144910 0.500000 0.209087
O O2 0.179912 0.717475 0.273332
O O3 0.159122 0.762267 0.166930
O O4 0.088202 0.722831 0.237052
O O5 0.250000 0.750000 0.000000
O O6 0.327614 0.714266 0.059572
O O7 0.289490 0.500000 0.000000
O O8 0.916685 0.744387 0.554002
O O9 0.839894 0.749430 0.618892
O O10 0.929418 0.799803 0.657855
O O11 0.884141 0.000000 0.593235
O O12 0.500000 0.773270 0.500000
O O13 0.437076 0.000000 0.500000
O O14 0.800465 0.500000 0.345921
O O15 0.750000 0.750000 0.346855
O O16 0.703295 0.500000 0.869481
O O17 0.750000 0.250000 0.871012
O O18 0.500000 0.719942 0.730576
O O19 0.434360 0.500000 0.738760
#
# Coordination Sequence:
#
# PCOD8265976 Si02
#       7
#    16   8  16   8  16  16  16
#     4  10  20  31  46  71  99 128 162 197 236 284
#     4   8  16  28  42  62  89 124 161 196 236 279
#     4  10  20  35  55  77 100 127 161 198 237 283
#     4  11  23  37  54  77 104 131 159 195 239 285
#     4  10  20  34  51  72 100 132 164 198 237 282
#     4  10  18  29  45  66  95 128 162 199 237 280
#     4   9  18  33  52  73  97 125 157 196 241 285
#
# _framework density 16.685941
#
# number of rings (size 3 to 8) (size 9 to 14) (size 15 to 20)
#    0.000    2.250    0.000    3.250    0.000    6.333 
#    0.000    0.417    0.000    0.000    0.000    0.583 
#    0.000    4.667    0.000    0.000    0.000    0.000 
#
# Total GULP energy -595106.467188 kJ/mol
# GULP energy per Si atom -12398.051400 kJ/mol
# Density = 1.664796 g / cm^3
# Si number density = 16.685941 Si / 1000 Ang^3
#
#
#
# Elastic Constant Matrix: (Units=GPa)
#
#
# Indices 1 2 3 4 5 6 
#
# 1 115.8653 52.4775 64.7529 0.0000 0.0000 0.0000
# 2 52.4775 85.2938 62.1057 0.0000 0.0000 0.0000
# 3 64.7529 62.1057 128.3826 0.0000 0.0000 0.0000
# 4 0.0000 0.0000 0.0000 27.0041 0.0000 0.0000
# 5 0.0000 0.0000 0.0000 0.0000 13.8323 0.0000
# 6 0.0000 0.0000 0.0000 0.0000 0.0000 29.7254
#
#
#
# Elastic Compliance Matrix: (Units=1/GPa)
#
#
# Indices 1 2 3 4 5 6 
#
# 1 0.013314 -0.005098 -0.004249 0.000000 0.000000 0.000000
# 2 -0.005098 0.020051 -0.007129 0.000000 0.000000 0.000000
# 3 -0.004249 -0.007129 0.013381 0.000000 0.000000 0.000000
# 4 0.000000 0.000000 0.000000 0.037031 0.000000 0.000000
# 5 0.000000 0.000000 0.000000 0.000000 0.072294 0.000000
# 6 0.000000 0.000000 0.000000 0.000000 0.000000 0.033641
#
#
# Mechanical properties :
#
#
# Convention : Reuss Voigt Hill
#
# Bulk Modulus (GPa) = 72.48953 76.46823 74.47888
# Shear Modulus (GPa) = 22.00086 24.12607 23.06347
#
# Velocity S-wave (km/s) = 3.63509 3.80661 3.72184
# Velocity P-wave (km/s) = 7.82025 8.07761 7.94997
#
# Compressibility (1/GPa) = 0.01379510
#
# Stress axis : x y z
#
# Youngs Moduli (GPa) = 75.10694 49.87222 74.73213
#
# Poissons Ratio (x) = 0.25423 0.31757
# Poissons Ratio (y) = 0.38286 0.53275
# Poissons Ratio (z) = 0.31916 0.35553
#
# Static dielectric constant tensor:
#      x y z
#    x 3.016750 0.000000 0.000000 
#    y 0.000000 3.260100 0.000000 
#    z 0.000000 0.000000 3.438710 
# 
# 
# High freq. dielectric constant tensor:
#      x y z
#    x 1.624990 0.000000 0.000000 
#    y 0.000000 1.659450 0.000000 
#    z 0.000000 0.000000 1.641680 
# 
# From -- ./inp_files/71699.got.cif
#   From: 2010.03.12/outbox.cif.g09.slc.cpg/sg65_36_cif.got.tgz:71699.got - 2010.04.10 20:52:16.
