data_PCOD8265720
_publ_section_title
;
Structure prediction by ZEFSAII (Michael W. Deem and Ramdas Pophale) SiO2 
 PCOD8265720
Probable space group: C M M M
;
_chemical_formula_sum "Si O2"
_cell_formula_units_Z 104
_cell_length_a 27.242292
_cell_length_b 8.709425
_cell_length_c 26.974489
_cell_angle_alpha 90.000000
_cell_angle_beta 90.000000
_cell_angle_gamma 90.000000
_cell_volume 6400.094013
_symmetry_space_group_name_H-M "C M M M"
_symmetry_group_IT_number 65
_symmetry_cell_setting 'orthorhombic'
loop_
_space_group_symop_operation_xyz
x,y,z
-x,-y,z
x,-y,-z
-x,y,-z
-x,-y,-z
x,y,-z
-x,y,z
x,-y,z
1/2+x,1/2+y,z
1/2-x,1/2-y,z
1/2+x,1/2-y,-z
1/2-x,1/2+y,-z
1/2-x,1/2-y,-z
1/2+x,1/2+y,-z
1/2-x,1/2+y,z
1/2+x,1/2-y,z
loop_
_atom_site_type_symbol
_atom_site_label
_atom_site_fract_x
_atom_site_fract_y
_atom_site_fract_z
Si Si1 0.944083 0.316150 0.000000
Si Si2 0.852618 0.180433 0.246981
Si Si3 0.897390 0.319441 0.099820
Si Si4 0.444251 0.179474 0.200829
Si Si5 0.803125 0.679749 0.552286
Si Si6 0.695733 0.182106 0.340126
Si Si7 0.698380 0.818026 0.153776
O O1 0.916284 0.247063 0.048254
O O2 0.943381 0.500000 0.000000
O O3 0.000000 0.257005 0.000000
O O4 0.909049 0.223695 0.236427
O O5 0.840737 0.240157 0.301536
O O6 0.815648 0.258764 0.208196
O O7 0.845133 0.000000 0.243661
O O8 0.896565 0.500000 0.093076
O O9 0.934736 0.273551 0.143725
O O10 0.842639 0.262220 0.114108
O O11 0.500000 0.219088 0.214826
O O12 0.432367 0.000000 0.208131
O O13 0.830915 0.728038 0.500000
O O14 0.795849 0.500000 0.552777
O O15 0.750000 0.750000 0.550938
O O16 0.827213 0.725764 0.605215
O O17 0.750000 0.250000 0.333498
O O18 0.697838 0.000000 0.331407
O O19 0.750000 0.750000 0.136146
O O20 0.701580 0.000000 0.156179
#
# Coordination Sequence:
#
# PCOD8265720 Si02
#       7
#     8  16  16  16  16  16  16
#     4   9  14  22  41  68  93 113 137 173 216 259
#     4  11  21  31  44  64  89 115 147 183 219 260
#     4   8  15  26  42  66  92 115 140 173 211 255
#     4   9  17  31  49  67  89 116 144 175 215 260
#     4   8  14  24  38  56  79 110 146 180 213 251
#     4  10  18  28  42  61  88 119 150 183 219 256
#     4  10  19  32  47  63  86 116 150 183 219 259
#
# _framework density 16.249762
#
# number of rings (size 3 to 8) (size 9 to 14) (size 15 to 20)
#    0.000    2.692    0.000    4.154    0.000    2.769 
#    0.000    0.385    0.000    0.000    0.000   12.923 
#    0.000   20.923    0.000    7.077    0.000    2.000 
#
# Total GULP energy -644278.575996 kJ/mol
# GULP energy per Si atom -12389.972615 kJ/mol
# Density = 1.621278 g / cm^3
# Si number density = 16.249762 Si / 1000 Ang^3
#
#
#
# Elastic Constant Matrix: (Units=GPa)
#
#
# Indices 1 2 3 4 5 6 
#
# 1 89.8573 25.0617 54.4578 0.0000 0.0000 0.0000
# 2 25.0617 51.8353 27.9946 0.0000 0.0000 0.0000
# 3 54.4578 27.9946 144.8001 0.0000 0.0000 0.0000
# 4 0.0000 0.0000 0.0000 11.4641 0.0000 0.0000
# 5 0.0000 0.0000 0.0000 0.0000 16.6917 0.0000
# 6 0.0000 0.0000 0.0000 0.0000 0.0000 21.3868
#
#
#
# Elastic Compliance Matrix: (Units=1/GPa)
#
#
# Indices 1 2 3 4 5 6 
#
# 1 0.015426 -0.004829 -0.004868 0.000000 0.000000 0.000000
# 2 -0.004829 0.023053 -0.002641 0.000000 0.000000 0.000000
# 3 -0.004868 -0.002641 0.009247 0.000000 0.000000 0.000000
# 4 0.000000 0.000000 0.000000 0.087229 0.000000 0.000000
# 5 0.000000 0.000000 0.000000 0.000000 0.059910 0.000000
# 6 0.000000 0.000000 0.000000 0.000000 0.000000 0.046758
#
#
# Mechanical properties :
#
#
# Convention : Reuss Voigt Hill
#
# Bulk Modulus (GPa) = 43.38283 55.72454 49.55368
# Shear Modulus (GPa) = 18.24940 21.84041 20.04490
#
# Velocity S-wave (km/s) = 3.35484 3.67010 3.51600
# Velocity P-wave (km/s) = 6.46236 7.23370 6.85888
#
# Compressibility (1/GPa) = 0.02305060
#
# Stress axis : x y z
#
# Youngs Moduli (GPa) = 64.82645 43.37851 108.13924
#
# Poissons Ratio (x) = 0.20949 0.52640
# Poissons Ratio (y) = 0.31306 0.28556
# Poissons Ratio (z) = 0.31556 0.11455
#
# Static dielectric constant tensor:
#      x y z
#    x 2.958400 0.000000 0.000000 
#    y 0.000000 2.881300 0.000000 
#    z 0.000000 0.000000 3.617700 
# 
# 
# High freq. dielectric constant tensor:
#      x y z
#    x 1.594570 0.000000 0.000000 
#    y 0.000000 1.612740 0.000000 
#    z 0.000000 0.000000 1.631160 
# 
# From -- ./inp_files/75987.got.cif
#   From: 2010.03.12/outbox.cif.g09.slc.cpg/sg65_38_cif.got.tgz:75987.got - 2010.04.10 20:52:16.
