data_PCOD8265918
_publ_section_title
;
Structure prediction by ZEFSAII (Michael W. Deem and Ramdas Pophale) SiO2 
 PCOD8265918
Probable space group: C M M M
;
_chemical_formula_sum "Si O2"
_cell_formula_units_Z 104
_cell_length_a 28.896607
_cell_length_b 17.433776
_cell_length_c 13.651360
_cell_angle_alpha 90.000000
_cell_angle_beta 90.000000
_cell_angle_gamma 90.000000
_cell_volume 6877.240826
_symmetry_space_group_name_H-M "C M M M"
_symmetry_group_IT_number 65
_symmetry_cell_setting 'orthorhombic'
loop_
_space_group_symop_operation_xyz
x,y,z
-x,-y,z
x,-y,-z
-x,y,-z
-x,-y,-z
x,y,-z
-x,y,z
x,-y,z
1/2+x,1/2+y,z
1/2-x,1/2-y,z
1/2+x,1/2-y,-z
1/2-x,1/2+y,-z
1/2-x,1/2-y,-z
1/2+x,1/2+y,-z
1/2-x,1/2+y,z
1/2+x,1/2-y,z
loop_
_atom_site_type_symbol
_atom_site_label
_atom_site_fract_x
_atom_site_fract_y
_atom_site_fract_z
Si Si1 0.710919 0.913321 0.614741
Si Si2 0.672078 0.412548 0.888026
Si Si3 0.146628 0.275823 0.613768
Si Si4 0.418871 0.587522 0.238879
Si Si5 0.000000 0.091278 0.893606
Si Si6 0.947723 0.210178 0.386450
Si Si7 0.282869 0.679274 0.731222
O O1 0.720325 0.910660 0.500000
O O2 0.667357 0.858962 0.643083
O O3 0.758115 0.884357 0.664282
O O4 0.699583 0.000000 0.649569
O O5 0.689837 0.500000 0.888641
O O6 0.629538 0.403770 0.814506
O O7 0.709684 0.357003 0.839095
O O8 0.660758 0.387048 0.000000
O O9 0.157421 0.258130 0.500000
O O10 0.090757 0.277094 0.632891
O O11 0.170427 0.208458 0.677704
O O12 0.429260 0.500000 0.267281
O O13 0.455088 0.621136 0.161499
O O14 0.425776 0.634864 0.337655
O O15 0.000000 0.000000 0.902316
O O16 0.000000 0.129678 0.000000
O O17 0.950850 0.190710 0.500000
O O18 0.000000 0.231967 0.348581
O O19 0.250000 0.750000 0.749891
#
# Coordination Sequence:
#
# PCOD8265918 Si02
#       7
#    16  16  16  16   8  16  16
#     4   9  17  29  47  70  92 114 144 182 219 259
#     4  10  20  32  44  59  84 117 151 185 219 257
#     4   9  17  30  46  65  91 119 145 176 218 263
#     4  10  18  29  43  59  81 113 149 182 216 254
#     4   9  16  26  41  59  77 103 143 184 216 246
#     4  10  19  30  45  64  87 117 148 177 217 269
#     4  10  18  29  47  67  89 116 146 178 220 263
#
# _framework density 15.122344
#
# number of rings (size 3 to 8) (size 9 to 14) (size 15 to 20)
#    0.000    2.385    2.308    1.385    0.000    4.308 
#    0.000    0.769    0.000    0.462    0.000    3.231 
#    0.000    0.000    0.000    0.000    0.000    6.308 
#
# Total GULP energy -644338.417209 kJ/mol
# GULP energy per Si atom -12391.123408 kJ/mol
# Density = 1.508792 g / cm^3
# Si number density = 15.122344 Si / 1000 Ang^3
#
#
#
# Elastic Constant Matrix: (Units=GPa)
#
#
# Indices 1 2 3 4 5 6 
#
# 1 85.6114 39.7210 28.7813 0.0000 0.0000 0.0000
# 2 39.7210 78.0496 34.7852 0.0000 0.0000 0.0000
# 3 28.7813 34.7852 50.6416 0.0000 0.0000 0.0000
# 4 0.0000 0.0000 0.0000 20.1768 0.0000 0.0000
# 5 0.0000 0.0000 0.0000 0.0000 23.9094 0.0000
# 6 0.0000 0.0000 0.0000 0.0000 0.0000 12.3256
#
#
#
# Elastic Compliance Matrix: (Units=1/GPa)
#
#
# Indices 1 2 3 4 5 6 
#
# 1 0.016154 -0.005951 -0.005093 0.000000 0.000000 0.000000
# 2 -0.005951 0.020658 -0.010807 0.000000 0.000000 0.000000
# 3 -0.005093 -0.010807 0.030065 0.000000 0.000000 0.000000
# 4 0.000000 0.000000 0.000000 0.049562 0.000000 0.000000
# 5 0.000000 0.000000 0.000000 0.000000 0.041825 0.000000
# 6 0.000000 0.000000 0.000000 0.000000 0.000000 0.081132
#
#
# Mechanical properties :
#
#
# Convention : Reuss Voigt Hill
#
# Bulk Modulus (GPa) = 43.15329 46.76419 44.95874
# Shear Modulus (GPa) = 17.19264 18.68337 17.93800
#
# Velocity S-wave (km/s) = 3.37546 3.51875 3.44785
# Velocity P-wave (km/s) = 6.61738 6.89202 6.75609
#
# Compressibility (1/GPa) = 0.02317320
#
# Stress axis : x y z
#
# Youngs Moduli (GPa) = 61.90377 48.40817 33.26179
#
# Poissons Ratio (x) = 0.28809 0.16940
# Poissons Ratio (y) = 0.36841 0.35947
# Poissons Ratio (z) = 0.31528 0.52316
#
# Static dielectric constant tensor:
#      x y z
#    x 3.366040 0.000000 0.000000 
#    y 0.000000 2.829000 0.000000 
#    z 0.000000 0.000000 2.934540 
# 
# 
# High freq. dielectric constant tensor:
#      x y z
#    x 1.581850 0.000000 0.000000 
#    y 0.000000 1.552830 0.000000 
#    z 0.000000 0.000000 1.574260 
# 
# From -- ./inp_files/27493.got.cif
#   From: 2010.03.12/outbox.cif.g09.slc.cpg/sg65_14_cif.got.tgz:27493.got - 2010.04.10 20:52:16.
