data_PCOD8265339
_publ_section_title
;
Structure prediction by ZEFSAII (Michael W. Deem and Ramdas Pophale) SiO2 
 PCOD8265339
Probable space group: C M M M
;
_chemical_formula_sum "Si O2"
_cell_formula_units_Z 80
_cell_length_a 9.181242
_cell_length_b 28.490205
_cell_length_c 20.918050
_cell_angle_alpha 90.000000
_cell_angle_beta 90.000000
_cell_angle_gamma 90.000000
_cell_volume 5471.648692
_symmetry_space_group_name_H-M "C M M M"
_symmetry_group_IT_number 65
_symmetry_cell_setting 'orthorhombic'
loop_
_space_group_symop_operation_xyz
x,y,z
-x,-y,z
x,-y,-z
-x,y,-z
-x,-y,-z
x,y,-z
-x,y,z
x,-y,z
1/2+x,1/2+y,z
1/2-x,1/2-y,z
1/2+x,1/2-y,-z
1/2-x,1/2+y,-z
1/2-x,1/2-y,-z
1/2+x,1/2+y,-z
1/2-x,1/2+y,z
1/2+x,1/2-y,z
loop_
_atom_site_type_symbol
_atom_site_label
_atom_site_fract_x
_atom_site_fract_y
_atom_site_fract_z
Si Si1 0.837259 0.443932 0.500000
Si Si2 0.661833 0.444168 0.379538
Si Si3 0.329592 0.202226 0.074304
Si Si4 0.826736 0.052217 0.760482
Si Si5 0.326761 0.612800 0.120429
Si Si6 0.327566 0.552362 0.000000
O O1 0.832848 0.500000 0.500000
O O2 0.760968 0.423718 0.436283
O O3 0.000000 0.424481 0.500000
O O4 0.500000 0.423363 0.388911
O O5 0.655206 0.500000 0.383309
O O6 0.725903 0.430055 0.309682
O O7 0.500000 0.206526 0.090000
O O8 0.250000 0.250000 0.093917
O O9 0.256930 0.161780 0.116536
O O10 0.302294 0.190827 0.000000
O O11 0.773885 0.088414 0.814167
O O12 0.000000 0.049151 0.760054
O O13 0.764513 0.000000 0.775323
O O14 0.500000 0.621456 0.118194
O O15 0.274223 0.579625 0.062721
O O16 0.259844 0.500000 0.000000
O O17 0.500000 0.548695 0.000000
#
# Coordination Sequence:
#
# PCOD8265339 Si02
#       6
#     8  16  16  16  16   8
#     4   9  15  21  31  49  71  95 128 171 210 239
#     4   8  13  22  35  50  70 100 136 169 199 231
#     4  10  20  33  48  63  80 100 128 167 212 258
#     4   8  14  24  39  59  82 109 142 174 199 232
#     4  10  17  27  44  64  84 106 135 170 207 243
#     4   9  16  24  38  61  84 107 138 171 198 229
#
# _framework density 14.620823
#
# number of rings (size 3 to 8) (size 9 to 14) (size 15 to 20)
#    0.000    3.000    1.000    2.700    0.000    4.400 
#    0.000    1.000    0.000    4.200    0.000    0.000 
#    0.000    0.000    0.000    0.900    0.000   10.100 
#
# Total GULP energy -495807.807170 kJ/mol
# GULP energy per Si atom -12395.195179 kJ/mol
# Density = 1.458754 g / cm^3
# Si number density = 14.620823 Si / 1000 Ang^3
#
#
#
# Elastic Constant Matrix: (Units=GPa)
#
#
# Indices 1 2 3 4 5 6 
#
# 1 61.5910 35.6404 46.0982 0.0000 0.0000 0.0000
# 2 35.6404 83.0339 54.0903 0.0000 0.0000 0.0000
# 3 46.0982 54.0903 136.4148 0.0000 0.0000 0.0000
# 4 0.0000 0.0000 0.0000 5.5552 0.0000 0.0000
# 5 0.0000 0.0000 0.0000 0.0000 9.6126 0.0000
# 6 0.0000 0.0000 0.0000 0.0000 0.0000 16.9244
#
#
#
# Elastic Compliance Matrix: (Units=1/GPa)
#
#
# Indices 1 2 3 4 5 6 
#
# 1 0.024320 -0.006856 -0.005500 0.000000 0.000000 0.000000
# 2 -0.006856 0.018170 -0.004888 0.000000 0.000000 0.000000
# 3 -0.005500 -0.004888 0.011127 0.000000 0.000000 0.000000
# 4 0.000000 0.000000 0.000000 0.180011 0.000000 0.000000
# 5 0.000000 0.000000 0.000000 0.000000 0.104030 0.000000
# 6 0.000000 0.000000 0.000000 0.000000 0.000000 0.059086
#
#
# Mechanical properties :
#
#
# Convention : Reuss Voigt Hill
#
# Bulk Modulus (GPa) = 52.27450 61.41082 56.84266
# Shear Modulus (GPa) = 11.42571 16.09915 13.76243
#
# Velocity S-wave (km/s) = 2.79851 3.32190 3.07137
# Velocity P-wave (km/s) = 6.80245 7.53703 7.17914
#
# Compressibility (1/GPa) = 0.01912979
#
# Stress axis : x y z
#
# Youngs Moduli (GPa) = 41.11875 55.03536 89.86966
#
# Poissons Ratio (x) = 0.37732 0.49427
# Poissons Ratio (y) = 0.28191 0.43927
# Poissons Ratio (z) = 0.22615 0.26901
#
# Static dielectric constant tensor:
#      x y z
#    x 2.670030 0.000000 0.000000 
#    y 0.000000 2.576300 0.000000 
#    z 0.000000 0.000000 3.096280 
# 
# 
# High freq. dielectric constant tensor:
#      x y z
#    x 1.537880 0.000000 0.000000 
#    y 0.000000 1.514570 0.000000 
#    z 0.000000 0.000000 1.559520 
# 
# From -- ./inp_files/60070.got.cif
#   From: 2010.03.12/outbox.cif.g09.slc.cpg/sg65_31_cif.got.tgz:60070.got - 2010.04.10 20:52:16.
