data_PCOD8265113
_publ_section_title
;
Structure prediction by ZEFSAII (Michael W. Deem and Ramdas Pophale) SiO2 
 PCOD8265113
Probable space group: C M M M
;
_chemical_formula_sum "Si O2"
_cell_formula_units_Z 72
_cell_length_a 18.805477
_cell_length_b 8.816012
_cell_length_c 23.101778
_cell_angle_alpha 90.000000
_cell_angle_beta 90.000000
_cell_angle_gamma 90.000000
_cell_volume 3830.027855
_symmetry_space_group_name_H-M "C M M M"
_symmetry_group_IT_number 65
_symmetry_cell_setting 'orthorhombic'
loop_
_space_group_symop_operation_xyz
x,y,z
-x,-y,z
x,-y,-z
-x,y,-z
-x,-y,-z
x,y,-z
-x,y,z
x,-y,z
1/2+x,1/2+y,z
1/2-x,1/2-y,z
1/2+x,1/2-y,-z
1/2-x,1/2+y,-z
1/2-x,1/2-y,-z
1/2+x,1/2+y,-z
1/2-x,1/2+y,z
1/2+x,1/2-y,z
loop_
_atom_site_type_symbol
_atom_site_label
_atom_site_fract_x
_atom_site_fract_y
_atom_site_fract_z
Si Si1 0.676358 0.178206 0.933466
Si Si2 0.329198 0.679535 0.500000
Si Si3 0.417185 0.323025 0.160958
Si Si4 0.173783 0.324781 0.611499
Si Si5 0.172778 0.676278 0.260449
O O1 0.750000 0.250000 0.911141
O O2 0.611853 0.244477 0.896768
O O3 0.681248 0.000000 0.924213
O O4 0.662342 0.222246 0.000000
O O5 0.328090 0.500000 0.500000
O O6 0.250000 0.750000 0.500000
O O7 0.368250 0.740349 0.441247
O O8 0.500000 0.287142 0.164569
O O9 0.400765 0.500000 0.157486
O O10 0.381578 0.255798 0.217876
O O11 0.181624 0.500000 0.594807
O O12 0.250000 0.250000 0.616992
O O13 0.138855 0.304096 0.674923
O O14 0.180494 0.500000 0.244429
O O15 0.250000 0.750000 0.254453
#
# Coordination Sequence:
#
# PCOD8265113 Si02
#       5
#    16   8  16  16  16
#     4  10  21  38  61  86 111 140 174 213 256 305
#     4  10  16  22  36  60  93 130 163 202 253 305
#     4  11  24  39  55  77 107 142 177 216 262 310
#     4   9  16  26  41  64  94 128 165 206 254 305
#     4  10  20  34  54  77 103 137 176 219 263 311
#
# _framework density 18.798819999999999
#
# number of rings (size 3 to 8) (size 9 to 14) (size 15 to 20)
#    0.000    2.000    0.000    5.667    0.000    6.222 
#    0.000    2.222    0.000    0.000    0.000    0.778 
#    0.000    6.222    0.000    0.000    0.000    0.000 
#
# Total GULP energy -446258.821779 kJ/mol
# GULP energy per Si atom -12396.078383 kJ/mol
# Density = 1.875603 g / cm^3
# Si number density = 18.798820 Si / 1000 Ang^3
#
#
#
# Elastic Constant Matrix: (Units=GPa)
#
#
# Indices 1 2 3 4 5 6 
#
# 1 67.9088 49.0331 55.2708 0.0000 0.0000 0.0000
# 2 49.0331 133.4924 67.0065 0.0000 0.0000 0.0000
# 3 55.2708 67.0065 142.6779 0.0000 0.0000 0.0000
# 4 0.0000 0.0000 0.0000 36.2499 0.0000 0.0000
# 5 0.0000 0.0000 0.0000 0.0000 2.0296 0.0000
# 6 0.0000 0.0000 0.0000 0.0000 0.0000 23.9590
#
#
#
# Elastic Compliance Matrix: (Units=1/GPa)
#
#
# Indices 1 2 3 4 5 6 
#
# 1 0.024226 -0.005479 -0.006811 0.000000 0.000000 0.000000
# 2 -0.005479 0.011041 -0.003063 0.000000 0.000000 0.000000
# 3 -0.006811 -0.003063 0.011086 0.000000 0.000000 0.000000
# 4 0.000000 0.000000 0.000000 0.027586 0.000000 0.000000
# 5 0.000000 0.000000 0.000000 0.000000 0.492707 0.000000
# 6 0.000000 0.000000 0.000000 0.000000 0.000000 0.041738
#
#
# Mechanical properties :
#
#
# Convention : Reuss Voigt Hill
#
# Bulk Modulus (GPa) = 63.91510 76.29998 70.10754
# Shear Modulus (GPa) = 7.76030 23.96562 15.86296
#
# Velocity S-wave (km/s) = 2.03397 3.57437 2.90802
# Velocity P-wave (km/s) = 6.29201 7.59675 6.97496
#
# Compressibility (1/GPa) = 0.01564576
#
# Stress axis : x y z
#
# Youngs Moduli (GPa) = 41.27853 90.57159 90.20673
#
# Poissons Ratio (x) = 0.49628 0.61442
# Poissons Ratio (y) = 0.22618 0.27627
# Poissons Ratio (z) = 0.28116 0.27739
#
# Static dielectric constant tensor:
#      x y z
#    x 2.965100 0.000000 0.000000 
#    y 0.000000 3.598920 0.000000 
#    z 0.000000 0.000000 4.438460 
# 
# 
# High freq. dielectric constant tensor:
#      x y z
#    x 1.670330 0.000000 0.000000 
#    y 0.000000 1.752480 0.000000 
#    z 0.000000 0.000000 1.761360 
# 
# From -- ./inp_files/67105.got.cif
#   From: 2010.03.12/outbox.cif.g09.slc.cpg/sg65_34_cif.got.tgz:67105.got - 2010.04.10 20:52:16.
