data_PCOD8265512
_publ_section_title
;
Structure prediction by ZEFSAII (Michael W. Deem and Ramdas Pophale) SiO2 
 PCOD8265512
Probable space group: C M M M
;
_chemical_formula_sum "Si O2"
_cell_formula_units_Z 88
_cell_length_a 23.710097
_cell_length_b 8.970427
_cell_length_c 23.409029
_cell_angle_alpha 90.000000
_cell_angle_beta 90.000000
_cell_angle_gamma 90.000000
_cell_volume 4978.859222
_symmetry_space_group_name_H-M "C M M M"
_symmetry_group_IT_number 65
_symmetry_cell_setting 'orthorhombic'
loop_
_space_group_symop_operation_xyz
x,y,z
-x,-y,z
x,-y,-z
-x,y,-z
-x,-y,-z
x,y,-z
-x,y,z
x,-y,z
1/2+x,1/2+y,z
1/2-x,1/2-y,z
1/2+x,1/2-y,-z
1/2-x,1/2+y,-z
1/2-x,1/2-y,-z
1/2+x,1/2+y,-z
1/2-x,1/2+y,z
1/2+x,1/2-y,z
loop_
_atom_site_type_symbol
_atom_site_label
_atom_site_fract_x
_atom_site_fract_y
_atom_site_fract_z
Si Si1 0.622092 0.827247 0.232274
Si Si2 0.810434 0.324763 0.876846
Si Si3 0.500000 0.831036 0.268767
Si Si4 0.616652 0.322878 0.436614
Si Si5 0.189852 0.823359 0.668433
Si Si6 0.190764 0.673428 0.000000
Si Si7 0.500000 0.676564 0.612639
O O1 0.646573 0.770481 0.171845
O O2 0.554903 0.801959 0.229905
O O3 0.647728 0.727988 0.282354
O O4 0.637317 0.000000 0.243582
O O5 0.800421 0.500000 0.872197
O O6 0.750000 0.250000 0.867185
O O7 0.838427 0.282541 0.939267
O O8 0.500000 0.720160 0.321575
O O9 0.500000 0.000000 0.292461
O O10 0.631867 0.263128 0.500000
O O11 0.613471 0.500000 0.436250
O O12 0.664478 0.269147 0.392333
O O13 0.555614 0.258243 0.418285
O O14 0.250000 0.750000 0.677958
O O15 0.196224 0.000000 0.671113
O O16 0.250000 0.750000 0.000000
O O17 0.202366 0.500000 0.000000
O O18 0.500000 0.500000 0.609056
#
# Coordination Sequence:
#
# PCOD8265512 Si02
#       7
#    16  16   8  16  16   8   8
#     4  10  20  34  51  72  99 131 164 199 244 292
#     4   9  17  29  47  71  98 128 161 197 239 284
#     4  10  20  33  51  72 100 130 157 198 248 292
#     4   9  18  32  52  76  98 123 157 199 245 291
#     4  11  22  35  52  73  99 129 163 201 242 291
#     4   8  14  26  44  67  95 125 159 198 235 276
#     4  10  17  32  56  78  95 119 160 204 244 289
#
# _framework density 17.674731000000001
#
# number of rings (size 3 to 8) (size 9 to 14) (size 15 to 20)
#    0.000    2.364    1.818    1.364    0.000    3.636 
#    0.000    0.000    0.000    5.455    0.000    3.818 
#    0.000    0.000    0.000   15.818    0.000   12.000 
#
# Total GULP energy -545311.472029 kJ/mol
# GULP energy per Si atom -12393.442546 kJ/mol
# Density = 1.763450 g / cm^3
# Si number density = 17.674731 Si / 1000 Ang^3
#
#
#
# Elastic Constant Matrix: (Units=GPa)
#
#
# Indices 1 2 3 4 5 6 
#
# 1 112.6272 24.0200 60.6001 0.0000 0.0000 0.0000
# 2 24.0200 28.8216 25.7963 0.0000 0.0000 0.0000
# 3 60.6001 25.7963 162.3300 0.0000 0.0000 0.0000
# 4 0.0000 0.0000 0.0000 20.6779 0.0000 0.0000
# 5 0.0000 0.0000 0.0000 0.0000 24.7197 0.0000
# 6 0.0000 0.0000 0.0000 0.0000 0.0000 15.1202
#
#
#
# Elastic Compliance Matrix: (Units=1/GPa)
#
#
# Indices 1 2 3 4 5 6 
#
# 1 0.012251 -0.007131 -0.003440 0.000000 0.000000 0.000000
# 2 -0.007131 0.044600 -0.004426 0.000000 0.000000 0.000000
# 3 -0.003440 -0.004426 0.008148 0.000000 0.000000 0.000000
# 4 0.000000 0.000000 0.000000 0.048361 0.000000 0.000000
# 5 0.000000 0.000000 0.000000 0.000000 0.040454 0.000000
# 6 0.000000 0.000000 0.000000 0.000000 0.000000 0.066137
#
#
# Mechanical properties :
#
#
# Convention : Reuss Voigt Hill
#
# Bulk Modulus (GPa) = 28.56679 58.29017 43.42848
# Shear Modulus (GPa) = 19.11236 24.99438 22.05337
#
# Velocity S-wave (km/s) = 3.29194 3.76457 3.53616
# Velocity P-wave (km/s) = 5.53595 7.20743 6.42626
#
# Compressibility (1/GPa) = 0.03500569
#
# Stress axis : x y z
#
# Youngs Moduli (GPa) = 81.62846 22.42157 122.73206
#
# Poissons Ratio (x) = 0.15988 0.42222
# Poissons Ratio (y) = 0.58206 0.54315
# Poissons Ratio (z) = 0.28082 0.09923
#
# Static dielectric constant tensor:
#      x y z
#    x 3.297640 0.000000 0.000000 
#    y 0.000000 3.252490 0.000000 
#    z 0.000000 0.000000 3.852700 
# 
# 
# High freq. dielectric constant tensor:
#      x y z
#    x 1.669610 0.000000 0.000000 
#    y 0.000000 1.663760 0.000000 
#    z 0.000000 0.000000 1.695330 
# 
# From -- ./inp_files/71095.got.cif
#   From: 2010.03.12/outbox.cif.g09.slc.cpg/sg65_36_cif.got.tgz:71095.got - 2010.04.10 20:52:16.
