data_PCOD8265047
_publ_section_title
;
Structure prediction by ZEFSAII (Michael W. Deem and Ramdas Pophale) SiO2 
 PCOD8265047
Probable space group: C M C A
;
_chemical_formula_sum "Si O2"
_cell_formula_units_Z 48
_cell_length_a 18.000000
_cell_length_b 24.000000
_cell_length_c 12.000000
_cell_angle_alpha 90.000000
_cell_angle_beta 90.000000
_cell_angle_gamma 90.000000
_cell_volume 5184.000000
_symmetry_space_group_name_H-M "C M C A"
_symmetry_group_IT_number 64
_symmetry_cell_setting 'orthorhombic'
loop_
_space_group_symop_operation_xyz
x,y,z
-x,1/2-y,1/2+z
x,-y,-z
-x,1/2+y,1/2-z
-x,-y,-z
x,1/2+y,1/2-z
-x,y,z
x,1/2-y,1/2+z
1/2+x,1/2+y,z
1/2-x,-y,1/2+z
1/2+x,1/2-y,-z
1/2-x,y,1/2-z
1/2-x,1/2-y,-z
1/2+x,y,1/2-z
1/2-x,1/2+y,z
1/2+x,-y,1/2+z
loop_
_atom_site_type_symbol
_atom_site_label
_atom_site_fract_x
_atom_site_fract_y
_atom_site_fract_z
Si Si1 0.588978 0.041557 0.279641
Si Si2 0.830754 0.783372 0.795328
Si Si3 0.333323 0.079304 0.704212
Si Si4 0.144112 0.127643 0.393077
Si Si5 0.910975 0.831717 0.363868
Si Si6 0.685887 0.114946 0.446207
O O1 0.500000 0.038957 0.302365
O O2 0.602297 0.073764 0.161235
O O3 0.631436 0.074481 0.377669
O O4 0.622769 0.979078 0.282168
O O5 0.750000 0.763804 0.750000
O O6 0.864130 0.821046 0.694561
O O7 0.878277 0.728932 0.829006
O O8 0.829230 0.820830 0.908760
O O9 0.250000 0.071562 0.750000
O O10 0.378076 0.124069 0.777021
O O11 0.329037 0.102700 0.576882
O O12 0.109804 0.148929 0.510210
O O13 0.227967 0.105461 0.413171
O O14 0.000000 0.829152 0.353272
#
# Coordination Sequence:
#
# PCOD8265047 Si02
#       6
#    16  16  16  16  16  16
#     4  11  24  42  66  96 131 167 207 269 331 378
#     4   9  22  41  68  92 125 168 220 265 313 374
#     4  12  24  42  66  93 129 167 219 263 311 386
#     4  10  22  45  67  93 128 172 220 260 315 391
#     4  12  26  40  61  96 132 170 209 265 331 380
#     4  10  22  43  70  95 121 171 223 262 312 378
#
# _framework density 9.2592590000000001
#
# number of rings (size 3 to 8) (size 9 to 14) (size 15 to 20)
#    0.000    1.333    1.667    4.500    2.333    7.333 
#    0.000    1.667    0.000    0.000    0.000    0.000 
#    0.000    0.000    0.000    0.000    0.000    0.000 
#
# Total GULP energy -594812.764282 kJ/mol
# GULP energy per Si atom -12391.932589 kJ/mol
# Density = 0.923818 g / cm^3
# Si number density = 9.259259 Si / 1000 Ang^3
#
#
#
# Elastic Constant Matrix: (Units=GPa)
#
#
# Indices 1 2 3 4 5 6 
#
# 1 183.8090 81.5184 61.5576 0.0000 0.0000 0.0000
# 2 81.5184 167.0104 76.8937 0.0000 0.0000 0.0000
# 3 61.5576 76.8937 180.2972 0.0000 0.0000 0.0000
# 4 0.0000 0.0000 0.0000 42.9734 0.0000 0.0000
# 5 0.0000 0.0000 0.0000 0.0000 36.4663 0.0000
# 6 0.0000 0.0000 0.0000 0.0000 0.0000 42.0187
#
#
#
# Elastic Compliance Matrix: (Units=1/GPa)
#
#
# Indices 1 2 3 4 5 6 
#
# 1 0.007141 -0.002940 -0.001184 0.000000 0.000000 0.000000
# 2 -0.002940 0.008661 -0.002690 0.000000 0.000000 0.000000
# 3 -0.001184 -0.002690 0.007098 0.000000 0.000000 0.000000
# 4 0.000000 0.000000 0.000000 0.023270 0.000000 0.000000
# 5 0.000000 0.000000 0.000000 0.000000 0.027423 0.000000
# 6 0.000000 0.000000 0.000000 0.000000 0.000000 0.023799
#
#
# Mechanical properties :
#
#
# Convention : Reuss Voigt Hill
#
# Bulk Modulus (GPa) = 107.85923 107.89512 107.87718
# Shear Modulus (GPa) = 43.81677 45.03478 44.42578
#
# Velocity S-wave (km/s) = 4.86954 4.93676 4.90326
# Velocity P-wave (km/s) = 9.48615 9.53338 9.50979
#
# Compressibility (1/GPa) = 0.00927134
#
# Stress axis : x y z
#
# Youngs Moduli (GPa) = 140.03576 115.45488 140.88642
#
# Poissons Ratio (x) = 0.33948 0.16682
# Poissons Ratio (y) = 0.41176 0.37899
# Poissons Ratio (z) = 0.16581 0.31058
#
# Static dielectric constant tensor:
#      x y z
#    x 3.769050 0.000000 0.000000 
#    y 0.000000 3.824330 0.000000 
#    z 0.000000 0.000000 3.925750 
# 
# 
# High freq. dielectric constant tensor:
#      x y z
#    x 1.745550 0.000000 0.000000 
#    y 0.000000 1.752570 0.000000 
#    z 0.000000 0.000000 1.755520 
# 
# From -- ./inp_files/16193.got.cif
#   From: 2010.03.12/outbox.ucp.g09.slc.cvg/sg64_9_cif.got.tgz:16193.got - 2010.05.04 19:41:48.
