data_PCOD8265495
_publ_section_title
;
Structure prediction by ZEFSAII (Michael W. Deem and Ramdas Pophale) SiO2 
 PCOD8265495
Probable space group: C M M M
;
_chemical_formula_sum "Si O2"
_cell_formula_units_Z 112
_cell_length_a 26.947477
_cell_length_b 15.641285
_cell_length_c 13.715356
_cell_angle_alpha 90.000000
_cell_angle_beta 90.000000
_cell_angle_gamma 90.000000
_cell_volume 5780.928848
_symmetry_space_group_name_H-M "C M M M"
_symmetry_group_IT_number 65
_symmetry_cell_setting 'orthorhombic'
loop_
_space_group_symop_operation_xyz
x,y,z
-x,-y,z
x,-y,-z
-x,y,-z
-x,-y,-z
x,y,-z
-x,y,z
x,-y,z
1/2+x,1/2+y,z
1/2-x,1/2-y,z
1/2+x,1/2-y,-z
1/2-x,1/2+y,-z
1/2-x,1/2-y,-z
1/2+x,1/2+y,-z
1/2-x,1/2+y,z
1/2+x,1/2-y,z
loop_
_atom_site_type_symbol
_atom_site_label
_atom_site_fract_x
_atom_site_fract_y
_atom_site_fract_z
Si Si1 0.941455 0.256910 0.774278
Si Si2 0.687643 0.094469 0.704271
Si Si3 0.295142 0.306730 0.106950
Si Si4 0.635744 0.846356 0.109344
Si Si5 0.803534 0.096085 0.708334
Si Si6 0.058668 0.906468 0.107683
Si Si7 0.865689 0.246608 0.386587
O O1 0.918234 0.334326 0.839375
O O2 0.924553 0.166183 0.818474
O O3 0.918862 0.253762 0.666125
O O4 0.000000 0.271762 0.769268
O O5 0.672369 0.100867 0.819302
O O6 0.745719 0.104611 0.685120
O O7 0.663159 0.166894 0.638712
O O8 0.670722 0.000000 0.669175
O O9 0.250000 0.250000 0.151509
O O10 0.343490 0.248786 0.099193
O O11 0.309229 0.385187 0.176393
O O12 0.279366 0.341689 0.000000
O O13 0.631345 0.887951 0.000000
O O14 0.834289 0.163744 0.645069
O O15 0.822711 0.000000 0.686553
O O16 0.000000 0.904964 0.098553
O O17 0.076371 0.000000 0.145837
O O18 0.081372 0.888961 0.000000
O O19 0.876465 0.240476 0.500000
#
# Coordination Sequence:
#
# PCOD8265495 Si02
#       7
#    16  16  16  16  16  16  16
#     4  10  20  35  56  80 107 145 195 243 288 339
#     4  10  21  37  61  90 116 146 187 229 279 348
#     4  10  17  31  54  80 117 159 191 221 263 323
#     4  10  19  32  54  84 120 155 186 221 269 325
#     4  11  21  36  58  86 120 155 190 226 276 342
#     4   8  14  26  46  73 104 137 174 217 265 319
#     4  11  24  42  60  79 110 146 188 248 306 348
#
# _framework density 19.374048999999999
#
# number of rings (size 3 to 8) (size 9 to 14) (size 15 to 20)
#    0.000    2.000    4.286    1.286    0.000    4.000 
#    0.000    2.857    0.000    6.857    0.000   11.000 
#    0.000    0.000    0.000    0.000    0.000    0.000 
#
# Total GULP energy -693968.473084 kJ/mol
# GULP energy per Si atom -12392.294162 kJ/mol
# Density = 1.932995 g / cm^3
# Si number density = 19.374049 Si / 1000 Ang^3
#
#
#
# Elastic Constant Matrix: (Units=GPa)
#
#
# Indices 1 2 3 4 5 6 
#
# 1 83.4978 18.8243 23.3365 0.0000 0.0000 0.0000
# 2 18.8243 83.0048 21.7018 0.0000 0.0000 0.0000
# 3 23.3365 21.7018 108.7863 0.0000 0.0000 0.0000
# 4 0.0000 0.0000 0.0000 7.1467 0.0000 0.0000
# 5 0.0000 0.0000 0.0000 0.0000 19.5603 0.0000
# 6 0.0000 0.0000 0.0000 0.0000 0.0000 12.4840
#
#
#
# Elastic Compliance Matrix: (Units=1/GPa)
#
#
# Indices 1 2 3 4 5 6 
#
# 1 0.013168 -0.002372 -0.002352 0.000000 0.000000 0.000000
# 2 -0.002372 0.013138 -0.002112 0.000000 0.000000 0.000000
# 3 -0.002352 -0.002112 0.010118 0.000000 0.000000 0.000000
# 4 0.000000 0.000000 0.000000 0.139924 0.000000 0.000000
# 5 0.000000 0.000000 0.000000 0.000000 0.051124 0.000000
# 6 0.000000 0.000000 0.000000 0.000000 0.000000 0.080103
#
#
# Mechanical properties :
#
#
# Convention : Reuss Voigt Hill
#
# Bulk Modulus (GPa) = 43.94959 44.77934 44.36446
# Shear Modulus (GPa) = 15.20545 21.93329 18.56937
#
# Velocity S-wave (km/s) = 2.80453 3.36831 3.09927
# Velocity P-wave (km/s) = 5.76378 6.18794 5.97962
#
# Compressibility (1/GPa) = 0.02275334
#
# Stress axis : x y z
#
# Youngs Moduli (GPa) = 75.94008 76.11783 98.83225
#
# Poissons Ratio (x) = 0.18051 0.23243
# Poissons Ratio (y) = 0.18009 0.20874
# Poissons Ratio (z) = 0.17859 0.16077
#
# Static dielectric constant tensor:
#      x y z
#    x 3.418640 0.000000 0.000000 
#    y 0.000000 3.562720 0.000000 
#    z 0.000000 0.000000 3.513870 
# 
# 
# High freq. dielectric constant tensor:
#      x y z
#    x 1.748230 0.000000 0.000000 
#    y 0.000000 1.741020 0.000000 
#    z 0.000000 0.000000 1.736680 
# 
# From -- ./inp_files/47019.got.cif
#   From: 2010.03.12/outbox.cif.g09.slc.cpg/sg65_24_cif.got.tgz:47019.got - 2010.04.10 20:52:16.
