data_PCOD8265315
_publ_section_title
;
Structure prediction by ZEFSAII (Michael W. Deem and Ramdas Pophale) SiO2 
 PCOD8265315
Probable space group: C M M M
;
_chemical_formula_sum "Si O2"
_cell_formula_units_Z 88
_cell_length_a 31.058703
_cell_length_b 18.118203
_cell_length_c 11.934341
_cell_angle_alpha 90.000000
_cell_angle_beta 90.000000
_cell_angle_gamma 90.000000
_cell_volume 6715.786480
_symmetry_space_group_name_H-M "C M M M"
_symmetry_group_IT_number 65
_symmetry_cell_setting 'orthorhombic'
loop_
_space_group_symop_operation_xyz
x,y,z
-x,-y,z
x,-y,-z
-x,y,-z
-x,-y,-z
x,y,-z
-x,y,z
x,-y,z
1/2+x,1/2+y,z
1/2-x,1/2-y,z
1/2+x,1/2-y,-z
1/2-x,1/2+y,-z
1/2-x,1/2-y,-z
1/2+x,1/2+y,-z
1/2-x,1/2+y,z
1/2+x,1/2-y,z
loop_
_atom_site_type_symbol
_atom_site_label
_atom_site_fract_x
_atom_site_fract_y
_atom_site_fract_z
Si Si1 0.272520 0.861723 0.000000
Si Si2 0.294788 0.207632 0.625515
Si Si3 0.833890 0.832577 0.761867
Si Si4 0.755878 0.584101 0.763576
Si Si5 0.818509 0.783255 0.000000
Si Si6 0.000000 0.080086 0.631848
Si Si7 0.906957 0.911868 0.372208
O O1 0.273550 0.912629 0.890264
O O2 0.229223 0.814917 0.000000
O O3 0.313203 0.805675 0.000000
O O4 0.312021 0.194742 0.500000
O O5 0.250000 0.250000 0.624990
O O6 0.328934 0.256709 0.693109
O O7 0.288770 0.128770 0.684775
O O8 0.791844 0.883283 0.752607
O O9 0.873693 0.877673 0.714218
O O10 0.843886 0.811361 0.890547
O O11 0.755042 0.500000 0.722341
O O12 0.045346 0.120027 0.662266
O O13 0.000000 0.067425 0.500000
O O14 0.000000 0.000000 0.691181
O O15 0.895032 0.889291 0.500000
O O16 0.906596 0.000000 0.361180
#
# Coordination Sequence:
#
# PCOD8265315 Si02
#       7
#     8  16  16  16   8   8  16
#     4   9  15  28  40  52  66  96 133 166 195 223
#     4   9  17  27  37  50  72 100 127 155 193 237
#     4  10  17  27  40  56  74  98 133 165 195 223
#     4  10  18  26  38  54  73  98 131 167 197 225
#     4   9  16  26  42  53  69  96 129 167 196 225
#     4   7  12  24  40  57  77 101 126 152 188 230
#     4   9  16  26  41  60  80 101 127 160 194 228
#
# _framework density 13.103453999999999
#
# number of rings (size 3 to 8) (size 9 to 14) (size 15 to 20)
#    0.000    2.818    1.818    2.455    0.000    1.091 
#    0.000    1.364    0.000    0.545    0.000    1.909 
#    0.000    0.000    0.000    0.818    0.000   11.455 
#
# Total GULP energy -545253.858818 kJ/mol
# GULP energy per Si atom -12392.133155 kJ/mol
# Density = 1.307363 g / cm^3
# Si number density = 13.103454 Si / 1000 Ang^3
#
#
#
# Elastic Constant Matrix: (Units=GPa)
#
#
# Indices 1 2 3 4 5 6 
#
# 1 54.5013 24.9273 36.3102 0.0000 0.0000 0.0000
# 2 24.9273 72.1489 35.1904 0.0000 0.0000 0.0000
# 3 36.3102 35.1904 102.9457 0.0000 0.0000 0.0000
# 4 0.0000 0.0000 0.0000 18.5369 0.0000 0.0000
# 5 0.0000 0.0000 0.0000 0.0000 12.2373 0.0000
# 6 0.0000 0.0000 0.0000 0.0000 0.0000 9.7030
#
#
#
# Elastic Compliance Matrix: (Units=1/GPa)
#
#
# Indices 1 2 3 4 5 6 
#
# 1 0.025583 -0.005326 -0.007203 0.000000 0.000000 0.000000
# 2 -0.005326 0.017742 -0.004186 0.000000 0.000000 0.000000
# 3 -0.007203 -0.004186 0.013685 0.000000 0.000000 0.000000
# 4 0.000000 0.000000 0.000000 0.053946 0.000000 0.000000
# 5 0.000000 0.000000 0.000000 0.000000 0.081717 0.000000
# 6 0.000000 0.000000 0.000000 0.000000 0.000000 0.103061
#
#
# Mechanical properties :
#
#
# Convention : Reuss Voigt Hill
#
# Bulk Modulus (GPa) = 42.40799 46.93907 44.67353
# Shear Modulus (GPa) = 14.83571 16.97332 15.90452
#
# Velocity S-wave (km/s) = 3.36847 3.60298 3.48769
# Velocity P-wave (km/s) = 6.89659 7.29440 7.09828
#
# Compressibility (1/GPa) = 0.02358046
#
# Stress axis : x y z
#
# Youngs Moduli (GPa) = 39.08893 56.36303 73.07019
#
# Poissons Ratio (x) = 0.30017 0.52631
# Poissons Ratio (y) = 0.20817 0.30591
# Poissons Ratio (z) = 0.28155 0.23596
#
# Static dielectric constant tensor:
#      x y z
#    x 2.480750 0.000000 0.000000 
#    y 0.000000 2.490170 0.000000 
#    z 0.000000 0.000000 2.778810 
# 
# 
# High freq. dielectric constant tensor:
#      x y z
#    x 1.455280 0.000000 0.000000 
#    y 0.000000 1.481590 0.000000 
#    z 0.000000 0.000000 1.503470 
# 
# From -- ./inp_files/27663.got.cif
#   From: 2010.03.12/outbox.cif.g09.slc.cpg/sg65_14_cif.got.tgz:27663.got - 2010.04.10 20:52:16.
