data_PCOD8265389
_publ_section_title
;
Structure prediction by ZEFSAII (Michael W. Deem and Ramdas Pophale) SiO2 
 PCOD8265389
Probable space group: C M M M
;
_chemical_formula_sum "Si O2"
_cell_formula_units_Z 88
_cell_length_a 23.038085
_cell_length_b 24.526261
_cell_length_c 8.984052
_cell_angle_alpha 90.000000
_cell_angle_beta 90.000000
_cell_angle_gamma 90.000000
_cell_volume 5076.331543
_symmetry_space_group_name_H-M "C M M M"
_symmetry_group_IT_number 65
_symmetry_cell_setting 'orthorhombic'
loop_
_space_group_symop_operation_xyz
x,y,z
-x,-y,z
x,-y,-z
-x,y,-z
-x,-y,-z
x,y,-z
-x,y,z
x,-y,z
1/2+x,1/2+y,z
1/2-x,1/2-y,z
1/2+x,1/2-y,-z
1/2-x,1/2+y,-z
1/2-x,1/2-y,-z
1/2+x,1/2+y,-z
1/2-x,1/2+y,z
1/2+x,1/2-y,z
loop_
_atom_site_type_symbol
_atom_site_label
_atom_site_fract_x
_atom_site_fract_y
_atom_site_fract_z
Si Si1 0.500000 0.938770 0.676674
Si Si2 0.661958 0.562495 0.674396
Si Si3 0.935547 0.264613 0.676360
Si Si4 0.934952 0.855802 0.676854
Si Si5 0.885788 0.624048 0.323490
Si Si6 0.218442 0.562401 0.175115
O O1 0.500000 0.939145 0.500000
O O2 0.442469 0.908301 0.733655
O O3 0.500000 0.000000 0.741436
O O4 0.672017 0.572395 0.500000
O O5 0.645623 0.500000 0.708177
O O6 0.609676 0.599369 0.739143
O O7 0.719956 0.580287 0.758674
O O8 0.939905 0.266024 0.500000
O O9 0.914035 0.204704 0.728754
O O10 0.892312 0.312725 0.727529
O O11 0.000000 0.275735 0.741035
O O12 0.936222 0.858936 0.500000
O O13 0.000000 0.867666 0.737877
O O14 0.878009 0.617914 0.500000
O O15 0.829716 0.601142 0.243468
O O16 0.204507 0.500000 0.219460
O O17 0.220372 0.570413 0.000000
#
# Coordination Sequence:
#
# PCOD8265389 Si02
#       6
#     8  16  16  16  16  16
#     4   9  16  24  39  67  95 113 140 190 238 267
#     4   9  17  30  49  72  95 121 155 191 228 274
#     4   8  13  24  43  69  98 124 150 183 228 278
#     4   8  14  25  45  74 103 123 143 183 235 279
#     4  10  17  28  48  71  92 119 156 194 230 272
#     4  10  21  35  48  63  89 126 161 193 234 279
#
# _framework density 17.335352
#
# number of rings (size 3 to 8) (size 9 to 14) (size 15 to 20)
#    0.000    3.000    0.909    2.182    0.000    2.182 
#    0.000    3.182    0.000    8.727    0.000    5.091 
#    0.000    0.000    0.000    0.000    0.000    0.000 
#
# Total GULP energy -545370.084505 kJ/mol
# GULP energy per Si atom -12394.774648 kJ/mol
# Density = 1.729590 g / cm^3
# Si number density = 17.335352 Si / 1000 Ang^3
#
#
#
# Elastic Constant Matrix: (Units=GPa)
#
#
# Indices 1 2 3 4 5 6 
#
# 1 147.3864 104.4698 33.8755 0.0000 0.0000 0.0000
# 2 104.4698 142.6732 29.1014 0.0000 0.0000 0.0000
# 3 33.8755 29.1014 27.0946 0.0000 0.0000 0.0000
# 4 0.0000 0.0000 0.0000 9.9605 0.0000 0.0000
# 5 0.0000 0.0000 0.0000 0.0000 -4.8997 0.0000
# 6 0.0000 0.0000 0.0000 0.0000 0.0000 29.7995
#
#
#
# Elastic Compliance Matrix: (Units=1/GPa)
#
#
# Indices 1 2 3 4 5 6 
#
# 1 0.015766 -0.009635 -0.009364 0.000000 0.000000 0.000000
# 2 -0.009635 0.014863 -0.003918 0.000000 0.000000 0.000000
# 3 -0.009364 -0.003918 0.052823 0.000000 0.000000 0.000000
# 4 0.000000 0.000000 0.000000 0.100397 0.000000 0.000000
# 5 0.000000 0.000000 0.000000 0.000000 -0.204094 0.000000
# 6 0.000000 0.000000 0.000000 0.000000 0.000000 0.033558
#
#
# Mechanical properties :
#
#
# Convention : Reuss Voigt Hill
#
# Bulk Modulus (GPa) = 26.58194 72.44974 49.51584
# Shear Modulus (GPa) = 69.74899 16.95256 43.35077
#
# Velocity S-wave (km/s) = 6.35000 3.13056 5.00614
# Velocity P-wave (km/s) = 8.31448 7.41289 7.87660
#
# Compressibility (1/GPa) = 0.03761952
#
# Stress axis : x y z
#
# Youngs Moduli (GPa) = 63.42686 67.28157 18.93112
#
# Poissons Ratio (x) = 0.64823 0.17727
# Poissons Ratio (y) = 0.61109 0.07417
# Poissons Ratio (z) = 0.59392 0.26361
#
# Static dielectric constant tensor:
#      x y z
#    x 3.298510 0.000000 0.000000 
#    y 0.000000 3.593850 0.000000 
#    z 0.000000 0.000000 2.735880 
# 
# 
# High freq. dielectric constant tensor:
#      x y z
#    x 1.664690 0.000000 0.000000 
#    y 0.000000 1.678100 0.000000 
#    z 0.000000 0.000000 1.617830 
# 
# From -- ./inp_files/13979.got.cif
#   From: 2010.03.12/outbox.cif.g09.slc.cpg/sg65_7_cif.got.tgz:13979.got - 2010.04.10 20:52:16.
