data_PCOD8265046
_publ_section_title
;
Structure prediction by ZEFSAII (Michael W. Deem and Ramdas Pophale) SiO2 
 PCOD8265046
Probable space group: C M C A
;
_chemical_formula_sum "Si O2"
_cell_formula_units_Z 60
_cell_length_a 27.000000
_cell_length_b 12.000000
_cell_length_c 21.000000
_cell_angle_alpha 90.000000
_cell_angle_beta 90.000000
_cell_angle_gamma 90.000000
_cell_volume 6804.000000
_symmetry_space_group_name_H-M "C M C A"
_symmetry_group_IT_number 64
_symmetry_cell_setting 'orthorhombic'
loop_
_space_group_symop_operation_xyz
x,y,z
-x,1/2-y,1/2+z
x,-y,-z
-x,1/2+y,1/2-z
-x,-y,-z
x,1/2+y,1/2-z
-x,y,z
x,1/2-y,1/2+z
1/2+x,1/2+y,z
1/2-x,-y,1/2+z
1/2+x,1/2-y,-z
1/2-x,y,1/2-z
1/2-x,1/2-y,-z
1/2+x,y,1/2-z
1/2-x,1/2+y,z
1/2+x,-y,1/2+z
loop_
_atom_site_type_symbol
_atom_site_label
_atom_site_fract_x
_atom_site_fract_y
_atom_site_fract_z
Si Si1 0.367089 0.902308 0.646295
Si Si2 0.349961 0.612748 0.611990
Si Si3 0.260070 0.470825 0.138477
Si Si4 0.416915 0.000000 0.000000
Si Si5 0.218690 0.712866 0.187858
Si Si6 0.471986 0.179735 0.098682
Si Si7 0.954341 0.950927 0.070579
Si Si8 0.883143 0.402536 0.802487
O O1 0.357237 0.748428 0.627555
O O2 0.379524 0.903724 0.723167
O O3 0.316620 0.970450 0.622383
O O4 0.414009 0.968502 0.616077
O O5 0.290639 0.571090 0.599465
O O6 0.382203 0.573792 0.548628
O O7 0.370571 0.526919 0.669820
O O8 0.240916 0.588738 0.168319
O O9 0.274581 0.343818 0.161908
O O10 0.450667 0.907563 0.958548
O O11 0.250000 0.733389 0.250000
O O12 0.159592 0.690906 0.183007
O O13 0.500000 0.178785 0.098941
O O14 0.474549 0.320489 0.084141
O O15 0.436987 0.144154 0.163545
O O16 0.000000 0.860461 0.082951
O O17 0.937971 0.000000 0.000000
#
# Coordination Sequence:
#
# PCOD8265046 Si02
#       8
#    16  16  16   8  16  16  16  16
#     4  12  23  38  65  91 130 174 212 264 337 393
#     4  10  23  40  58  94 126 168 216 266 316 390
#     4  11  21  34  55  87 124 168 211 255 317 382
#     4  10  21  44  68  88 130 166 217 276 322 376
#     4  11  19  32  53  81 121 165 204 250 304 385
#     4  10  21  41  68  94 124 167 217 270 328 390
#     4  10  23  43  66  92 123 167 221 269 323 393
#     4  10  23  36  59  92 130 160 207 270 323 382
#
# _framework density 8.8183419999999995
#
# number of rings (size 3 to 8) (size 9 to 14) (size 15 to 20)
#    0.000    1.467    2.667    2.200    5.600    0.533 
#    1.200    3.333    0.000    0.000    0.000    0.000 
#    0.000    0.000    0.000    0.000    0.000    0.000 
#
# Total GULP energy -744904.931640 kJ/mol
# GULP energy per Si atom -12415.082194 kJ/mol
# Density = 0.879827 g / cm^3
# Si number density = 8.818342 Si / 1000 Ang^3
#
#
#
# Elastic Constant Matrix: (Units=GPa)
#
#
# Indices 1 2 3 4 5 6 
#
# 1 41.3956 -217.6704 -38.4917 0.0000 0.0000 0.0000
# 2 -217.6704 -363.6167 -143.1431 0.0000 0.0000 0.0000
# 3 -38.4917 -143.1431 48.9935 0.0000 0.0000 0.0000
# 4 0.0000 0.0000 0.0000 42.2774 0.0000 0.0000
# 5 0.0000 0.0000 0.0000 0.0000 37.7388 0.0000
# 6 0.0000 0.0000 0.0000 0.0000 0.0000 63.3963
#
#
#
# Elastic Compliance Matrix: (Units=1/GPa)
#
#
# Indices 1 2 3 4 5 6 
#
# 1 0.006642 -0.002805 -0.002976 0.000000 0.000000 0.000000
# 2 -0.002805 -0.000095 -0.002480 0.000000 0.000000 0.000000
# 3 -0.002976 -0.002480 0.010826 0.000000 0.000000 0.000000
# 4 0.000000 0.000000 0.000000 0.023653 0.000000 0.000000
# 5 0.000000 0.000000 0.000000 0.000000 0.026498 0.000000
# 6 0.000000 0.000000 0.000000 0.000000 0.000000 0.015774
#
#
# Mechanical properties :
#
#
# Convention : Reuss Voigt Hill
#
# Bulk Modulus (GPa) = 1174.33969 -119.09313 527.62328
# Shear Modulus (GPa) = 49.94797 37.08769 43.51783
#
# Velocity S-wave (km/s) = 5.32747 4.59068 4.97274
# Velocity P-wave (km/s) = 26.55445 6.29073 18.24233
#
# Compressibility (1/GPa) = 0.00085154
#
# Stress axis : x y z
#
# Youngs Moduli (GPa) = 150.55273 -10552.42119 92.36998
#
# Poissons Ratio (x) = -29.59611 0.27489
# Poissons Ratio (y) = 0.42225 0.22911
# Poissons Ratio (z) = 0.44803 -26.17387
#
# Static dielectric constant tensor:
#      x y z
#    x 4.698920 0.000000 0.000000 
#    y 0.000000 -54.919490 0.000000 
#    z 0.000000 0.000000 -13.443600 
# 
# 
# High freq. dielectric constant tensor:
#      x y z
#    x 1.270450 0.000000 0.000000 
#    y 0.000000 1.576700 0.000000 
#    z 0.000000 0.000000 1.652270 
# 
# From -- ./inp_files/41974.got.cif
#   From: 2010.03.12/outbox.ucp.g09.slc.cvg/sg64_21_cif.got.tgz:41974.got - 2010.05.04 19:41:48.
