data_PCOD8265969
_publ_section_title
;
Structure prediction by ZEFSAII (Michael W. Deem and Ramdas Pophale) SiO2 
 PCOD8265969
Probable space group: C M M M
;
_chemical_formula_sum "Si O2"
_cell_formula_units_Z 104
_cell_length_a 33.265953
_cell_length_b 22.437184
_cell_length_c 7.771672
_cell_angle_alpha 90.000000
_cell_angle_beta 90.000000
_cell_angle_gamma 90.000000
_cell_volume 5800.731748
_symmetry_space_group_name_H-M "C M M M"
_symmetry_group_IT_number 65
_symmetry_cell_setting 'orthorhombic'
loop_
_space_group_symop_operation_xyz
x,y,z
-x,-y,z
x,-y,-z
-x,y,-z
-x,-y,-z
x,y,-z
-x,y,z
x,-y,z
1/2+x,1/2+y,z
1/2-x,1/2-y,z
1/2+x,1/2-y,-z
1/2-x,1/2+y,-z
1/2-x,1/2-y,-z
1/2+x,1/2+y,-z
1/2-x,1/2+y,z
1/2+x,1/2-y,z
loop_
_atom_site_type_symbol
_atom_site_label
_atom_site_fract_x
_atom_site_fract_y
_atom_site_fract_z
Si Si1 0.955157 0.715510 0.296915
Si Si2 0.403420 0.892538 0.196982
Si Si3 0.884435 0.931704 0.808254
Si Si4 0.260392 0.070636 0.500000
Si Si5 0.954184 0.149440 0.298668
Si Si6 0.182136 0.570450 0.197344
Si Si7 0.329216 0.429223 0.500000
Si Si8 0.044862 0.500000 0.793883
O O1 0.953993 0.709575 0.500000
O O2 0.921530 0.673166 0.216501
O O3 0.944949 0.782828 0.241172
O O4 0.000000 0.698328 0.230194
O O5 0.358062 0.896725 0.268845
O O6 0.432773 0.941557 0.282122
O O7 0.399430 0.910473 0.000000
O O8 0.925446 0.894572 0.804152
O O9 0.852306 0.906570 0.670850
O O10 0.895198 0.000000 0.764022
O O11 0.865826 0.926387 0.000000
O O12 0.282570 0.091885 0.674669
O O13 0.215566 0.098401 0.500000
O O14 0.257920 0.000000 0.500000
O O15 0.946322 0.141428 0.500000
O O16 0.000000 0.133117 0.252433
O O17 0.174674 0.500000 0.210439
O O18 0.193176 0.588304 0.000000
O O19 0.326402 0.500000 0.500000
O O20 0.000000 0.500000 0.718002
O O21 0.043411 0.500000 0.000000
#
# Coordination Sequence:
#
# PCOD8265969 Si02
#       8
#    16  16  16   8  16  16   8   8
#     4   9  19  33  47  67  96 130 171 216 254 291
#     4  10  18  29  45  65  92 129 169 214 262 303
#     4  10  20  33  53  81 110 138 166 200 243 292
#     4   9  18  30  50  74  96 132 167 196 249 314
#     4   9  18  34  53  72 101 140 175 208 246 286
#     4   9  17  30  46  69  99 128 164 211 258 305
#     4   9  18  34  51  75 109 135 163 199 243 304
#     4   9  16  26  41  61  89 129 171 207 255 312
#
# _framework density 17.928773
#
# number of rings (size 3 to 8) (size 9 to 14) (size 15 to 20)
#    0.000    2.692    1.538    1.385    1.077    2.769 
#    0.000    6.538    0.000    1.385    0.000    2.154 
#    0.000    3.692    0.000    0.000    0.000    0.000 
#
# Total GULP energy -644614.597380 kJ/mol
# GULP energy per Si atom -12396.434565 kJ/mol
# Density = 1.788797 g / cm^3
# Si number density = 17.928773 Si / 1000 Ang^3
#
#
#
# Elastic Constant Matrix: (Units=GPa)
#
#
# Indices 1 2 3 4 5 6 
#
# 1 143.6436 48.8031 55.3028 0.0000 0.0000 0.0000
# 2 48.8031 58.7230 22.5038 0.0000 0.0000 0.0000
# 3 55.3028 22.5038 81.6877 0.0000 0.0000 0.0000
# 4 0.0000 0.0000 0.0000 18.9333 0.0000 0.0000
# 5 0.0000 0.0000 0.0000 0.0000 18.3552 0.0000
# 6 0.0000 0.0000 0.0000 0.0000 0.0000 16.7527
#
#
#
# Elastic Compliance Matrix: (Units=1/GPa)
#
#
# Indices 1 2 3 4 5 6 
#
# 1 0.011799 -0.007541 -0.005911 0.000000 0.000000 0.000000
# 2 -0.007541 0.023859 -0.001467 0.000000 0.000000 0.000000
# 3 -0.005911 -0.001467 0.016648 0.000000 0.000000 0.000000
# 4 0.000000 0.000000 0.000000 0.052817 0.000000 0.000000
# 5 0.000000 0.000000 0.000000 0.000000 0.054481 0.000000
# 6 0.000000 0.000000 0.000000 0.000000 0.000000 0.059692
#
#
# Mechanical properties :
#
#
# Convention : Reuss Voigt Hill
#
# Bulk Modulus (GPa) = 44.50939 59.69709 52.10324
# Shear Modulus (GPa) = 19.48388 21.30455 20.39421
#
# Velocity S-wave (km/s) = 3.30015 3.45090 3.37636
# Velocity P-wave (km/s) = 6.27701 7.01764 6.65763
#
# Compressibility (1/GPa) = 0.02246717
#
# Stress axis : x y z
#
# Youngs Moduli (GPa) = 84.75003 41.91366 60.06875
#
# Poissons Ratio (x) = 0.31607 0.35505
# Poissons Ratio (y) = 0.63910 0.08814
# Poissons Ratio (z) = 0.50094 0.06150
#
# Static dielectric constant tensor:
#      x y z
#    x 3.475670 0.000000 0.000000 
#    y 0.000000 3.103300 0.000000 
#    z 0.000000 0.000000 3.270150 
# 
# 
# High freq. dielectric constant tensor:
#      x y z
#    x 1.685320 0.000000 0.000000 
#    y 0.000000 1.657340 0.000000 
#    z 0.000000 0.000000 1.693620 
# 
# From -- ./inp_files/18726.got.cif
#   From: 2010.03.12/outbox.cif.g09.slc.cpg/sg65_10_cif.got.tgz:18726.got - 2010.04.10 20:52:16.
