data_PCOD8265511
_publ_section_title
;
Structure prediction by ZEFSAII (Michael W. Deem and Ramdas Pophale) SiO2 
 PCOD8265511
Probable space group: C M M M
;
_chemical_formula_sum "Si O2"
_cell_formula_units_Z 72
_cell_length_a 23.739736
_cell_length_b 8.582637
_cell_length_c 18.015384
_cell_angle_alpha 90.000000
_cell_angle_beta 90.000000
_cell_angle_gamma 90.000000
_cell_volume 3670.626141
_symmetry_space_group_name_H-M "C M M M"
_symmetry_group_IT_number 65
_symmetry_cell_setting 'orthorhombic'
loop_
_space_group_symop_operation_xyz
x,y,z
-x,-y,z
x,-y,-z
-x,y,-z
-x,-y,-z
x,y,-z
-x,y,z
x,-y,z
1/2+x,1/2+y,z
1/2-x,1/2-y,z
1/2+x,1/2-y,-z
1/2-x,1/2+y,-z
1/2-x,1/2-y,-z
1/2+x,1/2+y,-z
1/2-x,1/2+y,z
1/2+x,1/2-y,z
loop_
_atom_site_type_symbol
_atom_site_label
_atom_site_fract_x
_atom_site_fract_y
_atom_site_fract_z
Si Si1 0.000000 0.679549 0.723906
Si Si2 0.123266 0.181138 0.920188
Si Si3 0.064760 0.682602 0.500000
Si Si4 0.500000 0.677925 0.125655
Si Si5 0.893557 0.817591 0.648745
Si Si6 0.812189 0.185226 0.776619
O O1 0.947288 0.774298 0.695810
O O2 0.000000 0.500000 0.696471
O O3 0.000000 0.690155 0.811749
O O4 0.153850 0.256204 0.847997
O O5 0.056089 0.207402 0.921421
O O6 0.137414 0.000000 0.917777
O O7 0.145261 0.249581 0.000000
O O8 0.058625 0.500000 0.500000
O O9 0.102311 0.732820 0.430059
O O10 0.000000 0.752614 0.500000
O O11 0.500000 0.500000 0.157687
O O12 0.840505 0.761304 0.698691
O O13 0.891027 0.000000 0.633349
O O14 0.750000 0.250000 0.778903
O O15 0.812275 0.000000 0.780205
#
# Coordination Sequence:
#
# PCOD8265511 Si02
#       6
#     8  16   8   8  16  16
#     4  12  22  32  54  87 119 152 186 234 293 343
#     4   9  17  31  55  86 115 147 191 240 286 340
#     4  11  23  37  58  95 129 150 179 225 286 344
#     4  10  17  32  55  83 115 150 191 233 287 352
#     4  11  22  39  61  86 116 154 196 234 277 339
#     4  10  22  39  59  83 111 150 200 246 287 336
#
# _framework density 19.615182000000001
#
# number of rings (size 3 to 8) (size 9 to 14) (size 15 to 20)
#    0.000    1.667    3.333    2.333    0.000    4.000 
#    0.000    0.556    0.000    2.667    0.000    0.000 
#    0.000    0.000    0.000    0.000    0.000    0.000 
#
# Total GULP energy -446105.790827 kJ/mol
# GULP energy per Si atom -12391.827523 kJ/mol
# Density = 1.957054 g / cm^3
# Si number density = 19.615182 Si / 1000 Ang^3
#
#
#
# Elastic Constant Matrix: (Units=GPa)
#
#
# Indices 1 2 3 4 5 6 
#
# 1 133.5062 16.8912 70.2022 0.0000 0.0000 0.0000
# 2 16.8912 24.9791 28.2718 0.0000 0.0000 0.0000
# 3 70.2022 28.2718 182.3231 0.0000 0.0000 0.0000
# 4 0.0000 0.0000 0.0000 10.1879 0.0000 0.0000
# 5 0.0000 0.0000 0.0000 0.0000 20.2462 0.0000
# 6 0.0000 0.0000 0.0000 0.0000 0.0000 34.7356
#
#
#
# Elastic Compliance Matrix: (Units=1/GPa)
#
#
# Indices 1 2 3 4 5 6 
#
# 1 0.009549 -0.002784 -0.003245 0.000000 0.000000 0.000000
# 2 -0.002784 0.049367 -0.006583 0.000000 0.000000 0.000000
# 3 -0.003245 -0.006583 0.007755 0.000000 0.000000 0.000000
# 4 0.000000 0.000000 0.000000 0.098156 0.000000 0.000000
# 5 0.000000 0.000000 0.000000 0.000000 0.049392 0.000000
# 6 0.000000 0.000000 0.000000 0.000000 0.000000 0.028789
#
#
# Mechanical properties :
#
#
# Convention : Reuss Voigt Hill
#
# Bulk Modulus (GPa) = 24.12759 63.50428 43.81594
# Shear Modulus (GPa) = 17.72750 28.06349 22.89549
#
# Velocity S-wave (km/s) = 3.00953 3.78657 3.42019
# Velocity P-wave (km/s) = 4.93999 7.18072 6.16305
#
# Compressibility (1/GPa) = 0.04144633
#
# Stress axis : x y z
#
# Youngs Moduli (GPa) = 104.72428 20.25644 128.94901
#
# Poissons Ratio (x) = 0.05640 0.41844
# Poissons Ratio (y) = 0.29159 0.84887
# Poissons Ratio (z) = 0.33983 0.13335
#
# Static dielectric constant tensor:
#      x y z
#    x 3.668800 0.000000 0.000000 
#    y 0.000000 3.274690 0.000000 
#    z 0.000000 0.000000 4.027580 
# 
# 
# High freq. dielectric constant tensor:
#      x y z
#    x 1.749620 0.000000 0.000000 
#    y 0.000000 1.733330 0.000000 
#    z 0.000000 0.000000 1.783000 
# 
# From -- ./inp_files/56484.got.cif
#   From: 2010.03.12/outbox.cif.g09.slc.cpg/sg65_29_cif.got.tgz:56484.got - 2010.04.10 20:52:16.
