data_PCOD8265259
_publ_section_title
;
Structure prediction by ZEFSAII (Michael W. Deem and Ramdas Pophale) SiO2 
 PCOD8265259
Probable space group: C M M M
;
_chemical_formula_sum "Si O2"
_cell_formula_units_Z 88
_cell_length_a 27.960345
_cell_length_b 24.854830
_cell_length_c 9.159901
_cell_angle_alpha 90.000000
_cell_angle_beta 90.000000
_cell_angle_gamma 90.000000
_cell_volume 6365.669735
_symmetry_space_group_name_H-M "C M M M"
_symmetry_group_IT_number 65
_symmetry_cell_setting 'orthorhombic'
loop_
_space_group_symop_operation_xyz
x,y,z
-x,-y,z
x,-y,-z
-x,y,-z
-x,-y,-z
x,y,-z
-x,y,z
x,-y,z
1/2+x,1/2+y,z
1/2-x,1/2-y,z
1/2+x,1/2-y,-z
1/2-x,1/2+y,-z
1/2-x,1/2-y,-z
1/2+x,1/2+y,-z
1/2-x,1/2+y,z
1/2+x,1/2-y,z
loop_
_atom_site_type_symbol
_atom_site_label
_atom_site_fract_x
_atom_site_fract_y
_atom_site_fract_z
Si Si1 0.763584 0.187616 0.335949
Si Si2 0.000000 0.559904 0.327152
Si Si3 0.850650 0.213259 0.837982
Si Si4 0.552970 0.755210 0.831566
Si Si5 0.325303 0.838427 0.835152
Si Si6 0.417555 0.138993 0.326577
O O1 0.763561 0.165385 0.500000
O O2 0.750000 0.250000 0.331041
O O3 0.816984 0.179846 0.271190
O O4 0.725838 0.152911 0.242817
O O5 0.000000 0.500000 0.258804
O O6 0.000000 0.557026 0.500000
O O7 0.047798 0.590731 0.276091
O O8 0.906973 0.209683 0.793481
O O9 0.838047 0.275966 0.833229
O O10 0.841771 0.190141 0.000000
O O11 0.500000 0.730296 0.809770
O O12 0.558336 0.805968 0.726379
O O13 0.560830 0.773956 0.000000
O O14 0.366020 0.870962 0.747578
O O15 0.321902 0.860503 0.000000
O O16 0.410878 0.141865 0.500000
#
# Coordination Sequence:
#
# PCOD8265259 Si02
#       6
#    16   8  16  16  16  16
#     4   9  15  22  32  47  64  81 101 126 152 184
#     4   9  18  30  41  53  69  87 105 131 171 213
#     4   8  14  22  31  44  62  85 106 125 154 190
#     4   9  16  25  36  48  65  87 109 134 164 197
#     4   9  16  25  36  48  63  82  99 122 156 195
#     4  10  17  26  39  53  64  78 103 133 162 198
#
# _framework density 13.824154
#
# number of rings (size 3 to 8) (size 9 to 14) (size 15 to 20)
#    0.000    3.000    0.909    2.727    0.000    6.545 
#    0.000    0.000    0.000    4.364    0.000    0.000 
#    0.000    0.000    0.000    0.000    0.000    0.000 
#
# Total GULP energy -545284.100968 kJ/mol
# GULP energy per Si atom -12392.820477 kJ/mol
# Density = 1.379269 g / cm^3
# Si number density = 13.824154 Si / 1000 Ang^3
#
#
#
# Elastic Constant Matrix: (Units=GPa)
#
#
# Indices 1 2 3 4 5 6 
#
# 1 148.2806 27.7987 62.1839 0.0000 0.0000 0.0000
# 2 27.7987 17.0916 17.1291 0.0000 0.0000 0.0000
# 3 62.1839 17.1291 93.0975 0.0000 0.0000 0.0000
# 4 0.0000 0.0000 0.0000 4.5535 0.0000 0.0000
# 5 0.0000 0.0000 0.0000 0.0000 25.6434 0.0000
# 6 0.0000 0.0000 0.0000 0.0000 0.0000 9.6085
#
#
#
# Elastic Compliance Matrix: (Units=1/GPa)
#
#
# Indices 1 2 3 4 5 6 
#
# 1 0.011422 -0.013403 -0.005163 0.000000 0.000000 0.000000
# 2 -0.013403 0.087463 -0.007140 0.000000 0.000000 0.000000
# 3 -0.005163 -0.007140 0.015504 0.000000 0.000000 0.000000
# 4 0.000000 0.000000 0.000000 0.219612 0.000000 0.000000
# 5 0.000000 0.000000 0.000000 0.000000 0.038996 0.000000
# 6 0.000000 0.000000 0.000000 0.000000 0.000000 0.104074
#
#
# Mechanical properties :
#
#
# Convention : Reuss Voigt Hill
#
# Bulk Modulus (GPa) = 15.87891 52.52145 34.20018
# Shear Modulus (GPa) = 9.09958 18.05162 13.57560
#
# Velocity S-wave (km/s) = 2.56840 3.61751 3.13712
# Velocity P-wave (km/s) = 4.50631 7.45141 6.15753
#
# Compressibility (1/GPa) = 0.06297660
#
# Stress axis : x y z
#
# Youngs Moduli (GPa) = 87.55121 11.43343 64.50001
#
# Poissons Ratio (x) = 0.15324 0.33303
# Poissons Ratio (y) = 1.17342 0.46054
# Poissons Ratio (z) = 0.45205 0.08164
#
# Static dielectric constant tensor:
#      x y z
#    x 3.142410 0.000000 0.000000 
#    y 0.000000 2.129490 0.000000 
#    z 0.000000 0.000000 2.840330 
# 
# 
# High freq. dielectric constant tensor:
#      x y z
#    x 1.546980 0.000000 0.000000 
#    y 0.000000 1.426630 0.000000 
#    z 0.000000 0.000000 1.536710 
# 
# From -- ./inp_files/14938.got.cif
#   From: 2010.03.12/outbox.cif.g09.slc.cpg/sg65_8_cif.got.tgz:14938.got - 2010.04.10 20:52:16.
