data_PCOD8265075
_publ_section_title
;
Structure prediction by ZEFSAII (Michael W. Deem and Ramdas Pophale) SiO2 
 PCOD8265075
Probable space group: C M M M
;
_chemical_formula_sum "Si O2"
_cell_formula_units_Z 72
_cell_length_a 8.589921
_cell_length_b 19.341686
_cell_length_c 23.495005
_cell_angle_alpha 90.000000
_cell_angle_beta 90.000000
_cell_angle_gamma 90.000000
_cell_volume 3903.543649
_symmetry_space_group_name_H-M "C M M M"
_symmetry_group_IT_number 65
_symmetry_cell_setting 'orthorhombic'
loop_
_space_group_symop_operation_xyz
x,y,z
-x,-y,z
x,-y,-z
-x,y,-z
-x,-y,-z
x,y,-z
-x,y,z
x,-y,z
1/2+x,1/2+y,z
1/2-x,1/2-y,z
1/2+x,1/2-y,-z
1/2-x,1/2+y,-z
1/2-x,1/2-y,-z
1/2+x,1/2+y,-z
1/2-x,1/2+y,z
1/2+x,1/2-y,z
loop_
_atom_site_type_symbol
_atom_site_label
_atom_site_fract_x
_atom_site_fract_y
_atom_site_fract_z
Si Si1 0.678827 0.420190 0.934519
Si Si2 0.816081 0.826977 0.271807
Si Si3 0.184195 0.672673 0.385755
Si Si4 0.684339 0.327324 0.500000
Si Si5 0.681243 0.174866 0.157118
O O1 0.500000 0.403057 0.919848
O O2 0.714998 0.500000 0.921993
O O3 0.791902 0.373950 0.896689
O O4 0.713903 0.402704 0.000000
O O5 0.750000 0.750000 0.268257
O O6 0.743046 0.864899 0.327725
O O7 0.761988 0.861542 0.212467
O O8 0.000000 0.827510 0.277791
O O9 0.250000 0.750000 0.383810
O O10 0.252127 0.635191 0.442573
O O11 0.000000 0.673137 0.388609
O O12 0.500000 0.327013 0.500000
O O13 0.750000 0.250000 0.500000
O O14 0.500000 0.182964 0.169656
O O15 0.750000 0.250000 0.143374
#
# Coordination Sequence:
#
# PCOD8265075 Si02
#       5
#    16  16  16   8  16
#     4   9  19  37  58  77  99 128 160 195 239 290
#     4  10  17  27  41  58  82 113 149 189 234 282
#     4  10  16  23  33  48  71 102 141 184 229 275
#     4  10  16  22  30  44  66  98 141 184 225 270
#     4  11  21  33  50  73 100 129 163 202 242 286
#
# _framework density 18.444780000000002
#
# number of rings (size 3 to 8) (size 9 to 14) (size 15 to 20)
#    0.000    2.000    0.000   11.667    0.000    1.333 
#    0.000    1.111    0.000    0.000    0.000    0.000 
#    0.000    0.000    0.000    1.000    0.000   19.556 
#
# Total GULP energy -446191.087506 kJ/mol
# GULP energy per Si atom -12394.196875 kJ/mol
# Density = 1.840280 g / cm^3
# Si number density = 18.444780 Si / 1000 Ang^3
#
#
#
# Elastic Constant Matrix: (Units=GPa)
#
#
# Indices 1 2 3 4 5 6 
#
# 1 170.1445 19.6067 59.7872 0.0000 0.0000 0.0000
# 2 19.6067 26.9252 36.9999 0.0000 0.0000 0.0000
# 3 59.7872 36.9999 156.4996 0.0000 0.0000 0.0000
# 4 0.0000 0.0000 0.0000 -0.8331 0.0000 0.0000
# 5 0.0000 0.0000 0.0000 0.0000 39.1849 0.0000
# 6 0.0000 0.0000 0.0000 0.0000 0.0000 14.5293
#
#
#
# Elastic Compliance Matrix: (Units=1/GPa)
#
#
# Indices 1 2 3 4 5 6 
#
# 1 0.006865 -0.002067 -0.002134 0.000000 0.000000 0.000000
# 2 -0.002067 0.055635 -0.012364 0.000000 0.000000 0.000000
# 3 -0.002134 -0.012364 0.010128 0.000000 0.000000 0.000000
# 4 0.000000 0.000000 0.000000 -1.200385 0.000000 0.000000
# 5 0.000000 0.000000 0.000000 0.000000 0.025520 0.000000
# 6 0.000000 0.000000 0.000000 0.000000 0.000000 0.068826
#
#
# Mechanical properties :
#
#
# Convention : Reuss Voigt Hill
#
# Bulk Modulus (GPa) = 25.31698 65.15076 45.23387
# Shear Modulus (GPa) = -5.06527 26.38795 10.66134
#
# Velocity S-wave (km/s) = -1.65896 3.78649 2.40680
# Velocity P-wave (km/s) = 3.17586 7.38346 5.68338
#
# Compressibility (1/GPa) = 0.03949918
#
# Stress axis : x y z
#
# Youngs Moduli (GPa) = 145.65706 17.97443 98.73452
#
# Poissons Ratio (x) = 0.03715 0.21072
# Poissons Ratio (y) = 0.30101 1.22073
# Poissons Ratio (z) = 0.31086 0.22223
#
# Static dielectric constant tensor:
#      x y z
#    x 3.412450 0.000000 0.000000 
#    y 0.000000 2.667140 0.000000 
#    z 0.000000 0.000000 4.994030 
# 
# 
# High freq. dielectric constant tensor:
#      x y z
#    x 1.732960 0.000000 0.000000 
#    y 0.000000 1.620770 0.000000 
#    z 0.000000 0.000000 1.752910 
# 
# From -- ./inp_files/67963.got.cif
#   From: 2010.03.12/outbox.cif.g09.slc.cpg/sg65_34_cif.got.tgz:67963.got - 2010.04.10 20:52:16.
