data_PCOD8265707
_publ_section_title
;
Structure prediction by ZEFSAII (Michael W. Deem and Ramdas Pophale) SiO2 
 PCOD8265707
Probable space group: C M M M
;
_chemical_formula_sum "Si O2"
_cell_formula_units_Z 88
_cell_length_a 23.368311
_cell_length_b 30.478340
_cell_length_c 9.132081
_cell_angle_alpha 90.000000
_cell_angle_beta 90.000000
_cell_angle_gamma 90.000000
_cell_volume 6504.117649
_symmetry_space_group_name_H-M "C M M M"
_symmetry_group_IT_number 65
_symmetry_cell_setting 'orthorhombic'
loop_
_space_group_symop_operation_xyz
x,y,z
-x,-y,z
x,-y,-z
-x,y,-z
-x,-y,-z
x,y,-z
-x,y,z
x,-y,z
1/2+x,1/2+y,z
1/2-x,1/2-y,z
1/2+x,1/2-y,-z
1/2-x,1/2+y,-z
1/2-x,1/2-y,-z
1/2+x,1/2+y,-z
1/2-x,1/2+y,z
1/2+x,1/2-y,z
loop_
_atom_site_type_symbol
_atom_site_label
_atom_site_fract_x
_atom_site_fract_y
_atom_site_fract_z
Si Si1 0.000000 0.259319 0.666202
Si Si2 0.383431 0.749934 0.172572
Si Si3 0.064976 0.500000 0.173112
Si Si4 0.285829 0.705734 0.335143
Si Si5 0.188892 0.335139 0.168169
Si Si6 0.898657 0.593497 0.830253
Si Si7 0.500000 0.137252 0.663431
O O1 0.055806 0.242625 0.750994
O O2 0.000000 0.240867 0.500000
O O3 0.000000 0.311100 0.663672
O O4 0.342012 0.712231 0.236663
O O5 0.358041 0.798083 0.210032
O O6 0.390365 0.743168 0.000000
O O7 0.099930 0.543055 0.226124
O O8 0.000000 0.500000 0.237546
O O9 0.060895 0.500000 0.000000
O O10 0.303234 0.692251 0.500000
O O11 0.250000 0.750000 0.334817
O O12 0.245807 0.667948 0.266105
O O13 0.162795 0.383676 0.195854
O O14 0.207015 0.328474 0.000000
O O15 0.944100 0.621431 0.743990
O O16 0.915848 0.595749 0.000000
O O17 0.500000 0.118114 0.500000
#
# Coordination Sequence:
#
# PCOD8265707 Si02
#       7
#     8  16   8  16  16  16   8
#     4  11  21  29  38  56  81 104 130 161 199 238
#     4  10  18  28  42  58  76  98 128 160 194 231
#     4   9  16  26  44  60  74  98 132 169 204 243
#     4   9  17  28  41  56  76  98 121 153 196 236
#     4   9  17  27  41  57  73  95 128 165 197 233
#     4  10  18  30  44  57  73  99 133 167 204 244
#     4  11  21  28  38  55  76 100 128 166 205 241
#
# _framework density 13.529890999999999
#
# number of rings (size 3 to 8) (size 9 to 14) (size 15 to 20)
#    0.000    2.273    2.727    1.636    0.000    4.364 
#    0.000    0.909    0.000    0.000    0.000    0.000 
#    0.000    0.000    0.000    0.000    0.000    0.909 
#
# Total GULP energy -545464.524401 kJ/mol
# GULP energy per Si atom -12396.921009 kJ/mol
# Density = 1.349910 g / cm^3
# Si number density = 13.529891 Si / 1000 Ang^3
#
#
#
# Elastic Constant Matrix: (Units=GPa)
#
#
# Indices 1 2 3 4 5 6 
#
# 1 90.5125 39.4941 50.2683 0.0000 0.0000 0.0000
# 2 39.4941 54.0764 25.3832 0.0000 0.0000 0.0000
# 3 50.2683 25.3832 78.7631 0.0000 0.0000 0.0000
# 4 0.0000 0.0000 0.0000 9.6231 0.0000 0.0000
# 5 0.0000 0.0000 0.0000 0.0000 8.6045 0.0000
# 6 0.0000 0.0000 0.0000 0.0000 0.0000 103.2070
#
#
#
# Elastic Compliance Matrix: (Units=1/GPa)
#
#
# Indices 1 2 3 4 5 6 
#
# 1 0.021456 -0.010890 -0.010184 0.000000 0.000000 0.000000
# 2 -0.010890 0.027315 -0.001853 0.000000 0.000000 0.000000
# 3 -0.010184 -0.001853 0.019793 0.000000 0.000000 0.000000
# 4 0.000000 0.000000 0.000000 0.103916 0.000000 0.000000
# 5 0.000000 0.000000 0.000000 0.000000 0.116218 0.000000
# 6 0.000000 0.000000 0.000000 0.000000 0.000000 0.009689
#
#
# Mechanical properties :
#
#
# Convention : Reuss Voigt Hill
#
# Bulk Modulus (GPa) = 44.03191 50.40479 47.21835
# Shear Modulus (GPa) = 14.21216 31.50070 22.85643
#
# Velocity S-wave (km/s) = 3.24454 4.83041 4.11460
# Velocity P-wave (km/s) = 6.83015 8.27319 7.58606
#
# Compressibility (1/GPa) = 0.02271080
#
# Stress axis : x y z
#
# Youngs Moduli (GPa) = 46.60772 36.60968 50.52255
#
# Poissons Ratio (x) = 0.39866 0.51452
# Poissons Ratio (y) = 0.50754 0.09362
# Poissons Ratio (z) = 0.47466 0.06784
#
# Static dielectric constant tensor:
#      x y z
#    x 2.740460 0.000000 0.000000 
#    y 0.000000 2.583550 0.000000 
#    z 0.000000 0.000000 2.817250 
# 
# 
# High freq. dielectric constant tensor:
#      x y z
#    x 1.500240 0.000000 0.000000 
#    y 0.000000 1.471550 0.000000 
#    z 0.000000 0.000000 1.523520 
# 
# From -- ./inp_files/12677.got.cif
#   From: 2010.03.12/outbox.cif.g09.slc.cpg/sg65_7_cif.got.tgz:12677.got - 2010.04.10 20:52:16.
