data_PCOD8265185
_publ_section_title
;
Structure prediction by ZEFSAII (Michael W. Deem and Ramdas Pophale) SiO2 
 PCOD8265185
Probable space group: C M M M
;
_chemical_formula_sum "Si O2"
_cell_formula_units_Z 128
_cell_length_a 20.058674
_cell_length_b 19.957435
_cell_length_c 19.313946
_cell_angle_alpha 90.000000
_cell_angle_beta 90.000000
_cell_angle_gamma 90.000000
_cell_volume 7731.752731
_symmetry_space_group_name_H-M "C M M M"
_symmetry_group_IT_number 65
_symmetry_cell_setting 'orthorhombic'
loop_
_space_group_symop_operation_xyz
x,y,z
-x,-y,z
x,-y,-z
-x,y,-z
-x,-y,-z
x,y,-z
-x,y,z
x,-y,z
1/2+x,1/2+y,z
1/2-x,1/2-y,z
1/2+x,1/2-y,-z
1/2-x,1/2+y,-z
1/2-x,1/2-y,-z
1/2+x,1/2+y,-z
1/2-x,1/2+y,z
1/2+x,1/2-y,z
loop_
_atom_site_type_symbol
_atom_site_label
_atom_site_fract_x
_atom_site_fract_y
_atom_site_fract_z
Si Si1 0.574210 0.209507 0.689031
Si Si2 0.708623 0.684783 0.183331
Si Si3 0.764179 0.075105 0.419094
Si Si4 0.807996 0.574670 0.829207
Si Si5 0.424478 0.127685 0.920432
Si Si6 0.859969 0.574616 0.322965
Si Si7 0.692158 0.299848 0.656449
Si Si8 0.925963 0.758243 0.158554
O O1 0.500000 0.230241 0.667379
O O2 0.584842 0.132076 0.667613
O O3 0.622873 0.260142 0.649069
O O4 0.585534 0.215554 0.771400
O O5 0.750000 0.750000 0.161208
O O6 0.747051 0.622601 0.148717
O O7 0.706966 0.677233 0.265718
O O8 0.632956 0.686845 0.153128
O O9 0.755096 0.086787 0.500000
O O10 0.692086 0.082885 0.384805
O O11 0.812918 0.132654 0.389335
O O12 0.792907 0.000000 0.403847
O O13 0.782398 0.500000 0.842369
O O14 0.874439 0.585502 0.873672
O O15 0.822428 0.587340 0.748875
O O16 0.500000 0.102924 0.904970
O O17 0.419200 0.206792 0.904654
O O18 0.405484 0.116155 0.000000
O O19 0.892565 0.500000 0.324325
O O20 0.750000 0.250000 0.629627
O O21 0.000000 0.792137 0.158398
#
# Coordination Sequence:
#
# PCOD8265185 Si02
#       8
#    16  16  16  16  16  16  16  16
#     4  10  18  30  49  75 102 128 164 210 252 293
#     4  10  16  29  51  73  97 127 164 210 259 294
#     4  10  20  33  51  76 103 130 166 211 254 299
#     4  11  20  31  49  73 100 133 172 212 250 294
#     4  10  20  34  50  71 105 143 172 202 244 298
#     4  10  18  31  49  72 102 135 170 204 243 297
#     4  10  17  30  50  74  99 128 163 207 255 296
#     4   9  17  30  49  71  98 131 171 210 249 298
#
# _framework density 16.555109000000002
#
# number of rings (size 3 to 8) (size 9 to 14) (size 15 to 20)
#    0.000    2.000    5.000    0.750    0.000    1.000 
#    0.000    3.125    0.000    2.250    0.000    6.125 
#    0.000    0.000    0.000    4.250    0.000    3.125 
#
# Total GULP energy -793404.060137 kJ/mol
# GULP energy per Si atom -12396.938440 kJ/mol
# Density = 1.651743 g / cm^3
# Si number density = 16.555109 Si / 1000 Ang^3
#
#
#
# Elastic Constant Matrix: (Units=GPa)
#
#
# Indices 1 2 3 4 5 6 
#
# 1 116.8679 65.1290 27.2189 0.0000 0.0000 0.0000
# 2 65.1290 107.4996 27.2659 0.0000 0.0000 0.0000
# 3 27.2189 27.2659 41.2041 0.0000 0.0000 0.0000
# 4 0.0000 0.0000 0.0000 9.7163 0.0000 0.0000
# 5 0.0000 0.0000 0.0000 0.0000 16.9942 0.0000
# 6 0.0000 0.0000 0.0000 0.0000 0.0000 23.2410
#
#
#
# Elastic Compliance Matrix: (Units=1/GPa)
#
#
# Indices 1 2 3 4 5 6 
#
# 1 0.013501 -0.007111 -0.004213 0.000000 0.000000 0.000000
# 2 -0.007111 0.014924 -0.005178 0.000000 0.000000 0.000000
# 3 -0.004213 -0.005178 0.030479 0.000000 0.000000 0.000000
# 4 0.000000 0.000000 0.000000 0.102920 0.000000 0.000000
# 5 0.000000 0.000000 0.000000 0.000000 0.058844 0.000000
# 6 0.000000 0.000000 0.000000 0.000000 0.000000 0.043027
#
#
# Mechanical properties :
#
#
# Convention : Reuss Voigt Hill
#
# Bulk Modulus (GPa) = 38.61066 56.08881 47.34973
# Shear Modulus (GPa) = 16.37564 19.72082 18.04823
#
# Velocity S-wave (km/s) = 3.14850 3.45515 3.30539
# Velocity P-wave (km/s) = 6.04901 7.06194 6.57501
#
# Compressibility (1/GPa) = 0.02589958
#
# Stress axis : x y z
#
# Youngs Moduli (GPa) = 74.07040 67.00666 32.80947
#
# Poissons Ratio (x) = 0.47648 0.13822
# Poissons Ratio (y) = 0.52671 0.16989
# Poissons Ratio (z) = 0.31205 0.34697
#
# Static dielectric constant tensor:
#      x y z
#    x 3.105290 0.000000 0.000000 
#    y 0.000000 3.148230 0.000000 
#    z 0.000000 0.000000 2.927470 
# 
# 
# High freq. dielectric constant tensor:
#      x y z
#    x 1.624260 0.000000 0.000000 
#    y 0.000000 1.629470 0.000000 
#    z 0.000000 0.000000 1.613960 
# 
# From -- ./inp_files/56221.got.cif
#   From: 2010.03.12/outbox.cif.g09.slc.cpg/sg65_29_cif.got.tgz:56221.got - 2010.04.10 20:52:16.
