data_PCOD8265475
_publ_section_title
;
Structure prediction by ZEFSAII (Michael W. Deem and Ramdas Pophale) SiO2 
 PCOD8265475
Probable space group: C M M M
;
_chemical_formula_sum "Si O2"
_cell_formula_units_Z 64
_cell_length_a 9.447198
_cell_length_b 23.870720
_cell_length_c 14.453980
_cell_angle_alpha 90.000000
_cell_angle_beta 90.000000
_cell_angle_gamma 90.000000
_cell_volume 3259.537529
_symmetry_space_group_name_H-M "C M M M"
_symmetry_group_IT_number 65
_symmetry_cell_setting 'orthorhombic'
loop_
_space_group_symop_operation_xyz
x,y,z
-x,-y,z
x,-y,-z
-x,y,-z
-x,-y,-z
x,y,-z
-x,y,z
x,-y,z
1/2+x,1/2+y,z
1/2-x,1/2-y,z
1/2+x,1/2-y,-z
1/2-x,1/2+y,-z
1/2-x,1/2-y,-z
1/2+x,1/2+y,-z
1/2-x,1/2+y,z
1/2+x,1/2-y,z
loop_
_atom_site_type_symbol
_atom_site_label
_atom_site_fract_x
_atom_site_fract_y
_atom_site_fract_z
Si Si1 0.655884 0.877577 0.895313
Si Si2 0.842158 0.000000 0.301941
Si Si3 0.667644 0.609807 0.396711
Si Si4 0.251296 0.500000 0.898171
Si Si5 0.332636 0.307387 0.241715
O O1 0.500000 0.857845 0.860953
O O2 0.781249 0.850751 0.835964
O O3 0.655623 0.944888 0.890051
O O4 0.680854 0.857308 0.000000
O O5 0.766590 0.944235 0.343069
O O6 0.854340 0.000000 0.190424
O O7 0.000000 0.000000 0.341234
O O8 0.732132 0.613644 0.500000
O O9 0.500000 0.604004 0.400515
O O10 0.706607 0.666263 0.341377
O O11 0.329568 0.500000 0.000000
O O12 0.500000 0.297926 0.229546
O O13 0.250000 0.250000 0.230172
#
# Coordination Sequence:
#
# PCOD8265475 Si02
#       5
#    16   8  16   8  16
#     4  10  21  38  60  86 117 154 191 228 279 342
#     4  10  17  30  53  86 120 151 184 228 285 342
#     4   9  18  33  55  83 114 149 189 233 284 343
#     4  10  19  32  55  88 119 150 186 226 279 344
#     4  11  23  39  59  84 113 149 195 242 290 336
#
# _framework density 19.634688000000001
#
# number of rings (size 3 to 8) (size 9 to 14) (size 15 to 20)
#    0.000    2.000    2.500    1.500    0.000    4.750 
#    0.000    2.500    0.000    2.250    0.000    1.750 
#    0.000    0.000    0.000    0.000    0.000    0.000 
#
# Total GULP energy -396564.558489 kJ/mol
# GULP energy per Si atom -12392.642453 kJ/mol
# Density = 1.959000 g / cm^3
# Si number density = 19.634688 Si / 1000 Ang^3
#
#
#
# Elastic Constant Matrix: (Units=GPa)
#
#
# Indices 1 2 3 4 5 6 
#
# 1 73.1279 41.4203 37.7303 0.0000 0.0000 0.0000
# 2 41.4203 118.7471 55.1855 0.0000 0.0000 0.0000
# 3 37.7303 55.1855 142.5579 0.0000 0.0000 0.0000
# 4 0.0000 0.0000 0.0000 19.6491 0.0000 0.0000
# 5 0.0000 0.0000 0.0000 0.0000 17.4665 0.0000
# 6 0.0000 0.0000 0.0000 0.0000 0.0000 18.1956
#
#
#
# Elastic Compliance Matrix: (Units=1/GPa)
#
#
# Indices 1 2 3 4 5 6 
#
# 1 0.017934 -0.004938 -0.002835 0.000000 0.000000 0.000000
# 2 -0.004938 0.011628 -0.003194 0.000000 0.000000 0.000000
# 3 -0.002835 -0.003194 0.009002 0.000000 0.000000 0.000000
# 4 0.000000 0.000000 0.000000 0.050893 0.000000 0.000000
# 5 0.000000 0.000000 0.000000 0.000000 0.057252 0.000000
# 6 0.000000 0.000000 0.000000 0.000000 0.000000 0.054958
#
#
# Mechanical properties :
#
#
# Convention : Reuss Voigt Hill
#
# Bulk Modulus (GPa) = 60.13576 67.01165 63.57371
# Shear Modulus (GPa) = 21.82010 24.40203 23.11107
#
# Velocity S-wave (km/s) = 3.33724 3.52916 3.43454
# Velocity P-wave (km/s) = 6.74858 7.12811 6.94094
#
# Compressibility (1/GPa) = 0.01662904
#
# Stress axis : x y z
#
# Youngs Moduli (GPa) = 55.75864 85.99699 111.09101
#
# Poissons Ratio (x) = 0.42467 0.31494
# Poissons Ratio (y) = 0.27535 0.35487
# Poissons Ratio (z) = 0.15808 0.27471
#
# Static dielectric constant tensor:
#      x y z
#    x 3.138100 0.000000 0.000000 
#    y 0.000000 3.617010 0.000000 
#    z 0.000000 0.000000 3.890490 
# 
# 
# High freq. dielectric constant tensor:
#      x y z
#    x 1.720800 0.000000 0.000000 
#    y 0.000000 1.770210 0.000000 
#    z 0.000000 0.000000 1.774710 
# 
# From -- ./inp_files/36002.got.cif
#   From: 2010.03.12/outbox.cif.g09.slc.cpg/sg65_19_cif.got.tgz:36002.got - 2010.04.10 20:52:16.
