data_PCOD8265238
_publ_section_title
;
Structure prediction by ZEFSAII (Michael W. Deem and Ramdas Pophale) SiO2 
 PCOD8265238
Probable space group: C M M M
;
_chemical_formula_sum "Si O2"
_cell_formula_units_Z 120
_cell_length_a 26.364542
_cell_length_b 22.979117
_cell_length_c 13.660206
_cell_angle_alpha 90.000000
_cell_angle_beta 90.000000
_cell_angle_gamma 90.000000
_cell_volume 8275.815811
_symmetry_space_group_name_H-M "C M M M"
_symmetry_group_IT_number 65
_symmetry_cell_setting 'orthorhombic'
loop_
_space_group_symop_operation_xyz
x,y,z
-x,-y,z
x,-y,-z
-x,y,-z
-x,-y,-z
x,y,-z
-x,y,z
x,-y,z
1/2+x,1/2+y,z
1/2-x,1/2-y,z
1/2+x,1/2-y,-z
1/2-x,1/2+y,-z
1/2-x,1/2-y,-z
1/2+x,1/2+y,-z
1/2-x,1/2+y,z
1/2+x,1/2-y,z
loop_
_atom_site_type_symbol
_atom_site_label
_atom_site_fract_x
_atom_site_fract_y
_atom_site_fract_z
Si Si1 0.094434 0.140665 0.616460
Si Si2 0.000000 0.064542 0.615781
Si Si3 0.799553 0.564794 0.615602
Si Si4 0.559980 0.823666 0.892319
Si Si5 0.941349 0.436710 0.790392
Si Si6 0.060354 0.260434 0.699198
Si Si7 0.900606 0.376290 0.386909
Si Si8 0.187711 0.065359 0.383731
O O1 0.093193 0.151241 0.500000
O O2 0.049618 0.098381 0.651344
O O3 0.087972 0.201174 0.672013
O O4 0.146607 0.111777 0.654507
O O5 0.000000 0.059522 0.500000
O O6 0.000000 0.000000 0.662386
O O7 0.796020 0.561450 0.500000
O O8 0.813167 0.500000 0.655716
O O9 0.842281 0.611384 0.647015
O O10 0.743778 0.584023 0.654527
O O11 0.500000 0.830491 0.896501
O O12 0.583271 0.886158 0.858337
O O13 0.573485 0.774252 0.812811
O O14 0.581581 0.807133 0.000000
O O15 0.915642 0.500000 0.809870
O O16 0.936179 0.418402 0.676797
O O17 0.000000 0.441960 0.815039
O O18 0.084638 0.309517 0.630006
O O19 0.000000 0.257006 0.680306
O O20 0.908611 0.392655 0.500000
O O21 0.185218 0.065219 0.500000
O O22 0.174822 0.000000 0.346237
#
# Coordination Sequence:
#
# PCOD8265238 Si02
#       8
#    16   8  16  16  16  16  16  16
#     4  10  17  25  38  57  83 112 135 157 190 231
#     4   9  16  24  36  56  81 109 138 159 181 225
#     4   8  14  25  39  53  70  99 140 176 201 223
#     4   8  15  28  43  55  70  96 129 165 202 240
#     4   9  17  26  36  55  79 100 128 168 208 241
#     4  10  19  29  39  55  80 107 136 165 194 233
#     4  10  18  26  37  52  76 112 144 164 185 222
#     4   8  14  25  40  56  76 103 134 168 201 229
#
# _framework density 14.500081
#
# number of rings (size 3 to 8) (size 9 to 14) (size 15 to 20)
#    0.000    3.000    0.667    3.200    0.000    4.267 
#    0.000    2.667    0.000    3.200    0.000    0.000 
#    0.000   11.200    0.000   12.000    0.000    1.067 
#
# Total GULP energy -743410.778763 kJ/mol
# GULP energy per Si atom -12390.179646 kJ/mol
# Density = 1.446708 g / cm^3
# Si number density = 14.500081 Si / 1000 Ang^3
#
#
#
# Elastic Constant Matrix: (Units=GPa)
#
#
# Indices 1 2 3 4 5 6 
#
# 1 58.6411 32.9598 7.6649 0.0000 0.0000 0.0000
# 2 32.9598 99.7422 20.9392 0.0000 0.0000 0.0000
# 3 7.6649 20.9392 53.7282 0.0000 0.0000 0.0000
# 4 0.0000 0.0000 0.0000 9.9385 0.0000 0.0000
# 5 0.0000 0.0000 0.0000 0.0000 4.6554 0.0000
# 6 0.0000 0.0000 0.0000 0.0000 0.0000 14.8182
#
#
#
# Elastic Compliance Matrix: (Units=1/GPa)
#
#
# Indices 1 2 3 4 5 6 
#
# 1 0.020948 -0.006856 -0.000317 0.000000 0.000000 0.000000
# 2 -0.006856 0.013163 -0.004152 0.000000 0.000000 0.000000
# 3 -0.000317 -0.004152 0.020275 0.000000 0.000000 0.000000
# 4 0.000000 0.000000 0.000000 0.100619 0.000000 0.000000
# 5 0.000000 0.000000 0.000000 0.000000 0.214805 0.000000
# 6 0.000000 0.000000 0.000000 0.000000 0.000000 0.067485
#
#
# Mechanical properties :
#
#
# Convention : Reuss Voigt Hill
#
# Bulk Modulus (GPa) = 31.50828 37.24882 34.37855
# Shear Modulus (GPa) = 10.62650 15.91892 13.27271
#
# Velocity S-wave (km/s) = 2.71007 3.31698 3.02876
# Velocity P-wave (km/s) = 5.61868 6.35722 5.99933
#
# Compressibility (1/GPa) = 0.03173769
#
# Stress axis : x y z
#
# Youngs Moduli (GPa) = 47.73827 75.97101 49.32067
#
# Poissons Ratio (x) = 0.52083 0.01561
# Poissons Ratio (y) = 0.32728 0.20477
# Poissons Ratio (z) = 0.01511 0.31542
#
# Static dielectric constant tensor:
#      x y z
#    x 2.945800 0.000000 0.000000 
#    y 0.000000 2.925220 0.000000 
#    z 0.000000 0.000000 2.625700 
# 
# 
# High freq. dielectric constant tensor:
#      x y z
#    x 1.538690 0.000000 0.000000 
#    y 0.000000 1.555690 0.000000 
#    z 0.000000 0.000000 1.505390 
# 
# From -- ./inp_files/46169.got.cif
#   From: 2010.03.12/outbox.cif.g09.slc.cpg/sg65_24_cif.got.tgz:46169.got - 2010.04.10 20:52:16.
