data_PCOD8265704
_publ_section_title
;
Structure prediction by ZEFSAII (Michael W. Deem and Ramdas Pophale) SiO2 
 PCOD8265704
Probable space group: C M M M
;
_chemical_formula_sum "Si O2"
_cell_formula_units_Z 104
_cell_length_a 25.552896
_cell_length_b 17.697286
_cell_length_c 13.672009
_cell_angle_alpha 90.000000
_cell_angle_beta 90.000000
_cell_angle_gamma 90.000000
_cell_volume 6182.713645
_symmetry_space_group_name_H-M "C M M M"
_symmetry_group_IT_number 65
_symmetry_cell_setting 'orthorhombic'
loop_
_space_group_symop_operation_xyz
x,y,z
-x,-y,z
x,-y,-z
-x,y,-z
-x,-y,-z
x,y,-z
-x,y,z
x,-y,z
1/2+x,1/2+y,z
1/2-x,1/2-y,z
1/2+x,1/2-y,-z
1/2-x,1/2+y,-z
1/2-x,1/2-y,-z
1/2+x,1/2+y,-z
1/2-x,1/2+y,z
1/2+x,1/2-y,z
loop_
_atom_site_type_symbol
_atom_site_label
_atom_site_fract_x
_atom_site_fract_y
_atom_site_fract_z
Si Si1 0.500000 0.912733 0.616823
Si Si2 0.555969 0.412841 0.196214
Si Si3 0.201352 0.912155 0.309289
Si Si4 0.403308 0.184327 0.387830
Si Si5 0.839586 0.089467 0.106573
Si Si6 0.786768 0.682273 0.615638
Si Si7 0.097049 0.143379 0.610000
O O1 0.500000 0.906367 0.500000
O O2 0.447668 0.870791 0.659018
O O3 0.500000 0.000000 0.651515
O O4 0.500000 0.374551 0.169414
O O5 0.552870 0.500000 0.169532
O O6 0.603275 0.375576 0.134720
O O7 0.565827 0.406776 0.312567
O O8 0.200328 0.889310 0.193626
O O9 0.258511 0.895364 0.352400
O O10 0.159360 0.863192 0.370477
O O11 0.187496 0.000000 0.322608
O O12 0.397248 0.160373 0.500000
O O13 0.345369 0.178046 0.338457
O O14 0.421929 0.270501 0.377492
O O15 0.844696 0.000000 0.100099
O O16 0.821966 0.121816 0.000000
O O17 0.791283 0.690910 0.500000
O O18 0.750000 0.750000 0.658124
O O19 0.084945 0.115199 0.500000
#
# Coordination Sequence:
#
# PCOD8265704 Si02
#       7
#     8  16  16  16  16  16  16
#     4   9  18  32  46  62  85 113 158 213 239 255
#     4   9  18  28  38  60  89 116 155 197 226 259
#     4  10  19  29  45  69  92 117 152 192 230 273
#     4   9  18  30  46  63  83 120 161 191 229 276
#     4   8  15  29  46  62  84 115 148 185 232 281
#     4  10  18  30  45  66  95 127 159 188 226 279
#     4  10  18  28  41  60  89 125 157 181 216 276
#
# _framework density 16.821093000000001
#
# number of rings (size 3 to 8) (size 9 to 14) (size 15 to 20)
#    0.000    2.692    1.538    1.846    1.077    3.385 
#    0.000    3.846    0.000    0.462    0.000    0.000 
#    0.000    0.000    0.000    0.154    0.000   23.308 
#
# Total GULP energy -644217.639295 kJ/mol
# GULP energy per Si atom -12388.800756 kJ/mol
# Density = 1.678281 g / cm^3
# Si number density = 16.821093 Si / 1000 Ang^3
#
#
#
# Elastic Constant Matrix: (Units=GPa)
#
#
# Indices 1 2 3 4 5 6 
#
# 1 100.7306 27.7271 -2.5522 0.0000 0.0000 0.0000
# 2 27.7271 49.9147 9.5928 0.0000 0.0000 0.0000
# 3 -2.5522 9.5928 38.7732 0.0000 0.0000 0.0000
# 4 0.0000 0.0000 0.0000 4.9600 0.0000 0.0000
# 5 0.0000 0.0000 0.0000 0.0000 10.0885 0.0000
# 6 0.0000 0.0000 0.0000 0.0000 0.0000 23.5784
#
#
#
# Elastic Compliance Matrix: (Units=1/GPa)
#
#
# Indices 1 2 3 4 5 6 
#
# 1 0.011955 -0.007131 0.002551 0.000000 0.000000 0.000000
# 2 -0.007131 0.025288 -0.006726 0.000000 0.000000 0.000000
# 3 0.002551 -0.006726 0.027623 0.000000 0.000000 0.000000
# 4 0.000000 0.000000 0.000000 0.201612 0.000000 0.000000
# 5 0.000000 0.000000 0.000000 0.000000 0.099123 0.000000
# 6 0.000000 0.000000 0.000000 0.000000 0.000000 0.042412
#
#
# Mechanical properties :
#
#
# Convention : Reuss Voigt Hill
#
# Bulk Modulus (GPa) = 23.66618 28.77267 26.21943
# Shear Modulus (GPa) = 11.24330 18.03543 14.63937
#
# Velocity S-wave (km/s) = 2.58816 3.27799 2.95328
# Velocity P-wave (km/s) = 4.79909 5.60974 5.22018
#
# Compressibility (1/GPa) = 0.04225438
#
# Stress axis : x y z
#
# Youngs Moduli (GPa) = 83.64671 39.54433 36.20176
#
# Poissons Ratio (x) = 0.28200 -0.09236
# Poissons Ratio (y) = 0.59650 0.24349
# Poissons Ratio (z) = -0.21340 0.26597
#
# Static dielectric constant tensor:
#      x y z
#    x 3.422920 0.000000 0.000000 
#    y 0.000000 2.897040 0.000000 
#    z 0.000000 0.000000 3.038250 
# 
# 
# High freq. dielectric constant tensor:
#      x y z
#    x 1.650590 0.000000 0.000000 
#    y 0.000000 1.616210 0.000000 
#    z 0.000000 0.000000 1.605000 
# 
# From -- ./inp_files/47182.got.cif
#   From: 2010.03.12/outbox.cif.g09.slc.cpg/sg65_24_cif.got.tgz:47182.got - 2010.04.10 20:52:16.
