data_PCOD8265626
_publ_section_title
;
Structure prediction by ZEFSAII (Michael W. Deem and Ramdas Pophale) SiO2 
 PCOD8265626
Probable space group: C M M M
;
_chemical_formula_sum "Si O2"
_cell_formula_units_Z 88
_cell_length_a 26.402347
_cell_length_b 32.329294
_cell_length_c 7.802213
_cell_angle_alpha 90.000000
_cell_angle_beta 90.000000
_cell_angle_gamma 90.000000
_cell_volume 6659.729009
_symmetry_space_group_name_H-M "C M M M"
_symmetry_group_IT_number 65
_symmetry_cell_setting 'orthorhombic'
loop_
_space_group_symop_operation_xyz
x,y,z
-x,-y,z
x,-y,-z
-x,y,-z
-x,-y,-z
x,y,-z
-x,y,z
x,-y,z
1/2+x,1/2+y,z
1/2-x,1/2-y,z
1/2+x,1/2-y,-z
1/2-x,1/2+y,-z
1/2-x,1/2-y,-z
1/2+x,1/2+y,-z
1/2-x,1/2+y,z
1/2+x,1/2-y,z
loop_
_atom_site_type_symbol
_atom_site_label
_atom_site_fract_x
_atom_site_fract_y
_atom_site_fract_z
Si Si1 0.669585 0.345144 0.802660
Si Si2 0.889549 0.238363 0.192128
Si Si3 0.000000 0.772276 0.305526
Si Si4 0.732329 0.315398 0.500000
Si Si5 0.094024 0.085774 0.800402
Si Si6 0.671027 0.231485 0.500000
Si Si7 0.943508 0.000000 0.695468
Si Si8 0.000000 0.136464 0.205447
O O1 0.627260 0.309305 0.775410
O O2 0.716597 0.339405 0.673653
O O3 0.645551 0.389750 0.754252
O O4 0.688935 0.344476 0.000000
O O5 0.862978 0.268743 0.328487
O O6 0.949827 0.243538 0.209373
O O7 0.873644 0.251920 0.000000
O O8 0.000000 0.821288 0.306917
O O9 0.000000 0.755882 0.500000
O O10 0.705655 0.271508 0.500000
O O11 0.793087 0.309096 0.500000
O O12 0.092386 0.038888 0.736469
O O13 0.047511 0.111101 0.723292
O O14 0.086132 0.084906 0.000000
O O15 0.956613 0.000000 0.500000
O O16 0.000000 0.000000 0.788576
O O17 0.000000 0.144428 0.000000
#
# Coordination Sequence:
#
# PCOD8265626 Si02
#       8
#    16  16   8   8  16   8   8   8
#     4   9  18  29  44  62  73  95 129 159 198 239
#     4  10  18  29  42  58  82 102 124 156 187 228
#     4  12  20  26  39  60  83 104 130 157 190 233
#     4   9  18  30  46  55  79  94 114 161 196 238
#     4  10  19  31  43  54  72  97 130 162 196 243
#     4   9  18  31  40  62  74  97 126 143 195 244
#     4  11  23  31  37  55  77  99 129 159 201 251
#     4  10  18  27  41  56  69  97 131 160 193 233
#
# _framework density 13.213751
#
# number of rings (size 3 to 8) (size 9 to 14) (size 15 to 20)
#    0.000    2.091    3.636    1.091    1.273    1.818 
#    0.000    3.636    0.000    0.000    0.000    0.000 
#    0.000    0.000    0.000    0.000    0.000    0.000 
#
# Total GULP energy -545327.603158 kJ/mol
# GULP energy per Si atom -12393.809163 kJ/mol
# Density = 1.318368 g / cm^3
# Si number density = 13.213751 Si / 1000 Ang^3
#
#
#
# Elastic Constant Matrix: (Units=GPa)
#
#
# Indices 1 2 3 4 5 6 
#
# 1 74.2721 39.7809 41.7350 0.0000 0.0000 0.0000
# 2 39.7809 45.7626 32.5047 0.0000 0.0000 0.0000
# 3 41.7350 32.5047 71.1670 0.0000 0.0000 0.0000
# 4 0.0000 0.0000 0.0000 14.6687 0.0000 0.0000
# 5 0.0000 0.0000 0.0000 0.0000 15.7207 0.0000
# 6 0.0000 0.0000 0.0000 0.0000 0.0000 15.0656
#
#
#
# Elastic Compliance Matrix: (Units=1/GPa)
#
#
# Indices 1 2 3 4 5 6 
#
# 1 0.027846 -0.018661 -0.007806 0.000000 0.000000 0.000000
# 2 -0.018661 0.044851 -0.009542 0.000000 0.000000 0.000000
# 3 -0.007806 -0.009542 0.022988 0.000000 0.000000 0.000000
# 4 0.000000 0.000000 0.000000 0.068172 0.000000 0.000000
# 5 0.000000 0.000000 0.000000 0.000000 0.063610 0.000000
# 6 0.000000 0.000000 0.000000 0.000000 0.000000 0.066376
#
#
# Mechanical properties :
#
#
# Convention : Reuss Voigt Hill
#
# Bulk Modulus (GPa) = 42.25504 46.58254 44.41879
# Shear Modulus (GPa) = 13.37791 14.23642 13.80717
#
# Velocity S-wave (km/s) = 3.18531 3.28593 3.23601
# Velocity P-wave (km/s) = 6.75098 7.05167 6.90296
#
# Compressibility (1/GPa) = 0.02366581
#
# Stress axis : x y z
#
# Youngs Moduli (GPa) = 35.91228 22.29598 43.50179
#
# Poissons Ratio (x) = 0.41607 0.33960
# Poissons Ratio (y) = 0.67016 0.41508
# Poissons Ratio (z) = 0.28035 0.21274
#
# Static dielectric constant tensor:
#      x y z
#    x 2.470380 0.000000 0.000000 
#    y 0.000000 2.354030 0.000000 
#    z 0.000000 0.000000 2.748570 
# 
# 
# High freq. dielectric constant tensor:
#      x y z
#    x 1.473430 0.000000 0.000000 
#    y 0.000000 1.452500 0.000000 
#    z 0.000000 0.000000 1.519620 
# 
# From -- ./inp_files/15027.got.cif
#   From: 2010.03.12/outbox.cif.g09.slc.cpg/sg65_8_cif.got.tgz:15027.got - 2010.04.10 20:52:16.
