data_PCOD8265539
_publ_section_title
;
Structure prediction by ZEFSAII (Michael W. Deem and Ramdas Pophale) SiO2 
 PCOD8265539
Probable space group: C M M M
;
_chemical_formula_sum "Si O2"
_cell_formula_units_Z 88
_cell_length_a 28.521723
_cell_length_b 15.651968
_cell_length_c 14.414959
_cell_angle_alpha 90.000000
_cell_angle_beta 90.000000
_cell_angle_gamma 90.000000
_cell_volume 6435.141791
_symmetry_space_group_name_H-M "C M M M"
_symmetry_group_IT_number 65
_symmetry_cell_setting 'orthorhombic'
loop_
_space_group_symop_operation_xyz
x,y,z
-x,-y,z
x,-y,-z
-x,y,-z
-x,-y,-z
x,y,-z
-x,y,z
x,-y,z
1/2+x,1/2+y,z
1/2-x,1/2-y,z
1/2+x,1/2-y,-z
1/2-x,1/2+y,-z
1/2-x,1/2-y,-z
1/2+x,1/2+y,-z
1/2-x,1/2+y,z
1/2+x,1/2-y,z
loop_
_atom_site_type_symbol
_atom_site_label
_atom_site_fract_x
_atom_site_fract_y
_atom_site_fract_z
Si Si1 0.055164 0.170009 0.290743
Si Si2 0.055157 0.000000 0.602485
Si Si3 0.198681 0.905039 0.390167
Si Si4 0.303449 0.094685 0.390063
Si Si5 0.055520 0.904595 0.101652
Si Si6 0.365458 0.250340 0.389475
O O1 0.071172 0.159701 0.183261
O O2 0.084027 0.246776 0.338526
O O3 0.000000 0.189653 0.300909
O O4 0.070759 0.083958 0.343310
O O5 0.078948 0.000000 0.500000
O O6 0.000000 0.000000 0.591653
O O7 0.201186 0.899489 0.500000
O O8 0.251126 0.888239 0.350683
O O9 0.164066 0.832051 0.353314
O O10 0.181149 0.000000 0.359679
O O11 0.301462 0.101579 0.500000
O O12 0.339599 0.165320 0.352637
O O13 0.320590 0.000000 0.359705
O O14 0.000000 0.912362 0.106115
O O15 0.076188 0.000000 0.117682
O O16 0.071512 0.869905 0.000000
O O17 0.372694 0.250104 0.500000
#
# Coordination Sequence:
#
# PCOD8265539 Si02
#       6
#    16   8  16  16  16  16
#     4  10  18  26  34  49  74 102 130 154 176 210
#     4   9  16  24  31  41  67 107 134 144 161 197
#     4   8  14  23  35  52  73  95 121 154 188 220
#     4   8  14  26  40  51  66  92 128 167 198 216
#     4   8  13  23  38  51  64  89 126 161 189 215
#     4  10  18  24  35  53  75 104 131 152 178 218
#
# _framework density 13.674913
#
# number of rings (size 3 to 8) (size 9 to 14) (size 15 to 20)
#    0.000    3.182    0.909    2.727    1.273    3.273 
#    0.000    0.000    0.000    0.545    0.000    2.545 
#    0.000    3.636    0.000    8.545    0.000    0.364 
#
# Total GULP energy -545165.541113 kJ/mol
# GULP energy per Si atom -12390.125934 kJ/mol
# Density = 1.364379 g / cm^3
# Si number density = 13.674913 Si / 1000 Ang^3
#
#
#
# Elastic Constant Matrix: (Units=GPa)
#
#
# Indices 1 2 3 4 5 6 
#
# 1 57.2304 41.2580 22.1454 0.0000 0.0000 0.0000
# 2 41.2580 73.6582 19.4322 0.0000 0.0000 0.0000
# 3 22.1454 19.4322 56.9166 0.0000 0.0000 0.0000
# 4 0.0000 0.0000 0.0000 8.4309 0.0000 0.0000
# 5 0.0000 0.0000 0.0000 0.0000 4.8794 0.0000
# 6 0.0000 0.0000 0.0000 0.0000 0.0000 21.2675
#
#
#
# Elastic Compliance Matrix: (Units=1/GPa)
#
#
# Indices 1 2 3 4 5 6 
#
# 1 0.031573 -0.015874 -0.006865 0.000000 0.000000 0.000000
# 2 -0.015874 0.022901 -0.001642 0.000000 0.000000 0.000000
# 3 -0.006865 -0.001642 0.020801 0.000000 0.000000 0.000000
# 4 0.000000 0.000000 0.000000 0.118612 0.000000 0.000000
# 5 0.000000 0.000000 0.000000 0.000000 0.204944 0.000000
# 6 0.000000 0.000000 0.000000 0.000000 0.000000 0.047020
#
#
# Mechanical properties :
#
#
# Convention : Reuss Voigt Hill
#
# Bulk Modulus (GPa) = 37.71771 39.27516 38.49644
# Shear Modulus (GPa) = 9.93142 13.91352 11.92247
#
# Velocity S-wave (km/s) = 2.69783 3.19321 2.95591
# Velocity P-wave (km/s) = 6.11113 6.50987 6.31365
#
# Compressibility (1/GPa) = 0.02651274
#
# Stress axis : x y z
#
# Youngs Moduli (GPa) = 31.67217 43.66621 48.07364
#
# Poissons Ratio (x) = 0.69316 0.33003
# Poissons Ratio (y) = 0.50277 0.07896
# Poissons Ratio (z) = 0.21743 0.07172
#
# Static dielectric constant tensor:
#      x y z
#    x 2.653490 0.000000 0.000000 
#    y 0.000000 2.729790 0.000000 
#    z 0.000000 0.000000 2.593190 
# 
# 
# High freq. dielectric constant tensor:
#      x y z
#    x 1.507930 0.000000 0.000000 
#    y 0.000000 1.498950 0.000000 
#    z 0.000000 0.000000 1.476180 
# 
# From -- ./inp_files/46888.got.cif
#   From: 2010.03.12/outbox.cif.g09.slc.cpg/sg65_24_cif.got.tgz:46888.got - 2010.04.10 20:52:16.
