data_PCOD8265766
_publ_section_title
;
Structure prediction by ZEFSAII (Michael W. Deem and Ramdas Pophale) SiO2 
 PCOD8265766
Probable space group: C M M M
;
_chemical_formula_sum "Si O2"
_cell_formula_units_Z 96
_cell_length_a 28.781746
_cell_length_b 25.632400
_cell_length_c 9.014298
_cell_angle_alpha 90.000000
_cell_angle_beta 90.000000
_cell_angle_gamma 90.000000
_cell_volume 6650.255317
_symmetry_space_group_name_H-M "C M M M"
_symmetry_group_IT_number 65
_symmetry_cell_setting 'orthorhombic'
loop_
_space_group_symop_operation_xyz
x,y,z
-x,-y,z
x,-y,-z
-x,y,-z
-x,-y,-z
x,y,-z
-x,y,z
x,-y,z
1/2+x,1/2+y,z
1/2-x,1/2-y,z
1/2+x,1/2-y,-z
1/2-x,1/2+y,-z
1/2-x,1/2-y,-z
1/2+x,1/2+y,-z
1/2-x,1/2+y,z
1/2+x,1/2-y,z
loop_
_atom_site_type_symbol
_atom_site_label
_atom_site_fract_x
_atom_site_fract_y
_atom_site_fract_z
Si Si1 0.141205 0.756905 0.674609
Si Si2 0.806671 0.851785 0.175239
Si Si3 0.051973 0.777878 0.828479
Si Si4 0.552462 0.600146 0.829276
Si Si5 0.725727 0.194180 0.336096
Si Si6 0.860429 0.939925 0.329804
O O1 0.142745 0.768238 0.500000
O O2 0.160135 0.807691 0.758179
O O3 0.088811 0.745899 0.729211
O O4 0.172439 0.705681 0.713316
O O5 0.752815 0.843516 0.222924
O O6 0.823813 0.907567 0.232613
O O7 0.810363 0.849685 0.000000
O O8 0.057583 0.838869 0.794994
O O9 0.000000 0.759557 0.785186
O O10 0.061736 0.766020 0.000000
O O11 0.500000 0.581635 0.795248
O O12 0.586944 0.568095 0.725409
O O13 0.565165 0.589003 0.000000
O O14 0.727358 0.168587 0.500000
O O15 0.750000 0.250000 0.340838
O O16 0.857383 0.921770 0.500000
O O17 0.846645 0.000000 0.311904
#
# Coordination Sequence:
#
# PCOD8265766 Si02
#       6
#    16  16  16  16  16  16
#     4  10  18  28  44  64  84 106 132 163 200 241
#     4  11  20  30  45  62  80 102 130 166 204 246
#     4   9  17  28  42  61  84 109 136 167 205 245
#     4   9  18  32  47  61  77 100 131 169 214 255
#     4   8  16  29  43  61  84 105 126 157 198 241
#     4  11  23  35  46  60  78 102 133 170 213 256
#
# _framework density 14.435536000000001
#
# number of rings (size 3 to 8) (size 9 to 14) (size 15 to 20)
#    0.000    2.333    1.667    4.500    0.000    6.000 
#    0.000    3.333    0.000    0.000    0.000    0.000 
#    0.000    0.000    0.000    0.000    0.000    0.833 
#
# Total GULP energy -595064.304114 kJ/mol
# GULP energy per Si atom -12397.173002 kJ/mol
# Density = 1.440268 g / cm^3
# Si number density = 14.435536 Si / 1000 Ang^3
#
#
#
# Elastic Constant Matrix: (Units=GPa)
#
#
# Indices 1 2 3 4 5 6 
#
# 1 104.3093 40.8825 58.8275 0.0000 0.0000 0.0000
# 2 40.8825 35.7963 33.3708 0.0000 0.0000 0.0000
# 3 58.8275 33.3708 97.5773 0.0000 0.0000 0.0000
# 4 0.0000 0.0000 0.0000 12.6716 0.0000 0.0000
# 5 0.0000 0.0000 0.0000 0.0000 27.3552 0.0000
# 6 0.0000 0.0000 0.0000 0.0000 0.0000 17.9518
#
#
#
# Elastic Compliance Matrix: (Units=1/GPa)
#
#
# Indices 1 2 3 4 5 6 
#
# 1 0.019546 -0.016644 -0.006092 0.000000 0.000000 0.000000
# 2 -0.016644 0.055184 -0.008838 0.000000 0.000000 0.000000
# 3 -0.006092 -0.008838 0.016943 0.000000 0.000000 0.000000
# 4 0.000000 0.000000 0.000000 0.078917 0.000000 0.000000
# 5 0.000000 0.000000 0.000000 0.000000 0.036556 0.000000
# 6 0.000000 0.000000 0.000000 0.000000 0.000000 0.055705
#
#
# Mechanical properties :
#
#
# Convention : Reuss Voigt Hill
#
# Bulk Modulus (GPa) = 35.05634 55.98271 45.51952
# Shear Modulus (GPa) = 14.90280 18.56920 16.73600
#
# Velocity S-wave (km/s) = 3.21654 3.59047 3.40863
# Velocity P-wave (km/s) = 6.17513 7.48692 6.86244
#
# Compressibility (1/GPa) = 0.02852551
#
# Stress axis : x y z
#
# Youngs Moduli (GPa) = 51.16187 18.12113 59.02008
#
# Poissons Ratio (x) = 0.30161 0.35953
# Poissons Ratio (y) = 0.85155 0.52163
# Poissons Ratio (z) = 0.31166 0.16016
#
# Static dielectric constant tensor:
#      x y z
#    x 3.153890 0.000000 0.000000 
#    y 0.000000 2.460950 0.000000 
#    z 0.000000 0.000000 2.875830 
# 
# 
# High freq. dielectric constant tensor:
#      x y z
#    x 1.553000 0.000000 0.000000 
#    y 0.000000 1.491670 0.000000 
#    z 0.000000 0.000000 1.561770 
# 
# From -- ./inp_files/16921.got.cif
#   From: 2010.03.12/outbox.cif.g09.slc.cpg/sg65_9_cif.got.tgz:16921.got - 2010.04.10 20:52:16.
