data_PCOD8265344
_publ_section_title
;
Structure prediction by ZEFSAII (Michael W. Deem and Ramdas Pophale) SiO2 
 PCOD8265344
Probable space group: C M M M
;
_chemical_formula_sum "Si O2"
_cell_formula_units_Z 80
_cell_length_a 13.881858
_cell_length_b 25.904959
_cell_length_c 13.873304
_cell_angle_alpha 90.000000
_cell_angle_beta 90.000000
_cell_angle_gamma 90.000000
_cell_volume 4988.964456
_symmetry_space_group_name_H-M "C M M M"
_symmetry_group_IT_number 65
_symmetry_cell_setting 'orthorhombic'
loop_
_space_group_symop_operation_xyz
x,y,z
-x,-y,z
x,-y,-z
-x,y,-z
-x,-y,-z
x,y,-z
-x,y,z
x,-y,z
1/2+x,1/2+y,z
1/2-x,1/2-y,z
1/2+x,1/2-y,-z
1/2-x,1/2+y,-z
1/2-x,1/2-y,-z
1/2+x,1/2+y,-z
1/2-x,1/2+y,z
1/2+x,1/2-y,z
loop_
_atom_site_type_symbol
_atom_site_label
_atom_site_fract_x
_atom_site_fract_y
_atom_site_fract_z
Si Si1 0.114103 0.791060 0.609166
Si Si2 0.888599 0.939513 0.890454
Si Si3 0.357489 0.731676 0.104043
Si Si4 0.605073 0.804502 0.736449
Si Si5 0.299465 0.357280 0.765026
O O1 0.152127 0.790808 0.500000
O O2 0.147451 0.737042 0.659181
O O3 0.156689 0.842163 0.660970
O O4 0.000000 0.794407 0.614324
O O5 0.822275 0.914156 0.805904
O O6 0.000000 0.925322 0.872221
O O7 0.871922 0.000000 0.878885
O O8 0.858754 0.922777 0.000000
O O9 0.250000 0.750000 0.091479
O O10 0.415532 0.773695 0.165008
O O11 0.355779 0.677270 0.157288
O O12 0.407733 0.725173 0.000000
O O13 0.500000 0.827541 0.704489
O O14 0.683708 0.849166 0.755519
#
# Coordination Sequence:
#
# PCOD8265344 Si02
#       5
#    16  16  16  16  16
#     4   9  17  29  45  66  92 119 147 180 216 255
#     4   9  18  32  49  68  87 107 137 181 230 274
#     4   8  14  24  37  55  80 108 137 169 205 246
#     4   9  18  28  38  59  89 119 148 174 204 247
#     4  10  17  27  45  63  83 113 147 179 212 255
#
# _framework density 16.035391000000001
#
# number of rings (size 3 to 8) (size 9 to 14) (size 15 to 20)
#    0.000    3.000    0.000    3.600    0.000    3.600 
#    0.000    0.000    0.000    1.200    0.000    4.200 
#    0.000    0.000    0.000    6.800    0.000    0.200 
#
# Total GULP energy -495531.397033 kJ/mol
# GULP energy per Si atom -12388.284926 kJ/mol
# Density = 1.599889 g / cm^3
# Si number density = 16.035391 Si / 1000 Ang^3
#
#
#
# Elastic Constant Matrix: (Units=GPa)
#
#
# Indices 1 2 3 4 5 6 
#
# 1 75.9605 34.3152 27.5606 0.0000 0.0000 0.0000
# 2 34.3152 55.2803 32.1804 0.0000 0.0000 0.0000
# 3 27.5606 32.1804 120.3535 0.0000 0.0000 0.0000
# 4 0.0000 0.0000 0.0000 20.5771 0.0000 0.0000
# 5 0.0000 0.0000 0.0000 0.0000 16.5672 0.0000
# 6 0.0000 0.0000 0.0000 0.0000 0.0000 21.2802
#
#
#
# Elastic Compliance Matrix: (Units=1/GPa)
#
#
# Indices 1 2 3 4 5 6 
#
# 1 0.018487 -0.010672 -0.001380 0.000000 0.000000 0.000000
# 2 -0.010672 0.027585 -0.004932 0.000000 0.000000 0.000000
# 3 -0.001380 -0.004932 0.009944 0.000000 0.000000 0.000000
# 4 0.000000 0.000000 0.000000 0.048598 0.000000 0.000000
# 5 0.000000 0.000000 0.000000 0.000000 0.060360 0.000000
# 6 0.000000 0.000000 0.000000 0.000000 0.000000 0.046992
#
#
# Mechanical properties :
#
#
# Convention : Reuss Voigt Hill
#
# Bulk Modulus (GPa) = 45.35655 48.85629 47.10642
# Shear Modulus (GPa) = 19.74078 22.18744 20.96411
#
# Velocity S-wave (km/s) = 3.51248 3.72379 3.61967
# Velocity P-wave (km/s) = 6.69303 7.00162 6.84906
#
# Compressibility (1/GPa) = 0.02204753
#
# Stress axis : x y z
#
# Youngs Moduli (GPa) = 54.09338 36.25100 100.56783
#
# Poissons Ratio (x) = 0.38688 0.13876
# Poissons Ratio (y) = 0.57730 0.49599
# Poissons Ratio (z) = 0.07464 0.17879
#
# Static dielectric constant tensor:
#      x y z
#    x 2.835870 0.000000 0.000000 
#    y 0.000000 2.657150 0.000000 
#    z 0.000000 0.000000 3.439030 
# 
# 
# High freq. dielectric constant tensor:
#      x y z
#    x 1.619540 0.000000 0.000000 
#    y 0.000000 1.561480 0.000000 
#    z 0.000000 0.000000 1.619060 
# 
# From -- ./inp_files/40495.got.cif
#   From: 2010.03.12/outbox.cif.g09.slc.cpg/sg65_21_cif.got.tgz:40495.got - 2010.04.10 20:52:16.
