data_PCOD8265049
_publ_section_title
;
Structure prediction by ZEFSAII (Michael W. Deem and Ramdas Pophale) SiO2 
 PCOD8265049
Probable space group: C M M M
;
_chemical_formula_sum "Si O2"
_cell_formula_units_Z 48
_cell_length_a 5.292472
_cell_length_b 14.795656
_cell_length_c 28.390242
_cell_angle_alpha 90.000000
_cell_angle_beta 90.000000
_cell_angle_gamma 90.000000
_cell_volume 2223.114795
_symmetry_space_group_name_H-M "C M M M"
_symmetry_group_IT_number 65
_symmetry_cell_setting 'orthorhombic'
loop_
_space_group_symop_operation_xyz
x,y,z
-x,-y,z
x,-y,-z
-x,y,-z
-x,-y,-z
x,y,-z
-x,y,z
x,-y,z
1/2+x,1/2+y,z
1/2-x,1/2-y,z
1/2+x,1/2-y,-z
1/2-x,1/2+y,-z
1/2-x,1/2-y,-z
1/2+x,1/2+y,-z
1/2-x,1/2+y,z
1/2+x,1/2-y,z
loop_
_atom_site_type_symbol
_atom_site_label
_atom_site_fract_x
_atom_site_fract_y
_atom_site_fract_z
Si Si1 0.000000 0.808838 0.000000
Si Si2 0.000000 0.190346 0.500000
Si Si3 0.500000 0.644103 0.702289
Si Si4 0.000000 0.809815 0.600794
Si Si5 0.000000 0.652489 0.258411
Si Si6 0.500000 0.891800 0.847209
Si Si7 0.500000 0.605794 0.100075
O O1 0.750000 0.750000 0.000000
O O2 0.000000 0.871999 0.045326
O O3 0.750000 0.250000 0.500000
O O4 0.000000 0.135693 0.550106
O O5 0.500000 0.625190 0.646088
O O6 0.249952 0.598499 0.724534
O O7 0.500000 0.749914 0.716506
O O8 0.250000 0.750000 0.604080
O O9 0.000000 0.659855 0.202315
O O10 0.253755 0.856506 0.875332
O O11 0.500000 0.000000 0.839976
O O12 0.500000 0.500000 0.106033
#
# Coordination Sequence:
#
# PCOD8265049 Si02
#       7
#     4   4   8   8   8   8   8
#     4  12  25  44  61  94 122 136 170 222 273 298
#     4   8  16  20  34  52  74 118 156 196 240 272
#     4  10  17  28  43  65  97 129 159 191 249 316
#     4  10  14  25  36  54  85 119 160 196 233 299
#     4  10  18  30  44  69  94 126 162 194 244 286
#     4  10  21  38  58  79 102 134 180 216 241 287
#     4  10  22  43  65  82 107 150 181 206 256 321
#
# _framework density 21.591327
#
# number of rings (size 3 to 8) (size 9 to 14) (size 15 to 20)
#    0.000    2.000    3.333    2.250    0.000    0.000 
#   18.000    3.333    0.000    0.000    0.000    0.000 
#    0.000    0.000    0.000    8.250    0.000    0.000 
#
# Total GULP energy -297322.898396 kJ/mol
# GULP energy per Si atom -12388.454100 kJ/mol
# Density = 2.154218 g / cm^3
# Si number density = 21.591327 Si / 1000 Ang^3
#
#
#
# Elastic Constant Matrix: (Units=GPa)
#
#
# Indices 1 2 3 4 5 6 
#
# 1 237.9493 0.0050 78.0402 0.0000 0.0000 0.0000
# 2 0.0050 13.1202 2.6814 0.0000 0.0000 0.0000
# 3 78.0402 2.6814 241.3280 0.0000 0.0000 0.0000
# 4 0.0000 0.0000 0.0000 -4.1595 0.0000 0.0000
# 5 0.0000 0.0000 0.0000 0.0000 42.0095 0.0000
# 6 0.0000 0.0000 0.0000 0.0000 0.0000 -1.7529
#
#
#
# Elastic Compliance Matrix: (Units=1/GPa)
#
#
# Indices 1 2 3 4 5 6 
#
# 1 0.004702 0.000310 -0.001524 0.000000 0.000000 0.000000
# 2 0.000310 0.076412 -0.000949 0.000000 0.000000 0.000000
# 3 -0.001524 -0.000949 0.004647 0.000000 0.000000 0.000000
# 4 0.000000 0.000000 0.000000 -0.240412 0.000000 0.000000
# 5 0.000000 0.000000 0.000000 0.000000 0.023804 0.000000
# 6 0.000000 0.000000 0.000000 0.000000 0.000000 -0.570485
#
#
# Mechanical properties :
#
#
# Convention : Reuss Voigt Hill
#
# Bulk Modulus (GPa) = 12.27978 72.65009 42.46494
# Shear Modulus (GPa) = -7.46425 34.66414 13.59994
#
# Velocity S-wave (km/s) = -1.86133 4.01117 2.51246
# Velocity P-wave (km/s) = 1.03937 7.42789 5.30348
#
# Compressibility (1/GPa) = 0.08143465
#
# Stress axis : x y z
#
# Youngs Moduli (GPa) = 212.65608 13.08691 215.18586
#
# Poissons Ratio (x) = -0.00405 0.32797
# Poissons Ratio (y) = -0.06585 0.20424
# Poissons Ratio (z) = 0.32411 0.01242
#
# Static dielectric constant tensor:
#      x y z
#    x 5.631200 0.000000 0.000000 
#    y 0.000000 3.055110 0.000000 
#    z 0.000000 0.000000 4.605740 
# 
# 
# High freq. dielectric constant tensor:
#      x y z
#    x 1.890040 0.000000 0.000000 
#    y 0.000000 1.768810 0.000000 
#    z 0.000000 0.000000 1.873950 
# 
# From -- ./inp_files/72349.got.cif
#   From: 2010.03.12/outbox.cif.g09.slc.cpg/sg65_37_cif.got.tgz:72349.got - 2010.04.10 20:52:16.
