data_PCOD8265108
_publ_section_title
;
Structure prediction by ZEFSAII (Michael W. Deem and Ramdas Pophale) SiO2 
 PCOD8265108
Probable space group: C M M M
;
_chemical_formula_sum "Si O2"
_cell_formula_units_Z 88
_cell_length_a 8.892994
_cell_length_b 19.709593
_cell_length_c 28.241210
_cell_angle_alpha 90.000000
_cell_angle_beta 90.000000
_cell_angle_gamma 90.000000
_cell_volume 4950.042820
_symmetry_space_group_name_H-M "C M M M"
_symmetry_group_IT_number 65
_symmetry_cell_setting 'orthorhombic'
loop_
_space_group_symop_operation_xyz
x,y,z
-x,-y,z
x,-y,-z
-x,y,-z
-x,-y,-z
x,y,-z
-x,y,z
x,-y,z
1/2+x,1/2+y,z
1/2-x,1/2-y,z
1/2+x,1/2-y,-z
1/2-x,1/2+y,-z
1/2-x,1/2-y,-z
1/2+x,1/2+y,-z
1/2-x,1/2+y,z
1/2+x,1/2-y,z
loop_
_atom_site_type_symbol
_atom_site_label
_atom_site_fract_x
_atom_site_fract_y
_atom_site_fract_z
Si Si1 0.674135 0.177625 0.590691
Si Si2 0.174399 0.676823 0.695631
Si Si3 0.321272 0.674573 0.500000
Si Si4 0.823605 0.078308 0.770028
Si Si5 0.824613 0.577672 0.132881
Si Si6 0.677201 0.819641 0.946698
O O1 0.500000 0.185080 0.576984
O O2 0.750000 0.250000 0.594948
O O3 0.694704 0.144874 0.642678
O O4 0.759516 0.137299 0.547903
O O5 0.250000 0.750000 0.701716
O O6 0.245934 0.622571 0.730178
O O7 0.000000 0.686462 0.707691
O O8 0.500000 0.675632 0.500000
O O9 0.250000 0.750000 0.500000
O O10 0.765864 0.102461 0.821204
O O11 0.000000 0.090024 0.767437
O O12 0.779343 0.000000 0.761559
O O13 0.787797 0.500000 0.120718
O O14 0.768738 0.620701 0.087938
O O15 0.000000 0.588704 0.143250
O O16 0.500000 0.810700 0.944859
O O17 0.750000 0.750000 0.928877
O O18 0.731082 0.837456 0.000000
#
# Coordination Sequence:
#
# PCOD8265108 Si02
#       6
#    16  16   8  16  16  16
#     4   9  16  26  40  61  90 122 156 195 239 286
#     4  10  20  33  51  74 100 130 164 205 250 296
#     4  10  16  22  36  58  87 124 159 192 235 285
#     4  10  21  36  53  73  99 131 166 205 248 296
#     4   9  18  33  52  72  95 125 162 203 243 285
#     4   9  18  32  50  73 100 129 160 195 238 287
#
# _framework density 17.777625
#
# number of rings (size 3 to 8) (size 9 to 14) (size 15 to 20)
#    0.000    2.545    0.000    3.545    0.000    5.091 
#    0.000    3.636    0.000    0.000    0.000    5.727 
#    0.000    5.091    0.000    0.000    0.000    0.000 
#
# Total GULP energy -545376.314358 kJ/mol
# GULP energy per Si atom -12394.916235 kJ/mol
# Density = 1.773716 g / cm^3
# Si number density = 17.777625 Si / 1000 Ang^3
#
#
#
# Elastic Constant Matrix: (Units=GPa)
#
#
# Indices 1 2 3 4 5 6 
#
# 1 101.0848 41.1825 70.5303 0.0000 0.0000 0.0000
# 2 41.1825 66.8133 73.8762 0.0000 0.0000 0.0000
# 3 70.5303 73.8762 160.3025 0.0000 0.0000 0.0000
# 4 0.0000 0.0000 0.0000 -7.8871 0.0000 0.0000
# 5 0.0000 0.0000 0.0000 0.0000 28.7886 0.0000
# 6 0.0000 0.0000 0.0000 0.0000 0.0000 24.3121
#
#
#
# Elastic Compliance Matrix: (Units=1/GPa)
#
#
# Indices 1 2 3 4 5 6 
#
# 1 0.014759 -0.003909 -0.004692 0.000000 0.000000 0.000000
# 2 -0.003909 0.031554 -0.012822 0.000000 0.000000 0.000000
# 3 -0.004692 -0.012822 0.014212 0.000000 0.000000 0.000000
# 4 0.000000 0.000000 0.000000 -0.126789 0.000000 0.000000
# 5 0.000000 0.000000 0.000000 0.000000 0.034736 0.000000
# 6 0.000000 0.000000 0.000000 0.000000 0.000000 0.041132
#
#
# Mechanical properties :
#
#
# Convention : Reuss Voigt Hill
#
# Bulk Modulus (GPa) = 56.56596 77.70873 67.13735
# Shear Modulus (GPa) = 85.70072 18.55016 52.12544
#
# Velocity S-wave (km/s) = 6.95066 3.23376 5.42074
# Velocity P-wave (km/s) = 9.81343 7.59930 8.77647
#
# Compressibility (1/GPa) = 0.01767848
#
# Stress axis : x y z
#
# Youngs Moduli (GPa) = 67.75432 31.69199 70.36423
#
# Poissons Ratio (x) = 0.12388 0.33017
# Poissons Ratio (y) = 0.26485 0.90220
# Poissons Ratio (z) = 0.31793 0.40635
#
# Static dielectric constant tensor:
#      x y z
#    x 3.445860 0.000000 0.000000 
#    y 0.000000 3.004060 0.000000 
#    z 0.000000 0.000000 4.122360 
# 
# 
# High freq. dielectric constant tensor:
#      x y z
#    x 1.697820 0.000000 0.000000 
#    y 0.000000 1.641910 0.000000 
#    z 0.000000 0.000000 1.709400 
# 
# From -- ./inp_files/65158.got.cif
#   From: 2010.03.12/outbox.cif.g09.slc.cpg/sg65_33_cif.got.tgz:65158.got - 2010.04.10 20:52:16.
