data_PCOD8265148
_publ_section_title
;
Structure prediction by ZEFSAII (Michael W. Deem and Ramdas Pophale) SiO2 
 PCOD8265148
Probable space group: C M M M
;
_chemical_formula_sum "Si O2"
_cell_formula_units_Z 72
_cell_length_a 19.503440
_cell_length_b 30.553092
_cell_length_c 7.681720
_cell_angle_alpha 90.000000
_cell_angle_beta 90.000000
_cell_angle_gamma 90.000000
_cell_volume 4577.463178
_symmetry_space_group_name_H-M "C M M M"
_symmetry_group_IT_number 65
_symmetry_cell_setting 'orthorhombic'
loop_
_space_group_symop_operation_xyz
x,y,z
-x,-y,z
x,-y,-z
-x,y,-z
-x,-y,-z
x,y,-z
-x,y,z
x,-y,z
1/2+x,1/2+y,z
1/2-x,1/2-y,z
1/2+x,1/2-y,-z
1/2-x,1/2+y,-z
1/2-x,1/2-y,-z
1/2+x,1/2+y,-z
1/2-x,1/2+y,z
1/2+x,1/2-y,z
loop_
_atom_site_type_symbol
_atom_site_label
_atom_site_fract_x
_atom_site_fract_y
_atom_site_fract_z
Si Si1 0.852356 0.270681 0.707554
Si Si2 0.000000 0.827880 0.201475
Si Si3 0.218939 0.182818 0.293917
Si Si4 0.000000 0.732582 0.693596
Si Si5 0.124273 0.110145 0.803172
Si Si6 0.580527 0.448611 0.500000
O O1 0.856545 0.268325 0.500000
O O2 0.828194 0.222932 0.775469
O O3 0.797530 0.307537 0.764913
O O4 0.928294 0.282145 0.786194
O O5 0.000000 0.785113 0.319524
O O6 0.066029 0.855860 0.251554
O O7 0.000000 0.814198 0.000000
O O8 0.213982 0.179429 0.500000
O O9 0.195923 0.136619 0.211622
O O10 0.000000 0.712949 0.500000
O O11 0.118769 0.069582 0.671702
O O12 0.114918 0.092408 0.000000
O O13 0.591704 0.500000 0.500000
O O14 0.500000 0.436491 0.500000
#
# Coordination Sequence:
#
# PCOD8265148 Si02
#       6
#    16   8  16   8  16   8
#     4   8  15  23  38  63  89 119 158 198 228 261
#     4  10  20  28  38  63  88 115 157 193 225 262
#     4   9  15  27  43  62  88 119 157 196 230 263
#     4  10  16  24  42  60  85 127 163 194 232 263
#     4  11  21  33  50  70  90 117 156 196 228 269
#     4  11  24  38  54  71  90 119 147 182 239 285
#
# _framework density 15.729234999999999
#
# number of rings (size 3 to 8) (size 9 to 14) (size 15 to 20)
#    0.000    2.333    4.444    1.333    1.556    0.444 
#    0.000    4.444    0.000    0.000    0.000    0.000 
#    0.000    0.000    0.000    2.000    0.000    2.889 
#
# Total GULP energy -446102.087855 kJ/mol
# GULP energy per Si atom -12391.724663 kJ/mol
# Density = 1.569344 g / cm^3
# Si number density = 15.729235 Si / 1000 Ang^3
#
#
#
# Elastic Constant Matrix: (Units=GPa)
#
#
# Indices 1 2 3 4 5 6 
#
# 1 131.8491 38.8948 17.8916 0.0000 0.0000 0.0000
# 2 38.8948 69.2463 27.7834 0.0000 0.0000 0.0000
# 3 17.8916 27.7834 53.9164 0.0000 0.0000 0.0000
# 4 0.0000 0.0000 0.0000 5.1358 0.0000 0.0000
# 5 0.0000 0.0000 0.0000 0.0000 8.5117 0.0000
# 6 0.0000 0.0000 0.0000 0.0000 0.0000 20.5604
#
#
#
# Elastic Compliance Matrix: (Units=1/GPa)
#
#
# Indices 1 2 3 4 5 6 
#
# 1 0.009101 -0.004917 -0.000486 0.000000 0.000000 0.000000
# 2 -0.004917 0.020861 -0.009118 0.000000 0.000000 0.000000
# 3 -0.000486 -0.009118 0.023407 0.000000 0.000000 0.000000
# 4 0.000000 0.000000 0.000000 0.194710 0.000000 0.000000
# 5 0.000000 0.000000 0.000000 0.000000 0.117485 0.000000
# 6 0.000000 0.000000 0.000000 0.000000 0.000000 0.048637
#
#
# Mechanical properties :
#
#
# Convention : Reuss Voigt Hill
#
# Bulk Modulus (GPa) = 41.10730 47.12792 44.11761
# Shear Modulus (GPa) = 11.07777 18.20439 14.64108
#
# Velocity S-wave (km/s) = 2.65670 3.40569 3.05424
# Velocity P-wave (km/s) = 5.96673 6.74478 6.36765
#
# Compressibility (1/GPa) = 0.02432658
#
# Stress axis : x y z
#
# Youngs Moduli (GPa) = 109.88016 47.93542 42.72145
#
# Poissons Ratio (x) = 0.23568 0.02078
# Poissons Ratio (y) = 0.54024 0.38955
# Poissons Ratio (z) = 0.05345 0.43710
#
# Static dielectric constant tensor:
#      x y z
#    x 3.417610 0.000000 0.000000 
#    y 0.000000 2.593050 0.000000 
#    z 0.000000 0.000000 2.801590 
# 
# 
# High freq. dielectric constant tensor:
#      x y z
#    x 1.603130 0.000000 0.000000 
#    y 0.000000 1.540850 0.000000 
#    z 0.000000 0.000000 1.599670 
# 
# From -- ./inp_files/12065.got.cif
#   From: 2010.03.12/outbox.cif.g09.slc.cpg/sg65_7_cif.got.tgz:12065.got - 2010.04.10 20:52:16.
