data_PCOD8265244
_publ_section_title
;
Structure prediction by ZEFSAII (Michael W. Deem and Ramdas Pophale) SiO2 
 PCOD8265244
Probable space group: C M M M
;
_chemical_formula_sum "Si O2"
_cell_formula_units_Z 104
_cell_length_a 13.198866
_cell_length_b 23.279088
_cell_length_c 19.431172
_cell_angle_alpha 90.000000
_cell_angle_beta 90.000000
_cell_angle_gamma 90.000000
_cell_volume 5970.374557
_symmetry_space_group_name_H-M "C M M M"
_symmetry_group_IT_number 65
_symmetry_cell_setting 'orthorhombic'
loop_
_space_group_symop_operation_xyz
x,y,z
-x,-y,z
x,-y,-z
-x,y,-z
-x,-y,-z
x,y,-z
-x,y,z
x,-y,z
1/2+x,1/2+y,z
1/2-x,1/2-y,z
1/2+x,1/2-y,-z
1/2-x,1/2+y,-z
1/2-x,1/2-y,-z
1/2+x,1/2+y,-z
1/2-x,1/2+y,z
1/2+x,1/2-y,z
loop_
_atom_site_type_symbol
_atom_site_label
_atom_site_fract_x
_atom_site_fract_y
_atom_site_fract_z
Si Si1 0.878795 0.348174 0.922957
Si Si2 0.121024 0.000000 0.077888
Si Si3 0.617916 0.388559 0.845290
Si Si4 0.204951 0.066278 0.713938
Si Si5 0.617989 0.720637 0.078568
Si Si6 0.885323 0.434793 0.192735
Si Si7 0.885609 0.931939 0.424962
O O1 0.833208 0.283969 0.908308
O O2 0.838235 0.393224 0.865980
O O3 0.000000 0.346329 0.919440
O O4 0.846065 0.367589 0.000000
O O5 0.165518 0.944114 0.116637
O O6 0.000000 0.000000 0.080842
O O7 0.160681 0.000000 0.000000
O O8 0.500000 0.385660 0.861915
O O9 0.636269 0.394853 0.763977
O O10 0.668344 0.329848 0.874934
O O11 0.321947 0.072676 0.736780
O O12 0.188953 0.089600 0.636061
O O13 0.168727 0.000000 0.719133
O O14 0.500000 0.726259 0.096521
O O15 0.633832 0.701797 0.000000
O O16 0.879066 0.500000 0.165003
O O17 0.000000 0.417659 0.211021
O O18 0.850359 0.907688 0.500000
O O19 0.000000 0.911065 0.409088
O O20 0.883073 0.000000 0.428375
#
# Coordination Sequence:
#
# PCOD8265244 Si02
#       7
#    16   8  16  16  16  16  16
#     4   8  14  27  46  62  77 105 147 192 235 270
#     4   9  16  24  34  50  78 118 152 171 194 238
#     4  10  17  25  39  60  86 115 144 172 207 253
#     4  10  18  28  42  61  89 115 143 177 216 257
#     4   8  14  25  41  59  81 112 146 180 219 262
#     4   9  18  31  46  62  81 107 142 186 235 276
#     4   8  14  25  43  67  93 121 147 167 195 246
#
# _framework density 17.419343000000001
#
# number of rings (size 3 to 8) (size 9 to 14) (size 15 to 20)
#    0.000    3.154    0.769    2.308    0.000    2.769 
#    0.000    3.846    0.000    2.308    0.000    3.231 
#    0.000    2.462    0.000    8.000    0.000    4.000 
#
# Total GULP energy -644495.714963 kJ/mol
# GULP energy per Si atom -12394.148365 kJ/mol
# Density = 1.737970 g / cm^3
# Si number density = 17.419343 Si / 1000 Ang^3
#
#
#
# Elastic Constant Matrix: (Units=GPa)
#
#
# Indices 1 2 3 4 5 6 
#
# 1 31.1071 32.9432 36.3789 0.0000 0.0000 0.0000
# 2 32.9432 78.9470 62.3080 0.0000 0.0000 0.0000
# 3 36.3789 62.3080 158.0726 0.0000 0.0000 0.0000
# 4 0.0000 0.0000 0.0000 13.0401 0.0000 0.0000
# 5 0.0000 0.0000 0.0000 0.0000 20.9978 0.0000
# 6 0.0000 0.0000 0.0000 0.0000 0.0000 18.3838
#
#
#
# Elastic Compliance Matrix: (Units=1/GPa)
#
#
# Indices 1 2 3 4 5 6 
#
# 1 0.061082 -0.020894 -0.005822 0.000000 0.000000 0.000000
# 2 -0.020894 0.025534 -0.005256 0.000000 0.000000 0.000000
# 3 -0.005822 -0.005256 0.009738 0.000000 0.000000 0.000000
# 4 0.000000 0.000000 0.000000 0.076687 0.000000 0.000000
# 5 0.000000 0.000000 0.000000 0.000000 0.047624 0.000000
# 6 0.000000 0.000000 0.000000 0.000000 0.000000 0.054396
#
#
# Mechanical properties :
#
#
# Convention : Reuss Voigt Hill
#
# Bulk Modulus (GPa) = 30.85422 59.04297 44.94860
# Shear Modulus (GPa) = 14.29356 19.58410 16.93883
#
# Velocity S-wave (km/s) = 2.86764 3.35666 3.12174
# Velocity P-wave (km/s) = 5.35869 6.99939 6.23326
#
# Compressibility (1/GPa) = 0.03241048
#
# Stress axis : x y z
#
# Youngs Moduli (GPa) = 16.37130 39.16379 102.69185
#
# Poissons Ratio (x) = 0.81828 0.59784
# Poissons Ratio (y) = 0.34206 0.53977
# Poissons Ratio (z) = 0.09531 0.20585
#
# Static dielectric constant tensor:
#      x y z
#    x 3.199100 0.000000 0.000000 
#    y 0.000000 3.362370 0.000000 
#    z 0.000000 0.000000 3.330760 
# 
# 
# High freq. dielectric constant tensor:
#      x y z
#    x 1.680880 0.000000 0.000000 
#    y 0.000000 1.649580 0.000000 
#    z 0.000000 0.000000 1.640730 
# 
# From -- ./inp_files/53490.got.cif
#   From: 2010.03.12/outbox.cif.g09.slc.cpg/sg65_27_cif.got.tgz:53490.got - 2010.04.10 20:52:16.
