data_PCOD8265048
_publ_section_title
;
Structure prediction by ZEFSAII (Michael W. Deem and Ramdas Pophale) SiO2 
 PCOD8265048
Probable space group: C M M M
;
_chemical_formula_sum "Si O2"
_cell_formula_units_Z 72
_cell_length_a 18.518961
_cell_length_b 20.379722
_cell_length_c 11.781995
_cell_angle_alpha 90.000000
_cell_angle_beta 90.000000
_cell_angle_gamma 90.000000
_cell_volume 4446.657777
_symmetry_space_group_name_H-M "C M M M"
_symmetry_group_IT_number 65
_symmetry_cell_setting 'orthorhombic'
loop_
_space_group_symop_operation_xyz
x,y,z
-x,-y,z
x,-y,-z
-x,y,-z
-x,-y,-z
x,y,-z
-x,y,z
x,-y,z
1/2+x,1/2+y,z
1/2-x,1/2-y,z
1/2+x,1/2-y,-z
1/2-x,1/2+y,-z
1/2-x,1/2-y,-z
1/2+x,1/2+y,-z
1/2-x,1/2+y,z
1/2+x,1/2-y,z
loop_
_atom_site_type_symbol
_atom_site_label
_atom_site_fract_x
_atom_site_fract_y
_atom_site_fract_z
Si Si1 0.580576 0.000000 0.865403
Si Si2 0.419592 0.742413 0.254617
Si Si3 0.420983 0.796448 0.500000
Si Si4 0.349954 0.134728 0.866258
Si Si5 0.780401 0.176878 0.737628
Si Si6 0.735460 0.827346 0.500000
O O1 0.621627 0.935304 0.822782
O O2 0.500000 0.000000 0.814279
O O3 0.577514 0.000000 0.000000
O O4 0.500000 0.722790 0.214193
O O5 0.416180 0.750333 0.389998
O O6 0.397489 0.810078 0.194599
O O7 0.364280 0.682997 0.223914
O O8 0.500000 0.833286 0.500000
O O9 0.351096 0.843986 0.500000
O O10 0.265378 0.138432 0.832480
O O11 0.357973 0.144089 0.000000
O O12 0.750000 0.250000 0.726426
O O13 0.770643 0.141891 0.614238
O O14 0.750000 0.750000 0.500000
#
# Coordination Sequence:
#
# PCOD8265048 Si02
#       6
#     8  16   8  16  16   8
#     4   9  18  32  46  59  78 108 147 183 207 237
#     4  10  18  27  42  65  90 114 139 170 210 251
#     4  10  16  24  40  62  86 113 145 170 198 245
#     4  10  19  30  44  61  82 112 146 176 209 249
#     4   9  16  26  43  62  84 111 140 171 208 252
#     4  10  12  26  40  58  82 113 143 166 201 244
#
# _framework density 16.191936999999999
#
# number of rings (size 3 to 8) (size 9 to 14) (size 15 to 20)
#    0.000    2.333    6.667    0.667    0.000    5.333 
#    0.000    0.000    0.000    2.667    0.000    6.222 
#    0.000    2.667    0.000    6.222    0.000    0.000 
#
# Total GULP energy -446035.508301 kJ/mol
# GULP energy per Si atom -12389.875231 kJ/mol
# Density = 1.615508 g / cm^3
# Si number density = 16.191937 Si / 1000 Ang^3
#
#
#
# Elastic Constant Matrix: (Units=GPa)
#
#
# Indices 1 2 3 4 5 6 
#
# 1 172.4912 50.9287 28.7214 0.0000 0.0000 0.0000
# 2 50.9287 47.1676 24.4811 0.0000 0.0000 0.0000
# 3 28.7214 24.4811 61.2921 0.0000 0.0000 0.0000
# 4 0.0000 0.0000 0.0000 0.8792 0.0000 0.0000
# 5 0.0000 0.0000 0.0000 0.0000 20.4659 0.0000
# 6 0.0000 0.0000 0.0000 0.0000 0.0000 18.8664
#
#
#
# Elastic Compliance Matrix: (Units=1/GPa)
#
#
# Indices 1 2 3 4 5 6 
#
# 1 0.008518 -0.008989 -0.000401 0.000000 0.000000 0.000000
# 2 -0.008989 0.036232 -0.010259 0.000000 0.000000 0.000000
# 3 -0.000401 -0.010259 0.020601 0.000000 0.000000 0.000000
# 4 0.000000 0.000000 0.000000 1.137411 0.000000 0.000000
# 5 0.000000 0.000000 0.000000 0.000000 0.048862 0.000000
# 6 0.000000 0.000000 0.000000 0.000000 0.000000 0.053004
#
#
# Mechanical properties :
#
#
# Convention : Reuss Voigt Hill
#
# Bulk Modulus (GPa) = 38.38514 54.35703 46.37108
# Shear Modulus (GPa) = 3.69655 19.83028 11.76341
#
# Velocity S-wave (km/s) = 1.51259 3.50337 2.69829
# Velocity P-wave (km/s) = 5.17768 7.07164 6.19744
#
# Compressibility (1/GPa) = 0.02605175
#
# Stress axis : x y z
#
# Youngs Moduli (GPa) = 117.39368 27.59997 48.54131
#
# Poissons Ratio (x) = 0.24811 0.01947
# Poissons Ratio (y) = 1.05529 0.49800
# Poissons Ratio (z) = 0.04710 0.28315
#
# Static dielectric constant tensor:
#      x y z
#    x 3.690090 0.000000 0.000000 
#    y 0.000000 2.592560 0.000000 
#    z 0.000000 0.000000 3.158380 
# 
# 
# High freq. dielectric constant tensor:
#      x y z
#    x 1.637820 0.000000 0.000000 
#    y 0.000000 1.543140 0.000000 
#    z 0.000000 0.000000 1.627140 
# 
# From -- ./inp_files/26580.got.cif
#   From: 2010.03.12/outbox.cif.g09.slc.cpg/sg65_14_cif.got.tgz:26580.got - 2010.04.10 20:52:16.
