data_PCOD8265934
_publ_section_title
;
Structure prediction by ZEFSAII (Michael W. Deem and Ramdas Pophale) SiO2 
 PCOD8265934
Probable space group: C M M M
;
_chemical_formula_sum "Si O2"
_cell_formula_units_Z 80
_cell_length_a 28.411340
_cell_length_b 9.585055
_cell_length_c 20.435003
_cell_angle_alpha 90.000000
_cell_angle_beta 90.000000
_cell_angle_gamma 90.000000
_cell_volume 5564.946999
_symmetry_space_group_name_H-M "C M M M"
_symmetry_group_IT_number 65
_symmetry_cell_setting 'orthorhombic'
loop_
_space_group_symop_operation_xyz
x,y,z
-x,-y,z
x,-y,-z
-x,y,-z
-x,-y,-z
x,y,-z
-x,y,z
x,-y,z
1/2+x,1/2+y,z
1/2-x,1/2-y,z
1/2+x,1/2-y,-z
1/2-x,1/2+y,-z
1/2-x,1/2-y,-z
1/2+x,1/2+y,-z
1/2-x,1/2+y,z
1/2+x,1/2-y,z
loop_
_atom_site_type_symbol
_atom_site_label
_atom_site_fract_x
_atom_site_fract_y
_atom_site_fract_z
Si Si1 0.793625 0.839700 0.575146
Si Si2 0.444262 0.154254 0.116658
Si Si3 0.053014 0.165813 0.500000
Si Si4 0.556236 0.656815 0.000000
Si Si5 0.394062 0.336437 0.371695
Si Si6 0.554175 0.836602 0.735764
O O1 0.805784 0.801853 0.500000
O O2 0.750000 0.750000 0.601670
O O3 0.838802 0.806730 0.619473
O O4 0.778936 0.000000 0.581087
O O5 0.500000 0.146342 0.110665
O O6 0.430844 0.200346 0.190027
O O7 0.423643 0.000000 0.101366
O O8 0.424048 0.264691 0.064435
O O9 0.078814 0.221742 0.435358
O O10 0.000000 0.223256 0.500000
O O11 0.054972 0.000000 0.500000
O O12 0.576310 0.500000 0.000000
O O13 0.500000 0.655370 0.000000
O O14 0.404144 0.500000 0.361455
O O15 0.411668 0.252980 0.309197
O O16 0.500000 0.794019 0.722822
O O17 0.561227 0.000000 0.721844
#
# Coordination Sequence:
#
# PCOD8265934 Si02
#       6
#    16  16   8   8  16  16
#     4   9  17  30  46  63  81  99 126 166 210 256
#     4   8  14  25  38  50  70 104 138 164 196 238
#     4   9  16  26  40  57  77 103 135 167 200 239
#     4   9  15  21  33  55  77  95 126 173 208 229
#     4  10  18  29  44  61  79 103 136 172 207 247
#     4   9  18  30  41  56  81 111 142 173 203 240
#
# _framework density 14.375698
#
# number of rings (size 3 to 8) (size 9 to 14) (size 15 to 20)
#    0.000    3.000    1.000    2.100    0.000    4.000 
#    0.000    2.500    0.000    1.800    0.000    0.000 
#    0.000    0.000    0.000    0.900    0.000   11.900 
#
# Total GULP energy -495880.233670 kJ/mol
# GULP energy per Si atom -12397.005842 kJ/mol
# Density = 1.434298 g / cm^3
# Si number density = 14.375698 Si / 1000 Ang^3
#
#
#
# Elastic Constant Matrix: (Units=GPa)
#
#
# Indices 1 2 3 4 5 6 
#
# 1 66.8064 42.0964 42.3570 0.0000 0.0000 0.0000
# 2 42.0964 76.6527 63.6364 0.0000 0.0000 0.0000
# 3 42.3570 63.6364 112.0188 0.0000 0.0000 0.0000
# 4 0.0000 0.0000 0.0000 25.8892 0.0000 0.0000
# 5 0.0000 0.0000 0.0000 0.0000 4.9891 0.0000
# 6 0.0000 0.0000 0.0000 0.0000 0.0000 19.7144
#
#
#
# Elastic Compliance Matrix: (Units=1/GPa)
#
#
# Indices 1 2 3 4 5 6 
#
# 1 0.023386 -0.010413 -0.002927 0.000000 0.000000 0.000000
# 2 -0.010413 0.029327 -0.012723 0.000000 0.000000 0.000000
# 3 -0.002927 -0.012723 0.017262 0.000000 0.000000 0.000000
# 4 0.000000 0.000000 0.000000 0.038626 0.000000 0.000000
# 5 0.000000 0.000000 0.000000 0.000000 0.200437 0.000000
# 6 0.000000 0.000000 0.000000 0.000000 0.000000 0.050724
#
#
# Mechanical properties :
#
#
# Convention : Reuss Voigt Hill
#
# Bulk Modulus (GPa) = 56.02774 61.29527 58.66151
# Shear Modulus (GPa) = 11.96636 17.27776 14.62206
#
# Velocity S-wave (km/s) = 2.88827 3.47056 3.19272
# Velocity P-wave (km/s) = 7.08388 7.66749 7.38146
#
# Compressibility (1/GPa) = 0.01784830
#
# Stress axis : x y z
#
# Youngs Moduli (GPa) = 42.76036 34.09847 57.93197
#
# Poissons Ratio (x) = 0.35507 0.16959
# Poissons Ratio (y) = 0.44526 0.73706
# Poissons Ratio (z) = 0.12518 0.43383
#
# Static dielectric constant tensor:
#      x y z
#    x 2.515700 0.000000 0.000000 
#    y 0.000000 2.823140 0.000000 
#    z 0.000000 0.000000 2.855360 
# 
# 
# High freq. dielectric constant tensor:
#      x y z
#    x 1.504510 0.000000 0.000000 
#    y 0.000000 1.545760 0.000000 
#    z 0.000000 0.000000 1.544730 
# 
# From -- ./inp_files/65678.got.cif
#   From: 2010.03.12/outbox.cif.g09.slc.cpg/sg65_33_cif.got.tgz:65678.got - 2010.04.10 20:52:16.
