data_PCOD8265160
_publ_section_title
;
Structure prediction by ZEFSAII (Michael W. Deem and Ramdas Pophale) SiO2 
 PCOD8265160
Probable space group: C M M M
;
_chemical_formula_sum "Si O2"
_cell_formula_units_Z 80
_cell_length_a 33.184672
_cell_length_b 19.662986
_cell_length_c 8.520686
_cell_angle_alpha 90.000000
_cell_angle_beta 90.000000
_cell_angle_gamma 90.000000
_cell_volume 5559.830615
_symmetry_space_group_name_H-M "C M M M"
_symmetry_group_IT_number 65
_symmetry_cell_setting 'orthorhombic'
loop_
_space_group_symop_operation_xyz
x,y,z
-x,-y,z
x,-y,-z
-x,y,-z
-x,-y,-z
x,y,-z
-x,y,z
x,-y,z
1/2+x,1/2+y,z
1/2-x,1/2-y,z
1/2+x,1/2-y,-z
1/2-x,1/2+y,-z
1/2-x,1/2-y,-z
1/2+x,1/2+y,-z
1/2-x,1/2+y,z
1/2+x,1/2-y,z
loop_
_atom_site_type_symbol
_atom_site_label
_atom_site_fract_x
_atom_site_fract_y
_atom_site_fract_z
Si Si1 0.954715 0.078270 0.315945
Si Si2 0.623521 0.624078 0.816914
Si Si3 0.744091 0.000000 0.183130
Si Si4 0.330334 0.500000 0.680232
Si Si5 0.689818 0.275989 0.815251
Si Si6 0.231958 0.646195 0.812812
O O1 0.947874 0.086979 0.500000
O O2 0.923935 0.127623 0.223431
O O3 0.000000 0.100268 0.269501
O O4 0.947417 0.000000 0.266431
O O5 0.642483 0.565200 0.712931
O O6 0.645768 0.695006 0.769265
O O7 0.630072 0.608565 0.000000
O O8 0.725110 0.069688 0.256333
O O9 0.791894 0.000000 0.207852
O O10 0.735525 0.000000 0.000000
O O11 0.316519 0.500000 0.500000
O O12 0.724711 0.326401 0.751355
O O13 0.697244 0.198681 0.751986
O O14 0.694912 0.272484 0.000000
O O15 0.232424 0.641763 0.000000
#
# Coordination Sequence:
#
# PCOD8265160 Si02
#       6
#    16  16   8   8  16  16
#     4   9  18  31  43  56  78 104 124 150 195 236
#     4  11  19  28  43  59  74  97 134 168 190 222
#     4  10  16  26  44  59  71  96 139 171 186 220
#     4  12  22  28  35  53  80 104 128 162 203 232
#     4   8  14  23  36  56  80  99 119 157 201 226
#     4   8  13  22  37  57  78  98 123 159 196 223
#
# _framework density 14.388927000000001
#
# number of rings (size 3 to 8) (size 9 to 14) (size 15 to 20)
#    0.000    2.600    3.000    3.300    0.000    0.400 
#    0.000    1.000    0.000    3.600    0.000    0.000 
#    0.000    0.000    0.000    0.900    0.000   22.000 
#
# Total GULP energy -495548.451855 kJ/mol
# GULP energy per Si atom -12388.711296 kJ/mol
# Density = 1.435618 g / cm^3
# Si number density = 14.388927 Si / 1000 Ang^3
#
#
#
# Elastic Constant Matrix: (Units=GPa)
#
#
# Indices 1 2 3 4 5 6 
#
# 1 91.7972 57.4897 11.7644 0.0000 0.0000 0.0000
# 2 57.4897 125.4943 12.9008 0.0000 0.0000 0.0000
# 3 11.7644 12.9008 17.9848 0.0000 0.0000 0.0000
# 4 0.0000 0.0000 0.0000 2.5017 0.0000 0.0000
# 5 0.0000 0.0000 0.0000 0.0000 12.4420 0.0000
# 6 0.0000 0.0000 0.0000 0.0000 0.0000 24.9437
#
#
#
# Elastic Compliance Matrix: (Units=1/GPa)
#
#
# Indices 1 2 3 4 5 6 
#
# 1 0.015772 -0.006655 -0.005543 0.000000 0.000000 0.000000
# 2 -0.006655 0.011411 -0.003832 0.000000 0.000000 0.000000
# 3 -0.005543 -0.003832 0.061977 0.000000 0.000000 0.000000
# 4 0.000000 0.000000 0.000000 0.399735 0.000000 0.000000
# 5 0.000000 0.000000 0.000000 0.000000 0.080373 0.000000
# 6 0.000000 0.000000 0.000000 0.000000 0.000000 0.040090
#
#
# Mechanical properties :
#
#
# Convention : Reuss Voigt Hill
#
# Bulk Modulus (GPa) = 17.51324 44.39845 30.95585
# Shear Modulus (GPa) = 7.57057 18.18558 12.87807
#
# Velocity S-wave (km/s) = 2.29626 3.55894 2.99490
# Velocity P-wave (km/s) = 4.38499 6.91455 5.78961
#
# Compressibility (1/GPa) = 0.05709964
#
# Stress axis : x y z
#
# Youngs Moduli (GPa) = 63.40340 87.63229 16.13503
#
# Poissons Ratio (x) = 0.58323 0.08943
# Poissons Ratio (y) = 0.42198 0.06183
# Poissons Ratio (z) = 0.35144 0.33581
#
# Static dielectric constant tensor:
#      x y z
#    x 2.802100 0.000000 0.000000 
#    y 0.000000 3.153310 0.000000 
#    z 0.000000 0.000000 2.503590 
# 
# 
# High freq. dielectric constant tensor:
#      x y z
#    x 1.522450 0.000000 0.000000 
#    y 0.000000 1.530860 0.000000 
#    z 0.000000 0.000000 1.524880 
# 
# From -- ./inp_files/18448.got.cif
#   From: 2010.03.12/outbox.cif.g09.slc.cpg/sg65_10_cif.got.tgz:18448.got - 2010.04.10 20:52:16.
