data_PCOD8265063
_publ_section_title
;
Structure prediction by ZEFSAII (Michael W. Deem and Ramdas Pophale) SiO2 
 PCOD8265063
Probable space group: C M M M
;
_chemical_formula_sum "Si O2"
_cell_formula_units_Z 96
_cell_length_a 18.444169
_cell_length_b 19.531628
_cell_length_c 17.520724
_cell_angle_alpha 90.000000
_cell_angle_beta 90.000000
_cell_angle_gamma 90.000000
_cell_volume 6311.747044
_symmetry_space_group_name_H-M "C M M M"
_symmetry_group_IT_number 65
_symmetry_cell_setting 'orthorhombic'
loop_
_space_group_symop_operation_xyz
x,y,z
-x,-y,z
x,-y,-z
-x,y,-z
-x,-y,-z
x,y,-z
-x,y,z
x,-y,z
1/2+x,1/2+y,z
1/2-x,1/2-y,z
1/2+x,1/2-y,-z
1/2-x,1/2+y,-z
1/2-x,1/2-y,-z
1/2+x,1/2+y,-z
1/2-x,1/2+y,z
1/2+x,1/2-y,z
loop_
_atom_site_type_symbol
_atom_site_label
_atom_site_fract_x
_atom_site_fract_y
_atom_site_fract_z
Si Si1 0.658552 0.078982 0.297639
Si Si2 0.580074 0.274652 0.711012
Si Si3 0.723701 0.173092 0.082674
Si Si4 0.081187 0.346155 0.169491
Si Si5 0.085111 0.667891 0.414422
Si Si6 0.221497 0.171595 0.760309
O O1 0.607741 0.091855 0.223686
O O2 0.618691 0.100644 0.375437
O O3 0.731542 0.124018 0.294518
O O4 0.679537 0.000000 0.301905
O O5 0.500000 0.307904 0.702080
O O6 0.579750 0.221695 0.780095
O O7 0.603953 0.236311 0.633390
O O8 0.638698 0.333087 0.731277
O O9 0.750000 0.250000 0.073757
O O10 0.637487 0.166531 0.100642
O O11 0.769961 0.141539 0.153081
O O12 0.737118 0.136433 0.000000
O O13 0.000000 0.362059 0.138007
O O14 0.115887 0.676562 0.500000
O O15 0.000000 0.656051 0.414909
O O16 0.250000 0.250000 0.757651
#
# Coordination Sequence:
#
# PCOD8265063 Si02
#       6
#    16  16  16  16  16  16
#     4  10  19  29  44  64  88 117 151 186 220 261
#     4   9  15  27  45  63  83 111 145 181 216 255
#     4   9  15  24  39  61  88 115 142 181 222 252
#     4   9  16  26  41  60  84 115 149 175 208 258
#     4   9  17  28  43  65  93 121 148 177 215 263
#     4  10  15  30  47  63  83 113 151 181 215 261
#
# _framework density 15.209735
#
# number of rings (size 3 to 8) (size 9 to 14) (size 15 to 20)
#    0.000    2.667    6.667    1.500    0.000    2.000 
#    0.000    2.500    0.000    9.000    0.000    4.667 
#    0.000    0.000    0.000   11.667    0.000    0.000 
#
# Total GULP energy -594684.476286 kJ/mol
# GULP energy per Si atom -12389.259923 kJ/mol
# Density = 1.517512 g / cm^3
# Si number density = 15.209735 Si / 1000 Ang^3
#
#
#
# Elastic Constant Matrix: (Units=GPa)
#
#
# Indices 1 2 3 4 5 6 
#
# 1 102.3706 42.1964 37.2802 0.0000 0.0000 0.0000
# 2 42.1964 40.1704 25.8722 0.0000 0.0000 0.0000
# 3 37.2802 25.8722 96.7314 0.0000 0.0000 0.0000
# 4 0.0000 0.0000 0.0000 -5.4290 0.0000 0.0000
# 5 0.0000 0.0000 0.0000 0.0000 -21.1488 0.0000
# 6 0.0000 0.0000 0.0000 0.0000 0.0000 12.7665
#
#
#
# Elastic Compliance Matrix: (Units=1/GPa)
#
#
# Indices 1 2 3 4 5 6 
#
# 1 0.017615 -0.017072 -0.002223 0.000000 0.000000 0.000000
# 2 -0.017072 0.046620 -0.005890 0.000000 0.000000 0.000000
# 3 -0.002223 -0.005890 0.012770 0.000000 0.000000 0.000000
# 4 0.000000 0.000000 0.000000 -0.184195 0.000000 0.000000
# 5 0.000000 0.000000 0.000000 0.000000 -0.047284 0.000000
# 6 0.000000 0.000000 0.000000 0.000000 0.000000 0.078330
#
#
# Mechanical properties :
#
#
# Convention : Reuss Voigt Hill
#
# Bulk Modulus (GPa) = 37.54259 49.99669 43.76964
# Shear Modulus (GPa) = -295.90345 6.16596 -144.86874
#
# Velocity S-wave (km/s) = -13.96320 2.01563 -9.77006
# Velocity P-wave (km/s) = 15.33703 6.19354 9.92131
#
# Compressibility (1/GPa) = 0.02663641
#
# Stress axis : x y z
#
# Youngs Moduli (GPa) = 56.77111 21.45005 78.30959
#
# Poissons Ratio (x) = 0.36618 0.17405
# Poissons Ratio (y) = 0.96917 0.46123
# Poissons Ratio (z) = 0.12618 0.12634
#
# Static dielectric constant tensor:
#      x y z
#    x 3.254380 0.000000 0.000000 
#    y 0.000000 2.446120 0.000000 
#    z 0.000000 0.000000 3.307220 
# 
# 
# High freq. dielectric constant tensor:
#      x y z
#    x 1.583610 0.000000 0.000000 
#    y 0.000000 1.523610 0.000000 
#    z 0.000000 0.000000 1.581380 
# 
# From -- ./inp_files/54728.got.cif
#   From: 2010.03.12/outbox.cif.g09.slc.cpg/sg65_28_cif.got.tgz:54728.got - 2010.04.10 20:52:16.
