data_PCOD8265374
_publ_section_title
;
Structure prediction by ZEFSAII (Michael W. Deem and Ramdas Pophale) SiO2 
 PCOD8265374
Probable space group: C M M M
;
_chemical_formula_sum "Si O2"
_cell_formula_units_Z 128
_cell_length_a 17.662837
_cell_length_b 18.146775
_cell_length_c 23.164376
_cell_angle_alpha 90.000000
_cell_angle_beta 90.000000
_cell_angle_gamma 90.000000
_cell_volume 7424.727540
_symmetry_space_group_name_H-M "C M M M"
_symmetry_group_IT_number 65
_symmetry_cell_setting 'orthorhombic'
loop_
_space_group_symop_operation_xyz
x,y,z
-x,-y,z
x,-y,-z
-x,y,-z
-x,-y,-z
x,y,-z
-x,y,z
x,-y,z
1/2+x,1/2+y,z
1/2-x,1/2-y,z
1/2+x,1/2-y,-z
1/2-x,1/2+y,-z
1/2-x,1/2-y,-z
1/2+x,1/2+y,-z
1/2-x,1/2+y,z
1/2+x,1/2-y,z
loop_
_atom_site_type_symbol
_atom_site_label
_atom_site_fract_x
_atom_site_fract_y
_atom_site_fract_z
Si Si1 0.418129 0.917914 0.100956
Si Si2 0.258262 0.086698 0.934949
Si Si3 0.767990 0.419432 0.272880
Si Si4 0.918496 0.392745 0.767594
Si Si5 0.914925 0.776948 0.249846
Si Si6 0.413064 0.416022 0.568135
Si Si7 0.689672 0.687156 0.643754
Si Si8 0.291171 0.327964 0.169974
O O1 0.500000 0.877778 0.087939
O O2 0.344428 0.880974 0.071340
O O3 0.403186 0.923087 0.168824
O O4 0.424004 0.000000 0.075758
O O5 0.203179 0.131631 0.891939
O O6 0.255870 0.000000 0.919216
O O7 0.229823 0.100703 0.000000
O O8 0.729736 0.500000 0.271174
O O9 0.858836 0.425774 0.277951
O O10 0.737701 0.377539 0.327974
O O11 0.758255 0.377256 0.212740
O O12 0.916435 0.305298 0.771770
O O13 0.000000 0.419513 0.745015
O O14 0.867782 0.779611 0.309276
O O15 0.874405 0.822780 0.198632
O O16 0.000000 0.808494 0.259290
O O17 0.404938 0.410259 0.500000
O O18 0.500000 0.400145 0.586877
O O19 0.391204 0.500000 0.587873
O O20 0.358395 0.352188 0.593390
O O21 0.750000 0.750000 0.621946
O O22 0.250000 0.250000 0.163548
#
# Coordination Sequence:
#
# PCOD8265374 Si02
#       8
#    16  16  16  16  16  16  16  16
#     4   9  16  26  42  64  91 124 160 198 241 295
#     4  10  20  32  47  67  91 122 161 206 256 312
#     4  11  19  30  48  72 102 137 167 202 248 300
#     4  10  17  28  45  68  96 131 164 194 236 294
#     4  10  19  32  50  71 100 133 164 202 249 300
#     4   9  19  37  59  80 105 143 190 235 275 312
#     4  11  20  33  50  81 112 141 171 214 262 316
#     4  11  19  33  49  70  94 123 162 206 251 306
#
# _framework density 17.239688999999998
#
# number of rings (size 3 to 8) (size 9 to 14) (size 15 to 20)
#    0.000    1.875    3.750    2.625    0.000    1.500 
#    0.000    1.250    0.000    7.875    0.000    0.875 
#    0.000    0.000    0.000    8.250    0.000    0.000 
#
# Total GULP energy -792954.684594 kJ/mol
# GULP energy per Si atom -12389.916947 kJ/mol
# Density = 1.720045 g / cm^3
# Si number density = 17.239689 Si / 1000 Ang^3
#
#
#
# Elastic Constant Matrix: (Units=GPa)
#
#
# Indices 1 2 3 4 5 6 
#
# 1 98.3573 35.4014 34.5988 0.0000 0.0000 0.0000
# 2 35.4014 95.2749 35.3990 0.0000 0.0000 0.0000
# 3 34.5988 35.3990 65.4743 0.0000 0.0000 0.0000
# 4 0.0000 0.0000 0.0000 28.0959 0.0000 0.0000
# 5 0.0000 0.0000 0.0000 0.0000 24.8704 0.0000
# 6 0.0000 0.0000 0.0000 0.0000 0.0000 18.1553
#
#
#
# Elastic Compliance Matrix: (Units=1/GPa)
#
#
# Indices 1 2 3 4 5 6 
#
# 1 0.013087 -0.002870 -0.005364 0.000000 0.000000 0.000000
# 2 -0.002870 0.013764 -0.005925 0.000000 0.000000 0.000000
# 3 -0.005364 -0.005925 0.021311 0.000000 0.000000 0.000000
# 4 0.000000 0.000000 0.000000 0.035592 0.000000 0.000000
# 5 0.000000 0.000000 0.000000 0.000000 0.040208 0.000000
# 6 0.000000 0.000000 0.000000 0.000000 0.000000 0.055080
#
#
# Mechanical properties :
#
#
# Convention : Reuss Voigt Hill
#
# Bulk Modulus (GPa) = 50.39254 52.21166 51.30210
# Shear Modulus (GPa) = 23.36730 24.47149 23.91940
#
# Velocity S-wave (km/s) = 3.68562 3.77169 3.72890
# Velocity P-wave (km/s) = 6.88518 7.02275 6.95431
#
# Compressibility (1/GPa) = 0.01984421
#
# Stress axis : x y z
#
# Youngs Moduli (GPa) = 76.41315 72.65530 46.92417
#
# Poissons Ratio (x) = 0.20850 0.25170
# Poissons Ratio (y) = 0.21928 0.27802
# Poissons Ratio (z) = 0.40988 0.43048
#
# Static dielectric constant tensor:
#      x y z
#    x 3.518970 0.000000 0.000000 
#    y 0.000000 3.232090 0.000000 
#    z 0.000000 0.000000 2.939840 
# 
# 
# High freq. dielectric constant tensor:
#      x y z
#    x 1.667370 0.000000 0.000000 
#    y 0.000000 1.660100 0.000000 
#    z 0.000000 0.000000 1.634510 
# 
# From -- ./inp_files/70697.got.cif
#   From: 2010.03.12/outbox.cif.g09.slc.cpg/sg65_36_cif.got.tgz:70697.got - 2010.04.10 20:52:16.
