data_PCOD8265604
_publ_section_title
;
Structure prediction by ZEFSAII (Michael W. Deem and Ramdas Pophale) SiO2 
 PCOD8265604
Probable space group: C M M M
;
_chemical_formula_sum "Si O2"
_cell_formula_units_Z 88
_cell_length_a 18.165202
_cell_length_b 28.120808
_cell_length_c 11.239329
_cell_angle_alpha 90.000000
_cell_angle_beta 90.000000
_cell_angle_gamma 90.000000
_cell_volume 5741.275812
_symmetry_space_group_name_H-M "C M M M"
_symmetry_group_IT_number 65
_symmetry_cell_setting 'orthorhombic'
loop_
_space_group_symop_operation_xyz
x,y,z
-x,-y,z
x,-y,-z
-x,y,-z
-x,-y,-z
x,y,-z
-x,y,z
x,-y,z
1/2+x,1/2+y,z
1/2-x,1/2-y,z
1/2+x,1/2-y,-z
1/2-x,1/2+y,-z
1/2-x,1/2-y,-z
1/2+x,1/2+y,-z
1/2-x,1/2+y,z
1/2+x,1/2-y,z
loop_
_atom_site_type_symbol
_atom_site_label
_atom_site_fract_x
_atom_site_fract_y
_atom_site_fract_z
Si Si1 0.789562 0.146538 0.138438
Si Si2 0.086715 0.553402 0.500000
Si Si3 0.867299 0.313992 0.861293
Si Si4 0.917573 0.789158 0.141729
Si Si5 0.416085 0.907811 0.249529
Si Si6 0.777648 0.551751 0.860080
O O1 0.720164 0.181198 0.158253
O O2 0.861986 0.171066 0.195688
O O3 0.772735 0.094273 0.195429
O O4 0.804258 0.139278 0.000000
O O5 0.121298 0.500000 0.500000
O O6 0.112068 0.582813 0.384077
O O7 0.000000 0.548663 0.500000
O O8 0.892481 0.262696 0.814224
O O9 0.910677 0.352166 0.781761
O O10 0.887718 0.321829 0.000000
O O11 0.000000 0.800366 0.187194
O O12 0.913657 0.789769 0.000000
O O13 0.500000 0.925279 0.232187
O O14 0.363664 0.938084 0.163238
O O15 0.755234 0.500000 0.806877
O O16 0.766703 0.551273 0.000000
#
# Coordination Sequence:
#
# PCOD8265604 Si02
#       6
#    16   8  16  16  16  16
#     4   8  14  24  36  51  75 105 130 152 186 230
#     4   9  18  30  40  50  69 102 139 167 187 210
#     4   9  16  25  38  58  82 104 125 153 192 231
#     4   9  15  22  35  56  80 103 128 158 188 223
#     4  10  18  27  39  55  77 103 130 158 186 220
#     4   9  17  27  39  56  76  99 127 159 195 230
#
# _framework density 15.327603999999999
#
# number of rings (size 3 to 8) (size 9 to 14) (size 15 to 20)
#    0.000    3.000    0.000    3.273    0.000    5.455 
#    0.000    0.909    0.000    0.545    0.000   14.000 
#    0.000    0.000    0.000    0.000    0.000   31.273 
#
# Total GULP energy -545214.446932 kJ/mol
# GULP energy per Si atom -12391.237430 kJ/mol
# Density = 1.529272 g / cm^3
# Si number density = 15.327604 Si / 1000 Ang^3
#
#
#
# Elastic Constant Matrix: (Units=GPa)
#
#
# Indices 1 2 3 4 5 6 
#
# 1 86.3719 65.1475 14.5437 0.0000 0.0000 0.0000
# 2 65.1475 134.3229 22.3520 0.0000 0.0000 0.0000
# 3 14.5437 22.3520 17.3990 0.0000 0.0000 0.0000
# 4 0.0000 0.0000 0.0000 10.6312 0.0000 0.0000
# 5 0.0000 0.0000 0.0000 0.0000 4.6427 0.0000
# 6 0.0000 0.0000 0.0000 0.0000 0.0000 16.9670
#
#
#
# Elastic Compliance Matrix: (Units=1/GPa)
#
#
# Indices 1 2 3 4 5 6 
#
# 1 0.018597 -0.008182 -0.005034 0.000000 0.000000 0.000000
# 2 -0.008182 0.013069 -0.009950 0.000000 0.000000 0.000000
# 3 -0.005034 -0.009950 0.074465 0.000000 0.000000 0.000000
# 4 0.000000 0.000000 0.000000 0.094063 0.000000 0.000000
# 5 0.000000 0.000000 0.000000 0.000000 0.215394 0.000000
# 6 0.000000 0.000000 0.000000 0.000000 0.000000 0.058938
#
#
# Mechanical properties :
#
#
# Convention : Reuss Voigt Hill
#
# Bulk Modulus (GPa) = 16.72268 49.13114 32.92691
# Shear Modulus (GPa) = 9.24575 15.51820 12.38197
#
# Velocity S-wave (km/s) = 2.45870 3.18533 2.84530
# Velocity P-wave (km/s) = 4.35822 6.75663 5.68534
#
# Compressibility (1/GPa) = 0.05979902
#
# Stress axis : x y z
#
# Youngs Moduli (GPa) = 53.77260 76.51848 13.42916
#
# Poissons Ratio (x) = 0.62607 0.06760
# Poissons Ratio (y) = 0.43996 0.13362
# Poissons Ratio (z) = 0.27069 0.76135
#
# Static dielectric constant tensor:
#      x y z
#    x 2.985010 0.000000 0.000000 
#    y 0.000000 3.405590 0.000000 
#    z 0.000000 0.000000 2.581080 
# 
# 
# High freq. dielectric constant tensor:
#      x y z
#    x 1.570490 0.000000 0.000000 
#    y 0.000000 1.596610 0.000000 
#    z 0.000000 0.000000 1.526090 
# 
# From -- ./inp_files/27647.got.cif
#   From: 2010.03.12/outbox.cif.g09.slc.cpg/sg65_14_cif.got.tgz:27647.got - 2010.04.10 20:52:16.
