data_PCOD8265948
_publ_section_title
;
Structure prediction by ZEFSAII (Michael W. Deem and Ramdas Pophale) SiO2 
 PCOD8265948
Probable space group: C M M M
;
_chemical_formula_sum "Si O2"
_cell_formula_units_Z 96
_cell_length_a 26.887034
_cell_length_b 8.903306
_cell_length_c 23.957883
_cell_angle_alpha 90.000000
_cell_angle_beta 90.000000
_cell_angle_gamma 90.000000
_cell_volume 5735.121673
_symmetry_space_group_name_H-M "C M M M"
_symmetry_group_IT_number 65
_symmetry_cell_setting 'orthorhombic'
loop_
_space_group_symop_operation_xyz
x,y,z
-x,-y,z
x,-y,-z
-x,y,-z
-x,-y,-z
x,y,-z
-x,y,z
x,-y,z
1/2+x,1/2+y,z
1/2-x,1/2-y,z
1/2+x,1/2-y,-z
1/2-x,1/2+y,-z
1/2-x,1/2-y,-z
1/2+x,1/2+y,-z
1/2-x,1/2+y,z
1/2+x,1/2-y,z
loop_
_atom_site_type_symbol
_atom_site_label
_atom_site_fract_x
_atom_site_fract_y
_atom_site_fract_z
Si Si1 0.944659 0.829105 0.290101
Si Si2 0.695817 0.177048 0.120844
Si Si3 0.800346 0.676342 0.329447
Si Si4 0.900080 0.674236 0.607908
Si Si5 0.151402 0.175272 0.775139
Si Si6 0.056742 0.177584 0.500000
Si Si7 0.198042 0.327383 0.000000
O O1 0.936896 0.719963 0.342346
O O2 0.905888 0.793311 0.240984
O O3 0.000000 0.803360 0.266109
O O4 0.937326 0.000000 0.311312
O O5 0.750000 0.250000 0.127224
O O6 0.658510 0.249502 0.164957
O O7 0.671480 0.212327 0.059143
O O8 0.700538 0.000000 0.131777
O O9 0.793340 0.500000 0.320496
O O10 0.750000 0.750000 0.353305
O O11 0.843555 0.711237 0.374099
O O12 0.812189 0.750093 0.269853
O O13 0.907487 0.500000 0.594782
O O14 0.913235 0.767311 0.553473
O O15 0.164036 0.000000 0.778149
O O16 0.000000 0.239772 0.500000
O O17 0.056152 0.000000 0.500000
O O18 0.250000 0.250000 0.000000
O O19 0.211217 0.500000 0.000000
#
# Coordination Sequence:
#
# PCOD8265948 Si02
#       7
#    16  16  16  16  16   8   8
#     4   9  18  33  51  70  94 123 153 187 230 279
#     4  10  18  29  44  64  92 123 156 191 228 271
#     4  10  20  34  51  71  96 126 158 191 228 270
#     4  10  21  35  52  75  99 122 153 192 231 273
#     4  10  19  30  46  69  95 123 155 190 230 274
#     4  11  23  37  54  75  98 125 156 189 228 277
#     4   8  16  28  42  60  85 120 155 189 228 269
#
# _framework density 16.738963999999999
#
# number of rings (size 3 to 8) (size 9 to 14) (size 15 to 20)
#    0.000    2.250    0.000    3.250    0.000    6.333 
#    0.000    0.417    0.000    0.000    0.000    0.583 
#    0.000    4.667    0.000    0.000    0.000    0.000 
#
# Total GULP energy -595067.520927 kJ/mol
# GULP energy per Si atom -12397.240019 kJ/mol
# Density = 1.670087 g / cm^3
# Si number density = 16.738964 Si / 1000 Ang^3
#
#
#
# Elastic Constant Matrix: (Units=GPa)
#
#
# Indices 1 2 3 4 5 6 
#
# 1 103.6145 44.0472 56.2904 0.0000 0.0000 0.0000
# 2 44.0472 86.1180 57.4913 0.0000 0.0000 0.0000
# 3 56.2904 57.4913 135.3402 0.0000 0.0000 0.0000
# 4 0.0000 0.0000 0.0000 28.3003 0.0000 0.0000
# 5 0.0000 0.0000 0.0000 0.0000 15.9204 0.0000
# 6 0.0000 0.0000 0.0000 0.0000 0.0000 23.7564
#
#
#
# Elastic Compliance Matrix: (Units=1/GPa)
#
#
# Indices 1 2 3 4 5 6 
#
# 1 0.013581 -0.004432 -0.003766 0.000000 0.000000 0.000000
# 2 -0.004432 0.017655 -0.005656 0.000000 0.000000 0.000000
# 3 -0.003766 -0.005656 0.011358 0.000000 0.000000 0.000000
# 4 0.000000 0.000000 0.000000 0.035335 0.000000 0.000000
# 5 0.000000 0.000000 0.000000 0.000000 0.062813 0.000000
# 6 0.000000 0.000000 0.000000 0.000000 0.000000 0.042094
#
#
# Mechanical properties :
#
#
# Convention : Reuss Voigt Hill
#
# Bulk Modulus (GPa) = 67.18096 71.19229 69.18663
# Shear Modulus (GPa) = 23.20115 24.74500 23.97307
#
# Velocity S-wave (km/s) = 3.72702 3.84902 3.78851
# Velocity P-wave (km/s) = 7.66436 7.89788 7.78200
#
# Compressibility (1/GPa) = 0.01488517
#
# Stress axis : x y z
#
# Youngs Moduli (GPa) = 73.63072 56.64093 88.04558
#
# Poissons Ratio (x) = 0.25106 0.33156
# Poissons Ratio (y) = 0.32637 0.49800
# Poissons Ratio (z) = 0.27728 0.32037
#
# Static dielectric constant tensor:
#      x y z
#    x 3.079050 0.000000 0.000000 
#    y 0.000000 3.267810 0.000000 
#    z 0.000000 0.000000 3.386830 
# 
# 
# High freq. dielectric constant tensor:
#      x y z
#    x 1.626190 0.000000 0.000000 
#    y 0.000000 1.662060 0.000000 
#    z 0.000000 0.000000 1.639550 
# 
# From -- ./inp_files/71757.got.cif
#   From: 2010.03.12/outbox.cif.g09.slc.cpg/sg65_36_cif.got.tgz:71757.got - 2010.04.10 20:52:16.
