data_PCOD8265521
_publ_section_title
;
Structure prediction by ZEFSAII (Michael W. Deem and Ramdas Pophale) SiO2 
 PCOD8265521
Probable space group: C M M M
;
_chemical_formula_sum "Si O2"
_cell_formula_units_Z 104
_cell_length_a 12.903287
_cell_length_b 17.660897
_cell_length_c 24.727675
_cell_angle_alpha 90.000000
_cell_angle_beta 90.000000
_cell_angle_gamma 90.000000
_cell_volume 5635.032159
_symmetry_space_group_name_H-M "C M M M"
_symmetry_group_IT_number 65
_symmetry_cell_setting 'orthorhombic'
loop_
_space_group_symop_operation_xyz
x,y,z
-x,-y,z
x,-y,-z
-x,y,-z
-x,-y,-z
x,y,-z
-x,y,z
x,-y,z
1/2+x,1/2+y,z
1/2-x,1/2-y,z
1/2+x,1/2-y,-z
1/2-x,1/2+y,-z
1/2-x,1/2-y,-z
1/2+x,1/2+y,-z
1/2-x,1/2+y,z
1/2+x,1/2-y,z
loop_
_atom_site_type_symbol
_atom_site_label
_atom_site_fract_x
_atom_site_fract_y
_atom_site_fract_z
Si Si1 0.738955 0.915728 0.345111
Si Si2 0.115303 0.320297 0.158229
Si Si3 0.619141 0.203289 0.279411
Si Si4 0.115301 0.910146 0.439659
Si Si5 0.664048 0.647210 0.859823
Si Si6 0.880189 0.871178 0.258648
Si Si7 0.000000 0.088265 0.059709
O O1 0.656234 0.852339 0.327268
O O2 0.797906 0.881555 0.397626
O O3 0.821846 0.929576 0.297187
O O4 0.690011 0.000000 0.356263
O O5 0.132604 0.338413 0.221603
O O6 0.212126 0.358622 0.126845
O O7 0.120692 0.231288 0.147831
O O8 0.000000 0.349071 0.139664
O O9 0.500000 0.219387 0.291242
O O10 0.669987 0.287975 0.274297
O O11 0.146029 0.882629 0.500000
O O12 0.000000 0.878942 0.424819
O O13 0.111994 0.000000 0.437379
O O14 0.639210 0.605199 0.803560
O O15 0.604695 0.610462 0.909513
O O16 0.000000 0.875048 0.271887
O O17 0.000000 0.000000 0.052619
O O18 0.000000 0.126555 0.000000
#
# Coordination Sequence:
#
# PCOD8265521 Si02
#       7
#    16  16  16  16  16  16   8
#     4  11  20  28  45  76 105 125 161 216 263 311
#     4   9  16  30  56  79 102 135 174 221 258 300
#     4   9  18  32  48  67 100 143 172 194 248 316
#     4   8  15  29  46  64  93 133 170 209 261 312
#     4  10  17  33  55  77 104 137 178 212 253 315
#     4  10  18  31  50  74 101 133 168 207 257 312
#     4  11  24  40  56  78 114 150 176 212 272 331
#
# _framework density 18.455973
#
# number of rings (size 3 to 8) (size 9 to 14) (size 15 to 20)
#    0.000    2.385    3.077    2.308    0.000    1.846 
#    0.000    1.538    0.000    2.769    0.000    5.385 
#    0.000    0.000    0.000    0.000    0.000    0.000 
#
# Total GULP energy -644284.592386 kJ/mol
# GULP energy per Si atom -12390.088315 kJ/mol
# Density = 1.841397 g / cm^3
# Si number density = 18.455973 Si / 1000 Ang^3
#
#
#
# Elastic Constant Matrix: (Units=GPa)
#
#
# Indices 1 2 3 4 5 6 
#
# 1 79.3161 12.7140 31.2756 0.0000 0.0000 0.0000
# 2 12.7140 37.8355 21.4772 0.0000 0.0000 0.0000
# 3 31.2756 21.4772 107.6954 0.0000 0.0000 0.0000
# 4 0.0000 0.0000 0.0000 15.1969 0.0000 0.0000
# 5 0.0000 0.0000 0.0000 0.0000 -558.4652 0.0000
# 6 0.0000 0.0000 0.0000 0.0000 0.0000 21.1942
#
#
#
# Elastic Compliance Matrix: (Units=1/GPa)
#
#
# Indices 1 2 3 4 5 6 
#
# 1 0.014496 -0.002798 -0.003652 0.000000 0.000000 0.000000
# 2 -0.002798 0.030344 -0.005239 0.000000 0.000000 0.000000
# 3 -0.003652 -0.005239 0.011391 0.000000 0.000000 0.000000
# 4 0.000000 0.000000 0.000000 0.065803 0.000000 0.000000
# 5 0.000000 0.000000 0.000000 0.000000 -0.001791 0.000000
# 6 0.000000 0.000000 0.000000 0.000000 0.000000 0.047183
#
#
# Mechanical properties :
#
#
# Convention : Reuss Voigt Hill
#
# Bulk Modulus (GPa) = 30.43810 39.53116 34.98463
# Shear Modulus (GPa) = 24.78251 -93.78946 -34.50348
#
# Velocity S-wave (km/s) = 3.66839 -7.13640 -4.32846
# Velocity P-wave (km/s) = 5.87119 6.81459 2.44621
#
# Compressibility (1/GPa) = 0.03285356
#
# Stress axis : x y z
#
# Youngs Moduli (GPa) = 68.98318 32.95512 87.79094
#
# Poissons Ratio (x) = 0.09222 0.32059
# Poissons Ratio (y) = 0.19304 0.45992
# Poissons Ratio (z) = 0.25191 0.17264
#
# Static dielectric constant tensor:
#      x y z
#    x 3.575980 0.000000 0.000000 
#    y 0.000000 3.000430 0.000000 
#    z 0.000000 0.000000 3.443000 
# 
# 
# High freq. dielectric constant tensor:
#      x y z
#    x 1.726270 0.000000 0.000000 
#    y 0.000000 1.676610 0.000000 
#    z 0.000000 0.000000 1.687310 
# 
# From -- ./inp_files/62858.got.cif
#   From: 2010.03.12/outbox.cif.g09.slc.cpg/sg65_32_cif.got.tgz:62858.got - 2010.04.10 20:52:16.
