data_PCOD8265694
_publ_section_title
;
Structure prediction by ZEFSAII (Michael W. Deem and Ramdas Pophale) SiO2 
 PCOD8265694
Probable space group: C M M M
;
_chemical_formula_sum "Si O2"
_cell_formula_units_Z 112
_cell_length_a 32.008467
_cell_length_b 31.879001
_cell_length_c 9.049208
_cell_angle_alpha 90.000000
_cell_angle_beta 90.000000
_cell_angle_gamma 90.000000
_cell_volume 9233.793306
_symmetry_space_group_name_H-M "C M M M"
_symmetry_group_IT_number 65
_symmetry_cell_setting 'orthorhombic'
loop_
_space_group_symop_operation_xyz
x,y,z
-x,-y,z
x,-y,-z
-x,y,-z
-x,-y,-z
x,y,-z
-x,y,z
x,-y,z
1/2+x,1/2+y,z
1/2-x,1/2-y,z
1/2+x,1/2-y,-z
1/2-x,1/2+y,-z
1/2-x,1/2-y,-z
1/2+x,1/2+y,-z
1/2-x,1/2+y,z
1/2+x,1/2-y,z
loop_
_atom_site_type_symbol
_atom_site_label
_atom_site_fract_x
_atom_site_fract_y
_atom_site_fract_z
Si Si1 0.582407 0.500000 0.674388
Si Si2 0.952349 0.080243 0.830018
Si Si3 0.336393 0.709745 0.665946
Si Si4 0.379464 0.360038 0.170412
Si Si5 0.321796 0.500000 0.675985
Si Si6 0.700049 0.415936 0.826469
Si Si7 0.791468 0.277777 0.833125
Si Si8 0.246144 0.846001 0.332624
O O1 0.580342 0.500000 0.500000
O O2 0.558493 0.459402 0.731339
O O3 0.630143 0.500000 0.729689
O O4 0.923907 0.119968 0.786059
O O5 0.000000 0.093694 0.802600
O O6 0.944082 0.067706 0.000000
O O7 0.349003 0.722085 0.500000
O O8 0.373642 0.682344 0.736124
O O9 0.329411 0.752282 0.758230
O O10 0.294554 0.682741 0.668455
O O11 0.344213 0.394275 0.208025
O O12 0.376855 0.347006 0.000000
O O13 0.318031 0.500000 0.500000
O O14 0.298548 0.540158 0.742078
O O15 0.737589 0.387768 0.761987
O O16 0.707083 0.422728 0.000000
O O17 0.750000 0.250000 0.831723
O O18 0.784082 0.320641 0.742679
O O19 0.804286 0.289169 0.000000
O O20 0.258589 0.857939 0.500000
#
# Coordination Sequence:
#
# PCOD8265694 Si02
#       8
#     8  16  16  16   8  16  16  16
#     4  11  22  32  43  56  70  82 102 136 176 216
#     4  10  20  33  46  56  67  85 108 135 171 215
#     4   9  16  24  36  52  69  88 106 126 154 187
#     4   9  17  28  40  53  67  83 105 132 162 200
#     4  11  21  30  40  53  68  86 108 138 174 210
#     4  10  18  28  41  53  65  85 110 136 165 200
#     4   9  15  23  35  51  70  90 110 128 147 178
#     4   9  16  25  36  51  71  89 106 129 156 188
#
# _framework density 12.129358999999999
#
# number of rings (size 3 to 8) (size 9 to 14) (size 15 to 20)
#    0.000    2.429    1.429    2.357    0.000    8.000 
#    0.000    0.000    0.000    0.000    0.000    0.000 
#    0.000    0.000    0.000    0.000    0.000    0.000 
#
# Total GULP energy -694424.207352 kJ/mol
# GULP energy per Si atom -12400.432274 kJ/mol
# Density = 1.210175 g / cm^3
# Si number density = 12.129359 Si / 1000 Ang^3
#
#
#
# Elastic Constant Matrix: (Units=GPa)
#
#
# Indices 1 2 3 4 5 6 
#
# 1 36.0654 41.7735 27.2980 0.0000 0.0000 0.0000
# 2 41.7735 73.2564 43.0272 0.0000 0.0000 0.0000
# 3 27.2980 43.0272 81.9570 0.0000 0.0000 0.0000
# 4 0.0000 0.0000 0.0000 20.8903 0.0000 0.0000
# 5 0.0000 0.0000 0.0000 0.0000 11.9857 0.0000
# 6 0.0000 0.0000 0.0000 0.0000 0.0000 -0.5700
#
#
#
# Elastic Compliance Matrix: (Units=1/GPa)
#
#
# Indices 1 2 3 4 5 6 
#
# 1 0.082576 -0.044724 -0.004024 0.000000 0.000000 0.000000
# 2 -0.044724 0.043960 -0.008182 0.000000 0.000000 0.000000
# 3 -0.004024 -0.008182 0.017837 0.000000 0.000000 0.000000
# 4 0.000000 0.000000 0.000000 0.047869 0.000000 0.000000
# 5 0.000000 0.000000 0.000000 0.000000 0.083433 0.000000
# 6 0.000000 0.000000 0.000000 0.000000 0.000000 -1.754407
#
#
# Mechanical properties :
#
#
# Convention : Reuss Voigt Hill
#
# Bulk Modulus (GPa) = 32.77367 46.16403 39.46885
# Shear Modulus (GPa) = -3.69086 11.73987 4.02451
#
# Velocity S-wave (km/s) = -1.74629 3.11447 1.82351
# Velocity P-wave (km/s) = 4.79716 7.14672 6.08639
#
# Compressibility (1/GPa) = 0.03051230
#
# Stress axis : x y z
#
# Youngs Moduli (GPa) = 12.11004 22.74794 56.06171
#
# Poissons Ratio (x) = 1.01739 0.22559
# Poissons Ratio (y) = 0.54161 0.45871
# Poissons Ratio (z) = 0.04873 0.18613
#
# Static dielectric constant tensor:
#      x y z
#    x 2.227210 0.000000 0.000000 
#    y 0.000000 2.458360 0.000000 
#    z 0.000000 0.000000 2.655030 
# 
# 
# High freq. dielectric constant tensor:
#      x y z
#    x 1.404940 0.000000 0.000000 
#    y 0.000000 1.443520 0.000000 
#    z 0.000000 0.000000 1.478260 
# 
# From -- ./inp_files/19242.got.cif
#   From: 2010.03.12/outbox.cif.g09.slc.cpg/sg65_10_cif.got.tgz:19242.got - 2010.04.10 20:52:16.
