data_PCOD8265995
_publ_section_title
;
Structure prediction by ZEFSAII (Michael W. Deem and Ramdas Pophale) SiO2 
 PCOD8265995
Probable space group: C M M M
;
_chemical_formula_sum "Si O2"
_cell_formula_units_Z 80
_cell_length_a 24.690029
_cell_length_b 21.839080
_cell_length_c 9.527581
_cell_angle_alpha 90.000000
_cell_angle_beta 90.000000
_cell_angle_gamma 90.000000
_cell_volume 5137.343309
_symmetry_space_group_name_H-M "C M M M"
_symmetry_group_IT_number 65
_symmetry_cell_setting 'orthorhombic'
loop_
_space_group_symop_operation_xyz
x,y,z
-x,-y,z
x,-y,-z
-x,y,-z
-x,-y,-z
x,y,-z
-x,y,z
x,-y,z
1/2+x,1/2+y,z
1/2-x,1/2-y,z
1/2+x,1/2-y,-z
1/2-x,1/2+y,-z
1/2-x,1/2-y,-z
1/2+x,1/2+y,-z
1/2-x,1/2+y,z
1/2+x,1/2-y,z
loop_
_atom_site_type_symbol
_atom_site_label
_atom_site_fract_x
_atom_site_fract_y
_atom_site_fract_z
Si Si1 0.700342 0.203034 0.158646
Si Si2 0.440065 0.500000 0.249191
Si Si3 0.322106 0.500000 0.342198
Si Si4 0.061424 0.134247 0.153526
Si Si5 0.735743 0.619060 0.656885
Si Si6 0.638863 0.289815 0.343328
O O1 0.750000 0.250000 0.154144
O O2 0.716885 0.139943 0.237250
O O3 0.649306 0.231279 0.243655
O O4 0.681866 0.187381 0.000000
O O5 0.500000 0.500000 0.326220
O O6 0.387534 0.500000 0.348972
O O7 0.435243 0.439394 0.155717
O O8 0.302015 0.500000 0.500000
O O9 0.295723 0.560884 0.273810
O O10 0.094304 0.165586 0.277537
O O11 0.000000 0.156177 0.172218
O O12 0.083655 0.154408 0.000000
O O13 0.759110 0.605510 0.500000
O O14 0.694546 0.674547 0.642405
O O15 0.619815 0.269608 0.500000
#
# Coordination Sequence:
#
# PCOD8265995 Si02
#       6
#    16   8   8  16  16  16
#     4   9  17  29  44  62  82 103 135 174 216 263
#     4  10  19  31  44  59  80 114 156 193 226 260
#     4  10  18  30  43  62  88 116 145 183 225 260
#     4  10  20  32  44  60  84 114 148 186 225 259
#     4   9  17  29  43  60  84 110 140 175 217 261
#     4  10  18  29  46  63  81 107 141 179 220 261
#
# _framework density 15.572251
#
# number of rings (size 3 to 8) (size 9 to 14) (size 15 to 20)
#    0.000    2.400    2.000    1.500    0.000    5.000 
#    0.000    2.500    0.000    0.000    0.000    0.000 
#    0.000    0.000    0.000    0.900    0.000   17.400 
#
# Total GULP energy -495585.065613 kJ/mol
# GULP energy per Si atom -12389.626640 kJ/mol
# Density = 1.553681 g / cm^3
# Si number density = 15.572251 Si / 1000 Ang^3
#
#
#
# Elastic Constant Matrix: (Units=GPa)
#
#
# Indices 1 2 3 4 5 6 
#
# 1 48.4353 38.4082 41.7854 0.0000 0.0000 0.0000
# 2 38.4082 64.2808 37.4637 0.0000 0.0000 0.0000
# 3 41.7854 37.4637 124.0571 0.0000 0.0000 0.0000
# 4 0.0000 0.0000 0.0000 17.3480 0.0000 0.0000
# 5 0.0000 0.0000 0.0000 0.0000 19.4074 0.0000
# 6 0.0000 0.0000 0.0000 0.0000 0.0000 24.3471
#
#
#
# Elastic Compliance Matrix: (Units=1/GPa)
#
#
# Indices 1 2 3 4 5 6 
#
# 1 0.045863 -0.022330 -0.008704 0.000000 0.000000 0.000000
# 2 -0.022330 0.029752 -0.001463 0.000000 0.000000 0.000000
# 3 -0.008704 -0.001463 0.011434 0.000000 0.000000 0.000000
# 4 0.000000 0.000000 0.000000 0.057644 0.000000 0.000000
# 5 0.000000 0.000000 0.000000 0.000000 0.051527 0.000000
# 6 0.000000 0.000000 0.000000 0.000000 0.000000 0.041073
#
#
# Mechanical properties :
#
#
# Convention : Reuss Voigt Hill
#
# Bulk Modulus (GPa) = 45.34416 52.45419 48.89917
# Shear Modulus (GPa) = 16.14782 20.16155 18.15469
#
# Velocity S-wave (km/s) = 3.22368 3.60211 3.41814
# Velocity P-wave (km/s) = 6.56033 7.14547 6.85915
#
# Compressibility (1/GPa) = 0.02205356
#
# Stress axis : x y z
#
# Youngs Moduli (GPa) = 21.80424 33.61100 87.45468
#
# Poissons Ratio (x) = 0.75054 0.76122
# Poissons Ratio (y) = 0.48690 0.12798
# Poissons Ratio (z) = 0.18979 0.04919
#
# Static dielectric constant tensor:
#      x y z
#    x 2.715240 0.000000 0.000000 
#    y 0.000000 2.930440 0.000000 
#    z 0.000000 0.000000 3.152180 
# 
# 
# High freq. dielectric constant tensor:
#      x y z
#    x 1.556640 0.000000 0.000000 
#    y 0.000000 1.568990 0.000000 
#    z 0.000000 0.000000 1.603970 
# 
# From -- ./inp_files/14219.got.cif
#   From: 2010.03.12/outbox.cif.g09.slc.cpg/sg65_8_cif.got.tgz:14219.got - 2010.04.10 20:52:16.
