data_PCOD8265481
_publ_section_title
;
Structure prediction by ZEFSAII (Michael W. Deem and Ramdas Pophale) SiO2 
 PCOD8265481
Probable space group: C M M M
;
_chemical_formula_sum "Si O2"
_cell_formula_units_Z 112
_cell_length_a 16.540159
_cell_length_b 17.761051
_cell_length_c 23.881691
_cell_angle_alpha 90.000000
_cell_angle_beta 90.000000
_cell_angle_gamma 90.000000
_cell_volume 7015.738874
_symmetry_space_group_name_H-M "C M M M"
_symmetry_group_IT_number 65
_symmetry_cell_setting 'orthorhombic'
loop_
_space_group_symop_operation_xyz
x,y,z
-x,-y,z
x,-y,-z
-x,y,-z
-x,-y,-z
x,y,-z
-x,y,z
x,-y,z
1/2+x,1/2+y,z
1/2-x,1/2-y,z
1/2+x,1/2-y,-z
1/2-x,1/2+y,-z
1/2-x,1/2-y,-z
1/2+x,1/2+y,-z
1/2-x,1/2+y,z
1/2+x,1/2-y,z
loop_
_atom_site_type_symbol
_atom_site_label
_atom_site_fract_x
_atom_site_fract_y
_atom_site_fract_z
Si Si1 0.797071 0.584861 0.864563
Si Si2 0.812177 0.181753 0.937249
Si Si3 0.404309 0.915668 0.438900
Si Si4 0.907204 0.271553 0.853540
Si Si5 0.661375 0.717390 0.262170
Si Si6 0.740612 0.082702 0.737189
Si Si7 0.594658 0.156238 0.325655
O O1 0.828647 0.500000 0.879861
O O2 0.728001 0.608550 0.908818
O O3 0.867047 0.647284 0.864536
O O4 0.757532 0.582991 0.803826
O O5 0.750000 0.250000 0.937641
O O6 0.888786 0.211144 0.902142
O O7 0.839567 0.160174 0.000000
O O8 0.371664 0.888124 0.500000
O O9 0.500000 0.917522 0.440843
O O10 0.376337 0.860315 0.389210
O O11 0.371969 0.000000 0.426431
O O12 0.884834 0.230600 0.795597
O O13 0.000000 0.290986 0.852987
O O14 0.750000 0.750000 0.252355
O O15 0.680374 0.631509 0.280749
O O16 0.610755 0.755758 0.312744
O O17 0.652049 0.110726 0.716901
O O18 0.754192 0.000000 0.712153
O O19 0.500000 0.134806 0.316235
#
# Coordination Sequence:
#
# PCOD8265481 Si02
#       7
#    16  16  16  16  16  16  16
#     4  10  19  32  50  72  96 124 155 189 231 281
#     4   9  18  34  53  69  88 122 163 192 217 271
#     4   8  14  25  40  62  99 138 162 186 225 276
#     4  11  19  31  50  72  99 124 149 191 239 281
#     4  10  17  31  46  63  95 130 160 191 231 277
#     4  10  19  30  47  67  93 127 159 193 233 280
#     4  10  18  27  46  75  98 122 157 195 236 277
#
# _framework density 15.964105999999999
#
# number of rings (size 3 to 8) (size 9 to 14) (size 15 to 20)
#    0.000    2.286    4.286    1.714    0.000    1.714 
#    0.000    1.429    0.000    6.857    0.000    5.000 
#    0.000    0.000    0.000    3.571    0.000    0.000 
#
# Total GULP energy -693768.549283 kJ/mol
# GULP energy per Si atom -12388.724094 kJ/mol
# Density = 1.592777 g / cm^3
# Si number density = 15.964106 Si / 1000 Ang^3
#
#
#
# Elastic Constant Matrix: (Units=GPa)
#
#
# Indices 1 2 3 4 5 6 
#
# 1 50.0339 47.0462 30.0770 0.0000 0.0000 0.0000
# 2 47.0462 110.3673 42.8684 0.0000 0.0000 0.0000
# 3 30.0770 42.8684 116.4669 0.0000 0.0000 0.0000
# 4 0.0000 0.0000 0.0000 21.0439 0.0000 0.0000
# 5 0.0000 0.0000 0.0000 0.0000 15.8211 0.0000
# 6 0.0000 0.0000 0.0000 0.0000 0.0000 17.4949
#
#
#
# Elastic Compliance Matrix: (Units=1/GPa)
#
#
# Indices 1 2 3 4 5 6 
#
# 1 0.034985 -0.013306 -0.004137 0.000000 0.000000 0.000000
# 2 -0.013306 0.015633 -0.002318 0.000000 0.000000 0.000000
# 3 -0.004137 -0.002318 0.010508 0.000000 0.000000 0.000000
# 4 0.000000 0.000000 0.000000 0.047520 0.000000 0.000000
# 5 0.000000 0.000000 0.000000 0.000000 0.063207 0.000000
# 6 0.000000 0.000000 0.000000 0.000000 0.000000 0.057159
#
#
# Mechanical properties :
#
#
# Convention : Reuss Voigt Hill
#
# Bulk Modulus (GPa) = 46.28878 57.42790 51.85834
# Shear Modulus (GPa) = 18.13338 21.33041 19.73189
#
# Velocity S-wave (km/s) = 3.37394 3.65930 3.51952
# Velocity P-wave (km/s) = 6.65105 7.34202 7.00506
#
# Compressibility (1/GPa) = 0.02160351
#
# Stress axis : x y z
#
# Youngs Moduli (GPa) = 28.58374 63.96760 95.16891
#
# Poissons Ratio (x) = 0.85116 0.39372
# Poissons Ratio (y) = 0.38034 0.22059
# Poissons Ratio (z) = 0.11825 0.14827
#
# Static dielectric constant tensor:
#      x y z
#    x 2.823170 0.000000 0.000000 
#    y 0.000000 3.632860 0.000000 
#    z 0.000000 0.000000 3.342030 
# 
# 
# High freq. dielectric constant tensor:
#      x y z
#    x 1.579040 0.000000 0.000000 
#    y 0.000000 1.605160 0.000000 
#    z 0.000000 0.000000 1.610280 
# 
# From -- ./inp_files/70639.got.cif
#   From: 2010.03.12/outbox.cif.g09.slc.cpg/sg65_36_cif.got.tgz:70639.got - 2010.04.10 20:52:16.
