data_PCOD8265258
_publ_section_title
;
Structure prediction by ZEFSAII (Michael W. Deem and Ramdas Pophale) SiO2 
 PCOD8265258
Probable space group: C M M M
;
_chemical_formula_sum "Si O2"
_cell_formula_units_Z 80
_cell_length_a 18.223527
_cell_length_b 20.908897
_cell_length_c 14.510932
_cell_angle_alpha 90.000000
_cell_angle_beta 90.000000
_cell_angle_gamma 90.000000
_cell_volume 5529.156273
_symmetry_space_group_name_H-M "C M M M"
_symmetry_group_IT_number 65
_symmetry_cell_setting 'orthorhombic'
loop_
_space_group_symop_operation_xyz
x,y,z
-x,-y,z
x,-y,-z
-x,y,-z
-x,-y,-z
x,y,-z
-x,y,z
x,-y,z
1/2+x,1/2+y,z
1/2-x,1/2-y,z
1/2+x,1/2-y,-z
1/2-x,1/2+y,-z
1/2-x,1/2-y,-z
1/2+x,1/2+y,-z
1/2-x,1/2+y,z
1/2+x,1/2-y,z
loop_
_atom_site_type_symbol
_atom_site_label
_atom_site_fract_x
_atom_site_fract_y
_atom_site_fract_z
Si Si1 0.087386 0.379650 0.791294
Si Si2 0.344532 0.000000 0.890448
Si Si3 0.322563 0.500000 0.109646
Si Si4 0.912712 0.742802 0.897361
Si Si5 0.582072 0.383178 0.890162
Si Si6 0.587135 0.072135 0.399886
O O1 0.116433 0.437093 0.853193
O O2 0.117981 0.312496 0.830412
O O3 0.115877 0.385277 0.685504
O O4 0.000000 0.382277 0.795941
O O5 0.260621 0.000000 0.855837
O O6 0.350287 0.000000 0.000000
O O7 0.363232 0.436986 0.149193
O O8 0.326776 0.500000 0.000000
O O9 0.889133 0.812793 0.859174
O O10 0.000000 0.740628 0.902134
O O11 0.880582 0.731074 0.000000
O O12 0.500000 0.396485 0.851867
O O13 0.579567 0.384609 0.000000
O O14 0.614775 0.098422 0.500000
O O15 0.500000 0.071470 0.399290
O O16 0.616206 0.000000 0.385436
#
# Coordination Sequence:
#
# PCOD8265258 Si02
#       6
#    16   8   8  16  16  16
#     4  10  17  26  38  52  74 106 134 155 179 211
#     4  11  21  27  32  49  77 107 137 161 179 206
#     4   9  17  27  37  52  75  97 122 162 200 223
#     4   8  14  23  36  55  76  98 128 159 180 209
#     4   8  13  24  42  58  70  91 124 159 195 230
#     4   8  13  22  36  53  71  91 121 161 196 220
#
# _framework density 14.468753
#
# number of rings (size 3 to 8) (size 9 to 14) (size 15 to 20)
#    0.000    3.200    1.000    3.000    0.000    2.800 
#    0.000    1.000    0.000    4.800    0.000    0.000 
#    0.000    4.800    0.000    1.400    0.000   27.400 
#
# Total GULP energy -495604.056753 kJ/mol
# GULP energy per Si atom -12390.101419 kJ/mol
# Density = 1.443582 g / cm^3
# Si number density = 14.468753 Si / 1000 Ang^3
#
#
#
# Elastic Constant Matrix: (Units=GPa)
#
#
# Indices 1 2 3 4 5 6 
#
# 1 27.3475 23.5167 13.8609 0.0000 0.0000 0.0000
# 2 23.5167 123.5719 48.0095 0.0000 0.0000 0.0000
# 3 13.8609 48.0095 80.6813 0.0000 0.0000 0.0000
# 4 0.0000 0.0000 0.0000 5.0752 0.0000 0.0000
# 5 0.0000 0.0000 0.0000 0.0000 4.6757 0.0000
# 6 0.0000 0.0000 0.0000 0.0000 0.0000 4.1766
#
#
#
# Elastic Compliance Matrix: (Units=1/GPa)
#
#
# Indices 1 2 3 4 5 6 
#
# 1 0.044420 -0.007139 -0.003383 0.000000 0.000000 0.000000
# 2 -0.007139 0.011673 -0.005720 0.000000 0.000000 0.000000
# 3 -0.003383 -0.005720 0.016379 0.000000 0.000000 0.000000
# 4 0.000000 0.000000 0.000000 0.197035 0.000000 0.000000
# 5 0.000000 0.000000 0.000000 0.000000 0.213870 0.000000
# 6 0.000000 0.000000 0.000000 0.000000 0.000000 0.239428
#
#
# Mechanical properties :
#
#
# Convention : Reuss Voigt Hill
#
# Bulk Modulus (GPa) = 25.00709 44.70833 34.85771
# Shear Modulus (GPa) = 6.50517 12.53309 9.51913
#
# Velocity S-wave (km/s) = 2.12268 2.94635 2.56776
# Velocity P-wave (km/s) = 4.82998 6.52240 5.73892
#
# Compressibility (1/GPa) = 0.03998867
#
# Stress axis : x y z
#
# Youngs Moduli (GPa) = 22.51228 85.66582 61.05300
#
# Poissons Ratio (x) = 0.61157 0.20656
# Poissons Ratio (y) = 0.16072 0.34921
# Poissons Ratio (z) = 0.07616 0.48998
#
# Static dielectric constant tensor:
#      x y z
#    x 2.557570 0.000000 0.000000 
#    y 0.000000 3.142540 0.000000 
#    z 0.000000 0.000000 2.874320 
# 
# 
# High freq. dielectric constant tensor:
#      x y z
#    x 1.511770 0.000000 0.000000 
#    y 0.000000 1.558220 0.000000 
#    z 0.000000 0.000000 1.516040 
# 
# From -- ./inp_files/42647.got.cif
#   From: 2010.03.12/outbox.cif.g09.slc.cpg/sg65_22_cif.got.tgz:42647.got - 2010.04.10 20:52:16.
