data_PCOD8265677
_publ_section_title
;
Structure prediction by ZEFSAII (Michael W. Deem and Ramdas Pophale) SiO2 
 PCOD8265677
Probable space group: C M M M
;
_chemical_formula_sum "Si O2"
_cell_formula_units_Z 120
_cell_length_a 13.934238
_cell_length_b 19.832761
_cell_length_c 24.840136
_cell_angle_alpha 90.000000
_cell_angle_beta 90.000000
_cell_angle_gamma 90.000000
_cell_volume 6864.681178
_symmetry_space_group_name_H-M "C M M M"
_symmetry_group_IT_number 65
_symmetry_cell_setting 'orthorhombic'
loop_
_space_group_symop_operation_xyz
x,y,z
-x,-y,z
x,-y,-z
-x,y,-z
-x,-y,-z
x,y,-z
-x,y,z
x,-y,z
1/2+x,1/2+y,z
1/2-x,1/2-y,z
1/2+x,1/2-y,-z
1/2-x,1/2+y,-z
1/2-x,1/2-y,-z
1/2+x,1/2+y,-z
1/2-x,1/2+y,z
1/2+x,1/2-y,z
loop_
_atom_site_type_symbol
_atom_site_label
_atom_site_fract_x
_atom_site_fract_y
_atom_site_fract_z
Si Si1 0.884975 0.418229 0.000000
Si Si2 0.109902 0.077984 0.438709
Si Si3 0.888329 0.713031 0.690313
Si Si4 0.724064 0.173706 0.085431
Si Si5 0.104649 0.076405 0.747249
Si Si6 0.106166 0.285751 0.185339
Si Si7 0.795858 0.849921 0.656850
Si Si8 0.605798 0.364962 0.144672
O O1 0.842951 0.374759 0.049730
O O2 0.858138 0.500000 0.000000
O O3 0.000000 0.411678 0.000000
O O4 0.124382 0.102093 0.500000
O O5 0.179899 0.121338 0.401649
O O6 0.000000 0.089259 0.420585
O O7 0.137353 0.000000 0.432970
O O8 0.860083 0.706392 0.753181
O O9 0.863352 0.786323 0.668285
O O10 0.818621 0.662770 0.657697
O O11 0.000000 0.695941 0.679728
O O12 0.750000 0.250000 0.062787
O O13 0.677699 0.177009 0.144741
O O14 0.824140 0.133686 0.093073
O O15 0.182831 0.098608 0.704465
O O16 0.142043 0.085076 0.808433
O O17 0.000000 0.114047 0.741576
O O18 0.086451 0.000000 0.734583
O O19 0.105274 0.207876 0.171559
O O20 0.000000 0.316905 0.177903
O O21 0.500000 0.385072 0.123551
#
# Coordination Sequence:
#
# PCOD8265677 Si02
#       8
#     8  16  16  16  16  16  16  16
#     4  11  25  44  61  79 105 137 182 237 284 320
#     4   9  18  33  53  76 100 129 171 222 269 310
#     4  10  20  31  47  74 108 140 168 206 252 309
#     4  10  20  35  59  82 104 136 182 226 265 314
#     4  10  18  27  44  73 106 135 165 204 254 314
#     4   9  16  29  50  75 106 137 170 212 258 306
#     4  11  19  29  50  72 101 136 173 211 256 308
#     4   9  17  29  47  76 109 135 161 204 259 314
#
# _framework density 17.480782999999999
#
# number of rings (size 3 to 8) (size 9 to 14) (size 15 to 20)
#    0.000    2.200    1.333    3.400    3.733    2.133 
#    0.000    1.667    0.000    3.200    0.000    2.800 
#    0.000    0.000    0.000    0.000    0.000    0.000 
#
# Total GULP energy -743396.985834 kJ/mol
# GULP energy per Si atom -12389.949764 kJ/mol
# Density = 1.744100 g / cm^3
# Si number density = 17.480783 Si / 1000 Ang^3
#
#
#
# Elastic Constant Matrix: (Units=GPa)
#
#
# Indices 1 2 3 4 5 6 
#
# 1 103.8396 39.0886 62.9841 0.0000 0.0000 0.0000
# 2 39.0886 67.3633 42.6147 0.0000 0.0000 0.0000
# 3 62.9841 42.6147 83.4730 0.0000 0.0000 0.0000
# 4 0.0000 0.0000 0.0000 22.8054 0.0000 0.0000
# 5 0.0000 0.0000 0.0000 0.0000 25.6948 0.0000
# 6 0.0000 0.0000 0.0000 0.0000 0.0000 24.2019
#
#
#
# Elastic Compliance Matrix: (Units=1/GPa)
#
#
# Indices 1 2 3 4 5 6 
#
# 1 0.018096 -0.002751 -0.012250 0.000000 0.000000 0.000000
# 2 -0.002751 0.022344 -0.009331 0.000000 0.000000 0.000000
# 3 -0.012250 -0.009331 0.025987 0.000000 0.000000 0.000000
# 4 0.000000 0.000000 0.000000 0.043849 0.000000 0.000000
# 5 0.000000 0.000000 0.000000 0.000000 0.038918 0.000000
# 6 0.000000 0.000000 0.000000 0.000000 0.000000 0.041319
#
#
# Mechanical properties :
#
#
# Convention : Reuss Voigt Hill
#
# Bulk Modulus (GPa) = 56.29809 60.45007 58.37408
# Shear Modulus (GPa) = 20.39991 21.87298 21.13644
#
# Velocity S-wave (km/s) = 3.41983 3.54115 3.48102
# Velocity P-wave (km/s) = 6.91876 7.16768 7.04432
#
# Compressibility (1/GPa) = 0.01776259
#
# Stress axis : x y z
#
# Youngs Moduli (GPa) = 55.26099 44.75384 38.48121
#
# Poissons Ratio (x) = 0.12313 0.47138
# Poissons Ratio (y) = 0.15203 0.35908
# Poissons Ratio (z) = 0.67693 0.41762
#
# Static dielectric constant tensor:
#      x y z
#    x 2.968210 0.000000 0.000000 
#    y 0.000000 7.073240 0.000000 
#    z 0.000000 0.000000 3.142500 
# 
# 
# High freq. dielectric constant tensor:
#      x y z
#    x 1.678120 0.000000 0.000000 
#    y 0.000000 1.652680 0.000000 
#    z 0.000000 0.000000 1.662180 
# 
# From -- ./inp_files/63057.got.cif
#   From: 2010.03.12/outbox.cif.g09.slc.cpg/sg65_32_cif.got.tgz:63057.got - 2010.04.10 20:52:16.
