data_PCOD8265353
_publ_section_title
;
Structure prediction by ZEFSAII (Michael W. Deem and Ramdas Pophale) SiO2 
 PCOD8265353
Probable space group: C M M M
;
_chemical_formula_sum "Si O2"
_cell_formula_units_Z 96
_cell_length_a 32.394283
_cell_length_b 17.145589
_cell_length_c 9.892514
_cell_angle_alpha 90.000000
_cell_angle_beta 90.000000
_cell_angle_gamma 90.000000
_cell_volume 5494.490849
_symmetry_space_group_name_H-M "C M M M"
_symmetry_group_IT_number 65
_symmetry_cell_setting 'orthorhombic'
loop_
_space_group_symop_operation_xyz
x,y,z
-x,-y,z
x,-y,-z
-x,y,-z
-x,-y,-z
x,y,-z
-x,y,z
x,-y,z
1/2+x,1/2+y,z
1/2-x,1/2-y,z
1/2+x,1/2-y,-z
1/2-x,1/2+y,-z
1/2-x,1/2-y,-z
1/2+x,1/2+y,-z
1/2-x,1/2+y,z
1/2+x,1/2-y,z
loop_
_atom_site_type_symbol
_atom_site_label
_atom_site_fract_x
_atom_site_fract_y
_atom_site_fract_z
Si Si1 0.837567 0.412915 0.154089
Si Si2 0.455425 0.669422 0.155067
Si Si3 0.624005 0.243517 0.842715
Si Si4 0.133063 0.000000 0.649151
Si Si5 0.736675 0.910676 0.347671
Si Si6 0.953950 0.000000 0.744379
Si Si7 0.324840 0.346595 0.658147
O O1 0.853400 0.500000 0.193511
O O2 0.874818 0.350732 0.172541
O O3 0.799348 0.386851 0.246038
O O4 0.821738 0.411666 0.000000
O O5 0.500000 0.689887 0.223688
O O6 0.418818 0.721834 0.218824
O O7 0.447479 0.576829 0.165080
O O8 0.457834 0.692474 0.000000
O O9 0.661447 0.275091 0.751641
O O10 0.629826 0.268216 0.000000
O O11 0.150357 0.921640 0.718053
O O12 0.152554 0.000000 0.500000
O O13 0.083143 0.000000 0.636648
O O14 0.720224 0.897781 0.500000
O O15 0.776102 0.856587 0.320622
O O16 0.750510 0.000000 0.325936
O O17 0.000000 0.000000 0.676928
O O18 0.335462 0.331105 0.500000
#
# Coordination Sequence:
#
# PCOD8265353 Si02
#       7
#    16  16  16   8  16   8  16
#     4   9  19  35  52  69  93 123 155 197 249 294
#     4   9  17  29  46  69  97 126 155 190 231 276
#     4  10  20  33  50  72  95 123 160 199 239 285
#     4  10  18  30  45  64  98 137 163 190 231 277
#     4   9  17  31  51  71  93 126 166 198 229 277
#     4  10  17  27  46  69  95 126 162 194 228 275
#     4  10  19  32  49  70  99 132 162 195 235 276
#
# _framework density 17.472045999999999
#
# number of rings (size 3 to 8) (size 9 to 14) (size 15 to 20)
#    0.000    2.500    2.500    0.250    0.000    3.167 
#    0.000    3.750    0.000    1.000    0.000    3.500 
#    0.000    0.000    0.000    5.667    0.000    6.000 
#
# Total GULP energy -594800.501150 kJ/mol
# GULP energy per Si atom -12391.677107 kJ/mol
# Density = 1.743228 g / cm^3
# Si number density = 17.472046 Si / 1000 Ang^3
#
#
#
# Elastic Constant Matrix: (Units=GPa)
#
#
# Indices 1 2 3 4 5 6 
#
# 1 98.6181 61.7654 30.3969 0.0000 0.0000 0.0000
# 2 61.7654 105.5608 31.9341 0.0000 0.0000 0.0000
# 3 30.3969 31.9341 48.2244 0.0000 0.0000 0.0000
# 4 0.0000 0.0000 0.0000 17.6959 0.0000 0.0000
# 5 0.0000 0.0000 0.0000 0.0000 17.8133 0.0000
# 6 0.0000 0.0000 0.0000 0.0000 0.0000 25.0511
#
#
#
# Elastic Compliance Matrix: (Units=1/GPa)
#
#
# Indices 1 2 3 4 5 6 
#
# 1 0.016972 -0.008371 -0.005154 0.000000 0.000000 0.000000
# 2 -0.008371 0.015975 -0.005302 0.000000 0.000000 0.000000
# 3 -0.005154 -0.005302 0.027496 0.000000 0.000000 0.000000
# 4 0.000000 0.000000 0.000000 0.056510 0.000000 0.000000
# 5 0.000000 0.000000 0.000000 0.000000 0.056138 0.000000
# 6 0.000000 0.000000 0.000000 0.000000 0.000000 0.039918
#
#
# Mechanical properties :
#
#
# Convention : Reuss Voigt Hill
#
# Bulk Modulus (GPa) = 43.88278 55.62181 49.75230
# Shear Modulus (GPa) = 19.36020 20.66585 20.01303
#
# Velocity S-wave (km/s) = 3.33238 3.44291 3.38809
# Velocity P-wave (km/s) = 6.32272 6.90715 6.62139
#
# Compressibility (1/GPa) = 0.02278798
#
# Stress axis : x y z
#
# Youngs Moduli (GPa) = 58.92136 62.59632 36.36829
#
# Poissons Ratio (x) = 0.52401 0.18745
# Poissons Ratio (y) = 0.49324 0.19284
# Poissons Ratio (z) = 0.30370 0.33191
#
# Static dielectric constant tensor:
#      x y z
#    x 3.348360 0.000000 0.000000 
#    y 0.000000 3.290680 0.000000 
#    z 0.000000 0.000000 3.038880 
# 
# 
# High freq. dielectric constant tensor:
#      x y z
#    x 1.664470 0.000000 0.000000 
#    y 0.000000 1.669000 0.000000 
#    z 0.000000 0.000000 1.652350 
# 
# From -- ./inp_files/33912.got.cif
#   From: 2010.03.12/outbox.cif.g09.slc.cpg/sg65_17_cif.got.tgz:33912.got - 2010.04.10 20:52:16.
