data_PCOD8265245
_publ_section_title
;
Structure prediction by ZEFSAII (Michael W. Deem and Ramdas Pophale) SiO2 
 PCOD8265245
Probable space group: C M M M
;
_chemical_formula_sum "Si O2"
_cell_formula_units_Z 80
_cell_length_a 23.785873
_cell_length_b 26.218316
_cell_length_c 9.228148
_cell_angle_alpha 90.000000
_cell_angle_beta 90.000000
_cell_angle_gamma 90.000000
_cell_volume 5754.908730
_symmetry_space_group_name_H-M "C M M M"
_symmetry_group_IT_number 65
_symmetry_cell_setting 'orthorhombic'
loop_
_space_group_symop_operation_xyz
x,y,z
-x,-y,z
x,-y,-z
-x,y,-z
-x,-y,-z
x,y,-z
-x,y,z
x,-y,z
1/2+x,1/2+y,z
1/2-x,1/2-y,z
1/2+x,1/2-y,-z
1/2-x,1/2+y,-z
1/2-x,1/2-y,-z
1/2+x,1/2+y,-z
1/2-x,1/2+y,z
1/2+x,1/2-y,z
loop_
_atom_site_type_symbol
_atom_site_label
_atom_site_fract_x
_atom_site_fract_y
_atom_site_fract_z
Si Si1 0.281295 0.303864 0.160692
Si Si2 0.385714 0.943557 0.671451
Si Si3 0.000000 0.393723 0.327523
Si Si4 0.313433 0.849617 0.671023
Si Si5 0.621724 0.762061 0.168315
Si Si6 0.500000 0.788763 0.834315
O O1 0.250000 0.250000 0.162580
O O2 0.250036 0.342773 0.268683
O O3 0.345463 0.290601 0.210160
O O4 0.280283 0.328076 0.000000
O O5 0.390427 0.946413 0.500000
O O6 0.445153 0.923058 0.732143
O O7 0.335053 0.905811 0.715858
O O8 0.373654 0.000000 0.735671
O O9 0.000000 0.390394 0.500000
O O10 0.000000 0.336717 0.269736
O O11 0.312418 0.841677 0.500000
O O12 0.356704 0.809190 0.737069
O O13 0.555283 0.754404 0.196335
O O14 0.634741 0.774755 0.000000
O O15 0.500000 0.808254 0.000000
#
# Coordination Sequence:
#
# PCOD8265245 Si02
#       6
#    16  16   8  16  16   8
#     4   8  15  27  40  53  72  97 121 146 185 232
#     4   9  17  27  39  55  74  98 129 163 196 228
#     4  10  17  28  42  54  70  98 134 165 195 223
#     4  10  17  25  40  58  73  92 124 162 191 218
#     4   9  17  28  40  54  74 100 124 149 186 229
#     4  10  18  27  41  57  76 100 127 159 190 220
#
# _framework density 13.901177000000001
#
# number of rings (size 3 to 8) (size 9 to 14) (size 15 to 20)
#    0.000    2.800    2.000    2.100    0.000    4.800 
#    0.000    0.000    0.000    6.000    0.000    0.000 
#    0.000    0.000    0.000    0.900    0.000   20.200 
#
# Total GULP energy -495675.961756 kJ/mol
# GULP energy per Si atom -12391.899044 kJ/mol
# Density = 1.386954 g / cm^3
# Si number density = 13.901177 Si / 1000 Ang^3
#
#
#
# Elastic Constant Matrix: (Units=GPa)
#
#
# Indices 1 2 3 4 5 6 
#
# 1 121.6702 64.3046 34.6400 0.0000 0.0000 0.0000
# 2 64.3046 66.0969 26.9766 0.0000 0.0000 0.0000
# 3 34.6400 26.9766 42.9741 0.0000 0.0000 0.0000
# 4 0.0000 0.0000 0.0000 1.2558 0.0000 0.0000
# 5 0.0000 0.0000 0.0000 0.0000 18.2635 0.0000
# 6 0.0000 0.0000 0.0000 0.0000 0.0000 20.0577
#
#
#
# Elastic Compliance Matrix: (Units=1/GPa)
#
#
# Indices 1 2 3 4 5 6 
#
# 1 0.017573 -0.015213 -0.004615 0.000000 0.000000 0.000000
# 2 -0.015213 0.033511 -0.008773 0.000000 0.000000 0.000000
# 3 -0.004615 -0.008773 0.032497 0.000000 0.000000 0.000000
# 4 0.000000 0.000000 0.000000 0.796330 0.000000 0.000000
# 5 0.000000 0.000000 0.000000 0.000000 0.054754 0.000000
# 6 0.000000 0.000000 0.000000 0.000000 0.000000 0.049856
#
#
# Mechanical properties :
#
#
# Convention : Reuss Voigt Hill
#
# Bulk Modulus (GPa) = 37.91040 53.62039 45.76539
# Shear Modulus (GPa) = 4.75956 14.90338 9.83147
#
# Velocity S-wave (km/s) = 1.85237 3.27784 2.66228
# Velocity P-wave (km/s) = 5.64851 7.27887 6.51489
#
# Compressibility (1/GPa) = 0.02637799
#
# Stress axis : x y z
#
# Youngs Moduli (GPa) = 56.90449 29.84139 30.77166
#
# Poissons Ratio (x) = 0.45398 0.14202
# Poissons Ratio (y) = 0.86569 0.26996
# Poissons Ratio (z) = 0.26264 0.26180
#
# Static dielectric constant tensor:
#      x y z
#    x 3.173930 0.000000 0.000000 
#    y 0.000000 2.660470 0.000000 
#    z 0.000000 0.000000 2.661040 
# 
# 
# High freq. dielectric constant tensor:
#      x y z
#    x 1.530150 0.000000 0.000000 
#    y 0.000000 1.486170 0.000000 
#    z 0.000000 0.000000 1.521220 
# 
# From -- ./inp_files/14538.got.cif
#   From: 2010.03.12/outbox.cif.g09.slc.cpg/sg65_8_cif.got.tgz:14538.got - 2010.04.10 20:52:16.
