data_PCOD8265135
_publ_section_title
;
Structure prediction by ZEFSAII (Michael W. Deem and Ramdas Pophale) SiO2 
 PCOD8265135
Probable space group: C M M M
;
_chemical_formula_sum "Si O2"
_cell_formula_units_Z 64
_cell_length_a 18.578299
_cell_length_b 8.603061
_cell_length_c 20.968768
_cell_angle_alpha 90.000000
_cell_angle_beta 90.000000
_cell_angle_gamma 90.000000
_cell_volume 3351.443213
_symmetry_space_group_name_H-M "C M M M"
_symmetry_group_IT_number 65
_symmetry_cell_setting 'orthorhombic'
loop_
_space_group_symop_operation_xyz
x,y,z
-x,-y,z
x,-y,-z
-x,y,-z
-x,-y,-z
x,y,-z
-x,y,z
x,-y,z
1/2+x,1/2+y,z
1/2-x,1/2-y,z
1/2+x,1/2-y,-z
1/2-x,1/2+y,-z
1/2-x,1/2-y,-z
1/2+x,1/2+y,-z
1/2-x,1/2+y,z
1/2+x,1/2-y,z
loop_
_atom_site_type_symbol
_atom_site_label
_atom_site_fract_x
_atom_site_fract_y
_atom_site_fract_z
Si Si1 0.085134 0.177824 0.869041
Si Si2 0.828583 0.681897 0.243524
Si Si3 0.330151 0.316159 0.372383
Si Si4 0.085541 0.324867 0.000000
Si Si5 0.169483 0.683851 0.500000
O O1 0.120204 0.285574 0.815785
O O2 0.113753 0.234617 0.937723
O O3 0.000000 0.197600 0.864242
O O4 0.108867 0.000000 0.859052
O O5 0.821262 0.500000 0.255518
O O6 0.750000 0.750000 0.229260
O O7 0.866077 0.759479 0.306274
O O8 0.330594 0.500000 0.376979
O O9 0.250000 0.250000 0.369958
O O10 0.369646 0.246573 0.435571
O O11 0.116252 0.500000 0.000000
O O12 0.000000 0.327059 0.000000
O O13 0.170283 0.500000 0.500000
O O14 0.250000 0.750000 0.500000
#
# Coordination Sequence:
#
# PCOD8265135 Si02
#       5
#    16  16  16   8   8
#     4  10  20  35  55  78 103 132 167 206 248 295
#     4  11  21  34  51  73 103 136 169 206 252 301
#     4  10  17  27  42  63  92 126 163 202 247 294
#     4   9  17  31  52  77 102 129 164 205 247 291
#     4  10  16  24  38  60  89 122 161 202 245 290
#
# _framework density 19.096250999999999
#
# number of rings (size 3 to 8) (size 9 to 14) (size 15 to 20)
#    0.000    1.875    0.000    9.750    0.000    3.000 
#    0.000    0.625    0.000    0.000    0.000    0.875 
#    0.000    7.000    0.000    0.000    0.000    0.000 
#
# Total GULP energy -396710.464671 kJ/mol
# GULP energy per Si atom -12397.202021 kJ/mol
# Density = 1.905279 g / cm^3
# Si number density = 19.096251 Si / 1000 Ang^3
#
#
#
# Elastic Constant Matrix: (Units=GPa)
#
#
# Indices 1 2 3 4 5 6 
#
# 1 17.0040 18.3654 24.6173 0.0000 0.0000 0.0000
# 2 18.3654 174.3665 58.6902 0.0000 0.0000 0.0000
# 3 24.6173 58.6902 181.4645 0.0000 0.0000 0.0000
# 4 0.0000 0.0000 0.0000 42.8133 0.0000 0.0000
# 5 0.0000 0.0000 0.0000 0.0000 -25.8577 0.0000
# 6 0.0000 0.0000 0.0000 0.0000 0.0000 18.1285
#
#
#
# Elastic Compliance Matrix: (Units=1/GPa)
#
#
# Indices 1 2 3 4 5 6 
#
# 1 0.077114 -0.005163 -0.008791 0.000000 0.000000 0.000000
# 2 -0.005163 0.006781 -0.001493 0.000000 0.000000 0.000000
# 3 -0.008791 -0.001493 0.007186 0.000000 0.000000 0.000000
# 4 0.000000 0.000000 0.000000 0.023357 0.000000 0.000000
# 5 0.000000 0.000000 0.000000 0.000000 -0.038673 0.000000
# 6 0.000000 0.000000 0.000000 0.000000 0.000000 0.055162
#
#
# Mechanical properties :
#
#
# Convention : Reuss Voigt Hill
#
# Bulk Modulus (GPa) = 16.61496 64.02011 40.31753
# Shear Modulus (GPa) = 27.49010 25.09428 26.29219
#
# Velocity S-wave (km/s) = 3.79826 3.62898 3.71458
# Velocity P-wave (km/s) = 5.28727 7.15241 6.28937
#
# Compressibility (1/GPa) = 0.06018673
#
# Stress axis : x y z
#
# Youngs Moduli (GPa) = 12.96788 147.46377 139.15630
#
# Poissons Ratio (x) = 0.76136 1.22337
# Poissons Ratio (y) = 0.06695 0.20774
# Poissons Ratio (z) = 0.11400 0.22014
#
# Static dielectric constant tensor:
#      x y z
#    x 3.081150 0.000000 0.000000 
#    y 0.000000 3.654440 0.000000 
#    z 0.000000 0.000000 4.678880 
# 
# 
# High freq. dielectric constant tensor:
#      x y z
#    x 1.660560 0.000000 0.000000 
#    y 0.000000 1.766300 0.000000 
#    z 0.000000 0.000000 1.776780 
# 
# From -- ./inp_files/63260.got.cif
#   From: 2010.03.12/outbox.cif.g09.slc.cpg/sg65_32_cif.got.tgz:63260.got - 2010.04.10 20:52:16.
