data_PCOD8265577
_publ_section_title
;
Structure prediction by ZEFSAII (Michael W. Deem and Ramdas Pophale) SiO2 
 PCOD8265577
Probable space group: C M M M
;
_chemical_formula_sum "Si O2"
_cell_formula_units_Z 96
_cell_length_a 27.244176
_cell_length_b 8.996953
_cell_length_c 24.285234
_cell_angle_alpha 90.000000
_cell_angle_beta 90.000000
_cell_angle_gamma 90.000000
_cell_volume 5952.664713
_symmetry_space_group_name_H-M "C M M M"
_symmetry_group_IT_number 65
_symmetry_cell_setting 'orthorhombic'
loop_
_space_group_symop_operation_xyz
x,y,z
-x,-y,z
x,-y,-z
-x,y,-z
-x,-y,-z
x,y,-z
-x,y,z
x,-y,z
1/2+x,1/2+y,z
1/2-x,1/2-y,z
1/2+x,1/2-y,-z
1/2-x,1/2+y,-z
1/2-x,1/2-y,-z
1/2+x,1/2+y,-z
1/2-x,1/2+y,z
1/2+x,1/2-y,z
loop_
_atom_site_type_symbol
_atom_site_label
_atom_site_fract_x
_atom_site_fract_y
_atom_site_fract_z
Si Si1 0.700832 0.825742 0.623034
Si Si2 0.897015 0.325284 0.561870
Si Si3 0.650655 0.672993 0.279565
Si Si4 0.302791 0.674869 0.834456
Si Si5 0.445640 0.673254 0.660096
Si Si6 0.197288 0.674260 0.940212
O O1 0.750000 0.750000 0.600278
O O2 0.657762 0.782313 0.580929
O O3 0.688608 0.765488 0.683781
O O4 0.709214 0.000000 0.627132
O O5 0.904927 0.265585 0.500000
O O6 0.904863 0.500000 0.564847
O O7 0.936705 0.252139 0.601821
O O8 0.659473 0.500000 0.292153
O O9 0.660917 0.710151 0.216028
O O10 0.594673 0.721049 0.294226
O O11 0.295182 0.500000 0.842746
O O12 0.250000 0.750000 0.823895
O O13 0.329641 0.745653 0.888706
O O14 0.500000 0.717138 0.681741
O O15 0.441844 0.500000 0.648331
O O16 0.202787 0.500000 0.928042
O O17 0.250000 0.750000 0.942780
O O18 0.170962 0.699556 0.000000
#
# Coordination Sequence:
#
# PCOD8265577 Si02
#       6
#    16  16  16  16  16  16
#     4  10  19  30  45  63  84 113 144 173 208 247
#     4   9  19  34  48  64  87 112 139 171 207 251
#     4   9  18  31  45  63  86 111 141 175 211 253
#     4  10  18  26  39  59  84 114 145 174 204 240
#     4   9  18  33  51  68  86 108 135 171 215 259
#     4   9  16  25  37  54  79 112 147 178 206 236
#
# _framework density 16.127230000000001
#
# number of rings (size 3 to 8) (size 9 to 14) (size 15 to 20)
#    0.000    2.667    0.000    3.000    0.000    5.667 
#    0.000    1.667    0.000    0.000    0.000    0.000 
#    0.000    0.667    0.000    8.333    0.000    1.333 
#
# Total GULP energy -594938.628514 kJ/mol
# GULP energy per Si atom -12394.554761 kJ/mol
# Density = 1.609052 g / cm^3
# Si number density = 16.127230 Si / 1000 Ang^3
#
#
#
# Elastic Constant Matrix: (Units=GPa)
#
#
# Indices 1 2 3 4 5 6 
#
# 1 73.3378 23.4832 37.1615 0.0000 0.0000 0.0000
# 2 23.4832 58.9094 39.0919 0.0000 0.0000 0.0000
# 3 37.1615 39.0919 131.0604 0.0000 0.0000 0.0000
# 4 0.0000 0.0000 0.0000 27.0222 0.0000 0.0000
# 5 0.0000 0.0000 0.0000 0.0000 14.5716 0.0000
# 6 0.0000 0.0000 0.0000 0.0000 0.0000 17.7113
#
#
#
# Elastic Compliance Matrix: (Units=1/GPa)
#
#
# Indices 1 2 3 4 5 6 
#
# 1 0.016793 -0.004407 -0.003447 0.000000 0.000000 0.000000
# 2 -0.004407 0.022321 -0.005408 0.000000 0.000000 0.000000
# 3 -0.003447 -0.005408 0.010221 0.000000 0.000000 0.000000
# 4 0.000000 0.000000 0.000000 0.037007 0.000000 0.000000
# 5 0.000000 0.000000 0.000000 0.000000 0.068627 0.000000
# 6 0.000000 0.000000 0.000000 0.000000 0.000000 0.056461
#
#
# Mechanical properties :
#
#
# Convention : Reuss Voigt Hill
#
# Bulk Modulus (GPa) = 43.83983 51.42010 47.62997
# Shear Modulus (GPa) = 20.36185 22.76573 21.56379
#
# Velocity S-wave (km/s) = 3.55713 3.76125 3.66061
# Velocity P-wave (km/s) = 6.64181 7.12853 6.88947
#
# Compressibility (1/GPa) = 0.02281031
#
# Stress axis : x y z
#
# Youngs Moduli (GPa) = 59.54718 44.80135 97.84124
#
# Poissons Ratio (x) = 0.19743 0.33728
# Poissons Ratio (y) = 0.26241 0.52914
# Poissons Ratio (z) = 0.20527 0.24229
#
# Static dielectric constant tensor:
#      x y z
#    x 2.941740 0.000000 0.000000 
#    y 0.000000 3.138240 0.000000 
#    z 0.000000 0.000000 3.531030 
# 
# 
# High freq. dielectric constant tensor:
#      x y z
#    x 1.581610 0.000000 0.000000 
#    y 0.000000 1.629540 0.000000 
#    z 0.000000 0.000000 1.621880 
# 
# From -- ./inp_files/67851.got.cif
#   From: 2010.03.12/outbox.cif.g09.slc.cpg/sg65_34_cif.got.tgz:67851.got - 2010.04.10 20:52:16.
