data_PCOD8265467
_publ_section_title
;
Structure prediction by ZEFSAII (Michael W. Deem and Ramdas Pophale) SiO2 
 PCOD8265467
Probable space group: C M M M
;
_chemical_formula_sum "Si O2"
_cell_formula_units_Z 56
_cell_length_a 32.695983
_cell_length_b 11.530148
_cell_length_c 7.744727
_cell_angle_alpha 90.000000
_cell_angle_beta 90.000000
_cell_angle_gamma 90.000000
_cell_volume 2919.680937
_symmetry_space_group_name_H-M "C M M M"
_symmetry_group_IT_number 65
_symmetry_cell_setting 'orthorhombic'
loop_
_space_group_symop_operation_xyz
x,y,z
-x,-y,z
x,-y,-z
-x,y,-z
-x,-y,-z
x,y,-z
-x,y,z
x,-y,z
1/2+x,1/2+y,z
1/2-x,1/2-y,z
1/2+x,1/2-y,-z
1/2-x,1/2+y,-z
1/2-x,1/2-y,-z
1/2+x,1/2+y,-z
1/2-x,1/2+y,z
1/2+x,1/2-y,z
loop_
_atom_site_type_symbol
_atom_site_label
_atom_site_fract_x
_atom_site_fract_y
_atom_site_fract_z
Si Si1 0.954181 0.000000 0.204068
Si Si2 0.658704 0.130012 0.307237
Si Si3 0.920347 0.759001 0.795673
Si Si4 0.000000 0.371031 0.794532
Si Si5 0.779834 0.637621 0.000000
O O1 0.927801 0.890416 0.263675
O O2 0.000000 0.000000 0.285384
O O3 0.959733 0.000000 0.000000
O O4 0.677276 0.142213 0.500000
O O5 0.620971 0.216906 0.292068
O O6 0.693876 0.158367 0.171318
O O7 0.642106 0.000000 0.273764
O O8 0.959189 0.688853 0.723440
O O9 0.915836 0.744565 0.000000
O O10 0.000000 0.500000 0.722614
O O11 0.000000 0.364103 0.000000
O O12 0.750000 0.750000 0.000000
O O13 0.762815 0.500000 0.000000
#
# Coordination Sequence:
#
# PCOD8265467 Si02
#       5
#     8  16  16   8   8
#     4   9  16  28  47  75 111 158 205 243 288 337
#     4  10  21  38  61  88 119 152 188 235 288 342
#     4  10  17  30  51  77 112 153 198 241 285 336
#     4   9  16  23  42  74 105 144 196 244 280 324
#     4  10  22  44  70  95 120 151 187 228 289 358
#
# _framework density 19.180178999999999
#
# number of rings (size 3 to 8) (size 9 to 14) (size 15 to 20)
#    0.000    2.286    2.857    0.857    0.000    1.714 
#    2.571    1.429    0.000    3.429    0.000    0.000 
#    0.000    0.000    0.000    0.000    0.000    0.000 
#
# Total GULP energy -346993.446505 kJ/mol
# GULP energy per Si atom -12392.623089 kJ/mol
# Density = 1.913652 g / cm^3
# Si number density = 19.180179 Si / 1000 Ang^3
#
#
#
# Elastic Constant Matrix: (Units=GPa)
#
#
# Indices 1 2 3 4 5 6 
#
# 1 109.5964 81.6768 45.9663 0.0000 0.0000 0.0000
# 2 81.6768 172.8915 38.4832 0.0000 0.0000 0.0000
# 3 45.9663 38.4832 87.1335 0.0000 0.0000 0.0000
# 4 0.0000 0.0000 0.0000 13.7693 0.0000 0.0000
# 5 0.0000 0.0000 0.0000 0.0000 -7.4212 0.0000
# 6 0.0000 0.0000 0.0000 0.0000 0.0000 38.1559
#
#
#
# Elastic Compliance Matrix: (Units=1/GPa)
#
#
# Indices 1 2 3 4 5 6 
#
# 1 0.016344 -0.006435 -0.005780 0.000000 0.000000 0.000000
# 2 -0.006435 0.008948 -0.000557 0.000000 0.000000 0.000000
# 3 -0.005780 -0.000557 0.014772 0.000000 0.000000 0.000000
# 4 0.000000 0.000000 0.000000 0.072625 0.000000 0.000000
# 5 0.000000 0.000000 0.000000 0.000000 -0.134749 0.000000
# 6 0.000000 0.000000 0.000000 0.000000 0.000000 0.026208
#
#
# Mechanical properties :
#
#
# Convention : Reuss Voigt Hill
#
# Bulk Modulus (GPa) = 68.87250 77.98601 73.42925
# Shear Modulus (GPa) = 144.78730 22.46713 83.62722
#
# Velocity S-wave (km/s) = 8.69781 3.42624 6.61026
# Velocity P-wave (km/s) = 11.69852 7.51000 9.82994
#
# Compressibility (1/GPa) = 0.01451958
#
# Stress axis : x y z
#
# Youngs Moduli (GPa) = 61.18399 111.75849 67.69503
#
# Poissons Ratio (x) = 0.71913 0.39130
# Poissons Ratio (y) = 0.39370 0.03773
# Poissons Ratio (z) = 0.35366 0.06229
#
# Static dielectric constant tensor:
#      x y z
#    x 3.241580 0.000000 0.000000 
#    y 0.000000 3.861820 0.000000 
#    z 0.000000 0.000000 3.342710 
# 
# 
# High freq. dielectric constant tensor:
#      x y z
#    x 1.718770 0.000000 0.000000 
#    y 0.000000 1.756910 0.000000 
#    z 0.000000 0.000000 1.735720 
# 
# From -- ./inp_files/4783.got.cif
#   From: 2010.03.12/outbox.cif.g09.slc.cpg/sg65_3_cif.got.tgz:4783.got - 2010.04.10 20:52:16.
