data_PCOD8265100
_publ_section_title
;
Structure prediction by ZEFSAII (Michael W. Deem and Ramdas Pophale) SiO2 
 PCOD8265100
Probable space group: C M M M
;
_chemical_formula_sum "Si O2"
_cell_formula_units_Z 72
_cell_length_a 30.778909
_cell_length_b 8.972804
_cell_length_c 17.570761
_cell_angle_alpha 90.000000
_cell_angle_beta 90.000000
_cell_angle_gamma 90.000000
_cell_volume 4852.571847
_symmetry_space_group_name_H-M "C M M M"
_symmetry_group_IT_number 65
_symmetry_cell_setting 'orthorhombic'
loop_
_space_group_symop_operation_xyz
x,y,z
-x,-y,z
x,-y,-z
-x,y,-z
-x,-y,-z
x,y,-z
-x,y,z
x,-y,z
1/2+x,1/2+y,z
1/2-x,1/2-y,z
1/2+x,1/2-y,-z
1/2-x,1/2+y,-z
1/2-x,1/2-y,-z
1/2+x,1/2+y,-z
1/2-x,1/2+y,z
1/2+x,1/2-y,z
loop_
_atom_site_type_symbol
_atom_site_label
_atom_site_fract_x
_atom_site_fract_y
_atom_site_fract_z
Si Si1 0.632282 0.330519 0.409793
Si Si2 0.798184 0.822066 0.000000
Si Si3 0.203719 0.672441 0.313219
Si Si4 0.952344 0.667510 0.590408
Si Si5 0.796246 0.673389 0.854837
O O1 0.635083 0.312255 0.500000
O O2 0.637530 0.500000 0.383741
O O3 0.670829 0.235653 0.374667
O O4 0.585721 0.273468 0.378313
O O5 0.750000 0.750000 0.000000
O O6 0.822004 0.759288 0.923286
O O7 0.797444 0.000000 0.000000
O O8 0.211451 0.500000 0.330459
O O9 0.250000 0.750000 0.322148
O O10 0.182472 0.694082 0.228659
O O11 0.951970 0.669040 0.500000
O O12 0.943715 0.500000 0.620003
O O13 0.000000 0.722856 0.619073
O O14 0.791352 0.500000 0.876365
O O15 0.750000 0.750000 0.847769
#
# Coordination Sequence:
#
# PCOD8265100 Si02
#       5
#    16   8  16  16  16
#     4  10  20  31  43  60  81 106 137 172 208 245
#     4  10  16  22  36  56  76  98 123 154 193 236
#     4  10  20  32  45  58  76 106 141 176 210 241
#     4   8  14  26  44  63  81 101 126 159 201 247
#     4   9  16  26  39  55  74  97 127 162 199 237
#
# _framework density 14.837493
#
# number of rings (size 3 to 8) (size 9 to 14) (size 15 to 20)
#    0.000    2.667    0.000    5.000    0.000    4.889 
#    0.000    2.222    0.000    0.000    0.000    0.000 
#    0.000    0.000    0.000    1.000    0.000   19.444 
#
# Total GULP energy -446015.151063 kJ/mol
# GULP energy per Si atom -12389.309752 kJ/mol
# Density = 1.480372 g / cm^3
# Si number density = 14.837493 Si / 1000 Ang^3
#
#
#
# Elastic Constant Matrix: (Units=GPa)
#
#
# Indices 1 2 3 4 5 6 
#
# 1 75.6705 44.0437 29.0515 0.0000 0.0000 0.0000
# 2 44.0437 119.3013 37.4758 0.0000 0.0000 0.0000
# 3 29.0515 37.4758 40.6812 0.0000 0.0000 0.0000
# 4 0.0000 0.0000 0.0000 21.3127 0.0000 0.0000
# 5 0.0000 0.0000 0.0000 0.0000 -0.0528 0.0000
# 6 0.0000 0.0000 0.0000 0.0000 0.0000 21.9097
#
#
#
# Elastic Compliance Matrix: (Units=1/GPa)
#
#
# Indices 1 2 3 4 5 6 
#
# 1 0.019455 -0.003966 -0.010240 0.000000 0.000000 0.000000
# 2 -0.003966 0.012604 -0.008779 0.000000 0.000000 0.000000
# 3 -0.010240 -0.008779 0.039981 0.000000 0.000000 0.000000
# 4 0.000000 0.000000 0.000000 0.046920 0.000000 0.000000
# 5 0.000000 0.000000 0.000000 0.000000-18.942897 0.000000
# 6 0.000000 0.000000 0.000000 0.000000 0.000000 0.045642
#
#
# Mechanical properties :
#
#
# Convention : Reuss Voigt Hill
#
# Bulk Modulus (GPa) = 38.35697 50.75499 44.55598
# Shear Modulus (GPa) = -0.26704 16.97273 8.35285
#
# Velocity S-wave (km/s) = -0.42470 3.38584 2.37524
# Velocity P-wave (km/s) = 5.06626 7.04037 6.13326
#
# Compressibility (1/GPa) = 0.02607088
#
# Stress axis : x y z
#
# Youngs Moduli (GPa) = 51.40141 79.34101 25.01192
#
# Poissons Ratio (x) = 0.31464 0.25612
# Poissons Ratio (y) = 0.20384 0.21957
# Poissons Ratio (z) = 0.52635 0.69651
#
# Static dielectric constant tensor:
#      x y z
#    x 2.715640 0.000000 0.000000 
#    y 0.000000 3.075910 0.000000 
#    z 0.000000 0.000000 3.437280 
# 
# 
# High freq. dielectric constant tensor:
#      x y z
#    x 1.521280 0.000000 0.000000 
#    y 0.000000 1.587000 0.000000 
#    z 0.000000 0.000000 1.551690 
# 
# From -- ./inp_files/57162.got.cif
#   From: 2010.03.12/outbox.cif.g09.slc.cpg/sg65_29_cif.got.tgz:57162.got - 2010.04.10 20:52:16.
