data_PCOD8265199
_publ_section_title
;
Structure prediction by ZEFSAII (Michael W. Deem and Ramdas Pophale) SiO2 
 PCOD8265199
Probable space group: C M M M
;
_chemical_formula_sum "Si O2"
_cell_formula_units_Z 96
_cell_length_a 21.873534
_cell_length_b 25.947486
_cell_length_c 9.314909
_cell_angle_alpha 90.000000
_cell_angle_beta 90.000000
_cell_angle_gamma 90.000000
_cell_volume 5286.799720
_symmetry_space_group_name_H-M "C M M M"
_symmetry_group_IT_number 65
_symmetry_cell_setting 'orthorhombic'
loop_
_space_group_symop_operation_xyz
x,y,z
-x,-y,z
x,-y,-z
-x,y,-z
-x,-y,-z
x,y,-z
-x,y,z
x,-y,z
1/2+x,1/2+y,z
1/2-x,1/2-y,z
1/2+x,1/2-y,-z
1/2-x,1/2+y,-z
1/2-x,1/2-y,-z
1/2+x,1/2+y,-z
1/2-x,1/2+y,z
1/2+x,1/2-y,z
loop_
_atom_site_type_symbol
_atom_site_label
_atom_site_fract_x
_atom_site_fract_y
_atom_site_fract_z
Si Si1 0.234413 0.557673 0.667226
Si Si2 0.500000 0.939479 0.337727
Si Si3 0.250000 0.250000 0.244489
Si Si4 0.624986 0.789295 0.157727
Si Si5 0.068264 0.203061 0.669471
Si Si6 0.880585 0.593082 0.170369
Si Si7 0.313375 0.650386 0.661182
O O1 0.219227 0.569800 0.500000
O O2 0.262169 0.500000 0.682686
O O3 0.173065 0.559439 0.760289
O O4 0.281801 0.600146 0.733117
O O5 0.500000 0.915880 0.500000
O O6 0.557402 0.921807 0.246581
O O7 0.500000 0.000000 0.351166
O O8 0.307565 0.235220 0.147374
O O9 0.269165 0.299605 0.339104
O O10 0.580093 0.759476 0.265247
O O11 0.631963 0.847646 0.208483
O O12 0.595215 0.786360 0.000000
O O13 0.076028 0.209305 0.500000
O O14 0.119982 0.163627 0.731490
O O15 0.000000 0.183736 0.710073
O O16 0.884086 0.582507 0.000000
O O17 0.326713 0.633768 0.500000
#
# Coordination Sequence:
#
# PCOD8265199 Si02
#       7
#    16   8   8  16  16  16  16
#     4  10  20  35  55  79 106 137 174 217 263 312
#     4  11  25  43  59  75  97 135 185 227 262 305
#     4  10  16  32  52  74 103 138 165 210 253 314
#     4  10  21  33  50  76 107 137 167 208 256 310
#     4   9  19  34  52  75 103 138 177 214 255 309
#     4  11  23  38  55  78 106 138 175 218 265 311
#     4   9  17  30  51  78 105 135 172 216 262 310
#
# _framework density 18.158434
#
# number of rings (size 3 to 8) (size 9 to 14) (size 15 to 20)
#    0.000    2.083    1.667    1.750    1.167    5.333 
#    0.000    0.000    0.000    0.500    0.000    3.500 
#    0.000    0.000    0.000    5.833    0.000    5.833 
#
# Total GULP energy -594892.800510 kJ/mol
# GULP energy per Si atom -12393.600011 kJ/mol
# Density = 1.811710 g / cm^3
# Si number density = 18.158434 Si / 1000 Ang^3
#
#
#
# Elastic Constant Matrix: (Units=GPa)
#
#
# Indices 1 2 3 4 5 6 
#
# 1 120.3272 54.3914 33.0578 0.0000 0.0000 0.0000
# 2 54.3914 116.9115 29.4671 0.0000 0.0000 0.0000
# 3 33.0578 29.4671 65.0580 0.0000 0.0000 0.0000
# 4 0.0000 0.0000 0.0000 17.7679 0.0000 0.0000
# 5 0.0000 0.0000 0.0000 0.0000 16.7400 0.0000
# 6 0.0000 0.0000 0.0000 0.0000 0.0000 20.5342
#
#
#
# Elastic Compliance Matrix: (Units=1/GPa)
#
#
# Indices 1 2 3 4 5 6 
#
# 1 0.011296 -0.004299 -0.003792 0.000000 0.000000 0.000000
# 2 -0.004299 0.011292 -0.002930 0.000000 0.000000 0.000000
# 3 -0.003792 -0.002930 0.018625 0.000000 0.000000 0.000000
# 4 0.000000 0.000000 0.000000 0.056281 0.000000 0.000000
# 5 0.000000 0.000000 0.000000 0.000000 0.059737 0.000000
# 6 0.000000 0.000000 0.000000 0.000000 0.000000 0.048699
#
#
# Mechanical properties :
#
#
# Convention : Reuss Voigt Hill
#
# Bulk Modulus (GPa) = 52.16613 59.56993 55.86803
# Shear Modulus (GPa) = 21.33429 23.36713 22.35071
#
# Velocity S-wave (km/s) = 3.43140 3.59116 3.51218
# Velocity P-wave (km/s) = 6.67008 7.07616 6.87612
#
# Compressibility (1/GPa) = 0.01916953
#
# Stress axis : x y z
#
# Youngs Moduli (GPa) = 88.52634 88.55647 53.69114
#
# Poissons Ratio (x) = 0.38074 0.20362
# Poissons Ratio (y) = 0.38062 0.15731
# Poissons Ratio (z) = 0.33573 0.25947
#
# Static dielectric constant tensor:
#      x y z
#    x 3.574400 0.000000 0.000000 
#    y 0.000000 3.466070 0.000000 
#    z 0.000000 0.000000 3.213260 
# 
# 
# High freq. dielectric constant tensor:
#      x y z
#    x 1.700990 0.000000 0.000000 
#    y 0.000000 1.697210 0.000000 
#    z 0.000000 0.000000 1.690090 
# 
# From -- ./inp_files/14668.got.cif
#   From: 2010.03.12/outbox.cif.g09.slc.cpg/sg65_8_cif.got.tgz:14668.got - 2010.04.10 20:52:16.
