data_PCOD8265922
_publ_section_title
;
Structure prediction by ZEFSAII (Michael W. Deem and Ramdas Pophale) SiO2 
 PCOD8265922
Probable space group: C M M M
;
_chemical_formula_sum "Si O2"
_cell_formula_units_Z 128
_cell_length_a 19.896531
_cell_length_b 18.999404
_cell_length_c 20.153265
_cell_angle_alpha 90.000000
_cell_angle_beta 90.000000
_cell_angle_gamma 90.000000
_cell_volume 7618.382191
_symmetry_space_group_name_H-M "C M M M"
_symmetry_group_IT_number 65
_symmetry_cell_setting 'orthorhombic'
loop_
_space_group_symop_operation_xyz
x,y,z
-x,-y,z
x,-y,-z
-x,y,-z
-x,-y,-z
x,y,-z
-x,y,z
x,-y,z
1/2+x,1/2+y,z
1/2-x,1/2-y,z
1/2+x,1/2-y,-z
1/2-x,1/2+y,-z
1/2-x,1/2-y,-z
1/2+x,1/2+y,-z
1/2-x,1/2+y,z
1/2+x,1/2-y,z
loop_
_atom_site_type_symbol
_atom_site_label
_atom_site_fract_x
_atom_site_fract_y
_atom_site_fract_z
Si Si1 0.380047 0.667164 0.428167
Si Si2 0.257131 0.580327 0.395357
Si Si3 0.868244 0.325882 0.572705
Si Si4 0.925239 0.666634 0.290358
Si Si5 0.424675 0.083565 0.073712
Si Si6 0.665542 0.916895 0.806958
Si Si7 0.574417 0.670935 0.715037
Si Si8 0.196851 0.079851 0.752439
O O1 0.418784 0.663094 0.500000
O O2 0.323644 0.607597 0.431098
O O3 0.346394 0.744185 0.420183
O O4 0.426588 0.653323 0.363967
O O5 0.244536 0.500000 0.416032
O O6 0.196625 0.626538 0.421015
O O7 0.265020 0.588660 0.316778
O O8 0.901217 0.338938 0.500000
O O9 0.921140 0.344824 0.630247
O O10 0.870626 0.618509 0.255269
O O11 0.910602 0.747448 0.271854
O O12 0.000000 0.644590 0.267795
O O13 0.500000 0.109098 0.093848
O O14 0.369110 0.112110 0.125557
O O15 0.423283 0.000000 0.073083
O O16 0.406719 0.112006 0.000000
O O17 0.745684 0.899047 0.806719
O O18 0.655102 0.000000 0.798992
O O19 0.500000 0.650648 0.741497
O O20 0.630816 0.628452 0.756232
O O21 0.172236 0.000000 0.763483
#
# Coordination Sequence:
#
# PCOD8265922 Si02
#       8
#    16  16  16  16  16  16  16  16
#     4   9  18  30  44  61  80 106 141 183 238 298
#     4  10  18  29  43  61  84 108 141 187 230 272
#     4  10  19  30  43  58  81 113 148 189 234 274
#     4  10  20  32  46  65  88 118 157 193 229 275
#     4   8  14  25  43  70 103 134 159 184 218 260
#     4  10  18  30  48  71  98 127 157 186 217 260
#     4   9  19  33  47  65  88 113 147 195 243 286
#     4   9  18  31  48  68  89 115 150 188 229 277
#
# _framework density 16.801466999999999
#
# number of rings (size 3 to 8) (size 9 to 14) (size 15 to 20)
#    0.000    2.625    1.250    1.500    0.000    4.000 
#    0.000    2.500    0.000    0.000    0.000    7.000 
#    0.000    1.500    0.000    4.875    0.000    0.000 
#
# Total GULP energy -793053.098531 kJ/mol
# GULP energy per Si atom -12391.454665 kJ/mol
# Density = 1.676323 g / cm^3
# Si number density = 16.801467 Si / 1000 Ang^3
#
#
#
# Elastic Constant Matrix: (Units=GPa)
#
#
# Indices 1 2 3 4 5 6 
#
# 1 108.4838 41.5105 42.6437 0.0000 0.0000 0.0000
# 2 41.5105 43.1917 22.7420 0.0000 0.0000 0.0000
# 3 42.6437 22.7420 73.0968 0.0000 0.0000 0.0000
# 4 0.0000 0.0000 0.0000 9.6202 0.0000 0.0000
# 5 0.0000 0.0000 0.0000 0.0000 18.7894 0.0000
# 6 0.0000 0.0000 0.0000 0.0000 0.0000 20.9114
#
#
#
# Elastic Compliance Matrix: (Units=1/GPa)
#
#
# Indices 1 2 3 4 5 6 
#
# 1 0.016255 -0.012711 -0.005528 0.000000 0.000000 0.000000
# 2 -0.012711 0.037629 -0.004291 0.000000 0.000000 0.000000
# 3 -0.005528 -0.004291 0.018241 0.000000 0.000000 0.000000
# 4 0.000000 0.000000 0.000000 0.103948 0.000000 0.000000
# 5 0.000000 0.000000 0.000000 0.000000 0.053222 0.000000
# 6 0.000000 0.000000 0.000000 0.000000 0.000000 0.047821
#
#
# Mechanical properties :
#
#
# Convention : Reuss Voigt Hill
#
# Bulk Modulus (GPa) = 36.95161 48.72940 42.84051
# Shear Modulus (GPa) = 15.09674 17.72261 16.40968
#
# Velocity S-wave (km/s) = 3.00081 3.25133 3.12858
# Velocity P-wave (km/s) = 5.83501 6.56970 6.21322
#
# Compressibility (1/GPa) = 0.02706242
#
# Stress axis : x y z
#
# Youngs Moduli (GPa) = 61.51980 26.57535 54.82253
#
# Poissons Ratio (x) = 0.33781 0.30306
# Poissons Ratio (y) = 0.78201 0.23527
# Poissons Ratio (z) = 0.34009 0.11405
#
# Static dielectric constant tensor:
#      x y z
#    x 3.129570 0.000000 0.000000 
#    y 0.000000 3.040430 0.000000 
#    z 0.000000 0.000000 3.208640 
# 
# 
# High freq. dielectric constant tensor:
#      x y z
#    x 1.637660 0.000000 0.000000 
#    y 0.000000 1.630150 0.000000 
#    z 0.000000 0.000000 1.620190 
# 
# From -- ./inp_files/64149.got.cif
#   From: 2010.03.12/outbox.cif.g09.slc.cpg/sg65_33_cif.got.tgz:64149.got - 2010.04.10 20:52:16.
