data_PCOD8265060
_publ_section_title
;
Structure prediction by ZEFSAII (Michael W. Deem and Ramdas Pophale) SiO2 
 PCOD8265060
Probable space group: C M M M
;
_chemical_formula_sum "Si O2"
_cell_formula_units_Z 120
_cell_length_a 21.455926
_cell_length_b 25.654752
_cell_length_c 14.124429
_cell_angle_alpha 90.000000
_cell_angle_beta 90.000000
_cell_angle_gamma 90.000000
_cell_volume 7774.741949
_symmetry_space_group_name_H-M "C M M M"
_symmetry_group_IT_number 65
_symmetry_cell_setting 'orthorhombic'
loop_
_space_group_symop_operation_xyz
x,y,z
-x,-y,z
x,-y,-z
-x,y,-z
-x,-y,-z
x,y,-z
-x,y,z
x,-y,z
1/2+x,1/2+y,z
1/2-x,1/2-y,z
1/2+x,1/2-y,-z
1/2-x,1/2+y,-z
1/2-x,1/2-y,-z
1/2+x,1/2+y,-z
1/2-x,1/2+y,z
1/2+x,1/2-y,z
loop_
_atom_site_type_symbol
_atom_site_label
_atom_site_fract_x
_atom_site_fract_y
_atom_site_fract_z
Si Si1 0.245438 0.363612 0.106775
Si Si2 0.250000 0.250000 0.648856
Si Si3 0.636505 0.060621 0.890338
Si Si4 0.335749 0.318269 0.763564
Si Si5 0.624308 0.800669 0.602114
Si Si6 0.571183 0.309455 0.392245
Si Si7 0.428517 0.142807 0.224738
Si Si8 0.358720 0.778975 0.891577
O O1 0.203586 0.413731 0.130365
O O2 0.307630 0.364620 0.171843
O O3 0.206321 0.310028 0.122115
O O4 0.269694 0.366142 0.000000
O O5 0.276111 0.297318 0.709067
O O6 0.306172 0.223187 0.591417
O O7 0.586906 0.085786 0.817873
O O8 0.640792 0.000000 0.867536
O O9 0.617080 0.070957 0.000000
O O10 0.387073 0.338845 0.687643
O O11 0.363133 0.272669 0.829190
O O12 0.608102 0.826078 0.500000
O O13 0.578061 0.752538 0.623829
O O14 0.615012 0.843600 0.684173
O O15 0.592131 0.324225 0.500000
O O16 0.500000 0.325873 0.375714
O O17 0.500000 0.144313 0.256357
O O18 0.415131 0.183906 0.141164
O O19 0.368814 0.763192 0.000000
#
# Coordination Sequence:
#
# PCOD8265060 Si02
#       8
#    16   8  16  16  16  16  16  16
#     4   9  16  27  44  64  85 111 142 176 219 275
#     4  10  15  26  41  62  86 112 147 188 221 254
#     4   9  19  35  51  67  88 114 146 190 239 274
#     4  11  16  25  42  63  88 116 145 179 214 261
#     4  10  19  29  44  63  86 116 151 190 226 262
#     4   9  18  30  41  56  85 125 159 180 205 246
#     4  11  20  31  45  64  89 118 157 194 222 258
#     4  10  18  27  38  58  88 119 144 175 217 263
#
# _framework density 15.434596000000001
#
# number of rings (size 3 to 8) (size 9 to 14) (size 15 to 20)
#    0.000    2.133    4.000    3.000    0.000    3.733 
#    0.000    0.667    0.000    1.600    0.000    0.933 
#    0.000    0.533    0.000    4.800    0.000    0.133 
#
# Total GULP energy -743491.048671 kJ/mol
# GULP energy per Si atom -12391.517478 kJ/mol
# Density = 1.539947 g / cm^3
# Si number density = 15.434596 Si / 1000 Ang^3
#
#
#
# Elastic Constant Matrix: (Units=GPa)
#
#
# Indices 1 2 3 4 5 6 
#
# 1 82.5505 22.4573 47.4572 0.0000 0.0000 0.0000
# 2 22.4573 42.1437 23.2289 0.0000 0.0000 0.0000
# 3 47.4572 23.2289 103.5877 0.0000 0.0000 0.0000
# 4 0.0000 0.0000 0.0000 14.2242 0.0000 0.0000
# 5 0.0000 0.0000 0.0000 0.0000 13.4590 0.0000
# 6 0.0000 0.0000 0.0000 0.0000 0.0000 11.3148
#
#
#
# Elastic Compliance Matrix: (Units=1/GPa)
#
#
# Indices 1 2 3 4 5 6 
#
# 1 0.017535 -0.005609 -0.006776 0.000000 0.000000 0.000000
# 2 -0.005609 0.028869 -0.003904 0.000000 0.000000 0.000000
# 3 -0.006776 -0.003904 0.013633 0.000000 0.000000 0.000000
# 4 0.000000 0.000000 0.000000 0.070303 0.000000 0.000000
# 5 0.000000 0.000000 0.000000 0.000000 0.074300 0.000000
# 6 0.000000 0.000000 0.000000 0.000000 0.000000 0.088380
#
#
# Mechanical properties :
#
#
# Convention : Reuss Voigt Hill
#
# Bulk Modulus (GPa) = 36.41689 46.06318 41.24004
# Shear Modulus (GPa) = 14.93649 16.80882 15.87266
#
# Velocity S-wave (km/s) = 3.11421 3.30363 3.21032
# Velocity P-wave (km/s) = 6.04786 6.66790 6.36543
#
# Compressibility (1/GPa) = 0.02745978
#
# Stress axis : x y z
#
# Youngs Moduli (GPa) = 57.02903 34.63900 73.35043
#
# Poissons Ratio (x) = 0.19430 0.49699
# Poissons Ratio (y) = 0.31990 0.28635
# Poissons Ratio (z) = 0.38640 0.13523
#
# Static dielectric constant tensor:
#      x y z
#    x 2.875190 0.000000 0.000000 
#    y 0.000000 2.553670 0.000000 
#    z 0.000000 0.000000 3.169240 
# 
# 
# High freq. dielectric constant tensor:
#      x y z
#    x 1.582090 0.000000 0.000000 
#    y 0.000000 1.526270 0.000000 
#    z 0.000000 0.000000 1.608090 
# 
# From -- ./inp_files/46164.got.cif
#   From: 2010.03.12/outbox.cif.g09.slc.cpg/sg65_24_cif.got.tgz:46164.got - 2010.04.10 20:52:16.
