data_PCOD8265404
_publ_section_title
;
Structure prediction by ZEFSAII (Michael W. Deem and Ramdas Pophale) SiO2 
 PCOD8265404
Probable space group: C M M M
;
_chemical_formula_sum "Si O2"
_cell_formula_units_Z 96
_cell_length_a 16.024320
_cell_length_b 25.962458
_cell_length_c 11.892240
_cell_angle_alpha 90.000000
_cell_angle_beta 90.000000
_cell_angle_gamma 90.000000
_cell_volume 4947.537348
_symmetry_space_group_name_H-M "C M M M"
_symmetry_group_IT_number 65
_symmetry_cell_setting 'orthorhombic'
loop_
_space_group_symop_operation_xyz
x,y,z
-x,-y,z
x,-y,-z
-x,y,-z
-x,-y,-z
x,y,-z
-x,y,z
x,-y,z
1/2+x,1/2+y,z
1/2-x,1/2-y,z
1/2+x,1/2-y,-z
1/2-x,1/2+y,-z
1/2-x,1/2-y,-z
1/2+x,1/2+y,-z
1/2-x,1/2+y,z
1/2+x,1/2-y,z
loop_
_atom_site_type_symbol
_atom_site_label
_atom_site_fract_x
_atom_site_fract_y
_atom_site_fract_z
Si Si1 0.635421 0.203828 0.500000
Si Si2 0.907132 0.342461 0.729318
Si Si3 0.400296 0.943242 0.372681
Si Si4 0.400977 0.556885 0.125621
Si Si5 0.900277 0.749354 0.872708
Si Si6 0.400620 0.347848 0.730703
Si Si7 0.828054 0.820191 0.500000
O O1 0.586802 0.184655 0.608763
O O2 0.729186 0.183278 0.500000
O O3 0.628844 0.264947 0.500000
O O4 0.863644 0.398842 0.711264
O O5 0.862313 0.303441 0.817348
O O6 0.000000 0.351771 0.775341
O O7 0.367869 0.933418 0.500000
O O8 0.500000 0.939810 0.373276
O O9 0.371376 0.000000 0.331190
O O10 0.500000 0.560474 0.121517
O O11 0.373480 0.500000 0.168915
O O12 0.366581 0.601204 0.206892
O O13 0.365769 0.566196 0.000000
O O14 0.868993 0.798113 0.800733
O O15 0.000000 0.747860 0.870388
O O16 0.866753 0.753978 0.000000
O O17 0.500000 0.347494 0.717849
O O18 0.357904 0.350554 0.609713
#
# Coordination Sequence:
#
# PCOD8265404 Si02
#       7
#     8  16  16  16  16  16   8
#     4  11  21  33  46  65  96 128 151 188 237 284
#     4  10  17  28  50  71  91 119 151 185 223 280
#     4   8  13  21  37  65  94 113 138 179 217 252
#     4   8  14  26  47  75 101 124 156 199 240 274
#     4   9  17  27  43  70  95 114 146 194 235 265
#     4  10  18  30  49  69  93 126 162 195 230 279
#     4  11  23  33  44  65  98 130 153 192 239 284
#
# _framework density 19.403592
#
# number of rings (size 3 to 8) (size 9 to 14) (size 15 to 20)
#    0.000    2.667    2.500    2.000    0.000    2.667 
#    0.000    0.417    0.000    7.500    0.000    3.500 
#    0.000    0.000    0.000    0.000    0.000    0.000 
#
# Total GULP energy -594777.343655 kJ/mol
# GULP energy per Si atom -12391.194659 kJ/mol
# Density = 1.935943 g / cm^3
# Si number density = 19.403592 Si / 1000 Ang^3
#
#
#
# Elastic Constant Matrix: (Units=GPa)
#
#
# Indices 1 2 3 4 5 6 
#
# 1 13.1416 10.5589 4.7511 0.0000 0.0000 0.0000
# 2 10.5589 187.8446 83.7163 0.0000 0.0000 0.0000
# 3 4.7511 83.7163 135.8801 0.0000 0.0000 0.0000
# 4 0.0000 0.0000 0.0000 27.4167 0.0000 0.0000
# 5 0.0000 0.0000 0.0000 0.0000 0.8325 0.0000
# 6 0.0000 0.0000 0.0000 0.0000 0.0000 7.2538
#
#
#
# Elastic Compliance Matrix: (Units=1/GPa)
#
#
# Indices 1 2 3 4 5 6 
#
# 1 0.079694 -0.004463 -0.000037 0.000000 0.000000 0.000000
# 2 -0.004463 0.007589 -0.004519 0.000000 0.000000 0.000000
# 3 -0.000037 -0.004519 0.010145 0.000000 0.000000 0.000000
# 4 0.000000 0.000000 0.000000 0.036474 0.000000 0.000000
# 5 0.000000 0.000000 0.000000 0.000000 1.201155 0.000000
# 6 0.000000 0.000000 0.000000 0.000000 0.000000 0.137859
#
#
# Mechanical properties :
#
#
# Convention : Reuss Voigt Hill
#
# Bulk Modulus (GPa) = 12.59623 59.43544 36.01584
# Shear Modulus (GPa) = 3.29507 22.95659 13.12583
#
# Velocity S-wave (km/s) = 1.30456 3.44337 2.60371
# Velocity P-wave (km/s) = 2.96225 6.81958 5.25745
#
# Compressibility (1/GPa) = 0.07938885
#
# Stress axis : x y z
#
# Youngs Moduli (GPa) = 12.54803 131.77792 98.57026
#
# Poissons Ratio (x) = 0.58816 0.00362
# Poissons Ratio (y) = 0.05601 0.44546
# Poissons Ratio (z) = 0.00046 0.59554
#
# Static dielectric constant tensor:
#      x y z
#    x 2.846090 0.000000 0.000000 
#    y 0.000000 4.058560 0.000000 
#    z 0.000000 0.000000 3.539850 
# 
# 
# High freq. dielectric constant tensor:
#      x y z
#    x 1.693100 0.000000 0.000000 
#    y 0.000000 1.770080 0.000000 
#    z 0.000000 0.000000 1.740470 
# 
# From -- ./inp_files/29250.got.cif
#   From: 2010.03.12/outbox.cif.g09.slc.cpg/sg65_15_cif.got.tgz:29250.got - 2010.04.10 20:52:16.
