data_PCOD8265281
_publ_section_title
;
Structure prediction by ZEFSAII (Michael W. Deem and Ramdas Pophale) SiO2 
 PCOD8265281
Probable space group: C M M M
;
_chemical_formula_sum "Si O2"
_cell_formula_units_Z 72
_cell_length_a 23.147157
_cell_length_b 23.383437
_cell_length_c 8.489688
_cell_angle_alpha 90.000000
_cell_angle_beta 90.000000
_cell_angle_gamma 90.000000
_cell_volume 4595.129269
_symmetry_space_group_name_H-M "C M M M"
_symmetry_group_IT_number 65
_symmetry_cell_setting 'orthorhombic'
loop_
_space_group_symop_operation_xyz
x,y,z
-x,-y,z
x,-y,-z
-x,y,-z
-x,-y,-z
x,y,-z
-x,y,z
x,-y,z
1/2+x,1/2+y,z
1/2-x,1/2-y,z
1/2+x,1/2-y,-z
1/2-x,1/2+y,-z
1/2-x,1/2-y,-z
1/2+x,1/2+y,-z
1/2-x,1/2+y,z
1/2+x,1/2-y,z
loop_
_atom_site_type_symbol
_atom_site_label
_atom_site_fract_x
_atom_site_fract_y
_atom_site_fract_z
Si Si1 0.667500 0.717447 0.816422
Si Si2 0.566124 0.776966 0.683475
Si Si3 0.773521 0.328792 0.684099
Si Si4 0.374705 0.887536 0.184277
Si Si5 0.567628 0.000000 0.316195
O O1 0.603647 0.722095 0.740215
O O2 0.706117 0.666740 0.736807
O O3 0.698557 0.777573 0.784033
O O4 0.661724 0.705085 0.000000
O O5 0.576757 0.788255 0.500000
O O6 0.500000 0.762498 0.721536
O O7 0.584232 0.834295 0.774041
O O8 0.777481 0.315413 0.500000
O O9 0.811895 0.384027 0.728805
O O10 0.405464 0.944680 0.237541
O O11 0.363401 0.888884 0.000000
O O12 0.500000 0.000000 0.281706
O O13 0.581432 0.000000 0.500000
#
# Coordination Sequence:
#
# PCOD8265281 Si02
#       5
#    16  16  16  16   8
#     4  10  17  26  41  61  83 105 134 171 209 248
#     4  10  19  30  43  60  84 114 145 174 208 253
#     4  10  17  28  44  60  80 105 135 169 209 254
#     4  11  21  32  46  63  82 106 141 182 220 253
#     4  11  23  37  49  61  81 111 146 181 218 257
#
# _framework density 15.668765
#
# number of rings (size 3 to 8) (size 9 to 14) (size 15 to 20)
#    0.000    1.667    0.000   11.667    0.000    5.333 
#    0.000    0.000    0.000    0.000    0.000    0.000 
#    0.000    0.000    0.000    1.000    0.000   18.444 
#
# Total GULP energy -446250.461102 kJ/mol
# GULP energy per Si atom -12395.846142 kJ/mol
# Density = 1.563310 g / cm^3
# Si number density = 15.668765 Si / 1000 Ang^3
#
#
#
# Elastic Constant Matrix: (Units=GPa)
#
#
# Indices 1 2 3 4 5 6 
#
# 1 122.9464 32.8665 50.2065 0.0000 0.0000 0.0000
# 2 32.8665 18.4193 28.8709 0.0000 0.0000 0.0000
# 3 50.2065 28.8709 87.2988 0.0000 0.0000 0.0000
# 4 0.0000 0.0000 0.0000 19.4088 0.0000 0.0000
# 5 0.0000 0.0000 0.0000 0.0000 19.8496 0.0000
# 6 0.0000 0.0000 0.0000 0.0000 0.0000 32.3790
#
#
#
# Elastic Compliance Matrix: (Units=1/GPa)
#
#
# Indices 1 2 3 4 5 6 
#
# 1 0.015562 -0.028527 0.000485 0.000000 0.000000 0.000000
# 2 -0.028527 0.165018 -0.038167 0.000000 0.000000 0.000000
# 3 0.000485 -0.038167 0.023799 0.000000 0.000000 0.000000
# 4 0.000000 0.000000 0.000000 0.051523 0.000000 0.000000
# 5 0.000000 0.000000 0.000000 0.000000 0.050379 0.000000
# 6 0.000000 0.000000 0.000000 0.000000 0.000000 0.030884
#
#
# Mechanical properties :
#
#
# Convention : Reuss Voigt Hill
#
# Bulk Modulus (GPa) = 13.89694 50.28360 32.09027
# Shear Modulus (GPa) = 10.13028 22.10886 16.11957
#
# Velocity S-wave (km/s) = 2.54545 3.76042 3.21093
# Velocity P-wave (km/s) = 4.18659 7.14252 5.85419
#
# Compressibility (1/GPa) = 0.07195829
#
# Stress axis : x y z
#
# Youngs Moduli (GPa) = 64.26036 6.05996 42.01907
#
# Poissons Ratio (x) = 0.17287 -0.02036
# Poissons Ratio (y) = 1.83316 1.60376
# Poissons Ratio (z) = -0.03114 0.23129
#
# Static dielectric constant tensor:
#      x y z
#    x 3.692740 0.000000 0.000000 
#    y 0.000000 2.755010 0.000000 
#    z 0.000000 0.000000 3.123760 
# 
# 
# High freq. dielectric constant tensor:
#      x y z
#    x 1.610140 0.000000 0.000000 
#    y 0.000000 1.535080 0.000000 
#    z 0.000000 0.000000 1.626500 
# 
# From -- ./inp_files/14485.got.cif
#   From: 2010.03.12/outbox.cif.g09.slc.cpg/sg65_8_cif.got.tgz:14485.got - 2010.04.10 20:52:16.
