data_PCOD8265074
_publ_section_title
;
Structure prediction by ZEFSAII (Michael W. Deem and Ramdas Pophale) SiO2 
 PCOD8265074
Probable space group: C M M M
;
_chemical_formula_sum "Si O2"
_cell_formula_units_Z 88
_cell_length_a 30.470199
_cell_length_b 8.618017
_cell_length_c 23.198536
_cell_angle_alpha 90.000000
_cell_angle_beta 90.000000
_cell_angle_gamma 90.000000
_cell_volume 6091.766041
_symmetry_space_group_name_H-M "C M M M"
_symmetry_group_IT_number 65
_symmetry_cell_setting 'orthorhombic'
loop_
_space_group_symop_operation_xyz
x,y,z
-x,-y,z
x,-y,-z
-x,y,-z
-x,-y,-z
x,y,-z
-x,y,z
x,-y,z
1/2+x,1/2+y,z
1/2-x,1/2-y,z
1/2+x,1/2-y,-z
1/2-x,1/2+y,-z
1/2-x,1/2-y,-z
1/2+x,1/2+y,-z
1/2-x,1/2+y,z
1/2+x,1/2-y,z
loop_
_atom_site_type_symbol
_atom_site_label
_atom_site_fract_x
_atom_site_fract_y
_atom_site_fract_z
Si Si1 0.299040 0.184085 0.000000
Si Si2 0.200955 0.183955 0.115601
Si Si3 0.298831 0.816256 0.230924
Si Si4 0.547891 0.674647 0.431594
Si Si5 0.363785 0.177473 0.567667
Si Si6 0.797772 0.181539 0.652747
O O1 0.250000 0.250000 0.000000
O O2 0.322826 0.248166 0.941931
O O3 0.298816 0.000000 0.000000
O O4 0.250000 0.250000 0.117381
O O5 0.177111 0.243899 0.174217
O O6 0.201273 0.000000 0.113128
O O7 0.250000 0.750000 0.234192
O O8 0.320714 0.760484 0.290816
O O9 0.299060 0.000000 0.225691
O O10 0.547142 0.676383 0.500000
O O11 0.500000 0.733352 0.408939
O O12 0.556449 0.500000 0.409329
O O13 0.587151 0.783990 0.409275
O O14 0.360094 0.211856 0.500000
O O15 0.328605 0.286773 0.598352
O O16 0.353261 0.000000 0.582377
O O17 0.750000 0.250000 0.639182
O O18 0.792968 0.000000 0.663841
#
# Coordination Sequence:
#
# PCOD8265074 Si02
#       6
#     8  16  16  16  16  16
#     4  10  16  22  30  44  64  86 110 140 181 222
#     4  10  16  23  33  47  65  86 112 143 181 222
#     4  10  17  27  40  53  68  88 117 152 188 225
#     4   8  14  26  44  64  84 104 124 147 180 224
#     4  10  20  32  45  62  82 102 126 157 194 235
#     4  11  21  33  46  58  74  98 129 164 200 236
#
# _framework density 14.445729
#
# number of rings (size 3 to 8) (size 9 to 14) (size 15 to 20)
#    0.000    2.182    0.000   10.091    0.000    1.818 
#    0.000    1.818    0.000    0.000    0.000    0.000 
#    0.000    0.000    0.000    0.000    0.000    0.000 
#
# Total GULP energy -545242.005056 kJ/mol
# GULP energy per Si atom -12391.863751 kJ/mol
# Density = 1.441285 g / cm^3
# Si number density = 14.445729 Si / 1000 Ang^3
#
#
#
# Elastic Constant Matrix: (Units=GPa)
#
#
# Indices 1 2 3 4 5 6 
#
# 1 47.1860 20.5669 28.7964 0.0000 0.0000 0.0000
# 2 20.5669 121.4039 37.7767 0.0000 0.0000 0.0000
# 3 28.7964 37.7767 77.3908 0.0000 0.0000 0.0000
# 4 0.0000 0.0000 0.0000 26.1889 0.0000 0.0000
# 5 0.0000 0.0000 0.0000 0.0000 0.2095 0.0000
# 6 0.0000 0.0000 0.0000 0.0000 0.0000 16.2627
#
#
#
# Elastic Compliance Matrix: (Units=1/GPa)
#
#
# Indices 1 2 3 4 5 6 
#
# 1 0.027732 -0.001754 -0.009463 0.000000 0.000000 0.000000
# 2 -0.001754 0.009823 -0.004142 0.000000 0.000000 0.000000
# 3 -0.009463 -0.004142 0.018465 0.000000 0.000000 0.000000
# 4 0.000000 0.000000 0.000000 0.038184 0.000000 0.000000
# 5 0.000000 0.000000 0.000000 0.000000 4.773531 0.000000
# 6 0.000000 0.000000 0.000000 0.000000 0.000000 0.061490
#
#
# Mechanical properties :
#
#
# Convention : Reuss Voigt Hill
#
# Bulk Modulus (GPa) = 39.52278 46.69561 43.10919
# Shear Modulus (GPa) = 1.00636 19.12161 10.06399
#
# Velocity S-wave (km/s) = 0.83556 3.64220 2.64232
# Velocity P-wave (km/s) = 5.32445 7.07690 6.26228
#
# Compressibility (1/GPa) = 0.02530187
#
# Stress axis : x y z
#
# Youngs Moduli (GPa) = 36.05951 101.80178 54.15793
#
# Poissons Ratio (x) = 0.17851 0.51249
# Poissons Ratio (y) = 0.06323 0.22435
# Poissons Ratio (z) = 0.34123 0.42171
#
# Static dielectric constant tensor:
#      x y z
#    x 2.507470 0.000000 0.000000 
#    y 0.000000 2.927440 0.000000 
#    z 0.000000 0.000000 3.833370 
# 
# 
# High freq. dielectric constant tensor:
#      x y z
#    x 1.480300 0.000000 0.000000 
#    y 0.000000 1.573080 0.000000 
#    z 0.000000 0.000000 1.551390 
# 
# From -- ./inp_files/66186.got.cif
#   From: 2010.03.12/outbox.cif.g09.slc.cpg/sg65_34_cif.got.tgz:66186.got - 2010.04.10 20:52:16.
