data_PCOD8265169
_publ_section_title
;
Structure prediction by ZEFSAII (Michael W. Deem and Ramdas Pophale) SiO2 
 PCOD8265169
Probable space group: C M M M
;
_chemical_formula_sum "Si O2"
_cell_formula_units_Z 88
_cell_length_a 27.226476
_cell_length_b 19.503614
_cell_length_c 9.457070
_cell_angle_alpha 90.000000
_cell_angle_beta 90.000000
_cell_angle_gamma 90.000000
_cell_volume 5021.842985
_symmetry_space_group_name_H-M "C M M M"
_symmetry_group_IT_number 65
_symmetry_cell_setting 'orthorhombic'
loop_
_space_group_symop_operation_xyz
x,y,z
-x,-y,z
x,-y,-z
-x,y,-z
-x,-y,-z
x,y,-z
-x,y,z
x,-y,z
1/2+x,1/2+y,z
1/2-x,1/2-y,z
1/2+x,1/2-y,-z
1/2-x,1/2+y,-z
1/2-x,1/2-y,-z
1/2+x,1/2+y,-z
1/2-x,1/2+y,z
1/2+x,1/2-y,z
loop_
_atom_site_type_symbol
_atom_site_label
_atom_site_fract_x
_atom_site_fract_y
_atom_site_fract_z
Si Si1 0.897450 0.500000 0.157906
Si Si2 0.781449 0.352103 0.656783
Si Si3 0.057486 0.360917 0.165167
Si Si4 0.709397 0.000000 0.250530
Si Si5 0.627082 0.228079 0.665326
Si Si6 0.181554 0.000000 0.161165
Si Si7 0.325736 0.631935 0.665567
O O1 0.918653 0.569184 0.229662
O O2 0.838457 0.500000 0.151604
O O3 0.918782 0.500000 0.000000
O O4 0.780764 0.321632 0.500000
O O5 0.792378 0.433153 0.651707
O O6 0.825343 0.310995 0.733693
O O7 0.727219 0.339424 0.721845
O O8 0.079433 0.296118 0.249150
O O9 0.000000 0.362835 0.193806
O O10 0.070004 0.352130 0.000000
O O11 0.759101 0.000000 0.158302
O O12 0.620128 0.210222 0.500000
O O13 0.633499 0.309580 0.687689
O O14 0.159603 0.934034 0.242348
O O15 0.162592 0.000000 0.000000
O O16 0.321042 0.610845 0.500000
#
# Coordination Sequence:
#
# PCOD8265169 Si02
#       7
#     8  16  16   8  16   8  16
#     4  10  18  31  49  65  91 133 178 212 243 286
#     4   9  16  27  45  69  97 130 167 202 239 289
#     4  10  21  36  52  70  95 132 174 213 255 299
#     4  10  16  27  45  66  99 135 170 207 244 276
#     4  10  19  32  51  74  97 125 164 209 252 296
#     4  10  20  31  47  73 104 130 165 206 240 283
#     4   9  18  32  50  71  99 133 163 194 244 303
#
# _framework density 17.523446
#
# number of rings (size 3 to 8) (size 9 to 14) (size 15 to 20)
#    0.000    2.364    1.818    1.636    0.000    6.545 
#    0.000    0.455    0.000    4.364    0.000    0.636 
#    0.000    5.091    0.000    0.000    0.000    0.000 
#
# Total GULP energy -545359.671779 kJ/mol
# GULP energy per Si atom -12394.537995 kJ/mol
# Density = 1.748356 g / cm^3
# Si number density = 17.523446 Si / 1000 Ang^3
#
#
#
# Elastic Constant Matrix: (Units=GPa)
#
#
# Indices 1 2 3 4 5 6 
#
# 1 65.2245 47.8267 27.1697 0.0000 0.0000 0.0000
# 2 47.8267 107.0991 42.9174 0.0000 0.0000 0.0000
# 3 27.1697 42.9174 62.0014 0.0000 0.0000 0.0000
# 4 0.0000 0.0000 0.0000 22.6171 0.0000 0.0000
# 5 0.0000 0.0000 0.0000 0.0000 22.4125 0.0000
# 6 0.0000 0.0000 0.0000 0.0000 0.0000 25.2406
#
#
#
# Elastic Compliance Matrix: (Units=1/GPa)
#
#
# Indices 1 2 3 4 5 6 
#
# 1 0.023564 -0.008836 -0.004210 0.000000 0.000000 0.000000
# 2 -0.008836 0.016235 -0.007366 0.000000 0.000000 0.000000
# 3 -0.004210 -0.007366 0.023072 0.000000 0.000000 0.000000
# 4 0.000000 0.000000 0.000000 0.044214 0.000000 0.000000
# 5 0.000000 0.000000 0.000000 0.000000 0.044618 0.000000
# 6 0.000000 0.000000 0.000000 0.000000 0.000000 0.039619
#
#
# Mechanical properties :
#
#
# Convention : Reuss Voigt Hill
#
# Bulk Modulus (GPa) = 45.35556 52.23918 48.79737
# Shear Modulus (GPa) = 20.87733 21.81478 21.34605
#
# Velocity S-wave (km/s) = 3.45540 3.53213 3.49398
# Velocity P-wave (km/s) = 6.46983 6.81985 6.64714
#
# Compressibility (1/GPa) = 0.02204801
#
# Stress axis : x y z
#
# Youngs Moduli (GPa) = 42.43674 61.59704 43.34273
#
# Poissons Ratio (x) = 0.54427 0.18247
# Poissons Ratio (y) = 0.37497 0.31924
# Poissons Ratio (z) = 0.17866 0.45369
#
# Static dielectric constant tensor:
#      x y z
#    x 3.000500 0.000000 0.000000 
#    y 0.000000 3.299380 0.000000 
#    z 0.000000 0.000000 2.929500 
# 
# 
# High freq. dielectric constant tensor:
#      x y z
#    x 1.646380 0.000000 0.000000 
#    y 0.000000 1.681390 0.000000 
#    z 0.000000 0.000000 1.646850 
# 
# From -- ./inp_files/18558.got.cif
#   From: 2010.03.12/outbox.cif.g09.slc.cpg/sg65_10_cif.got.tgz:18558.got - 2010.04.10 20:52:16.
