data_PCOD8265489
_publ_section_title
;
Structure prediction by ZEFSAII (Michael W. Deem and Ramdas Pophale) SiO2 
 PCOD8265489
Probable space group: C M M M
;
_chemical_formula_sum "Si O2"
_cell_formula_units_Z 112
_cell_length_a 17.649250
_cell_length_b 21.191257
_cell_length_c 16.873157
_cell_angle_alpha 90.000000
_cell_angle_beta 90.000000
_cell_angle_gamma 90.000000
_cell_volume 6310.725950
_symmetry_space_group_name_H-M "C M M M"
_symmetry_group_IT_number 65
_symmetry_cell_setting 'orthorhombic'
loop_
_space_group_symop_operation_xyz
x,y,z
-x,-y,z
x,-y,-z
-x,y,-z
-x,-y,-z
x,y,-z
-x,y,z
x,-y,z
1/2+x,1/2+y,z
1/2-x,1/2-y,z
1/2+x,1/2-y,-z
1/2-x,1/2+y,-z
1/2-x,1/2-y,-z
1/2+x,1/2+y,-z
1/2-x,1/2+y,z
1/2+x,1/2-y,z
loop_
_atom_site_type_symbol
_atom_site_label
_atom_site_fract_x
_atom_site_fract_y
_atom_site_fract_z
Si Si1 0.918144 0.571544 0.295535
Si Si2 0.663528 0.767437 0.911216
Si Si3 0.336463 0.429094 0.090695
Si Si4 0.222749 0.180142 0.306974
Si Si5 0.412519 0.672520 0.198029
Si Si6 0.286852 0.926347 0.593287
Si Si7 0.189675 0.385621 0.168368
O O1 0.935410 0.500000 0.313950
O O2 0.865828 0.596480 0.367231
O O3 0.875972 0.574914 0.210822
O O4 0.000000 0.607480 0.293978
O O5 0.750000 0.750000 0.889607
O O6 0.603960 0.733530 0.854722
O O7 0.653019 0.842323 0.899902
O O8 0.643785 0.747533 0.000000
O O9 0.367800 0.500000 0.091240
O O10 0.391681 0.388282 0.145177
O O11 0.252352 0.430002 0.128331
O O12 0.334064 0.402993 0.000000
O O13 0.250000 0.250000 0.337155
O O14 0.135170 0.178793 0.279246
O O15 0.226506 0.125054 0.374431
O O16 0.274233 0.162060 0.232356
O O17 0.500000 0.669344 0.222282
O O18 0.293727 0.920014 0.500000
O O19 0.266826 0.000000 0.616924
#
# Coordination Sequence:
#
# PCOD8265489 Si02
#       7
#    16  16  16  16  16  16  16
#     4   9  18  31  49  75 107 137 165 204 254 306
#     4  11  19  32  52  72  97 133 175 219 263 309
#     4  10  20  33  50  71  97 134 179 226 273 321
#     4  10  18  35  55  79 104 136 175 214 259 309
#     4  11  22  35  51  74 104 137 172 220 273 321
#     4   9  19  35  57  83 108 136 173 213 254 312
#     4  10  17  31  51  74  96 134 176 215 254 307
#
# _framework density 17.747563
#
# number of rings (size 3 to 8) (size 9 to 14) (size 15 to 20)
#    0.000    2.000    4.286    1.286    0.000    6.000 
#    0.000    2.143    0.000    1.714    0.000    6.000 
#    0.000    0.000    0.000    0.000    0.000    0.000 
#
# Total GULP energy -693946.618222 kJ/mol
# GULP energy per Si atom -12391.903897 kJ/mol
# Density = 1.770717 g / cm^3
# Si number density = 17.747563 Si / 1000 Ang^3
#
#
#
# Elastic Constant Matrix: (Units=GPa)
#
#
# Indices 1 2 3 4 5 6 
#
# 1 116.4212 28.8269 45.5744 0.0000 0.0000 0.0000
# 2 28.8269 77.0724 28.7257 0.0000 0.0000 0.0000
# 3 45.5744 28.7257 76.1532 0.0000 0.0000 0.0000
# 4 0.0000 0.0000 0.0000 28.2795 0.0000 0.0000
# 5 0.0000 0.0000 0.0000 0.0000 10.8974 0.0000
# 6 0.0000 0.0000 0.0000 0.0000 0.0000 16.6771
#
#
#
# Elastic Compliance Matrix: (Units=1/GPa)
#
#
# Indices 1 2 3 4 5 6 
#
# 1 0.011481 -0.002017 -0.006110 0.000000 0.000000 0.000000
# 2 -0.002017 0.015452 -0.004622 0.000000 0.000000 0.000000
# 3 -0.006110 -0.004622 0.018531 0.000000 0.000000 0.000000
# 4 0.000000 0.000000 0.000000 0.035361 0.000000 0.000000
# 5 0.000000 0.000000 0.000000 0.000000 0.091765 0.000000
# 6 0.000000 0.000000 0.000000 0.000000 0.000000 0.059962
#
#
# Mechanical properties :
#
#
# Convention : Reuss Voigt Hill
#
# Bulk Modulus (GPa) = 50.08261 52.87787 51.48024
# Shear Modulus (GPa) = 18.88897 22.27212 20.58054
#
# Velocity S-wave (km/s) = 3.26592 3.54636 3.40902
# Velocity P-wave (km/s) = 6.51938 6.82847 6.67571
#
# Compressibility (1/GPa) = 0.01996701
#
# Stress axis : x y z
#
# Youngs Moduli (GPa) = 87.10281 64.71803 53.96294
#
# Poissons Ratio (x) = 0.13052 0.32971
# Poissons Ratio (y) = 0.17567 0.24939
# Poissons Ratio (z) = 0.53219 0.29910
#
# Static dielectric constant tensor:
#      x y z
#    x 3.410900 0.000000 0.000000 
#    y 0.000000 3.380280 0.000000 
#    z 0.000000 0.000000 3.188150 
# 
# 
# High freq. dielectric constant tensor:
#      x y z
#    x 1.660660 0.000000 0.000000 
#    y 0.000000 1.689420 0.000000 
#    z 0.000000 0.000000 1.669770 
# 
# From -- ./inp_files/54894.got.cif
#   From: 2010.03.12/outbox.cif.g09.slc.cpg/sg65_28_cif.got.tgz:54894.got - 2010.04.10 20:52:16.
