data_PCOD8265333
_publ_section_title
;
Structure prediction by ZEFSAII (Michael W. Deem and Ramdas Pophale) SiO2 
 PCOD8265333
Probable space group: C M M M
;
_chemical_formula_sum "Si O2"
_cell_formula_units_Z 72
_cell_length_a 36.287155
_cell_length_b 8.968823
_cell_length_c 14.460390
_cell_angle_alpha 90.000000
_cell_angle_beta 90.000000
_cell_angle_gamma 90.000000
_cell_volume 4706.178324
_symmetry_space_group_name_H-M "C M M M"
_symmetry_group_IT_number 65
_symmetry_cell_setting 'orthorhombic'
loop_
_space_group_symop_operation_xyz
x,y,z
-x,-y,z
x,-y,-z
-x,y,-z
-x,-y,-z
x,y,-z
-x,y,z
x,-y,z
1/2+x,1/2+y,z
1/2-x,1/2-y,z
1/2+x,1/2-y,-z
1/2-x,1/2+y,-z
1/2-x,1/2-y,-z
1/2+x,1/2+y,-z
1/2-x,1/2+y,z
1/2+x,1/2-y,z
loop_
_atom_site_type_symbol
_atom_site_label
_atom_site_fract_x
_atom_site_fract_y
_atom_site_fract_z
Si Si1 0.572669 0.676874 0.290471
Si Si2 0.860383 0.324277 0.393620
Si Si3 0.458774 0.323292 0.101127
Si Si4 0.500000 0.323192 0.603442
Si Si5 0.285983 0.332275 0.609940
O O1 0.578294 0.500000 0.300872
O O2 0.607524 0.760593 0.330622
O O3 0.568234 0.728445 0.183423
O O4 0.536449 0.732832 0.344536
O O5 0.867878 0.278739 0.500000
O O6 0.857838 0.500000 0.382109
O O7 0.822244 0.254992 0.357277
O O8 0.500000 0.258778 0.116814
O O9 0.461573 0.500000 0.104578
O O10 0.443762 0.271073 0.000000
O O11 0.500000 0.500000 0.601449
O O12 0.500000 0.256659 0.500000
O O13 0.283812 0.333825 0.500000
O O14 0.287292 0.500000 0.649285
O O15 0.250000 0.250000 0.650846
#
# Coordination Sequence:
#
# PCOD8265333 Si02
#       5
#    16  16  16   8  16
#     4  10  17  27  43  62  82 109 145 182 220 260
#     4  10  20  31  41  57  85 119 150 180 214 251
#     4   8  13  23  41  64  85 103 132 179 229 270
#     4   9  16  24  36  56  80 107 143 183 214 245
#     4   9  16  27  44  64  85 111 143 177 212 251
#
# _framework density 15.299037
#
# number of rings (size 3 to 8) (size 9 to 14) (size 15 to 20)
#    0.000    2.778    1.111    2.667    0.000    4.889 
#    0.000    0.556    0.000    2.667    0.000    1.556 
#    0.000    0.889    0.000    2.444    0.000    3.556 
#
# Total GULP energy -446225.549217 kJ/mol
# GULP energy per Si atom -12395.154145 kJ/mol
# Density = 1.526422 g / cm^3
# Si number density = 15.299037 Si / 1000 Ang^3
#
#
#
# Elastic Constant Matrix: (Units=GPa)
#
#
# Indices 1 2 3 4 5 6 
#
# 1 138.1334 47.5355 61.6096 0.0000 0.0000 0.0000
# 2 47.5355 58.8530 32.1175 0.0000 0.0000 0.0000
# 3 61.6096 32.1175 98.6470 0.0000 0.0000 0.0000
# 4 0.0000 0.0000 0.0000 9.7669 0.0000 0.0000
# 5 0.0000 0.0000 0.0000 0.0000 4.4803 0.0000
# 6 0.0000 0.0000 0.0000 0.0000 0.0000 24.5912
#
#
#
# Elastic Compliance Matrix: (Units=1/GPa)
#
#
# Indices 1 2 3 4 5 6 
#
# 1 0.011897 -0.006754 -0.005231 0.000000 0.000000 0.000000
# 2 -0.006754 0.024498 -0.003757 0.000000 0.000000 0.000000
# 3 -0.005231 -0.003757 0.014628 0.000000 0.000000 0.000000
# 4 0.000000 0.000000 0.000000 0.102387 0.000000 0.000000
# 5 0.000000 0.000000 0.000000 0.000000 0.223200 0.000000
# 6 0.000000 0.000000 0.000000 0.000000 0.000000 0.040665
#
#
# Mechanical properties :
#
#
# Convention : Reuss Voigt Hill
#
# Bulk Modulus (GPa) = 51.18723 64.23983 57.71353
# Shear Modulus (GPa) = 10.98246 18.05906 14.52076
#
# Velocity S-wave (km/s) = 2.68218 3.43943 3.08414
# Velocity P-wave (km/s) = 6.56678 7.60615 7.10549
#
# Compressibility (1/GPa) = 0.01953612
#
# Stress axis : x y z
#
# Youngs Moduli (GPa) = 84.05572 40.82043 68.36412
#
# Poissons Ratio (x) = 0.27572 0.35762
# Poissons Ratio (y) = 0.56774 0.25688
# Poissons Ratio (z) = 0.43970 0.15338
#
# Static dielectric constant tensor:
#      x y z
#    x 2.961030 0.000000 0.000000 
#    y 0.000000 2.734690 0.000000 
#    z 0.000000 0.000000 3.011420 
# 
# 
# High freq. dielectric constant tensor:
#      x y z
#    x 1.581370 0.000000 0.000000 
#    y 0.000000 1.565300 0.000000 
#    z 0.000000 0.000000 1.556420 
# 
# From -- ./inp_files/47486.got.cif
#   From: 2010.03.12/outbox.cif.g09.slc.cpg/sg65_24_cif.got.tgz:47486.got - 2010.04.10 20:52:16.
