data_PCOD8265506
_publ_section_title
;
Structure prediction by ZEFSAII (Michael W. Deem and Ramdas Pophale) SiO2 
 PCOD8265506
Probable space group: C M M M
;
_chemical_formula_sum "Si O2"
_cell_formula_units_Z 104
_cell_length_a 23.890082
_cell_length_b 8.018570
_cell_length_c 29.911845
_cell_angle_alpha 90.000000
_cell_angle_beta 90.000000
_cell_angle_gamma 90.000000
_cell_volume 5730.041494
_symmetry_space_group_name_H-M "C M M M"
_symmetry_group_IT_number 65
_symmetry_cell_setting 'orthorhombic'
loop_
_space_group_symop_operation_xyz
x,y,z
-x,-y,z
x,-y,-z
-x,y,-z
-x,-y,-z
x,y,-z
-x,y,z
x,-y,z
1/2+x,1/2+y,z
1/2-x,1/2-y,z
1/2+x,1/2-y,-z
1/2-x,1/2+y,-z
1/2-x,1/2-y,-z
1/2+x,1/2+y,-z
1/2-x,1/2+y,z
1/2+x,1/2-y,z
loop_
_atom_site_type_symbol
_atom_site_label
_atom_site_fract_x
_atom_site_fract_y
_atom_site_fract_z
Si Si1 0.000000 0.189771 0.673208
Si Si2 0.888510 0.309201 0.286602
Si Si3 0.121385 0.695588 0.451653
Si Si4 0.066842 0.000000 0.050780
Si Si5 0.000000 0.306969 0.421604
Si Si6 0.433648 0.816518 0.895219
Si Si7 0.436552 0.310149 0.199088
Si Si8 0.813686 0.302409 0.365975
O O1 0.946780 0.293540 0.688272
O O2 0.000000 0.183031 0.620071
O O3 0.000000 0.000000 0.692682
O O4 0.875322 0.500000 0.275583
O O5 0.892486 0.213203 0.239415
O O6 0.841262 0.232710 0.319902
O O7 0.142606 0.766250 0.500000
O O8 0.132397 0.500000 0.450336
O O9 0.055302 0.733669 0.449859
O O10 0.155033 0.775355 0.409659
O O11 0.091389 0.167378 0.074387
O O12 0.000000 0.000000 0.053170
O O13 0.088252 0.000000 0.000000
O O14 0.000000 0.500000 0.405691
O O15 0.500000 0.807101 0.898664
O O16 0.416223 0.796185 0.843377
O O17 0.412475 0.000000 0.911450
O O18 0.500000 0.258367 0.214334
O O19 0.436537 0.500000 0.183125
O O20 0.820897 0.500000 0.365890
O O21 0.750000 0.250000 0.367643
#
# Coordination Sequence:
#
# PCOD8265506 Si02
#       8
#     8  16  16   8   8  16  16  16
#     4  12  22  31  47  75 102 126 148 189 245 294
#     4  11  21  34  51  72  95 124 161 198 241 298
#     4   9  17  31  54  80  99 121 155 192 236 289
#     4   9  16  26  38  54  82 122 170 222 257 291
#     4  10  17  32  54  76 102 126 150 186 233 291
#     4   9  16  26  39  57  84 121 162 209 258 300
#     4  10  18  28  44  69  97 123 153 197 253 304
#     4  10  22  38  54  72  95 125 162 204 239 283
#
# _framework density 18.149957000000001
#
# number of rings (size 3 to 8) (size 9 to 14) (size 15 to 20)
#    0.000    2.077    3.077    1.846    0.000    3.385 
#    0.000    1.538    0.000    1.846    0.000    0.000 
#    0.000    0.000    0.000    0.000    0.000    0.769 
#
# Total GULP energy -644466.209720 kJ/mol
# GULP energy per Si atom -12393.580956 kJ/mol
# Density = 1.810865 g / cm^3
# Si number density = 18.149957 Si / 1000 Ang^3
#
#
#
# Elastic Constant Matrix: (Units=GPa)
#
#
# Indices 1 2 3 4 5 6 
#
# 1 76.3839 9.8826 35.6438 0.0000 0.0000 0.0000
# 2 9.8826 70.8760 45.0538 0.0000 0.0000 0.0000
# 3 35.6438 45.0538 133.1963 0.0000 0.0000 0.0000
# 4 0.0000 0.0000 0.0000 22.1788 0.0000 0.0000
# 5 0.0000 0.0000 0.0000 0.0000 9.7407 0.0000
# 6 0.0000 0.0000 0.0000 0.0000 0.0000 11.7780
#
#
#
# Elastic Compliance Matrix: (Units=1/GPa)
#
#
# Indices 1 2 3 4 5 6 
#
# 1 0.014979 0.000585 -0.004206 0.000000 0.000000 0.000000
# 2 0.000585 0.017997 -0.006244 0.000000 0.000000 0.000000
# 3 -0.004206 -0.006244 0.010745 0.000000 0.000000 0.000000
# 4 0.000000 0.000000 0.000000 0.045088 0.000000 0.000000
# 5 0.000000 0.000000 0.000000 0.000000 0.102662 0.000000
# 6 0.000000 0.000000 0.000000 0.000000 0.000000 0.084904
#
#
# Mechanical properties :
#
#
# Convention : Reuss Voigt Hill
#
# Bulk Modulus (GPa) = 41.68273 51.29073 46.48673
# Shear Modulus (GPa) = 16.44185 21.39791 18.91988
#
# Velocity S-wave (km/s) = 3.01306 3.43731 3.23216
# Velocity P-wave (km/s) = 5.92624 6.63884 6.29264
#
# Compressibility (1/GPa) = 0.02399075
#
# Stress axis : x y z
#
# Youngs Moduli (GPa) = 66.76059 55.56585 93.06301
#
# Poissons Ratio (x) = -0.03252 0.39146
# Poissons Ratio (y) = -0.03907 0.58109
# Poissons Ratio (z) = 0.28082 0.34695
#
# Static dielectric constant tensor:
#      x y z
#    x 2.487230 0.000000 0.000000 
#    y 0.000000 3.302710 0.000000 
#    z 0.000000 0.000000 3.501160 
# 
# 
# High freq. dielectric constant tensor:
#      x y z
#    x 1.635960 0.000000 0.000000 
#    y 0.000000 1.697020 0.000000 
#    z 0.000000 0.000000 1.707900 
# 
# From -- ./inp_files/78423.got.cif
#   From: 2010.03.12/outbox.cif.g09.slc.cpg/sg65_40_cif.got.tgz:78423.got - 2010.04.10 20:52:16.
