data_PCOD8265874
_publ_section_title
;
Structure prediction by ZEFSAII (Michael W. Deem and Ramdas Pophale) SiO2 
 PCOD8265874
Probable space group: C M M M
;
_chemical_formula_sum "Si O2"
_cell_formula_units_Z 80
_cell_length_a 8.894838
_cell_length_b 19.704103
_cell_length_c 25.746055
_cell_angle_alpha 90.000000
_cell_angle_beta 90.000000
_cell_angle_gamma 90.000000
_cell_volume 4512.377286
_symmetry_space_group_name_H-M "C M M M"
_symmetry_group_IT_number 65
_symmetry_cell_setting 'orthorhombic'
loop_
_space_group_symop_operation_xyz
x,y,z
-x,-y,z
x,-y,-z
-x,y,-z
-x,-y,-z
x,y,-z
-x,y,z
x,-y,z
1/2+x,1/2+y,z
1/2-x,1/2-y,z
1/2+x,1/2-y,-z
1/2-x,1/2+y,-z
1/2-x,1/2-y,-z
1/2+x,1/2+y,-z
1/2-x,1/2+y,z
1/2+x,1/2-y,z
loop_
_atom_site_type_symbol
_atom_site_label
_atom_site_fract_x
_atom_site_fract_y
_atom_site_fract_z
Si Si1 0.174062 0.822431 0.637817
Si Si2 0.178504 0.575706 0.942221
Si Si3 0.173300 0.422293 0.440489
Si Si4 0.824070 0.822857 0.752129
Si Si5 0.179280 0.675699 0.853499
O O1 0.250000 0.750000 0.629629
O O2 0.226666 0.875603 0.595506
O O3 0.204322 0.855404 0.695187
O O4 0.000000 0.808530 0.629963
O O5 0.237780 0.500000 0.928645
O O6 0.240277 0.629591 0.900675
O O7 0.000000 0.575422 0.940668
O O8 0.234057 0.596657 0.000000
O O9 0.201896 0.401438 0.500000
O O10 0.221145 0.500000 0.431555
O O11 0.000000 0.411863 0.425775
O O12 0.750000 0.750000 0.749025
O O13 0.739621 0.860068 0.800074
O O14 0.000000 0.817431 0.765049
O O15 0.250000 0.750000 0.860412
O O16 0.000000 0.680635 0.852194
#
# Coordination Sequence:
#
# PCOD8265874 Si02
#       5
#    16  16  16  16  16
#     4  10  20  33  52  76 100 129 165 203 243 288
#     4   8  15  29  47  66  90 121 157 195 232 272
#     4   9  19  36  55  74  99 131 164 200 244 290
#     4   9  17  30  47  68  96 127 157 192 235 280
#     4  10  18  28  47  72  95 121 154 192 234 280
#
# _framework density 17.729012999999998
#
# number of rings (size 3 to 8) (size 9 to 14) (size 15 to 20)
#    0.000    2.800    0.000    4.200    0.000    4.000 
#    0.000    2.000    0.000    7.800    0.000    5.600 
#    0.000    0.000    0.000    0.000    0.000    0.000 
#
# Total GULP energy -495655.423079 kJ/mol
# GULP energy per Si atom -12391.385577 kJ/mol
# Density = 1.768866 g / cm^3
# Si number density = 17.729013 Si / 1000 Ang^3
#
#
#
# Elastic Constant Matrix: (Units=GPa)
#
#
# Indices 1 2 3 4 5 6 
#
# 1 78.2883 37.0246 56.2790 0.0000 0.0000 0.0000
# 2 37.0246 74.7197 71.9738 0.0000 0.0000 0.0000
# 3 56.2790 71.9738 148.1718 0.0000 0.0000 0.0000
# 4 0.0000 0.0000 0.0000 -1.3999 0.0000 0.0000
# 5 0.0000 0.0000 0.0000 0.0000 26.9050 0.0000
# 6 0.0000 0.0000 0.0000 0.0000 0.0000 22.9389
#
#
#
# Elastic Compliance Matrix: (Units=1/GPa)
#
#
# Indices 1 2 3 4 5 6 
#
# 1 0.018331 -0.004466 -0.004793 0.000000 0.000000 0.000000
# 2 -0.004466 0.026240 -0.011049 0.000000 0.000000 0.000000
# 3 -0.004793 -0.011049 0.013937 0.000000 0.000000 0.000000
# 4 0.000000 0.000000 0.000000 -0.714327 0.000000 0.000000
# 5 0.000000 0.000000 0.000000 0.000000 0.037168 0.000000
# 6 0.000000 0.000000 0.000000 0.000000 0.000000 0.043594
#
#
# Mechanical properties :
#
#
# Convention : Reuss Voigt Hill
#
# Bulk Modulus (GPa) = 55.89759 70.19274 63.04516
# Shear Modulus (GPa) = -9.46117 18.74895 4.64389
#
# Velocity S-wave (km/s) = -2.31260 3.25550 1.62020
# Velocity P-wave (km/s) = 4.94636 7.33546 6.25602
#
# Compressibility (1/GPa) = 0.01788986
#
# Stress axis : x y z
#
# Youngs Moduli (GPa) = 54.55195 38.10981 71.75316
#
# Poissons Ratio (x) = 0.17021 0.34392
# Poissons Ratio (y) = 0.24365 0.79284
# Poissons Ratio (z) = 0.26147 0.42109
#
# Static dielectric constant tensor:
#      x y z
#    x 3.169930 0.000000 0.000000 
#    y 0.000000 3.099050 0.000000 
#    z 0.000000 0.000000 4.098870 
# 
# 
# High freq. dielectric constant tensor:
#      x y z
#    x 1.677600 0.000000 0.000000 
#    y 0.000000 1.655070 0.000000 
#    z 0.000000 0.000000 1.705840 
# 
# From -- ./inp_files/72849.got.cif
#   From: 2010.03.12/outbox.cif.g09.slc.cpg/sg65_37_cif.got.tgz:72849.got - 2010.04.10 20:52:16.
