data_PCOD8265617
_publ_section_title
;
Structure prediction by ZEFSAII (Michael W. Deem and Ramdas Pophale) SiO2 
 PCOD8265617
Probable space group: C M M M
;
_chemical_formula_sum "Si O2"
_cell_formula_units_Z 104
_cell_length_a 27.042250
_cell_length_b 8.913279
_cell_length_c 26.987570
_cell_angle_alpha 90.000000
_cell_angle_beta 90.000000
_cell_angle_gamma 90.000000
_cell_volume 6504.952147
_symmetry_space_group_name_H-M "C M M M"
_symmetry_group_IT_number 65
_symmetry_cell_setting 'orthorhombic'
loop_
_space_group_symop_operation_xyz
x,y,z
-x,-y,z
x,-y,-z
-x,y,-z
-x,-y,-z
x,y,-z
-x,y,z
x,-y,z
1/2+x,1/2+y,z
1/2-x,1/2-y,z
1/2+x,1/2-y,-z
1/2-x,1/2+y,-z
1/2-x,1/2-y,-z
1/2+x,1/2+y,-z
1/2-x,1/2+y,z
1/2+x,1/2-y,z
loop_
_atom_site_type_symbol
_atom_site_label
_atom_site_fract_x
_atom_site_fract_y
_atom_site_fract_z
Si Si1 0.899152 0.323442 0.398395
Si Si2 0.303916 0.822304 0.159776
Si Si3 0.651280 0.323268 0.252274
Si Si4 0.554803 0.672229 0.308203
Si Si5 0.197522 0.674562 0.052290
Si Si6 0.699498 0.821935 0.345058
Si Si7 0.556384 0.821097 0.500000
O O1 0.903823 0.500000 0.398929
O O2 0.937801 0.265711 0.358015
O O3 0.843392 0.274976 0.383853
O O4 0.914378 0.258234 0.452008
O O5 0.250000 0.750000 0.165919
O O6 0.340971 0.748207 0.198634
O O7 0.327625 0.783559 0.105093
O O8 0.299934 0.000000 0.168981
O O9 0.661887 0.500000 0.251136
O O10 0.594729 0.284237 0.266496
O O11 0.688383 0.247225 0.291249
O O12 0.500000 0.705178 0.286953
O O13 0.561521 0.500000 0.323279
O O14 0.207994 0.500000 0.053012
O O15 0.250000 0.750000 0.050897
O O16 0.168819 0.717280 0.000000
O O17 0.750000 0.750000 0.365578
O O18 0.704565 0.000000 0.340080
O O19 0.500000 0.761099 0.500000
O O20 0.556340 0.000000 0.500000
#
# Coordination Sequence:
#
# PCOD8265617 Si02
#       7
#    16  16  16  16  16  16   8
#     4   9  18  31  48  69  89 111 140 172 204 245
#     4  10  18  27  40  59  85 114 144 176 208 243
#     4  10  19  30  44  62  85 111 140 173 209 250
#     4   9  18  32  48  65  86 111 137 168 209 254
#     4   8  14  24  37  53  75 106 141 173 205 241
#     4  10  19  31  46  63  85 113 145 176 207 243
#     4   9  16  28  48  71  91 109 133 169 212 253
#
# _framework density 15.987819
#
# number of rings (size 3 to 8) (size 9 to 14) (size 15 to 20)
#    0.000    2.692    0.000    2.308    0.000    2.769 
#    0.000    0.769    0.000    1.385    0.000    0.000 
#    0.000    0.615    0.000    7.692    0.000    0.000 
#
# Total GULP energy -644320.362055 kJ/mol
# GULP energy per Si atom -12390.776193 kJ/mol
# Density = 1.595143 g / cm^3
# Si number density = 15.987819 Si / 1000 Ang^3
#
#
#
# Elastic Constant Matrix: (Units=GPa)
#
#
# Indices 1 2 3 4 5 6 
#
# 1 93.1067 26.9018 58.4331 0.0000 0.0000 0.0000
# 2 26.9018 42.3838 35.6123 0.0000 0.0000 0.0000
# 3 58.4331 35.6123 154.5145 0.0000 0.0000 0.0000
# 4 0.0000 0.0000 0.0000 15.7840 0.0000 0.0000
# 5 0.0000 0.0000 0.0000 0.0000 17.8364 0.0000
# 6 0.0000 0.0000 0.0000 0.0000 0.0000 17.6340
#
#
#
# Elastic Compliance Matrix: (Units=1/GPa)
#
#
# Indices 1 2 3 4 5 6 
#
# 1 0.015214 -0.005981 -0.004375 0.000000 0.000000 0.000000
# 2 -0.005981 0.031611 -0.005024 0.000000 0.000000 0.000000
# 3 -0.004375 -0.005024 0.009284 0.000000 0.000000 0.000000
# 4 0.000000 0.000000 0.000000 0.063355 0.000000 0.000000
# 5 0.000000 0.000000 0.000000 0.000000 0.056065 0.000000
# 6 0.000000 0.000000 0.000000 0.000000 0.000000 0.056709
#
#
# Mechanical properties :
#
#
# Convention : Reuss Voigt Hill
#
# Bulk Modulus (GPa) = 39.44730 59.09993 49.27361
# Shear Modulus (GPa) = 18.41969 21.52140 19.97054
#
# Velocity S-wave (km/s) = 3.39795 3.67292 3.53811
# Velocity P-wave (km/s) = 6.33417 7.41842 6.89763
#
# Compressibility (1/GPa) = 0.02535028
#
# Stress axis : x y z
#
# Youngs Moduli (GPa) = 65.72798 31.63427 107.70757
#
# Poissons Ratio (x) = 0.18919 0.47124
# Poissons Ratio (y) = 0.39309 0.54113
# Poissons Ratio (z) = 0.28757 0.15893
#
# Static dielectric constant tensor:
#      x y z
#    x 2.932300 0.000000 0.000000 
#    y 0.000000 3.008620 0.000000 
#    z 0.000000 0.000000 3.535310 
# 
# 
# High freq. dielectric constant tensor:
#      x y z
#    x 1.583440 0.000000 0.000000 
#    y 0.000000 1.617560 0.000000 
#    z 0.000000 0.000000 1.617740 
# 
# From -- ./inp_files/76251.got.cif
#   From: 2010.03.12/outbox.cif.g09.slc.cpg/sg65_39_cif.got.tgz:76251.got - 2010.04.10 20:52:16.
