data_PCOD8265845
_publ_section_title
;
Structure prediction by ZEFSAII (Michael W. Deem and Ramdas Pophale) SiO2 
 PCOD8265845
Probable space group: C M M M
;
_chemical_formula_sum "Si O2"
_cell_formula_units_Z 80
_cell_length_a 8.843647
_cell_length_b 19.790541
_cell_length_c 25.569655
_cell_angle_alpha 90.000000
_cell_angle_beta 90.000000
_cell_angle_gamma 90.000000
_cell_volume 4475.215300
_symmetry_space_group_name_H-M "C M M M"
_symmetry_group_IT_number 65
_symmetry_cell_setting 'orthorhombic'
loop_
_space_group_symop_operation_xyz
x,y,z
-x,-y,z
x,-y,-z
-x,y,-z
-x,-y,-z
x,y,-z
-x,y,z
x,-y,z
1/2+x,1/2+y,z
1/2-x,1/2-y,z
1/2+x,1/2-y,-z
1/2-x,1/2+y,-z
1/2-x,1/2-y,-z
1/2+x,1/2+y,-z
1/2-x,1/2+y,z
1/2+x,1/2-y,z
loop_
_atom_site_type_symbol
_atom_site_label
_atom_site_fract_x
_atom_site_fract_y
_atom_site_fract_z
Si Si1 0.820423 0.425198 0.752024
Si Si2 0.320019 0.175901 0.840480
Si Si3 0.173183 0.578976 0.634959
Si Si4 0.677297 0.318700 0.440718
Si Si5 0.323018 0.323055 0.943319
O O1 0.756781 0.500000 0.765890
O O2 0.759063 0.370659 0.793352
O O3 0.769332 0.404174 0.693673
O O4 0.000000 0.428163 0.753610
O O5 0.500000 0.180696 0.841420
O O6 0.250000 0.250000 0.833175
O O7 0.260503 0.140731 0.894542
O O8 0.191219 0.500000 0.623473
O O9 0.275939 0.618228 0.594225
O O10 0.000000 0.601728 0.627881
O O11 0.733176 0.332001 0.500000
O O12 0.500000 0.309780 0.438180
O O13 0.750000 0.250000 0.418469
O O14 0.500000 0.316350 0.930771
O O15 0.250000 0.250000 0.947337
O O16 0.298313 0.359933 0.000000
#
# Coordination Sequence:
#
# PCOD8265845 Si02
#       5
#    16  16  16  16  16
#     4   8  16  32  51  70  94 126 161 195 233 276
#     4  10  18  28  46  70  95 121 152 193 235 278
#     4   9  18  34  55  76  99 129 165 202 241 289
#     4  10  21  36  53  74 102 133 164 201 244 289
#     4   9  16  26  41  62  90 121 152 189 232 277
#
# _framework density 17.876235000000001
#
# number of rings (size 3 to 8) (size 9 to 14) (size 15 to 20)
#    0.000    2.800    0.000    4.200    0.000    4.000 
#    0.000    6.000    0.000    5.400    0.000    4.200 
#    0.000    0.000    0.000    0.000    0.000    0.000 
#
# Total GULP energy -495724.896054 kJ/mol
# GULP energy per Si atom -12393.122401 kJ/mol
# Density = 1.783555 g / cm^3
# Si number density = 17.876235 Si / 1000 Ang^3
#
#
#
# Elastic Constant Matrix: (Units=GPa)
#
#
# Indices 1 2 3 4 5 6 
#
# 1 66.8621 29.0355 40.2956 0.0000 0.0000 0.0000
# 2 29.0355 70.3409 67.4769 0.0000 0.0000 0.0000
# 3 40.2956 67.4769 136.8702 0.0000 0.0000 0.0000
# 4 0.0000 0.0000 0.0000 10.5181 0.0000 0.0000
# 5 0.0000 0.0000 0.0000 0.0000 26.0514 0.0000
# 6 0.0000 0.0000 0.0000 0.0000 0.0000 22.8316
#
#
#
# Elastic Compliance Matrix: (Units=1/GPa)
#
#
# Indices 1 2 3 4 5 6 
#
# 1 0.018964 -0.004690 -0.003271 0.000000 0.000000 0.000000
# 2 -0.004690 0.028133 -0.012488 0.000000 0.000000 0.000000
# 3 -0.003271 -0.012488 0.014426 0.000000 0.000000 0.000000
# 4 0.000000 0.000000 0.000000 0.095074 0.000000 0.000000
# 5 0.000000 0.000000 0.000000 0.000000 0.038386 0.000000
# 6 0.000000 0.000000 0.000000 0.000000 0.000000 0.043799
#
#
# Mechanical properties :
#
#
# Convention : Reuss Voigt Hill
#
# Bulk Modulus (GPa) = 48.48876 60.85436 54.67156
# Shear Modulus (GPa) = 17.44862 21.03122 19.23992
#
# Velocity S-wave (km/s) = 3.12762 3.43372 3.28424
# Velocity P-wave (km/s) = 6.34242 7.05950 6.71054
#
# Compressibility (1/GPa) = 0.02062333
#
# Stress axis : x y z
#
# Youngs Moduli (GPa) = 52.73077 35.54600 69.31958
#
# Poissons Ratio (x) = 0.16673 0.22673
# Poissons Ratio (y) = 0.24733 0.86569
# Poissons Ratio (z) = 0.17247 0.44391
#
# Static dielectric constant tensor:
#      x y z
#    x 3.174910 0.000000 0.000000 
#    y 0.000000 3.140070 0.000000 
#    z 0.000000 0.000000 3.958730 
# 
# 
# High freq. dielectric constant tensor:
#      x y z
#    x 1.682010 0.000000 0.000000 
#    y 0.000000 1.659850 0.000000 
#    z 0.000000 0.000000 1.708970 
# 
# From -- ./inp_files/72822.got.cif
#   From: 2010.03.12/outbox.cif.g09.slc.cpg/sg65_37_cif.got.tgz:72822.got - 2010.04.10 20:52:16.
