data_PCOD8265289
_publ_section_title
;
Structure prediction by ZEFSAII (Michael W. Deem and Ramdas Pophale) SiO2 
 PCOD8265289
Probable space group: C M M M
;
_chemical_formula_sum "Si O2"
_cell_formula_units_Z 96
_cell_length_a 26.489485
_cell_length_b 28.062680
_cell_length_c 9.283762
_cell_angle_alpha 90.000000
_cell_angle_beta 90.000000
_cell_angle_gamma 90.000000
_cell_volume 6901.232474
_symmetry_space_group_name_H-M "C M M M"
_symmetry_group_IT_number 65
_symmetry_cell_setting 'orthorhombic'
loop_
_space_group_symop_operation_xyz
x,y,z
-x,-y,z
x,-y,-z
-x,y,-z
-x,-y,-z
x,y,-z
-x,y,z
x,-y,z
1/2+x,1/2+y,z
1/2-x,1/2-y,z
1/2+x,1/2-y,-z
1/2-x,1/2+y,-z
1/2-x,1/2-y,-z
1/2+x,1/2+y,-z
1/2-x,1/2+y,z
1/2+x,1/2-y,z
loop_
_atom_site_type_symbol
_atom_site_label
_atom_site_fract_x
_atom_site_fract_y
_atom_site_fract_z
Si Si1 0.213376 0.554165 0.666449
Si Si2 0.800371 0.219187 0.337038
Si Si3 0.351730 0.797090 0.166878
Si Si4 0.056640 0.639613 0.833884
Si Si5 0.402890 0.053528 0.667210
Si Si6 0.747312 0.858568 0.167541
O O1 0.220265 0.568815 0.500000
O O2 0.231680 0.500000 0.691319
O O3 0.155243 0.559383 0.712700
O O4 0.246717 0.588555 0.766043
O O5 0.816742 0.206764 0.500000
O O6 0.750000 0.250000 0.335542
O O7 0.844418 0.249410 0.260292
O O8 0.791140 0.170913 0.247899
O O9 0.403682 0.821005 0.221894
O O10 0.306848 0.834408 0.193900
O O11 0.354112 0.782098 0.000000
O O12 0.062287 0.589698 0.753357
O O13 0.000000 0.659162 0.809133
O O14 0.067945 0.629167 0.000000
O O15 0.409376 0.064740 0.500000
O O16 0.421194 0.000000 0.702357
O O17 0.761073 0.861330 0.000000
#
# Coordination Sequence:
#
# PCOD8265289 Si02
#       6
#    16  16  16  16  16  16
#     4   9  17  28  41  57  78 104 132 163 199 237
#     4   9  17  27  41  60  78  98 122 152 192 237
#     4   9  17  29  41  56  77  99 124 160 199 237
#     4  10  20  32  44  58  76 100 130 165 207 248
#     4   9  18  31  44  56  72  97 130 169 210 246
#     4  10  17  26  42  61  79 100 126 159 195 234
#
# _framework density 13.910558
#
# number of rings (size 3 to 8) (size 9 to 14) (size 15 to 20)
#    0.000    2.667    1.667    2.000    0.000    4.667 
#    0.000    3.333    0.000    0.000    0.000    0.000 
#    0.000    0.000    0.000    0.000    0.000    0.833 
#
# Total GULP energy -595183.137444 kJ/mol
# GULP energy per Si atom -12399.648697 kJ/mol
# Density = 1.387890 g / cm^3
# Si number density = 13.910558 Si / 1000 Ang^3
#
#
#
# Elastic Constant Matrix: (Units=GPa)
#
#
# Indices 1 2 3 4 5 6 
#
# 1 51.1771 43.8598 31.2831 0.0000 0.0000 0.0000
# 2 43.8598 80.4323 49.5847 0.0000 0.0000 0.0000
# 3 31.2831 49.5847 75.3429 0.0000 0.0000 0.0000
# 4 0.0000 0.0000 0.0000 28.3197 0.0000 0.0000
# 5 0.0000 0.0000 0.0000 0.0000 14.5214 0.0000
# 6 0.0000 0.0000 0.0000 0.0000 0.0000 20.2709
#
#
#
# Elastic Compliance Matrix: (Units=1/GPa)
#
#
# Indices 1 2 3 4 5 6 
#
# 1 0.037233 -0.018127 -0.003530 0.000000 0.000000 0.000000
# 2 -0.018127 0.029746 -0.012050 0.000000 0.000000 0.000000
# 3 -0.003530 -0.012050 0.022668 0.000000 0.000000 0.000000
# 4 0.000000 0.000000 0.000000 0.035311 0.000000 0.000000
# 5 0.000000 0.000000 0.000000 0.000000 0.068864 0.000000
# 6 0.000000 0.000000 0.000000 0.000000 0.000000 0.049332
#
#
# Mechanical properties :
#
#
# Convention : Reuss Voigt Hill
#
# Bulk Modulus (GPa) = 44.97608 50.71196 47.84402
# Shear Modulus (GPa) = 15.72431 18.10406 16.91419
#
# Velocity S-wave (km/s) = 3.36577 3.61149 3.49079
# Velocity P-wave (km/s) = 6.89254 7.34339 7.12153
#
# Compressibility (1/GPa) = 0.02223404
#
# Stress axis : x y z
#
# Youngs Moduli (GPa) = 26.85797 33.61784 44.11417
#
# Poissons Ratio (x) = 0.60940 0.15570
# Poissons Ratio (y) = 0.48686 0.53157
# Poissons Ratio (z) = 0.09480 0.40509
#
# Static dielectric constant tensor:
#      x y z
#    x 2.469190 0.000000 0.000000 
#    y 0.000000 2.698640 0.000000 
#    z 0.000000 0.000000 2.790880 
# 
# 
# High freq. dielectric constant tensor:
#      x y z
#    x 1.481420 0.000000 0.000000 
#    y 0.000000 1.519680 0.000000 
#    z 0.000000 0.000000 1.540100 
# 
# From -- ./inp_files/12252.got.cif
#   From: 2010.03.12/outbox.cif.g09.slc.cpg/sg65_7_cif.got.tgz:12252.got - 2010.04.10 20:52:16.
