data_PCOD8265592
_publ_section_title
;
Structure prediction by ZEFSAII (Michael W. Deem and Ramdas Pophale) SiO2 
 PCOD8265592
Probable space group: C M M M
;
_chemical_formula_sum "Si O2"
_cell_formula_units_Z 88
_cell_length_a 16.955965
_cell_length_b 27.012658
_cell_length_c 13.376138
_cell_angle_alpha 90.000000
_cell_angle_beta 90.000000
_cell_angle_gamma 90.000000
_cell_volume 6126.614751
_symmetry_space_group_name_H-M "C M M M"
_symmetry_group_IT_number 65
_symmetry_cell_setting 'orthorhombic'
loop_
_space_group_symop_operation_xyz
x,y,z
-x,-y,z
x,-y,-z
-x,y,-z
-x,-y,-z
x,y,-z
-x,y,z
x,-y,z
1/2+x,1/2+y,z
1/2-x,1/2-y,z
1/2+x,1/2-y,-z
1/2-x,1/2+y,-z
1/2-x,1/2-y,-z
1/2+x,1/2+y,-z
1/2-x,1/2+y,z
1/2+x,1/2-y,z
loop_
_atom_site_type_symbol
_atom_site_label
_atom_site_fract_x
_atom_site_fract_y
_atom_site_fract_z
Si Si1 0.000000 0.441739 0.388503
Si Si2 0.227646 0.367566 0.615166
Si Si3 0.830207 0.780034 0.389253
Si Si4 0.151679 0.441762 0.739822
Si Si5 0.408769 0.131083 0.111636
Si Si6 0.409558 0.805249 0.297124
O O1 0.923258 0.425522 0.327159
O O2 0.000000 0.500000 0.399248
O O3 0.000000 0.418065 0.500000
O O4 0.232613 0.383340 0.500000
O O5 0.305122 0.335402 0.645991
O O6 0.226632 0.417217 0.683348
O O7 0.147137 0.336444 0.630763
O O8 0.869160 0.781953 0.500000
O O9 0.750000 0.750000 0.396044
O O10 0.890001 0.753373 0.311650
O O11 0.164078 0.500000 0.752202
O O12 0.139598 0.416606 0.847903
O O13 0.500000 0.116041 0.109840
O O14 0.394121 0.179070 0.181757
O O15 0.378622 0.143690 0.000000
O O16 0.500000 0.815918 0.327426
#
# Coordination Sequence:
#
# PCOD8265592 Si02
#       6
#     8  16  16  16  16  16
#     4   9  16  24  33  49  73  93 112 148 189 215
#     4   9  17  26  37  53  77 105 125 146 184 231
#     4   8  14  25  38  53  75 101 122 145 184 231
#     4  10  18  27  37  52  72  97 130 161 189 216
#     4   9  17  28  39  52  73  99 129 162 192 225
#     4   9  16  25  39  57  73  92 124 160 190 220
#
# _framework density 14.36356
#
# number of rings (size 3 to 8) (size 9 to 14) (size 15 to 20)
#    0.000    3.000    0.909    2.182    1.273    2.909 
#    0.000    0.909    0.000   13.636    0.000    0.000 
#    0.000    0.727    0.000    4.000    0.000    0.182 
#
# Total GULP energy -545169.607197 kJ/mol
# GULP energy per Si atom -12390.218345 kJ/mol
# Density = 1.433087 g / cm^3
# Si number density = 14.363560 Si / 1000 Ang^3
#
#
#
# Elastic Constant Matrix: (Units=GPa)
#
#
# Indices 1 2 3 4 5 6 
#
# 1 21.3119 27.5919 16.3395 0.0000 0.0000 0.0000
# 2 27.5919 86.9192 44.5459 0.0000 0.0000 0.0000
# 3 16.3395 44.5459 89.6986 0.0000 0.0000 0.0000
# 4 0.0000 0.0000 0.0000 17.6434 0.0000 0.0000
# 5 0.0000 0.0000 0.0000 0.0000 12.9312 0.0000
# 6 0.0000 0.0000 0.0000 0.0000 0.0000 22.4943
#
#
#
# Elastic Compliance Matrix: (Units=1/GPa)
#
#
# Indices 1 2 3 4 5 6 
#
# 1 0.080123 -0.024084 -0.002635 0.000000 0.000000 0.000000
# 2 -0.024084 0.022672 -0.006872 0.000000 0.000000 0.000000
# 3 -0.002635 -0.006872 0.015041 0.000000 0.000000 0.000000
# 4 0.000000 0.000000 0.000000 0.056678 0.000000 0.000000
# 5 0.000000 0.000000 0.000000 0.000000 0.077332 0.000000
# 6 0.000000 0.000000 0.000000 0.000000 0.000000 0.044456
#
#
# Mechanical properties :
#
#
# Convention : Reuss Voigt Hill
#
# Bulk Modulus (GPa) = 19.74162 41.65381 30.69771
# Shear Modulus (GPa) = 13.14510 17.91063 15.52786
#
# Velocity S-wave (km/s) = 3.02846 3.53505 3.29151
# Velocity P-wave (km/s) = 5.09930 6.76200 5.98864
#
# Compressibility (1/GPa) = 0.05065440
#
# Stress axis : x y z
#
# Youngs Moduli (GPa) = 12.48082 44.10659 66.48382
#
# Poissons Ratio (x) = 1.06227 0.17515
# Poissons Ratio (y) = 0.30059 0.45690
# Poissons Ratio (z) = 0.03288 0.30311
#
# Static dielectric constant tensor:
#      x y z
#    x 2.716660 0.000000 0.000000 
#    y 0.000000 2.978020 0.000000 
#    z 0.000000 0.000000 2.854060 
# 
# 
# High freq. dielectric constant tensor:
#      x y z
#    x 1.496030 0.000000 0.000000 
#    y 0.000000 1.539390 0.000000 
#    z 0.000000 0.000000 1.539970 
# 
# From -- ./inp_files/43208.got.cif
#   From: 2010.03.12/outbox.cif.g09.slc.cpg/sg65_22_cif.got.tgz:43208.got - 2010.04.10 20:52:16.
