data_PCOD8265703
_publ_section_title
;
Structure prediction by ZEFSAII (Michael W. Deem and Ramdas Pophale) SiO2 
 PCOD8265703
Probable space group: C M M M
;
_chemical_formula_sum "Si O2"
_cell_formula_units_Z 104
_cell_length_a 17.993546
_cell_length_b 25.582128
_cell_length_c 14.230514
_cell_angle_alpha 90.000000
_cell_angle_beta 90.000000
_cell_angle_gamma 90.000000
_cell_volume 6550.493394
_symmetry_space_group_name_H-M "C M M M"
_symmetry_group_IT_number 65
_symmetry_cell_setting 'orthorhombic'
loop_
_space_group_symop_operation_xyz
x,y,z
-x,-y,z
x,-y,-z
-x,y,-z
-x,-y,-z
x,y,-z
-x,y,z
x,-y,z
1/2+x,1/2+y,z
1/2-x,1/2-y,z
1/2+x,1/2-y,-z
1/2-x,1/2+y,-z
1/2-x,1/2-y,-z
1/2+x,1/2+y,-z
1/2-x,1/2+y,z
1/2+x,1/2-y,z
loop_
_atom_site_type_symbol
_atom_site_label
_atom_site_fract_x
_atom_site_fract_y
_atom_site_fract_z
Si Si1 0.087328 0.130787 0.825209
Si Si2 0.583487 0.062226 0.226268
Si Si3 0.412663 0.441228 0.000000
Si Si4 0.786090 0.408647 0.892995
Si Si5 0.318882 0.061815 0.603798
Si Si6 0.790216 0.800764 0.107285
Si Si7 0.685208 0.558451 0.727985
O O1 0.112045 0.092269 0.910149
O O2 0.132994 0.184790 0.837742
O O3 0.116079 0.099151 0.733631
O O4 0.000000 0.142792 0.819924
O O5 0.500000 0.083926 0.220197
O O6 0.628055 0.083827 0.136177
O O7 0.619675 0.083649 0.323569
O O8 0.585376 0.000000 0.224520
O O9 0.377943 0.500000 0.000000
O O10 0.500000 0.447072 0.000000
O O11 0.768165 0.347525 0.883823
O O12 0.735341 0.441955 0.822286
O O13 0.772996 0.428313 0.000000
O O14 0.330592 0.086561 0.500000
O O15 0.236265 0.075977 0.640469
O O16 0.326971 0.000000 0.598291
O O17 0.750000 0.750000 0.152368
O O18 0.812418 0.788637 0.000000
O O19 0.653377 0.500000 0.713847
#
# Coordination Sequence:
#
# PCOD8265703 Si02
#       7
#    16  16   8  16  16  16  16
#     4  10  18  28  41  60  86 112 140 176 212 247
#     4   9  17  27  39  59  86 113 143 179 215 250
#     4   9  16  24  35  56  86 116 140 163 198 241
#     4   9  17  28  40  56  81 113 146 175 208 252
#     4   8  14  26  42  58  79 110 147 181 210 244
#     4   9  17  30  45  58  76 108 148 188 218 247
#     4   9  17  26  39  61  86 114 144 171 203 250
#
# _framework density 15.876666999999999
#
# number of rings (size 3 to 8) (size 9 to 14) (size 15 to 20)
#    0.000    3.000    0.769    1.846    1.077    2.769 
#    0.000    3.077    0.000    3.231    0.000    2.154 
#    0.000   49.846    0.000    5.538    0.000    0.000 
#
# Total GULP energy -644438.672155 kJ/mol
# GULP energy per Si atom -12393.051388 kJ/mol
# Density = 1.584053 g / cm^3
# Si number density = 15.876667 Si / 1000 Ang^3
#
#
#
# Elastic Constant Matrix: (Units=GPa)
#
#
# Indices 1 2 3 4 5 6 
#
# 1 97.7903 29.5023 13.7028 0.0000 0.0000 0.0000
# 2 29.5023 53.8959 -1.1104 0.0000 0.0000 0.0000
# 3 13.7028 -1.1104 49.9890 0.0000 0.0000 0.0000
# 4 0.0000 0.0000 0.0000 6.6591 0.0000 0.0000
# 5 0.0000 0.0000 0.0000 0.0000 16.5500 0.0000
# 6 0.0000 0.0000 0.0000 0.0000 0.0000 22.5609
#
#
#
# Elastic Compliance Matrix: (Units=1/GPa)
#
#
# Indices 1 2 3 4 5 6 
#
# 1 0.012896 -0.007135 -0.003694 0.000000 0.000000 0.000000
# 2 -0.007135 0.022511 0.002456 0.000000 0.000000 0.000000
# 3 -0.003694 0.002456 0.021071 0.000000 0.000000 0.000000
# 4 0.000000 0.000000 0.000000 0.150170 0.000000 0.000000
# 5 0.000000 0.000000 0.000000 0.000000 0.060423 0.000000
# 6 0.000000 0.000000 0.000000 0.000000 0.000000 0.044324
#
#
# Mechanical properties :
#
#
# Convention : Reuss Voigt Hill
#
# Bulk Modulus (GPa) = 25.16838 31.76275 28.46556
# Shear Modulus (GPa) = 14.64618 19.79270 17.21944
#
# Velocity S-wave (km/s) = 3.04056 3.53463 3.29686
# Velocity P-wave (km/s) = 5.31164 6.05867 5.69741
#
# Compressibility (1/GPa) = 0.03973240
#
# Stress axis : x y z
#
# Youngs Moduli (GPa) = 77.54223 44.42319 47.45763
#
# Poissons Ratio (x) = 0.31698 0.17529
# Poissons Ratio (y) = 0.55330 -0.11656
# Poissons Ratio (z) = 0.28641 -0.10910
#
# Static dielectric constant tensor:
#      x y z
#    x 3.112770 0.000000 0.000000 
#    y 0.000000 2.769860 0.000000 
#    z 0.000000 0.000000 3.148710 
# 
# 
# High freq. dielectric constant tensor:
#      x y z
#    x 1.611460 0.000000 0.000000 
#    y 0.000000 1.569980 0.000000 
#    z 0.000000 0.000000 1.582010 
# 
# From -- ./inp_files/43098.got.cif
#   From: 2010.03.12/outbox.cif.g09.slc.cpg/sg65_22_cif.got.tgz:43098.got - 2010.04.10 20:52:16.
