data_PCOD8265020
_publ_section_title
;
Structure prediction by ZEFSAII (Michael W. Deem and Ramdas Pophale) SiO2 
 PCOD8265020
Probable space group: C M C A
;
_chemical_formula_sum "Si O2"
_cell_formula_units_Z 96
_cell_length_a 9.513672
_cell_length_b 27.525082
_cell_length_c 23.791839
_cell_angle_alpha 90.000000
_cell_angle_beta 90.000000
_cell_angle_gamma 90.000000
_cell_volume 6230.240449
_symmetry_space_group_name_H-M "C M C A"
_symmetry_group_IT_number 64
_symmetry_cell_setting 'orthorhombic'
loop_
_space_group_symop_operation_xyz
x,y,z
-x,1/2-y,1/2+z
x,-y,-z
-x,1/2+y,1/2-z
-x,-y,-z
x,1/2+y,1/2-z
-x,y,z
x,1/2-y,1/2+z
1/2+x,1/2+y,z
1/2-x,-y,1/2+z
1/2+x,1/2-y,-z
1/2-x,y,1/2-z
1/2-x,1/2-y,-z
1/2+x,y,1/2-z
1/2-x,1/2+y,z
1/2+x,-y,1/2+z
loop_
_atom_site_type_symbol
_atom_site_label
_atom_site_fract_x
_atom_site_fract_y
_atom_site_fract_z
Si Si1 0.836133 0.569232 0.696362
Si Si2 0.333282 0.979929 0.415468
Si Si3 0.833317 0.926072 0.975665
Si Si4 0.336006 0.317790 0.969223
Si Si5 0.837191 0.181895 0.803791
Si Si6 0.163030 0.736087 0.583449
O O1 0.750000 0.551134 0.750000
O O2 0.775467 0.538206 0.644214
O O3 0.807006 0.625583 0.683614
O O4 0.000000 0.559382 0.707239
O O5 0.500000 0.974954 0.415793
O O6 0.272447 0.945691 0.465051
O O7 0.289001 0.036051 0.426538
O O8 0.775557 0.872409 0.962397
O O9 0.000000 0.923059 0.980735
O O10 0.500000 0.314216 0.954273
O O11 0.252606 0.284766 0.925052
O O12 0.306945 0.301497 0.033120
O O13 0.750000 0.200295 0.750000
O O14 0.788429 0.211607 0.858470
O O15 0.000000 0.190793 0.790478
O O16 0.000000 0.750493 0.585161
#
# Coordination Sequence:
#
# PCOD8265020 Si02
#       6
#    16  16  16  16  16  16
#     4   9  16  26  41  61  83 106 131 161 198 238
#     4   8  13  22  39  62  84 104 129 163 200 234
#     4   8  13  22  39  63  84 102 130 167 199 229
#     4   9  16  26  42  63  84 106 134 166 198 236
#     4   9  17  28  42  60  82 107 134 165 201 240
#     4   9  17  28  41  59  84 110 133 162 203 243
#
# _framework density 15.408714
#
# number of rings (size 3 to 8) (size 9 to 14) (size 15 to 20)
#    0.000    3.333    0.000    2.000    0.000    4.667 
#    0.000    0.000    0.000    5.000    0.000    7.000 
#    0.000    0.000    0.000    0.000    0.000    0.000 
#
# Total GULP energy -594997.791749 kJ/mol
# GULP energy per Si atom -12395.787328 kJ/mol
# Density = 1.537364 g / cm^3
# Si number density = 15.408714 Si / 1000 Ang^3
#
#
#
# Elastic Constant Matrix: (Units=GPa)
#
#
# Indices 1 2 3 4 5 6 
#
# 1 30.9473 34.7654 40.1608 0.0000 0.0000 0.0000
# 2 34.7654 125.0706 72.1544 0.0000 0.0000 0.0000
# 3 40.1608 72.1544 135.3982 0.0000 0.0000 0.0000
# 4 0.0000 0.0000 0.0000 27.6522 0.0000 0.0000
# 5 0.0000 0.0000 0.0000 0.0000 23.2553 0.0000
# 6 0.0000 0.0000 0.0000 0.0000 0.0000 15.3394
#
#
#
# Elastic Compliance Matrix: (Units=1/GPa)
#
#
# Indices 1 2 3 4 5 6 
#
# 1 0.058916 -0.009089 -0.012631 0.000000 0.000000 0.000000
# 2 -0.009089 0.012947 -0.004204 0.000000 0.000000 0.000000
# 3 -0.012631 -0.004204 0.013372 0.000000 0.000000 0.000000
# 4 0.000000 0.000000 0.000000 0.036164 0.000000 0.000000
# 5 0.000000 0.000000 0.000000 0.000000 0.043001 0.000000
# 6 0.000000 0.000000 0.000000 0.000000 0.000000 0.065192
#
#
# Mechanical properties :
#
#
# Convention : Reuss Voigt Hill
#
# Bulk Modulus (GPa) = 29.95222 65.06416 47.50819
# Shear Modulus (GPa) = 17.09001 22.87174 19.98087
#
# Velocity S-wave (km/s) = 3.33395 3.85689 3.60491
# Velocity P-wave (km/s) = 5.85670 7.88361 6.94451
#
# Compressibility (1/GPa) = 0.03338650
#
# Stress axis : x y z
#
# Youngs Moduli (GPa) = 16.97342 77.23743 74.78133
#
# Poissons Ratio (x) = 0.70204 0.94459
# Poissons Ratio (y) = 0.15428 0.31435
# Poissons Ratio (z) = 0.21440 0.32467
#
# Static dielectric constant tensor:
#      x y z
#    x 2.652610 0.000000 0.000000 
#    y 0.000000 3.063240 0.000000 
#    z 0.000000 0.000000 3.015150 
# 
# 
# High freq. dielectric constant tensor:
#      x y z
#    x 1.556100 0.000000 0.000000 
#    y 0.000000 1.585780 0.000000 
#    z 0.000000 0.000000 1.584420 
# 
# From -- ./inp_files/31109.got.cif
#   From: 2010.03.12/outbox.cif.g09.slc.cpg/sg64_16_cif.got.tgz:31109.got - 2010.04.10 20:19:32.
