data_PCOD8265414
_publ_section_title
;
Structure prediction by ZEFSAII (Michael W. Deem and Ramdas Pophale) SiO2 
 PCOD8265414
Probable space group: C M M M
;
_chemical_formula_sum "Si O2"
_cell_formula_units_Z 96
_cell_length_a 29.313373
_cell_length_b 15.070983
_cell_length_c 13.961670
_cell_angle_alpha 90.000000
_cell_angle_beta 90.000000
_cell_angle_gamma 90.000000
_cell_volume 6168.005367
_symmetry_space_group_name_H-M "C M M M"
_symmetry_group_IT_number 65
_symmetry_cell_setting 'orthorhombic'
loop_
_space_group_symop_operation_xyz
x,y,z
-x,-y,z
x,-y,-z
-x,y,-z
-x,-y,-z
x,y,-z
-x,y,z
x,-y,z
1/2+x,1/2+y,z
1/2-x,1/2-y,z
1/2+x,1/2-y,-z
1/2-x,1/2+y,-z
1/2-x,1/2-y,-z
1/2+x,1/2+y,-z
1/2-x,1/2+y,z
1/2+x,1/2-y,z
loop_
_atom_site_type_symbol
_atom_site_label
_atom_site_fract_x
_atom_site_fract_y
_atom_site_fract_z
Si Si1 0.000000 0.394818 0.792834
Si Si2 0.644660 0.896412 0.714876
Si Si3 0.500000 0.215358 0.391735
Si Si4 0.901448 0.755847 0.609857
Si Si5 0.833531 0.901325 0.386400
Si Si6 0.266839 0.105010 0.393701
Si Si7 0.090836 0.396084 0.105517
O O1 0.000000 0.364737 0.682966
O O2 0.044729 0.356613 0.847159
O O3 0.000000 0.500000 0.791582
O O4 0.608289 0.839901 0.655508
O O5 0.695583 0.865781 0.684655
O O6 0.635071 0.877255 0.827391
O O7 0.636418 0.000000 0.690430
O O8 0.500000 0.175482 0.500000
O O9 0.544822 0.276785 0.376906
O O10 0.887237 0.748717 0.500000
O O11 0.871576 0.834950 0.657489
O O12 0.838127 0.908520 0.500000
O O13 0.783260 0.861691 0.360605
O O14 0.840720 0.000000 0.342055
O O15 0.279420 0.142902 0.500000
O O16 0.263987 0.000000 0.401214
O O17 0.083456 0.500000 0.094310
O O18 0.098974 0.353651 0.000000
#
# Coordination Sequence:
#
# PCOD8265414 Si02
#       7
#     8  16   8  16  16  16  16
#     4  10  17  29  44  58  80 115 154 183 206 238
#     4  10  18  27  40  61  90 118 141 170 207 249
#     4  10  20  30  38  58  92 117 139 174 207 250
#     4  10  19  29  42  60  85 118 148 175 208 252
#     4   8  15  29  46  62  82 109 144 185 221 248
#     4   8  14  25  41  62  87 112 141 177 209 245
#     4   9  17  28  42  59  80 110 149 188 216 239
#
# _framework density 15.564189000000001
#
# number of rings (size 3 to 8) (size 9 to 14) (size 15 to 20)
#    0.000    2.833    1.667    1.750    0.000    2.833 
#    0.000    4.583    0.000    2.500    0.000    2.333 
#    0.000    2.000    0.000    1.500    0.000    0.167 
#
# Total GULP energy -594729.568351 kJ/mol
# GULP energy per Si atom -12390.199341 kJ/mol
# Density = 1.552876 g / cm^3
# Si number density = 15.564189 Si / 1000 Ang^3
#
#
#
# Elastic Constant Matrix: (Units=GPa)
#
#
# Indices 1 2 3 4 5 6 
#
# 1 132.8069 40.2243 56.1441 0.0000 0.0000 0.0000
# 2 40.2243 39.7413 24.4997 0.0000 0.0000 0.0000
# 3 56.1441 24.4997 86.2020 0.0000 0.0000 0.0000
# 4 0.0000 0.0000 0.0000 6.3695 0.0000 0.0000
# 5 0.0000 0.0000 0.0000 0.0000 10.4440 0.0000
# 6 0.0000 0.0000 0.0000 0.0000 0.0000 18.4526
#
#
#
# Elastic Compliance Matrix: (Units=1/GPa)
#
#
# Indices 1 2 3 4 5 6 
#
# 1 0.012776 -0.009459 -0.005633 0.000000 0.000000 0.000000
# 2 -0.009459 0.037511 -0.004501 0.000000 0.000000 0.000000
# 3 -0.005633 -0.004501 0.016548 0.000000 0.000000 0.000000
# 4 0.000000 0.000000 0.000000 0.156999 0.000000 0.000000
# 5 0.000000 0.000000 0.000000 0.000000 0.095749 0.000000
# 6 0.000000 0.000000 0.000000 0.000000 0.000000 0.054193
#
#
# Mechanical properties :
#
#
# Convention : Reuss Voigt Hill
#
# Bulk Modulus (GPa) = 36.16482 55.60961 45.88721
# Shear Modulus (GPa) = 11.84340 16.24536 14.04438
#
# Velocity S-wave (km/s) = 2.76151 3.23424 3.00718
# Velocity P-wave (km/s) = 5.78396 7.05364 6.45012
#
# Compressibility (1/GPa) = 0.02765118
#
# Stress axis : x y z
#
# Youngs Moduli (GPa) = 78.27329 26.65902 60.42868
#
# Poissons Ratio (x) = 0.25216 0.34038
# Poissons Ratio (y) = 0.74035 0.27197
# Poissons Ratio (z) = 0.44089 0.11998
#
# Static dielectric constant tensor:
#      x y z
#    x 3.344690 0.000000 0.000000 
#    y 0.000000 2.785180 0.000000 
#    z 0.000000 0.000000 2.919510 
# 
# 
# High freq. dielectric constant tensor:
#      x y z
#    x 1.608680 0.000000 0.000000 
#    y 0.000000 1.558930 0.000000 
#    z 0.000000 0.000000 1.559480 
# 
# From -- ./inp_files/46962.got.cif
#   From: 2010.03.12/outbox.cif.g09.slc.cpg/sg65_24_cif.got.tgz:46962.got - 2010.04.10 20:52:16.
