data_PCOD8265955
_publ_section_title
;
Structure prediction by ZEFSAII (Michael W. Deem and Ramdas Pophale) SiO2 
 PCOD8265955
Probable space group: C M M M
;
_chemical_formula_sum "Si O2"
_cell_formula_units_Z 80
_cell_length_a 9.183371
_cell_length_b 28.290939
_cell_length_c 21.075934
_cell_angle_alpha 90.000000
_cell_angle_beta 90.000000
_cell_angle_gamma 90.000000
_cell_volume 5475.658087
_symmetry_space_group_name_H-M "C M M M"
_symmetry_group_IT_number 65
_symmetry_cell_setting 'orthorhombic'
loop_
_space_group_symop_operation_xyz
x,y,z
-x,-y,z
x,-y,-z
-x,y,-z
-x,-y,-z
x,y,-z
-x,y,z
x,-y,z
1/2+x,1/2+y,z
1/2-x,1/2-y,z
1/2+x,1/2-y,-z
1/2-x,1/2+y,-z
1/2-x,1/2-y,-z
1/2+x,1/2+y,-z
1/2-x,1/2+y,z
1/2+x,1/2-y,z
loop_
_atom_site_type_symbol
_atom_site_label
_atom_site_fract_x
_atom_site_fract_y
_atom_site_fract_z
Si Si1 0.663326 0.056480 0.864394
Si Si2 0.327352 0.612376 0.379971
Si Si3 0.328807 0.446392 0.742223
Si Si4 0.327459 0.447425 0.500000
Si Si5 0.829465 0.701769 0.573609
Si Si6 0.326544 0.051980 0.000000
O O1 0.500000 0.074042 0.850387
O O2 0.763181 0.074927 0.807113
O O3 0.719071 0.077255 0.933184
O O4 0.668344 0.000000 0.868897
O O5 0.500000 0.621792 0.383223
O O6 0.279409 0.586364 0.315719
O O7 0.273526 0.579693 0.437689
O O8 0.241747 0.661482 0.383047
O O9 0.500000 0.446032 0.749664
O O10 0.273248 0.500000 0.729850
O O11 0.259476 0.500000 0.500000
O O12 0.500000 0.451008 0.500000
O O13 0.801013 0.689604 0.500000
O O14 0.750000 0.750000 0.592443
O O15 0.000000 0.706417 0.588506
O O16 0.500000 0.047217 0.000000
O O17 0.255226 0.000000 0.000000
#
# Coordination Sequence:
#
# PCOD8265955 Si02
#       6
#    16  16  16   8  16   8
#     4   8  13  22  36  52  71 100 137 173 206 240
#     4  10  18  29  45  62  81 107 139 172 205 242
#     4   9  17  27  38  56  83 112 141 172 204 240
#     4   9  16  26  42  61  78 103 142 177 200 229
#     4  10  20  33  49  66  83 100 125 164 211 258
#     4   7  10  18  33  51  69  93 132 175 206 235
#
# _framework density 14.610115
#
# number of rings (size 3 to 8) (size 9 to 14) (size 15 to 20)
#    0.000    3.000    1.000    2.400    0.000    4.000 
#    0.000    0.500    0.000    5.400    0.000    0.000 
#    0.000    0.000    0.000    0.900    0.000   11.700 
#
# Total GULP energy -495695.560002 kJ/mol
# GULP energy per Si atom -12392.389000 kJ/mol
# Density = 1.457686 g / cm^3
# Si number density = 14.610115 Si / 1000 Ang^3
#
#
#
# Elastic Constant Matrix: (Units=GPa)
#
#
# Indices 1 2 3 4 5 6 
#
# 1 39.3915 33.0833 39.1772 0.0000 0.0000 0.0000
# 2 33.0833 76.7061 51.5457 0.0000 0.0000 0.0000
# 3 39.1772 51.5457 144.1131 0.0000 0.0000 0.0000
# 4 0.0000 0.0000 0.0000 4.2954 0.0000 0.0000
# 5 0.0000 0.0000 0.0000 0.0000 23.9800 0.0000
# 6 0.0000 0.0000 0.0000 0.0000 0.0000 18.1966
#
#
#
# Elastic Compliance Matrix: (Units=1/GPa)
#
#
# Indices 1 2 3 4 5 6 
#
# 1 0.044445 -0.014546 -0.006880 0.000000 0.000000 0.000000
# 2 -0.014546 0.021922 -0.003887 0.000000 0.000000 0.000000
# 3 -0.006880 -0.003887 0.010199 0.000000 0.000000 0.000000
# 4 0.000000 0.000000 0.000000 0.232806 0.000000 0.000000
# 5 0.000000 0.000000 0.000000 0.000000 0.041701 0.000000
# 6 0.000000 0.000000 0.000000 0.000000 0.000000 0.054955
#
#
# Mechanical properties :
#
#
# Convention : Reuss Voigt Hill
#
# Bulk Modulus (GPa) = 38.54764 56.42476 47.48620
# Shear Modulus (GPa) = 10.74571 18.38804 14.56688
#
# Velocity S-wave (km/s) = 2.71495 3.55150 3.16102
# Velocity P-wave (km/s) = 6.02241 7.45129 6.77463
#
# Compressibility (1/GPa) = 0.02594192
#
# Stress axis : x y z
#
# Youngs Moduli (GPa) = 22.49972 45.61557 98.04494
#
# Poissons Ratio (x) = 0.66353 0.67451
# Poissons Ratio (y) = 0.32728 0.38107
# Poissons Ratio (z) = 0.15479 0.17730
#
# Static dielectric constant tensor:
#      x y z
#    x 2.678500 0.000000 0.000000 
#    y 0.000000 2.559470 0.000000 
#    z 0.000000 0.000000 3.116180 
# 
# 
# High freq. dielectric constant tensor:
#      x y z
#    x 1.543820 0.000000 0.000000 
#    y 0.000000 1.512440 0.000000 
#    z 0.000000 0.000000 1.562070 
# 
# From -- ./inp_files/60586.got.cif
#   From: 2010.03.12/outbox.cif.g09.slc.cpg/sg65_31_cif.got.tgz:60586.got - 2010.04.10 20:52:16.
