data_PCOD8265364
_publ_section_title
;
Structure prediction by ZEFSAII (Michael W. Deem and Ramdas Pophale) SiO2 
 PCOD8265364
Probable space group: C M M M
;
_chemical_formula_sum "Si O2"
_cell_formula_units_Z 104
_cell_length_a 13.991603
_cell_length_b 23.627225
_cell_length_c 20.699192
_cell_angle_alpha 90.000000
_cell_angle_beta 90.000000
_cell_angle_gamma 90.000000
_cell_volume 6842.795860
_symmetry_space_group_name_H-M "C M M M"
_symmetry_group_IT_number 65
_symmetry_cell_setting 'orthorhombic'
loop_
_space_group_symop_operation_xyz
x,y,z
-x,-y,z
x,-y,-z
-x,y,-z
-x,-y,-z
x,y,-z
-x,y,z
x,-y,z
1/2+x,1/2+y,z
1/2-x,1/2-y,z
1/2+x,1/2-y,-z
1/2-x,1/2+y,-z
1/2-x,1/2-y,-z
1/2+x,1/2+y,-z
1/2-x,1/2+y,z
1/2+x,1/2-y,z
loop_
_atom_site_type_symbol
_atom_site_label
_atom_site_fract_x
_atom_site_fract_y
_atom_site_fract_z
Si Si1 0.896392 0.384771 0.373823
Si Si2 0.777869 0.567110 0.261770
Si Si3 0.107618 0.432692 0.861565
Si Si4 0.230515 0.814057 0.574252
Si Si5 0.887241 0.561623 0.000000
Si Si6 0.393358 0.605703 0.658205
Si Si7 0.144233 0.000000 0.577127
Si Si8 0.142484 0.500000 0.425994
O O1 0.848594 0.395945 0.305266
O O2 0.830268 0.347139 0.419711
O O3 0.915862 0.444913 0.407171
O O4 0.000000 0.355257 0.365200
O O5 0.792796 0.500000 0.272271
O O6 0.810049 0.584753 0.189522
O O7 0.669462 0.585920 0.279535
O O8 0.103177 0.500000 0.868180
O O9 0.000000 0.411509 0.841738
O O10 0.139366 0.406930 0.932092
O O11 0.195240 0.818135 0.500000
O O12 0.250000 0.750000 0.595455
O O13 0.151563 0.839996 0.622193
O O14 0.836903 0.500000 0.000000
O O15 0.000000 0.553434 0.000000
O O16 0.500000 0.621083 0.682882
O O17 0.403750 0.556043 0.605453
O O18 0.133506 0.000000 0.500000
O O19 0.251945 0.000000 0.605873
O O20 0.164876 0.500000 0.500000
#
# Coordination Sequence:
#
# PCOD8265364 Si02
#       8
#    16  16  16  16   8  16   8   8
#     4  11  20  30  45  64  86 109 134 166 210 263
#     4  10  17  28  40  61  89 116 141 172 209 256
#     4   8  13  20  35  56  84 118 149 177 206 239
#     4  10  22  38  50  61  79 104 140 183 222 265
#     4   7  10  18  30  52  81 113 152 183 199 226
#     4  11  21  33  48  65  84 108 141 182 222 259
#     4  11  19  31  47  64  85 107 134 174 223 266
#     4  11  19  29  43  62  87 109 129 161 211 265
#
# _framework density 15.198466
#
# number of rings (size 3 to 8) (size 9 to 14) (size 15 to 20)
#    0.000    2.077    4.615    2.769    0.000    4.308 
#    0.000    1.538    0.000    0.000    0.000    0.538 
#    0.000    3.077    0.000   11.077    0.000   30.154 
#
# Total GULP energy -644223.011393 kJ/mol
# GULP energy per Si atom -12388.904065 kJ/mol
# Density = 1.516387 g / cm^3
# Si number density = 15.198466 Si / 1000 Ang^3
#
#
#
# Elastic Constant Matrix: (Units=GPa)
#
#
# Indices 1 2 3 4 5 6 
#
# 1 106.1275 12.5161 36.7445 0.0000 0.0000 0.0000
# 2 12.5161 58.4030 20.3242 0.0000 0.0000 0.0000
# 3 36.7445 20.3242 100.2939 0.0000 0.0000 0.0000
# 4 0.0000 0.0000 0.0000 8.4623 0.0000 0.0000
# 5 0.0000 0.0000 0.0000 0.0000 14.4819 0.0000
# 6 0.0000 0.0000 0.0000 0.0000 0.0000 2.6677
#
#
#
# Elastic Compliance Matrix: (Units=1/GPa)
#
#
# Indices 1 2 3 4 5 6 
#
# 1 0.010847 -0.001013 -0.003769 0.000000 0.000000 0.000000
# 2 -0.001013 0.018516 -0.003381 0.000000 0.000000 0.000000
# 3 -0.003769 -0.003381 0.012037 0.000000 0.000000 0.000000
# 4 0.000000 0.000000 0.000000 0.118171 0.000000 0.000000
# 5 0.000000 0.000000 0.000000 0.000000 0.069052 0.000000
# 6 0.000000 0.000000 0.000000 0.000000 0.000000 0.374857
#
#
# Mechanical properties :
#
#
# Convention : Reuss Voigt Hill
#
# Bulk Modulus (GPa) = 39.88194 44.88822 42.38508
# Shear Modulus (GPa) = 7.95972 18.13836 13.04904
#
# Velocity S-wave (km/s) = 2.29097 3.45836 2.93333
# Velocity P-wave (km/s) = 5.77025 6.74876 6.27860
#
# Compressibility (1/GPa) = 0.02507401
#
# Stress axis : x y z
#
# Youngs Moduli (GPa) = 92.19191 54.00703 83.08005
#
# Poissons Ratio (x) = 0.05471 0.31310
# Poissons Ratio (y) = 0.09340 0.28090
# Poissons Ratio (z) = 0.34744 0.18260
#
# Static dielectric constant tensor:
#      x y z
#    x 2.954500 0.000000 0.000000 
#    y 0.000000 2.628800 0.000000 
#    z 0.000000 0.000000 3.101160 
# 
# 
# High freq. dielectric constant tensor:
#      x y z
#    x 1.575910 0.000000 0.000000 
#    y 0.000000 1.538970 0.000000 
#    z 0.000000 0.000000 1.568610 
# 
# From -- ./inp_files/63101.got.cif
#   From: 2010.03.12/outbox.cif.g09.slc.cpg/sg65_32_cif.got.tgz:63101.got - 2010.04.10 20:52:16.
