data_PCOD8265386
_publ_section_title
;
Structure prediction by ZEFSAII (Michael W. Deem and Ramdas Pophale) SiO2 
 PCOD8265386
Probable space group: C M M M
;
_chemical_formula_sum "Si O2"
_cell_formula_units_Z 112
_cell_length_a 14.394830
_cell_length_b 25.182912
_cell_length_c 17.451310
_cell_angle_alpha 90.000000
_cell_angle_beta 90.000000
_cell_angle_gamma 90.000000
_cell_volume 6326.165093
_symmetry_space_group_name_H-M "C M M M"
_symmetry_group_IT_number 65
_symmetry_cell_setting 'orthorhombic'
loop_
_space_group_symop_operation_xyz
x,y,z
-x,-y,z
x,-y,-z
-x,y,-z
-x,-y,-z
x,y,-z
-x,y,z
x,-y,z
1/2+x,1/2+y,z
1/2-x,1/2-y,z
1/2+x,1/2-y,-z
1/2-x,1/2+y,-z
1/2-x,1/2-y,-z
1/2+x,1/2+y,-z
1/2-x,1/2+y,z
1/2+x,1/2-y,z
loop_
_atom_site_type_symbol
_atom_site_label
_atom_site_fract_x
_atom_site_fract_y
_atom_site_fract_z
Si Si1 0.238500 0.638178 0.690695
Si Si2 0.105550 0.260964 0.852203
Si Si3 0.272678 0.334635 0.859689
Si Si4 0.894249 0.161894 0.410356
Si Si5 0.287435 0.940776 0.913943
Si Si6 0.602249 0.060639 0.764225
Si Si7 0.103332 0.270986 0.328030
O O1 0.283850 0.658651 0.768978
O O2 0.322297 0.622510 0.632918
O O3 0.174460 0.587470 0.706799
O O4 0.175867 0.683297 0.650909
O O5 0.170135 0.310278 0.878778
O O6 0.147223 0.206061 0.887233
O O7 0.109816 0.256064 0.760975
O O8 0.000000 0.269238 0.881841
O O9 0.285199 0.392048 0.901252
O O10 0.875289 0.159524 0.500000
O O11 0.871733 0.220443 0.379336
O O12 0.000000 0.145149 0.390999
O O13 0.369803 0.932225 0.853111
O O14 0.242089 0.000000 0.901076
O O15 0.327803 0.937538 0.000000
O O16 0.500000 0.086716 0.755473
O O17 0.599103 0.000000 0.739733
O O18 0.000000 0.291181 0.348078
#
# Coordination Sequence:
#
# PCOD8265386 Si02
#       7
#    16  16  16  16  16  16  16
#     4  10  17  28  47  69  95 129 164 199 240 285
#     4   9  16  28  45  67  96 128 165 207 246 286
#     4   9  17  28  47  72  94 126 172 208 240 290
#     4  10  20  31  44  68 101 131 161 200 243 288
#     4   9  18  32  50  72 101 135 164 196 245 297
#     4   9  18  32  51  76 100 122 156 200 240 285
#     4   9  16  26  42  66  96 128 161 196 236 288
#
# _framework density 17.704248
#
# number of rings (size 3 to 8) (size 9 to 14) (size 15 to 20)
#    0.000    2.714    1.429    0.857    0.000    4.857 
#    0.000    2.857    0.000    3.857    0.000    7.000 
#    0.000    0.000    0.000    0.000    0.000    0.286 
#
# Total GULP energy -693957.491224 kJ/mol
# GULP energy per Si atom -12392.098058 kJ/mol
# Density = 1.766395 g / cm^3
# Si number density = 17.704248 Si / 1000 Ang^3
#
#
#
# Elastic Constant Matrix: (Units=GPa)
#
#
# Indices 1 2 3 4 5 6 
#
# 1 101.1072 39.1562 44.2398 0.0000 0.0000 0.0000
# 2 39.1562 84.1659 31.5283 0.0000 0.0000 0.0000
# 3 44.2398 31.5283 63.8003 0.0000 0.0000 0.0000
# 4 0.0000 0.0000 0.0000 17.4333 0.0000 0.0000
# 5 0.0000 0.0000 0.0000 0.0000 12.1665 0.0000
# 6 0.0000 0.0000 0.0000 0.0000 0.0000 22.6004
#
#
#
# Elastic Compliance Matrix: (Units=1/GPa)
#
#
# Indices 1 2 3 4 5 6 
#
# 1 0.015135 -0.003816 -0.008609 0.000000 0.000000 0.000000
# 2 -0.003816 0.015543 -0.005034 0.000000 0.000000 0.000000
# 3 -0.008609 -0.005034 0.024131 0.000000 0.000000 0.000000
# 4 0.000000 0.000000 0.000000 0.057362 0.000000 0.000000
# 5 0.000000 0.000000 0.000000 0.000000 0.082193 0.000000
# 6 0.000000 0.000000 0.000000 0.000000 0.000000 0.044247
#
#
# Mechanical properties :
#
#
# Convention : Reuss Voigt Hill
#
# Bulk Modulus (GPa) = 50.27739 53.21355 51.74547
# Shear Modulus (GPa) = 17.84690 19.38331 18.61511
#
# Velocity S-wave (km/s) = 3.17844 3.31243 3.24612
# Velocity P-wave (km/s) = 6.47534 6.68967 6.58338
#
# Compressibility (1/GPa) = 0.01988966
#
# Stress axis : x y z
#
# Youngs Moduli (GPa) = 66.07009 64.33892 41.43978
#
# Poissons Ratio (x) = 0.24555 0.35676
# Poissons Ratio (y) = 0.25215 0.20862
# Poissons Ratio (z) = 0.56880 0.32391
#
# Static dielectric constant tensor:
#      x y z
#    x 3.470290 0.000000 0.000000 
#    y 0.000000 3.331910 0.000000 
#    z 0.000000 0.000000 3.042630 
# 
# 
# High freq. dielectric constant tensor:
#      x y z
#    x 1.675060 0.000000 0.000000 
#    y 0.000000 1.672020 0.000000 
#    z 0.000000 0.000000 1.656630 
# 
# From -- ./inp_files/41086.got.cif
#   From: 2010.03.12/outbox.cif.g09.slc.cpg/sg65_21_cif.got.tgz:41086.got - 2010.04.10 20:52:16.
