data_PCOD8265438
_publ_section_title
;
Structure prediction by ZEFSAII (Michael W. Deem and Ramdas Pophale) SiO2 
 PCOD8265438
Probable space group: C M M M
;
_chemical_formula_sum "Si O2"
_cell_formula_units_Z 104
_cell_length_a 9.222685
_cell_length_b 24.082432
_cell_length_c 27.356511
_cell_angle_alpha 90.000000
_cell_angle_beta 90.000000
_cell_angle_gamma 90.000000
_cell_volume 6076.009241
_symmetry_space_group_name_H-M "C M M M"
_symmetry_group_IT_number 65
_symmetry_cell_setting 'orthorhombic'
loop_
_space_group_symop_operation_xyz
x,y,z
-x,-y,z
x,-y,-z
-x,y,-z
-x,-y,-z
x,y,-z
-x,y,z
x,-y,z
1/2+x,1/2+y,z
1/2-x,1/2-y,z
1/2+x,1/2-y,-z
1/2-x,1/2+y,-z
1/2-x,1/2-y,-z
1/2+x,1/2+y,-z
1/2-x,1/2+y,z
1/2+x,1/2-y,z
loop_
_atom_site_type_symbol
_atom_site_label
_atom_site_fract_x
_atom_site_fract_y
_atom_site_fract_z
Si Si1 0.761001 0.500000 0.445969
Si Si2 0.164035 0.121085 0.552579
Si Si3 0.663661 0.566128 0.093724
Si Si4 0.333933 0.063626 0.812227
Si Si5 0.325756 0.308700 0.357037
Si Si6 0.669844 0.890500 0.292341
Si Si7 0.664077 0.066258 0.000000
Si Si8 0.342263 0.000000 0.341072
O O1 0.838396 0.500000 0.500000
O O2 0.663886 0.445233 0.439782
O O3 0.868390 0.500000 0.399735
O O4 0.239821 0.135594 0.500000
O O5 0.234842 0.154640 0.597254
O O6 0.000000 0.141113 0.550082
O O7 0.500000 0.588885 0.090704
O O8 0.666248 0.500000 0.092595
O O9 0.735797 0.587194 0.143935
O O10 0.753646 0.589519 0.047749
O O11 0.500000 0.067611 0.829375
O O12 0.304469 0.101350 0.765113
O O13 0.294316 0.000000 0.799191
O O14 0.500000 0.303687 0.354525
O O15 0.250000 0.250000 0.362624
O O16 0.265316 0.337712 0.308113
O O17 0.500000 0.880466 0.304416
O O18 0.734276 0.943941 0.321914
O O19 0.500000 0.088947 0.000000
O O20 0.664890 0.000000 0.000000
O O21 0.500000 0.000000 0.315305
#
# Coordination Sequence:
#
# PCOD8265438 Si02
#       8
#     8  16  16  16  16  16   8   8
#     4  10  17  29  50  75 103 126 153 190 240 294
#     4   9  18  32  51  74  99 125 153 189 237 291
#     4   9  16  24  35  54  84 119 157 201 244 280
#     4   9  16  27  44  65  90 122 158 193 236 289
#     4  11  23  38  55  73  94 123 162 203 243 290
#     4  10  19  34  53  73  98 128 159 197 244 293
#     4   9  15  23  35  51  75 115 166 207 238 279
#     4  10  18  30  49  72 100 128 156 191 240 295
#
# _framework density 17.116498
#
# number of rings (size 3 to 8) (size 9 to 14) (size 15 to 20)
#    0.000    2.385    2.308    1.385    0.000    4.769 
#    0.000    0.385    0.000    1.385    0.000    0.000 
#    0.000    0.000    0.000    0.692    0.000    9.308 
#
# Total GULP energy -644413.844492 kJ/mol
# GULP energy per Si atom -12392.573933 kJ/mol
# Density = 1.707754 g / cm^3
# Si number density = 17.116498 Si / 1000 Ang^3
#
#
#
# Elastic Constant Matrix: (Units=GPa)
#
#
# Indices 1 2 3 4 5 6 
#
# 1 91.0499 31.5811 58.9873 0.0000 0.0000 0.0000
# 2 31.5811 78.8288 43.0943 0.0000 0.0000 0.0000
# 3 58.9873 43.0943 135.7549 0.0000 0.0000 0.0000
# 4 0.0000 0.0000 0.0000 8.2554 0.0000 0.0000
# 5 0.0000 0.0000 0.0000 0.0000 26.4580 0.0000
# 6 0.0000 0.0000 0.0000 0.0000 0.0000 15.0073
#
#
#
# Elastic Compliance Matrix: (Units=1/GPa)
#
#
# Indices 1 2 3 4 5 6 
#
# 1 0.015903 -0.003138 -0.005914 0.000000 0.000000 0.000000
# 2 -0.003138 0.015969 -0.003706 0.000000 0.000000 0.000000
# 3 -0.005914 -0.003706 0.011112 0.000000 0.000000 0.000000
# 4 0.000000 0.000000 0.000000 0.121133 0.000000 0.000000
# 5 0.000000 0.000000 0.000000 0.000000 0.037796 0.000000
# 6 0.000000 0.000000 0.000000 0.000000 0.000000 0.066634
#
#
# Mechanical properties :
#
#
# Convention : Reuss Voigt Hill
#
# Bulk Modulus (GPa) = 57.24552 63.66210 60.45381
# Shear Modulus (GPa) = 16.67310 21.40887 19.04098
#
# Velocity S-wave (km/s) = 3.12444 3.54047 3.33894
# Velocity P-wave (km/s) = 6.82154 7.34761 7.08945
#
# Compressibility (1/GPa) = 0.01746862
#
# Stress axis : x y z
#
# Youngs Moduli (GPa) = 62.88224 62.62242 89.99168
#
# Poissons Ratio (x) = 0.19652 0.53219
# Poissons Ratio (y) = 0.19733 0.33347
# Poissons Ratio (z) = 0.37187 0.23205
#
# Static dielectric constant tensor:
#      x y z
#    x 3.059460 0.000000 0.000000 
#    y 0.000000 2.795880 0.000000 
#    z 0.000000 0.000000 3.372630 
# 
# 
# High freq. dielectric constant tensor:
#      x y z
#    x 1.647320 0.000000 0.000000 
#    y 0.000000 1.605680 0.000000 
#    z 0.000000 0.000000 1.672260 
# 
# From -- ./inp_files/73609.got.cif
#   From: 2010.03.12/outbox.cif.g09.slc.cpg/sg65_37_cif.got.tgz:73609.got - 2010.04.10 20:52:16.
