data_PCOD8265838
_publ_section_title
;
Structure prediction by ZEFSAII (Michael W. Deem and Ramdas Pophale) SiO2 
 PCOD8265838
Probable space group: C M M M
;
_chemical_formula_sum "Si O2"
_cell_formula_units_Z 80
_cell_length_a 8.727391
_cell_length_b 18.534802
_cell_length_c 26.241951
_cell_angle_alpha 90.000000
_cell_angle_beta 90.000000
_cell_angle_gamma 90.000000
_cell_volume 4244.910174
_symmetry_space_group_name_H-M "C M M M"
_symmetry_group_IT_number 65
_symmetry_cell_setting 'orthorhombic'
loop_
_space_group_symop_operation_xyz
x,y,z
-x,-y,z
x,-y,-z
-x,y,-z
-x,-y,-z
x,y,-z
-x,y,z
x,-y,z
1/2+x,1/2+y,z
1/2-x,1/2-y,z
1/2+x,1/2-y,-z
1/2-x,1/2+y,-z
1/2-x,1/2-y,-z
1/2+x,1/2+y,-z
1/2-x,1/2+y,z
1/2+x,1/2-y,z
loop_
_atom_site_type_symbol
_atom_site_label
_atom_site_fract_x
_atom_site_fract_y
_atom_site_fract_z
Si Si1 0.317864 0.418999 0.252682
Si Si2 0.320692 0.828712 0.055171
Si Si3 0.182200 0.171414 0.349198
Si Si4 0.181471 0.170441 0.156080
Si Si5 0.682081 0.580818 0.556434
O O1 0.500000 0.421541 0.252828
O O2 0.250579 0.500000 0.253469
O O3 0.258169 0.376780 0.302287
O O4 0.257800 0.378496 0.202320
O O5 0.500000 0.822689 0.066503
O O6 0.250000 0.750000 0.051842
O O7 0.239290 0.867527 0.103269
O O8 0.291755 0.867706 0.000000
O O9 0.250000 0.250000 0.343118
O O10 0.246616 0.135654 0.401262
O O11 0.000000 0.176295 0.349582
O O12 0.250000 0.250000 0.162418
O O13 0.000000 0.175768 0.155774
O O14 0.736207 0.605995 0.500000
O O15 0.500000 0.579531 0.559086
O O16 0.743497 0.500000 0.567595
#
# Coordination Sequence:
#
# PCOD8265838 Si02
#       5
#    16  16  16  16  16
#     4   9  18  32  49  68  89 118 158 196 229 270
#     4   9  16  26  42  65  93 122 151 184 222 267
#     4  10  19  31  49  71  96 124 153 192 238 279
#     4  10  18  28  46  69  93 119 148 188 231 272
#     4   8  14  26  46  71  95 122 161 201 230 264
#
# _framework density 18.8461
#
# number of rings (size 3 to 8) (size 9 to 14) (size 15 to 20)
#    0.000    2.800    0.000    4.200    0.000    4.000 
#    0.000    1.000    0.000    7.800    0.000    5.600 
#    0.000    0.000    0.000    0.000    0.000    0.000 
#
# Total GULP energy -495691.876132 kJ/mol
# GULP energy per Si atom -12392.296903 kJ/mol
# Density = 1.880321 g / cm^3
# Si number density = 18.846100 Si / 1000 Ang^3
#
#
#
# Elastic Constant Matrix: (Units=GPa)
#
#
# Indices 1 2 3 4 5 6 
#
# 1 42.5291 20.2451 32.8700 0.0000 0.0000 0.0000
# 2 20.2451 118.9408 92.1238 0.0000 0.0000 0.0000
# 3 32.8700 92.1238 210.9403 0.0000 0.0000 0.0000
# 4 0.0000 0.0000 0.0000 19.9246 0.0000 0.0000
# 5 0.0000 0.0000 0.0000 0.0000 17.2433 0.0000
# 6 0.0000 0.0000 0.0000 0.0000 0.0000 18.4123
#
#
#
# Elastic Compliance Matrix: (Units=1/GPa)
#
#
# Indices 1 2 3 4 5 6 
#
# 1 0.027052 -0.002024 -0.003331 0.000000 0.000000 0.000000
# 2 -0.002024 0.012857 -0.005299 0.000000 0.000000 0.000000
# 3 -0.003331 -0.005299 0.007574 0.000000 0.000000 0.000000
# 4 0.000000 0.000000 0.000000 0.050189 0.000000 0.000000
# 5 0.000000 0.000000 0.000000 0.000000 0.057993 0.000000
# 6 0.000000 0.000000 0.000000 0.000000 0.000000 0.054312
#
#
# Mechanical properties :
#
#
# Convention : Reuss Voigt Hill
#
# Bulk Modulus (GPa) = 38.20812 73.65425 55.93119
# Shear Modulus (GPa) = 20.83237 26.26079 23.54658
#
# Velocity S-wave (km/s) = 3.32835 3.73692 3.53854
# Velocity P-wave (km/s) = 5.92354 7.60173 6.81449
#
# Compressibility (1/GPa) = 0.02617244
#
# Stress axis : x y z
#
# Youngs Moduli (GPa) = 36.96637 77.78028 132.02688
#
# Poissons Ratio (x) = 0.15745 0.43982
# Poissons Ratio (y) = 0.07483 0.69967
# Poissons Ratio (z) = 0.12315 0.41219
#
# Static dielectric constant tensor:
#      x y z
#    x 3.087070 0.000000 0.000000 
#    y 0.000000 3.298570 0.000000 
#    z 0.000000 0.000000 4.343970 
# 
# 
# High freq. dielectric constant tensor:
#      x y z
#    x 1.693810 0.000000 0.000000 
#    y 0.000000 1.700630 0.000000 
#    z 0.000000 0.000000 1.762300 
# 
# From -- ./inp_files/72854.got.cif
#   From: 2010.03.12/outbox.cif.g09.slc.cpg/sg65_37_cif.got.tgz:72854.got - 2010.04.10 20:52:16.
