data_PCOD8265928
_publ_section_title
;
Structure prediction by ZEFSAII (Michael W. Deem and Ramdas Pophale) SiO2 
 PCOD8265928
Probable space group: C M M M
;
_chemical_formula_sum "Si O2"
_cell_formula_units_Z 104
_cell_length_a 26.566488
_cell_length_b 9.456290
_cell_length_c 24.874370
_cell_angle_alpha 90.000000
_cell_angle_beta 90.000000
_cell_angle_gamma 90.000000
_cell_volume 6248.949550
_symmetry_space_group_name_H-M "C M M M"
_symmetry_group_IT_number 65
_symmetry_cell_setting 'orthorhombic'
loop_
_space_group_symop_operation_xyz
x,y,z
-x,-y,z
x,-y,-z
-x,y,-z
-x,-y,-z
x,y,-z
-x,y,z
x,-y,z
1/2+x,1/2+y,z
1/2-x,1/2-y,z
1/2+x,1/2-y,-z
1/2-x,1/2+y,-z
1/2-x,1/2-y,-z
1/2+x,1/2+y,-z
1/2-x,1/2+y,z
1/2+x,1/2-y,z
loop_
_atom_site_type_symbol
_atom_site_label
_atom_site_fract_x
_atom_site_fract_y
_atom_site_fract_z
Si Si1 0.357213 0.336235 0.758955
Si Si2 0.811260 0.500000 0.060276
Si Si3 0.108613 0.333986 0.597387
Si Si4 0.198097 0.167362 0.647914
Si Si5 0.309564 0.250870 0.132594
Si Si6 0.057823 0.339768 0.710179
Si Si7 0.059783 0.834086 0.500000
Si Si8 0.808300 0.000000 0.940374
O O1 0.364637 0.500000 0.773150
O O2 0.319639 0.316347 0.709194
O O3 0.334275 0.253081 0.809102
O O4 0.411057 0.268319 0.746575
O O5 0.830475 0.625461 0.096893
O O6 0.751523 0.500000 0.054058
O O7 0.834920 0.500000 0.000000
O O8 0.119132 0.500000 0.582796
O O9 0.160168 0.249390 0.608463
O O10 0.072101 0.323841 0.648126
O O11 0.080803 0.249551 0.550853
O O12 0.250000 0.250000 0.641299
O O13 0.202569 0.000000 0.632674
O O14 0.250000 0.250000 0.141728
O O15 0.328545 0.373356 0.094506
O O16 0.068533 0.500000 0.729349
O O17 0.000000 0.298318 0.717186
O O18 0.000000 0.823397 0.500000
O O19 0.076457 0.000000 0.500000
O O20 0.832214 0.000000 0.000000
#
# Coordination Sequence:
#
# PCOD8265928 Si02
#       8
#    16   8  16  16  16  16   8   8
#     4  10  20  32  47  72 101 131 168 207 247 297
#     4   9  18  28  42  64  91 129 171 204 240 289
#     4  10  20  36  57  81 106 137 173 211 253 302
#     4  10  20  35  53  75 106 141 177 212 251 299
#     4  10  18  29  43  66  97 131 167 203 244 288
#     4   9  19  35  54  75 100 129 162 202 252 302
#     4  11  23  37  56  83 112 139 171 213 261 307
#     4   9  16  28  44  60  91 133 167 200 240 289
#
# _framework density 16.642797000000002
#
# number of rings (size 3 to 8) (size 9 to 14) (size 15 to 20)
#    0.000    2.231    0.769    2.538    1.077    4.615 
#    0.000    0.385    0.000    0.000    0.000    0.000 
#    0.000    3.692    0.000    0.000    0.000    0.000 
#
# Total GULP energy -644429.285593 kJ/mol
# GULP energy per Si atom -12392.870877 kJ/mol
# Density = 1.660492 g / cm^3
# Si number density = 16.642797 Si / 1000 Ang^3
#
#
#
# Elastic Constant Matrix: (Units=GPa)
#
#
# Indices 1 2 3 4 5 6 
#
# 1 87.3282 52.6755 44.0067 0.0000 0.0000 0.0000
# 2 52.6755 144.6034 61.1276 0.0000 0.0000 0.0000
# 3 44.0067 61.1276 101.6103 0.0000 0.0000 0.0000
# 4 0.0000 0.0000 0.0000 37.3342 0.0000 0.0000
# 5 0.0000 0.0000 0.0000 0.0000 17.0200 0.0000
# 6 0.0000 0.0000 0.0000 0.0000 0.0000 28.4058
#
#
#
# Elastic Compliance Matrix: (Units=1/GPa)
#
#
# Indices 1 2 3 4 5 6 
#
# 1 0.016154 -0.003925 -0.004635 0.000000 0.000000 0.000000
# 2 -0.003925 0.010228 -0.004453 0.000000 0.000000 0.000000
# 3 -0.004635 -0.004453 0.014528 0.000000 0.000000 0.000000
# 4 0.000000 0.000000 0.000000 0.026785 0.000000 0.000000
# 5 0.000000 0.000000 0.000000 0.000000 0.058754 0.000000
# 6 0.000000 0.000000 0.000000 0.000000 0.000000 0.035204
#
#
# Mechanical properties :
#
#
# Convention : Reuss Voigt Hill
#
# Bulk Modulus (GPa) = 67.18819 72.12904 69.65862
# Shear Modulus (GPa) = 25.95506 28.26749 27.11128
#
# Velocity S-wave (km/s) = 3.95338 4.12574 4.04048
# Velocity P-wave (km/s) = 7.82926 8.13198 7.98206
#
# Compressibility (1/GPa) = 0.01488357
#
# Stress axis : x y z
#
# Youngs Moduli (GPa) = 61.90252 97.77366 68.83432
#
# Poissons Ratio (x) = 0.38380 0.31904
# Poissons Ratio (y) = 0.24299 0.30651
# Poissons Ratio (z) = 0.28691 0.43537
#
# Static dielectric constant tensor:
#      x y z
#    x 2.875930 0.000000 0.000000 
#    y 0.000000 4.488450 0.000000 
#    z 0.000000 0.000000 3.144530 
# 
# 
# High freq. dielectric constant tensor:
#      x y z
#    x 1.608900 0.000000 0.000000 
#    y 0.000000 1.662990 0.000000 
#    z 0.000000 0.000000 1.641710 
# 
# From -- ./inp_files/71890.got.cif
#   From: 2010.03.12/outbox.cif.g09.slc.cpg/sg65_36_cif.got.tgz:71890.got - 2010.04.10 20:52:16.
