data_PCOD8265016
_publ_section_title
;
Structure prediction by ZEFSAII (Michael W. Deem and Ramdas Pophale) SiO2 
 PCOD8265016
Probable space group: C M C A
;
_chemical_formula_sum "Si O2"
_cell_formula_units_Z 64
_cell_length_a 9.761326
_cell_length_b 25.239502
_cell_length_c 12.206043
_cell_angle_alpha 90.000000
_cell_angle_beta 90.000000
_cell_angle_gamma 90.000000
_cell_volume 3007.215107
_symmetry_space_group_name_H-M "C M C A"
_symmetry_group_IT_number 64
_symmetry_cell_setting 'orthorhombic'
loop_
_space_group_symop_operation_xyz
x,y,z
-x,1/2-y,1/2+z
x,-y,-z
-x,1/2+y,1/2-z
-x,-y,-z
x,1/2+y,1/2-z
-x,y,z
x,1/2-y,1/2+z
1/2+x,1/2+y,z
1/2-x,-y,1/2+z
1/2+x,1/2-y,-z
1/2-x,y,1/2-z
1/2-x,1/2-y,-z
1/2+x,y,1/2-z
1/2-x,1/2+y,z
1/2+x,-y,1/2+z
loop_
_atom_site_type_symbol
_atom_site_label
_atom_site_fract_x
_atom_site_fract_y
_atom_site_fract_z
Si Si1 0.500000 0.475871 0.879582
Si Si2 0.250000 0.351724 0.250000
Si Si3 0.267550 0.608236 0.127881
Si Si4 0.000000 0.077766 0.734175
Si Si5 0.000000 0.062596 0.483929
Si Si6 0.337546 0.200097 0.536774
O O1 0.365877 0.441719 0.864096
O O2 0.500000 0.518765 0.782005
O O3 0.500000 0.500000 0.000000
O O4 0.372241 0.390813 0.220908
O O5 0.249398 0.314791 0.144001
O O6 0.250000 0.631953 0.250000
O O7 0.128436 0.584973 0.080627
O O8 0.330838 0.653988 0.053257
O O9 0.000000 0.085028 0.604941
O O10 0.000000 0.000000 0.500000
O O11 0.500000 0.212989 0.559146
O O12 0.250000 0.250000 0.500000
#
# Coordination Sequence:
#
# PCOD8265016 Si02
#       6
#     8   8  16   8   8  16
#     4  12  26  44  72 106 149 205 243 296 377 443
#     4  12  26  52  74 112 146 186 254 310 368 456
#     4  12  26  48  69 107 152 190 248 306 367 447
#     4  12  26  44  76 105 150 194 244 307 368 451
#     4  12  26  42  70 109 145 195 247 296 365 446
#     4  12  29  51  79 108 145 198 251 318 385 440
#
# _framework density 21.282149
#
# number of rings (size 3 to 8) (size 9 to 14) (size 15 to 20)
#    0.000    0.000    5.000    4.500   10.500    0.000 
#    0.000    0.000    0.000    0.000    0.000    0.000 
#    0.000    0.000    0.000    0.000    0.000    0.000 
#
# Total GULP energy -396731.807820 kJ/mol
# GULP energy per Si atom -12397.868994 kJ/mol
# Density = 2.123371 g / cm^3
# Si number density = 21.282149 Si / 1000 Ang^3
#
#
#
# Elastic Constant Matrix: (Units=GPa)
#
#
# Indices 1 2 3 4 5 6 
#
# 1 147.2420 58.6018 25.2266 0.0000 0.0000 0.0000
# 2 58.6018 131.7879 48.7159 0.0000 0.0000 0.0000
# 3 25.2266 48.7159 159.0943 0.0000 0.0000 0.0000
# 4 0.0000 0.0000 0.0000 46.9240 0.0000 0.0000
# 5 0.0000 0.0000 0.0000 0.0000 24.1924 0.0000
# 6 0.0000 0.0000 0.0000 0.0000 0.0000 68.0498
#
#
#
# Elastic Compliance Matrix: (Units=1/GPa)
#
#
# Indices 1 2 3 4 5 6 
#
# 1 0.008258 -0.003595 -0.000209 0.000000 0.000000 0.000000
# 2 -0.003595 0.010121 -0.002529 0.000000 0.000000 0.000000
# 3 -0.000209 -0.002529 0.007093 0.000000 0.000000 0.000000
# 4 0.000000 0.000000 0.000000 0.021311 0.000000 0.000000
# 5 0.000000 0.000000 0.000000 0.000000 0.041335 0.000000
# 6 0.000000 0.000000 0.000000 0.000000 0.000000 0.014695
#
#
# Mechanical properties :
#
#
# Convention : Reuss Voigt Hill
#
# Bulk Modulus (GPa) = 78.08233 78.13475 78.10854
# Shear Modulus (GPa) = 41.75404 48.20522 44.97963
#
# Velocity S-wave (km/s) = 4.43417 4.76442 4.60226
# Velocity P-wave (km/s) = 7.93628 8.18900 8.06363
#
# Compressibility (1/GPa) = 0.01280699
#
# Stress axis : x y z
#
# Youngs Moduli (GPa) = 121.09360 98.79988 140.98140
#
# Poissons Ratio (x) = 0.35518 0.02941
# Poissons Ratio (y) = 0.43533 0.35658
# Poissons Ratio (z) = 0.02526 0.24989
#
# Static dielectric constant tensor:
#      x y z
#    x 4.053120 0.000000 0.000000 
#    y 0.000000 3.921780 0.000000 
#    z 0.000000 0.000000 4.212950 
# 
# 
# High freq. dielectric constant tensor:
#      x y z
#    x 1.853520 0.000000 0.000000 
#    y 0.000000 1.839450 0.000000 
#    z 0.000000 0.000000 1.859140 
# 
# From -- ./inp_files/12979.got.cif
#   From: 2010.03.12/outbox.cif.g09.slc.cpg/sg64_7_cif.got.tgz:12979.got - 2010.04.10 20:19:32.
