data_PCOD8265810
_publ_section_title
;
Structure prediction by ZEFSAII (Michael W. Deem and Ramdas Pophale) SiO2 
 PCOD8265810
Probable space group: C M M M
;
_chemical_formula_sum "Si O2"
_cell_formula_units_Z 96
_cell_length_a 14.553302
_cell_length_b 27.938405
_cell_length_c 14.325834
_cell_angle_alpha 90.000000
_cell_angle_beta 90.000000
_cell_angle_gamma 90.000000
_cell_volume 5824.827451
_symmetry_space_group_name_H-M "C M M M"
_symmetry_group_IT_number 65
_symmetry_cell_setting 'orthorhombic'
loop_
_space_group_symop_operation_xyz
x,y,z
-x,-y,z
x,-y,-z
-x,y,-z
-x,-y,-z
x,y,-z
-x,y,z
x,-y,z
1/2+x,1/2+y,z
1/2-x,1/2-y,z
1/2+x,1/2-y,-z
1/2-x,1/2+y,-z
1/2-x,1/2-y,-z
1/2+x,1/2+y,-z
1/2-x,1/2+y,z
1/2+x,1/2-y,z
loop_
_atom_site_type_symbol
_atom_site_label
_atom_site_fract_x
_atom_site_fract_y
_atom_site_fract_z
Si Si1 0.794290 0.139863 0.390095
Si Si2 0.891786 0.802387 0.896833
Si Si3 0.846999 0.231850 0.296170
Si Si4 0.107134 0.054275 0.296648
Si Si5 0.099223 0.678800 0.392922
Si Si6 0.391275 0.409826 0.100665
O O1 0.806729 0.144966 0.500000
O O2 0.860748 0.178868 0.339755
O O3 0.828562 0.087624 0.359582
O O4 0.686548 0.146678 0.359667
O O5 0.849573 0.769229 0.816417
O O6 0.852660 0.856113 0.885470
O O7 0.000000 0.802773 0.882054
O O8 0.866232 0.782216 0.000000
O O9 0.750000 0.250000 0.332937
O O10 0.915529 0.271862 0.335239
O O11 0.139143 0.057939 0.188125
O O12 0.000000 0.068956 0.307578
O O13 0.122678 0.000000 0.329999
O O14 0.115714 0.693033 0.500000
O O15 0.000000 0.651506 0.381106
O O16 0.500000 0.407398 0.095594
O O17 0.355093 0.430199 0.000000
#
# Coordination Sequence:
#
# PCOD8265810 Si02
#       6
#    16  16  16  16  16  16
#     4  10  20  33  47  65  93 124 152 186 229 273
#     4   9  16  26  41  60  86 121 154 181 214 260
#     4  10  18  28  45  68  92 117 149 185 226 270
#     4  10  20  32  47  69  95 122 152 183 221 274
#     4   9  18  32  50  70  89 114 153 198 235 265
#     4   8  14  26  44  64  87 117 151 184 217 257
#
# _framework density 16.481173999999999
#
# number of rings (size 3 to 8) (size 9 to 14) (size 15 to 20)
#    0.000    2.667    1.667    2.000    0.000    4.000 
#    0.000    2.500    0.000    0.500    0.000    2.333 
#    0.000    0.000    0.000    1.500    0.000    0.167 
#
# Total GULP energy -594652.379134 kJ/mol
# GULP energy per Si atom -12388.591232 kJ/mol
# Density = 1.644366 g / cm^3
# Si number density = 16.481174 Si / 1000 Ang^3
#
#
#
# Elastic Constant Matrix: (Units=GPa)
#
#
# Indices 1 2 3 4 5 6 
#
# 1 62.5351 32.8651 26.9725 0.0000 0.0000 0.0000
# 2 32.8651 73.2565 35.0963 0.0000 0.0000 0.0000
# 3 26.9725 35.0963 92.3131 0.0000 0.0000 0.0000
# 4 0.0000 0.0000 0.0000 21.6402 0.0000 0.0000
# 5 0.0000 0.0000 0.0000 0.0000 18.4996 0.0000
# 6 0.0000 0.0000 0.0000 0.0000 0.0000 16.6936
#
#
#
# Elastic Compliance Matrix: (Units=1/GPa)
#
#
# Indices 1 2 3 4 5 6 
#
# 1 0.021682 -0.008182 -0.003224 0.000000 0.000000 0.000000
# 2 -0.008182 0.019779 -0.005129 0.000000 0.000000 0.000000
# 3 -0.003224 -0.005129 0.013725 0.000000 0.000000 0.000000
# 4 0.000000 0.000000 0.000000 0.046210 0.000000 0.000000
# 5 0.000000 0.000000 0.000000 0.000000 0.054055 0.000000
# 6 0.000000 0.000000 0.000000 0.000000 0.000000 0.059903
#
#
# Mechanical properties :
#
#
# Convention : Reuss Voigt Hill
#
# Bulk Modulus (GPa) = 45.21971 46.44137 45.83054
# Shear Modulus (GPa) = 19.54679 20.24476 19.89578
#
# Velocity S-wave (km/s) = 3.44758 3.50859 3.47822
# Velocity P-wave (km/s) = 6.58365 6.68231 6.63317
#
# Compressibility (1/GPa) = 0.02211425
#
# Stress axis : x y z
#
# Youngs Moduli (GPa) = 46.12125 50.55930 72.86133
#
# Poissons Ratio (x) = 0.41370 0.23492
# Poissons Ratio (y) = 0.37739 0.37369
# Poissons Ratio (z) = 0.14871 0.25931
#
# Static dielectric constant tensor:
#      x y z
#    x 2.900040 0.000000 0.000000 
#    y 0.000000 2.910810 0.000000 
#    z 0.000000 0.000000 3.333810 
# 
# 
# High freq. dielectric constant tensor:
#      x y z
#    x 1.601040 0.000000 0.000000 
#    y 0.000000 1.604940 0.000000 
#    z 0.000000 0.000000 1.647060 
# 
# From -- ./inp_files/41242.got.cif
#   From: 2010.03.12/outbox.cif.g09.slc.cpg/sg65_21_cif.got.tgz:41242.got - 2010.04.10 20:52:16.
