data_PCOD8265959
_publ_section_title
;
Structure prediction by ZEFSAII (Michael W. Deem and Ramdas Pophale) SiO2 
 PCOD8265959
Probable space group: C M M M
;
_chemical_formula_sum "Si O2"
_cell_formula_units_Z 64
_cell_length_a 35.960754
_cell_length_b 8.895854
_cell_length_c 12.846566
_cell_angle_alpha 90.000000
_cell_angle_beta 90.000000
_cell_angle_gamma 90.000000
_cell_volume 4109.637240
_symmetry_space_group_name_H-M "C M M M"
_symmetry_group_IT_number 65
_symmetry_cell_setting 'orthorhombic'
loop_
_space_group_symop_operation_xyz
x,y,z
-x,-y,z
x,-y,-z
-x,y,-z
-x,-y,-z
x,y,-z
-x,y,z
x,-y,z
1/2+x,1/2+y,z
1/2-x,1/2-y,z
1/2+x,1/2-y,-z
1/2-x,1/2+y,-z
1/2-x,1/2-y,-z
1/2+x,1/2+y,-z
1/2-x,1/2+y,z
1/2+x,1/2-y,z
loop_
_atom_site_type_symbol
_atom_site_label
_atom_site_fract_x
_atom_site_fract_y
_atom_site_fract_z
Si Si1 0.071878 0.334004 0.123551
Si Si2 0.290952 0.319276 0.500000
Si Si3 0.846996 0.678836 0.884350
Si Si4 0.209599 0.320082 0.707900
Si Si5 0.000000 0.832987 0.875672
O O1 0.068842 0.500000 0.172125
O O2 0.112165 0.260750 0.151244
O O3 0.037448 0.241142 0.170256
O O4 0.068530 0.342656 0.000000
O O5 0.290784 0.500000 0.500000
O O6 0.250000 0.250000 0.500000
O O7 0.309623 0.252826 0.604831
O O8 0.849594 0.500000 0.887838
O O9 0.815680 0.732298 0.804288
O O10 0.836772 0.739711 0.000000
O O11 0.212395 0.500000 0.696631
O O12 0.250000 0.250000 0.727675
O O13 0.000000 0.000000 0.832926
O O14 0.000000 0.825574 0.000000
#
# Coordination Sequence:
#
# PCOD8265959 Si02
#       5
#    16   8  16  16   8
#     4   8  13  23  38  53  71 101 138 167 192 229
#     4  10  18  30  46  62  80 101 132 173 214 250
#     4   8  15  27  42  60  83 111 141 171 201 237
#     4  10  18  29  45  63  83 107 137 172 209 246
#     4   9  15  21  31  51  77 102 129 164 203 235
#
# _framework density 15.57315
#
# number of rings (size 3 to 8) (size 9 to 14) (size 15 to 20)
#    0.000    3.125    0.000    5.250    0.000    2.000 
#    0.000    2.500    0.000    5.250    0.000    0.000 
#    0.000    1.000    0.000   11.500    0.000    7.500 
#
# Total GULP energy -396437.515347 kJ/mol
# GULP energy per Si atom -12388.672355 kJ/mol
# Density = 1.553770 g / cm^3
# Si number density = 15.573150 Si / 1000 Ang^3
#
#
#
# Elastic Constant Matrix: (Units=GPa)
#
#
# Indices 1 2 3 4 5 6 
#
# 1 116.6841 42.0806 62.1929 0.0000 0.0000 0.0000
# 2 42.0806 81.0192 32.8561 0.0000 0.0000 0.0000
# 3 62.1929 32.8561 87.0416 0.0000 0.0000 0.0000
# 4 0.0000 0.0000 0.0000 14.3986 0.0000 0.0000
# 5 0.0000 0.0000 0.0000 0.0000 1.3623 0.0000
# 6 0.0000 0.0000 0.0000 0.0000 0.0000 15.8639
#
#
#
# Elastic Compliance Matrix: (Units=1/GPa)
#
#
# Indices 1 2 3 4 5 6 
#
# 1 0.014881 -0.004035 -0.009109 0.000000 0.000000 0.000000
# 2 -0.004035 0.015668 -0.003031 0.000000 0.000000 0.000000
# 3 -0.009109 -0.003031 0.019142 0.000000 0.000000 0.000000
# 4 0.000000 0.000000 0.000000 0.069451 0.000000 0.000000
# 5 0.000000 0.000000 0.000000 0.000000 0.734046 0.000000
# 6 0.000000 0.000000 0.000000 0.000000 0.000000 0.063036
#
#
# Mechanical properties :
#
#
# Convention : Reuss Voigt Hill
#
# Bulk Modulus (GPa) = 57.67269 62.11157 59.89213
# Shear Modulus (GPa) = 5.23915 16.16599 10.70257
#
# Velocity S-wave (km/s) = 1.83617 3.22540 2.62438
# Velocity P-wave (km/s) = 6.45052 7.33766 6.90834
#
# Compressibility (1/GPa) = 0.01733923
#
# Stress axis : x y z
#
# Youngs Moduli (GPa) = 67.20180 63.82596 52.24144
#
# Poissons Ratio (x) = 0.25751 0.47589
# Poissons Ratio (y) = 0.27113 0.15836
# Poissons Ratio (z) = 0.61217 0.19348
#
# Static dielectric constant tensor:
#      x y z
#    x 3.143700 0.000000 0.000000 
#    y 0.000000 2.939230 0.000000 
#    z 0.000000 0.000000 3.138940 
# 
# 
# High freq. dielectric constant tensor:
#      x y z
#    x 1.592920 0.000000 0.000000 
#    y 0.000000 1.587270 0.000000 
#    z 0.000000 0.000000 1.552970 
# 
# From -- ./inp_files/47379.got.cif
#   From: 2010.03.12/outbox.cif.g09.slc.cpg/sg65_24_cif.got.tgz:47379.got - 2010.04.10 20:52:16.
