data_PCOD8265002
_publ_section_title
;
Structure prediction by ZEFSAII (Michael W. Deem and Ramdas Pophale) SiO2 
 PCOD8265002
Probable space group: C M C A
;
_chemical_formula_sum "Si O2"
_cell_formula_units_Z 64
_cell_length_a 9.927265
_cell_length_b 9.740145
_cell_length_c 30.011058
_cell_angle_alpha 90.000000
_cell_angle_beta 90.000000
_cell_angle_gamma 90.000000
_cell_volume 2901.859248
_symmetry_space_group_name_H-M "C M C A"
_symmetry_group_IT_number 64
_symmetry_cell_setting 'orthorhombic'
loop_
_space_group_symop_operation_xyz
x,y,z
-x,1/2-y,1/2+z
x,-y,-z
-x,1/2+y,1/2-z
-x,-y,-z
x,1/2+y,1/2-z
-x,y,z
x,1/2-y,1/2+z
1/2+x,1/2+y,z
1/2-x,-y,1/2+z
1/2+x,1/2-y,-z
1/2-x,y,1/2-z
1/2-x,1/2-y,-z
1/2+x,y,1/2-z
1/2-x,1/2+y,z
1/2+x,-y,1/2+z
loop_
_atom_site_type_symbol
_atom_site_label
_atom_site_fract_x
_atom_site_fract_y
_atom_site_fract_z
Si Si1 0.000000 0.973883 0.199105
Si Si2 0.500000 0.105510 0.459736
Si Si3 0.000000 0.205933 0.714357
Si Si4 0.727107 0.880235 0.908990
Si Si5 0.000000 0.854517 0.521910
Si Si6 0.235825 0.378894 0.150794
O O1 0.131739 0.953465 0.169270
O O2 0.000000 0.857847 0.236771
O O3 0.000000 0.128702 0.218508
O O4 0.627086 0.084165 0.428179
O O5 0.500000 0.256095 0.479803
O O6 0.500000 0.000000 0.500000
O O7 0.867694 0.150553 0.690117
O O8 0.632233 0.830706 0.948807
O O9 0.728495 0.763572 0.872008
O O10 0.670278 0.018132 0.885612
O O11 0.000000 0.000000 0.500000
#
# Coordination Sequence:
#
# PCOD8265002 Si02
#       6
#     8   8   8  16   8  16
#     4  12  28  48  73 107 144 184 230 289 351 418
#     4  12  24  43  66  99 143 182 233 292 349 409
#     4  12  28  48  73 107 144 183 232 287 349 423
#     4  12  24  43  69 100 137 187 234 288 348 411
#     4  12  24  41  64  99 135 184 235 284 351 411
#     4  12  25  47  72 104 143 185 238 286 348 418
#
# _framework density 22.054827
#
# number of rings (size 3 to 8) (size 9 to 14) (size 15 to 20)
#    0.000    0.000    2.500    8.250    3.500    2.000 
#    0.000    0.000    0.000    0.000    0.000    0.000 
#    0.000    0.000    0.000    0.000    0.000    0.000 
#
# Total GULP energy -397059.649931 kJ/mol
# GULP energy per Si atom -12408.114060 kJ/mol
# Density = 2.200463 g / cm^3
# Si number density = 22.054827 Si / 1000 Ang^3
#
#
#
# Elastic Constant Matrix: (Units=GPa)
#
#
# Indices 1 2 3 4 5 6 
#
# 1 100.7909 16.7680 18.9643 0.0000 0.0000 0.0000
# 2 16.7680 126.9857 32.5362 0.0000 0.0000 0.0000
# 3 18.9643 32.5362 91.1739 0.0000 0.0000 0.0000
# 4 0.0000 0.0000 0.0000 56.8567 0.0000 0.0000
# 5 0.0000 0.0000 0.0000 0.0000 19.3648 0.0000
# 6 0.0000 0.0000 0.0000 0.0000 0.0000 28.9322
#
#
#
# Elastic Compliance Matrix: (Units=1/GPa)
#
#
# Indices 1 2 3 4 5 6 
#
# 1 0.010419 -0.000903 -0.001845 0.000000 0.000000 0.000000
# 2 -0.000903 0.008746 -0.002933 0.000000 0.000000 0.000000
# 3 -0.001845 -0.002933 0.012398 0.000000 0.000000 0.000000
# 4 0.000000 0.000000 0.000000 0.017588 0.000000 0.000000
# 5 0.000000 0.000000 0.000000 0.000000 0.051640 0.000000
# 6 0.000000 0.000000 0.000000 0.000000 0.000000 0.034564
#
#
# Mechanical properties :
#
#
# Convention : Reuss Voigt Hill
#
# Bulk Modulus (GPa) = 49.50276 50.60974 50.05625
# Shear Modulus (GPa) = 32.58374 37.74285 35.16330
#
# Velocity S-wave (km/s) = 3.84786 4.14130 3.99727
# Velocity P-wave (km/s) = 6.49888 6.77231 6.63700
#
# Compressibility (1/GPa) = 0.02020089
#
# Stress axis : x y z
#
# Youngs Moduli (GPa) = 95.97948 114.34227 80.65495
#
# Poissons Ratio (x) = 0.10326 0.14880
# Poissons Ratio (y) = 0.08668 0.23657
# Poissons Ratio (z) = 0.17707 0.33538
#
# Static dielectric constant tensor:
#      x y z
#    x 4.054920 0.000000 0.000000 
#    y 0.000000 4.034020 0.000000 
#    z 0.000000 0.000000 3.644330 
# 
# 
# High freq. dielectric constant tensor:
#      x y z
#    x 1.877370 0.000000 0.000000 
#    y 0.000000 1.888330 0.000000 
#    z 0.000000 0.000000 1.884940 
# 
# From -- ./inp_files/52498.got.cif
#   From: 2010.03.12/outbox.cif.g09.slc.cpg/sg64_27_cif.got.tgz:52498.got - 2010.04.10 20:19:32.
