data_PCOD8265973
_publ_section_title
;
Structure prediction by ZEFSAII (Michael W. Deem and Ramdas Pophale) SiO2 
 PCOD8265973
Probable space group: C M M M
;
_chemical_formula_sum "Si O2"
_cell_formula_units_Z 104
_cell_length_a 9.002617
_cell_length_b 27.028298
_cell_length_c 26.479423
_cell_angle_alpha 90.000000
_cell_angle_beta 90.000000
_cell_angle_gamma 90.000000
_cell_volume 6443.116592
_symmetry_space_group_name_H-M "C M M M"
_symmetry_group_IT_number 65
_symmetry_cell_setting 'orthorhombic'
loop_
_space_group_symop_operation_xyz
x,y,z
-x,-y,z
x,-y,-z
-x,y,-z
-x,-y,-z
x,y,-z
-x,y,z
x,-y,z
1/2+x,1/2+y,z
1/2-x,1/2-y,z
1/2+x,1/2-y,-z
1/2-x,1/2+y,-z
1/2-x,1/2-y,-z
1/2+x,1/2+y,-z
1/2-x,1/2+y,z
1/2+x,1/2-y,z
loop_
_atom_site_type_symbol
_atom_site_label
_atom_site_fract_x
_atom_site_fract_y
_atom_site_fract_z
Si Si1 0.675088 0.196307 0.109674
Si Si2 0.669120 0.800743 0.000000
Si Si3 0.828832 0.442730 0.442446
Si Si4 0.823855 0.858370 0.199188
Si Si5 0.171522 0.557017 0.743383
Si Si6 0.173850 0.899422 0.649690
Si Si7 0.171312 0.199849 0.702620
O O1 0.500000 0.201645 0.121035
O O2 0.750000 0.250000 0.115645
O O3 0.705325 0.172446 0.053456
O O4 0.748858 0.157517 0.147226
O O5 0.750000 0.750000 0.000000
O O6 0.500000 0.785336 0.000000
O O7 0.796601 0.427174 0.500000
O O8 0.789430 0.500000 0.434278
O O9 0.724136 0.409676 0.407296
O O10 0.000000 0.432943 0.428689
O O11 0.761100 0.911724 0.215055
O O12 0.779079 0.818497 0.241921
O O13 0.000000 0.862528 0.192843
O O14 0.188688 0.500000 0.758497
O O15 0.237836 0.564912 0.687585
O O16 0.000000 0.573497 0.743101
O O17 0.210539 0.842325 0.661903
O O18 0.000000 0.910168 0.656601
O O19 0.250000 0.250000 0.686609
O O20 0.000000 0.212234 0.702929
#
# Coordination Sequence:
#
# PCOD8265973 Si02
#       7
#    16   8  16  16  16  16  16
#     4  10  18  29  45  66  94 126 159 194 232 274
#     4   8  16  28  42  62  89 122 157 192 230 273
#     4   9  18  32  49  70  95 121 151 187 226 271
#     4  10  20  32  46  68  95 122 154 191 233 277
#     4  10  20  33  49  69  93 122 155 188 225 273
#     4  10  20  32  47  70  97 122 151 187 227 272
#     4   9  19  32  45  64  90 119 151 186 222 263
#
# _framework density 16.141257
#
# number of rings (size 3 to 8) (size 9 to 14) (size 15 to 20)
#    0.000    2.462    0.000    4.154    0.000    9.231 
#    0.000    0.769    0.000    0.462    0.000    0.538 
#    0.000    4.308    0.000    0.000    0.000    0.000 
#
# Total GULP energy -644641.025682 kJ/mol
# GULP energy per Si atom -12396.942802 kJ/mol
# Density = 1.610452 g / cm^3
# Si number density = 16.141257 Si / 1000 Ang^3
#
#
#
# Elastic Constant Matrix: (Units=GPa)
#
#
# Indices 1 2 3 4 5 6 
#
# 1 86.6873 46.1463 53.3195 0.0000 0.0000 0.0000
# 2 46.1463 80.1878 50.0202 0.0000 0.0000 0.0000
# 3 53.3195 50.0202 120.4380 0.0000 0.0000 0.0000
# 4 0.0000 0.0000 0.0000 21.1028 0.0000 0.0000
# 5 0.0000 0.0000 0.0000 0.0000 27.9714 0.0000
# 6 0.0000 0.0000 0.0000 0.0000 0.0000 27.7429
#
#
#
# Elastic Compliance Matrix: (Units=1/GPa)
#
#
# Indices 1 2 3 4 5 6 
#
# 1 0.018732 -0.007567 -0.005150 0.000000 0.000000 0.000000
# 2 -0.007567 0.019888 -0.004910 0.000000 0.000000 0.000000
# 3 -0.005150 -0.004910 0.012622 0.000000 0.000000 0.000000
# 4 0.000000 0.000000 0.000000 0.047387 0.000000 0.000000
# 5 0.000000 0.000000 0.000000 0.000000 0.035751 0.000000
# 6 0.000000 0.000000 0.000000 0.000000 0.000000 0.036045
#
#
# Mechanical properties :
#
#
# Convention : Reuss Voigt Hill
#
# Bulk Modulus (GPa) = 62.54695 65.14278 63.84487
# Shear Modulus (GPa) = 23.69577 24.55190 24.12384
#
# Velocity S-wave (km/s) = 3.83564 3.90431 3.87013
# Velocity P-wave (km/s) = 7.64526 7.79554 7.72077
#
# Compressibility (1/GPa) = 0.01598799
#
# Stress axis : x y z
#
# Youngs Moduli (GPa) = 53.38594 50.28116 79.22599
#
# Poissons Ratio (x) = 0.38048 0.40801
# Poissons Ratio (y) = 0.40398 0.38899
# Poissons Ratio (z) = 0.27493 0.24687
#
# Static dielectric constant tensor:
#      x y z
#    x 3.142870 0.000000 0.000000 
#    y 0.000000 2.839470 0.000000 
#    z 0.000000 0.000000 -11.576950 
# 
# 
# High freq. dielectric constant tensor:
#      x y z
#    x 1.635470 0.000000 0.000000 
#    y 0.000000 1.594470 0.000000 
#    z 0.000000 0.000000 1.618590 
# 
# From -- ./inp_files/73564.got.cif
#   From: 2010.03.12/outbox.cif.g09.slc.cpg/sg65_37_cif.got.tgz:73564.got - 2010.04.10 20:52:16.
