data_PCOD8265381
_publ_section_title
;
Structure prediction by ZEFSAII (Michael W. Deem and Ramdas Pophale) SiO2 
 PCOD8265381
Probable space group: C M M M
;
_chemical_formula_sum "Si O2"
_cell_formula_units_Z 88
_cell_length_a 18.908085
_cell_length_b 12.831101
_cell_length_c 22.385660
_cell_angle_alpha 90.000000
_cell_angle_beta 90.000000
_cell_angle_gamma 90.000000
_cell_volume 5431.019633
_symmetry_space_group_name_H-M "C M M M"
_symmetry_group_IT_number 65
_symmetry_cell_setting 'orthorhombic'
loop_
_space_group_symop_operation_xyz
x,y,z
-x,-y,z
x,-y,-z
-x,y,-z
-x,-y,-z
x,y,-z
-x,y,z
x,-y,z
1/2+x,1/2+y,z
1/2-x,1/2-y,z
1/2+x,1/2-y,-z
1/2-x,1/2+y,-z
1/2-x,1/2-y,-z
1/2+x,1/2+y,-z
1/2-x,1/2+y,z
1/2+x,1/2-y,z
loop_
_atom_site_type_symbol
_atom_site_label
_atom_site_fract_x
_atom_site_fract_y
_atom_site_fract_z
Si Si1 0.214840 0.119053 0.369041
Si Si2 0.750000 0.750000 0.739090
Si Si3 0.579189 0.876477 0.065315
Si Si4 0.000000 0.623050 0.256430
Si Si5 0.638263 0.876320 0.812112
Si Si6 0.349340 0.197910 0.431481
Si Si7 0.000000 0.623981 0.390921
O O1 0.207398 0.169118 0.303066
O O2 0.296765 0.127964 0.390772
O O3 0.163072 0.180981 0.414048
O O4 0.190570 0.000000 0.367147
O O5 0.702437 0.816983 0.782909
O O6 0.500000 0.831434 0.075179
O O7 0.630942 0.840144 0.118577
O O8 0.573821 0.000000 0.067718
O O9 0.608192 0.840204 0.000000
O O10 0.068686 0.662741 0.222108
O O11 0.000000 0.500000 0.258033
O O12 0.000000 0.666785 0.323518
O O13 0.649896 0.000000 0.805897
O O14 0.328348 0.180601 0.500000
O O15 0.430505 0.166977 0.423136
O O16 0.000000 0.500000 0.394803
#
# Coordination Sequence:
#
# PCOD8265381 Si02
#       7
#    16   8  16   8  16  16   8
#     4  10  20  36  53  68  91 126 161 198 234 274
#     4  10  20  30  44  70  98 122 156 192 236 286
#     4   8  13  23  41  67  96 123 152 185 225 274
#     4   9  16  27  45  66  87 116 152 182 222 275
#     4  10  17  28  46  69  95 125 155 190 232 274
#     4  10  21  34  51  75  95 118 157 193 235 294
#     4  11  21  32  48  73 104 125 143 191 249 286
#
# _framework density 16.203219000000001
#
# number of rings (size 3 to 8) (size 9 to 14) (size 15 to 20)
#    0.000    2.545    0.909    5.182    0.000    4.364 
#    0.000    0.909    0.000    1.091    0.000    1.909 
#    0.000    0.000    0.000    8.000    0.000    0.727 
#
# Total GULP energy -545333.730443 kJ/mol
# GULP energy per Si atom -12393.948419 kJ/mol
# Density = 1.616634 g / cm^3
# Si number density = 16.203219 Si / 1000 Ang^3
#
#
#
# Elastic Constant Matrix: (Units=GPa)
#
#
# Indices 1 2 3 4 5 6 
#
# 1 78.8266 23.0361 34.5715 0.0000 0.0000 0.0000
# 2 23.0361 72.2184 26.0038 0.0000 0.0000 0.0000
# 3 34.5715 26.0038 130.7929 0.0000 0.0000 0.0000
# 4 0.0000 0.0000 0.0000 15.5532 0.0000 0.0000
# 5 0.0000 0.0000 0.0000 0.0000 19.1802 0.0000
# 6 0.0000 0.0000 0.0000 0.0000 0.0000 17.3323
#
#
#
# Elastic Compliance Matrix: (Units=1/GPa)
#
#
# Indices 1 2 3 4 5 6 
#
# 1 0.015199 -0.003664 -0.003289 0.000000 0.000000 0.000000
# 2 -0.003664 0.015798 -0.002172 0.000000 0.000000 0.000000
# 3 -0.003289 -0.002172 0.008947 0.000000 0.000000 0.000000
# 4 0.000000 0.000000 0.000000 0.064295 0.000000 0.000000
# 5 0.000000 0.000000 0.000000 0.000000 0.052137 0.000000
# 6 0.000000 0.000000 0.000000 0.000000 0.000000 0.057696
#
#
# Mechanical properties :
#
#
# Convention : Reuss Voigt Hill
#
# Bulk Modulus (GPa) = 46.09730 49.89566 47.99648
# Shear Modulus (GPa) = 20.87210 23.62824 22.25017
#
# Velocity S-wave (km/s) = 3.59297 3.82284 3.70968
# Velocity P-wave (km/s) = 6.76194 7.09549 6.93072
#
# Compressibility (1/GPa) = 0.02169325
#
# Stress axis : x y z
#
# Youngs Moduli (GPa) = 65.79236 63.29983 111.76973
#
# Poissons Ratio (x) = 0.23193 0.36762
# Poissons Ratio (y) = 0.24106 0.24281
# Poissons Ratio (z) = 0.21640 0.13751
#
# Static dielectric constant tensor:
#      x y z
#    x 4.409520 0.000000 0.000000 
#    y 0.000000 2.754330 0.000000 
#    z 0.000000 0.000000 3.471130 
# 
# 
# High freq. dielectric constant tensor:
#      x y z
#    x 1.604510 0.000000 0.000000 
#    y 0.000000 1.582060 0.000000 
#    z 0.000000 0.000000 1.641930 
# 
# From -- ./inp_files/70529.got.cif
#   From: 2010.03.12/outbox.cif.g09.slc.cpg/sg65_36_cif.got.tgz:70529.got - 2010.04.10 20:52:16.
