data_PCOD8265478
_publ_section_title
;
Structure prediction by ZEFSAII (Michael W. Deem and Ramdas Pophale) SiO2 
 PCOD8265478
Probable space group: C M M M
;
_chemical_formula_sum "Si O2"
_cell_formula_units_Z 104
_cell_length_a 27.738887
_cell_length_b 21.712055
_cell_length_c 9.231198
_cell_angle_alpha 90.000000
_cell_angle_beta 90.000000
_cell_angle_gamma 90.000000
_cell_volume 5559.657374
_symmetry_space_group_name_H-M "C M M M"
_symmetry_group_IT_number 65
_symmetry_cell_setting 'orthorhombic'
loop_
_space_group_symop_operation_xyz
x,y,z
-x,-y,z
x,-y,-z
-x,y,-z
-x,-y,-z
x,y,-z
-x,y,z
x,-y,z
1/2+x,1/2+y,z
1/2-x,1/2-y,z
1/2+x,1/2-y,-z
1/2-x,1/2+y,-z
1/2-x,1/2-y,-z
1/2+x,1/2+y,-z
1/2-x,1/2+y,z
1/2+x,1/2-y,z
loop_
_atom_site_type_symbol
_atom_site_label
_atom_site_fract_x
_atom_site_fract_y
_atom_site_fract_z
Si Si1 0.144545 0.199719 0.331936
Si Si2 0.500000 0.926777 0.163338
Si Si3 0.593398 0.928953 0.668660
Si Si4 0.824625 0.336025 0.332655
Si Si5 0.229672 0.866730 0.831833
Si Si6 0.053115 0.873785 0.671439
Si Si7 0.098134 0.000000 0.672116
Si Si8 0.303133 0.500000 0.835157
O O1 0.153725 0.183299 0.500000
O O2 0.148109 0.272172 0.303683
O O3 0.182579 0.162484 0.238150
O O4 0.091070 0.178873 0.282179
O O5 0.452388 0.902627 0.244375
O O6 0.500000 0.000000 0.167767
O O7 0.500000 0.901386 0.000000
O O8 0.581940 0.919599 0.500000
O O9 0.640156 0.890800 0.716766
O O10 0.603786 0.000000 0.706239
O O11 0.809853 0.343059 0.500000
O O12 0.776610 0.337183 0.239081
O O13 0.229772 0.940182 0.805771
O O14 0.230038 0.849661 0.000000
O O15 0.049770 0.877590 0.500000
O O16 0.000000 0.858390 0.735783
O O17 0.070457 0.939969 0.731441
O O18 0.152318 0.000000 0.727954
O O19 0.101072 0.000000 0.500000
O O20 0.322521 0.500000 0.000000
#
# Coordination Sequence:
#
# PCOD8265478 Si02
#       8
#    16   8  16  16  16  16   8   8
#     4  10  20  37  57  80 110 143 180 223 269 323
#     4   9  17  31  53  79 105 137 175 216 263 316
#     4   9  18  34  54  77 106 139 175 219 271 324
#     4  10  22  37  55  83 111 139 179 227 274 323
#     4  11  23  38  57  79 107 145 184 223 272 326
#     4   9  17  30  52  83 113 139 175 224 270 315
#     4  10  17  30  56  84 108 140 183 223 267 318
#     4  10  22  37  53  79 112 143 181 230 275 322
#
# _framework density 18.706188999999998
#
# number of rings (size 3 to 8) (size 9 to 14) (size 15 to 20)
#    0.000    2.231    1.538    1.385    1.077    5.538 
#    1.385    0.000    0.000    2.308    0.000    0.000 
#    0.000    0.000    0.000    0.000    0.000    0.000 
#
# Total GULP energy -644868.024685 kJ/mol
# GULP energy per Si atom -12401.308167 kJ/mol
# Density = 1.866361 g / cm^3
# Si number density = 18.706189 Si / 1000 Ang^3
#
#
#
# Elastic Constant Matrix: (Units=GPa)
#
#
# Indices 1 2 3 4 5 6 
#
# 1 146.7068 61.3430 47.8328 0.0000 0.0000 0.0000
# 2 61.3430 103.6459 35.3088 0.0000 0.0000 0.0000
# 3 47.8328 35.3088 59.9335 0.0000 0.0000 0.0000
# 4 0.0000 0.0000 0.0000 18.9498 0.0000 0.0000
# 5 0.0000 0.0000 0.0000 0.0000 0.3760 0.0000
# 6 0.0000 0.0000 0.0000 0.0000 0.0000 20.4513
#
#
#
# Elastic Compliance Matrix: (Units=1/GPa)
#
#
# Indices 1 2 3 4 5 6 
#
# 1 0.010498 -0.004202 -0.005903 0.000000 0.000000 0.000000
# 2 -0.004202 0.013753 -0.004748 0.000000 0.000000 0.000000
# 3 -0.005903 -0.004748 0.024194 0.000000 0.000000 0.000000
# 4 0.000000 0.000000 0.000000 0.052771 0.000000 0.000000
# 5 0.000000 0.000000 0.000000 0.000000 2.659844 0.000000
# 6 0.000000 0.000000 0.000000 0.000000 0.000000 0.048897
#
#
# Mechanical properties :
#
#
# Convention : Reuss Voigt Hill
#
# Bulk Modulus (GPa) = 53.36873 66.58393 59.97633
# Shear Modulus (GPa) = 1.75691 19.00888 10.38289
#
# Velocity S-wave (km/s) = 0.97018 3.19122 2.35851
# Velocity P-wave (km/s) = 5.46323 7.01786 6.28877
#
# Compressibility (1/GPa) = 0.01873756
#
# Stress axis : x y z
#
# Youngs Moduli (GPa) = 95.25615 72.71096 41.33338
#
# Poissons Ratio (x) = 0.30556 0.24398
# Poissons Ratio (y) = 0.40031 0.19627
# Poissons Ratio (z) = 0.56226 0.34526
#
# Static dielectric constant tensor:
#      x y z
#    x 3.592610 0.000000 0.000000 
#    y 0.000000 3.551760 0.000000 
#    z 0.000000 0.000000 3.282550 
# 
# 
# High freq. dielectric constant tensor:
#      x y z
#    x 1.731770 0.000000 0.000000 
#    y 0.000000 1.725630 0.000000 
#    z 0.000000 0.000000 1.704510 
# 
# From -- ./inp_files/16569.got.cif
#   From: 2010.03.12/outbox.cif.g09.slc.cpg/sg65_9_cif.got.tgz:16569.got - 2010.04.10 20:52:16.
