data_PCOD8265987
_publ_section_title
;
Structure prediction by ZEFSAII (Michael W. Deem and Ramdas Pophale) SiO2 
 PCOD8265987
Probable space group: C M M M
;
_chemical_formula_sum "Si O2"
_cell_formula_units_Z 96
_cell_length_a 28.481095
_cell_length_b 20.871143
_cell_length_c 9.042488
_cell_angle_alpha 90.000000
_cell_angle_beta 90.000000
_cell_angle_gamma 90.000000
_cell_volume 5375.153328
_symmetry_space_group_name_H-M "C M M M"
_symmetry_group_IT_number 65
_symmetry_cell_setting 'orthorhombic'
loop_
_space_group_symop_operation_xyz
x,y,z
-x,-y,z
x,-y,-z
-x,y,-z
-x,-y,-z
x,y,-z
-x,y,z
x,-y,z
1/2+x,1/2+y,z
1/2-x,1/2-y,z
1/2+x,1/2-y,-z
1/2-x,1/2+y,-z
1/2-x,1/2-y,-z
1/2+x,1/2+y,-z
1/2-x,1/2+y,z
1/2+x,1/2-y,z
loop_
_atom_site_type_symbol
_atom_site_label
_atom_site_fract_x
_atom_site_fract_y
_atom_site_fract_z
Si Si1 0.551141 0.427792 0.824197
Si Si2 0.946671 0.426778 0.326625
Si Si3 0.299047 0.500000 0.823586
Si Si4 0.146830 0.124329 0.176263
Si Si5 0.306009 0.000000 0.824249
Si Si6 0.696605 0.248866 0.823693
Si Si7 0.859883 0.624960 0.175564
O O1 0.500000 0.402685 0.768801
O O2 0.559755 0.500000 0.765683
O O3 0.592843 0.381592 0.767004
O O4 0.552025 0.429425 0.000000
O O5 0.937754 0.420596 0.500000
O O6 0.937426 0.500000 0.274934
O O7 0.912262 0.377861 0.242049
O O8 0.000000 0.407198 0.287091
O O9 0.324653 0.563310 0.762967
O O10 0.246465 0.500000 0.760313
O O11 0.299453 0.500000 0.000000
O O12 0.169707 0.188973 0.239921
O O13 0.148892 0.125544 0.000000
O O14 0.332108 0.937013 0.765562
O O15 0.304699 0.000000 0.000000
O O16 0.750000 0.250000 0.763082
O O17 0.668465 0.186790 0.765960
O O18 0.697542 0.249115 0.000000
O O19 0.864098 0.626278 0.000000
#
# Coordination Sequence:
#
# PCOD8265987 Si02
#       7
#    16  16   8  16   8  16  16
#     4   8  12  18  28  42  60  85 123 170 212 247
#     4   9  18  33  52  72  93 119 153 194 240 285
#     4   9  14  20  33  52  75 105 148 193 222 255
#     4   9  14  21  32  48  70 103 145 182 217 259
#     4   9  16  24  36  57  83 109 144 186 220 257
#     4   9  17  27  38  55  85 123 155 184 224 272
#     4  10  18  29  45  68  95 124 155 189 232 275
#
# _framework density 17.859956
#
# number of rings (size 3 to 8) (size 9 to 14) (size 15 to 20)
#    0.000    3.000    1.667    2.000    0.000    4.333 
#    0.000    1.667    0.000    3.500    0.000    0.000 
#    0.000    0.000    0.000    0.000    0.000    2.500 
#
# Total GULP energy -594913.260283 kJ/mol
# GULP energy per Si atom -12394.026256 kJ/mol
# Density = 1.781931 g / cm^3
# Si number density = 17.859956 Si / 1000 Ang^3
#
#
#
# Elastic Constant Matrix: (Units=GPa)
#
#
# Indices 1 2 3 4 5 6 
#
# 1 189.0486 93.3432 17.8772 0.0000 0.0000 0.0000
# 2 93.3432 148.9182 12.3853 0.0000 0.0000 0.0000
# 3 17.8772 12.3853 8.9220 0.0000 0.0000 0.0000
# 4 0.0000 0.0000 0.0000 6.5696 0.0000 0.0000
# 5 0.0000 0.0000 0.0000 0.0000 7.4708 0.0000
# 6 0.0000 0.0000 0.0000 0.0000 0.0000 37.5236
#
#
#
# Elastic Compliance Matrix: (Units=1/GPa)
#
#
# Indices 1 2 3 4 5 6 
#
# 1 0.008505 -0.004424 -0.010900 0.000000 0.000000 0.000000
# 2 -0.004424 0.009893 -0.004868 0.000000 0.000000 0.000000
# 3 -0.010900 -0.004868 0.140681 0.000000 0.000000 0.000000
# 4 0.000000 0.000000 0.000000 0.152217 0.000000 0.000000
# 5 0.000000 0.000000 0.000000 0.000000 0.133854 0.000000
# 6 0.000000 0.000000 0.000000 0.000000 0.000000 0.026650
#
#
# Mechanical properties :
#
#
# Convention : Reuss Voigt Hill
#
# Bulk Modulus (GPa) = 8.42500 66.01114 37.21807
# Shear Modulus (GPa) = 9.06209 25.19834 17.13021
#
# Velocity S-wave (km/s) = 2.25499 3.76025 3.10036
# Velocity P-wave (km/s) = 3.39227 7.47618 5.80520
#
# Compressibility (1/GPa) = 0.11869435
#
# Stress axis : x y z
#
# Youngs Moduli (GPa) = 117.57853 101.07878 7.10829
#
# Poissons Ratio (x) = 0.44722 0.07748
# Poissons Ratio (y) = 0.52022 0.03460
# Poissons Ratio (z) = 1.28157 0.49208
#
# Static dielectric constant tensor:
#      x y z
#    x 3.693320 0.000000 0.000000 
#    y 0.000000 3.371570 0.000000 
#    z 0.000000 0.000000 2.496590 
# 
# 
# High freq. dielectric constant tensor:
#      x y z
#    x 1.713690 0.000000 0.000000 
#    y 0.000000 1.680460 0.000000 
#    z 0.000000 0.000000 1.607440 
# 
# From -- ./inp_files/30992.got.cif
#   From: 2010.03.12/outbox.cif.g09.slc.cpg/sg65_16_cif.got.tgz:30992.got - 2010.04.10 20:52:16.
