data_PCOD8265621
_publ_section_title
;
Structure prediction by ZEFSAII (Michael W. Deem and Ramdas Pophale) SiO2 
 PCOD8265621
Probable space group: C M M M
;
_chemical_formula_sum "Si O2"
_cell_formula_units_Z 72
_cell_length_a 18.308518
_cell_length_b 15.547626
_cell_length_c 17.154893
_cell_angle_alpha 90.000000
_cell_angle_beta 90.000000
_cell_angle_gamma 90.000000
_cell_volume 4883.208749
_symmetry_space_group_name_H-M "C M M M"
_symmetry_group_IT_number 65
_symmetry_cell_setting 'orthorhombic'
loop_
_space_group_symop_operation_xyz
x,y,z
-x,-y,z
x,-y,-z
-x,y,-z
-x,-y,-z
x,y,-z
-x,y,z
x,-y,z
1/2+x,1/2+y,z
1/2-x,1/2-y,z
1/2+x,1/2-y,-z
1/2-x,1/2+y,-z
1/2-x,1/2-y,-z
1/2+x,1/2+y,-z
1/2-x,1/2+y,z
1/2+x,1/2-y,z
loop_
_atom_site_type_symbol
_atom_site_label
_atom_site_fract_x
_atom_site_fract_y
_atom_site_fract_z
Si Si1 0.829088 0.000000 0.907559
Si Si2 0.162830 0.500000 0.092409
Si Si3 0.419532 0.102616 0.500000
Si Si4 0.584864 0.334762 0.090671
Si Si5 0.413779 0.159794 0.170898
Si Si6 0.586868 0.096203 0.334012
O O1 0.746257 0.000000 0.878096
O O2 0.869628 0.915033 0.875778
O O3 0.835229 0.000000 0.000000
O O4 0.124277 0.414866 0.122723
O O5 0.158634 0.500000 0.000000
O O6 0.500000 0.144267 0.500000
O O7 0.380276 0.130010 0.582145
O O8 0.425395 0.000000 0.500000
O O9 0.500000 0.354428 0.104898
O O10 0.611416 0.251222 0.137688
O O11 0.601010 0.317792 0.000000
O O12 0.500000 0.146122 0.161247
O O13 0.389967 0.156687 0.261996
O O14 0.500000 0.093592 0.343112
O O15 0.615593 0.000000 0.315299
#
# Coordination Sequence:
#
# PCOD8265621 Si02
#       6
#     8   8   8  16  16  16
#     4   9  19  33  45  57  74 101 140 182 214 232
#     4  11  21  29  39  56  83 115 137 161 197 244
#     4   7  10  16  30  50  74 106 134 154 186 229
#     4   9  17  30  47  62  76 100 136 175 209 239
#     4  10  18  27  40  60  86 112 136 162 195 239
#     4   8  12  20  33  52  80 109 132 157 190 231
#
# _framework density 14.744403999999999
#
# number of rings (size 3 to 8) (size 9 to 14) (size 15 to 20)
#    0.000    3.000    1.111    2.667    0.000    4.000 
#    0.000    3.333    0.000    0.000    0.000    0.000 
#    0.000    6.222    0.000   10.556    0.000    0.000 
#
# Total GULP energy -446045.977984 kJ/mol
# GULP energy per Si atom -12390.166055 kJ/mol
# Density = 1.471085 g / cm^3
# Si number density = 14.744404 Si / 1000 Ang^3
#
#
#
# Elastic Constant Matrix: (Units=GPa)
#
#
# Indices 1 2 3 4 5 6 
#
# 1 42.1389 42.4779 26.4045 0.0000 0.0000 0.0000
# 2 42.4779 116.6743 57.2825 0.0000 0.0000 0.0000
# 3 26.4045 57.2825 104.3440 0.0000 0.0000 0.0000
# 4 0.0000 0.0000 0.0000 7.3803 0.0000 0.0000
# 5 0.0000 0.0000 0.0000 0.0000 5.6989 0.0000
# 6 0.0000 0.0000 0.0000 0.0000 0.0000 6.7504
#
#
#
# Elastic Compliance Matrix: (Units=1/GPa)
#
#
# Indices 1 2 3 4 5 6 
#
# 1 0.038067 -0.012498 -0.002772 0.000000 0.000000 0.000000
# 2 -0.012498 0.015837 -0.005531 0.000000 0.000000 0.000000
# 3 -0.002772 -0.005531 0.013322 0.000000 0.000000 0.000000
# 4 0.000000 0.000000 0.000000 0.135496 0.000000 0.000000
# 5 0.000000 0.000000 0.000000 0.000000 0.175472 0.000000
# 6 0.000000 0.000000 0.000000 0.000000 0.000000 0.148139
#
#
# Mechanical properties :
#
#
# Convention : Reuss Voigt Hill
#
# Bulk Modulus (GPa) = 39.02798 57.27632 48.15215
# Shear Modulus (GPa) = 8.67341 13.09875 10.88608
#
# Velocity S-wave (km/s) = 2.42802 2.98382 2.72015
# Velocity P-wave (km/s) = 5.86409 7.12751 6.52644
#
# Compressibility (1/GPa) = 0.02562264
#
# Stress axis : x y z
#
# Youngs Moduli (GPa) = 26.26979 63.14407 75.06599
#
# Poissons Ratio (x) = 0.78919 0.20805
# Poissons Ratio (y) = 0.32833 0.41521
# Poissons Ratio (z) = 0.07281 0.34927
#
# Static dielectric constant tensor:
#      x y z
#    x 2.586620 0.000000 0.000000 
#    y 0.000000 2.809750 0.000000 
#    z 0.000000 0.000000 3.195740 
# 
# 
# High freq. dielectric constant tensor:
#      x y z
#    x 1.524150 0.000000 0.000000 
#    y 0.000000 1.546920 0.000000 
#    z 0.000000 0.000000 1.562460 
# 
# From -- ./inp_files/52779.got.cif
#   From: 2010.03.12/outbox.cif.g09.slc.cpg/sg65_27_cif.got.tgz:52779.got - 2010.04.10 20:52:16.
