data_PCOD8265305
_publ_section_title
;
Structure prediction by ZEFSAII (Michael W. Deem and Ramdas Pophale) SiO2 
 PCOD8265305
Probable space group: C M M M
;
_chemical_formula_sum "Si O2"
_cell_formula_units_Z 80
_cell_length_a 17.836083
_cell_length_b 28.291450
_cell_length_c 9.690873
_cell_angle_alpha 90.000000
_cell_angle_beta 90.000000
_cell_angle_gamma 90.000000
_cell_volume 4890.098346
_symmetry_space_group_name_H-M "C M M M"
_symmetry_group_IT_number 65
_symmetry_cell_setting 'orthorhombic'
loop_
_space_group_symop_operation_xyz
x,y,z
-x,-y,z
x,-y,-z
-x,y,-z
-x,-y,-z
x,y,-z
-x,y,z
x,-y,z
1/2+x,1/2+y,z
1/2-x,1/2-y,z
1/2+x,1/2-y,-z
1/2-x,1/2+y,-z
1/2-x,1/2-y,-z
1/2+x,1/2+y,-z
1/2-x,1/2+y,z
1/2+x,1/2-y,z
loop_
_atom_site_type_symbol
_atom_site_label
_atom_site_fract_x
_atom_site_fract_y
_atom_site_fract_z
Si Si1 0.916547 0.819120 0.785725
Si Si2 0.588233 0.643518 0.500000
Si Si3 0.915007 0.556339 0.500000
Si Si4 0.802368 0.445763 0.729913
Si Si5 0.919868 0.099245 0.000000
Si Si6 0.819718 0.052252 0.500000
Si Si7 0.256199 0.599829 0.000000
Si Si8 0.692944 0.707846 0.000000
O O1 0.883517 0.827882 0.633409
O O2 0.000000 0.796303 0.781149
O O3 0.920713 0.869061 0.863367
O O4 0.859181 0.785012 0.865102
O O5 0.500000 0.640093 0.500000
O O6 0.614843 0.589880 0.500000
O O7 0.911373 0.500000 0.500000
O O8 0.872932 0.573649 0.360378
O O9 0.000000 0.575697 0.500000
O O10 0.815729 0.500000 0.774781
O O11 0.729094 0.441081 0.636712
O O12 0.791916 0.414301 0.866236
O O13 0.838674 0.072615 0.000000
O O14 0.000000 0.069478 0.000000
O O15 0.855965 0.000000 0.500000
O O16 0.267690 0.656429 0.000000
O O17 0.750000 0.750000 0.000000
#
# Coordination Sequence:
#
# PCOD8265305 Si02
#       8
#    16   8   8  16   8   8   8   8
#     4   8  15  28  46  65  85 110 144 184 220 255
#     4  10  17  26  44  68  89 116 156 193 219 246
#     4   8  15  30  50  68  86 113 150 183 214 273
#     4   9  17  28  45  67  91 121 150 178 221 269
#     4   8  14  25  41  61  86 122 160 184 206 245
#     4   9  16  26  38  59  94 129 154 176 212 261
#     4  10  17  28  46  68  94 116 146 196 232 255
#     4  10  19  31  48  68  86 113 151 185 222 270
#
# _framework density 16.359589
#
# number of rings (size 3 to 8) (size 9 to 14) (size 15 to 20)
#    0.000    3.300    0.000    4.800    0.000    0.200 
#    0.000    1.000    0.000    7.200    0.000    1.400 
#    0.000    3.200    0.000    0.000    0.000    0.000 
#
# Total GULP energy -495541.597838 kJ/mol
# GULP energy per Si atom -12388.539946 kJ/mol
# Density = 1.632235 g / cm^3
# Si number density = 16.359589 Si / 1000 Ang^3
#
#
#
# Elastic Constant Matrix: (Units=GPa)
#
#
# Indices 1 2 3 4 5 6 
#
# 1 97.2819 37.3331 52.9112 0.0000 0.0000 0.0000
# 2 37.3331 53.9708 37.8167 0.0000 0.0000 0.0000
# 3 52.9112 37.8167 144.2745 0.0000 0.0000 0.0000
# 4 0.0000 0.0000 0.0000 8.9288 0.0000 0.0000
# 5 0.0000 0.0000 0.0000 0.0000 10.5110 0.0000
# 6 0.0000 0.0000 0.0000 0.0000 0.0000 25.1010
#
#
#
# Elastic Compliance Matrix: (Units=1/GPa)
#
#
# Indices 1 2 3 4 5 6 
#
# 1 0.015295 -0.008146 -0.003474 0.000000 0.000000 0.000000
# 2 -0.008146 0.027035 -0.004099 0.000000 0.000000 0.000000
# 3 -0.003474 -0.004099 0.009280 0.000000 0.000000 0.000000
# 4 0.000000 0.000000 0.000000 0.111997 0.000000 0.000000
# 5 0.000000 0.000000 0.000000 0.000000 0.095138 0.000000
# 6 0.000000 0.000000 0.000000 0.000000 0.000000 0.039839
#
#
# Mechanical properties :
#
#
# Convention : Reuss Voigt Hill
#
# Bulk Modulus (GPa) = 49.57299 61.29435 55.43367
# Shear Modulus (GPa) = 14.84797 20.07257 17.46027
#
# Velocity S-wave (km/s) = 3.01591 3.50660 3.27047
# Velocity P-wave (km/s) = 6.51886 7.34461 6.94402
#
# Compressibility (1/GPa) = 0.02017227
#
# Stress axis : x y z
#
# Youngs Moduli (GPa) = 65.38091 36.98874 107.76119
#
# Poissons Ratio (x) = 0.30130 0.37438
# Poissons Ratio (y) = 0.53257 0.44172
# Poissons Ratio (z) = 0.22714 0.15162
#
# Static dielectric constant tensor:
#      x y z
#    x 3.259890 0.000000 0.000000 
#    y 0.000000 2.524200 0.000000 
#    z 0.000000 0.000000 3.475660 
# 
# 
# High freq. dielectric constant tensor:
#      x y z
#    x 1.625260 0.000000 0.000000 
#    y 0.000000 1.562640 0.000000 
#    z 0.000000 0.000000 1.645210 
# 
# From -- ./inp_files/12168.got.cif
#   From: 2010.03.12/outbox.cif.g09.slc.cpg/sg65_7_cif.got.tgz:12168.got - 2010.04.10 20:52:16.
