data_PCOD8265105
_publ_section_title
;
Structure prediction by ZEFSAII (Michael W. Deem and Ramdas Pophale) SiO2 
 PCOD8265105
Probable space group: C M M M
;
_chemical_formula_sum "Si O2"
_cell_formula_units_Z 64
_cell_length_a 18.942452
_cell_length_b 8.881800
_cell_length_c 20.898452
_cell_angle_alpha 90.000000
_cell_angle_beta 90.000000
_cell_angle_gamma 90.000000
_cell_volume 3516.019726
_symmetry_space_group_name_H-M "C M M M"
_symmetry_group_IT_number 65
_symmetry_cell_setting 'orthorhombic'
loop_
_space_group_symop_operation_xyz
x,y,z
-x,-y,z
x,-y,-z
-x,y,-z
-x,-y,-z
x,y,-z
-x,y,z
x,-y,z
1/2+x,1/2+y,z
1/2-x,1/2-y,z
1/2+x,1/2-y,-z
1/2-x,1/2+y,-z
1/2-x,1/2-y,-z
1/2+x,1/2+y,-z
1/2-x,1/2+y,z
1/2+x,1/2-y,z
loop_
_atom_site_type_symbol
_atom_site_label
_atom_site_fract_x
_atom_site_fract_y
_atom_site_fract_z
Si Si1 0.674587 0.325627 0.877295
Si Si2 0.416923 0.174024 0.371636
Si Si3 0.671504 0.821152 0.000000
Si Si4 0.416011 0.330072 0.500000
Si Si5 0.173965 0.174598 0.264281
O O1 0.682384 0.500000 0.895708
O O2 0.750000 0.250000 0.871388
O O3 0.640191 0.305014 0.807101
O O4 0.632737 0.240481 0.935240
O O5 0.500000 0.200108 0.365459
O O6 0.387239 0.246275 0.437049
O O7 0.381571 0.252403 0.311550
O O8 0.396632 0.000000 0.372426
O O9 0.750000 0.750000 0.000000
O O10 0.672605 0.000000 0.000000
O O11 0.387175 0.500000 0.500000
O O12 0.500000 0.325911 0.500000
O O13 0.250000 0.250000 0.271695
O O14 0.183505 0.000000 0.280684
#
# Coordination Sequence:
#
# PCOD8265105 Si02
#       5
#    16  16   8   8  16
#     4   9  16  26  40  60  88 121 156 194 236 281
#     4  10  20  34  53  76 101 129 162 200 241 287
#     4  10  16  22  36  58  85 118 155 194 235 279
#     4   9  17  31  52  75  98 125 160 201 241 283
#     4  10  20  33  50  72 100 133 165 200 244 292
#
# _framework density 18.202400999999998
#
# number of rings (size 3 to 8) (size 9 to 14) (size 15 to 20)
#    0.000    2.375    0.000    5.250    0.000    6.000 
#    0.000    0.625    0.000    0.000    0.000    0.875 
#    0.000    7.000    0.000    0.000    0.000    0.000 
#
# Total GULP energy -396563.476091 kJ/mol
# GULP energy per Si atom -12392.608628 kJ/mol
# Density = 1.816097 g / cm^3
# Si number density = 18.202401 Si / 1000 Ang^3
#
#
#
# Elastic Constant Matrix: (Units=GPa)
#
#
# Indices 1 2 3 4 5 6 
#
# 1 16.6477 31.9667 31.0317 0.0000 0.0000 0.0000
# 2 31.9667 181.2419 103.6739 0.0000 0.0000 0.0000
# 3 31.0317 103.6739 184.0331 0.0000 0.0000 0.0000
# 4 0.0000 0.0000 0.0000 38.7012 0.0000 0.0000
# 5 0.0000 0.0000 0.0000 0.0000 -18.9264 0.0000
# 6 0.0000 0.0000 0.0000 0.0000 0.0000 20.8612
#
#
#
# Elastic Compliance Matrix: (Units=1/GPa)
#
#
# Indices 1 2 3 4 5 6 
#
# 1 0.103018 -0.012148 -0.010527 0.000000 0.000000 0.000000
# 2 -0.012148 0.009573 -0.003345 0.000000 0.000000 0.000000
# 3 -0.010527 -0.003345 0.009093 0.000000 0.000000 0.000000
# 4 0.000000 0.000000 0.000000 0.025839 0.000000 0.000000
# 5 0.000000 0.000000 0.000000 0.000000 -0.052836 0.000000
# 6 0.000000 0.000000 0.000000 0.000000 0.000000 0.047936
#
#
# Mechanical properties :
#
#
# Convention : Reuss Voigt Hill
#
# Bulk Modulus (GPa) = 14.35872 79.47413 46.91642
# Shear Modulus (GPa) = 22.94869 22.47724 22.71296
#
# Velocity S-wave (km/s) = 3.55456 3.51786 3.53625
# Velocity P-wave (km/s) = 4.97514 7.76251 6.51953
#
# Compressibility (1/GPa) = 0.06964409
#
# Stress axis : x y z
#
# Youngs Moduli (GPa) = 9.70708 104.45706 109.97302
#
# Poissons Ratio (x) = 1.26894 1.15773
# Poissons Ratio (y) = 0.11792 0.36782
# Poissons Ratio (z) = 0.10219 0.34938
#
# Static dielectric constant tensor:
#      x y z
#    x 2.699490 0.000000 0.000000 
#    y 0.000000 3.582350 0.000000 
#    z 0.000000 0.000000 4.474420 
# 
# 
# High freq. dielectric constant tensor:
#      x y z
#    x 1.625500 0.000000 0.000000 
#    y 0.000000 1.729230 0.000000 
#    z 0.000000 0.000000 1.738250 
# 
# From -- ./inp_files/63268.got.cif
#   From: 2010.03.12/outbox.cif.g09.slc.cpg/sg65_32_cif.got.tgz:63268.got - 2010.04.10 20:52:16.
