data_PCOD8265012
_publ_section_title
;
Structure prediction by ZEFSAII (Michael W. Deem and Ramdas Pophale) SiO2 
 PCOD8265012
Probable space group: C M C A
;
_chemical_formula_sum "Si O2"
_cell_formula_units_Z 64
_cell_length_a 14.414835
_cell_length_b 7.081859
_cell_length_c 21.508537
_cell_angle_alpha 90.000000
_cell_angle_beta 90.000000
_cell_angle_gamma 90.000000
_cell_volume 2195.673813
_symmetry_space_group_name_H-M "C M C A"
_symmetry_group_IT_number 64
_symmetry_cell_setting 'orthorhombic'
loop_
_space_group_symop_operation_xyz
x,y,z
-x,1/2-y,1/2+z
x,-y,-z
-x,1/2+y,1/2-z
-x,-y,-z
x,1/2+y,1/2-z
-x,y,z
x,1/2-y,1/2+z
1/2+x,1/2+y,z
1/2-x,-y,1/2+z
1/2+x,1/2-y,-z
1/2-x,y,1/2-z
1/2-x,1/2-y,-z
1/2+x,y,1/2-z
1/2-x,1/2+y,z
1/2+x,-y,1/2+z
loop_
_atom_site_type_symbol
_atom_site_label
_atom_site_fract_x
_atom_site_fract_y
_atom_site_fract_z
Si Si1 0.108643 0.549383 0.865873
Si Si2 0.740079 0.247909 0.073003
Si Si3 0.144025 0.739428 0.254362
Si Si4 0.098810 0.040426 0.858605
O O1 0.158558 0.748486 0.892042
O O2 0.000000 0.555313 0.881448
O O3 0.133658 0.550072 0.790951
O O4 0.160141 0.397587 0.908361
O O5 0.689097 0.449764 0.095071
O O6 0.750000 0.250000 0.000000
O O7 0.250000 0.681910 0.250000
O O8 0.102567 0.763212 0.184452
O O9 0.090158 0.616671 0.305039
O O10 0.000000 0.045265 0.894905
#
# Coordination Sequence:
#
# PCOD8265012 Si02
#       4
#    16  16  16  16
#     4  12  27  51  82 117 157 209 266 332 407 477
#     4  12  28  50  79 114 158 216 276 333 394 477
#     4  12  25  46  77 120 165 205 256 332 415 486
#     4  12  25  45  77 119 161 209 264 333 411 490
#
# _framework density 29.148226999999999
#
# number of rings (size 3 to 8) (size 9 to 14) (size 15 to 20)
#    0.000    0.000    2.500    7.500    0.000    3.000 
#    0.000    1.250    0.000   10.500    0.000    0.000 
#    0.000    0.000    0.000    0.000    0.000    0.000 
#
# Total GULP energy -396644.594552 kJ/mol
# GULP energy per Si atom -12395.143580 kJ/mol
# Density = 2.908188 g / cm^3
# Si number density = 29.148227 Si / 1000 Ang^3
#
#
#
# Elastic Constant Matrix: (Units=GPa)
#
#
# Indices 1 2 3 4 5 6 
#
# 1 312.3750 24.2667 88.4777 0.0000 0.0000 0.0000
# 2 24.2667 63.5448 16.6890 0.0000 0.0000 0.0000
# 3 88.4777 16.6890 235.6054 0.0000 0.0000 0.0000
# 4 0.0000 0.0000 0.0000 29.1521 0.0000 0.0000
# 5 0.0000 0.0000 0.0000 0.0000 28.5164 0.0000
# 6 0.0000 0.0000 0.0000 0.0000 0.0000 36.3738
#
#
#
# Elastic Compliance Matrix: (Units=1/GPa)
#
#
# Indices 1 2 3 4 5 6 
#
# 1 0.003650 -0.001054 -0.001296 0.000000 0.000000 0.000000
# 2 -0.001054 0.016339 -0.000762 0.000000 0.000000 0.000000
# 3 -0.001296 -0.000762 0.004785 0.000000 0.000000 0.000000
# 4 0.000000 0.000000 0.000000 0.034303 0.000000 0.000000
# 5 0.000000 0.000000 0.000000 0.000000 0.035068 0.000000
# 6 0.000000 0.000000 0.000000 0.000000 0.000000 0.027492
#
#
# Mechanical properties :
#
#
# Convention : Reuss Voigt Hill
#
# Bulk Modulus (GPa) = 53.90324 96.71023 75.30674
# Shear Modulus (GPa) = 37.30110 50.94790 44.12450
#
# Velocity S-wave (km/s) = 3.58118 4.18531 3.89498
# Velocity P-wave (km/s) = 5.96931 7.52374 6.79115
#
# Compressibility (1/GPa) = 0.01855176
#
# Stress axis : x y z
#
# Youngs Moduli (GPa) = 273.95355 61.20200 208.98223
#
# Poissons Ratio (x) = 0.06448 0.27088
# Poissons Ratio (y) = 0.28863 0.15919
# Poissons Ratio (z) = 0.35509 0.04662
#
# Static dielectric constant tensor:
#      x y z
#    x 5.329480 0.000000 0.000000 
#    y 0.000000 9.767550 0.000000 
#    z 0.000000 0.000000 5.180260 
# 
# 
# High freq. dielectric constant tensor:
#      x y z
#    x 2.185460 0.000000 0.000000 
#    y 0.000000 2.302820 0.000000 
#    z 0.000000 0.000000 2.154350 
# 
# From -- ./inp_files/31653.got.cif
#   From: 2010.03.12/outbox.cif.g09.slc.cpg/sg64_16_cif.got.tgz:31653.got - 2010.04.10 20:19:32.
