data_PCOD8265488
_publ_section_title
;
Structure prediction by ZEFSAII (Michael W. Deem and Ramdas Pophale) SiO2 
 PCOD8265488
Probable space group: C M M M
;
_chemical_formula_sum "Si O2"
_cell_formula_units_Z 88
_cell_length_a 8.701313
_cell_length_b 31.349403
_cell_length_c 17.171616
_cell_angle_alpha 90.000000
_cell_angle_beta 90.000000
_cell_angle_gamma 90.000000
_cell_volume 4684.090032
_symmetry_space_group_name_H-M "C M M M"
_symmetry_group_IT_number 65
_symmetry_cell_setting 'orthorhombic'
loop_
_space_group_symop_operation_xyz
x,y,z
-x,-y,z
x,-y,-z
-x,y,-z
-x,-y,-z
x,y,-z
-x,y,z
x,-y,z
1/2+x,1/2+y,z
1/2-x,1/2-y,z
1/2+x,1/2-y,-z
1/2-x,1/2+y,-z
1/2-x,1/2-y,-z
1/2+x,1/2+y,-z
1/2-x,1/2+y,z
1/2+x,1/2-y,z
loop_
_atom_site_type_symbol
_atom_site_label
_atom_site_fract_x
_atom_site_fract_y
_atom_site_fract_z
Si Si1 0.183023 0.294354 0.660738
Si Si2 0.821852 0.584103 0.500000
Si Si3 0.181017 0.175360 0.500000
Si Si4 0.180799 0.453305 0.335787
Si Si5 0.319136 0.087035 0.913648
Si Si6 0.328862 0.500000 0.092375
Si Si7 0.181878 0.373874 0.759076
O O1 0.250000 0.250000 0.692777
O O2 0.245332 0.302566 0.574844
O O3 0.245820 0.330857 0.719821
O O4 0.000000 0.292905 0.658866
O O5 0.715609 0.625469 0.500000
O O6 0.782071 0.555601 0.425746
O O7 0.000000 0.599130 0.500000
O O8 0.000000 0.183586 0.500000
O O9 0.250534 0.500000 0.313714
O O10 0.253599 0.415469 0.283738
O O11 0.000000 0.454531 0.321908
O O12 0.500000 0.082240 0.919537
O O13 0.273648 0.123741 0.851130
O O14 0.257694 0.042389 0.879322
O O15 0.251633 0.098068 0.000000
O O16 0.500000 0.500000 0.126992
O O17 0.330623 0.500000 0.000000
O O18 0.000000 0.374551 0.747858
#
# Coordination Sequence:
#
# PCOD8265488 Si02
#       7
#    16   8   8  16  16   8  16
#     4  11  22  39  59  80 104 133 170 213 262 312
#     4  10  17  31  51  73 102 139 177 217 256 299
#     4  12  23  36  55  80 107 139 172 209 259 312
#     4   9  16  26  46  75 101 132 175 217 253 296
#     4   9  17  30  50  76 103 134 175 220 261 303
#     4   9  17  29  45  69 103 142 177 210 255 309
#     4   9  18  31  51  78 105 133 168 216 263 304
#
# _framework density 18.786999999999999
#
# number of rings (size 3 to 8) (size 9 to 14) (size 15 to 20)
#    0.000    2.273    1.818    2.182    1.273    2.182 
#    0.000    1.818    0.000    1.636    0.000    0.000 
#    0.000    0.000    0.000    0.000    0.000    0.182 
#
# Total GULP energy -545380.796260 kJ/mol
# GULP energy per Si atom -12395.018097 kJ/mol
# Density = 1.874424 g / cm^3
# Si number density = 18.787000 Si / 1000 Ang^3
#
#
#
# Elastic Constant Matrix: (Units=GPa)
#
#
# Indices 1 2 3 4 5 6 
#
# 1 41.5236 23.6564 23.0831 0.0000 0.0000 0.0000
# 2 23.6564 160.9393 74.0676 0.0000 0.0000 0.0000
# 3 23.0831 74.0676 123.8204 0.0000 0.0000 0.0000
# 4 0.0000 0.0000 0.0000 76.3330 0.0000 0.0000
# 5 0.0000 0.0000 0.0000 0.0000 7.6597 0.0000
# 6 0.0000 0.0000 0.0000 0.0000 0.0000 22.5333
#
#
#
# Elastic Compliance Matrix: (Units=1/GPa)
#
#
# Indices 1 2 3 4 5 6 
#
# 1 0.027481 -0.002320 -0.003735 0.000000 0.000000 0.000000
# 2 -0.002320 0.008770 -0.004813 0.000000 0.000000 0.000000
# 3 -0.003735 -0.004813 0.011652 0.000000 0.000000 0.000000
# 4 0.000000 0.000000 0.000000 0.013100 0.000000 0.000000
# 5 0.000000 0.000000 0.000000 0.000000 0.130553 0.000000
# 6 0.000000 0.000000 0.000000 0.000000 0.000000 0.044379
#
#
# Mechanical properties :
#
#
# Convention : Reuss Voigt Hill
#
# Bulk Modulus (GPa) = 38.21921 63.09971 50.65946
# Shear Modulus (GPa) = 18.76917 35.00362 26.88639
#
# Velocity S-wave (km/s) = 3.16421 4.32114 3.78711
# Velocity P-wave (km/s) = 5.80837 7.65220 6.79314
#
# Compressibility (1/GPa) = 0.02616485
#
# Stress axis : x y z
#
# Youngs Moduli (GPa) = 36.38874 114.02733 85.82356
#
# Poissons Ratio (x) = 0.26460 0.32055
# Poissons Ratio (y) = 0.08444 0.41310
# Poissons Ratio (z) = 0.13591 0.54886
#
# Static dielectric constant tensor:
#      x y z
#    x 3.114640 0.000000 0.000000 
#    y 0.000000 3.676180 0.000000 
#    z 0.000000 0.000000 3.653550 
# 
# 
# High freq. dielectric constant tensor:
#      x y z
#    x 1.689380 0.000000 0.000000 
#    y 0.000000 1.722450 0.000000 
#    z 0.000000 0.000000 1.730760 
# 
# From -- ./inp_files/50480.got.cif
#   From: 2010.03.12/outbox.cif.g09.slc.cpg/sg65_26_cif.got.tgz:50480.got - 2010.04.10 20:52:16.
