data_PCOD8265299
_publ_section_title
;
Structure prediction by ZEFSAII (Michael W. Deem and Ramdas Pophale) SiO2 
 PCOD8265299
Probable space group: C M M M
;
_chemical_formula_sum "Si O2"
_cell_formula_units_Z 72
_cell_length_a 17.566818
_cell_length_b 20.798304
_cell_length_c 11.826171
_cell_angle_alpha 90.000000
_cell_angle_beta 90.000000
_cell_angle_gamma 90.000000
_cell_volume 4320.810086
_symmetry_space_group_name_H-M "C M M M"
_symmetry_group_IT_number 65
_symmetry_cell_setting 'orthorhombic'
loop_
_space_group_symop_operation_xyz
x,y,z
-x,-y,z
x,-y,-z
-x,y,-z
-x,-y,-z
x,y,-z
-x,y,z
x,-y,z
1/2+x,1/2+y,z
1/2-x,1/2-y,z
1/2+x,1/2-y,-z
1/2-x,1/2+y,-z
1/2-x,1/2-y,-z
1/2+x,1/2+y,-z
1/2-x,1/2+y,z
1/2+x,1/2-y,z
loop_
_atom_site_type_symbol
_atom_site_label
_atom_site_fract_x
_atom_site_fract_y
_atom_site_fract_z
Si Si1 0.000000 0.075988 0.370436
Si Si2 0.349552 0.806878 0.000000
Si Si3 0.131137 0.853728 0.759307
Si Si4 0.683962 0.657054 0.000000
Si Si5 0.585899 0.794026 0.236833
Si Si6 0.774010 0.323705 0.374117
O O1 0.074102 0.098865 0.303354
O O2 0.000000 0.102764 0.500000
O O3 0.000000 0.000000 0.372313
O O4 0.399941 0.820016 0.889498
O O5 0.324861 0.733238 0.000000
O O6 0.275403 0.853472 0.000000
O O7 0.098514 0.782054 0.752854
O O8 0.212685 0.861945 0.699544
O O9 0.143406 0.873882 0.890264
O O10 0.500000 0.810465 0.272830
O O11 0.642412 0.831468 0.320729
O O12 0.775696 0.352564 0.500000
O O13 0.750000 0.250000 0.375153
#
# Coordination Sequence:
#
# PCOD8265299 Si02
#       6
#     8   8  16   8  16  16
#     4  11  24  39  53  69  91 124 171 217 248 283
#     4   9  15  26  41  66  94 125 159 191 222 283
#     4  10  18  33  48  65  90 125 163 198 246 284
#     4   9  16  27  50  65  87 122 160 195 232 285
#     4  10  17  26  42  68  97 127 159 193 232 285
#     4   9  17  27  41  61  89 125 162 194 231 287
#
# _framework density 16.663542
#
# number of rings (size 3 to 8) (size 9 to 14) (size 15 to 20)
#    0.000    2.333    3.333    1.000    0.000    1.778 
#    0.000    1.111    0.000    0.000    0.000    0.000 
#    0.000    0.889    0.000    6.667    0.000    0.000 
#
# Total GULP energy -446282.322299 kJ/mol
# GULP energy per Si atom -12396.731175 kJ/mol
# Density = 1.662562 g / cm^3
# Si number density = 16.663542 Si / 1000 Ang^3
#
#
#
# Elastic Constant Matrix: (Units=GPa)
#
#
# Indices 1 2 3 4 5 6 
#
# 1 157.8953 18.6889 73.6912 0.0000 0.0000 0.0000
# 2 18.6889 21.6065 22.5600 0.0000 0.0000 0.0000
# 3 73.6912 22.5600 161.3546 0.0000 0.0000 0.0000
# 4 0.0000 0.0000 0.0000 12.2092 0.0000 0.0000
# 5 0.0000 0.0000 0.0000 0.0000 24.0694 0.0000
# 6 0.0000 0.0000 0.0000 0.0000 0.0000 10.6046
#
#
#
# Elastic Compliance Matrix: (Units=1/GPa)
#
#
# Indices 1 2 3 4 5 6 
#
# 1 0.008304 -0.003774 -0.003265 0.000000 0.000000 0.000000
# 2 -0.003774 0.055909 -0.006094 0.000000 0.000000 0.000000
# 3 -0.003265 -0.006094 0.008541 0.000000 0.000000 0.000000
# 4 0.000000 0.000000 0.000000 0.081906 0.000000 0.000000
# 5 0.000000 0.000000 0.000000 0.000000 0.041547 0.000000
# 6 0.000000 0.000000 0.000000 0.000000 0.000000 0.094299
#
#
# Mechanical properties :
#
#
# Convention : Reuss Voigt Hill
#
# Bulk Modulus (GPa) = 21.51035 63.41520 42.46277
# Shear Modulus (GPa) = 15.04826 24.43770 19.74298
#
# Velocity S-wave (km/s) = 3.00836 3.83369 3.44583
# Velocity P-wave (km/s) = 5.00037 7.59836 6.43191
#
# Compressibility (1/GPa) = 0.04648925
#
# Stress axis : x y z
#
# Youngs Moduli (GPa) = 120.42933 17.88627 117.08909
#
# Poissons Ratio (x) = 0.06750 0.38226
# Poissons Ratio (y) = 0.45445 0.71349
# Poissons Ratio (z) = 0.39316 0.10899
#
# Static dielectric constant tensor:
#      x y z
#    x 3.238520 0.000000 0.000000 
#    y 0.000000 2.401660 0.000000 
#    z 0.000000 0.000000 3.504260 
# 
# 
# High freq. dielectric constant tensor:
#      x y z
#    x 1.654860 0.000000 0.000000 
#    y 0.000000 1.549850 0.000000 
#    z 0.000000 0.000000 1.663610 
# 
# From -- ./inp_files/26363.got.cif
#   From: 2010.03.12/outbox.cif.g09.slc.cpg/sg65_14_cif.got.tgz:26363.got - 2010.04.10 20:52:16.
