data_PCOD8265757
_publ_section_title
;
Structure prediction by ZEFSAII (Michael W. Deem and Ramdas Pophale) SiO2 
 PCOD8265757
Probable space group: C M M M
;
_chemical_formula_sum "Si O2"
_cell_formula_units_Z 68
_cell_length_a 22.090161
_cell_length_b 14.184663
_cell_length_c 12.005157
_cell_angle_alpha 90.000000
_cell_angle_beta 90.000000
_cell_angle_gamma 90.000000
_cell_volume 3761.713775
_symmetry_space_group_name_H-M "C M M M"
_symmetry_group_IT_number 65
_symmetry_cell_setting 'orthorhombic'
loop_
_space_group_symop_operation_xyz
x,y,z
-x,-y,z
x,-y,-z
-x,y,-z
-x,-y,-z
x,y,-z
-x,y,z
x,-y,z
1/2+x,1/2+y,z
1/2-x,1/2-y,z
1/2+x,1/2-y,-z
1/2-x,1/2+y,-z
1/2-x,1/2-y,-z
1/2+x,1/2+y,-z
1/2-x,1/2+y,z
1/2+x,1/2-y,z
loop_
_atom_site_type_symbol
_atom_site_label
_atom_site_fract_x
_atom_site_fract_y
_atom_site_fract_z
Si Si1 0.929601 0.500000 0.762626
Si Si2 0.435414 0.210373 0.000000
Si Si3 0.082603 0.500000 0.000000
Si Si4 0.569670 0.189309 0.629316
Si Si5 0.651738 0.256138 0.803059
Si Si6 0.751935 0.608382 0.867824
O O1 0.885587 0.500000 0.875412
O O2 0.916580 0.410116 0.687415
O O3 0.000000 0.500000 0.803991
O O4 0.400457 0.240802 0.891459
O O5 0.451612 0.099214 0.000000
O O6 0.500000 0.263084 0.000000
O O7 0.584855 0.180234 0.500000
O O8 0.500000 0.220577 0.647659
O O9 0.616923 0.263285 0.684229
O O10 0.686396 0.352884 0.830396
O O11 0.697388 0.167681 0.803825
O O12 0.755313 0.500000 0.832268
O O13 0.761759 0.622137 0.000000
#
# Coordination Sequence:
#
# PCOD8265757 Si02
#       6
#     8   8   4  16  16  16
#     4  10  18  28  43  71 112 148 176 205 254 328
#     4  12  21  29  48  82 115 139 171 219 273 327
#     4  12  21  26  42  82 120 144 166 208 269 318
#     4  10  21  35  52  76 111 151 182 218 272 330
#     4  11  20  35  56  81 107 143 184 222 267 322
#     4  10  21  37  56  79 110 146 182 223 275 325
#
# _framework density 18.076867
#
# number of rings (size 3 to 8) (size 9 to 14) (size 15 to 20)
#    0.000    1.412    4.706    2.824    3.294    1.412 
#    0.000    2.353    0.000    5.647    0.000    1.647 
#    0.000    0.000    0.000    0.000    0.000    0.000 
#
# Total GULP energy -421244.108477 kJ/mol
# GULP energy per Si atom -12389.532602 kJ/mol
# Density = 1.803572 g / cm^3
# Si number density = 18.076867 Si / 1000 Ang^3
#
#
#
# Elastic Constant Matrix: (Units=GPa)
#
#
# Indices 1 2 3 4 5 6 
#
# 1 93.9119 27.2525 40.6566 0.0000 0.0000 0.0000
# 2 27.2525 66.6710 16.6615 0.0000 0.0000 0.0000
# 3 40.6566 16.6615 125.1193 0.0000 0.0000 0.0000
# 4 0.0000 0.0000 0.0000 34.9846 0.0000 0.0000
# 5 0.0000 0.0000 0.0000 0.0000 23.4139 0.0000
# 6 0.0000 0.0000 0.0000 0.0000 0.0000 471.2800
#
#
#
# Elastic Compliance Matrix: (Units=1/GPa)
#
#
# Indices 1 2 3 4 5 6 
#
# 1 0.013642 -0.004622 -0.003817 0.000000 0.000000 0.000000
# 2 -0.004622 0.017082 -0.000773 0.000000 0.000000 0.000000
# 3 -0.003817 -0.000773 0.009336 0.000000 0.000000 0.000000
# 4 0.000000 0.000000 0.000000 0.028584 0.000000 0.000000
# 5 0.000000 0.000000 0.000000 0.000000 0.042710 0.000000
# 6 0.000000 0.000000 0.000000 0.000000 0.000000 0.002122
#
#
# Mechanical properties :
#
#
# Convention : Reuss Voigt Hill
#
# Bulk Modulus (GPa) = 46.22228 50.53817 48.38023
# Shear Modulus (GPa) = 35.94234 119.34449 77.64341
#
# Velocity S-wave (km/s) = 4.46388 8.13412 6.56087
# Velocity P-wave (km/s) = 7.22452 10.78131 9.17688
#
# Compressibility (1/GPa) = 0.02163459
#
# Stress axis : x y z
#
# Youngs Moduli (GPa) = 73.30129 58.54262 107.11560
#
# Poissons Ratio (x) = 0.27061 0.40891
# Poissons Ratio (y) = 0.33883 0.08276
# Poissons Ratio (z) = 0.27982 0.04523
#
# Static dielectric constant tensor:
#      x y z
#    x 3.529210 0.000000 0.000000 
#    y 0.000000 3.211640 0.000000 
#    z 0.000000 0.000000 3.498010 
# 
# 
# High freq. dielectric constant tensor:
#      x y z
#    x 1.705550 0.000000 0.000000 
#    y 0.000000 1.664130 0.000000 
#    z 0.000000 0.000000 1.692630 
# 
# From -- ./inp_files/24533.got.cif
#   From: 2010.03.12/outbox.cif.g09.slc.cpg/sg65_13_cif.got.tgz:24533.got - 2010.04.10 20:52:16.
