data_PCOD8265782
_publ_section_title
;
Structure prediction by ZEFSAII (Michael W. Deem and Ramdas Pophale) SiO2 
 PCOD8265782
Probable space group: C M M M
;
_chemical_formula_sum "Si O2"
_cell_formula_units_Z 104
_cell_length_a 18.040568
_cell_length_b 33.955156
_cell_length_c 9.757532
_cell_angle_alpha 90.000000
_cell_angle_beta 90.000000
_cell_angle_gamma 90.000000
_cell_volume 5977.174312
_symmetry_space_group_name_H-M "C M M M"
_symmetry_group_IT_number 65
_symmetry_cell_setting 'orthorhombic'
loop_
_space_group_symop_operation_xyz
x,y,z
-x,-y,z
x,-y,-z
-x,y,-z
-x,-y,-z
x,y,-z
-x,y,z
x,-y,z
1/2+x,1/2+y,z
1/2-x,1/2-y,z
1/2+x,1/2-y,-z
1/2-x,1/2+y,-z
1/2-x,1/2-y,-z
1/2+x,1/2+y,-z
1/2-x,1/2+y,z
1/2+x,1/2-y,z
loop_
_atom_site_type_symbol
_atom_site_label
_atom_site_fract_x
_atom_site_fract_y
_atom_site_fract_z
Si Si1 0.641668 0.592450 0.662506
Si Si2 0.588028 0.251010 0.151210
Si Si3 0.500000 0.543595 0.337920
Si Si4 0.412049 0.815586 0.348296
Si Si5 0.586073 0.339656 0.839703
Si Si6 0.917649 0.597370 0.663536
Si Si7 0.285583 0.955778 0.662819
O O1 0.640471 0.601067 0.500000
O O2 0.572802 0.566161 0.711683
O O3 0.637877 0.633226 0.745056
O O4 0.714799 0.569277 0.709290
O O5 0.500000 0.247425 0.147055
O O6 0.622730 0.218466 0.252859
O O7 0.609453 0.295042 0.197847
O O8 0.620253 0.242612 0.000000
O O9 0.500000 0.500000 0.272453
O O10 0.500000 0.540161 0.500000
O O11 0.377790 0.810316 0.500000
O O12 0.500000 0.811332 0.356486
O O13 0.392759 0.858885 0.287958
O O14 0.500000 0.346889 0.803027
O O15 0.599974 0.348293 0.000000
O O16 0.919079 0.597583 0.500000
O O17 0.859614 0.565331 0.720444
O O18 0.000000 0.586855 0.719306
O O19 0.288177 0.957873 0.500000
O O20 0.281200 0.000000 0.723634
#
# Coordination Sequence:
#
# PCOD8265782 Si02
#       7
#    16  16   8  16  16  16  16
#     4  10  18  28  44  66  90 118 154 192 226 265
#     4   8  14  24  39  61  88 116 146 182 221 261
#     4   9  16  26  41  61  85 113 145 185 229 265
#     4   8  13  22  38  62  89 115 143 178 220 263
#     4   9  17  29  44  63  90 122 153 187 228 269
#     4   8  14  25  42  65  93 121 148 182 226 272
#     4   9  17  28  43  65  91 119 152 188 226 270
#
# _framework density 17.399526000000002
#
# number of rings (size 3 to 8) (size 9 to 14) (size 15 to 20)
#    0.000    3.308    0.769    2.308    0.000    2.769 
#    0.000    3.077    0.000    4.154    0.000    6.462 
#    0.000    0.000    0.000    7.385    0.000    7.692 
#
# Total GULP energy -644476.419112 kJ/mol
# GULP energy per Si atom -12393.777291 kJ/mol
# Density = 1.735992 g / cm^3
# Si number density = 17.399526 Si / 1000 Ang^3
#
#
#
# Elastic Constant Matrix: (Units=GPa)
#
#
# Indices 1 2 3 4 5 6 
#
# 1 87.7240 64.1584 23.8842 0.0000 0.0000 0.0000
# 2 64.1584 150.1309 49.8276 0.0000 0.0000 0.0000
# 3 23.8842 49.8276 42.0694 0.0000 0.0000 0.0000
# 4 0.0000 0.0000 0.0000 5.6728 0.0000 0.0000
# 5 0.0000 0.0000 0.0000 0.0000 7.5970 0.0000
# 6 0.0000 0.0000 0.0000 0.0000 0.0000 23.3136
#
#
#
# Elastic Compliance Matrix: (Units=1/GPa)
#
#
# Indices 1 2 3 4 5 6 
#
# 1 0.016655 -0.006557 -0.001690 0.000000 0.000000 0.000000
# 2 -0.006557 0.013556 -0.012334 0.000000 0.000000 0.000000
# 3 -0.001690 -0.012334 0.039338 0.000000 0.000000 0.000000
# 4 0.000000 0.000000 0.000000 0.176279 0.000000 0.000000
# 5 0.000000 0.000000 0.000000 0.000000 0.131631 0.000000
# 6 0.000000 0.000000 0.000000 0.000000 0.000000 0.042893
#
#
# Mechanical properties :
#
#
# Convention : Reuss Voigt Hill
#
# Bulk Modulus (GPa) = 35.22538 61.74054 48.48296
# Shear Modulus (GPa) = 10.61624 16.78695 13.70159
#
# Velocity S-wave (km/s) = 2.47279 3.10948 2.80923
# Velocity P-wave (km/s) = 5.33310 6.96081 6.20060
#
# Compressibility (1/GPa) = 0.02838863
#
# Stress axis : x y z
#
# Youngs Moduli (GPa) = 60.04308 73.76586 25.42059
#
# Poissons Ratio (x) = 0.48365 0.04295
# Poissons Ratio (y) = 0.39368 0.31354
# Poissons Ratio (z) = 0.10146 0.90983
#
# Static dielectric constant tensor:
#      x y z
#    x 3.038950 0.000000 0.000000 
#    y 0.000000 3.522330 0.000000 
#    z 0.000000 0.000000 2.991150 
# 
# 
# High freq. dielectric constant tensor:
#      x y z
#    x 1.640930 0.000000 0.000000 
#    y 0.000000 1.685740 0.000000 
#    z 0.000000 0.000000 1.623340 
# 
# From -- ./inp_files/27679.got.cif
#   From: 2010.03.12/outbox.cif.g09.slc.cpg/sg65_14_cif.got.tgz:27679.got - 2010.04.10 20:52:16.
