data_PCOD8265893
_publ_section_title
;
Structure prediction by ZEFSAII (Michael W. Deem and Ramdas Pophale) SiO2 
 PCOD8265893
Probable space group: C M M M
;
_chemical_formula_sum "Si O2"
_cell_formula_units_Z 104
_cell_length_a 26.473511
_cell_length_b 21.681674
_cell_length_c 12.239468
_cell_angle_alpha 90.000000
_cell_angle_beta 90.000000
_cell_angle_gamma 90.000000
_cell_volume 7025.332667
_symmetry_space_group_name_H-M "C M M M"
_symmetry_group_IT_number 65
_symmetry_cell_setting 'orthorhombic'
loop_
_space_group_symop_operation_xyz
x,y,z
-x,-y,z
x,-y,-z
-x,y,-z
-x,-y,-z
x,y,-z
-x,y,z
x,-y,z
1/2+x,1/2+y,z
1/2-x,1/2-y,z
1/2+x,1/2-y,-z
1/2-x,1/2+y,-z
1/2-x,1/2-y,-z
1/2+x,1/2+y,-z
1/2-x,1/2+y,z
1/2+x,1/2-y,z
loop_
_atom_site_type_symbol
_atom_site_label
_atom_site_fract_x
_atom_site_fract_y
_atom_site_fract_z
Si Si1 0.940598 0.654102 0.799641
Si Si2 0.636069 0.244731 0.878165
Si Si3 0.697551 0.068096 0.500000
Si Si4 0.272451 0.681625 0.500000
Si Si5 0.286880 0.308656 0.260119
Si Si6 0.558974 0.932089 0.000000
Si Si7 0.206648 0.372581 0.123710
Si Si8 0.633015 0.068106 0.285435
O O1 0.916832 0.720977 0.825645
O O2 0.911608 0.619612 0.701390
O O3 0.000000 0.661304 0.778353
O O4 0.924935 0.607654 0.896668
O O5 0.660068 0.297425 0.801875
O O6 0.677073 0.191276 0.883923
O O7 0.625363 0.270610 0.000000
O O8 0.732993 0.126517 0.500000
O O9 0.663071 0.074157 0.395581
O O10 0.724589 0.000000 0.500000
O O11 0.250000 0.750000 0.500000
O O12 0.302494 0.673209 0.614802
O O13 0.250000 0.250000 0.263693
O O14 0.257828 0.363054 0.194740
O O15 0.500000 0.941588 0.000000
O O16 0.584959 0.000000 0.000000
O O17 0.171226 0.421683 0.184204
O O18 0.219759 0.395039 0.000000
O O19 0.608931 0.000000 0.272198
#
# Coordination Sequence:
#
# PCOD8265893 Si02
#       8
#    16  16   8   8  16   8  16  16
#     4  10  19  30  42  59  83 112 152 198 237 270
#     4   9  16  26  40  59  82 109 137 174 227 277
#     4  10  20  36  49  63  88 120 155 193 237 280
#     4  10  18  28  48  68  84 109 149 191 223 268
#     4   9  16  26  41  62  83 104 132 177 222 270
#     4   9  16  26  40  56  75 102 140 190 236 267
#     4   9  16  26  40  60  85 106 132 171 223 276
#     4  10  20  31  45  60  82 116 154 193 233 274
#
# _framework density 14.803569
#
# number of rings (size 3 to 8) (size 9 to 14) (size 15 to 20)
#    0.000    2.538    2.308    0.923    3.231    3.077 
#    0.000    0.385    0.000    1.385    0.000    0.000 
#    0.000    0.000    0.000    0.000    0.000    3.846 
#
# Total GULP energy -644178.675636 kJ/mol
# GULP energy per Si atom -12388.051455 kJ/mol
# Density = 1.476988 g / cm^3
# Si number density = 14.803569 Si / 1000 Ang^3
#
#
#
# Elastic Constant Matrix: (Units=GPa)
#
#
# Indices 1 2 3 4 5 6 
#
# 1 76.9761 41.3443 33.5433 0.0000 0.0000 0.0000
# 2 41.3443 38.8531 23.7019 0.0000 0.0000 0.0000
# 3 33.5433 23.7019 101.7918 0.0000 0.0000 0.0000
# 4 0.0000 0.0000 0.0000 20.4824 0.0000 0.0000
# 5 0.0000 0.0000 0.0000 0.0000 6.5937 0.0000
# 6 0.0000 0.0000 0.0000 0.0000 0.0000 19.0615
#
#
#
# Elastic Compliance Matrix: (Units=1/GPa)
#
#
# Indices 1 2 3 4 5 6 
#
# 1 0.031068 -0.031254 -0.002960 0.000000 0.000000 0.000000
# 2 -0.031254 0.061440 -0.004007 0.000000 0.000000 0.000000
# 3 -0.002960 -0.004007 0.011733 0.000000 0.000000 0.000000
# 4 0.000000 0.000000 0.000000 0.048823 0.000000 0.000000
# 5 0.000000 0.000000 0.000000 0.000000 0.151660 0.000000
# 6 0.000000 0.000000 0.000000 0.000000 0.000000 0.052462
#
#
# Mechanical properties :
#
#
# Convention : Reuss Voigt Hill
#
# Bulk Modulus (GPa) = 35.97393 46.08889 41.03141
# Shear Modulus (GPa) = 11.28940 17.16295 14.22618
#
# Velocity S-wave (km/s) = 2.76454 3.40866 3.10336
# Velocity P-wave (km/s) = 5.87740 6.83324 6.37327
#
# Compressibility (1/GPa) = 0.02779791
#
# Stress axis : x y z
#
# Youngs Moduli (GPa) = 32.18782 16.27599 85.23307
#
# Poissons Ratio (x) = 0.50869 0.25232
# Poissons Ratio (y) = 1.00599 0.34154
# Poissons Ratio (z) = 0.09529 0.06522
#
# Static dielectric constant tensor:
#      x y z
#    x 2.648050 0.000000 0.000000 
#    y 0.000000 2.782300 0.000000 
#    z 0.000000 0.000000 3.192130 
# 
# 
# High freq. dielectric constant tensor:
#      x y z
#    x 1.529120 0.000000 0.000000 
#    y 0.000000 1.528440 0.000000 
#    z 0.000000 0.000000 1.580870 
# 
# From -- ./inp_files/34265.got.cif
#   From: 2010.03.12/outbox.cif.g09.slc.cpg/sg65_18_cif.got.tgz:34265.got - 2010.04.10 20:52:16.
