data_PCOD8265271
_publ_section_title
;
Structure prediction by ZEFSAII (Michael W. Deem and Ramdas Pophale) SiO2 
 PCOD8265271
Probable space group: C M M M
;
_chemical_formula_sum "Si O2"
_cell_formula_units_Z 88
_cell_length_a 18.504737
_cell_length_b 8.736226
_cell_length_c 28.937921
_cell_angle_alpha 90.000000
_cell_angle_beta 90.000000
_cell_angle_gamma 90.000000
_cell_volume 4678.149582
_symmetry_space_group_name_H-M "C M M M"
_symmetry_group_IT_number 65
_symmetry_cell_setting 'orthorhombic'
loop_
_space_group_symop_operation_xyz
x,y,z
-x,-y,z
x,-y,-z
-x,y,-z
-x,-y,-z
x,y,-z
-x,y,z
x,-y,z
1/2+x,1/2+y,z
1/2-x,1/2-y,z
1/2+x,1/2-y,-z
1/2-x,1/2+y,-z
1/2-x,1/2-y,-z
1/2+x,1/2+y,-z
1/2-x,1/2+y,z
1/2+x,1/2-y,z
loop_
_atom_site_type_symbol
_atom_site_label
_atom_site_fract_x
_atom_site_fract_y
_atom_site_fract_z
Si Si1 0.328783 0.678520 0.050115
Si Si2 0.585962 0.328139 0.592675
Si Si3 0.414551 0.174617 0.686271
Si Si4 0.169821 0.318606 0.140166
Si Si5 0.671342 0.680064 0.232920
Si Si6 0.586251 0.827430 0.500000
O O1 0.321823 0.500000 0.061271
O O2 0.250000 0.750000 0.046481
O O3 0.370626 0.760225 0.093120
O O4 0.367878 0.704450 0.000000
O O5 0.500000 0.328312 0.590749
O O6 0.615941 0.500000 0.597864
O O7 0.612906 0.227939 0.635956
O O8 0.617030 0.256280 0.545484
O O9 0.500000 0.192713 0.690204
O O10 0.379560 0.283751 0.724168
O O11 0.390002 0.000000 0.694059
O O12 0.169959 0.500000 0.141843
O O13 0.250000 0.250000 0.138820
O O14 0.133873 0.252880 0.186943
O O15 0.678902 0.500000 0.226163
O O16 0.750000 0.750000 0.241985
O O17 0.500000 0.824142 0.500000
O O18 0.615252 0.000000 0.500000
#
# Coordination Sequence:
#
# PCOD8265271 Si02
#       6
#    16  16  16  16  16   8
#     4   9  15  22  33  51  77 109 144 181 224 274
#     4   9  16  26  41  63  91 122 155 191 233 280
#     4  10  20  34  51  72  99 128 159 197 241 286
#     4  10  17  26  40  58  83 114 150 189 231 277
#     4  11  21  34  51  70  95 126 163 201 239 284
#     4   9  15  23  37  59  88 121 154 189 232 279
#
# _framework density 18.810856000000001
#
# number of rings (size 3 to 8) (size 9 to 14) (size 15 to 20)
#    0.000    2.273    0.000    7.364    0.000    5.455 
#    0.000    0.000    0.000    0.000    0.000    0.636 
#    0.000    0.727    0.000    7.636    0.000    6.364 
#
# Total GULP energy -545322.826446 kJ/mol
# GULP energy per Si atom -12393.700601 kJ/mol
# Density = 1.876804 g / cm^3
# Si number density = 18.810856 Si / 1000 Ang^3
#
#
#
# Elastic Constant Matrix: (Units=GPa)
#
#
# Indices 1 2 3 4 5 6 
#
# 1 10.7501 16.6176 20.9813 0.0000 0.0000 0.0000
# 2 16.6176 166.5605 70.1628 0.0000 0.0000 0.0000
# 3 20.9813 70.1628 185.3872 0.0000 0.0000 0.0000
# 4 0.0000 0.0000 0.0000 41.6107 0.0000 0.0000
# 5 0.0000 0.0000 0.0000 0.0000 19.0244 0.0000
# 6 0.0000 0.0000 0.0000 0.0000 0.0000 13.8913
#
#
#
# Elastic Compliance Matrix: (Units=1/GPa)
#
#
# Indices 1 2 3 4 5 6 
#
# 1 0.127587 -0.007907 -0.011447 0.000000 0.000000 0.000000
# 2 -0.007907 0.007633 -0.001994 0.000000 0.000000 0.000000
# 3 -0.011447 -0.001994 0.007444 0.000000 0.000000 0.000000
# 4 0.000000 0.000000 0.000000 0.024032 0.000000 0.000000
# 5 0.000000 0.000000 0.000000 0.000000 0.052564 0.000000
# 6 0.000000 0.000000 0.000000 0.000000 0.000000 0.071988
#
#
# Mechanical properties :
#
#
# Convention : Reuss Voigt Hill
#
# Bulk Modulus (GPa) = 10.00321 64.24683 37.12502
# Shear Modulus (GPa) = 13.61407 31.90103 22.75755
#
# Velocity S-wave (km/s) = 2.69315 4.12258 3.48200
# Velocity P-wave (km/s) = 3.87299 7.54249 5.99538
#
# Compressibility (1/GPa) = 0.09996788
#
# Stress axis : x y z
#
# Youngs Moduli (GPa) = 7.83776 131.01706 134.33220
#
# Poissons Ratio (x) = 1.03599 1.53772
# Poissons Ratio (y) = 0.06198 0.26783
# Poissons Ratio (z) = 0.08972 0.26122
#
# Static dielectric constant tensor:
#      x y z
#    x 2.650450 0.000000 0.000000 
#    y 0.000000 3.667960 0.000000 
#    z 0.000000 0.000000 4.512570 
# 
# 
# High freq. dielectric constant tensor:
#      x y z
#    x 1.630650 0.000000 0.000000 
#    y 0.000000 1.753230 0.000000 
#    z 0.000000 0.000000 1.766300 
# 
# From -- ./inp_files/78103.got.cif
#   From: 2010.03.12/outbox.cif.g09.slc.cpg/sg65_40_cif.got.tgz:78103.got - 2010.04.10 20:52:16.
