data_PCOD8265831
_publ_section_title
;
Structure prediction by ZEFSAII (Michael W. Deem and Ramdas Pophale) SiO2 
 PCOD8265831
Probable space group: C M M M
;
_chemical_formula_sum "Si O2"
_cell_formula_units_Z 80
_cell_length_a 25.518336
_cell_length_b 20.437426
_cell_length_c 8.660397
_cell_angle_alpha 90.000000
_cell_angle_beta 90.000000
_cell_angle_gamma 90.000000
_cell_volume 4516.649085
_symmetry_space_group_name_H-M "C M M M"
_symmetry_group_IT_number 65
_symmetry_cell_setting 'orthorhombic'
loop_
_space_group_symop_operation_xyz
x,y,z
-x,-y,z
x,-y,-z
-x,y,-z
-x,-y,-z
x,y,-z
-x,y,z
x,-y,z
1/2+x,1/2+y,z
1/2-x,1/2-y,z
1/2+x,1/2-y,-z
1/2-x,1/2+y,-z
1/2-x,1/2-y,-z
1/2+x,1/2+y,-z
1/2-x,1/2+y,z
1/2+x,1/2-y,z
loop_
_atom_site_type_symbol
_atom_site_label
_atom_site_fract_x
_atom_site_fract_y
_atom_site_fract_z
Si Si1 0.895460 0.623623 0.681190
Si Si2 0.888364 0.227220 0.316546
Si Si3 0.206993 0.573818 0.823467
Si Si4 0.000000 0.775097 0.681318
Si Si5 0.721888 0.317472 0.317691
Si Si6 0.500000 0.866443 0.819148
O O1 0.905820 0.619303 0.500000
O O2 0.883411 0.697663 0.737888
O O3 0.845545 0.580355 0.723687
O O4 0.946852 0.595423 0.770536
O O5 0.887718 0.226712 0.500000
O O6 0.944249 0.196307 0.254185
O O7 0.838450 0.186207 0.257624
O O8 0.228051 0.500000 0.804095
O O9 0.252524 0.621575 0.766724
O O10 0.193478 0.590121 0.000000
O O11 0.000000 0.698524 0.715844
O O12 0.000000 0.785418 0.500000
O O13 0.726025 0.328951 0.500000
O O14 0.750000 0.250000 0.271554
O O15 0.500000 0.851133 0.000000
#
# Coordination Sequence:
#
# PCOD8265831 Si02
#       6
#    16  16  16   8  16   8
#     4  10  18  33  53  72  97 133 175 213 253 300
#     4   8  14  26  47  74 100 127 162 208 250 292
#     4  11  24  38  50  71 104 137 169 212 264 311
#     4   8  14  26  44  69 102 137 168 200 250 304
#     4  10  18  32  53  77 102 131 171 214 253 302
#     4  10  18  28  45  73 104 133 167 210 256 298
#
# _framework density 17.712246
#
# number of rings (size 3 to 8) (size 9 to 14) (size 15 to 20)
#    0.000    2.400    2.000    3.300    0.000    2.000 
#    0.000    1.500    0.000    3.000    0.000    0.700 
#    0.000    5.600    0.000    0.000    0.000    0.000 
#
# Total GULP energy -495624.316505 kJ/mol
# GULP energy per Si atom -12390.607913 kJ/mol
# Density = 1.767193 g / cm^3
# Si number density = 17.712246 Si / 1000 Ang^3
#
#
#
# Elastic Constant Matrix: (Units=GPa)
#
#
# Indices 1 2 3 4 5 6 
#
# 1 168.3787 50.7934 29.1758 0.0000 0.0000 0.0000
# 2 50.7934 67.2649 26.3108 0.0000 0.0000 0.0000
# 3 29.1758 26.3108 38.1620 0.0000 0.0000 0.0000
# 4 0.0000 0.0000 0.0000 19.7245 0.0000 0.0000
# 5 0.0000 0.0000 0.0000 0.0000 21.2021 0.0000
# 6 0.0000 0.0000 0.0000 0.0000 0.0000 16.8652
#
#
#
# Elastic Compliance Matrix: (Units=1/GPa)
#
#
# Indices 1 2 3 4 5 6 
#
# 1 0.007879 -0.004921 -0.002631 0.000000 0.000000 0.000000
# 2 -0.004921 0.023429 -0.012391 0.000000 0.000000 0.000000
# 3 -0.002631 -0.012391 0.036759 0.000000 0.000000 0.000000
# 4 0.000000 0.000000 0.000000 0.050698 0.000000 0.000000
# 5 0.000000 0.000000 0.000000 0.000000 0.047165 0.000000
# 6 0.000000 0.000000 0.000000 0.000000 0.000000 0.059294
#
#
# Mechanical properties :
#
#
# Convention : Reuss Voigt Hill
#
# Bulk Modulus (GPa) = 35.48507 54.04062 44.76285
# Shear Modulus (GPa) = 18.21460 22.72674 20.47067
#
# Velocity S-wave (km/s) = 3.21029 3.58594 3.40330
# Velocity P-wave (km/s) = 5.81541 6.90810 6.38517
#
# Compressibility (1/GPa) = 0.02818086
#
# Stress axis : x y z
#
# Youngs Moduli (GPa) = 126.91475 42.68186 27.20410
#
# Poissons Ratio (x) = 0.21002 0.07159
# Poissons Ratio (y) = 0.62449 0.33710
# Poissons Ratio (z) = 0.33397 0.52889
#
# Static dielectric constant tensor:
#      x y z
#    x 4.060100 0.000000 0.000000 
#    y 0.000000 2.883120 0.000000 
#    z 0.000000 0.000000 3.072830 
# 
# 
# High freq. dielectric constant tensor:
#      x y z
#    x 1.710180 0.000000 0.000000 
#    y 0.000000 1.625680 0.000000 
#    z 0.000000 0.000000 1.669680 
# 
# From -- ./inp_files/11554.got.cif
#   From: 2010.03.12/outbox.cif.g09.slc.cpg/sg65_6_cif.got.tgz:11554.got - 2010.04.10 20:52:16.
