data_PCOD8265405
_publ_section_title
;
Structure prediction by ZEFSAII (Michael W. Deem and Ramdas Pophale) SiO2 
 PCOD8265405
Probable space group: C M M M
;
_chemical_formula_sum "Si O2"
_cell_formula_units_Z 128
_cell_length_a 18.554467
_cell_length_b 19.789544
_cell_length_c 21.330784
_cell_angle_alpha 90.000000
_cell_angle_beta 90.000000
_cell_angle_gamma 90.000000
_cell_volume 7832.332001
_symmetry_space_group_name_H-M "C M M M"
_symmetry_group_IT_number 65
_symmetry_cell_setting 'orthorhombic'
loop_
_space_group_symop_operation_xyz
x,y,z
-x,-y,z
x,-y,-z
-x,y,-z
-x,-y,-z
x,y,-z
-x,y,z
x,-y,z
1/2+x,1/2+y,z
1/2-x,1/2-y,z
1/2+x,1/2-y,-z
1/2-x,1/2+y,-z
1/2-x,1/2-y,-z
1/2+x,1/2+y,-z
1/2-x,1/2+y,z
1/2+x,1/2-y,z
loop_
_atom_site_type_symbol
_atom_site_label
_atom_site_fract_x
_atom_site_fract_y
_atom_site_fract_z
Si Si1 0.579644 0.773561 0.646872
Si Si2 0.580265 0.924440 0.834006
Si Si3 0.192137 0.079802 0.329742
Si Si4 0.166542 0.636807 0.730518
Si Si5 0.189647 0.197082 0.426939
Si Si6 0.085401 0.683923 0.070294
Si Si7 0.581758 0.344195 0.746023
Si Si8 0.330501 0.255649 0.830504
O O1 0.500000 0.797142 0.626463
O O2 0.624790 0.840118 0.667353
O O3 0.614711 0.734589 0.588054
O O4 0.575242 0.722526 0.704573
O O5 0.500000 0.897691 0.819114
O O6 0.623332 0.919653 0.769071
O O7 0.612166 0.882618 0.892393
O O8 0.580345 0.000000 0.858486
O O9 0.257188 0.104134 0.285839
O O10 0.195465 0.124586 0.392925
O O11 0.117168 0.094177 0.293163
O O12 0.197349 0.000000 0.345921
O O13 0.172075 0.701137 0.775141
O O14 0.196894 0.182048 0.500000
O O15 0.250000 0.250000 0.402664
O O16 0.116757 0.745221 0.110623
O O17 0.000000 0.690292 0.067541
O O18 0.117368 0.682682 0.000000
O O19 0.500000 0.364428 0.768147
O O20 0.637736 0.325939 0.802386
O O21 0.250000 0.250000 0.858078
#
# Coordination Sequence:
#
# PCOD8265405 Si02
#       8
#    16  16  16  16  16  16  16  16
#     4   9  17  29  51  75  96 125 161 203 246 289
#     4   9  17  28  43  64  93 130 165 194 232 291
#     4  11  21  32  51  76 102 133 163 201 251 299
#     4  10  17  29  46  71 102 123 155 201 249 290
#     4  10  20  35  53  72  98 132 170 210 245 291
#     4   9  18  30  43  64  96 130 163 202 245 288
#     4   9  18  31  48  72  99 130 162 197 244 301
#     4  10  17  28  50  71  93 124 161 208 248 288
#
# _framework density 16.342514999999999
#
# number of rings (size 3 to 8) (size 9 to 14) (size 15 to 20)
#    0.000    2.375    2.500    1.125    0.000    4.250 
#    0.000    1.250    0.000    0.000    0.000    3.500 
#    0.000    2.500    0.000    2.625    0.000    0.250 
#
# Total GULP energy -792947.062300 kJ/mol
# GULP energy per Si atom -12389.797848 kJ/mol
# Density = 1.630532 g / cm^3
# Si number density = 16.342515 Si / 1000 Ang^3
#
#
#
# Elastic Constant Matrix: (Units=GPa)
#
#
# Indices 1 2 3 4 5 6 
#
# 1 85.1883 29.6176 30.5309 0.0000 0.0000 0.0000
# 2 29.6176 74.0506 37.2602 0.0000 0.0000 0.0000
# 3 30.5309 37.2602 81.5947 0.0000 0.0000 0.0000
# 4 0.0000 0.0000 0.0000 9.9431 0.0000 0.0000
# 5 0.0000 0.0000 0.0000 0.0000 20.2768 0.0000
# 6 0.0000 0.0000 0.0000 0.0000 0.0000 17.0598
#
#
#
# Elastic Compliance Matrix: (Units=1/GPa)
#
#
# Indices 1 2 3 4 5 6 
#
# 1 0.014398 -0.003957 -0.003580 0.000000 0.000000 0.000000
# 2 -0.003957 0.018620 -0.007022 0.000000 0.000000 0.000000
# 3 -0.003580 -0.007022 0.016802 0.000000 0.000000 0.000000
# 4 0.000000 0.000000 0.000000 0.100572 0.000000 0.000000
# 5 0.000000 0.000000 0.000000 0.000000 0.049317 0.000000
# 6 0.000000 0.000000 0.000000 0.000000 0.000000 0.058617
#
#
# Mechanical properties :
#
#
# Convention : Reuss Voigt Hill
#
# Bulk Modulus (GPa) = 48.30739 48.40567 48.35653
# Shear Modulus (GPa) = 16.98677 19.01761 18.00219
#
# Velocity S-wave (km/s) = 3.22750 3.41499 3.32257
# Velocity P-wave (km/s) = 6.59640 6.72557 6.66130
#
# Compressibility (1/GPa) = 0.02070077
#
# Stress axis : x y z
#
# Youngs Moduli (GPa) = 69.45602 53.70452 59.51623
#
# Poissons Ratio (x) = 0.21251 0.21309
# Poissons Ratio (y) = 0.27484 0.41795
# Poissons Ratio (z) = 0.24867 0.37713
#
# Static dielectric constant tensor:
#      x y z
#    x 3.338600 0.000000 0.000000 
#    y 0.000000 2.873340 0.000000 
#    z 0.000000 0.000000 2.940610 
# 
# 
# High freq. dielectric constant tensor:
#      x y z
#    x 1.637060 0.000000 0.000000 
#    y 0.000000 1.600720 0.000000 
#    z 0.000000 0.000000 1.608960 
# 
# From -- ./inp_files/64154.got.cif
#   From: 2010.03.12/outbox.cif.g09.slc.cpg/sg65_33_cif.got.tgz:64154.got - 2010.04.10 20:52:16.
