data_PCOD8265055
_publ_section_title
;
Structure prediction by ZEFSAII (Michael W. Deem and Ramdas Pophale) SiO2 
 PCOD8265055
Probable space group: C M M M
;
_chemical_formula_sum "Si O2"
_cell_formula_units_Z 72
_cell_length_a 17.533512
_cell_length_b 21.095638
_cell_length_c 11.770131
_cell_angle_alpha 90.000000
_cell_angle_beta 90.000000
_cell_angle_gamma 90.000000
_cell_volume 4353.543376
_symmetry_space_group_name_H-M "C M M M"
_symmetry_group_IT_number 65
_symmetry_cell_setting 'orthorhombic'
loop_
_space_group_symop_operation_xyz
x,y,z
-x,-y,z
x,-y,-z
-x,y,-z
-x,-y,-z
x,y,-z
-x,y,z
x,-y,z
1/2+x,1/2+y,z
1/2-x,1/2-y,z
1/2+x,1/2-y,-z
1/2-x,1/2+y,-z
1/2-x,1/2-y,-z
1/2+x,1/2+y,-z
1/2-x,1/2+y,z
1/2+x,1/2-y,z
loop_
_atom_site_type_symbol
_atom_site_label
_atom_site_fract_x
_atom_site_fract_y
_atom_site_fract_z
Si Si1 0.833412 0.720187 0.000000
Si Si2 0.587503 0.744123 0.370792
Si Si3 0.799004 0.686476 0.766533
Si Si4 0.410608 0.649376 0.000000
Si Si5 0.089734 0.000000 0.632134
Si Si6 0.351815 0.623145 0.243201
O O1 0.750000 0.750000 0.000000
O O2 0.842409 0.676855 0.887337
O O3 0.896735 0.775255 0.000000
O O4 0.608495 0.726816 0.500000
O O5 0.500000 0.764185 0.358401
O O6 0.638050 0.804732 0.332102
O O7 0.603254 0.683181 0.293467
O O8 0.750000 0.750000 0.774755
O O9 0.740012 0.629700 0.741315
O O10 0.372436 0.617167 0.110365
O O11 0.500000 0.635153 0.000000
O O12 0.124709 0.938690 0.689868
O O13 0.111214 0.000000 0.500000
O O14 0.000000 0.000000 0.651130
#
# Coordination Sequence:
#
# PCOD8265055 Si02
#       6
#     8  16  16   8   8  16
#     4  10  14  30  46  70  98 125 151 190 247 302
#     4  10  19  30  46  71 100 126 159 205 254 301
#     4   9  17  29  49  69  95 125 159 198 249 300
#     4  12  20  29  51  76 102 132 162 201 250 300
#     4  11  24  39  51  65  94 137 181 216 243 278
#     4  11  21  34  49  70  97 133 170 207 243 291
#
# _framework density 16.538253999999998
#
# number of rings (size 3 to 8) (size 9 to 14) (size 15 to 20)
#    0.000    1.667    6.667    2.667    0.000    7.111 
#    0.000    1.111    0.000    0.000    0.000    0.778 
#    0.000    2.667    0.000    5.222    0.000    0.667 
#
# Total GULP energy -446276.876068 kJ/mol
# GULP energy per Si atom -12396.579891 kJ/mol
# Density = 1.650061 g / cm^3
# Si number density = 16.538254 Si / 1000 Ang^3
#
#
#
# Elastic Constant Matrix: (Units=GPa)
#
#
# Indices 1 2 3 4 5 6 
#
# 1 86.7166 47.7100 54.5244 0.0000 0.0000 0.0000
# 2 47.7100 65.3358 44.3379 0.0000 0.0000 0.0000
# 3 54.5244 44.3379 133.7818 0.0000 0.0000 0.0000
# 4 0.0000 0.0000 0.0000 391.0506 0.0000 0.0000
# 5 0.0000 0.0000 0.0000 0.0000 25.7419 0.0000
# 6 0.0000 0.0000 0.0000 0.0000 0.0000 22.2087
#
#
#
# Elastic Compliance Matrix: (Units=1/GPa)
#
#
# Indices 1 2 3 4 5 6 
#
# 1 0.021210 -0.012414 -0.004530 0.000000 0.000000 0.000000
# 2 -0.012414 0.027012 -0.003893 0.000000 0.000000 0.000000
# 3 -0.004530 -0.003893 0.010611 0.000000 0.000000 0.000000
# 4 0.000000 0.000000 0.000000 0.002557 0.000000 0.000000
# 5 0.000000 0.000000 0.000000 0.000000 0.038847 0.000000
# 6 0.000000 0.000000 0.000000 0.000000 0.000000 0.045027
#
#
# Mechanical properties :
#
#
# Convention : Reuss Voigt Hill
#
# Bulk Modulus (GPa) = 58.27625 64.33097 61.30361
# Shear Modulus (GPa) = 25.95244 97.08439 61.51842
#
# Velocity S-wave (km/s) = 3.96566 7.67010 6.10560
# Velocity P-wave (km/s) = 7.50215 10.83620 9.31948
#
# Compressibility (1/GPa) = 0.01715965
#
# Stress axis : x y z
#
# Youngs Moduli (GPa) = 47.14695 37.02000 94.23814
#
# Poissons Ratio (x) = 0.45957 0.42692
# Poissons Ratio (y) = 0.58528 0.36686
# Poissons Ratio (z) = 0.21359 0.14412
#
# Static dielectric constant tensor:
#      x y z
#    x 3.336270 0.000000 0.000000 
#    y 0.000000 2.937020 0.000000 
#    z 0.000000 0.000000 3.619340 
# 
# 
# High freq. dielectric constant tensor:
#      x y z
#    x 1.634490 0.000000 0.000000 
#    y 0.000000 1.572340 0.000000 
#    z 0.000000 0.000000 1.664040 
# 
# From -- ./inp_files/26609.got.cif
#   From: 2010.03.12/outbox.cif.g09.slc.cpg/sg65_14_cif.got.tgz:26609.got - 2010.04.10 20:52:16.
