data_PCOD8265683
_publ_section_title
;
Structure prediction by ZEFSAII (Michael W. Deem and Ramdas Pophale) SiO2 
 PCOD8265683
Probable space group: C M M M
;
_chemical_formula_sum "Si O2"
_cell_formula_units_Z 88
_cell_length_a 13.403207
_cell_length_b 17.354169
_cell_length_c 21.237089
_cell_angle_alpha 90.000000
_cell_angle_beta 90.000000
_cell_angle_gamma 90.000000
_cell_volume 4939.779169
_symmetry_space_group_name_H-M "C M M M"
_symmetry_group_IT_number 65
_symmetry_cell_setting 'orthorhombic'
loop_
_space_group_symop_operation_xyz
x,y,z
-x,-y,z
x,-y,-z
-x,y,-z
-x,-y,-z
x,y,-z
-x,y,z
x,-y,z
1/2+x,1/2+y,z
1/2-x,1/2-y,z
1/2+x,1/2-y,-z
1/2-x,1/2+y,-z
1/2-x,1/2-y,-z
1/2+x,1/2+y,-z
1/2-x,1/2+y,z
1/2+x,1/2-y,z
loop_
_atom_site_type_symbol
_atom_site_label
_atom_site_fract_x
_atom_site_fract_y
_atom_site_fract_z
Si Si1 0.384800 0.635288 0.709398
Si Si2 0.224037 0.336167 0.616590
Si Si3 0.614498 0.809700 0.259099
Si Si4 0.611155 0.591482 0.070026
Si Si5 0.613947 0.090848 0.500000
Si Si6 0.241174 0.086368 0.815858
O O1 0.500000 0.620144 0.695328
O O2 0.326747 0.625887 0.642908
O O3 0.361553 0.718903 0.740290
O O4 0.342780 0.576884 0.761333
O O5 0.250000 0.250000 0.593804
O O6 0.143539 0.341181 0.672412
O O7 0.176733 0.382993 0.560015
O O8 0.500000 0.826661 0.246380
O O9 0.672752 0.854390 0.204142
O O10 0.500000 0.623977 0.085060
O O11 0.607051 0.500000 0.073672
O O12 0.690628 0.621541 0.121119
O O13 0.644309 0.618235 0.000000
O O14 0.500000 0.124620 0.500000
O O15 0.607880 0.000000 0.500000
O O16 0.284436 0.000000 0.827442
#
# Coordination Sequence:
#
# PCOD8265683 Si02
#       6
#    16  16  16  16   8  16
#     4   9  18  33  52  72  95 123 155 192 236 285
#     4   9  18  34  53  72  92 121 163 199 227 270
#     4   9  18  33  51  69  93 126 160 192 229 278
#     4   8  14  25  41  63  93 127 161 197 237 281
#     4  11  23  36  51  73 101 129 156 193 240 282
#     4  10  18  27  45  73  99 121 152 197 243 284
#
# _framework density 17.814561000000001
#
# number of rings (size 3 to 8) (size 9 to 14) (size 15 to 20)
#    0.000    2.818    0.000    3.545    0.000    5.091 
#    0.000    0.455    0.000    3.273    0.000    5.091 
#    0.000    0.000    0.000    0.000    0.000    0.000 
#
# Total GULP energy -545333.037800 kJ/mol
# GULP energy per Si atom -12393.932677 kJ/mol
# Density = 1.777401 g / cm^3
# Si number density = 17.814561 Si / 1000 Ang^3
#
#
#
# Elastic Constant Matrix: (Units=GPa)
#
#
# Indices 1 2 3 4 5 6 
#
# 1 113.8987 29.8588 57.8051 0.0000 0.0000 0.0000
# 2 29.8588 40.5623 26.6299 0.0000 0.0000 0.0000
# 3 57.8051 26.6299 109.8203 0.0000 0.0000 0.0000
# 4 0.0000 0.0000 0.0000 8.8359 0.0000 0.0000
# 5 0.0000 0.0000 0.0000 0.0000 29.7538 0.0000
# 6 0.0000 0.0000 0.0000 0.0000 0.0000 24.0277
#
#
#
# Elastic Compliance Matrix: (Units=1/GPa)
#
#
# Indices 1 2 3 4 5 6 
#
# 1 0.013138 -0.006103 -0.005436 0.000000 0.000000 0.000000
# 2 -0.006103 0.032156 -0.004585 0.000000 0.000000 0.000000
# 3 -0.005436 -0.004585 0.013079 0.000000 0.000000 0.000000
# 4 0.000000 0.000000 0.000000 0.113175 0.000000 0.000000
# 5 0.000000 0.000000 0.000000 0.000000 0.033609 0.000000
# 6 0.000000 0.000000 0.000000 0.000000 0.000000 0.041619
#
#
# Mechanical properties :
#
#
# Convention : Reuss Voigt Hill
#
# Bulk Modulus (GPa) = 38.27611 54.76321 46.51966
# Shear Modulus (GPa) = 17.37733 22.52264 19.94999
#
# Velocity S-wave (km/s) = 3.12662 3.55953 3.35008
# Velocity P-wave (km/s) = 5.87936 6.90660 6.41358
#
# Compressibility (1/GPa) = 0.02612596
#
# Stress axis : x y z
#
# Youngs Moduli (GPa) = 76.11370 31.09838 76.46010
#
# Poissons Ratio (x) = 0.18979 0.41561
# Poissons Ratio (y) = 0.46450 0.35058
# Poissons Ratio (z) = 0.41373 0.14259
#
# Static dielectric constant tensor:
#      x y z
#    x 3.424220 0.000000 0.000000 
#    y 0.000000 3.067410 0.000000 
#    z 0.000000 0.000000 3.323660 
# 
# 
# High freq. dielectric constant tensor:
#      x y z
#    x 1.690090 0.000000 0.000000 
#    y 0.000000 1.665160 0.000000 
#    z 0.000000 0.000000 1.680030 
# 
# From -- ./inp_files/62490.got.cif
#   From: 2010.03.12/outbox.cif.g09.slc.cpg/sg65_32_cif.got.tgz:62490.got - 2010.04.10 20:52:16.
