data_PCOD8265603
_publ_section_title
;
Structure prediction by ZEFSAII (Michael W. Deem and Ramdas Pophale) SiO2 
 PCOD8265603
Probable space group: C M M M
;
_chemical_formula_sum "Si O2"
_cell_formula_units_Z 72
_cell_length_a 18.235079
_cell_length_b 31.886483
_cell_length_c 9.060215
_cell_angle_alpha 90.000000
_cell_angle_beta 90.000000
_cell_angle_gamma 90.000000
_cell_volume 5268.084993
_symmetry_space_group_name_H-M "C M M M"
_symmetry_group_IT_number 65
_symmetry_cell_setting 'orthorhombic'
loop_
_space_group_symop_operation_xyz
x,y,z
-x,-y,z
x,-y,-z
-x,y,-z
-x,-y,-z
x,y,-z
-x,y,z
x,-y,z
1/2+x,1/2+y,z
1/2-x,1/2-y,z
1/2+x,1/2-y,-z
1/2-x,1/2+y,-z
1/2-x,1/2-y,-z
1/2+x,1/2+y,-z
1/2-x,1/2+y,z
1/2+x,1/2-y,z
loop_
_atom_site_type_symbol
_atom_site_label
_atom_site_fract_x
_atom_site_fract_y
_atom_site_fract_z
Si Si1 0.915917 0.409221 0.176085
Si Si2 0.294113 0.292994 0.833462
Si Si3 0.915915 0.251270 0.672335
Si Si4 0.831262 0.664727 0.673540
Si Si5 0.586499 0.000000 0.160521
O O1 0.863189 0.376968 0.255720
O O2 0.892663 0.455754 0.238352
O O3 0.000000 0.399166 0.218735
O O4 0.905878 0.406941 0.000000
O O5 0.250000 0.250000 0.829476
O O6 0.373097 0.285246 0.759187
O O7 0.249221 0.327584 0.741605
O O8 0.305375 0.309145 0.000000
O O9 0.905783 0.242506 0.500000
O O10 0.885271 0.297051 0.713594
O O11 0.000000 0.249525 0.722124
O O12 0.822998 0.658692 0.500000
O O13 0.500000 0.000000 0.137439
O O14 0.624460 0.000000 0.000000
#
# Coordination Sequence:
#
# PCOD8265603 Si02
#       5
#    16  16  16  16   8
#     4   9  16  26  40  56  74  98 129 162 192 223
#     4   9  17  28  40  54  72  95 125 159 192 223
#     4   9  17  28  40  54  74 100 127 155 190 230
#     4  10  18  27  39  55  76 101 128 157 190 227
#     4   7  12  24  39  53  71  97 126 155 190 227
#
# _framework density 13.667206
#
# number of rings (size 3 to 8) (size 9 to 14) (size 15 to 20)
#    0.000    3.000    0.000    3.333    0.000    5.333 
#    0.000    0.556    0.000    2.000    0.000    0.000 
#    0.000    0.000    0.000    1.000    0.000   19.333 
#
# Total GULP energy -446155.660313 kJ/mol
# GULP energy per Si atom -12393.212786 kJ/mol
# Density = 1.363610 g / cm^3
# Si number density = 13.667206 Si / 1000 Ang^3
#
#
#
# Elastic Constant Matrix: (Units=GPa)
#
#
# Indices 1 2 3 4 5 6 
#
# 1 85.1430 51.5021 39.5264 0.0000 0.0000 0.0000
# 2 51.5021 94.8342 43.0785 0.0000 0.0000 0.0000
# 3 39.5264 43.0785 58.6276 0.0000 0.0000 0.0000
# 4 0.0000 0.0000 0.0000 12.4996 0.0000 0.0000
# 5 0.0000 0.0000 0.0000 0.0000 22.5797 0.0000
# 6 0.0000 0.0000 0.0000 0.0000 0.0000 20.5806
#
#
#
# Elastic Compliance Matrix: (Units=1/GPa)
#
#
# Indices 1 2 3 4 5 6 
#
# 1 0.019798 -0.007037 -0.008176 0.000000 0.000000 0.000000
# 2 -0.007037 0.018329 -0.008723 0.000000 0.000000 0.000000
# 3 -0.008176 -0.008723 0.028979 0.000000 0.000000 0.000000
# 4 0.000000 0.000000 0.000000 0.080002 0.000000 0.000000
# 5 0.000000 0.000000 0.000000 0.000000 0.044288 0.000000
# 6 0.000000 0.000000 0.000000 0.000000 0.000000 0.048589
#
#
# Mechanical properties :
#
#
# Convention : Reuss Voigt Hill
#
# Bulk Modulus (GPa) = 51.99831 56.31320 54.15575
# Shear Modulus (GPa) = 16.99119 18.09851 17.54485
#
# Velocity S-wave (km/s) = 3.52974 3.64294 3.58679
# Velocity P-wave (km/s) = 7.39870 7.68032 7.54082
#
# Compressibility (1/GPa) = 0.01923140
#
# Stress axis : x y z
#
# Youngs Moduli (GPa) = 50.51118 54.55792 34.50770
#
# Poissons Ratio (x) = 0.38395 0.28215
# Poissons Ratio (y) = 0.35547 0.30102
# Poissons Ratio (z) = 0.41300 0.47593
#
# Static dielectric constant tensor:
#      x y z
#    x 2.614120 0.000000 0.000000 
#    y 0.000000 2.723750 0.000000 
#    z 0.000000 0.000000 2.689470 
# 
# 
# High freq. dielectric constant tensor:
#      x y z
#    x 1.495540 0.000000 0.000000 
#    y 0.000000 1.498560 0.000000 
#    z 0.000000 0.000000 1.521190 
# 
# From -- ./inp_files/9440.got.cif
#   From: 2010.03.12/outbox.cif.g09.slc.cpg/sg65_5_cif.got.tgz:9440.got - 2010.04.10 20:52:16.
