data_PCOD8265712
_publ_section_title
;
Structure prediction by ZEFSAII (Michael W. Deem and Ramdas Pophale) SiO2 
 PCOD8265712
Probable space group: C M M M
;
_chemical_formula_sum "Si O2"
_cell_formula_units_Z 96
_cell_length_a 34.476366
_cell_length_b 13.590266
_cell_length_c 12.393803
_cell_angle_alpha 90.000000
_cell_angle_beta 90.000000
_cell_angle_gamma 90.000000
_cell_volume 5807.029449
_symmetry_space_group_name_H-M "C M M M"
_symmetry_group_IT_number 65
_symmetry_cell_setting 'orthorhombic'
loop_
_space_group_symop_operation_xyz
x,y,z
-x,-y,z
x,-y,-z
-x,y,-z
-x,-y,-z
x,y,-z
-x,y,z
x,-y,z
1/2+x,1/2+y,z
1/2-x,1/2-y,z
1/2+x,1/2-y,-z
1/2-x,1/2+y,-z
1/2-x,1/2-y,-z
1/2+x,1/2+y,-z
1/2-x,1/2+y,z
1/2+x,1/2-y,z
loop_
_atom_site_type_symbol
_atom_site_label
_atom_site_fract_x
_atom_site_fract_y
_atom_site_fract_z
Si Si1 0.290818 0.112745 0.623132
Si Si2 0.661119 0.703910 0.621192
Si Si3 0.542089 0.615051 0.168060
Si Si4 0.418871 0.387780 0.380365
Si Si5 0.221587 0.114774 0.227349
Si Si6 0.896245 0.117081 0.000000
Si Si7 0.307802 0.617805 0.000000
O O1 0.274633 0.121633 0.500000
O O2 0.328658 0.180778 0.638574
O O3 0.259209 0.155960 0.708404
O O4 0.302324 0.000000 0.648256
O O5 0.672335 0.670615 0.500000
O O6 0.615810 0.688424 0.640951
O O7 0.683426 0.634744 0.703905
O O8 0.500000 0.660773 0.134710
O O9 0.540319 0.500000 0.143570
O O10 0.547683 0.636254 0.294908
O O11 0.578931 0.657454 0.102301
O O12 0.436318 0.373199 0.500000
O O13 0.403527 0.500000 0.365437
O O14 0.215231 0.157543 0.106047
O O15 0.227752 0.000000 0.217916
O O16 0.852298 0.159629 0.000000
O O17 0.892965 0.000000 0.000000
O O18 0.309367 0.500000 0.000000
#
# Coordination Sequence:
#
# PCOD8265712 Si02
#       7
#    16  16  16  16  16   8   8
#     4   9  18  31  45  60  78 102 136 179 219 250
#     4  10  18  28  43  61  81 105 136 174 211 244
#     4   9  16  25  38  56  79 107 135 161 189 225
#     4   9  17  27  39  58  83 109 135 161 192 234
#     4  10  18  28  42  60  82 108 137 168 207 248
#     4   9  15  24  37  53  74 102 139 172 192 216
#     4   9  18  29  41  58  83 114 142 170 200 236
#
# _framework density 16.531689
#
# number of rings (size 3 to 8) (size 9 to 14) (size 15 to 20)
#    0.000    2.667    0.000    2.750    0.000    7.000 
#    0.000    3.333    0.000    0.000    0.000    0.000 
#    0.000    0.667    0.000    6.500    0.000    6.500 
#
# Total GULP energy -594737.064454 kJ/mol
# GULP energy per Si atom -12390.355509 kJ/mol
# Density = 1.649406 g / cm^3
# Si number density = 16.531689 Si / 1000 Ang^3
#
#
#
# Elastic Constant Matrix: (Units=GPa)
#
#
# Indices 1 2 3 4 5 6 
#
# 1 64.3640 23.1735 36.8891 0.0000 0.0000 0.0000
# 2 23.1735 20.3611 17.9999 0.0000 0.0000 0.0000
# 3 36.8891 17.9999 104.2906 0.0000 0.0000 0.0000
# 4 0.0000 0.0000 0.0000 9.3762 0.0000 0.0000
# 5 0.0000 0.0000 0.0000 0.0000 16.8681 0.0000
# 6 0.0000 0.0000 0.0000 0.0000 0.0000 12.8789
#
#
#
# Elastic Compliance Matrix: (Units=1/GPa)
#
#
# Indices 1 2 3 4 5 6 
#
# 1 0.028616 -0.027874 -0.005311 0.000000 0.000000 0.000000
# 2 -0.027874 0.085107 -0.004829 0.000000 0.000000 0.000000
# 3 -0.005311 -0.004829 0.012301 0.000000 0.000000 0.000000
# 4 0.000000 0.000000 0.000000 0.106653 0.000000 0.000000
# 5 0.000000 0.000000 0.000000 0.000000 0.059283 0.000000
# 6 0.000000 0.000000 0.000000 0.000000 0.000000 0.077646
#
#
# Mechanical properties :
#
#
# Convention : Reuss Voigt Hill
#
# Bulk Modulus (GPa) = 20.00207 38.34895 29.17551
# Shear Modulus (GPa) = 10.81550 15.22153 13.01851
#
# Velocity S-wave (km/s) = 2.56056 3.03768 2.80927
# Velocity P-wave (km/s) = 4.56809 5.96246 5.31123
#
# Compressibility (1/GPa) = 0.04999482
#
# Stress axis : x y z
#
# Youngs Moduli (GPa) = 34.94522 11.74998 81.29578
#
# Poissons Ratio (x) = 0.32752 0.43177
# Poissons Ratio (y) = 0.97405 0.39262
# Poissons Ratio (z) = 0.18560 0.05675
#
# Static dielectric constant tensor:
#      x y z
#    x 3.080540 0.000000 0.000000 
#    y 0.000000 2.698890 0.000000 
#    z 0.000000 0.000000 3.492870 
# 
# 
# High freq. dielectric constant tensor:
#      x y z
#    x 1.620760 0.000000 0.000000 
#    y 0.000000 1.575050 0.000000 
#    z 0.000000 0.000000 1.654810 
# 
# From -- ./inp_files/33929.got.cif
#   From: 2010.03.12/outbox.cif.g09.slc.cpg/sg65_17_cif.got.tgz:33929.got - 2010.04.10 20:52:16.
