data_PCOD8265442
_publ_section_title
;
Structure prediction by ZEFSAII (Michael W. Deem and Ramdas Pophale) SiO2 
 PCOD8265442
Probable space group: C M M M
;
_chemical_formula_sum "Si O2"
_cell_formula_units_Z 80
_cell_length_a 9.536887
_cell_length_b 29.188091
_cell_length_c 16.165685
_cell_angle_alpha 90.000000
_cell_angle_beta 90.000000
_cell_angle_gamma 90.000000
_cell_volume 4499.937071
_symmetry_space_group_name_H-M "C M M M"
_symmetry_group_IT_number 65
_symmetry_cell_setting 'orthorhombic'
loop_
_space_group_symop_operation_xyz
x,y,z
-x,-y,z
x,-y,-z
-x,y,-z
-x,-y,-z
x,y,-z
-x,y,z
x,-y,z
1/2+x,1/2+y,z
1/2-x,1/2-y,z
1/2+x,1/2-y,-z
1/2-x,1/2+y,-z
1/2-x,1/2-y,-z
1/2+x,1/2+y,-z
1/2-x,1/2+y,z
1/2+x,1/2-y,z
loop_
_atom_site_type_symbol
_atom_site_label
_atom_site_fract_x
_atom_site_fract_y
_atom_site_fract_z
Si Si1 0.657637 0.290552 0.823469
Si Si2 0.164399 0.449810 0.171908
Si Si3 0.661996 0.205912 0.593931
Si Si4 0.347764 0.320190 0.000000
Si Si5 0.166753 0.592427 0.000000
Si Si6 0.337764 0.139032 0.261611
O O1 0.500000 0.288195 0.786868
O O2 0.750000 0.250000 0.783403
O O3 0.732733 0.337978 0.802713
O O4 0.658505 0.286332 0.922002
O O5 0.229436 0.500000 0.192745
O O6 0.223372 0.432698 0.083023
O O7 0.195960 0.415098 0.249028
O O8 0.000000 0.454718 0.161018
O O9 0.703327 0.193335 0.500000
O O10 0.500000 0.219758 0.601367
O O11 0.750000 0.250000 0.624916
O O12 0.694801 0.160012 0.647528
O O13 0.500000 0.345850 0.000000
O O14 0.222898 0.356151 0.000000
O O15 0.000000 0.595771 0.000000
O O16 0.500000 0.148790 0.237524
#
# Coordination Sequence:
#
# PCOD8265442 Si02
#       6
#    16  16  16   8   8  16
#     4  11  22  34  48  67  95 129 164 199 238 286
#     4   9  17  29  48  74  98 123 161 206 246 285
#     4   9  18  32  50  73 100 128 158 192 235 289
#     4  10  21  34  46  64  94 129 160 198 242 285
#     4  10  17  29  51  71  91 123 166 208 242 283
#     4  10  19  32  51  73  97 126 160 201 245 286
#
# _framework density 17.778026000000001
#
# number of rings (size 3 to 8) (size 9 to 14) (size 15 to 20)
#    0.000    2.200    2.000    1.800    0.000    4.400 
#    0.000    0.000    0.000    3.600    0.000    4.200 
#    0.000    0.000    0.000    6.800    0.000    7.200 
#
# Total GULP energy -495642.864894 kJ/mol
# GULP energy per Si atom -12391.071622 kJ/mol
# Density = 1.773756 g / cm^3
# Si number density = 17.778026 Si / 1000 Ang^3
#
#
#
# Elastic Constant Matrix: (Units=GPa)
#
#
# Indices 1 2 3 4 5 6 
#
# 1 67.1792 38.5762 23.4776 0.0000 0.0000 0.0000
# 2 38.5762 127.3550 45.5692 0.0000 0.0000 0.0000
# 3 23.4776 45.5692 91.6583 0.0000 0.0000 0.0000
# 4 0.0000 0.0000 0.0000 22.7059 0.0000 0.0000
# 5 0.0000 0.0000 0.0000 0.0000 16.2560 0.0000
# 6 0.0000 0.0000 0.0000 0.0000 0.0000 16.8288
#
#
#
# Elastic Compliance Matrix: (Units=1/GPa)
#
#
# Indices 1 2 3 4 5 6 
#
# 1 0.018432 -0.004736 -0.002367 0.000000 0.000000 0.000000
# 2 -0.004736 0.010768 -0.004140 0.000000 0.000000 0.000000
# 3 -0.002367 -0.004140 0.013575 0.000000 0.000000 0.000000
# 4 0.000000 0.000000 0.000000 0.044041 0.000000 0.000000
# 5 0.000000 0.000000 0.000000 0.000000 0.061516 0.000000
# 6 0.000000 0.000000 0.000000 0.000000 0.000000 0.059422
#
#
# Mechanical properties :
#
#
# Convention : Reuss Voigt Hill
#
# Bulk Modulus (GPa) = 49.28870 55.71539 52.50204
# Shear Modulus (GPa) = 21.09670 23.06277 22.07973
#
# Velocity S-wave (km/s) = 3.44855 3.60566 3.52798
# Velocity P-wave (km/s) = 6.60616 6.98154 6.79644
#
# Compressibility (1/GPa) = 0.02028863
#
# Stress axis : x y z
#
# Youngs Moduli (GPa) = 54.25225 92.86573 73.66643
#
# Poissons Ratio (x) = 0.43986 0.17433
# Poissons Ratio (y) = 0.25696 0.30501
# Poissons Ratio (z) = 0.12839 0.38450
#
# Static dielectric constant tensor:
#      x y z
#    x 3.202190 0.000000 0.000000 
#    y 0.000000 3.377370 0.000000 
#    z 0.000000 0.000000 3.329610 
# 
# 
# High freq. dielectric constant tensor:
#      x y z
#    x 1.670360 0.000000 0.000000 
#    y 0.000000 1.672630 0.000000 
#    z 0.000000 0.000000 1.678090 
# 
# From -- ./inp_files/49944.got.cif
#   From: 2010.03.12/outbox.cif.g09.slc.cpg/sg65_25_cif.got.tgz:49944.got - 2010.04.10 20:52:16.
