data_PCOD8265297
_publ_section_title
;
Structure prediction by ZEFSAII (Michael W. Deem and Ramdas Pophale) SiO2 
 PCOD8265297
Probable space group: C M M M
;
_chemical_formula_sum "Si O2"
_cell_formula_units_Z 72
_cell_length_a 8.765228
_cell_length_b 14.647080
_cell_length_c 27.453214
_cell_angle_alpha 90.000000
_cell_angle_beta 90.000000
_cell_angle_gamma 90.000000
_cell_volume 3524.580762
_symmetry_space_group_name_H-M "C M M M"
_symmetry_group_IT_number 65
_symmetry_cell_setting 'orthorhombic'
loop_
_space_group_symop_operation_xyz
x,y,z
-x,-y,z
x,-y,-z
-x,y,-z
-x,-y,-z
x,y,-z
-x,y,z
x,-y,z
1/2+x,1/2+y,z
1/2-x,1/2-y,z
1/2+x,1/2-y,-z
1/2-x,1/2+y,-z
1/2-x,1/2-y,-z
1/2+x,1/2+y,-z
1/2-x,1/2+y,z
1/2+x,1/2-y,z
loop_
_atom_site_type_symbol
_atom_site_label
_atom_site_fract_x
_atom_site_fract_y
_atom_site_fract_z
Si Si1 0.179411 0.151577 0.744693
Si Si2 0.179548 0.500000 0.074216
Si Si3 0.677970 0.349246 0.552782
Si Si4 0.180587 0.649703 0.000000
Si Si5 0.175889 0.000000 0.178302
Si Si6 0.681004 0.148885 0.647325
O O1 0.250000 0.250000 0.755608
O O2 0.217463 0.089419 0.790848
O O3 0.254726 0.103873 0.696840
O O4 0.000000 0.160659 0.735434
O O5 0.237903 0.407854 0.047240
O O6 0.226747 0.500000 0.129878
O O7 0.000000 0.500000 0.070302
O O8 0.702538 0.398798 0.500000
O O9 0.500000 0.340697 0.564733
O O10 0.750000 0.250000 0.548879
O O11 0.759494 0.402205 0.597975
O O12 0.250000 0.750000 0.000000
O O13 0.000000 0.660870 0.000000
O O14 0.000000 0.000000 0.163476
O O15 0.500000 0.148244 0.648333
O O16 0.750000 0.250000 0.646370
#
# Coordination Sequence:
#
# PCOD8265297 Si02
#       6
#    16   8  16   8   8  16
#     4  10  20  36  54  75 104 139 179 224 271 324
#     4   9  20  38  58  82 118 153 187 229 272 319
#     4   9  15  22  34  55  85 121 160 205 259 318
#     4   9  19  37  60  88 118 155 193 227 270 318
#     4  10  23  39  57  82 113 147 186 229 274 320
#     4  10  17  26  42  64  91 126 167 213 264 320
#
# _framework density 20.427961
#
# number of rings (size 3 to 8) (size 9 to 14) (size 15 to 20)
#    0.000    2.444    0.000    6.667    0.000    4.889 
#    0.000    5.556    0.000    0.000    0.000    0.778 
#    0.000    6.222    0.000    0.000    0.000    0.000 
#
# Total GULP energy -446043.629200 kJ/mol
# GULP energy per Si atom -12390.100811 kJ/mol
# Density = 2.038147 g / cm^3
# Si number density = 20.427961 Si / 1000 Ang^3
#
#
#
# Elastic Constant Matrix: (Units=GPa)
#
#
# Indices 1 2 3 4 5 6 
#
# 1 127.8102 36.6069 68.1346 0.0000 0.0000 0.0000
# 2 36.6069 95.4727 53.5867 0.0000 0.0000 0.0000
# 3 68.1346 53.5867 175.9666 0.0000 0.0000 0.0000
# 4 0.0000 0.0000 0.0000 85.1732 0.0000 0.0000
# 5 0.0000 0.0000 0.0000 0.0000 39.2526 0.0000
# 6 0.0000 0.0000 0.0000 0.0000 0.0000 17.2875
#
#
#
# Elastic Compliance Matrix: (Units=1/GPa)
#
#
# Indices 1 2 3 4 5 6 
#
# 1 0.010178 -0.002039 -0.003320 0.000000 0.000000 0.000000
# 2 -0.002039 0.013042 -0.003182 0.000000 0.000000 0.000000
# 3 -0.003320 -0.003182 0.007937 0.000000 0.000000 0.000000
# 4 0.000000 0.000000 0.000000 0.011741 0.000000 0.000000
# 5 0.000000 0.000000 0.000000 0.000000 0.025476 0.000000
# 6 0.000000 0.000000 0.000000 0.000000 0.000000 0.057845
#
#
# Mechanical properties :
#
#
# Convention : Reuss Voigt Hill
#
# Bulk Modulus (GPa) = 71.04737 79.54510 75.29624
# Shear Modulus (GPa) = 33.78522 44.40410 39.09466
#
# Velocity S-wave (km/s) = 4.07119 4.66735 4.37942
# Velocity P-wave (km/s) = 7.54682 8.25041 7.90645
#
# Compressibility (1/GPa) = 0.01407512
#
# Stress axis : x y z
#
# Youngs Moduli (GPa) = 98.25129 76.67477 125.98518
#
# Poissons Ratio (x) = 0.15635 0.41827
# Poissons Ratio (y) = 0.20034 0.40090
# Poissons Ratio (z) = 0.32619 0.24399
#
# Static dielectric constant tensor:
#      x y z
#    x 3.662260 0.000000 0.000000 
#    y 0.000000 3.527790 0.000000 
#    z 0.000000 0.000000 4.601460 
# 
# 
# High freq. dielectric constant tensor:
#      x y z
#    x 1.801610 0.000000 0.000000 
#    y 0.000000 1.767400 0.000000 
#    z 0.000000 0.000000 1.815400 
# 
# From -- ./inp_files/76379.got.cif
#   From: 2010.03.12/outbox.cif.g09.slc.cpg/sg65_39_cif.got.tgz:76379.got - 2010.04.10 20:52:16.
