data_PCOD8265514
_publ_section_title
;
Structure prediction by ZEFSAII (Michael W. Deem and Ramdas Pophale) SiO2 
 PCOD8265514
Probable space group: C M M M
;
_chemical_formula_sum "Si O2"
_cell_formula_units_Z 72
_cell_length_a 8.958692
_cell_length_b 23.457238
_cell_length_c 17.851834
_cell_angle_alpha 90.000000
_cell_angle_beta 90.000000
_cell_angle_gamma 90.000000
_cell_volume 3751.494550
_symmetry_space_group_name_H-M "C M M M"
_symmetry_group_IT_number 65
_symmetry_cell_setting 'orthorhombic'
loop_
_space_group_symop_operation_xyz
x,y,z
-x,-y,z
x,-y,-z
-x,y,-z
-x,-y,-z
x,y,-z
-x,y,z
x,-y,z
1/2+x,1/2+y,z
1/2-x,1/2-y,z
1/2+x,1/2-y,-z
1/2-x,1/2+y,-z
1/2-x,1/2-y,-z
1/2+x,1/2+y,-z
1/2-x,1/2+y,z
1/2+x,1/2-y,z
loop_
_atom_site_type_symbol
_atom_site_label
_atom_site_fract_x
_atom_site_fract_y
_atom_site_fract_z
Si Si1 0.323593 0.310309 0.220789
Si Si2 0.668886 0.000000 0.308451
Si Si3 0.672674 0.123850 0.648241
Si Si4 0.676163 0.811412 0.500000
Si Si5 0.176920 0.000000 0.847588
Si Si6 0.322665 0.383551 0.916836
O O1 0.500000 0.303746 0.225373
O O2 0.250000 0.250000 0.236383
O O3 0.271800 0.354579 0.283277
O O4 0.271067 0.333814 0.139755
O O5 0.696670 0.055811 0.359480
O O6 0.500000 0.000000 0.277167
O O7 0.778655 0.000000 0.238604
O O8 0.500000 0.138987 0.663696
O O9 0.729560 0.153454 0.572433
O O10 0.500000 0.803326 0.500000
O O11 0.750000 0.750000 0.500000
O O12 0.242023 0.944219 0.889113
O O13 0.000000 0.000000 0.851281
O O14 0.500000 0.387110 0.918002
O O15 0.260246 0.369964 0.000000
#
# Coordination Sequence:
#
# PCOD8265514 Si02
#       6
#    16   8  16   8   8  16
#     4  11  22  36  56  80 109 146 188 231 276 328
#     4  10  20  34  57  85 115 144 174 222 277 328
#     4  10  21  38  59  84 113 145 182 224 273 328
#     4  10  22  39  59  83 111 146 187 226 267 318
#     4  10  17  32  57  83 108 140 184 227 270 327
#     4   9  18  32  53  81 109 141 183 229 275 325
#
# _framework density 19.192350999999999
#
# number of rings (size 3 to 8) (size 9 to 14) (size 15 to 20)
#    0.000    2.000    2.222    1.667    0.000    4.889 
#    0.000    2.222    0.000    6.000    0.000    3.111 
#    0.000    0.000    0.000    0.000    0.000    0.000 
#
# Total GULP energy -446425.734322 kJ/mol
# GULP energy per Si atom -12400.714842 kJ/mol
# Density = 1.914867 g / cm^3
# Si number density = 19.192351 Si / 1000 Ang^3
#
#
#
# Elastic Constant Matrix: (Units=GPa)
#
#
# Indices 1 2 3 4 5 6 
#
# 1 38.2677 30.6272 28.1606 0.0000 0.0000 0.0000
# 2 30.6272 144.4268 59.6148 0.0000 0.0000 0.0000
# 3 28.1606 59.6148 140.3990 0.0000 0.0000 0.0000
# 4 0.0000 0.0000 0.0000 35.2584 0.0000 0.0000
# 5 0.0000 0.0000 0.0000 0.0000 24.5332 0.0000
# 6 0.0000 0.0000 0.0000 0.0000 0.0000 21.2946
#
#
#
# Elastic Compliance Matrix: (Units=1/GPa)
#
#
# Indices 1 2 3 4 5 6 
#
# 1 0.033678 -0.005279 -0.004514 0.000000 0.000000 0.000000
# 2 -0.005279 0.009223 -0.002857 0.000000 0.000000 0.000000
# 3 -0.004514 -0.002857 0.009241 0.000000 0.000000 0.000000
# 4 0.000000 0.000000 0.000000 0.028362 0.000000 0.000000
# 5 0.000000 0.000000 0.000000 0.000000 0.040761 0.000000
# 6 0.000000 0.000000 0.000000 0.000000 0.000000 0.046960
#
#
# Mechanical properties :
#
#
# Convention : Reuss Voigt Hill
#
# Bulk Modulus (GPa) = 37.25412 62.21097 49.73255
# Shear Modulus (GPa) = 24.69479 29.86330 27.27905
#
# Velocity S-wave (km/s) = 3.59095 3.94890 3.77417
# Velocity P-wave (km/s) = 6.05362 7.29908 6.70533
#
# Compressibility (1/GPa) = 0.02684267
#
# Stress axis : x y z
#
# Youngs Moduli (GPa) = 29.69300 108.42788 108.21226
#
# Poissons Ratio (x) = 0.57236 0.48842
# Poissons Ratio (y) = 0.15674 0.30919
# Poissons Ratio (z) = 0.13402 0.30981
#
# Static dielectric constant tensor:
#      x y z
#    x 3.242980 0.000000 0.000000 
#    y 0.000000 3.712960 0.000000 
#    z 0.000000 0.000000 3.684660 
# 
# 
# High freq. dielectric constant tensor:
#      x y z
#    x 1.717750 0.000000 0.000000 
#    y 0.000000 1.761210 0.000000 
#    z 0.000000 0.000000 1.749270 
# 
# From -- ./inp_files/49534.got.cif
#   From: 2010.03.12/outbox.cif.g09.slc.cpg/sg65_25_cif.got.tgz:49534.got - 2010.04.10 20:52:16.
