data_PCOD8265165
_publ_section_title
;
Structure prediction by ZEFSAII (Michael W. Deem and Ramdas Pophale) SiO2 
 PCOD8265165
Probable space group: C M M M
;
_chemical_formula_sum "Si O2"
_cell_formula_units_Z 64
_cell_length_a 20.525189
_cell_length_b 23.422205
_cell_length_c 7.498782
_cell_angle_alpha 90.000000
_cell_angle_beta 90.000000
_cell_angle_gamma 90.000000
_cell_volume 3605.003336
_symmetry_space_group_name_H-M "C M M M"
_symmetry_group_IT_number 65
_symmetry_cell_setting 'orthorhombic'
loop_
_space_group_symop_operation_xyz
x,y,z
-x,-y,z
x,-y,-z
-x,y,-z
-x,-y,-z
x,y,-z
-x,y,z
x,-y,z
1/2+x,1/2+y,z
1/2-x,1/2-y,z
1/2+x,1/2-y,-z
1/2-x,1/2+y,-z
1/2-x,1/2-y,-z
1/2+x,1/2+y,-z
1/2-x,1/2+y,z
1/2+x,1/2-y,z
loop_
_atom_site_type_symbol
_atom_site_label
_atom_site_fract_x
_atom_site_fract_y
_atom_site_fract_z
Si Si1 0.775242 0.123209 0.210696
Si Si2 0.218932 0.000000 0.804071
Si Si3 0.137990 0.500000 0.706529
Si Si4 0.426808 0.203006 0.500000
Si Si5 0.377431 0.877973 0.796451
Si Si6 0.187849 0.790612 0.500000
O O1 0.698698 0.128190 0.251876
O O2 0.812504 0.171316 0.321188
O O3 0.800940 0.060831 0.283948
O O4 0.789132 0.130928 0.000000
O O5 0.297071 0.000000 0.825248
O O6 0.188291 0.000000 0.000000
O O7 0.157563 0.500000 0.500000
O O8 0.098089 0.557301 0.756108
O O9 0.500000 0.227188 0.500000
O O10 0.417457 0.165254 0.324072
O O11 0.378815 0.256388 0.500000
O O12 0.391520 0.861696 0.000000
O O13 0.250000 0.750000 0.500000
#
# Coordination Sequence:
#
# PCOD8265165 Si02
#       6
#    16   8   8   8  16   8
#     4   9  18  32  55  84 111 134 169 218 266 316
#     4   8  16  28  46  82 117 135 159 211 272 320
#     4  10  16  26  52  80 108 138 173 219 265 308
#     4  12  26  41  52  73 106 142 185 228 264 311
#     4  10  19  35  55  78 107 142 179 221 265 310
#     4  12  22  35  55  79 103 141 185 219 262 306
#
# _framework density 17.753105000000001
#
# number of rings (size 3 to 8) (size 9 to 14) (size 15 to 20)
#    0.000    2.000    3.750    2.625    5.250    2.000 
#    0.000    1.250    0.000    1.500    0.000    1.750 
#    0.000    3.000    0.000    0.000    0.000    0.000 
#
# Total GULP energy -396563.137187 kJ/mol
# GULP energy per Si atom -12392.598037 kJ/mol
# Density = 1.771270 g / cm^3
# Si number density = 17.753105 Si / 1000 Ang^3
#
#
#
# Elastic Constant Matrix: (Units=GPa)
#
#
# Indices 1 2 3 4 5 6 
#
# 1 72.7765 57.6847 31.4515 0.0000 0.0000 0.0000
# 2 57.6847 147.3577 53.4150 0.0000 0.0000 0.0000
# 3 31.4515 53.4150 103.2360 0.0000 0.0000 0.0000
# 4 0.0000 0.0000 0.0000 23.7404 0.0000 0.0000
# 5 0.0000 0.0000 0.0000 0.0000 9.5115 0.0000
# 6 0.0000 0.0000 0.0000 0.0000 0.0000 13.8672
#
#
#
# Elastic Compliance Matrix: (Units=1/GPa)
#
#
# Indices 1 2 3 4 5 6 
#
# 1 0.020462 -0.007078 -0.002572 0.000000 0.000000 0.000000
# 2 -0.007078 0.010801 -0.003432 0.000000 0.000000 0.000000
# 3 -0.002572 -0.003432 0.012246 0.000000 0.000000 0.000000
# 4 0.000000 0.000000 0.000000 0.042122 0.000000 0.000000
# 5 0.000000 0.000000 0.000000 0.000000 0.105136 0.000000
# 6 0.000000 0.000000 0.000000 0.000000 0.000000 0.072112
#
#
# Mechanical properties :
#
#
# Convention : Reuss Voigt Hill
#
# Bulk Modulus (GPa) = 57.65220 67.60807 62.63014
# Shear Modulus (GPa) = 16.95916 21.47841 19.21879
#
# Velocity S-wave (km/s) = 3.09411 3.48205 3.29380
# Velocity P-wave (km/s) = 6.73124 7.37098 7.05836
#
# Compressibility (1/GPa) = 0.01734539
#
# Stress axis : x y z
#
# Youngs Moduli (GPa) = 48.87027 92.58343 81.65996
#
# Poissons Ratio (x) = 0.65530 0.21001
# Poissons Ratio (y) = 0.34590 0.28027
# Poissons Ratio (z) = 0.12568 0.31776
#
# Static dielectric constant tensor:
#      x y z
#    x 2.658790 0.000000 0.000000 
#    y 0.000000 3.623110 0.000000 
#    z 0.000000 0.000000 3.318120 
# 
# 
# High freq. dielectric constant tensor:
#      x y z
#    x 1.604680 0.000000 0.000000 
#    y 0.000000 1.700440 0.000000 
#    z 0.000000 0.000000 1.701680 
# 
# From -- ./inp_files/11180.got.cif
#   From: 2010.03.12/outbox.cif.g09.slc.cpg/sg65_6_cif.got.tgz:11180.got - 2010.04.10 20:52:16.
