data_PCOD8265803
_publ_section_title
;
Structure prediction by ZEFSAII (Michael W. Deem and Ramdas Pophale) SiO2 
 PCOD8265803
Probable space group: C M M M
;
_chemical_formula_sum "Si O2"
_cell_formula_units_Z 112
_cell_length_a 17.889589
_cell_length_b 16.144425
_cell_length_c 23.197124
_cell_angle_alpha 90.000000
_cell_angle_beta 90.000000
_cell_angle_gamma 90.000000
_cell_volume 6699.726729
_symmetry_space_group_name_H-M "C M M M"
_symmetry_group_IT_number 65
_symmetry_cell_setting 'orthorhombic'
loop_
_space_group_symop_operation_xyz
x,y,z
-x,-y,z
x,-y,-z
-x,y,-z
-x,-y,-z
x,y,-z
-x,y,z
x,-y,z
1/2+x,1/2+y,z
1/2-x,1/2-y,z
1/2+x,1/2-y,-z
1/2-x,1/2+y,-z
1/2-x,1/2-y,-z
1/2+x,1/2+y,-z
1/2-x,1/2+y,z
1/2+x,1/2-y,z
loop_
_atom_site_type_symbol
_atom_site_label
_atom_site_fract_x
_atom_site_fract_y
_atom_site_fract_z
Si Si1 0.337247 0.255453 0.566813
Si Si2 0.808473 0.822396 0.853427
Si Si3 0.415653 0.770439 0.933731
Si Si4 0.799305 0.593317 0.064065
Si Si5 0.914953 0.409150 0.568393
Si Si6 0.415795 0.595598 0.234558
Si Si7 0.413798 0.593819 0.369386
O O1 0.359246 0.263014 0.500000
O O2 0.250000 0.250000 0.576576
O O3 0.370466 0.169915 0.593806
O O4 0.366255 0.338031 0.597236
O O5 0.750000 0.750000 0.836845
O O6 0.874018 0.797950 0.896684
O O7 0.763051 0.892669 0.887395
O O8 0.849270 0.854753 0.796390
O O9 0.500000 0.779975 0.911543
O O10 0.374622 0.856988 0.923219
O O11 0.413103 0.742327 0.000000
O O12 0.825643 0.500000 0.066513
O O13 0.767937 0.616932 0.000000
O O14 0.908768 0.407859 0.500000
O O15 0.884716 0.500000 0.590129
O O16 0.000000 0.399166 0.588737
O O17 0.500000 0.627012 0.218540
O O18 0.409202 0.500000 0.216924
O O19 0.402021 0.607997 0.301920
O O20 0.500000 0.605538 0.386426
O O21 0.388160 0.500000 0.386114
#
# Coordination Sequence:
#
# PCOD8265803 Si02
#       7
#    16  16  16  16  16  16  16
#     4  10  20  31  46  71 100 126 150 180 223 274
#     4  10  18  28  45  67  90 116 147 184 228 276
#     4   9  17  28  42  62  89 119 150 185 223 264
#     4   9  17  28  42  62  89 119 149 182 221 267
#     4   8  14  26  44  64  87 117 151 182 209 244
#     4   9  18  33  51  68  87 114 151 193 230 266
#     4   9  19  35  52  70  93 122 157 196 234 272
#
# _framework density 16.717099999999999
#
# number of rings (size 3 to 8) (size 9 to 14) (size 15 to 20)
#    0.000    2.857    0.000    3.000    0.000    4.286 
#    0.000    3.571    0.000    0.000    0.000    7.000 
#    0.000    4.571    0.000    0.000    0.000    0.000 
#
# Total GULP energy -693991.118257 kJ/mol
# GULP energy per Si atom -12392.698540 kJ/mol
# Density = 1.667905 g / cm^3
# Si number density = 16.717100 Si / 1000 Ang^3
#
#
#
# Elastic Constant Matrix: (Units=GPa)
#
#
# Indices 1 2 3 4 5 6 
#
# 1 95.4461 51.2925 40.7204 0.0000 0.0000 0.0000
# 2 51.2925 107.8403 35.6136 0.0000 0.0000 0.0000
# 3 40.7204 35.6136 44.7048 0.0000 0.0000 0.0000
# 4 0.0000 0.0000 0.0000 23.4295 0.0000 0.0000
# 5 0.0000 0.0000 0.0000 0.0000 -4.5028 0.0000
# 6 0.0000 0.0000 0.0000 0.0000 0.0000 19.5552
#
#
#
# Elastic Compliance Matrix: (Units=1/GPa)
#
#
# Indices 1 2 3 4 5 6 
#
# 1 0.018559 -0.004403 -0.013397 0.000000 0.000000 0.000000
# 2 -0.004403 0.013628 -0.006846 0.000000 0.000000 0.000000
# 3 -0.013397 -0.006846 0.040026 0.000000 0.000000 0.000000
# 4 0.000000 0.000000 0.000000 0.042681 0.000000 0.000000
# 5 0.000000 0.000000 0.000000 0.000000 -0.222082 0.000000
# 6 0.000000 0.000000 0.000000 0.000000 0.000000 0.051137
#
#
# Mechanical properties :
#
#
# Convention : Reuss Voigt Hill
#
# Bulk Modulus (GPa) = 43.62932 55.91603 49.77268
# Shear Modulus (GPa) = 5665.92264 15.72068 2840.82166
#
# Velocity S-wave (km/s) = 58.28083 3.06991 41.26790
# Velocity P-wave (km/s) = 67.49096 6.78873 47.96413
#
# Compressibility (1/GPa) = 0.02292037
#
# Stress axis : x y z
#
# Youngs Moduli (GPa) = 53.88240 73.37810 24.98369
#
# Poissons Ratio (x) = 0.32308 0.33471
# Poissons Ratio (y) = 0.23724 0.17104
# Poissons Ratio (z) = 0.72188 0.50236
#
# Static dielectric constant tensor:
#      x y z
#    x 3.433710 0.000000 0.000000 
#    y 0.000000 3.282150 0.000000 
#    z 0.000000 0.000000 2.968900 
# 
# 
# High freq. dielectric constant tensor:
#      x y z
#    x 1.645760 0.000000 0.000000 
#    y 0.000000 1.650360 0.000000 
#    z 0.000000 0.000000 1.614440 
# 
# From -- ./inp_files/70046.got.cif
#   From: 2010.03.12/outbox.cif.g09.slc.cpg/sg65_36_cif.got.tgz:70046.got - 2010.04.10 20:52:16.
