data_PCOD8265805
_publ_section_title
;
Structure prediction by ZEFSAII (Michael W. Deem and Ramdas Pophale) SiO2 
 PCOD8265805
Probable space group: C M M M
;
_chemical_formula_sum "Si O2"
_cell_formula_units_Z 112
_cell_length_a 17.539449
_cell_length_b 17.413967
_cell_length_c 23.029701
_cell_angle_alpha 90.000000
_cell_angle_beta 90.000000
_cell_angle_gamma 90.000000
_cell_volume 7033.993498
_symmetry_space_group_name_H-M "C M M M"
_symmetry_group_IT_number 65
_symmetry_cell_setting 'orthorhombic'
loop_
_space_group_symop_operation_xyz
x,y,z
-x,-y,z
x,-y,-z
-x,y,-z
-x,-y,-z
x,y,-z
-x,y,z
x,-y,z
1/2+x,1/2+y,z
1/2-x,1/2-y,z
1/2+x,1/2-y,-z
1/2-x,1/2+y,-z
1/2-x,1/2-y,-z
1/2+x,1/2+y,-z
1/2-x,1/2+y,z
1/2+x,1/2-y,z
loop_
_atom_site_type_symbol
_atom_site_label
_atom_site_fract_x
_atom_site_fract_y
_atom_site_fract_z
Si Si1 0.813023 0.184258 0.934521
Si Si2 0.586105 0.211731 0.135223
Si Si3 0.191728 0.183604 0.349473
Si Si4 0.412892 0.587722 0.431723
Si Si5 0.199519 0.587643 0.726914
Si Si6 0.086868 0.281206 0.268855
Si Si7 0.710255 0.912584 0.859619
O O1 0.750000 0.250000 0.932843
O O2 0.889461 0.217445 0.905509
O O3 0.783294 0.112067 0.897464
O O4 0.830746 0.157487 0.000000
O O5 0.500000 0.188753 0.120172
O O6 0.594320 0.239921 0.201317
O O7 0.636436 0.136631 0.122867
O O8 0.250000 0.250000 0.371692
O O9 0.145638 0.147070 0.402654
O O10 0.237025 0.116009 0.317736
O O11 0.132329 0.217072 0.303588
O O12 0.402203 0.597170 0.500000
O O13 0.500000 0.607779 0.413990
O O14 0.394597 0.500000 0.413035
O O15 0.179536 0.500000 0.713072
O O16 0.121479 0.634780 0.718912
O O17 0.231439 0.598717 0.792071
O O18 0.000000 0.282403 0.290143
O O19 0.689825 0.000000 0.873957
#
# Coordination Sequence:
#
# PCOD8265805 Si02
#       7
#    16  16  16  16  16  16  16
#     4   9  17  29  44  60  80 109 142 172 206 253
#     4   9  17  29  45  65  88 112 140 175 213 254
#     4  10  18  28  45  67  91 117 146 180 214 251
#     4   9  18  32  48  65  87 116 148 183 223 263
#     4   9  17  28  43  64  89 116 143 173 211 253
#     4   9  17  28  43  64  89 116 143 173 211 253
#     4   9  17  29  45  65  88 112 140 175 213 254
#
# _framework density 15.922675999999999
#
# number of rings (size 3 to 8) (size 9 to 14) (size 15 to 20)
#    0.000    2.857    0.000    2.143    0.000    4.857 
#    0.000    2.857    0.000    0.429    0.000    9.000 
#    0.000    0.000    0.000   26.571    0.000    0.286 
#
# Total GULP energy -694326.983075 kJ/mol
# GULP energy per Si atom -12398.696126 kJ/mol
# Density = 1.588643 g / cm^3
# Si number density = 15.922676 Si / 1000 Ang^3
#
#
#
# Elastic Constant Matrix: (Units=GPa)
#
#
# Indices 1 2 3 4 5 6 
#
# 1 82.2032 35.8064 33.7606 0.0000 0.0000 0.0000
# 2 35.8064 59.2617 24.7783 0.0000 0.0000 0.0000
# 3 33.7606 24.7783 52.0752 0.0000 0.0000 0.0000
# 4 0.0000 0.0000 0.0000 22.0703 0.0000 0.0000
# 5 0.0000 0.0000 0.0000 0.0000 22.6160 0.0000
# 6 0.0000 0.0000 0.0000 0.0000 0.0000 20.4235
#
#
#
# Elastic Compliance Matrix: (Units=1/GPa)
#
#
# Indices 1 2 3 4 5 6 
#
# 1 0.019192 -0.007981 -0.008644 0.000000 0.000000 0.000000
# 2 -0.007981 0.024385 -0.006428 0.000000 0.000000 0.000000
# 3 -0.008644 -0.006428 0.027866 0.000000 0.000000 0.000000
# 4 0.000000 0.000000 0.000000 0.045310 0.000000 0.000000
# 5 0.000000 0.000000 0.000000 0.000000 0.044217 0.000000
# 6 0.000000 0.000000 0.000000 0.000000 0.000000 0.048963
#
#
# Mechanical properties :
#
#
# Convention : Reuss Voigt Hill
#
# Bulk Modulus (GPa) = 39.47252 42.47006 40.97129
# Shear Modulus (GPa) = 18.90469 19.63493 19.26981
#
# Velocity S-wave (km/s) = 3.44943 3.51542 3.48258
# Velocity P-wave (km/s) = 6.38034 6.57329 6.47753
#
# Compressibility (1/GPa) = 0.02533408
#
# Stress axis : x y z
#
# Youngs Moduli (GPa) = 52.10556 41.00961 35.88619
#
# Poissons Ratio (x) = 0.32732 0.31021
# Poissons Ratio (y) = 0.41588 0.23068
# Poissons Ratio (z) = 0.45042 0.26362
#
# Static dielectric constant tensor:
#      x y z
#    x 3.024370 0.000000 0.000000 
#    y 0.000000 2.971290 0.000000 
#    z 0.000000 0.000000 2.950040 
# 
# 
# High freq. dielectric constant tensor:
#      x y z
#    x 1.606790 0.000000 0.000000 
#    y 0.000000 1.605440 0.000000 
#    z 0.000000 0.000000 1.601650 
# 
# From -- ./inp_files/63919.got.cif
#   From: 2010.03.12/outbox.cif.g09.slc.cpg/sg65_32_cif.got.tgz:63919.got - 2010.04.10 20:52:16.
