data_PCOD8265167
_publ_section_title
;
Structure prediction by ZEFSAII (Michael W. Deem and Ramdas Pophale) SiO2 
 PCOD8265167
Probable space group: C M M M
;
_chemical_formula_sum "Si O2"
_cell_formula_units_Z 104
_cell_length_a 28.989117
_cell_length_b 21.007658
_cell_length_c 12.238535
_cell_angle_alpha 90.000000
_cell_angle_beta 90.000000
_cell_angle_gamma 90.000000
_cell_volume 7453.187722
_symmetry_space_group_name_H-M "C M M M"
_symmetry_group_IT_number 65
_symmetry_cell_setting 'orthorhombic'
loop_
_space_group_symop_operation_xyz
x,y,z
-x,-y,z
x,-y,-z
-x,y,-z
-x,-y,-z
x,y,-z
-x,y,z
x,-y,z
1/2+x,1/2+y,z
1/2-x,1/2-y,z
1/2+x,1/2-y,-z
1/2-x,1/2+y,-z
1/2-x,1/2-y,-z
1/2+x,1/2+y,-z
1/2-x,1/2+y,z
1/2+x,1/2-y,z
loop_
_atom_site_type_symbol
_atom_site_label
_atom_site_fract_x
_atom_site_fract_y
_atom_site_fract_z
Si Si1 0.948517 0.425740 0.260638
Si Si2 0.254859 0.576531 0.500000
Si Si3 0.677552 0.776256 0.706888
Si Si4 0.072476 0.425652 0.500000
Si Si5 0.773325 0.151872 0.704051
Si Si6 0.366596 0.861959 0.871491
Si Si7 0.771777 0.571172 0.126063
Si Si8 0.340379 0.848360 0.500000
O O1 0.934382 0.500000 0.257043
O O2 0.949380 0.399975 0.386335
O O3 0.912925 0.387427 0.184895
O O4 0.000000 0.415671 0.212720
O O5 0.249701 0.500000 0.500000
O O6 0.281823 0.600986 0.607195
O O7 0.207046 0.613802 0.500000
O O8 0.727469 0.807008 0.690907
O O9 0.682928 0.699601 0.708761
O O10 0.649984 0.795652 0.816789
O O11 0.649722 0.802182 0.602603
O O12 0.065624 0.500000 0.500000
O O13 0.125513 0.407414 0.500000
O O14 0.767145 0.113540 0.816300
O O15 0.324717 0.910543 0.848561
O O16 0.375559 0.851439 0.000000
O O17 0.765943 0.500000 0.169420
O O18 0.760856 0.578300 0.000000
#
# Coordination Sequence:
#
# PCOD8265167 Si02
#       8
#    16   8  16   8  16  16  16   8
#     4  10  20  32  45  61  81 104 132 170 213 250
#     4  10  18  25  37  60  84 105 130 164 204 247
#     4   9  17  28  41  57  76 102 133 169 206 242
#     4  10  18  29  45  62  78  97 129 171 209 245
#     4   9  17  27  39  56  79 103 130 167 208 241
#     4  10  19  30  43  59  78 104 138 174 207 243
#     4   9  17  28  41  56  76 104 138 173 204 235
#     4  10  16  27  43  59  76 101 134 170 208 240
#
# _framework density 13.953761999999999
#
# number of rings (size 3 to 8) (size 9 to 14) (size 15 to 20)
#    0.000    2.462    1.538    1.846    0.000    4.615 
#    0.000    3.846    0.000    0.000    0.000    0.000 
#    0.000    0.000    0.000    0.000    0.000    3.846 
#
# Total GULP energy -644284.067285 kJ/mol
# GULP energy per Si atom -12390.078217 kJ/mol
# Density = 1.392200 g / cm^3
# Si number density = 13.953762 Si / 1000 Ang^3
#
#
#
# Elastic Constant Matrix: (Units=GPa)
#
#
# Indices 1 2 3 4 5 6 
#
# 1 32.6068 27.8600 29.2819 0.0000 0.0000 0.0000
# 2 27.8600 77.3565 43.0777 0.0000 0.0000 0.0000
# 3 29.2819 43.0777 95.7186 0.0000 0.0000 0.0000
# 4 0.0000 0.0000 0.0000 18.8165 0.0000 0.0000
# 5 0.0000 0.0000 0.0000 0.0000 12.4461 0.0000
# 6 0.0000 0.0000 0.0000 0.0000 0.0000 15.3737
#
#
#
# Elastic Compliance Matrix: (Units=1/GPa)
#
#
# Indices 1 2 3 4 5 6 
#
# 1 0.050174 -0.012707 -0.009630 0.000000 0.000000 0.000000
# 2 -0.012707 0.020469 -0.005324 0.000000 0.000000 0.000000
# 3 -0.009630 -0.005324 0.015790 0.000000 0.000000 0.000000
# 4 0.000000 0.000000 0.000000 0.053145 0.000000 0.000000
# 5 0.000000 0.000000 0.000000 0.000000 0.080347 0.000000
# 6 0.000000 0.000000 0.000000 0.000000 0.000000 0.065046
#
#
# Mechanical properties :
#
#
# Convention : Reuss Voigt Hill
#
# Bulk Modulus (GPa) = 32.14576 45.12458 38.63517
# Shear Modulus (GPa) = 14.25867 16.35808 15.30837
#
# Velocity S-wave (km/s) = 3.20011 3.42761 3.31581
# Velocity P-wave (km/s) = 6.06149 6.93351 6.51211
#
# Compressibility (1/GPa) = 0.03110830
#
# Stress axis : x y z
#
# Youngs Moduli (GPa) = 19.93058 48.85481 63.33297
#
# Poissons Ratio (x) = 0.62082 0.60991
# Poissons Ratio (y) = 0.25327 0.33721
# Poissons Ratio (z) = 0.19193 0.26013
#
# Static dielectric constant tensor:
#      x y z
#    x 2.466310 0.000000 0.000000 
#    y 0.000000 2.758820 0.000000 
#    z 0.000000 0.000000 2.957660 
# 
# 
# High freq. dielectric constant tensor:
#      x y z
#    x 1.486290 0.000000 0.000000 
#    y 0.000000 1.511550 0.000000 
#    z 0.000000 0.000000 1.549470 
# 
# From -- ./inp_files/34262.got.cif
#   From: 2010.03.12/outbox.cif.g09.slc.cpg/sg65_18_cif.got.tgz:34262.got - 2010.04.10 20:52:16.
