data_PCOD8265455
_publ_section_title
;
Structure prediction by ZEFSAII (Michael W. Deem and Ramdas Pophale) SiO2 
 PCOD8265455
Probable space group: C M M M
;
_chemical_formula_sum "Si O2"
_cell_formula_units_Z 104
_cell_length_a 28.880555
_cell_length_b 20.696581
_cell_length_c 12.272924
_cell_angle_alpha 90.000000
_cell_angle_beta 90.000000
_cell_angle_gamma 90.000000
_cell_volume 7335.879471
_symmetry_space_group_name_H-M "C M M M"
_symmetry_group_IT_number 65
_symmetry_cell_setting 'orthorhombic'
loop_
_space_group_symop_operation_xyz
x,y,z
-x,-y,z
x,-y,-z
-x,y,-z
-x,-y,-z
x,y,-z
-x,y,z
x,-y,z
1/2+x,1/2+y,z
1/2-x,1/2-y,z
1/2+x,1/2-y,-z
1/2-x,1/2+y,-z
1/2-x,1/2-y,-z
1/2+x,1/2+y,-z
1/2-x,1/2+y,z
1/2+x,1/2-y,z
loop_
_atom_site_type_symbol
_atom_site_label
_atom_site_fract_x
_atom_site_fract_y
_atom_site_fract_z
Si Si1 0.052228 0.610722 0.000000
Si Si2 0.675273 0.240999 0.785440
Si Si3 0.875237 0.343361 0.627066
Si Si4 0.053175 0.571969 0.241720
Si Si5 0.642649 0.819045 0.000000
Si Si6 0.785315 0.428432 0.376990
Si Si7 0.276209 0.921802 0.000000
Si Si8 0.761187 0.146631 0.207011
O O1 0.061264 0.570562 0.889042
O O2 0.088309 0.668377 0.000000
O O3 0.000000 0.638558 0.000000
O O4 0.641394 0.223929 0.683358
O O5 0.649917 0.225682 0.896774
O O6 0.721498 0.199487 0.783136
O O7 0.689270 0.316906 0.787962
O O8 0.888150 0.331496 0.500000
O O9 0.917738 0.374072 0.693714
O O10 0.833310 0.392448 0.640613
O O11 0.066078 0.500000 0.284140
O O12 0.000000 0.587960 0.268156
O O13 0.673834 0.885031 0.000000
O O14 0.768569 0.426711 0.500000
O O15 0.794922 0.500000 0.333986
O O16 0.742376 0.398807 0.311880
O O17 0.245687 0.898618 0.102023
O O18 0.283584 0.000000 0.000000
#
# Coordination Sequence:
#
# PCOD8265455 Si02
#       8
#     8  16  16  16   8  16   8  16
#     4  10  19  32  46  62  82 103 135 175 212 251
#     4   9  17  29  43  59  77 104 136 175 213 247
#     4  10  19  30  43  60  80 107 143 180 212 247
#     4  10  20  32  45  61  82 108 139 177 218 254
#     4  10  17  30  45  62  79 107 139 173 213 248
#     4   9  17  28  41  57  79 108 141 175 207 241
#     4  10  19  27  40  64  86 108 136 171 210 253
#     4   9  17  28  41  58  81 104 133 172 213 248
#
# _framework density 14.176895999999999
#
# number of rings (size 3 to 8) (size 9 to 14) (size 15 to 20)
#    0.000    2.462    1.538    1.615    0.000    5.231 
#    0.000    3.846    0.000    0.000    0.000    0.000 
#    0.000    0.000    0.000    0.000    0.000   31.538 
#
# Total GULP energy -644307.995302 kJ/mol
# GULP energy per Si atom -12390.538371 kJ/mol
# Density = 1.414463 g / cm^3
# Si number density = 14.176896 Si / 1000 Ang^3
#
#
#
# Elastic Constant Matrix: (Units=GPa)
#
#
# Indices 1 2 3 4 5 6 
#
# 1 62.9436 34.6897 38.5969 0.0000 0.0000 0.0000
# 2 34.6897 50.3372 36.9845 0.0000 0.0000 0.0000
# 3 38.5969 36.9845 92.4298 0.0000 0.0000 0.0000
# 4 0.0000 0.0000 0.0000 14.8129 0.0000 0.0000
# 5 0.0000 0.0000 0.0000 0.0000 16.8212 0.0000
# 6 0.0000 0.0000 0.0000 0.0000 0.0000 20.6245
#
#
#
# Elastic Compliance Matrix: (Units=1/GPa)
#
#
# Indices 1 2 3 4 5 6 
#
# 1 0.027470 -0.014876 -0.005518 0.000000 0.000000 0.000000
# 2 -0.014876 0.036195 -0.008271 0.000000 0.000000 0.000000
# 3 -0.005518 -0.008271 0.016433 0.000000 0.000000 0.000000
# 4 0.000000 0.000000 0.000000 0.067509 0.000000 0.000000
# 5 0.000000 0.000000 0.000000 0.000000 0.059449 0.000000
# 6 0.000000 0.000000 0.000000 0.000000 0.000000 0.048486
#
#
# Mechanical properties :
#
#
# Convention : Reuss Voigt Hill
#
# Bulk Modulus (GPa) = 43.92390 47.36141 45.64266
# Shear Modulus (GPa) = 15.60258 16.81436 16.20847
#
# Velocity S-wave (km/s) = 3.32107 3.44763 3.38494
# Velocity P-wave (km/s) = 6.76432 7.02340 6.89508
#
# Compressibility (1/GPa) = 0.02276665
#
# Stress axis : x y z
#
# Youngs Moduli (GPa) = 36.40396 27.62842 60.85379
#
# Poissons Ratio (x) = 0.41100 0.33581
# Poissons Ratio (y) = 0.54155 0.50331
# Poissons Ratio (z) = 0.20089 0.22851
#
# Static dielectric constant tensor:
#      x y z
#    x 2.656070 0.000000 0.000000 
#    y 0.000000 2.814410 0.000000 
#    z 0.000000 0.000000 2.981420 
# 
# 
# High freq. dielectric constant tensor:
#      x y z
#    x 1.508910 0.000000 0.000000 
#    y 0.000000 1.513460 0.000000 
#    z 0.000000 0.000000 1.558750 
# 
# From -- ./inp_files/34176.got.cif
#   From: 2010.03.12/outbox.cif.g09.slc.cpg/sg65_18_cif.got.tgz:34176.got - 2010.04.10 20:52:16.
