data_PCOD8265403
_publ_section_title
;
Structure prediction by ZEFSAII (Michael W. Deem and Ramdas Pophale) SiO2 
 PCOD8265403
Probable space group: C M M M
;
_chemical_formula_sum "Si O2"
_cell_formula_units_Z 64
_cell_length_a 14.490656
_cell_length_b 24.178721
_cell_length_c 9.922044
_cell_angle_alpha 90.000000
_cell_angle_beta 90.000000
_cell_angle_gamma 90.000000
_cell_volume 3476.342190
_symmetry_space_group_name_H-M "C M M M"
_symmetry_group_IT_number 65
_symmetry_cell_setting 'orthorhombic'
loop_
_space_group_symop_operation_xyz
x,y,z
-x,-y,z
x,-y,-z
-x,y,-z
-x,-y,-z
x,y,-z
-x,y,z
x,-y,z
1/2+x,1/2+y,z
1/2-x,1/2-y,z
1/2+x,1/2-y,-z
1/2-x,1/2+y,-z
1/2-x,1/2-y,-z
1/2+x,1/2+y,-z
1/2-x,1/2+y,z
1/2+x,1/2-y,z
loop_
_atom_site_type_symbol
_atom_site_label
_atom_site_fract_x
_atom_site_fract_y
_atom_site_fract_z
Si Si1 0.602203 0.106090 0.340938
Si Si2 0.257846 0.313249 0.341790
Si Si3 0.797837 0.500000 0.347986
Si Si4 0.605373 0.378411 0.849676
Si Si5 0.397295 0.500000 0.754229
O O1 0.594126 0.099083 0.500000
O O2 0.500000 0.109547 0.276241
O O3 0.658004 0.161491 0.306475
O O4 0.658771 0.054345 0.277327
O O5 0.282095 0.319270 0.500000
O O6 0.250000 0.250000 0.296395
O O7 0.335830 0.345888 0.260774
O O8 0.832290 0.500000 0.500000
O O9 0.686500 0.500000 0.351898
O O10 0.500000 0.361047 0.823452
O O11 0.614968 0.444911 0.842746
O O12 0.636735 0.360841 0.000000
O O13 0.500000 0.500000 0.685191
#
# Coordination Sequence:
#
# PCOD8265403 Si02
#       5
#    16  16   8  16   8
#     4   9  17  30  49  74 104 138 176 218 266 322
#     4  10  21  36  55  81 110 142 183 229 274 320
#     4  10  17  28  49  78 106 135 174 222 277 332
#     4  10  21  37  57  81 110 146 184 222 273 336
#     4  10  19  32  53  80 107 140 182 226 275 334
#
# _framework density 18.410156000000001
#
# number of rings (size 3 to 8) (size 9 to 14) (size 15 to 20)
#    0.000    2.250    2.500    0.750    0.000    5.250 
#    0.000    5.000    0.000    0.750    0.000    1.750 
#    0.000    0.000    0.000    0.000    0.000    0.000 
#
# Total GULP energy -396560.158364 kJ/mol
# GULP energy per Si atom -12392.504949 kJ/mol
# Density = 1.836825 g / cm^3
# Si number density = 18.410156 Si / 1000 Ang^3
#
#
#
# Elastic Constant Matrix: (Units=GPa)
#
#
# Indices 1 2 3 4 5 6 
#
# 1 157.0656 78.3576 36.6614 0.0000 0.0000 0.0000
# 2 78.3576 148.2948 35.9122 0.0000 0.0000 0.0000
# 3 36.6614 35.9122 51.4845 0.0000 0.0000 0.0000
# 4 0.0000 0.0000 0.0000 15.8364 0.0000 0.0000
# 5 0.0000 0.0000 0.0000 0.0000 17.9816 0.0000
# 6 0.0000 0.0000 0.0000 0.0000 0.0000 21.9486
#
#
#
# Elastic Compliance Matrix: (Units=1/GPa)
#
#
# Indices 1 2 3 4 5 6 
#
# 1 0.009229 -0.003953 -0.003815 0.000000 0.000000 0.000000
# 2 -0.003953 0.009807 -0.004026 0.000000 0.000000 0.000000
# 3 -0.003815 -0.004026 0.024948 0.000000 0.000000 0.000000
# 4 0.000000 0.000000 0.000000 0.063146 0.000000 0.000000
# 5 0.000000 0.000000 0.000000 0.000000 0.055612 0.000000
# 6 0.000000 0.000000 0.000000 0.000000 0.000000 0.045561
#
#
# Mechanical properties :
#
#
# Convention : Reuss Voigt Hill
#
# Bulk Modulus (GPa) = 49.02656 73.18969 61.10813
# Shear Modulus (GPa) = 20.94777 24.88091 22.91434
#
# Velocity S-wave (km/s) = 3.37684 3.68023 3.53180
# Velocity P-wave (km/s) = 6.47241 7.60922 7.06372
#
# Compressibility (1/GPa) = 0.02039711
#
# Stress axis : x y z
#
# Youngs Moduli (GPa) = 108.35197 101.96918 40.08344
#
# Poissons Ratio (x) = 0.40306 0.15291
# Poissons Ratio (y) = 0.42829 0.16137
# Poissons Ratio (z) = 0.41334 0.41052
#
# Static dielectric constant tensor:
#      x y z
#    x 3.643890 0.000000 0.000000 
#    y 0.000000 3.509750 0.000000 
#    z 0.000000 0.000000 2.930200 
# 
# 
# High freq. dielectric constant tensor:
#      x y z
#    x 1.725440 0.000000 0.000000 
#    y 0.000000 1.720680 0.000000 
#    z 0.000000 0.000000 1.662030 
# 
# From -- ./inp_files/6749.got.cif
#   From: 2010.03.12/outbox.cif.g09.slc.cpg/sg65_4_cif.got.tgz:6749.got - 2010.04.10 20:52:16.
