data_PCOD8265038
_publ_section_title
;
Structure prediction by ZEFSAII (Michael W. Deem and Ramdas Pophale) SiO2 
 PCOD8265038
Probable space group: C M C A
;
_chemical_formula_sum "Si O2"
_cell_formula_units_Z 112
_cell_length_a 17.463076
_cell_length_b 18.498655
_cell_length_c 18.707479
_cell_angle_alpha 90.000000
_cell_angle_beta 90.000000
_cell_angle_gamma 90.000000
_cell_volume 6043.327961
_symmetry_space_group_name_H-M "C M C A"
_symmetry_group_IT_number 64
_symmetry_cell_setting 'orthorhombic'
loop_
_space_group_symop_operation_xyz
x,y,z
-x,1/2-y,1/2+z
x,-y,-z
-x,1/2+y,1/2-z
-x,-y,-z
x,1/2+y,1/2-z
-x,y,z
x,1/2-y,1/2+z
1/2+x,1/2+y,z
1/2-x,-y,1/2+z
1/2+x,1/2-y,-z
1/2-x,y,1/2-z
1/2-x,1/2-y,-z
1/2+x,y,1/2-z
1/2-x,1/2+y,z
1/2+x,-y,1/2+z
loop_
_atom_site_type_symbol
_atom_site_label
_atom_site_fract_x
_atom_site_fract_y
_atom_site_fract_z
Si Si1 0.591310 0.832567 0.956242
Si Si2 0.589370 0.041851 0.143601
Si Si3 0.409084 0.382232 0.390245
Si Si4 0.909174 0.526351 0.579719
Si Si5 0.336610 0.840183 0.247655
Si Si6 0.910101 0.688147 0.612321
Si Si7 0.833883 0.992481 0.778499
O O1 0.500000 0.834394 0.953484
O O2 0.625708 0.892719 0.902068
O O3 0.623004 0.753014 0.936527
O O4 0.620467 0.851267 0.035064
O O5 0.500000 0.042290 0.131119
O O6 0.622266 0.964500 0.116516
O O7 0.608034 0.051718 0.227581
O O8 0.500000 0.380190 0.381643
O O9 0.372429 0.329461 0.330732
O O10 0.889654 0.500000 0.500000
O O11 0.883426 0.610393 0.582583
O O12 0.858412 0.480052 0.637986
O O13 0.000000 0.517131 0.596915
O O14 0.250000 0.812641 0.250000
O O15 0.382954 0.795803 0.306917
O O16 0.345332 0.923331 0.267400
O O17 0.000000 0.692209 0.612289
O O18 0.750000 0.968331 0.750000
#
# Coordination Sequence:
#
# PCOD8265038 Si02
#       7
#    16  16  16  16  16  16  16
#     4   9  17  29  46  70  96 119 149 191 235 278
#     4   9  16  28  47  69  93 122 154 190 233 279
#     4   9  16  28  48  70  90 116 153 192 228 272
#     4   9  17  31  52  74  95 124 163 202 236 274
#     4   9  17  30  47  66  89 120 156 190 225 273
#     4   9  17  31  49  68  93 123 153 188 233 279
#     4   9  17  30  47  70  96 122 156 196 235 278
#
# _framework density 18.532834999999999
#
# number of rings (size 3 to 8) (size 9 to 14) (size 15 to 20)
#    0.000    3.000    0.000    1.286    0.000    5.143 
#    0.000    8.571    0.000    5.143    0.000    0.000 
#    0.000    0.000    0.000    0.000    0.000    0.000 
#
# Total GULP energy -693915.356901 kJ/mol
# GULP energy per Si atom -12391.345659 kJ/mol
# Density = 1.849065 g / cm^3
# Si number density = 18.532835 Si / 1000 Ang^3
#
#
#
# Elastic Constant Matrix: (Units=GPa)
#
#
# Indices 1 2 3 4 5 6 
#
# 1 22.3547 22.7723 30.8871 0.0000 0.0000 0.0000
# 2 22.7723 77.1869 67.5602 0.0000 0.0000 0.0000
# 3 30.8871 67.5602 180.8782 0.0000 0.0000 0.0000
# 4 0.0000 0.0000 0.0000 21.2084 0.0000 0.0000
# 5 0.0000 0.0000 0.0000 0.0000 16.1473 0.0000
# 6 0.0000 0.0000 0.0000 0.0000 0.0000 9.7800
#
#
#
# Elastic Compliance Matrix: (Units=1/GPa)
#
#
# Indices 1 2 3 4 5 6 
#
# 1 0.068257 -0.014762 -0.006142 0.000000 0.000000 0.000000
# 2 -0.014762 0.022441 -0.005861 0.000000 0.000000 0.000000
# 3 -0.006142 -0.005861 0.008767 0.000000 0.000000 0.000000
# 4 0.000000 0.000000 0.000000 0.047151 0.000000 0.000000
# 5 0.000000 0.000000 0.000000 0.000000 0.061930 0.000000
# 6 0.000000 0.000000 0.000000 0.000000 0.000000 0.102249
#
#
# Mechanical properties :
#
#
# Convention : Reuss Voigt Hill
#
# Bulk Modulus (GPa) = 21.77005 58.09546 39.93275
# Shear Modulus (GPa) = 13.17049 20.04049 16.60549
#
# Velocity S-wave (km/s) = 2.66871 3.29196 2.99658
# Velocity P-wave (km/s) = 4.61175 6.77235 5.79366
#
# Compressibility (1/GPa) = 0.04593467
#
# Stress axis : x y z
#
# Youngs Moduli (GPa) = 14.65047 44.56149 114.06890
#
# Poissons Ratio (x) = 0.65781 0.70061
# Poissons Ratio (y) = 0.21627 0.66858
# Poissons Ratio (z) = 0.08998 0.26118
#
# Static dielectric constant tensor:
#      x y z
#    x 3.140450 0.000000 0.000000 
#    y 0.000000 3.417290 0.000000 
#    z 0.000000 0.000000 3.683510 
# 
# 
# High freq. dielectric constant tensor:
#      x y z
#    x 1.690740 0.000000 0.000000 
#    y 0.000000 1.686430 0.000000 
#    z 0.000000 0.000000 1.730200 
# 
# From -- ./inp_files/33593.got.cif
#   From: 2010.03.12/outbox.cif.g09.slc.cpg/sg64_17_cif.got.tgz:33593.got - 2010.04.10 20:19:32.
