data_PCOD8265437
_publ_section_title
;
Structure prediction by ZEFSAII (Michael W. Deem and Ramdas Pophale) SiO2 
 PCOD8265437
Probable space group: C M M M
;
_chemical_formula_sum "Si O2"
_cell_formula_units_Z 96
_cell_length_a 18.929817
_cell_length_b 14.465467
_cell_length_c 20.148529
_cell_angle_alpha 90.000000
_cell_angle_beta 90.000000
_cell_angle_gamma 90.000000
_cell_volume 5517.244357
_symmetry_space_group_name_H-M "C M M M"
_symmetry_group_IT_number 65
_symmetry_cell_setting 'orthorhombic'
loop_
_space_group_symop_operation_xyz
x,y,z
-x,-y,z
x,-y,-z
-x,y,-z
-x,-y,-z
x,y,-z
-x,y,z
x,-y,z
1/2+x,1/2+y,z
1/2-x,1/2-y,z
1/2+x,1/2-y,-z
1/2-x,1/2+y,-z
1/2-x,1/2-y,-z
1/2+x,1/2+y,-z
1/2-x,1/2+y,z
1/2+x,1/2-y,z
loop_
_atom_site_type_symbol
_atom_site_label
_atom_site_fract_x
_atom_site_fract_y
_atom_site_fract_z
Si Si1 0.582072 0.235137 0.330886
Si Si2 0.786566 0.843920 0.661648
Si Si3 0.720984 0.602212 0.198697
Si Si4 0.082150 0.601509 0.072752
Si Si5 0.640060 0.216523 0.814150
Si Si6 0.161352 0.393393 0.573949
O O1 0.500000 0.261105 0.340080
O O2 0.631460 0.320974 0.355537
O O3 0.597277 0.207433 0.254735
O O4 0.602726 0.149766 0.377944
O O5 0.750000 0.750000 0.690364
O O6 0.784146 0.915292 0.721965
O O7 0.742325 0.878523 0.598526
O O8 0.710105 0.500000 0.165955
O O9 0.661956 0.676096 0.175219
O O10 0.796491 0.643743 0.181832
O O11 0.111461 0.500000 0.096434
O O12 0.093337 0.685192 0.124086
O O13 0.000000 0.591693 0.063734
O O14 0.115358 0.625858 0.000000
O O15 0.156141 0.350537 0.500000
O O16 0.143425 0.500000 0.571776
#
# Coordination Sequence:
#
# PCOD8265437 Si02
#       6
#    16  16  16  16  16  16
#     4  10  20  32  48  74 102 128 162 206 260 311
#     4   9  16  32  49  69  94 131 172 209 245 293
#     4  10  17  29  50  74 100 131 170 209 249 297
#     4   9  18  32  51  75 101 132 168 204 250 307
#     4  10  18  32  50  76 102 133 165 209 257 299
#     4  10  20  33  50  71  96 130 170 210 253 306
#
# _framework density 17.399989999999999
#
# number of rings (size 3 to 8) (size 9 to 14) (size 15 to 20)
#    0.000    2.333    5.000    2.000    0.000    4.333 
#    0.000    2.500    0.000   18.500    0.000    2.333 
#    0.000    0.000    0.000    0.000    0.000    0.000 
#
# Total GULP energy -594630.469647 kJ/mol
# GULP energy per Si atom -12388.134784 kJ/mol
# Density = 1.736039 g / cm^3
# Si number density = 17.399990 Si / 1000 Ang^3
#
#
#
# Elastic Constant Matrix: (Units=GPa)
#
#
# Indices 1 2 3 4 5 6 
#
# 1 89.7537 20.5528 23.9596 0.0000 0.0000 0.0000
# 2 20.5528 95.8759 28.6864 0.0000 0.0000 0.0000
# 3 23.9596 28.6864 80.4563 0.0000 0.0000 0.0000
# 4 0.0000 0.0000 0.0000 13.4679 0.0000 0.0000
# 5 0.0000 0.0000 0.0000 0.0000 19.2130 0.0000
# 6 0.0000 0.0000 0.0000 0.0000 0.0000 14.8241
#
#
#
# Elastic Compliance Matrix: (Units=1/GPa)
#
#
# Indices 1 2 3 4 5 6 
#
# 1 0.012356 -0.001733 -0.003062 0.000000 0.000000 0.000000
# 2 -0.001733 0.011919 -0.003734 0.000000 0.000000 0.000000
# 3 -0.003062 -0.003734 0.014672 0.000000 0.000000 0.000000
# 4 0.000000 0.000000 0.000000 0.074250 0.000000 0.000000
# 5 0.000000 0.000000 0.000000 0.000000 0.052048 0.000000
# 6 0.000000 0.000000 0.000000 0.000000 0.000000 0.067458
#
#
# Mechanical properties :
#
#
# Convention : Reuss Voigt Hill
#
# Bulk Modulus (GPa) = 45.68173 45.83150 45.75662
# Shear Modulus (GPa) = 19.45105 22.36013 20.90559
#
# Velocity S-wave (km/s) = 3.34709 3.58867 3.46999
# Velocity P-wave (km/s) = 6.42248 6.60065 6.51217
#
# Compressibility (1/GPa) = 0.02189059
#
# Stress axis : x y z
#
# Youngs Moduli (GPa) = 80.93451 83.90199 68.15661
#
# Poissons Ratio (x) = 0.14537 0.20868
# Poissons Ratio (y) = 0.14023 0.25447
# Poissons Ratio (z) = 0.24780 0.31326
#
# Static dielectric constant tensor:
#      x y z
#    x 3.155380 0.000000 0.000000 
#    y 0.000000 3.208870 0.000000 
#    z 0.000000 0.000000 3.276430 
# 
# 
# High freq. dielectric constant tensor:
#      x y z
#    x 1.652300 0.000000 0.000000 
#    y 0.000000 1.661340 0.000000 
#    z 0.000000 0.000000 1.662100 
# 
# From -- ./inp_files/64646.got.cif
#   From: 2010.03.12/outbox.cif.g09.slc.cpg/sg65_33_cif.got.tgz:64646.got - 2010.04.10 20:52:16.
