data_PCOD8265953
_publ_section_title
;
Structure prediction by ZEFSAII (Michael W. Deem and Ramdas Pophale) SiO2 
 PCOD8265953
Probable space group: C M M M
;
_chemical_formula_sum "Si O2"
_cell_formula_units_Z 96
_cell_length_a 32.153437
_cell_length_b 27.666538
_cell_length_c 7.728638
_cell_angle_alpha 90.000000
_cell_angle_beta 90.000000
_cell_angle_gamma 90.000000
_cell_volume 6875.197635
_symmetry_space_group_name_H-M "C M M M"
_symmetry_group_IT_number 65
_symmetry_cell_setting 'orthorhombic'
loop_
_space_group_symop_operation_xyz
x,y,z
-x,-y,z
x,-y,-z
-x,y,-z
-x,-y,-z
x,y,-z
-x,y,z
x,-y,z
1/2+x,1/2+y,z
1/2-x,1/2-y,z
1/2+x,1/2-y,-z
1/2-x,1/2+y,-z
1/2-x,1/2-y,-z
1/2+x,1/2+y,-z
1/2-x,1/2+y,z
1/2+x,1/2-y,z
loop_
_atom_site_type_symbol
_atom_site_label
_atom_site_fract_x
_atom_site_fract_y
_atom_site_fract_z
Si Si1 0.866950 0.237711 0.797733
Si Si2 0.765928 0.826563 0.500000
Si Si3 0.954173 0.103873 0.299257
Si Si4 0.455288 0.710577 0.196264
Si Si5 0.871328 0.054429 0.703770
Si Si6 0.683199 0.358590 0.807631
Si Si7 0.314549 0.226765 0.500000
O O1 0.914789 0.237835 0.727997
O O2 0.849940 0.183571 0.768750
O O3 0.842183 0.275034 0.675247
O O4 0.862792 0.252989 0.000000
O O5 0.779055 0.856192 0.328866
O O6 0.716027 0.819502 0.500000
O O7 0.787642 0.774951 0.500000
O O8 0.949775 0.116998 0.500000
O O9 0.947626 0.153352 0.196790
O O10 0.918927 0.065972 0.241833
O O11 0.000000 0.081697 0.259500
O O12 0.500000 0.723220 0.289158
O O13 0.458567 0.727363 0.000000
O O14 0.865488 0.060718 0.500000
O O15 0.839653 0.090081 0.798054
O O16 0.861363 0.000000 0.763781
O O17 0.702082 0.352528 0.000000
#
# Coordination Sequence:
#
# PCOD8265953 Si02
#       7
#    16   8  16  16  16  16   8
#     4   9  17  27  41  60  79  99 125 153 187 231
#     4   9  18  32  43  60  78  92 116 146 188 244
#     4   9  17  26  38  54  70  94 129 164 199 239
#     4   9  16  25  37  53  74 100 128 158 191 227
#     4  10  19  29  41  55  75 101 129 164 202 240
#     4  10  18  29  45  59  75  99 123 153 194 238
#     4   9  18  28  45  60  76  97 113 147 191 234
#
# _framework density 13.963234999999999
#
# number of rings (size 3 to 8) (size 9 to 14) (size 15 to 20)
#    0.000    2.667    2.500    0.000    1.167    1.333 
#    0.000    5.000    0.000    0.000    0.000    3.500 
#    0.000    0.000    0.000    0.000    0.000    0.000 
#
# Total GULP energy -594788.837126 kJ/mol
# GULP energy per Si atom -12391.434107 kJ/mol
# Density = 1.393145 g / cm^3
# Si number density = 13.963235 Si / 1000 Ang^3
#
#
#
# Elastic Constant Matrix: (Units=GPa)
#
#
# Indices 1 2 3 4 5 6 
#
# 1 99.1051 39.2752 46.2117 0.0000 0.0000 0.0000
# 2 39.2752 30.2003 20.2727 0.0000 0.0000 0.0000
# 3 46.2117 20.2727 66.5036 0.0000 0.0000 0.0000
# 4 0.0000 0.0000 0.0000 9.8625 0.0000 0.0000
# 5 0.0000 0.0000 0.0000 0.0000 12.9628 0.0000
# 6 0.0000 0.0000 0.0000 0.0000 0.0000 19.0831
#
#
#
# Elastic Compliance Matrix: (Units=1/GPa)
#
#
# Indices 1 2 3 4 5 6 
#
# 1 0.024642 -0.025840 -0.009246 0.000000 0.000000 0.000000
# 2 -0.025840 0.068727 -0.002995 0.000000 0.000000 0.000000
# 3 -0.009246 -0.002995 0.022375 0.000000 0.000000 0.000000
# 4 0.000000 0.000000 0.000000 0.101394 0.000000 0.000000
# 5 0.000000 0.000000 0.000000 0.000000 0.077144 0.000000
# 6 0.000000 0.000000 0.000000 0.000000 0.000000 0.052402
#
#
# Mechanical properties :
#
#
# Convention : Reuss Voigt Hill
#
# Bulk Modulus (GPa) = 25.26421 45.25870 35.26146
# Shear Modulus (GPa) = 11.46682 14.38497 12.92589
#
# Velocity S-wave (km/s) = 2.86879 3.21316 3.04585
# Velocity P-wave (km/s) = 5.39499 6.80066 6.13820
#
# Compressibility (1/GPa) = 0.03958168
#
# Stress axis : x y z
#
# Youngs Moduli (GPa) = 40.58104 14.55029 44.69327
#
# Poissons Ratio (x) = 0.37598 0.41324
# Poissons Ratio (y) = 1.04861 0.13386
# Poissons Ratio (z) = 0.37522 0.04358
#
# Static dielectric constant tensor:
#      x y z
#    x 2.937280 0.000000 0.000000 
#    y 0.000000 2.314350 0.000000 
#    z 0.000000 0.000000 2.820000 
# 
# 
# High freq. dielectric constant tensor:
#      x y z
#    x 1.523030 0.000000 0.000000 
#    y 0.000000 1.461010 0.000000 
#    z 0.000000 0.000000 1.542560 
# 
# From -- ./inp_files/19180.got.cif
#   From: 2010.03.12/outbox.cif.g09.slc.cpg/sg65_10_cif.got.tgz:19180.got - 2010.04.10 20:52:16.
