data_PCOD8265398
_publ_section_title
;
Structure prediction by ZEFSAII (Michael W. Deem and Ramdas Pophale) SiO2 
 PCOD8265398
Probable space group: C M M M
;
_chemical_formula_sum "Si O2"
_cell_formula_units_Z 104
_cell_length_a 13.573510
_cell_length_b 24.204571
_cell_length_c 19.644247
_cell_angle_alpha 90.000000
_cell_angle_beta 90.000000
_cell_angle_gamma 90.000000
_cell_volume 6453.940289
_symmetry_space_group_name_H-M "C M M M"
_symmetry_group_IT_number 65
_symmetry_cell_setting 'orthorhombic'
loop_
_space_group_symop_operation_xyz
x,y,z
-x,-y,z
x,-y,-z
-x,y,-z
-x,-y,-z
x,y,-z
-x,y,z
x,-y,z
1/2+x,1/2+y,z
1/2-x,1/2-y,z
1/2+x,1/2-y,-z
1/2-x,1/2+y,-z
1/2-x,1/2-y,-z
1/2+x,1/2+y,-z
1/2-x,1/2+y,z
1/2+x,1/2-y,z
loop_
_atom_site_type_symbol
_atom_site_label
_atom_site_fract_x
_atom_site_fract_y
_atom_site_fract_z
Si Si1 0.226587 0.435343 0.317762
Si Si2 0.383627 0.000000 0.075455
Si Si3 0.110990 0.729953 0.322896
Si Si4 0.883145 0.592694 0.822058
Si Si5 0.613390 0.350559 0.285150
Si Si6 0.114856 0.635988 0.423548
Si Si7 0.267068 0.192451 0.805836
O O1 0.247896 0.500000 0.327323
O O2 0.164896 0.425322 0.248926
O O3 0.330674 0.403003 0.317073
O O4 0.165243 0.413057 0.381416
O O5 0.348672 0.053066 0.117393
O O6 0.500000 0.000000 0.068599
O O7 0.335506 0.000000 0.000000
O O8 0.123408 0.796056 0.333566
O O9 0.134942 0.696905 0.392048
O O10 0.183958 0.706363 0.266720
O O11 0.000000 0.717028 0.298084
O O12 0.840548 0.652087 0.846050
O O13 0.000000 0.593869 0.812784
O O14 0.500000 0.366948 0.273574
O O15 0.662137 0.336207 0.211370
O O16 0.157572 0.636256 0.500000
O O17 0.000000 0.622474 0.423709
O O18 0.250000 0.250000 0.847011
#
# Coordination Sequence:
#
# PCOD8265398 Si02
#       7
#    16   8  16  16  16  16  16
#     4  11  21  32  47  66  91 124 166 197 225 278
#     4   9  18  30  46  74 106 130 154 185 228 282
#     4   9  15  28  48  68  92 116 144 188 242 292
#     4  10  17  28  49  73  97 127 156 188 232 281
#     4   9  18  30  46  66  91 121 154 200 242 268
#     4  10  20  32  48  71  96 118 144 190 249 299
#     4   9  16  26  45  71  98 120 154 190 234 279
#
# _framework density 16.114187000000001
#
# number of rings (size 3 to 8) (size 9 to 14) (size 15 to 20)
#    0.000    2.385    3.846    0.923    0.000    2.154 
#    0.000    2.308    0.000    1.846    0.000    1.077 
#    0.000   19.692    0.000    0.000    0.000    0.000 
#
# Total GULP energy -644379.809091 kJ/mol
# GULP energy per Si atom -12391.919406 kJ/mol
# Density = 1.607751 g / cm^3
# Si number density = 16.114187 Si / 1000 Ang^3
#
#
#
# Elastic Constant Matrix: (Units=GPa)
#
#
# Indices 1 2 3 4 5 6 
#
# 1 87.4281 47.0263 29.3750 0.0000 0.0000 0.0000
# 2 47.0263 141.4021 41.8465 0.0000 0.0000 0.0000
# 3 29.3750 41.8465 73.9743 0.0000 0.0000 0.0000
# 4 0.0000 0.0000 0.0000 17.8651 0.0000 0.0000
# 5 0.0000 0.0000 0.0000 0.0000 5.5627 0.0000
# 6 0.0000 0.0000 0.0000 0.0000 0.0000 26.1671
#
#
#
# Elastic Compliance Matrix: (Units=1/GPa)
#
#
# Indices 1 2 3 4 5 6 
#
# 1 0.014726 -0.003804 -0.003696 0.000000 0.000000 0.000000
# 2 -0.003804 0.009476 -0.003850 0.000000 0.000000 0.000000
# 3 -0.003696 -0.003850 0.017164 0.000000 0.000000 0.000000
# 4 0.000000 0.000000 0.000000 0.055975 0.000000 0.000000
# 5 0.000000 0.000000 0.000000 0.000000 0.179768 0.000000
# 6 0.000000 0.000000 0.000000 0.000000 0.000000 0.038216
#
#
# Mechanical properties :
#
#
# Convention : Reuss Voigt Hill
#
# Bulk Modulus (GPa) = 53.57206 59.92223 56.74714
# Shear Modulus (GPa) = 14.52447 22.22276 18.37362
#
# Velocity S-wave (km/s) = 3.00550 3.71763 3.38037
# Velocity P-wave (km/s) = 6.73509 7.46287 7.10830
#
# Compressibility (1/GPa) = 0.01866645
#
# Stress axis : x y z
#
# Youngs Moduli (GPa) = 67.90884 105.52467 58.26169
#
# Poissons Ratio (x) = 0.40137 0.21533
# Poissons Ratio (y) = 0.25830 0.22433
# Poissons Ratio (z) = 0.25098 0.40631
#
# Static dielectric constant tensor:
#      x y z
#    x 3.170540 0.000000 0.000000 
#    y 0.000000 3.592600 0.000000 
#    z 0.000000 0.000000 2.793500 
# 
# 
# High freq. dielectric constant tensor:
#      x y z
#    x 1.618540 0.000000 0.000000 
#    y 0.000000 1.631510 0.000000 
#    z 0.000000 0.000000 1.565930 
# 
# From -- ./inp_files/53499.got.cif
#   From: 2010.03.12/outbox.cif.g09.slc.cpg/sg65_27_cif.got.tgz:53499.got - 2010.04.10 20:52:16.
