data_PCOD8265436
_publ_section_title
;
Structure prediction by ZEFSAII (Michael W. Deem and Ramdas Pophale) SiO2 
 PCOD8265436
Probable space group: C M M M
;
_chemical_formula_sum "Si O2"
_cell_formula_units_Z 80
_cell_length_a 16.840123
_cell_length_b 27.384199
_cell_length_c 9.314184
_cell_angle_alpha 90.000000
_cell_angle_beta 90.000000
_cell_angle_gamma 90.000000
_cell_volume 4295.266497
_symmetry_space_group_name_H-M "C M M M"
_symmetry_group_IT_number 65
_symmetry_cell_setting 'orthorhombic'
loop_
_space_group_symop_operation_xyz
x,y,z
-x,-y,z
x,-y,-z
-x,y,-z
-x,-y,-z
x,y,-z
-x,y,z
x,-y,z
1/2+x,1/2+y,z
1/2-x,1/2-y,z
1/2+x,1/2-y,-z
1/2-x,1/2+y,-z
1/2-x,1/2-y,-z
1/2+x,1/2+y,-z
1/2-x,1/2+y,z
1/2+x,1/2-y,z
loop_
_atom_site_type_symbol
_atom_site_label
_atom_site_fract_x
_atom_site_fract_y
_atom_site_fract_z
Si Si1 0.500000 0.446498 0.741766
Si Si2 0.350004 0.291070 0.331920
Si Si3 0.731877 0.146213 0.828150
Si Si4 0.173910 0.052914 0.837297
Si Si5 0.000000 0.155888 0.344376
Si Si6 0.408184 0.182245 0.666270
O O1 0.500000 0.500000 0.665762
O O2 0.421205 0.439493 0.836902
O O3 0.500000 0.402361 0.628962
O O4 0.330827 0.300364 0.500000
O O5 0.273070 0.305606 0.239714
O O6 0.420102 0.325734 0.268264
O O7 0.375996 0.236196 0.303268
O O8 0.777551 0.097848 0.767460
O O9 0.642134 0.145122 0.766290
O O10 0.732125 0.149722 0.000000
O O11 0.194463 0.000000 0.763648
O O12 0.202117 0.050597 0.000000
O O13 0.000000 0.182289 0.500000
O O14 0.397312 0.168033 0.500000
O O15 0.500000 0.178681 0.711966
#
# Coordination Sequence:
#
# PCOD8265436 Si02
#       6
#     8  16  16  16   8  16
#     4  10  17  29  50  73 101 140 180 215 250 292
#     4  10  19  35  55  75 103 143 182 211 247 302
#     4  11  22  34  53  81 109 135 168 215 267 309
#     4   9  18  32  50  73 103 139 175 208 248 307
#     4  10  18  30  49  72 104 141 178 215 249 295
#     4  10  21  38  58  76  99 137 181 216 253 309
#
# _framework density 18.625154999999999
#
# number of rings (size 3 to 8) (size 9 to 14) (size 15 to 20)
#    0.000    2.000    3.000    1.500    0.000    5.000 
#    0.000    0.500    0.000    3.000    0.000    4.200 
#    0.000    0.000    0.000    0.000    0.000    0.000 
#
# Total GULP energy -495606.120907 kJ/mol
# GULP energy per Si atom -12390.153023 kJ/mol
# Density = 1.858276 g / cm^3
# Si number density = 18.625155 Si / 1000 Ang^3
#
#
#
# Elastic Constant Matrix: (Units=GPa)
#
#
# Indices 1 2 3 4 5 6 
#
# 1 141.3384 63.0379 44.0393 0.0000 0.0000 0.0000
# 2 63.0379 96.6965 27.5176 0.0000 0.0000 0.0000
# 3 44.0393 27.5176 57.4521 0.0000 0.0000 0.0000
# 4 0.0000 0.0000 0.0000 17.8811 0.0000 0.0000
# 5 0.0000 0.0000 0.0000 0.0000 21.9907 0.0000
# 6 0.0000 0.0000 0.0000 0.0000 0.0000 25.4590
#
#
#
# Elastic Compliance Matrix: (Units=1/GPa)
#
#
# Indices 1 2 3 4 5 6 
#
# 1 0.011559 -0.005805 -0.006080 0.000000 0.000000 0.000000
# 2 -0.005805 0.014889 -0.002682 0.000000 0.000000 0.000000
# 3 -0.006080 -0.002682 0.023351 0.000000 0.000000 0.000000
# 4 0.000000 0.000000 0.000000 0.055925 0.000000 0.000000
# 5 0.000000 0.000000 0.000000 0.000000 0.045474 0.000000
# 6 0.000000 0.000000 0.000000 0.000000 0.000000 0.039279
#
#
# Mechanical properties :
#
#
# Convention : Reuss Voigt Hill
#
# Bulk Modulus (GPa) = 48.38967 62.74185 55.56576
# Shear Modulus (GPa) = 22.07530 23.79230 22.93380
#
# Velocity S-wave (km/s) = 3.44647 3.57799 3.51284
# Velocity P-wave (km/s) = 6.47107 7.12945 6.80822
#
# Compressibility (1/GPa) = 0.02066557
#
# Stress axis : x y z
#
# Youngs Moduli (GPa) = 86.51470 67.16273 42.82560
#
# Poissons Ratio (x) = 0.38989 0.26037
# Poissons Ratio (y) = 0.50223 0.11484
# Poissons Ratio (z) = 0.52599 0.18010
#
# Static dielectric constant tensor:
#      x y z
#    x 3.596760 0.000000 0.000000 
#    y 0.000000 3.620360 0.000000 
#    z 0.000000 0.000000 3.048250 
# 
# 
# High freq. dielectric constant tensor:
#      x y z
#    x 1.723620 0.000000 0.000000 
#    y 0.000000 1.718850 0.000000 
#    z 0.000000 0.000000 1.688570 
# 
# From -- ./inp_files/9747.got.cif
#   From: 2010.03.12/outbox.cif.g09.slc.cpg/sg65_5_cif.got.tgz:9747.got - 2010.04.10 20:52:16.
