data_PCOD8265793
_publ_section_title
;
Structure prediction by ZEFSAII (Michael W. Deem and Ramdas Pophale) SiO2 
 PCOD8265793
Probable space group: C M M M
;
_chemical_formula_sum "Si O2"
_cell_formula_units_Z 96
_cell_length_a 29.583417
_cell_length_b 19.359529
_cell_length_c 10.004069
_cell_angle_alpha 90.000000
_cell_angle_beta 90.000000
_cell_angle_gamma 90.000000
_cell_volume 5729.540595
_symmetry_space_group_name_H-M "C M M M"
_symmetry_group_IT_number 65
_symmetry_cell_setting 'orthorhombic'
loop_
_space_group_symop_operation_xyz
x,y,z
-x,-y,z
x,-y,-z
-x,y,-z
-x,-y,-z
x,y,-z
-x,y,z
x,-y,z
1/2+x,1/2+y,z
1/2-x,1/2-y,z
1/2+x,1/2-y,-z
1/2-x,1/2+y,-z
1/2-x,1/2-y,-z
1/2+x,1/2+y,-z
1/2-x,1/2+y,z
1/2+x,1/2-y,z
loop_
_atom_site_type_symbol
_atom_site_label
_atom_site_fract_x
_atom_site_fract_y
_atom_site_fract_z
Si Si1 0.110648 0.659899 0.843467
Si Si2 0.874285 0.817765 0.842755
Si Si3 0.773374 0.819858 0.159342
Si Si4 0.949395 0.078015 0.841027
Si Si5 0.053327 0.577082 0.351881
Si Si6 0.198410 0.577162 0.158578
O O1 0.111810 0.740193 0.808393
O O2 0.069410 0.629121 0.761367
O O3 0.156204 0.622717 0.792947
O O4 0.102404 0.647006 0.000000
O O5 0.824037 0.830425 0.783002
O O6 0.911511 0.870177 0.779901
O O7 0.872512 0.829873 0.000000
O O8 0.750000 0.750000 0.215252
O O9 0.744172 0.885524 0.207379
O O10 0.775336 0.814120 0.000000
O O11 0.000000 0.098566 0.790671
O O12 0.937819 0.000000 0.794605
O O13 0.948777 0.082353 0.000000
O O14 0.070438 0.599221 0.500000
O O15 0.071136 0.500000 0.319083
O O16 0.000000 0.577912 0.349250
O O17 0.196322 0.500000 0.220159
O O18 0.197964 0.573246 0.000000
#
# Coordination Sequence:
#
# PCOD8265793 Si02
#       6
#    16  16  16  16  16  16
#     4  10  18  28  44  68  94 117 143 184 232 273
#     4   9  16  24  38  59  84 115 149 182 222 270
#     4   9  14  23  35  49  77 115 145 172 213 261
#     4   8  14  24  35  48  73 110 147 182 220 263
#     4   9  19  35  50  63  85 119 154 186 221 263
#     4   9  16  24  36  57  84 113 146 184 223 263
#
# _framework density 16.755269999999999
#
# number of rings (size 3 to 8) (size 9 to 14) (size 15 to 20)
#    0.000    3.000    1.667    1.500    0.000    2.667 
#    0.000    5.833    0.000    0.000    0.000    2.333 
#    0.000    0.667    0.000    3.667    0.000    3.000 
#
# Total GULP energy -594872.983588 kJ/mol
# GULP energy per Si atom -12393.187158 kJ/mol
# Density = 1.671713 g / cm^3
# Si number density = 16.755270 Si / 1000 Ang^3
#
#
#
# Elastic Constant Matrix: (Units=GPa)
#
#
# Indices 1 2 3 4 5 6 
#
# 1 115.4938 78.6315 18.4946 0.0000 0.0000 0.0000
# 2 78.6315 135.2342 22.6221 0.0000 0.0000 0.0000
# 3 18.4946 22.6221 22.3486 0.0000 0.0000 0.0000
# 4 0.0000 0.0000 0.0000 4.6791 0.0000 0.0000
# 5 0.0000 0.0000 0.0000 0.0000 4.0361 0.0000
# 6 0.0000 0.0000 0.0000 0.0000 0.0000 36.7675
#
#
#
# Elastic Compliance Matrix: (Units=1/GPa)
#
#
# Indices 1 2 3 4 5 6 
#
# 1 0.014655 -0.007816 -0.004216 0.000000 0.000000 0.000000
# 2 -0.007816 0.013070 -0.006762 0.000000 0.000000 0.000000
# 3 -0.004216 -0.006762 0.055080 0.000000 0.000000 0.000000
# 4 0.000000 0.000000 0.000000 0.213715 0.000000 0.000000
# 5 0.000000 0.000000 0.000000 0.000000 0.247765 0.000000
# 6 0.000000 0.000000 0.000000 0.000000 0.000000 0.027198
#
#
# Mechanical properties :
#
#
# Convention : Reuss Voigt Hill
#
# Bulk Modulus (GPa) = 22.11594 56.95257 39.53425
# Shear Modulus (GPa) = 8.01099 19.31844 13.66471
#
# Velocity S-wave (km/s) = 2.18896 3.39924 2.85888
# Velocity P-wave (km/s) = 4.42908 7.03356 5.87741
#
# Compressibility (1/GPa) = 0.04521625
#
# Stress axis : x y z
#
# Youngs Moduli (GPa) = 68.23719 76.51007 18.15554
#
# Poissons Ratio (x) = 0.59798 0.07655
# Poissons Ratio (y) = 0.53332 0.12277
# Poissons Ratio (z) = 0.28770 0.51738
#
# Static dielectric constant tensor:
#      x y z
#    x 3.385720 0.000000 0.000000 
#    y 0.000000 3.380050 0.000000 
#    z 0.000000 0.000000 2.470560 
# 
# 
# High freq. dielectric constant tensor:
#      x y z
#    x 1.656500 0.000000 0.000000 
#    y 0.000000 1.654650 0.000000 
#    z 0.000000 0.000000 1.560440 
# 
# From -- ./inp_files/12208.got.cif
#   From: 2010.03.12/outbox.cif.g09.slc.cpg/sg65_7_cif.got.tgz:12208.got - 2010.04.10 20:52:16.
