data_PCOD8265469
_publ_section_title
;
Structure prediction by ZEFSAII (Michael W. Deem and Ramdas Pophale) SiO2 
 PCOD8265469
Probable space group: C M M M
;
_chemical_formula_sum "Si O2"
_cell_formula_units_Z 96
_cell_length_a 8.617313
_cell_length_b 23.942715
_cell_length_c 25.689509
_cell_angle_alpha 90.000000
_cell_angle_beta 90.000000
_cell_angle_gamma 90.000000
_cell_volume 5300.307516
_symmetry_space_group_name_H-M "C M M M"
_symmetry_group_IT_number 65
_symmetry_cell_setting 'orthorhombic'
loop_
_space_group_symop_operation_xyz
x,y,z
-x,-y,z
x,-y,-z
-x,y,-z
-x,-y,-z
x,y,-z
-x,y,z
x,-y,z
1/2+x,1/2+y,z
1/2-x,1/2-y,z
1/2+x,1/2-y,-z
1/2-x,1/2+y,-z
1/2-x,1/2-y,-z
1/2+x,1/2+y,-z
1/2-x,1/2+y,z
1/2+x,1/2-y,z
loop_
_atom_site_type_symbol
_atom_site_label
_atom_site_fract_x
_atom_site_fract_y
_atom_site_fract_z
Si Si1 0.815788 0.062793 0.942562
Si Si2 0.683642 0.614477 0.160942
Si Si3 0.684178 0.500000 0.210436
Si Si4 0.816331 0.000000 0.675011
Si Si5 0.316532 0.690134 0.557600
Si Si6 0.816886 0.688426 0.247929
Si Si7 0.815533 0.878763 0.654845
O O1 0.765216 0.109743 0.900033
O O2 0.000000 0.059310 0.941710
O O3 0.753431 0.000000 0.929394
O O4 0.756317 0.081229 0.000000
O O5 0.500000 0.623038 0.167788
O O6 0.744080 0.555812 0.183316
O O7 0.767197 0.664846 0.191265
O O8 0.500000 0.500000 0.210026
O O9 0.755765 0.500000 0.267710
O O10 0.761392 0.943078 0.647292
O O11 0.000000 0.000000 0.678947
O O12 0.261309 0.670194 0.500000
O O13 0.500000 0.693474 0.559534
O O14 0.250000 0.750000 0.571168
O O15 0.252611 0.649363 0.602112
O O16 0.750000 0.750000 0.256007
O O17 0.756621 0.648278 0.293680
O O18 0.000000 0.692059 0.250981
O O19 0.000000 0.873512 0.660792
#
# Coordination Sequence:
#
# PCOD8265469 Si02
#       7
#    16  16   8   8  16  16  16
#     4   8  13  22  43  78 111 136 167 205 242 289
#     4  10  17  30  52  76 105 139 170 204 246 297
#     4   9  14  24  47  75 101 134 171 196 235 295
#     4   9  16  28  49  75 103 136 169 196 239 301
#     4   9  18  32  51  75 101 131 170 214 255 295
#     4  12  25  38  52  73 100 130 169 215 260 304
#     4  10  19  34  55  77 104 136 169 204 248 303
#
# _framework density 18.112155999999999
#
# number of rings (size 3 to 8) (size 9 to 14) (size 15 to 20)
#    0.000    2.333    2.500    2.500    0.000    2.000 
#    0.000    2.083    0.000    3.500    0.000    1.167 
#    0.000    4.000    0.000    0.000    0.000    0.000 
#
# Total GULP energy -594764.497952 kJ/mol
# GULP energy per Si atom -12390.927041 kJ/mol
# Density = 1.807093 g / cm^3
# Si number density = 18.112156 Si / 1000 Ang^3
#
#
#
# Elastic Constant Matrix: (Units=GPa)
#
#
# Indices 1 2 3 4 5 6 
#
# 1 40.8443 25.8733 25.3558 0.0000 0.0000 0.0000
# 2 25.8733 119.4280 73.0780 0.0000 0.0000 0.0000
# 3 25.3558 73.0780 149.1645 0.0000 0.0000 0.0000
# 4 0.0000 0.0000 0.0000 37.3057 0.0000 0.0000
# 5 0.0000 0.0000 0.0000 0.0000 12.4208 0.0000
# 6 0.0000 0.0000 0.0000 0.0000 0.0000 17.8996
#
#
#
# Elastic Compliance Matrix: (Units=1/GPa)
#
#
# Indices 1 2 3 4 5 6 
#
# 1 0.029095 -0.004680 -0.002653 0.000000 0.000000 0.000000
# 2 -0.004680 0.012711 -0.005432 0.000000 0.000000 0.000000
# 3 -0.002653 -0.005432 0.009816 0.000000 0.000000 0.000000
# 4 0.000000 0.000000 0.000000 0.026806 0.000000 0.000000
# 5 0.000000 0.000000 0.000000 0.000000 0.080510 0.000000
# 6 0.000000 0.000000 0.000000 0.000000 0.000000 0.055867
#
#
# Mechanical properties :
#
#
# Convention : Reuss Voigt Hill
#
# Bulk Modulus (GPa) = 38.32518 62.00566 50.16542
# Shear Modulus (GPa) = 20.07783 25.86720 22.97251
#
# Velocity S-wave (km/s) = 3.33307 3.78321 3.56525
# Velocity P-wave (km/s) = 6.00153 7.30700 6.68620
#
# Compressibility (1/GPa) = 0.02609251
#
# Stress axis : x y z
#
# Youngs Moduli (GPa) = 34.37059 78.67355 101.87410
#
# Poissons Ratio (x) = 0.36818 0.27027
# Poissons Ratio (y) = 0.16085 0.55335
# Poissons Ratio (z) = 0.09118 0.42733
#
# Static dielectric constant tensor:
#      x y z
#    x 2.964280 0.000000 0.000000 
#    y 0.000000 3.441330 0.000000 
#    z 0.000000 0.000000 3.820290 
# 
# 
# High freq. dielectric constant tensor:
#      x y z
#    x 1.660880 0.000000 0.000000 
#    y 0.000000 1.688450 0.000000 
#    z 0.000000 0.000000 1.711860 
# 
# From -- ./inp_files/73484.got.cif
#   From: 2010.03.12/outbox.cif.g09.slc.cpg/sg65_37_cif.got.tgz:73484.got - 2010.04.10 20:52:16.
