data_PCOD8265184
_publ_section_title
;
Structure prediction by ZEFSAII (Michael W. Deem and Ramdas Pophale) SiO2 
 PCOD8265184
Probable space group: C M M M
;
_chemical_formula_sum "Si O2"
_cell_formula_units_Z 128
_cell_length_a 20.875622
_cell_length_b 19.369025
_cell_length_c 18.325800
_cell_angle_alpha 90.000000
_cell_angle_beta 90.000000
_cell_angle_gamma 90.000000
_cell_volume 7409.862116
_symmetry_space_group_name_H-M "C M M M"
_symmetry_group_IT_number 65
_symmetry_cell_setting 'orthorhombic'
loop_
_space_group_symop_operation_xyz
x,y,z
-x,-y,z
x,-y,-z
-x,y,-z
-x,-y,-z
x,y,-z
-x,y,z
x,-y,z
1/2+x,1/2+y,z
1/2-x,1/2-y,z
1/2+x,1/2-y,-z
1/2-x,1/2+y,-z
1/2-x,1/2-y,-z
1/2+x,1/2+y,-z
1/2-x,1/2+y,z
1/2+x,1/2-y,z
loop_
_atom_site_type_symbol
_atom_site_label
_atom_site_fract_x
_atom_site_fract_y
_atom_site_fract_z
Si Si1 0.571124 0.196894 0.673605
Si Si2 0.689463 0.706874 0.171753
Si Si3 0.777797 0.077333 0.415083
Si Si4 0.761628 0.577276 0.828600
Si Si5 0.384484 0.077556 0.915861
Si Si6 0.838006 0.577226 0.313027
Si Si7 0.815173 0.212652 0.655908
Si Si8 0.930871 0.713039 0.156657
O O1 0.500000 0.199976 0.637551
O O2 0.597962 0.119195 0.670637
O O3 0.621106 0.246165 0.629851
O O4 0.565890 0.218869 0.756990
O O5 0.750000 0.750000 0.142407
O O6 0.701130 0.626155 0.153299
O O7 0.682944 0.714758 0.257661
O O8 0.626299 0.736074 0.130127
O O9 0.775091 0.094765 0.500000
O O10 0.705985 0.080663 0.384385
O O11 0.820937 0.134770 0.374740
O O12 0.806214 0.000000 0.401205
O O13 0.735944 0.500000 0.812642
O O14 0.809254 0.578398 0.896969
O O15 0.798390 0.607489 0.756589
O O16 0.420925 0.133554 0.867055
O O17 0.411587 0.000000 0.900284
O O18 0.393286 0.097414 0.000000
O O19 0.859487 0.500000 0.293155
O O20 0.750000 0.250000 0.627104
O O21 0.000000 0.737383 0.124778
#
# Coordination Sequence:
#
# PCOD8265184 Si02
#       8
#    16  16  16  16  16  16  16  16
#     4  10  19  31  48  74 102 130 166 209 251 294
#     4  10  16  29  51  73  95 127 166 208 255 296
#     4  10  20  32  50  78 105 127 162 213 260 300
#     4  10  17  29  51  75  98 129 172 213 249 295
#     4  10  20  33  49  72 105 140 171 206 250 301
#     4  10  17  30  50  73 101 134 168 203 245 297
#     4  10  17  30  50  73  98 128 164 207 252 295
#     4  10  20  32  47  69 100 134 169 210 252 297
#
# _framework density 17.274276
#
# number of rings (size 3 to 8) (size 9 to 14) (size 15 to 20)
#    0.000    2.000    5.000    0.750    0.000    1.000 
#    0.000    3.125    0.000    2.250    0.000    6.125 
#    0.000    0.000    0.000    4.250    0.000    1.125 
#
# Total GULP energy -793166.072899 kJ/mol
# GULP energy per Si atom -12393.219889 kJ/mol
# Density = 1.723496 g / cm^3
# Si number density = 17.274276 Si / 1000 Ang^3
#
#
#
# Elastic Constant Matrix: (Units=GPa)
#
#
# Indices 1 2 3 4 5 6 
#
# 1 132.7812 72.3321 16.4135 0.0000 0.0000 0.0000
# 2 72.3321 115.5564 14.7252 0.0000 0.0000 0.0000
# 3 16.4135 14.7252 27.2984 0.0000 0.0000 0.0000
# 4 0.0000 0.0000 0.0000 17.1265 0.0000 0.0000
# 5 0.0000 0.0000 0.0000 0.0000 3.5448 0.0000
# 6 0.0000 0.0000 0.0000 0.0000 0.0000 20.9561
#
#
#
# Elastic Compliance Matrix: (Units=1/GPa)
#
#
# Indices 1 2 3 4 5 6 
#
# 1 0.011700 -0.006902 -0.003312 0.000000 0.000000 0.000000
# 2 -0.006902 0.013364 -0.003059 0.000000 0.000000 0.000000
# 3 -0.003312 -0.003059 0.040274 0.000000 0.000000 0.000000
# 4 0.000000 0.000000 0.000000 0.058389 0.000000 0.000000
# 5 0.000000 0.000000 0.000000 0.000000 0.282102 0.000000
# 6 0.000000 0.000000 0.000000 0.000000 0.000000 0.047719
#
#
# Mechanical properties :
#
#
# Convention : Reuss Voigt Hill
#
# Bulk Modulus (GPa) = 25.77831 53.61976 39.69903
# Shear Modulus (GPa) = 10.14151 19.80316 14.97233
#
# Velocity S-wave (km/s) = 2.42562 3.38952 2.94724
# Velocity P-wave (km/s) = 4.77495 6.81367 5.88329
#
# Compressibility (1/GPa) = 0.03879230
#
# Stress axis : x y z
#
# Youngs Moduli (GPa) = 85.46810 74.82977 24.83019
#
# Poissons Ratio (x) = 0.51645 0.08224
# Poissons Ratio (y) = 0.58987 0.07595
# Poissons Ratio (z) = 0.28307 0.22889
#
# Static dielectric constant tensor:
#      x y z
#    x 3.461640 0.000000 0.000000 
#    y 0.000000 3.436280 0.000000 
#    z 0.000000 0.000000 2.938380 
# 
# 
# High freq. dielectric constant tensor:
#      x y z
#    x 1.639100 0.000000 0.000000 
#    y 0.000000 1.673150 0.000000 
#    z 0.000000 0.000000 1.633740 
# 
# From -- ./inp_files/56220.got.cif
#   From: 2010.03.12/outbox.cif.g09.slc.cpg/sg65_29_cif.got.tgz:56220.got - 2010.04.10 20:52:16.
