data_PCOD8265691
_publ_section_title
;
Structure prediction by ZEFSAII (Michael W. Deem and Ramdas Pophale) SiO2 
 PCOD8265691
Probable space group: C M M M
;
_chemical_formula_sum "Si O2"
_cell_formula_units_Z 112
_cell_length_a 19.036604
_cell_length_b 28.783397
_cell_length_c 13.688251
_cell_angle_alpha 90.000000
_cell_angle_beta 90.000000
_cell_angle_gamma 90.000000
_cell_volume 7500.314662
_symmetry_space_group_name_H-M "C M M M"
_symmetry_group_IT_number 65
_symmetry_cell_setting 'orthorhombic'
loop_
_space_group_symop_operation_xyz
x,y,z
-x,-y,z
x,-y,-z
-x,y,-z
-x,-y,-z
x,y,-z
-x,y,z
x,-y,z
1/2+x,1/2+y,z
1/2-x,1/2-y,z
1/2+x,1/2-y,-z
1/2-x,1/2+y,-z
1/2-x,1/2-y,-z
1/2+x,1/2+y,-z
1/2-x,1/2+y,z
1/2+x,1/2-y,z
loop_
_atom_site_type_symbol
_atom_site_label
_atom_site_fract_x
_atom_site_fract_y
_atom_site_fract_z
Si Si1 0.417786 0.052141 0.227857
Si Si2 0.916818 0.307883 0.704148
Si Si3 0.078658 0.948043 0.383798
Si Si4 0.345162 0.106343 0.613298
Si Si5 0.327509 0.730676 0.613546
Si Si6 0.811183 0.126255 0.616073
Si Si7 0.082955 0.361152 0.892810
O O1 0.500000 0.058439 0.248464
O O2 0.378532 0.063267 0.328987
O O3 0.392376 0.087961 0.144369
O O4 0.399549 0.000000 0.193706
O O5 0.889460 0.346695 0.628956
O O6 0.882863 0.258643 0.678797
O O7 0.893979 0.322118 0.814551
O O8 0.000000 0.303905 0.693685
O O9 0.080794 0.946134 0.500000
O O10 0.133330 0.910748 0.339683
O O11 0.000000 0.935715 0.347328
O O12 0.099485 0.000000 0.348599
O O13 0.345783 0.093154 0.500000
O O14 0.266346 0.113794 0.653521
O O15 0.348359 0.735274 0.500000
O O16 0.250000 0.750000 0.631263
O O17 0.331938 0.677780 0.651030
O O18 0.811347 0.125212 0.500000
O O19 0.000000 0.361080 0.902207
O O20 0.116560 0.351395 0.000000
#
# Coordination Sequence:
#
# PCOD8265691 Si02
#       7
#    16  16  16  16  16  16  16
#     4   9  18  29  40  60  86 110 143 182 216 251
#     4  10  19  29  44  65  84 108 144 181 217 257
#     4   8  14  25  39  54  74  99 131 178 225 253
#     4  10  18  28  40  56  82 118 150 175 206 249
#     4  10  18  29  42  59  86 119 148 175 211 249
#     4   9  17  27  41  58  77 109 149 178 207 250
#     4   8  15  29  47  64  82 105 136 177 222 266
#
# _framework density 14.932706
#
# number of rings (size 3 to 8) (size 9 to 14) (size 15 to 20)
#    0.000    2.857    1.429    2.143    0.000    3.714 
#    0.000    5.000    0.000    0.429    0.000    0.000 
#    0.000    0.000    0.000    0.000    0.000    2.286 
#
# Total GULP energy -694157.404083 kJ/mol
# GULP energy per Si atom -12395.667930 kJ/mol
# Density = 1.489872 g / cm^3
# Si number density = 14.932706 Si / 1000 Ang^3
#
#
#
# Elastic Constant Matrix: (Units=GPa)
#
#
# Indices 1 2 3 4 5 6 
#
# 1 78.9148 55.2662 28.2679 0.0000 0.0000 0.0000
# 2 55.2662 109.8759 30.1133 0.0000 0.0000 0.0000
# 3 28.2679 30.1133 63.2634 0.0000 0.0000 0.0000
# 4 0.0000 0.0000 0.0000 11.4582 0.0000 0.0000
# 5 0.0000 0.0000 0.0000 0.0000 6.3108 0.0000
# 6 0.0000 0.0000 0.0000 0.0000 0.0000 28.8326
#
#
#
# Elastic Compliance Matrix: (Units=1/GPa)
#
#
# Indices 1 2 3 4 5 6 
#
# 1 0.020839 -0.009119 -0.004971 0.000000 0.000000 0.000000
# 2 -0.009119 0.014457 -0.002807 0.000000 0.000000 0.000000
# 3 -0.004971 -0.002807 0.019364 0.000000 0.000000 0.000000
# 4 0.000000 0.000000 0.000000 0.087274 0.000000 0.000000
# 5 0.000000 0.000000 0.000000 0.000000 0.158457 0.000000
# 6 0.000000 0.000000 0.000000 0.000000 0.000000 0.034683
#
#
# Mechanical properties :
#
#
# Convention : Reuss Voigt Hill
#
# Bulk Modulus (GPa) = 47.92363 53.26098 50.59231
# Shear Modulus (GPa) = 13.30409 18.54744 15.92576
#
# Velocity S-wave (km/s) = 2.98809 3.52812 3.26928
# Velocity P-wave (km/s) = 6.63835 7.23475 6.94296
#
# Compressibility (1/GPa) = 0.02086653
#
# Stress axis : x y z
#
# Youngs Moduli (GPa) = 47.98687 69.16857 51.64225
#
# Poissons Ratio (x) = 0.63078 0.25669
# Poissons Ratio (y) = 0.43762 0.14495
# Poissons Ratio (z) = 0.23852 0.19415
#
# Static dielectric constant tensor:
#      x y z
#    x 2.910580 0.000000 0.000000 
#    y 0.000000 3.051980 0.000000 
#    z 0.000000 0.000000 2.747390 
# 
# 
# High freq. dielectric constant tensor:
#      x y z
#    x 1.561950 0.000000 0.000000 
#    y 0.000000 1.575770 0.000000 
#    z 0.000000 0.000000 1.524850 
# 
# From -- ./inp_files/41405.got.cif
#   From: 2010.03.12/outbox.cif.g09.slc.cpg/sg65_21_cif.got.tgz:41405.got - 2010.04.10 20:52:16.
