data_PCOD8265729
_publ_section_title
;
Structure prediction by ZEFSAII (Michael W. Deem and Ramdas Pophale) SiO2 
 PCOD8265729
Probable space group: C M M M
;
_chemical_formula_sum "Si O2"
_cell_formula_units_Z 72
_cell_length_a 23.334881
_cell_length_b 16.182467
_cell_length_c 11.819041
_cell_angle_alpha 90.000000
_cell_angle_beta 90.000000
_cell_angle_gamma 90.000000
_cell_volume 4463.058298
_symmetry_space_group_name_H-M "C M M M"
_symmetry_group_IT_number 65
_symmetry_cell_setting 'orthorhombic'
loop_
_space_group_symop_operation_xyz
x,y,z
-x,-y,z
x,-y,-z
-x,y,-z
-x,-y,-z
x,y,-z
-x,y,z
x,-y,z
1/2+x,1/2+y,z
1/2-x,1/2-y,z
1/2+x,1/2-y,-z
1/2-x,1/2+y,-z
1/2-x,1/2-y,-z
1/2+x,1/2+y,-z
1/2-x,1/2+y,z
1/2+x,1/2-y,z
loop_
_atom_site_type_symbol
_atom_site_label
_atom_site_fract_x
_atom_site_fract_y
_atom_site_fract_z
Si Si1 0.809217 0.703329 0.713741
Si Si2 0.328759 0.407242 0.500000
Si Si3 0.860685 0.130709 0.742021
Si Si4 0.200626 0.399461 0.500000
Si Si5 0.067691 0.000000 0.870035
Si Si6 0.248585 0.592057 0.125533
O O1 0.750000 0.750000 0.682818
O O2 0.859091 0.769139 0.747952
O O3 0.828167 0.642557 0.611067
O O4 0.801389 0.650064 0.827314
O O5 0.310055 0.500000 0.500000
O O6 0.366793 0.387284 0.390972
O O7 0.266204 0.365350 0.500000
O O8 0.911543 0.084664 0.808989
O O9 0.802178 0.093102 0.790305
O O10 0.192282 0.500000 0.500000
O O11 0.000000 0.000000 0.864990
O O12 0.089871 0.000000 0.000000
O O13 0.223811 0.500000 0.121784
O O14 0.266766 0.621950 0.000000
#
# Coordination Sequence:
#
# PCOD8265729 Si02
#       6
#    16   8  16   8   8  16
#     4  10  19  27  42  67  98 127 170 202 238 288
#     4  11  17  27  47  65  92 130 163 194 232 280
#     4  11  20  32  48  68  94 127 166 208 250 290
#     4  11  18  28  44  69 105 138 169 191 232 288
#     4  11  24  41  57  71  91 128 177 219 256 299
#     4  10  18  28  42  63  95 131 165 198 242 301
#
# _framework density 16.132435000000001
#
# number of rings (size 3 to 8) (size 9 to 14) (size 15 to 20)
#    0.000    1.444    6.667    2.333    0.000    4.889 
#    0.000    1.111    0.000    0.000    0.000    0.000 
#    0.000    4.444    0.000   12.222    0.000    0.000 
#
# Total GULP energy -446021.257443 kJ/mol
# GULP energy per Si atom -12389.479373 kJ/mol
# Density = 1.609572 g / cm^3
# Si number density = 16.132435 Si / 1000 Ang^3
#
#
#
# Elastic Constant Matrix: (Units=GPa)
#
#
# Indices 1 2 3 4 5 6 
#
# 1 34.7272 25.9950 25.3755 0.0000 0.0000 0.0000
# 2 25.9950 112.0921 53.5502 0.0000 0.0000 0.0000
# 3 25.3755 53.5502 138.9201 0.0000 0.0000 0.0000
# 4 0.0000 0.0000 0.0000 26.0668 0.0000 0.0000
# 5 0.0000 0.0000 0.0000 0.0000 12.5145 0.0000
# 6 0.0000 0.0000 0.0000 0.0000 0.0000 16.0164
#
#
#
# Elastic Compliance Matrix: (Units=1/GPa)
#
#
# Indices 1 2 3 4 5 6 
#
# 1 0.036741 -0.006514 -0.004200 0.000000 0.000000 0.000000
# 2 -0.006514 0.012090 -0.003470 0.000000 0.000000 0.000000
# 3 -0.004200 -0.003470 0.009303 0.000000 0.000000 0.000000
# 4 0.000000 0.000000 0.000000 0.038363 0.000000 0.000000
# 5 0.000000 0.000000 0.000000 0.000000 0.079907 0.000000
# 6 0.000000 0.000000 0.000000 0.000000 0.000000 0.062436
#
#
# Mechanical properties :
#
#
# Convention : Reuss Voigt Hill
#
# Bulk Modulus (GPa) = 33.59658 55.06451 44.33054
# Shear Modulus (GPa) = 18.04201 22.97413 20.50807
#
# Velocity S-wave (km/s) = 3.34783 3.77781 3.56930
# Velocity P-wave (km/s) = 5.98453 7.29630 6.67273
#
# Compressibility (1/GPa) = 0.02976493
#
# Stress axis : x y z
#
# Youngs Moduli (GPa) = 27.21759 82.71422 107.48767
#
# Poissons Ratio (x) = 0.53879 0.45148
# Poissons Ratio (y) = 0.17729 0.37303
# Poissons Ratio (z) = 0.11432 0.28706
#
# Static dielectric constant tensor:
#      x y z
#    x 2.405980 0.000000 0.000000 
#    y 0.000000 3.462370 0.000000 
#    z 0.000000 0.000000 3.315660 
# 
# 
# High freq. dielectric constant tensor:
#      x y z
#    x 1.524090 0.000000 0.000000 
#    y 0.000000 1.638020 0.000000 
#    z 0.000000 0.000000 1.644920 
# 
# From -- ./inp_files/26975.got.cif
#   From: 2010.03.12/outbox.cif.g09.slc.cpg/sg65_14_cif.got.tgz:26975.got - 2010.04.10 20:52:16.
