data_PCOD8265010
_publ_section_title
;
Structure prediction by ZEFSAII (Michael W. Deem and Ramdas Pophale) SiO2 
 PCOD8265010
Probable space group: C M C A
;
_chemical_formula_sum "Si O2"
_cell_formula_units_Z 48
_cell_length_a 17.034003
_cell_length_b 7.364750
_cell_length_c 16.788590
_cell_angle_alpha 90.000000
_cell_angle_beta 90.000000
_cell_angle_gamma 90.000000
_cell_volume 2106.148318
_symmetry_space_group_name_H-M "C M C A"
_symmetry_group_IT_number 64
_symmetry_cell_setting 'orthorhombic'
loop_
_space_group_symop_operation_xyz
x,y,z
-x,1/2-y,1/2+z
x,-y,-z
-x,1/2+y,1/2-z
-x,-y,-z
x,1/2+y,1/2-z
-x,y,z
x,1/2-y,1/2+z
1/2+x,1/2+y,z
1/2-x,-y,1/2+z
1/2+x,1/2-y,-z
1/2-x,y,1/2-z
1/2-x,1/2-y,-z
1/2+x,y,1/2-z
1/2-x,1/2+y,z
1/2+x,-y,1/2+z
loop_
_atom_site_type_symbol
_atom_site_label
_atom_site_fract_x
_atom_site_fract_y
_atom_site_fract_z
Si Si1 0.680789 0.042727 0.411021
Si Si2 0.336028 0.090084 0.838897
Si Si3 0.910772 0.774568 0.182228
O O1 0.750728 0.002820 0.348238
O O2 0.607091 0.915427 0.388825
O O3 0.709263 0.000000 0.500000
O O4 0.655315 0.253443 0.405747
O O5 0.350377 0.189159 0.754462
O O6 0.399761 0.930464 0.849703
O O7 0.000000 0.801463 0.210799
#
# Coordination Sequence:
#
# PCOD8265010 Si02
#       3
#    16  16  16
#     4  12  27  46  75 108 144 186 239 295 355 420
#     4  12  25  44  74 103 140 186 241 292 344 424
#     4  12  27  45  72 106 142 187 239 296 357 419
#
# _framework density 22.790417999999999
#
# number of rings (size 3 to 8) (size 9 to 14) (size 15 to 20)
#    0.000    0.000    6.667    3.000    0.000    2.000 
#    0.000    1.667    0.000    0.000    0.000    0.000 
#    0.000    0.000    0.000    0.000    0.000    0.000 
#
# Total GULP energy -297622.027905 kJ/mol
# GULP energy per Si atom -12400.917829 kJ/mol
# Density = 2.273855 g / cm^3
# Si number density = 22.790418 Si / 1000 Ang^3
#
#
#
# Elastic Constant Matrix: (Units=GPa)
#
#
# Indices 1 2 3 4 5 6 
#
# 1 114.8366 38.5012 52.8683 0.0000 0.0000 0.0000
# 2 38.5012 162.8381 24.8566 0.0000 0.0000 0.0000
# 3 52.8683 24.8566 86.6335 0.0000 0.0000 0.0000
# 4 0.0000 0.0000 0.0000 32.5878 0.0000 0.0000
# 5 0.0000 0.0000 0.0000 0.0000 16.8529 0.0000
# 6 0.0000 0.0000 0.0000 0.0000 0.0000 27.2947
#
#
#
# Elastic Compliance Matrix: (Units=1/GPa)
#
#
# Indices 1 2 3 4 5 6 
#
# 1 0.012646 -0.001895 -0.007173 0.000000 0.000000 0.000000
# 2 -0.001895 0.006706 -0.000768 0.000000 0.000000 0.000000
# 3 -0.007173 -0.000768 0.016141 0.000000 0.000000 0.000000
# 4 0.000000 0.000000 0.000000 0.030686 0.000000 0.000000
# 5 0.000000 0.000000 0.000000 0.000000 0.059337 0.000000
# 6 0.000000 0.000000 0.000000 0.000000 0.000000 0.036637
#
#
# Mechanical properties :
#
#
# Convention : Reuss Voigt Hill
#
# Bulk Modulus (GPa) = 63.20877 66.30673 64.75775
# Shear Modulus (GPa) = 26.72378 31.88588 29.30483
#
# Velocity S-wave (km/s) = 3.42802 3.74450 3.58975
# Velocity P-wave (km/s) = 6.59268 6.91754 6.75706
#
# Compressibility (1/GPa) = 0.01582059
#
# Stress axis : x y z
#
# Youngs Moduli (GPa) = 79.07722 149.11339 61.95482
#
# Poissons Ratio (x) = 0.28257 0.44443
# Poissons Ratio (y) = 0.14985 0.04757
# Poissons Ratio (z) = 0.56726 0.11448
#
# Static dielectric constant tensor:
#      x y z
#    x 3.794720 0.000000 0.000000 
#    y 0.000000 4.671510 0.000000 
#    z 0.000000 0.000000 3.772920 
# 
# 
# High freq. dielectric constant tensor:
#      x y z
#    x 1.878460 0.000000 0.000000 
#    y 0.000000 1.931460 0.000000 
#    z 0.000000 0.000000 1.874810 
# 
# From -- ./inp_files/24652.got.cif
#   From: 2010.03.12/outbox.cif.g09.slc.cpg/sg64_13_cif.got.tgz:24652.got - 2010.04.10 20:19:32.
