data_PCOD8265461
_publ_section_title
;
Structure prediction by ZEFSAII (Michael W. Deem and Ramdas Pophale) SiO2 
 PCOD8265461
Probable space group: C M M M
;
_chemical_formula_sum "Si O2"
_cell_formula_units_Z 72
_cell_length_a 9.356972
_cell_length_b 33.048645
_cell_length_c 12.697430
_cell_angle_alpha 90.000000
_cell_angle_beta 90.000000
_cell_angle_gamma 90.000000
_cell_volume 3926.492888
_symmetry_space_group_name_H-M "C M M M"
_symmetry_group_IT_number 65
_symmetry_cell_setting 'orthorhombic'
loop_
_space_group_symop_operation_xyz
x,y,z
-x,-y,z
x,-y,-z
-x,y,-z
-x,-y,-z
x,y,-z
-x,y,z
x,-y,z
1/2+x,1/2+y,z
1/2-x,1/2-y,z
1/2+x,1/2-y,-z
1/2-x,1/2+y,-z
1/2-x,1/2-y,-z
1/2+x,1/2+y,-z
1/2-x,1/2+y,z
1/2+x,1/2-y,z
loop_
_atom_site_type_symbol
_atom_site_label
_atom_site_fract_x
_atom_site_fract_y
_atom_site_fract_z
Si Si1 0.500000 0.856465 0.112780
Si Si2 0.750000 0.750000 0.250509
Si Si3 0.000000 0.390699 0.618291
Si Si4 0.785242 0.413839 0.792950
Si Si5 0.833182 0.500000 0.883475
Si Si6 0.500000 0.615562 0.121537
Si Si7 0.500000 0.196750 0.310993
Si Si8 0.000000 0.210818 0.118718
O O1 0.634418 0.886214 0.121847
O O2 0.500000 0.818891 0.190986
O O3 0.500000 0.835277 0.000000
O O4 0.646897 0.777534 0.325437
O O5 0.644490 0.723926 0.177768
O O6 0.857605 0.405990 0.678566
O O7 0.000000 0.341675 0.611755
O O8 0.000000 0.408073 0.500000
O O9 0.788079 0.461120 0.817482
O O10 0.624666 0.399809 0.802634
O O11 0.000000 0.500000 0.898968
O O12 0.760848 0.500000 0.000000
O O13 0.500000 0.663108 0.114700
O O14 0.500000 0.598118 0.000000
O O15 0.000000 0.228452 0.000000
#
# Coordination Sequence:
#
# PCOD8265461 Si02
#       8
#     8   8   8  16   8   8   8   8
#     4  10  17  30  49  72 102 146 188 218 257 320
#     4  10  19  32  47  70 102 136 170 224 276 318
#     4  10  21  41  62  78  98 138 194 242 274 314
#     4  10  21  34  53  81 111 144 184 226 272 321
#     4  11  18  31  55  85 118 148 181 222 265 321
#     4  11  21  34  52  82 121 154 177 212 270 341
#     4   9  20  33  51  73 101 132 170 220 275 330
#     4  10  19  29  45  69 104 146 184 212 254 322
#
# _framework density 18.336974999999999
#
# number of rings (size 3 to 8) (size 9 to 14) (size 15 to 20)
#    0.000    2.111    2.222    5.000    0.000    4.889 
#    0.000    3.333    0.000    0.000    0.000    1.556 
#    0.000    0.000    0.000    0.000    0.000    0.000 
#
# Total GULP energy -446089.125867 kJ/mol
# GULP energy per Si atom -12391.364607 kJ/mol
# Density = 1.829524 g / cm^3
# Si number density = 18.336975 Si / 1000 Ang^3
#
#
#
# Elastic Constant Matrix: (Units=GPa)
#
#
# Indices 1 2 3 4 5 6 
#
# 1 142.4688 35.5992 33.3735 0.0000 0.0000 0.0000
# 2 35.5992 100.5584 19.5530 0.0000 0.0000 0.0000
# 3 33.3735 19.5530 105.3820 0.0000 0.0000 0.0000
# 4 0.0000 0.0000 0.0000 8.3365 0.0000 0.0000
# 5 0.0000 0.0000 0.0000 0.0000 4.0967 0.0000
# 6 0.0000 0.0000 0.0000 0.0000 0.0000 18.8551
#
#
#
# Elastic Compliance Matrix: (Units=1/GPa)
#
#
# Indices 1 2 3 4 5 6 
#
# 1 0.008132 -0.002467 -0.002117 0.000000 0.000000 0.000000
# 2 -0.002467 0.011065 -0.001272 0.000000 0.000000 0.000000
# 3 -0.002117 -0.001272 0.010396 0.000000 0.000000 0.000000
# 4 0.000000 0.000000 0.000000 0.119955 0.000000 0.000000
# 5 0.000000 0.000000 0.000000 0.000000 0.244101 0.000000
# 6 0.000000 0.000000 0.000000 0.000000 0.000000 0.053036
#
#
# Mechanical properties :
#
#
# Convention : Reuss Voigt Hill
#
# Bulk Modulus (GPa) = 55.92824 58.38451 57.15638
# Shear Modulus (GPa) = 10.76757 23.58322 17.17540
#
# Velocity S-wave (km/s) = 2.42586 3.59012 3.06380
# Velocity P-wave (km/s) = 6.19781 7.00672 6.61464
#
# Compressibility (1/GPa) = 0.01788005
#
# Stress axis : x y z
#
# Youngs Moduli (GPa) = 122.97824 90.37418 96.19232
#
# Poissons Ratio (x) = 0.22295 0.20368
# Poissons Ratio (y) = 0.30338 0.12234
# Poissons Ratio (z) = 0.26040 0.11494
#
# Static dielectric constant tensor:
#      x y z
#    x 3.535240 0.000000 0.000000 
#    y 0.000000 3.396330 0.000000 
#    z 0.000000 0.000000 3.001200 
# 
# 
# High freq. dielectric constant tensor:
#      x y z
#    x 1.715170 0.000000 0.000000 
#    y 0.000000 1.720850 0.000000 
#    z 0.000000 0.000000 1.670290 
# 
# From -- ./inp_files/37107.got.cif
#   From: 2010.03.12/outbox.cif.g09.slc.cpg/sg65_19_cif.got.tgz:37107.got - 2010.04.10 20:52:16.
