data_PCOD8265001
_publ_section_title
;
Structure prediction by ZEFSAII (Michael W. Deem and Ramdas Pophale) SiO2 
 PCOD8265001
Probable space group: C M C A
;
_chemical_formula_sum "Si O2"
_cell_formula_units_Z 64
_cell_length_a 19.497962
_cell_length_b 8.953327
_cell_length_c 16.711041
_cell_angle_alpha 90.000000
_cell_angle_beta 90.000000
_cell_angle_gamma 90.000000
_cell_volume 2917.273660
_symmetry_space_group_name_H-M "C M C A"
_symmetry_group_IT_number 64
_symmetry_cell_setting 'orthorhombic'
loop_
_space_group_symop_operation_xyz
x,y,z
-x,1/2-y,1/2+z
x,-y,-z
-x,1/2+y,1/2-z
-x,-y,-z
x,1/2+y,1/2-z
-x,y,z
x,1/2-y,1/2+z
1/2+x,1/2+y,z
1/2-x,-y,1/2+z
1/2+x,1/2-y,-z
1/2-x,y,1/2-z
1/2-x,1/2-y,-z
1/2+x,y,1/2-z
1/2-x,1/2+y,z
1/2+x,-y,1/2+z
loop_
_atom_site_type_symbol
_atom_site_label
_atom_site_fract_x
_atom_site_fract_y
_atom_site_fract_z
Si Si1 0.204564 0.768414 0.828069
Si Si2 0.422164 0.212232 0.062248
Si Si3 0.421777 0.113457 0.882417
Si Si4 0.696124 0.569341 0.913928
O O1 0.250000 0.743119 0.750000
O O2 0.129213 0.692578 0.819013
O O3 0.242088 0.685568 0.901517
O O4 0.196895 0.943105 0.845740
O O5 0.500000 0.254705 0.082375
O O6 0.376116 0.346668 0.093777
O O7 0.401692 0.060235 0.108162
O O8 0.412885 0.194696 0.967411
O O9 0.500000 0.129932 0.851848
O O10 0.707704 0.500000 0.000000
#
# Coordination Sequence:
#
# PCOD8265001 Si02
#       4
#    16  16  16  16
#     4  12  26  42  62  95 137 177 222 272 332 391
#     4   9  19  37  66 104 133 163 215 275 327 386
#     4   9  19  39  68  99 135 169 208 269 337 396
#     4  12  24  40  65  95 132 176 227 276 319 388
#
# _framework density 21.938291
#
# number of rings (size 3 to 8) (size 9 to 14) (size 15 to 20)
#    0.000    1.500    2.500    4.500    3.500    1.500 
#    0.000    2.500    0.000    4.500    0.000    0.000 
#    0.000    0.000    0.000    0.000    0.000    0.000 
#
# Total GULP energy -396932.868291 kJ/mol
# GULP energy per Si atom -12404.152134 kJ/mol
# Density = 2.188836 g / cm^3
# Si number density = 21.938291 Si / 1000 Ang^3
#
#
#
# Elastic Constant Matrix: (Units=GPa)
#
#
# Indices 1 2 3 4 5 6 
#
# 1 142.2178 81.3011 49.0234 0.0000 0.0000 0.0000
# 2 81.3011 139.4565 40.0085 0.0000 0.0000 0.0000
# 3 49.0234 40.0085 53.8470 0.0000 0.0000 0.0000
# 4 0.0000 0.0000 0.0000 24.3056 0.0000 0.0000
# 5 0.0000 0.0000 0.0000 0.0000 38.4263 0.0000
# 6 0.0000 0.0000 0.0000 0.0000 0.0000 52.5603
#
#
#
# Elastic Compliance Matrix: (Units=1/GPa)
#
#
# Indices 1 2 3 4 5 6 
#
# 1 0.012621 -0.005162 -0.007655 0.000000 0.000000 0.000000
# 2 -0.005162 0.011224 -0.003640 0.000000 0.000000 0.000000
# 3 -0.007655 -0.003640 0.028245 0.000000 0.000000 0.000000
# 4 0.000000 0.000000 0.000000 0.041143 0.000000 0.000000
# 5 0.000000 0.000000 0.000000 0.000000 0.026024 0.000000
# 6 0.000000 0.000000 0.000000 0.000000 0.000000 0.019026
#
#
# Mechanical properties :
#
#
# Convention : Reuss Voigt Hill
#
# Bulk Modulus (GPa) = 52.14832 75.13191 63.64012
# Shear Modulus (GPa) = 28.15475 34.07098 31.11287
#
# Velocity S-wave (km/s) = 3.58629 3.94513 3.76998
# Velocity P-wave (km/s) = 6.40084 7.42115 6.92979
#
# Compressibility (1/GPa) = 0.01917607
#
# Stress axis : x y z
#
# Youngs Moduli (GPa) = 79.23273 89.09279 35.40390
#
# Poissons Ratio (x) = 0.45987 0.27103
# Poissons Ratio (y) = 0.40897 0.12888
# Poissons Ratio (z) = 0.60655 0.32433
#
# Static dielectric constant tensor:
#      x y z
#    x 4.146020 0.000000 0.000000 
#    y 0.000000 4.123320 0.000000 
#    z 0.000000 0.000000 3.497870 
# 
# 
# High freq. dielectric constant tensor:
#      x y z
#    x 1.877710 0.000000 0.000000 
#    y 0.000000 1.873220 0.000000 
#    z 0.000000 0.000000 1.828220 
# 
# From -- ./inp_files/33873.got.cif
#   From: 2010.03.12/outbox.cif.g09.slc.cpg/sg64_17_cif.got.tgz:33873.got - 2010.04.10 20:19:32.
