data_PCOD8265211
_publ_section_title
;
Structure prediction by ZEFSAII (Michael W. Deem and Ramdas Pophale) SiO2 
 PCOD8265211
Probable space group: C M M M
;
_chemical_formula_sum "Si O2"
_cell_formula_units_Z 88
_cell_length_a 33.949836
_cell_length_b 23.090169
_cell_length_c 8.890915
_cell_angle_alpha 90.000000
_cell_angle_beta 90.000000
_cell_angle_gamma 90.000000
_cell_volume 6969.654513
_symmetry_space_group_name_H-M "C M M M"
_symmetry_group_IT_number 65
_symmetry_cell_setting 'orthorhombic'
loop_
_space_group_symop_operation_xyz
x,y,z
-x,-y,z
x,-y,-z
-x,y,-z
-x,-y,-z
x,y,-z
-x,y,z
x,-y,z
1/2+x,1/2+y,z
1/2-x,1/2-y,z
1/2+x,1/2-y,-z
1/2-x,1/2+y,-z
1/2-x,1/2-y,-z
1/2+x,1/2+y,-z
1/2-x,1/2+y,z
1/2+x,1/2-y,z
loop_
_atom_site_type_symbol
_atom_site_label
_atom_site_fract_x
_atom_site_fract_y
_atom_site_fract_z
Si Si1 0.766491 0.066452 0.823955
Si Si2 0.348969 0.622724 0.172015
Si Si3 0.000000 0.068817 0.169584
Si Si4 0.697004 0.731419 0.825440
Si Si5 0.229648 0.668350 0.322166
Si Si6 0.421316 0.434046 0.676327
O O1 0.810139 0.087425 0.777934
O O2 0.732582 0.102179 0.735708
O O3 0.761603 0.000000 0.777225
O O4 0.760045 0.076850 0.000000
O O5 0.342123 0.692098 0.191557
O O6 0.384592 0.605134 0.278099
O O7 0.359648 0.607449 0.000000
O O8 0.039268 0.092388 0.249819
O O9 0.000000 0.000000 0.179726
O O10 0.000000 0.091768 0.000000
O O11 0.730820 0.699577 0.731663
O O12 0.692910 0.796153 0.754160
O O13 0.709178 0.735339 0.000000
O O14 0.224885 0.669577 0.500000
O O15 0.427261 0.431356 0.500000
O O16 0.413813 0.500000 0.730757
#
# Coordination Sequence:
#
# PCOD8265211 Si02
#       6
#    16  16   8  16  16  16
#     4   9  17  28  39  50  67  92 118 142 171 209
#     4   9  17  27  39  53  67  86 113 143 172 205
#     4   9  17  29  43  53  63  85 115 141 164 199
#     4   9  16  27  39  49  64  87 114 139 166 204
#     4  10  17  24  36  52  68  85 108 140 175 207
#     4  10  19  28  38  53  72  90 108 136 175 213
#
# _framework density 12.626163
#
# number of rings (size 3 to 8) (size 9 to 14) (size 15 to 20)
#    0.000    2.636    0.000    5.727    0.000    6.909 
#    0.000    0.000    0.000    0.000    0.000    0.000 
#    0.000    0.000    0.000    0.000    0.000    0.000 
#
# Total GULP energy -545304.395405 kJ/mol
# GULP energy per Si atom -12393.281714 kJ/mol
# Density = 1.259743 g / cm^3
# Si number density = 12.626163 Si / 1000 Ang^3
#
#
#
# Elastic Constant Matrix: (Units=GPa)
#
#
# Indices 1 2 3 4 5 6 
#
# 1 48.5772 38.8896 30.5905 0.0000 0.0000 0.0000
# 2 38.8896 80.2689 36.9052 0.0000 0.0000 0.0000
# 3 30.5905 36.9052 65.6047 0.0000 0.0000 0.0000
# 4 0.0000 0.0000 0.0000 18.1300 0.0000 0.0000
# 5 0.0000 0.0000 0.0000 0.0000 13.9876 0.0000
# 6 0.0000 0.0000 0.0000 0.0000 0.0000 12.6477
#
#
#
# Elastic Compliance Matrix: (Units=1/GPa)
#
#
# Indices 1 2 3 4 5 6 
#
# 1 0.037859 -0.013793 -0.009894 0.000000 0.000000 0.000000
# 2 -0.013793 0.021830 -0.005848 0.000000 0.000000 0.000000
# 3 -0.009894 -0.005848 0.023146 0.000000 0.000000 0.000000
# 4 0.000000 0.000000 0.000000 0.055157 0.000000 0.000000
# 5 0.000000 0.000000 0.000000 0.000000 0.071492 0.000000
# 6 0.000000 0.000000 0.000000 0.000000 0.000000 0.079066
#
#
# Mechanical properties :
#
#
# Convention : Reuss Voigt Hill
#
# Bulk Modulus (GPa) = 42.08116 45.24681 43.66399
# Shear Modulus (GPa) = 14.06304 14.82410 14.44357
#
# Velocity S-wave (km/s) = 3.34099 3.43020 3.38589
# Velocity P-wave (km/s) = 6.94866 7.18345 7.06703
#
# Compressibility (1/GPa) = 0.02376360
#
# Stress axis : x y z
#
# Youngs Moduli (GPa) = 26.41396 45.80874 43.20394
#
# Poissons Ratio (x) = 0.63186 0.42744
# Poissons Ratio (y) = 0.36434 0.25268
# Poissons Ratio (z) = 0.26133 0.26791
#
# Static dielectric constant tensor:
#      x y z
#    x 2.392730 0.000000 0.000000 
#    y 0.000000 2.895420 0.000000 
#    z 0.000000 0.000000 2.601720 
# 
# 
# High freq. dielectric constant tensor:
#      x y z
#    x 1.434240 0.000000 0.000000 
#    y 0.000000 1.462150 0.000000 
#    z 0.000000 0.000000 1.492820 
# 
# From -- ./inp_files/19005.got.cif
#   From: 2010.03.12/outbox.cif.g09.slc.cpg/sg65_10_cif.got.tgz:19005.got - 2010.04.10 20:52:16.
