data_PCOD8265879
_publ_section_title
;
Structure prediction by ZEFSAII (Michael W. Deem and Ramdas Pophale) SiO2 
 PCOD8265879
Probable space group: C M M M
;
_chemical_formula_sum "Si O2"
_cell_formula_units_Z 112
_cell_length_a 29.828900
_cell_length_b 9.283978
_cell_length_c 23.048786
_cell_angle_alpha 90.000000
_cell_angle_beta 90.000000
_cell_angle_gamma 90.000000
_cell_volume 6382.919930
_symmetry_space_group_name_H-M "C M M M"
_symmetry_group_IT_number 65
_symmetry_cell_setting 'orthorhombic'
loop_
_space_group_symop_operation_xyz
x,y,z
-x,-y,z
x,-y,-z
-x,y,-z
-x,-y,-z
x,y,-z
-x,y,z
x,-y,z
1/2+x,1/2+y,z
1/2-x,1/2-y,z
1/2+x,1/2-y,-z
1/2-x,1/2+y,-z
1/2-x,1/2-y,-z
1/2+x,1/2+y,-z
1/2-x,1/2+y,z
1/2+x,1/2-y,z
loop_
_atom_site_type_symbol
_atom_site_label
_atom_site_fract_x
_atom_site_fract_y
_atom_site_fract_z
Si Si1 0.138753 0.828695 0.436498
Si Si2 0.050632 0.666333 0.932086
Si Si3 0.295077 0.332157 0.205539
Si Si4 0.049906 0.830129 0.743843
Si Si5 0.388480 0.670921 0.845107
Si Si6 0.705149 0.669009 0.338015
Si Si7 0.548929 0.328325 0.614963
O O1 0.155244 0.773736 0.500000
O O2 0.168794 0.770204 0.383676
O O3 0.087864 0.772063 0.427434
O O4 0.139344 0.000000 0.434908
O O5 0.057010 0.500000 0.915439
O O6 0.089643 0.757953 0.901541
O O7 0.000000 0.716178 0.914452
O O8 0.057452 0.690292 0.000000
O O9 0.284452 0.500000 0.199767
O O10 0.250000 0.250000 0.186530
O O11 0.336060 0.287338 0.163160
O O12 0.309233 0.295193 0.271922
O O13 0.085255 0.765964 0.789298
O O14 0.058718 0.767682 0.679632
O O15 0.000000 0.788685 0.764888
O O16 0.056152 0.000000 0.741542
O O17 0.393895 0.500000 0.850673
O O18 0.712800 0.500000 0.346141
O O19 0.750000 0.750000 0.354815
O O20 0.500000 0.273981 0.593197
O O21 0.548704 0.500000 0.617561
#
# Coordination Sequence:
#
# PCOD8265879 Si02
#       7
#    16  16  16  16  16  16  16
#     4   9  16  24  35  53  78 110 147 184 221 262
#     4   9  19  35  51  69  99 136 164 183 212 260
#     4   9  18  31  47  68  93 120 151 189 234 282
#     4   8  13  21  35  58  86 111 136 173 224 274
#     4  10  18  28  47  73  95 117 152 197 235 267
#     4   9  17  30  46  63  87 117 146 180 226 276
#     4   8  13  21  33  51  79 113 143 173 216 270
#
# _framework density 17.546828000000001
#
# number of rings (size 3 to 8) (size 9 to 14) (size 15 to 20)
#    0.000    3.143    0.000    2.571    0.000    5.714 
#    0.000    2.143    0.000    0.429    0.000    0.000 
#    0.000    0.571    0.000    1.286    0.000    1.429 
#
# Total GULP energy -693915.519092 kJ/mol
# GULP energy per Si atom -12391.348555 kJ/mol
# Density = 1.750689 g / cm^3
# Si number density = 17.546828 Si / 1000 Ang^3
#
#
#
# Elastic Constant Matrix: (Units=GPa)
#
#
# Indices 1 2 3 4 5 6 
#
# 1 136.8069 36.9379 63.1874 0.0000 0.0000 0.0000
# 2 36.9379 24.8777 25.3986 0.0000 0.0000 0.0000
# 3 63.1874 25.3986 75.7513 0.0000 0.0000 0.0000
# 4 0.0000 0.0000 0.0000 12.9405 0.0000 0.0000
# 5 0.0000 0.0000 0.0000 0.0000 28.7830 0.0000
# 6 0.0000 0.0000 0.0000 0.0000 0.0000 21.2430
#
#
#
# Elastic Compliance Matrix: (Units=1/GPa)
#
#
# Indices 1 2 3 4 5 6 
#
# 1 0.014506 -0.013966 -0.007418 0.000000 0.000000 0.000000
# 2 -0.013966 0.074563 -0.013351 0.000000 0.000000 0.000000
# 3 -0.007418 -0.013351 0.023865 0.000000 0.000000 0.000000
# 4 0.000000 0.000000 0.000000 0.077277 0.000000 0.000000
# 5 0.000000 0.000000 0.000000 0.000000 0.034743 0.000000
# 6 0.000000 0.000000 0.000000 0.000000 0.000000 0.047074
#
#
# Mechanical properties :
#
#
# Convention : Reuss Voigt Hill
#
# Bulk Modulus (GPa) = 23.00661 54.27598 38.64130
# Shear Modulus (GPa) = 14.04550 20.05409 17.04980
#
# Velocity S-wave (km/s) = 2.83231 3.38433 3.12055
# Velocity P-wave (km/s) = 4.88221 6.80227 5.92059
#
# Compressibility (1/GPa) = 0.04346576
#
# Stress axis : x y z
#
# Youngs Moduli (GPa) = 68.93491 13.41148 41.90225
#
# Poissons Ratio (x) = 0.18730 0.31083
# Poissons Ratio (y) = 0.96272 0.55943
# Poissons Ratio (z) = 0.51135 0.17905
#
# Static dielectric constant tensor:
#      x y z
#    x 3.442450 0.000000 0.000000 
#    y 0.000000 2.750040 0.000000 
#    z 0.000000 0.000000 3.310450 
# 
# 
# High freq. dielectric constant tensor:
#      x y z
#    x 1.684770 0.000000 0.000000 
#    y 0.000000 1.620640 0.000000 
#    z 0.000000 0.000000 1.669390 
# 
# From -- ./inp_files/61809.got.cif
#   From: 2010.03.12/outbox.cif.g09.slc.cpg/sg65_31_cif.got.tgz:61809.got - 2010.04.10 20:52:16.
