data_PCOD8265264
_publ_section_title
;
Structure prediction by ZEFSAII (Michael W. Deem and Ramdas Pophale) SiO2 
 PCOD8265264
Probable space group: C M M M
;
_chemical_formula_sum "Si O2"
_cell_formula_units_Z 96
_cell_length_a 14.667496
_cell_length_b 30.850946
_cell_length_c 13.660459
_cell_angle_alpha 90.000000
_cell_angle_beta 90.000000
_cell_angle_gamma 90.000000
_cell_volume 6181.441396
_symmetry_space_group_name_H-M "C M M M"
_symmetry_group_IT_number 65
_symmetry_cell_setting 'orthorhombic'
loop_
_space_group_symop_operation_xyz
x,y,z
-x,-y,z
x,-y,-z
-x,y,-z
-x,-y,-z
x,y,-z
-x,y,z
x,-y,z
1/2+x,1/2+y,z
1/2-x,1/2-y,z
1/2+x,1/2-y,-z
1/2-x,1/2+y,-z
1/2-x,1/2-y,-z
1/2+x,1/2+y,-z
1/2-x,1/2+y,z
1/2+x,1/2-y,z
loop_
_atom_site_type_symbol
_atom_site_label
_atom_site_fract_x
_atom_site_fract_y
_atom_site_fract_z
Si Si1 0.397708 0.672780 0.203628
Si Si2 0.105325 0.049210 0.260523
Si Si3 0.898712 0.645675 0.883922
Si Si4 0.855932 0.258850 0.110282
Si Si5 0.106004 0.872350 0.606678
Si Si6 0.718052 0.397392 0.887288
O O1 0.500000 0.653511 0.199013
O O2 0.401449 0.723660 0.181627
O O3 0.357413 0.662244 0.312509
O O4 0.337694 0.647594 0.123272
O O5 0.125142 0.078899 0.354978
O O6 0.171191 0.064002 0.172476
O O7 0.000000 0.053646 0.226763
O O8 0.129141 0.000000 0.288718
O O9 0.878529 0.694161 0.844112
O O10 0.821606 0.611700 0.847927
O O11 0.000000 0.630582 0.849868
O O12 0.891819 0.648438 0.000000
O O13 0.750000 0.250000 0.109421
O O14 0.895786 0.254457 0.000000
O O15 0.154213 0.866181 0.500000
O O16 0.000000 0.864656 0.591492
O O17 0.719035 0.411518 0.000000
#
# Coordination Sequence:
#
# PCOD8265264 Si02
#       6
#    16  16  16  16  16  16
#     4  10  18  26  40  62  86 114 145 176 211 252
#     4   9  18  30  44  66  90 110 136 167 206 261
#     4   9  17  28  41  57  79 112 154 190 213 235
#     4  10  17  26  39  59  88 118 147 180 214 244
#     4   8  15  28  44  62  85 112 140 171 208 250
#     4  10  18  28  41  59  86 117 145 173 208 251
#
# _framework density 15.530358
#
# number of rings (size 3 to 8) (size 9 to 14) (size 15 to 20)
#    0.000    2.667    1.667    2.500    0.000    3.667 
#    0.000    2.500    0.000    1.000    0.000    2.333 
#    0.000   10.667    0.000    6.000    0.000    0.667 
#
# Total GULP energy -594805.167552 kJ/mol
# GULP energy per Si atom -12391.774324 kJ/mol
# Density = 1.549501 g / cm^3
# Si number density = 15.530358 Si / 1000 Ang^3
#
#
#
# Elastic Constant Matrix: (Units=GPa)
#
#
# Indices 1 2 3 4 5 6 
#
# 1 75.7485 14.0415 18.6162 0.0000 0.0000 0.0000
# 2 14.0415 63.1881 33.0724 0.0000 0.0000 0.0000
# 3 18.6162 33.0724 77.4192 0.0000 0.0000 0.0000
# 4 0.0000 0.0000 0.0000 12.2637 0.0000 0.0000
# 5 0.0000 0.0000 0.0000 0.0000 4.9414 0.0000
# 6 0.0000 0.0000 0.0000 0.0000 0.0000 22.4967
#
#
#
# Elastic Compliance Matrix: (Units=1/GPa)
#
#
# Indices 1 2 3 4 5 6 
#
# 1 0.014181 -0.001760 -0.002658 0.000000 0.000000 0.000000
# 2 -0.001760 0.020602 -0.008378 0.000000 0.000000 0.000000
# 3 -0.002658 -0.008378 0.017135 0.000000 0.000000 0.000000
# 4 0.000000 0.000000 0.000000 0.081542 0.000000 0.000000
# 5 0.000000 0.000000 0.000000 0.000000 0.202371 0.000000
# 6 0.000000 0.000000 0.000000 0.000000 0.000000 0.044451
#
#
# Mechanical properties :
#
#
# Convention : Reuss Voigt Hill
#
# Bulk Modulus (GPa) = 37.98524 38.64622 38.31573
# Shear Modulus (GPa) = 12.05844 17.98208 15.02026
#
# Velocity S-wave (km/s) = 2.78950 3.40643 3.11328
# Velocity P-wave (km/s) = 5.90651 6.35689 6.13583
#
# Compressibility (1/GPa) = 0.02632602
#
# Stress axis : x y z
#
# Youngs Moduli (GPa) = 70.51637 48.53988 58.36139
#
# Poissons Ratio (x) = 0.08543 0.15513
# Poissons Ratio (y) = 0.12411 0.48892
# Poissons Ratio (z) = 0.18744 0.40664
#
# Static dielectric constant tensor:
#      x y z
#    x 3.019260 0.000000 0.000000 
#    y 0.000000 2.912180 0.000000 
#    z 0.000000 0.000000 2.945440 
# 
# 
# High freq. dielectric constant tensor:
#      x y z
#    x 1.581880 0.000000 0.000000 
#    y 0.000000 1.582050 0.000000 
#    z 0.000000 0.000000 1.563060 
# 
# From -- ./inp_files/41249.got.cif
#   From: 2010.03.12/outbox.cif.g09.slc.cpg/sg65_21_cif.got.tgz:41249.got - 2010.04.10 20:52:16.
