data_PCOD8265208
_publ_section_title
;
Structure prediction by ZEFSAII (Michael W. Deem and Ramdas Pophale) SiO2 
 PCOD8265208
Probable space group: C M M M
;
_chemical_formula_sum "Si O2"
_cell_formula_units_Z 72
_cell_length_a 24.002868
_cell_length_b 14.395103
_cell_length_c 14.502635
_cell_angle_alpha 90.000000
_cell_angle_beta 90.000000
_cell_angle_gamma 90.000000
_cell_volume 5011.004934
_symmetry_space_group_name_H-M "C M M M"
_symmetry_group_IT_number 65
_symmetry_cell_setting 'orthorhombic'
loop_
_space_group_symop_operation_xyz
x,y,z
-x,-y,z
x,-y,-z
-x,y,-z
-x,-y,-z
x,y,-z
-x,y,z
x,-y,z
1/2+x,1/2+y,z
1/2-x,1/2-y,z
1/2+x,1/2-y,-z
1/2-x,1/2+y,-z
1/2-x,1/2-y,-z
1/2+x,1/2+y,-z
1/2-x,1/2+y,z
1/2+x,1/2-y,z
loop_
_atom_site_type_symbol
_atom_site_label
_atom_site_fract_x
_atom_site_fract_y
_atom_site_fract_z
Si Si1 0.339395 0.738315 0.891195
Si Si2 0.434065 0.103598 0.399076
Si Si3 0.255674 0.896588 0.109067
Si Si4 0.565422 0.815776 0.210639
Si Si5 0.934878 0.500000 0.101615
O O1 0.306111 0.830760 0.858837
O O2 0.303565 0.648282 0.861888
O O3 0.397932 0.734301 0.835703
O O4 0.351610 0.739309 0.000000
O O5 0.415304 0.142140 0.500000
O O6 0.500000 0.094670 0.394439
O O7 0.415591 0.172738 0.317388
O O8 0.409176 0.000000 0.384074
O O9 0.261582 0.000000 0.152431
O O10 0.256990 0.901945 0.000000
O O11 0.500000 0.791826 0.200774
O O12 0.582590 0.909380 0.157434
O O13 0.000000 0.500000 0.087119
O O14 0.905684 0.500000 0.000000
#
# Coordination Sequence:
#
# PCOD8265208 Si02
#       5
#    16  16  16  16   8
#     4   9  17  26  38  58  79 102 131 157 187 226
#     4   8  13  22  34  47  68 100 134 161 184 218
#     4   8  15  28  42  54  71  99 136 171 191 207
#     4  10  17  24  34  53  80 105 127 151 186 234
#     4   9  16  22  27  43  75 109 128 138 168 222
#
# _framework density 14.368375
#
# number of rings (size 3 to 8) (size 9 to 14) (size 15 to 20)
#    0.000    3.222    1.111    2.667    1.556    1.333 
#    0.000    0.000    0.000    0.667    0.000    6.222 
#    0.000    2.667    0.000    5.556    0.000    0.000 
#
# Total GULP energy -446001.058187 kJ/mol
# GULP energy per Si atom -12388.918283 kJ/mol
# Density = 1.433567 g / cm^3
# Si number density = 14.368375 Si / 1000 Ang^3
#
#
#
# Elastic Constant Matrix: (Units=GPa)
#
#
# Indices 1 2 3 4 5 6 
#
# 1 54.6942 14.7209 24.4012 0.0000 0.0000 0.0000
# 2 14.7209 48.6699 8.2528 0.0000 0.0000 0.0000
# 3 24.4012 8.2528 76.3658 0.0000 0.0000 0.0000
# 4 0.0000 0.0000 0.0000 7.7380 0.0000 0.0000
# 5 0.0000 0.0000 0.0000 0.0000 8.1651 0.0000
# 6 0.0000 0.0000 0.0000 0.0000 0.0000 15.8947
#
#
#
# Elastic Compliance Matrix: (Units=1/GPa)
#
#
# Indices 1 2 3 4 5 6 
#
# 1 0.022810 -0.005769 -0.006665 0.000000 0.000000 0.000000
# 2 -0.005769 0.022389 -0.000576 0.000000 0.000000 0.000000
# 3 -0.006665 -0.000576 0.015287 0.000000 0.000000 0.000000
# 4 0.000000 0.000000 0.000000 0.129232 0.000000 0.000000
# 5 0.000000 0.000000 0.000000 0.000000 0.122472 0.000000
# 6 0.000000 0.000000 0.000000 0.000000 0.000000 0.062914
#
#
# Mechanical properties :
#
#
# Convention : Reuss Voigt Hill
#
# Bulk Modulus (GPa) = 29.01461 30.49777 29.75619
# Shear Modulus (GPa) = 12.11792 15.18324 13.65058
#
# Velocity S-wave (km/s) = 2.90724 3.25424 3.08562
# Velocity P-wave (km/s) = 5.61308 5.94910 5.78353
#
# Compressibility (1/GPa) = 0.03446540
#
# Stress axis : x y z
#
# Youngs Moduli (GPa) = 43.84107 44.66436 65.41595
#
# Poissons Ratio (x) = 0.25767 0.43599
# Poissons Ratio (y) = 0.25292 0.03769
# Poissons Ratio (z) = 0.29220 0.02574
#
# Static dielectric constant tensor:
#      x y z
#    x 2.628900 0.000000 0.000000 
#    y 0.000000 2.807500 0.000000 
#    z 0.000000 0.000000 2.894240 
# 
# 
# High freq. dielectric constant tensor:
#      x y z
#    x 1.529750 0.000000 0.000000 
#    y 0.000000 1.510170 0.000000 
#    z 0.000000 0.000000 1.527620 
# 
# From -- ./inp_files/40512.got.cif
#   From: 2010.03.12/outbox.cif.g09.slc.cpg/sg65_21_cif.got.tgz:40512.got - 2010.04.10 20:52:16.
