data_PCOD8265468
_publ_section_title
;
Structure prediction by ZEFSAII (Michael W. Deem and Ramdas Pophale) SiO2 
 PCOD8265468
Probable space group: C M M M
;
_chemical_formula_sum "Si O2"
_cell_formula_units_Z 104
_cell_length_a 27.047227
_cell_length_b 13.570463
_cell_length_c 17.798732
_cell_angle_alpha 90.000000
_cell_angle_beta 90.000000
_cell_angle_gamma 90.000000
_cell_volume 6532.906989
_symmetry_space_group_name_H-M "C M M M"
_symmetry_group_IT_number 65
_symmetry_cell_setting 'orthorhombic'
loop_
_space_group_symop_operation_xyz
x,y,z
-x,-y,z
x,-y,-z
-x,y,-z
-x,-y,-z
x,y,-z
-x,y,z
x,-y,z
1/2+x,1/2+y,z
1/2-x,1/2-y,z
1/2+x,1/2-y,-z
1/2-x,1/2+y,-z
1/2-x,1/2-y,-z
1/2+x,1/2+y,-z
1/2-x,1/2+y,z
1/2+x,1/2-y,z
loop_
_atom_site_type_symbol
_atom_site_label
_atom_site_fract_x
_atom_site_fract_y
_atom_site_fract_z
Si Si1 0.054527 0.116538 0.000000
Si Si2 0.943043 0.114331 0.697390
Si Si3 0.873810 0.230102 0.585030
Si Si4 0.196174 0.770133 0.209440
Si Si5 0.787502 0.112513 0.643868
Si Si6 0.388163 0.615075 0.852723
Si Si7 0.823873 0.386129 0.672613
O O1 0.082119 0.151681 0.074804
O O2 0.000000 0.164061 0.000000
O O3 0.050080 0.000000 0.000000
O O4 0.914834 0.174916 0.633760
O O5 0.920642 0.136172 0.779081
O O6 0.000000 0.147447 0.698276
O O7 0.937767 0.000000 0.676883
O O8 0.893031 0.237481 0.500000
O O9 0.820840 0.174284 0.586190
O O10 0.865474 0.339896 0.618276
O O11 0.250000 0.750000 0.173109
O O12 0.199116 0.854863 0.272262
O O13 0.160005 0.814519 0.146829
O O14 0.175654 0.669591 0.247110
O O15 0.729120 0.129336 0.631192
O O16 0.802707 0.000000 0.633986
O O17 0.373349 0.500000 0.858728
O O18 0.835799 0.500000 0.687156
#
# Coordination Sequence:
#
# PCOD8265468 Si02
#       7
#     8  16  16  16  16  16  16
#     4   9  18  30  47  78 111 131 152 185 226 278
#     4  10  20  33  50  70  92 121 155 191 235 287
#     4  11  21  31  44  65  94 125 160 200 240 285
#     4   9  16  27  46  72  97 125 163 195 230 276
#     4   9  16  28  45  67  94 124 156 193 239 287
#     4  10  17  30  52  75 103 132 153 181 229 286
#     4   9  18  31  47  66  91 123 162 205 241 275
#
# _framework density 15.919406
#
# number of rings (size 3 to 8) (size 9 to 14) (size 15 to 20)
#    0.000    2.385    3.077    2.769    0.000    5.538 
#    0.000    2.692    0.000    0.462    0.000    1.615 
#    0.000    0.615    0.000    0.000    0.000    0.000 
#
# Total GULP energy -644633.863636 kJ/mol
# GULP energy per Si atom -12396.805070 kJ/mol
# Density = 1.588317 g / cm^3
# Si number density = 15.919406 Si / 1000 Ang^3
#
#
#
# Elastic Constant Matrix: (Units=GPa)
#
#
# Indices 1 2 3 4 5 6 
#
# 1 106.2396 45.3001 57.9924 0.0000 0.0000 0.0000
# 2 45.3001 86.7522 35.2949 0.0000 0.0000 0.0000
# 3 57.9924 35.2949 97.3978 0.0000 0.0000 0.0000
# 4 0.0000 0.0000 0.0000 14.0892 0.0000 0.0000
# 5 0.0000 0.0000 0.0000 0.0000 17.2252 0.0000
# 6 0.0000 0.0000 0.0000 0.0000 0.0000 25.9127
#
#
#
# Elastic Compliance Matrix: (Units=1/GPa)
#
#
# Indices 1 2 3 4 5 6 
#
# 1 0.015690 -0.005152 -0.007475 0.000000 0.000000 0.000000
# 2 -0.005152 0.015212 -0.002445 0.000000 0.000000 0.000000
# 3 -0.007475 -0.002445 0.015604 0.000000 0.000000 0.000000
# 4 0.000000 0.000000 0.000000 0.070976 0.000000 0.000000
# 5 0.000000 0.000000 0.000000 0.000000 0.058055 0.000000
# 6 0.000000 0.000000 0.000000 0.000000 0.000000 0.038591
#
#
# Mechanical properties :
#
#
# Convention : Reuss Voigt Hill
#
# Bulk Modulus (GPa) = 61.11714 63.06272 62.08993
# Shear Modulus (GPa) = 20.02199 21.56555 20.79377
#
# Velocity S-wave (km/s) = 3.55027 3.68458 3.61805
# Velocity P-wave (km/s) = 7.43511 7.60271 7.51938
#
# Compressibility (1/GPa) = 0.01636202
#
# Stress axis : x y z
#
# Youngs Moduli (GPa) = 63.73606 65.73781 64.08591
#
# Poissons Ratio (x) = 0.33865 0.47905
# Poissons Ratio (y) = 0.32834 0.15670
# Poissons Ratio (z) = 0.47643 0.16074
#
# Static dielectric constant tensor:
#      x y z
#    x 3.145940 0.000000 0.000000 
#    y 0.000000 2.975980 0.000000 
#    z 0.000000 0.000000 2.796980 
# 
# 
# High freq. dielectric constant tensor:
#      x y z
#    x 1.607400 0.000000 0.000000 
#    y 0.000000 1.596290 0.000000 
#    z 0.000000 0.000000 1.584850 
# 
# From -- ./inp_files/57633.got.cif
#   From: 2010.03.12/outbox.cif.g09.slc.cpg/sg65_29_cif.got.tgz:57633.got - 2010.04.10 20:52:16.
