data_PCOD8265316
_publ_section_title
;
Structure prediction by ZEFSAII (Michael W. Deem and Ramdas Pophale) SiO2 
 PCOD8265316
Probable space group: C M M M
;
_chemical_formula_sum "Si O2"
_cell_formula_units_Z 80
_cell_length_a 23.500323
_cell_length_b 26.374289
_cell_length_c 9.208221
_cell_angle_alpha 90.000000
_cell_angle_beta 90.000000
_cell_angle_gamma 90.000000
_cell_volume 5707.295067
_symmetry_space_group_name_H-M "C M M M"
_symmetry_group_IT_number 65
_symmetry_cell_setting 'orthorhombic'
loop_
_space_group_symop_operation_xyz
x,y,z
-x,-y,z
x,-y,-z
-x,y,-z
-x,-y,-z
x,y,-z
-x,y,z
x,-y,z
1/2+x,1/2+y,z
1/2-x,1/2-y,z
1/2+x,1/2-y,-z
1/2-x,1/2+y,-z
1/2-x,1/2-y,-z
1/2+x,1/2+y,-z
1/2-x,1/2+y,z
1/2+x,1/2-y,z
loop_
_atom_site_type_symbol
_atom_site_label
_atom_site_fract_x
_atom_site_fract_y
_atom_site_fract_z
Si Si1 0.817746 0.650030 0.168854
Si Si2 0.877458 0.740527 0.671268
Si Si3 0.107114 0.442643 0.833699
Si Si4 0.500000 0.099309 0.672922
Si Si5 0.500000 0.213454 0.670579
Si Si6 0.209337 0.201478 0.160872
O O1 0.854684 0.687973 0.265309
O O2 0.838686 0.593123 0.200202
O O3 0.750209 0.654544 0.209015
O O4 0.825762 0.665543 0.000000
O O5 0.869103 0.739330 0.500000
O O6 0.943825 0.744637 0.717654
O O7 0.843978 0.789656 0.732445
O O8 0.127180 0.500000 0.804164
O O9 0.055310 0.429591 0.729201
O O10 0.086931 0.435442 0.000000
O O11 0.500000 0.097487 0.500000
O O12 0.500000 0.156609 0.736554
O O13 0.500000 0.205707 0.500000
O O14 0.250000 0.250000 0.164401
O O15 0.184436 0.192477 0.000000
#
# Coordination Sequence:
#
# PCOD8265316 Si02
#       6
#    16  16  16   8   8  16
#     4   9  17  29  42  55  75 100 124 159 200 232
#     4  10  17  27  41  57  76  99 128 158 189 227
#     4  10  20  32  44  58  75 100 137 173 201 233
#     4  11  20  32  43  54  76 106 136 169 209 237
#     4   9  18  28  38  55  80 104 127 161 194 226
#     4   8  15  27  40  56  76  96 121 153 193 235
#
# _framework density 14.017148000000001
#
# number of rings (size 3 to 8) (size 9 to 14) (size 15 to 20)
#    0.000    2.600    2.000    2.400    0.000    5.200 
#    0.000    2.000    0.000    0.000    0.000    0.000 
#    0.000    0.000    0.000    0.900    0.000   20.800 
#
# Total GULP energy -495737.726387 kJ/mol
# GULP energy per Si atom -12393.443160 kJ/mol
# Density = 1.398524 g / cm^3
# Si number density = 14.017148 Si / 1000 Ang^3
#
#
#
# Elastic Constant Matrix: (Units=GPa)
#
#
# Indices 1 2 3 4 5 6 
#
# 1 113.6534 62.0499 49.0606 0.0000 0.0000 0.0000
# 2 62.0499 69.3726 30.3631 0.0000 0.0000 0.0000
# 3 49.0606 30.3631 61.2138 0.0000 0.0000 0.0000
# 4 0.0000 0.0000 0.0000 13.2419 0.0000 0.0000
# 5 0.0000 0.0000 0.0000 0.0000 21.1923 0.0000
# 6 0.0000 0.0000 0.0000 0.0000 0.0000 16.8882
#
#
#
# Elastic Compliance Matrix: (Units=1/GPa)
#
#
# Indices 1 2 3 4 5 6 
#
# 1 0.020771 -0.014424 -0.009493 0.000000 0.000000 0.000000
# 2 -0.014424 0.028428 -0.002541 0.000000 0.000000 0.000000
# 3 -0.009493 -0.002541 0.025205 0.000000 0.000000 0.000000
# 4 0.000000 0.000000 0.000000 0.075518 0.000000 0.000000
# 5 0.000000 0.000000 0.000000 0.000000 0.047187 0.000000
# 6 0.000000 0.000000 0.000000 0.000000 0.000000 0.059213
#
#
# Mechanical properties :
#
#
# Convention : Reuss Voigt Hill
#
# Bulk Modulus (GPa) = 46.53503 58.57635 52.55569
# Shear Modulus (GPa) = 15.80276 17.11554 16.45915
#
# Velocity S-wave (km/s) = 3.36130 3.49813 3.43040
# Velocity P-wave (km/s) = 6.95235 7.62861 7.29832
#
# Compressibility (1/GPa) = 0.02148919
#
# Stress axis : x y z
#
# Youngs Moduli (GPa) = 48.14324 35.17624 39.67519
#
# Poissons Ratio (x) = 0.50738 0.37664
# Poissons Ratio (y) = 0.69441 0.10080
# Poissons Ratio (z) = 0.45702 0.08937
#
# Static dielectric constant tensor:
#      x y z
#    x 3.061110 0.000000 0.000000 
#    y 0.000000 2.714630 0.000000 
#    z 0.000000 0.000000 2.764260 
# 
# 
# High freq. dielectric constant tensor:
#      x y z
#    x 1.526040 0.000000 0.000000 
#    y 0.000000 1.496210 0.000000 
#    z 0.000000 0.000000 1.536770 
# 
# From -- ./inp_files/12567.got.cif
#   From: 2010.03.12/outbox.cif.g09.slc.cpg/sg65_7_cif.got.tgz:12567.got - 2010.04.10 20:52:16.
