data_PCOD8265395
_publ_section_title
;
Structure prediction by ZEFSAII (Michael W. Deem and Ramdas Pophale) SiO2 
 PCOD8265395
Probable space group: C M M M
;
_chemical_formula_sum "Si O2"
_cell_formula_units_Z 80
_cell_length_a 25.123697
_cell_length_b 20.933974
_cell_length_c 8.829022
_cell_angle_alpha 90.000000
_cell_angle_beta 90.000000
_cell_angle_gamma 90.000000
_cell_volume 4643.525411
_symmetry_space_group_name_H-M "C M M M"
_symmetry_group_IT_number 65
_symmetry_cell_setting 'orthorhombic'
loop_
_space_group_symop_operation_xyz
x,y,z
-x,-y,z
x,-y,-z
-x,y,-z
-x,-y,-z
x,y,-z
-x,y,z
x,-y,z
1/2+x,1/2+y,z
1/2-x,1/2-y,z
1/2+x,1/2-y,-z
1/2-x,1/2+y,-z
1/2-x,1/2-y,-z
1/2+x,1/2+y,-z
1/2-x,1/2+y,z
1/2+x,1/2-y,z
loop_
_atom_site_type_symbol
_atom_site_label
_atom_site_fract_x
_atom_site_fract_y
_atom_site_fract_z
Si Si1 0.107293 0.738835 0.821939
Si Si2 0.000000 0.116803 0.333706
Si Si3 0.500000 0.768907 0.331859
Si Si4 0.285626 0.571230 0.176291
Si Si5 0.781277 0.310838 0.821789
Si Si6 0.886518 0.875490 0.681143
O O1 0.053320 0.708376 0.754639
O O2 0.156053 0.691228 0.782441
O O3 0.123939 0.806170 0.750542
O O4 0.099770 0.748395 0.000000
O O5 0.943895 0.097081 0.255834
O O6 0.000000 0.086238 0.500000
O O7 0.000000 0.193188 0.341169
O O8 0.500000 0.798943 0.500000
O O9 0.262750 0.500000 0.203623
O O10 0.243304 0.622743 0.240880
O O11 0.340809 0.576705 0.266938
O O12 0.297657 0.583219 0.000000
O O13 0.750000 0.250000 0.750219
O O14 0.772819 0.308972 0.000000
O O15 0.888785 0.869271 0.500000
#
# Coordination Sequence:
#
# PCOD8265395 Si02
#       6
#    16   8   8  16  16  16
#     4  10  17  28  49  72  96 127 163 196 238 290
#     4   7  14  27  42  60  85 121 154 187 227 270
#     4   9  17  29  43  68 105 128 151 195 247 287
#     4  10  20  34  50  68  93 127 163 201 246 294
#     4   9  16  29  49  72  97 122 157 204 244 280
#     4  10  18  30  47  67  95 126 160 202 246 282
#
# _framework density 17.228290000000001
#
# number of rings (size 3 to 8) (size 9 to 14) (size 15 to 20)
#    0.000    2.600    2.000    2.700    0.000    0.400 
#    0.000    5.000    0.000    3.000    0.000    0.700 
#    0.000    5.600    0.000    0.000    0.000    0.000 
#
# Total GULP energy -495640.698996 kJ/mol
# GULP energy per Si atom -12391.017475 kJ/mol
# Density = 1.718908 g / cm^3
# Si number density = 17.228290 Si / 1000 Ang^3
#
#
#
# Elastic Constant Matrix: (Units=GPa)
#
#
# Indices 1 2 3 4 5 6 
#
# 1 140.0403 62.6657 36.3945 0.0000 0.0000 0.0000
# 2 62.6657 84.9943 20.8934 0.0000 0.0000 0.0000
# 3 36.3945 20.8934 61.6264 0.0000 0.0000 0.0000
# 4 0.0000 0.0000 0.0000 7.3166 0.0000 0.0000
# 5 0.0000 0.0000 0.0000 0.0000 19.2356 0.0000
# 6 0.0000 0.0000 0.0000 0.0000 0.0000 16.0622
#
#
#
# Elastic Compliance Matrix: (Units=1/GPa)
#
#
# Indices 1 2 3 4 5 6 
#
# 1 0.011623 -0.007508 -0.004319 0.000000 0.000000 0.000000
# 2 -0.007508 0.017685 -0.001562 0.000000 0.000000 0.000000
# 3 -0.004319 -0.001562 0.019307 0.000000 0.000000 0.000000
# 4 0.000000 0.000000 0.000000 0.136675 0.000000 0.000000
# 5 0.000000 0.000000 0.000000 0.000000 0.051987 0.000000
# 6 0.000000 0.000000 0.000000 0.000000 0.000000 0.062258
#
#
# Mechanical properties :
#
#
# Convention : Reuss Voigt Hill
#
# Bulk Modulus (GPa) = 45.79218 58.50759 52.14988
# Shear Modulus (GPa) = 14.98842 19.63670 17.31256
#
# Velocity S-wave (km/s) = 2.95276 3.37975 3.17344
# Velocity P-wave (km/s) = 6.18566 7.01884 6.61538
#
# Compressibility (1/GPa) = 0.02183779
#
# Stress axis : x y z
#
# Youngs Moduli (GPa) = 86.03814 56.54553 51.79519
#
# Poissons Ratio (x) = 0.42453 0.22368
# Poissons Ratio (y) = 0.64595 0.08090
# Poissons Ratio (z) = 0.37157 0.08832
#
# Static dielectric constant tensor:
#      x y z
#    x 3.588180 0.000000 0.000000 
#    y 0.000000 2.949670 0.000000 
#    z 0.000000 0.000000 3.065310 
# 
# 
# High freq. dielectric constant tensor:
#      x y z
#    x 1.679700 0.000000 0.000000 
#    y 0.000000 1.616710 0.000000 
#    z 0.000000 0.000000 1.645540 
# 
# From -- ./inp_files/14207.got.cif
#   From: 2010.03.12/outbox.cif.g09.slc.cpg/sg65_8_cif.got.tgz:14207.got - 2010.04.10 20:52:16.
