data_PCOD8265721
_publ_section_title
;
Structure prediction by ZEFSAII (Michael W. Deem and Ramdas Pophale) SiO2 
 PCOD8265721
Probable space group: C M M M
;
_chemical_formula_sum "Si O2"
_cell_formula_units_Z 88
_cell_length_a 18.658182
_cell_length_b 32.535274
_cell_length_c 8.074257
_cell_angle_alpha 90.000000
_cell_angle_beta 90.000000
_cell_angle_gamma 90.000000
_cell_volume 4901.470152
_symmetry_space_group_name_H-M "C M M M"
_symmetry_group_IT_number 65
_symmetry_cell_setting 'orthorhombic'
loop_
_space_group_symop_operation_xyz
x,y,z
-x,-y,z
x,-y,-z
-x,y,-z
-x,-y,-z
x,y,-z
-x,y,z
x,-y,z
1/2+x,1/2+y,z
1/2-x,1/2-y,z
1/2+x,1/2-y,-z
1/2-x,1/2+y,-z
1/2-x,1/2-y,-z
1/2+x,1/2+y,-z
1/2-x,1/2+y,z
1/2+x,1/2-y,z
loop_
_atom_site_type_symbol
_atom_site_label
_atom_site_fract_x
_atom_site_fract_y
_atom_site_fract_z
Si Si1 0.351232 0.261609 0.189552
Si Si2 0.500000 0.827560 0.193097
Si Si3 0.698489 0.657861 0.314421
Si Si4 0.417384 0.400008 0.187369
Si Si5 0.000000 0.238762 0.311672
Si Si6 0.345064 0.831904 0.192654
Si Si7 0.584348 0.545537 0.500000
O O1 0.298867 0.292797 0.285604
O O2 0.431174 0.278993 0.217463
O O3 0.346266 0.215235 0.257931
O O4 0.328670 0.263199 0.000000
O O5 0.500000 0.788003 0.308497
O O6 0.424809 0.851849 0.228375
O O7 0.500000 0.812780 0.000000
O O8 0.676988 0.646444 0.500000
O O9 0.638625 0.637728 0.196121
O O10 0.780757 0.642950 0.280833
O O11 0.500000 0.385863 0.220774
O O12 0.392021 0.432089 0.329141
O O13 0.411890 0.418610 0.000000
O O14 0.000000 0.223020 0.500000
O O15 0.328027 0.833135 0.000000
O O16 0.619286 0.500000 0.500000
O O17 0.500000 0.541523 0.500000
#
# Coordination Sequence:
#
# PCOD8265721 Si02
#       7
#    16   8  16  16   8  16   8
#     4  10  20  33  46  60  83 121 168 211 254 307
#     4   8  16  32  50  62  82 114 154 205 254 297
#     4  12  23  32  46  68  97 129 163 209 258 301
#     4  10  21  37  55  77 107 141 172 205 251 302
#     4  10  18  28  42  62  82 106 146 205 258 297
#     4   9  18  33  49  65  86 121 168 214 259 306
#     4   9  18  36  60  84 109 133 165 207 240 288
#
# _framework density 17.953797000000002
#
# number of rings (size 3 to 8) (size 9 to 14) (size 15 to 20)
#    0.000    2.091    0.909    4.636    1.273    6.182 
#    0.000    1.818    0.000    0.000    0.000    0.000 
#    0.000    0.000    0.000    1.636    0.000    9.818 
#
# Total GULP energy -545086.121107 kJ/mol
# GULP energy per Si atom -12388.320934 kJ/mol
# Density = 1.791293 g / cm^3
# Si number density = 17.953797 Si / 1000 Ang^3
#
#
#
# Elastic Constant Matrix: (Units=GPa)
#
#
# Indices 1 2 3 4 5 6 
#
# 1 132.0163 19.2948 28.4141 0.0000 0.0000 0.0000
# 2 19.2948 34.3729 19.3267 0.0000 0.0000 0.0000
# 3 28.4141 19.3267 89.8335 0.0000 0.0000 0.0000
# 4 0.0000 0.0000 0.0000 15.6642 0.0000 0.0000
# 5 0.0000 0.0000 0.0000 0.0000 22.1368 0.0000
# 6 0.0000 0.0000 0.0000 0.0000 0.0000 8.5422
#
#
#
# Elastic Compliance Matrix: (Units=1/GPa)
#
#
# Indices 1 2 3 4 5 6 
#
# 1 0.008527 -0.003720 -0.001897 0.000000 0.000000 0.000000
# 2 -0.003720 0.034719 -0.006293 0.000000 0.000000 0.000000
# 3 -0.001897 -0.006293 0.013085 0.000000 0.000000 0.000000
# 4 0.000000 0.000000 0.000000 0.063840 0.000000 0.000000
# 5 0.000000 0.000000 0.000000 0.000000 0.045174 0.000000
# 6 0.000000 0.000000 0.000000 0.000000 0.000000 0.117066
#
#
# Mechanical properties :
#
#
# Convention : Reuss Voigt Hill
#
# Bulk Modulus (GPa) = 30.75755 43.36599 37.06177
# Shear Modulus (GPa) = 15.76952 21.88111 18.82532
#
# Velocity S-wave (km/s) = 2.96689 3.49484 3.24163
# Velocity P-wave (km/s) = 5.37637 6.36332 5.89055
#
# Compressibility (1/GPa) = 0.03251234
#
# Stress axis : x y z
#
# Youngs Moduli (GPa) = 117.27823 28.80263 76.42069
#
# Poissons Ratio (x) = 0.10714 0.14495
# Poissons Ratio (y) = 0.43627 0.48090
# Poissons Ratio (z) = 0.22244 0.18125
#
# Static dielectric constant tensor:
#      x y z
#    x 3.762250 0.000000 0.000000 
#    y 0.000000 2.774890 0.000000 
#    z 0.000000 0.000000 3.292950 
# 
# 
# High freq. dielectric constant tensor:
#      x y z
#    x 1.711330 0.000000 0.000000 
#    y 0.000000 1.600620 0.000000 
#    z 0.000000 0.000000 1.701010 
# 
# From -- ./inp_files/10205.got.cif
#   From: 2010.03.12/outbox.cif.g09.slc.cpg/sg65_6_cif.got.tgz:10205.got - 2010.04.10 20:52:16.
