data_PCOD8265274
_publ_section_title
;
Structure prediction by ZEFSAII (Michael W. Deem and Ramdas Pophale) SiO2 
 PCOD8265274
Probable space group: C M M M
;
_chemical_formula_sum "Si O2"
_cell_formula_units_Z 64
_cell_length_a 8.711838
_cell_length_b 19.314108
_cell_length_c 20.831965
_cell_angle_alpha 90.000000
_cell_angle_beta 90.000000
_cell_angle_gamma 90.000000
_cell_volume 3505.215179
_symmetry_space_group_name_H-M "C M M M"
_symmetry_group_IT_number 65
_symmetry_cell_setting 'orthorhombic'
loop_
_space_group_symop_operation_xyz
x,y,z
-x,-y,z
x,-y,-z
-x,y,-z
-x,-y,-z
x,y,-z
-x,y,z
x,-y,z
1/2+x,1/2+y,z
1/2-x,1/2-y,z
1/2+x,1/2-y,-z
1/2-x,1/2+y,-z
1/2-x,1/2-y,-z
1/2+x,1/2+y,-z
1/2-x,1/2+y,z
1/2+x,1/2-y,z
loop_
_atom_site_type_symbol
_atom_site_label
_atom_site_fract_x
_atom_site_fract_y
_atom_site_fract_z
Si Si1 0.679042 0.325635 0.569590
Si Si2 0.824015 0.579959 0.073969
Si Si3 0.318418 0.826867 0.694925
Si Si4 0.820442 0.825113 0.823699
O O1 0.706467 0.362966 0.500000
O O2 0.500000 0.319164 0.584588
O O3 0.750000 0.250000 0.564905
O O4 0.759731 0.365660 0.629619
O O5 0.788229 0.500000 0.087866
O O6 0.710840 0.626087 0.115984
O O7 0.000000 0.597128 0.091375
O O8 0.791601 0.597581 0.000000
O O9 0.500000 0.826746 0.696675
O O10 0.250000 0.750000 0.693438
O O11 0.253747 0.861222 0.760161
O O12 0.750000 0.750000 0.837362
O O13 0.000000 0.816480 0.812738
#
# Coordination Sequence:
#
# PCOD8265274 Si02
#       4
#    16  16  16  16
#     4   9  15  22  33  51  78 113 152 191 232 280
#     4   9  19  37  58  77  99 127 158 195 241 291
#     4  10  17  26  40  58  85 119 156 196 239 285
#     4  11  21  33  50  72 100 131 165 203 243 289
#
# _framework density 18.258509
#
# number of rings (size 3 to 8) (size 9 to 14) (size 15 to 20)
#    0.000    2.250    0.000    9.000    0.000    3.000 
#    0.000    1.250    0.000    0.000    0.000    0.000 
#    0.000    1.000    0.000   10.500    0.000    8.750 
#
# Total GULP energy -396535.199112 kJ/mol
# GULP energy per Si atom -12391.724972 kJ/mol
# Density = 1.821695 g / cm^3
# Si number density = 18.258509 Si / 1000 Ang^3
#
#
#
# Elastic Constant Matrix: (Units=GPa)
#
#
# Indices 1 2 3 4 5 6 
#
# 1 158.6785 26.5684 70.0253 0.0000 0.0000 0.0000
# 2 26.5684 31.1002 41.3567 0.0000 0.0000 0.0000
# 3 70.0253 41.3567 152.3189 0.0000 0.0000 0.0000
# 4 0.0000 0.0000 0.0000 -1.0600 0.0000 0.0000
# 5 0.0000 0.0000 0.0000 0.0000 35.6195 0.0000
# 6 0.0000 0.0000 0.0000 0.0000 0.0000 16.7427
#
#
#
# Elastic Compliance Matrix: (Units=1/GPa)
#
#
# Indices 1 2 3 4 5 6 
#
# 1 0.008090 -0.003076 -0.002884 0.000000 0.000000 0.000000
# 2 -0.003076 0.051493 -0.012567 0.000000 0.000000 0.000000
# 3 -0.002884 -0.012567 0.011303 0.000000 0.000000 0.000000
# 4 0.000000 0.000000 0.000000 -0.943435 0.000000 0.000000
# 5 0.000000 0.000000 0.000000 0.000000 0.028075 0.000000
# 6 0.000000 0.000000 0.000000 0.000000 0.000000 0.059727
#
#
# Mechanical properties :
#
#
# Convention : Reuss Voigt Hill
#
# Bulk Modulus (GPa) = 29.55743 68.66647 49.11195
# Shear Modulus (GPa) = -6.78965 23.87026 8.54030
#
# Velocity S-wave (km/s) = -1.93047 3.61965 2.16508
# Velocity P-wave (km/s) = 3.35478 7.42689 5.76252
#
# Compressibility (1/GPa) = 0.03383244
#
# Stress axis : x y z
#
# Youngs Moduli (GPa) = 123.61304 19.41995 88.47101
#
# Poissons Ratio (x) = 0.05973 0.25514
# Poissons Ratio (y) = 0.38022 1.11182
# Poissons Ratio (z) = 0.35649 0.24405
#
# Static dielectric constant tensor:
#      x y z
#    x 3.463840 0.000000 0.000000 
#    y 0.000000 2.354800 0.000000 
#    z 0.000000 0.000000 4.623490 
# 
# 
# High freq. dielectric constant tensor:
#      x y z
#    x 1.722680 0.000000 0.000000 
#    y 0.000000 1.622080 0.000000 
#    z 0.000000 0.000000 1.742840 
# 
# From -- ./inp_files/55267.got.cif
#   From: 2010.03.12/outbox.cif.g09.slc.cpg/sg65_28_cif.got.tgz:55267.got - 2010.04.10 20:52:16.
