data_PCOD8265776
_publ_section_title
;
Structure prediction by ZEFSAII (Michael W. Deem and Ramdas Pophale) SiO2 
 PCOD8265776
Probable space group: C M M M
;
_chemical_formula_sum "Si O2"
_cell_formula_units_Z 120
_cell_length_a 21.731869
_cell_length_b 15.146054
_cell_length_c 20.885450
_cell_angle_alpha 90.000000
_cell_angle_beta 90.000000
_cell_angle_gamma 90.000000
_cell_volume 6874.488921
_symmetry_space_group_name_H-M "C M M M"
_symmetry_group_IT_number 65
_symmetry_cell_setting 'orthorhombic'
loop_
_space_group_symop_operation_xyz
x,y,z
-x,-y,z
x,-y,-z
-x,y,-z
-x,-y,-z
x,y,-z
-x,y,z
x,-y,z
1/2+x,1/2+y,z
1/2-x,1/2-y,z
1/2+x,1/2-y,-z
1/2-x,1/2+y,-z
1/2-x,1/2-y,-z
1/2+x,1/2+y,-z
1/2-x,1/2+y,z
1/2+x,1/2-y,z
loop_
_atom_site_type_symbol
_atom_site_label
_atom_site_fract_x
_atom_site_fract_y
_atom_site_fract_z
Si Si1 0.432230 0.099793 0.753573
Si Si2 0.500000 0.900075 0.573514
Si Si3 0.158392 0.398001 0.860005
Si Si4 0.118430 0.671282 0.368258
Si Si5 0.178769 0.232241 0.930432
Si Si6 0.693519 0.316414 0.315178
Si Si7 0.298210 0.398638 0.821030
Si Si8 0.760771 0.601545 0.428373
O O1 0.500000 0.146226 0.745917
O O2 0.391982 0.139579 0.810570
O O3 0.391690 0.102874 0.689442
O O4 0.443510 0.000000 0.772226
O O5 0.500000 0.921115 0.500000
O O6 0.557786 0.837565 0.589096
O O7 0.500000 0.000000 0.606952
O O8 0.148559 0.500000 0.882153
O O9 0.149461 0.329160 0.917804
O O10 0.224908 0.387085 0.826971
O O11 0.130189 0.766475 0.334788
O O12 0.177087 0.652950 0.412091
O O13 0.250000 0.250000 0.935442
O O14 0.166148 0.160529 0.874324
O O15 0.154224 0.198149 0.000000
O O16 0.750000 0.250000 0.302623
O O17 0.681497 0.371033 0.250483
O O18 0.708834 0.379203 0.375604
O O19 0.317558 0.500000 0.832497
O O20 0.738651 0.629902 0.500000
O O21 0.778023 0.500000 0.426995
#
# Coordination Sequence:
#
# PCOD8265776 Si02
#       8
#    16   8  16  16  16  16  16  16
#     4  10  18  28  44  65  92 125 166 208 240 279
#     4  11  22  34  48  68  97 133 168 199 239 301
#     4   9  17  28  45  69  99 136 168 199 245 300
#     4  11  20  31  47  68  97 130 164 205 250 299
#     4   9  17  29  45  68 100 132 164 202 244 301
#     4  10  20  31  48  70  97 129 163 207 258 305
#     4  10  18  30  48  71  99 129 166 207 252 306
#     4  10  20  33  49  70  97 130 167 206 252 308
#
# _framework density 17.455843000000002
#
# number of rings (size 3 to 8) (size 9 to 14) (size 15 to 20)
#    0.000    2.067    0.667    5.600    0.000    5.600 
#    0.000    2.667    0.000    0.400    0.000    3.733 
#    0.000    3.200    0.000    2.933    0.000    2.133 
#
# Total GULP energy -743332.456203 kJ/mol
# GULP energy per Si atom -12388.874270 kJ/mol
# Density = 1.741611 g / cm^3
# Si number density = 17.455843 Si / 1000 Ang^3
#
#
#
# Elastic Constant Matrix: (Units=GPa)
#
#
# Indices 1 2 3 4 5 6 
#
# 1 46.2413 20.9895 24.8980 0.0000 0.0000 0.0000
# 2 20.9895 84.5394 52.5412 0.0000 0.0000 0.0000
# 3 24.8980 52.5412 143.4814 0.0000 0.0000 0.0000
# 4 0.0000 0.0000 0.0000 23.9715 0.0000 0.0000
# 5 0.0000 0.0000 0.0000 0.0000 -5.9549 0.0000
# 6 0.0000 0.0000 0.0000 0.0000 0.0000 32.1393
#
#
#
# Elastic Compliance Matrix: (Units=1/GPa)
#
#
# Indices 1 2 3 4 5 6 
#
# 1 0.025149 -0.004572 -0.002690 0.000000 0.000000 0.000000
# 2 -0.004572 0.016145 -0.005119 0.000000 0.000000 0.000000
# 3 -0.002690 -0.005119 0.009311 0.000000 0.000000 0.000000
# 4 0.000000 0.000000 0.000000 0.041716 0.000000 0.000000
# 5 0.000000 0.000000 0.000000 0.000000 -0.167930 0.000000
# 6 0.000000 0.000000 0.000000 0.000000 0.000000 0.031115
#
#
# Mechanical properties :
#
#
# Convention : Reuss Voigt Hill
#
# Bulk Modulus (GPa) = 38.69437 52.34663 45.52050
# Shear Modulus (GPa) = -449.74853 21.75341 -213.99756
#
# Velocity S-wave (km/s) = -16.06887 3.53398 -11.08421
# Velocity P-wave (km/s) = 17.94611 6.83412 11.73367
#
# Compressibility (1/GPa) = 0.02584355
#
# Stress axis : x y z
#
# Youngs Moduli (GPa) = 39.76233 61.93714 107.40288
#
# Poissons Ratio (x) = 0.28321 0.28889
# Poissons Ratio (y) = 0.18181 0.54978
# Poissons Ratio (z) = 0.10695 0.31704
#
# Static dielectric constant tensor:
#      x y z
#    x 3.244310 0.000000 0.000000 
#    y 0.000000 3.303970 0.000000 
#    z 0.000000 0.000000 3.576410 
# 
# 
# High freq. dielectric constant tensor:
#      x y z
#    x 1.628160 0.000000 0.000000 
#    y 0.000000 1.661310 0.000000 
#    z 0.000000 0.000000 1.685540 
# 
# From -- ./inp_files/65574.got.cif
#   From: 2010.03.12/outbox.cif.g09.slc.cpg/sg65_33_cif.got.tgz:65574.got - 2010.04.10 20:52:16.
