data_PCOD8265865
_publ_section_title
;
Structure prediction by ZEFSAII (Michael W. Deem and Ramdas Pophale) SiO2 
 PCOD8265865
Probable space group: C M M M
;
_chemical_formula_sum "Si O2"
_cell_formula_units_Z 80
_cell_length_a 20.805259
_cell_length_b 24.921410
_cell_length_c 8.999500
_cell_angle_alpha 90.000000
_cell_angle_beta 90.000000
_cell_angle_gamma 90.000000
_cell_volume 4666.208259
_symmetry_space_group_name_H-M "C M M M"
_symmetry_group_IT_number 65
_symmetry_cell_setting 'orthorhombic'
loop_
_space_group_symop_operation_xyz
x,y,z
-x,-y,z
x,-y,-z
-x,y,-z
-x,-y,-z
x,y,-z
-x,y,z
x,-y,z
1/2+x,1/2+y,z
1/2-x,1/2-y,z
1/2+x,1/2-y,-z
1/2-x,1/2+y,-z
1/2-x,1/2-y,-z
1/2+x,1/2+y,-z
1/2-x,1/2+y,z
1/2+x,1/2-y,z
loop_
_atom_site_type_symbol
_atom_site_label
_atom_site_fract_x
_atom_site_fract_y
_atom_site_fract_z
Si Si1 0.137721 0.500000 0.830888
Si Si2 0.428933 0.785081 0.324966
Si Si3 0.273671 0.607821 0.173728
Si Si4 0.188750 0.214527 0.324068
Si Si5 0.230999 0.000000 0.324831
Si Si6 0.123066 0.384354 0.167321
O O1 0.193410 0.500000 0.709100
O O2 0.096312 0.554508 0.811395
O O3 0.168075 0.500000 0.000000
O O4 0.425133 0.785726 0.500000
O O5 0.500000 0.767166 0.270513
O O6 0.375089 0.744503 0.263888
O O7 0.415711 0.845675 0.274441
O O8 0.311374 0.657665 0.243292
O O9 0.299613 0.553604 0.252239
O O10 0.198373 0.615811 0.206512
O O11 0.288555 0.604173 0.000000
O O12 0.187931 0.205228 0.500000
O O13 0.250000 0.250000 0.276469
O O14 0.218326 0.000000 0.500000
O O15 0.111693 0.364198 0.000000
#
# Coordination Sequence:
#
# PCOD8265865 Si02
#       6
#     8  16  16  16   8  16
#     4   8  16  30  45  67  96 128 165 209 252 287
#     4  10  21  35  49  68  98 131 163 205 254 296
#     4  10  19  31  49  74 103 131 163 204 250 293
#     4  10  19  32  51  74  98 127 168 210 245 292
#     4  10  18  28  46  73 104 133 162 198 246 296
#     4   9  17  30  48  68  94 127 165 205 244 291
#
# _framework density 17.144539999999999
#
# number of rings (size 3 to 8) (size 9 to 14) (size 15 to 20)
#    0.000    2.400    2.000    2.700    0.000    4.800 
#    0.000    0.500    0.000    3.000    0.000    0.700 
#    0.000    5.600    0.000    0.000    0.000    0.000 
#
# Total GULP energy -495846.643389 kJ/mol
# GULP energy per Si atom -12396.166085 kJ/mol
# Density = 1.710552 g / cm^3
# Si number density = 17.144540 Si / 1000 Ang^3
#
#
#
# Elastic Constant Matrix: (Units=GPa)
#
#
# Indices 1 2 3 4 5 6 
#
# 1 86.8477 60.2245 27.6456 0.0000 0.0000 0.0000
# 2 60.2245 154.5978 52.7484 0.0000 0.0000 0.0000
# 3 27.6456 52.7484 50.4791 0.0000 0.0000 0.0000
# 4 0.0000 0.0000 0.0000 33.9876 0.0000 0.0000
# 5 0.0000 0.0000 0.0000 0.0000 12.4372 0.0000
# 6 0.0000 0.0000 0.0000 0.0000 0.0000 13.7894
#
#
#
# Elastic Compliance Matrix: (Units=1/GPa)
#
#
# Indices 1 2 3 4 5 6 
#
# 1 0.016172 -0.005094 -0.003533 0.000000 0.000000 0.000000
# 2 -0.005094 0.011657 -0.009391 0.000000 0.000000 0.000000
# 3 -0.003533 -0.009391 0.031559 0.000000 0.000000 0.000000
# 4 0.000000 0.000000 0.000000 0.029422 0.000000 0.000000
# 5 0.000000 0.000000 0.000000 0.000000 0.080404 0.000000
# 6 0.000000 0.000000 0.000000 0.000000 0.000000 0.072520
#
#
# Mechanical properties :
#
#
# Convention : Reuss Voigt Hill
#
# Bulk Modulus (GPa) = 42.82693 63.68460 53.25576
# Shear Modulus (GPa) = 17.50976 22.12991 19.81983
#
# Velocity S-wave (km/s) = 3.19925 3.59665 3.40375
# Velocity P-wave (km/s) = 6.21941 7.38066 6.82478
#
# Compressibility (1/GPa) = 0.02334980
#
# Stress axis : x y z
#
# Youngs Moduli (GPa) = 61.83615 85.78429 31.68687
#
# Poissons Ratio (x) = 0.43700 0.11197
# Poissons Ratio (y) = 0.31500 0.29758
# Poissons Ratio (z) = 0.21850 0.80562
#
# Static dielectric constant tensor:
#      x y z
#    x 3.028870 0.000000 0.000000 
#    y 0.000000 3.492030 0.000000 
#    z 0.000000 0.000000 3.106080 
# 
# 
# High freq. dielectric constant tensor:
#      x y z
#    x 1.609670 0.000000 0.000000 
#    y 0.000000 1.675450 0.000000 
#    z 0.000000 0.000000 1.660530 
# 
# From -- ./inp_files/13853.got.cif
#   From: 2010.03.12/outbox.cif.g09.slc.cpg/sg65_7_cif.got.tgz:13853.got - 2010.04.10 20:52:16.
