data_PCOD8265564
_publ_section_title
;
Structure prediction by ZEFSAII (Michael W. Deem and Ramdas Pophale) SiO2 
 PCOD8265564
Probable space group: C M M M
;
_chemical_formula_sum "Si O2"
_cell_formula_units_Z 88
_cell_length_a 27.382216
_cell_length_b 18.152961
_cell_length_c 12.022094
_cell_angle_alpha 90.000000
_cell_angle_beta 90.000000
_cell_angle_gamma 90.000000
_cell_volume 5975.801817
_symmetry_space_group_name_H-M "C M M M"
_symmetry_group_IT_number 65
_symmetry_cell_setting 'orthorhombic'
loop_
_space_group_symop_operation_xyz
x,y,z
-x,-y,z
x,-y,-z
-x,y,-z
-x,-y,-z
x,y,-z
-x,y,z
x,-y,z
1/2+x,1/2+y,z
1/2-x,1/2-y,z
1/2+x,1/2-y,-z
1/2-x,1/2+y,-z
1/2-x,1/2-y,-z
1/2+x,1/2+y,-z
1/2-x,1/2+y,z
1/2+x,1/2-y,z
loop_
_atom_site_type_symbol
_atom_site_label
_atom_site_fract_x
_atom_site_fract_y
_atom_site_fract_z
Si Si1 0.747215 0.082460 0.125213
Si Si2 0.672806 0.412987 0.500000
Si Si3 0.604168 0.587334 0.704773
Si Si4 0.701933 0.199832 0.736158
Si Si5 0.225836 0.327363 0.500000
Si Si6 0.656114 0.678613 0.127515
Si Si7 0.000000 0.912701 0.621860
O O1 0.706329 0.124249 0.195433
O O2 0.795891 0.129466 0.132411
O O3 0.756252 0.000000 0.172972
O O4 0.727972 0.077858 0.000000
O O5 0.675126 0.500000 0.500000
O O6 0.642865 0.386342 0.390482
O O7 0.728864 0.385140 0.500000
O O8 0.607176 0.500000 0.719459
O O9 0.614410 0.627043 0.821511
O O10 0.549385 0.614237 0.679997
O O11 0.750000 0.250000 0.738943
O O12 0.691618 0.170589 0.610246
O O13 0.659823 0.248164 0.795233
O O14 0.250000 0.250000 0.500000
O O15 0.643917 0.700691 0.000000
O O16 0.000000 0.877634 0.500000
O O17 0.000000 0.000000 0.613737
#
# Coordination Sequence:
#
# PCOD8265564 Si02
#       7
#    16   8  16  16   8  16   8
#     4   9  16  26  40  56  76 106 143 176 202 234
#     4  10  18  27  42  62  81 105 138 176 210 239
#     4  10  18  28  44  62  81 105 137 173 209 249
#     4   9  17  28  39  53  78 106 135 171 210 248
#     4  10  18  26  37  55  78 102 131 169 210 245
#     4  10  19  29  41  57  78 107 142 177 208 242
#     4   9  16  30  45  61  83 107 133 165 210 258
#
# _framework density 14.726057000000001
#
# number of rings (size 3 to 8) (size 9 to 14) (size 15 to 20)
#    0.000    2.455    0.909    4.364    0.000    5.455 
#    0.000    0.455    0.000    1.636    0.000    0.000 
#    0.000    0.000    0.000    0.818    0.000    8.273 
#
# Total GULP energy -545118.449253 kJ/mol
# GULP energy per Si atom -12389.055665 kJ/mol
# Density = 1.469254 g / cm^3
# Si number density = 14.726057 Si / 1000 Ang^3
#
#
#
# Elastic Constant Matrix: (Units=GPa)
#
#
# Indices 1 2 3 4 5 6 
#
# 1 39.1524 15.0024 47.2206 0.0000 0.0000 0.0000
# 2 15.0024 47.0606 44.2177 0.0000 0.0000 0.0000
# 3 47.2206 44.2177 118.1541 0.0000 0.0000 0.0000
# 4 0.0000 0.0000 0.0000 23.9801 0.0000 0.0000
# 5 0.0000 0.0000 0.0000 0.0000 17.2783 0.0000
# 6 0.0000 0.0000 0.0000 0.0000 0.0000 11.3160
#
#
#
# Elastic Compliance Matrix: (Units=1/GPa)
#
#
# Indices 1 2 3 4 5 6 
#
# 1 0.049883 0.004364 -0.021569 0.000000 0.000000 0.000000
# 2 0.004364 0.033155 -0.014152 0.000000 0.000000 0.000000
# 3 -0.021569 -0.014152 0.022380 0.000000 0.000000 0.000000
# 4 0.000000 0.000000 0.000000 0.041701 0.000000 0.000000
# 5 0.000000 0.000000 0.000000 0.000000 0.057876 0.000000
# 6 0.000000 0.000000 0.000000 0.000000 0.000000 0.088370
#
#
# Mechanical properties :
#
#
# Convention : Reuss Voigt Hill
#
# Bulk Modulus (GPa) = 23.41716 46.36094 34.88905
# Shear Modulus (GPa) = 13.50206 17.04330 15.27268
#
# Velocity S-wave (km/s) = 3.03129 3.40569 3.22393
# Velocity P-wave (km/s) = 5.30924 6.85679 6.13203
#
# Compressibility (1/GPa) = 0.04270373
#
# Stress axis : x y z
#
# Youngs Moduli (GPa) = 20.04697 30.16130 44.68317
#
# Poissons Ratio (x) = -0.13162 0.96377
# Poissons Ratio (y) = -0.08748 0.63235
# Poissons Ratio (z) = 0.43239 0.42684
#
# Static dielectric constant tensor:
#      x y z
#    x 2.508820 0.000000 0.000000 
#    y 0.000000 2.814840 0.000000 
#    z 0.000000 0.000000 4.001350 
# 
# 
# High freq. dielectric constant tensor:
#      x y z
#    x 1.503290 0.000000 0.000000 
#    y 0.000000 1.546650 0.000000 
#    z 0.000000 0.000000 1.581560 
# 
# From -- ./inp_files/34076.got.cif
#   From: 2010.03.12/outbox.cif.g09.slc.cpg/sg65_18_cif.got.tgz:34076.got - 2010.04.10 20:52:16.
