data_PCOD8265220
_publ_section_title
;
Structure prediction by ZEFSAII (Michael W. Deem and Ramdas Pophale) SiO2 
 PCOD8265220
Probable space group: C M M M
;
_chemical_formula_sum "Si O2"
_cell_formula_units_Z 112
_cell_length_a 22.790378
_cell_length_b 16.353820
_cell_length_c 18.079439
_cell_angle_alpha 90.000000
_cell_angle_beta 90.000000
_cell_angle_gamma 90.000000
_cell_volume 6738.383001
_symmetry_space_group_name_H-M "C M M M"
_symmetry_group_IT_number 65
_symmetry_cell_setting 'orthorhombic'
loop_
_space_group_symop_operation_xyz
x,y,z
-x,-y,z
x,-y,-z
-x,y,-z
-x,-y,-z
x,y,-z
-x,y,z
x,-y,z
1/2+x,1/2+y,z
1/2-x,1/2-y,z
1/2+x,1/2-y,-z
1/2-x,1/2+y,-z
1/2-x,1/2-y,-z
1/2+x,1/2+y,-z
1/2-x,1/2+y,z
1/2+x,1/2-y,z
loop_
_atom_site_type_symbol
_atom_site_label
_atom_site_fract_x
_atom_site_fract_y
_atom_site_fract_z
Si Si1 0.612698 0.191797 0.083537
Si Si2 0.174634 0.659708 0.288117
Si Si3 0.800871 0.907404 0.689759
Si Si4 0.182113 0.804888 0.178769
Si Si5 0.769785 0.593423 0.083219
Si Si6 0.817674 0.229769 0.581456
Si Si7 0.435864 0.907489 0.794841
O O1 0.631411 0.278386 0.121089
O O2 0.663851 0.124006 0.084314
O O3 0.562369 0.151476 0.133402
O O4 0.590964 0.209144 0.000000
O O5 0.230247 0.600441 0.299771
O O6 0.198498 0.725523 0.228522
O O7 0.154202 0.702332 0.364611
O O8 0.117004 0.612992 0.260797
O O9 0.835917 0.875326 0.762733
O O10 0.823971 0.859593 0.617711
O O11 0.818362 0.000000 0.676663
O O12 0.235596 0.839923 0.130947
O O13 0.765906 0.500000 0.114892
O O14 0.744742 0.594536 0.000000
O O15 0.847658 0.231113 0.500000
O O16 0.750000 0.250000 0.573717
O O17 0.500000 0.896571 0.756139
O O18 0.427577 0.000000 0.821891
#
# Coordination Sequence:
#
# PCOD8265220 Si02
#       7
#    16  16  16  16  16  16  16
#     4  10  19  30  42  56  79 113 149 180 216 262
#     4   9  17  29  44  61  83 117 152 176 205 248
#     4  10  17  24  40  65  92 120 145 170 202 246
#     4  10  17  26  39  56  80 112 147 178 209 251
#     4  10  18  25  36  56  82 111 141 175 215 258
#     4   8  15  28  44  64  91 120 146 168 195 241
#     4  10  20  32  46  63  83 109 144 188 226 248
#
# _framework density 16.621198
#
# number of rings (size 3 to 8) (size 9 to 14) (size 15 to 20)
#    0.000    2.429    0.000    6.000    0.000    2.571 
#    0.000    0.714    0.000    1.714    0.000    1.000 
#    0.000   96.571    0.000   71.714    0.000    0.000 
#
# Total GULP energy -693798.844862 kJ/mol
# GULP energy per Si atom -12389.265087 kJ/mol
# Density = 1.658337 g / cm^3
# Si number density = 16.621198 Si / 1000 Ang^3
#
#
#
# Elastic Constant Matrix: (Units=GPa)
#
#
# Indices 1 2 3 4 5 6 
#
# 1 45.1238 19.8569 20.5905 0.0000 0.0000 0.0000
# 2 19.8569 89.8404 36.4649 0.0000 0.0000 0.0000
# 3 20.5905 36.4649 114.4837 0.0000 0.0000 0.0000
# 4 0.0000 0.0000 0.0000 16.8934 0.0000 0.0000
# 5 0.0000 0.0000 0.0000 0.0000 6.6405 0.0000
# 6 0.0000 0.0000 0.0000 0.0000 0.0000 15.9903
#
#
#
# Elastic Compliance Matrix: (Units=1/GPa)
#
#
# Indices 1 2 3 4 5 6 
#
# 1 0.025536 -0.004341 -0.003210 0.000000 0.000000 0.000000
# 2 -0.004341 0.013522 -0.003526 0.000000 0.000000 0.000000
# 3 -0.003210 -0.003526 0.010435 0.000000 0.000000 0.000000
# 4 0.000000 0.000000 0.000000 0.059195 0.000000 0.000000
# 5 0.000000 0.000000 0.000000 0.000000 0.150591 0.000000
# 6 0.000000 0.000000 0.000000 0.000000 0.000000 0.062538
#
#
# Mechanical properties :
#
#
# Convention : Reuss Voigt Hill
#
# Bulk Modulus (GPa) = 36.57843 44.80807 40.69325
# Shear Modulus (GPa) = 14.16091 19.40721 16.78406
#
# Velocity S-wave (km/s) = 2.92203 3.42075 3.18118
# Velocity P-wave (km/s) = 5.78267 6.52832 6.16677
#
# Compressibility (1/GPa) = 0.02733852
#
# Stress axis : x y z
#
# Youngs Moduli (GPa) = 39.15976 73.95608 95.82836
#
# Poissons Ratio (x) = 0.32106 0.30762
# Poissons Ratio (y) = 0.17000 0.33789
# Poissons Ratio (z) = 0.12571 0.26077
#
# Static dielectric constant tensor:
#      x y z
#    x 2.669370 0.000000 0.000000 
#    y 0.000000 3.177410 0.000000 
#    z 0.000000 0.000000 3.706580 
# 
# 
# High freq. dielectric constant tensor:
#      x y z
#    x 1.579640 0.000000 0.000000 
#    y 0.000000 1.639740 0.000000 
#    z 0.000000 0.000000 1.646510 
# 
# From -- ./inp_files/64818.got.cif
#   From: 2010.03.12/outbox.cif.g09.slc.cpg/sg65_33_cif.got.tgz:64818.got - 2010.04.10 20:52:16.
