data_PCOD8265929
_publ_section_title
;
Structure prediction by ZEFSAII (Michael W. Deem and Ramdas Pophale) SiO2 
 PCOD8265929
Probable space group: C M M M
;
_chemical_formula_sum "Si O2"
_cell_formula_units_Z 56
_cell_length_a 8.560476
_cell_length_b 23.654495
_cell_length_c 15.630981
_cell_angle_alpha 90.000000
_cell_angle_beta 90.000000
_cell_angle_gamma 90.000000
_cell_volume 3165.175752
_symmetry_space_group_name_H-M "C M M M"
_symmetry_group_IT_number 65
_symmetry_cell_setting 'orthorhombic'
loop_
_space_group_symop_operation_xyz
x,y,z
-x,-y,z
x,-y,-z
-x,y,-z
-x,-y,-z
x,y,-z
-x,y,z
x,-y,z
1/2+x,1/2+y,z
1/2-x,1/2-y,z
1/2+x,1/2-y,-z
1/2-x,1/2+y,-z
1/2-x,1/2-y,-z
1/2+x,1/2+y,-z
1/2-x,1/2+y,z
1/2+x,1/2-y,z
loop_
_atom_site_type_symbol
_atom_site_label
_atom_site_fract_x
_atom_site_fract_y
_atom_site_fract_z
Si Si1 0.814632 0.187957 0.000000
Si Si2 0.814372 0.118953 0.838448
Si Si3 0.313833 0.500000 0.097565
Si Si4 0.685158 0.812871 0.500000
Si Si5 0.685495 0.312932 0.674939
O O1 0.750000 0.250000 0.000000
O O2 0.749559 0.156268 0.916505
O O3 0.000000 0.188880 0.000000
O O4 0.753250 0.145967 0.750082
O O5 0.000000 0.119223 0.839394
O O6 0.752115 0.054973 0.851087
O O7 0.500000 0.500000 0.093878
O O8 0.249915 0.500000 0.000000
O O9 0.500000 0.813864 0.500000
O O10 0.750000 0.750000 0.500000
O O11 0.750402 0.841132 0.413089
O O12 0.500000 0.309390 0.671527
O O13 0.750000 0.250000 0.690445
#
# Coordination Sequence:
#
# PCOD8265929 Si02
#       5
#     8  16   8   8  16
#     4  10  18  29  43  67  97 126 153 184 226 276
#     4   9  17  27  44  68  95 123 156 194 232 272
#     4   9  14  26  46  67  92 123 159 200 236 267
#     4  10  18  30  48  69  92 123 157 190 232 282
#     4  10  18  29  45  70  99 125 153 189 233 281
#
# _framework density 17.692540000000001
#
# number of rings (size 3 to 8) (size 9 to 14) (size 15 to 20)
#    0.000    2.429    1.429    4.714    0.000    0.000 
#    0.000    1.429    0.000    0.857    0.000   16.000 
#    0.000    0.000    0.000    0.000    0.000    0.000 
#
# Total GULP energy -347059.754247 kJ/mol
# GULP energy per Si atom -12394.991223 kJ/mol
# Density = 1.765227 g / cm^3
# Si number density = 17.692540 Si / 1000 Ang^3
#
#
#
# Elastic Constant Matrix: (Units=GPa)
#
#
# Indices 1 2 3 4 5 6 
#
# 1 51.8334 17.6416 33.0046 0.0000 0.0000 0.0000
# 2 17.6416 138.1793 90.2525 0.0000 0.0000 0.0000
# 3 33.0046 90.2525 199.9294 0.0000 0.0000 0.0000
# 4 0.0000 0.0000 0.0000 17.9982 0.0000 0.0000
# 5 0.0000 0.0000 0.0000 0.0000 17.7056 0.0000
# 6 0.0000 0.0000 0.0000 0.0000 0.0000 15.7864
#
#
#
# Elastic Compliance Matrix: (Units=1/GPa)
#
#
# Indices 1 2 3 4 5 6 
#
# 1 0.021595 -0.000608 -0.003290 0.000000 0.000000 0.000000
# 2 -0.000608 0.010280 -0.004540 0.000000 0.000000 0.000000
# 3 -0.003290 -0.004540 0.007595 0.000000 0.000000 0.000000
# 4 0.000000 0.000000 0.000000 0.055561 0.000000 0.000000
# 5 0.000000 0.000000 0.000000 0.000000 0.056479 0.000000
# 6 0.000000 0.000000 0.000000 0.000000 0.000000 0.063346
#
#
# Mechanical properties :
#
#
# Convention : Reuss Voigt Hill
#
# Bulk Modulus (GPa) = 44.26335 74.63771 59.45053
# Shear Modulus (GPa) = 20.89745 26.90092 23.89919
#
# Velocity S-wave (km/s) = 3.44051 3.90355 3.67932
# Velocity P-wave (km/s) = 6.39181 7.91167 7.19200
#
# Compressibility (1/GPa) = 0.02259205
#
# Stress axis : x y z
#
# Youngs Moduli (GPa) = 46.30774 97.27515 131.67309
#
# Poissons Ratio (x) = 0.05913 0.43327
# Poissons Ratio (y) = 0.02815 0.59784
# Poissons Ratio (z) = 0.15237 0.44166
#
# Static dielectric constant tensor:
#      x y z
#    x 2.938810 0.000000 0.000000 
#    y 0.000000 3.274860 0.000000 
#    z 0.000000 0.000000 3.992890 
# 
# 
# High freq. dielectric constant tensor:
#      x y z
#    x 1.652880 0.000000 0.000000 
#    y 0.000000 1.660980 0.000000 
#    z 0.000000 0.000000 1.700110 
# 
# From -- ./inp_files/44987.got.cif
#   From: 2010.03.12/outbox.cif.g09.slc.cpg/sg65_23_cif.got.tgz:44987.got - 2010.04.10 20:52:16.
