data_PCOD8265652
_publ_section_title
;
Structure prediction by ZEFSAII (Michael W. Deem and Ramdas Pophale) SiO2 
 PCOD8265652
Probable space group: C M M M
;
_chemical_formula_sum "Si O2"
_cell_formula_units_Z 96
_cell_length_a 9.044377
_cell_length_b 27.406221
_cell_length_c 24.272519
_cell_angle_alpha 90.000000
_cell_angle_beta 90.000000
_cell_angle_gamma 90.000000
_cell_volume 6016.482560
_symmetry_space_group_name_H-M "C M M M"
_symmetry_group_IT_number 65
_symmetry_cell_setting 'orthorhombic'
loop_
_space_group_symop_operation_xyz
x,y,z
-x,-y,z
x,-y,-z
-x,y,-z
-x,-y,-z
x,y,-z
-x,y,z
x,-y,z
1/2+x,1/2+y,z
1/2-x,1/2-y,z
1/2+x,1/2-y,-z
1/2-x,1/2+y,-z
1/2-x,1/2-y,-z
1/2+x,1/2+y,-z
1/2-x,1/2+y,z
1/2+x,1/2-y,z
loop_
_atom_site_type_symbol
_atom_site_label
_atom_site_fract_x
_atom_site_fract_y
_atom_site_fract_z
Si Si1 0.330323 0.385715 0.938379
Si Si2 0.328891 0.699070 0.558102
Si Si3 0.826999 0.359464 0.773318
Si Si4 0.672542 0.444259 0.167477
Si Si5 0.828027 0.301049 0.117561
Si Si6 0.674885 0.697249 0.678011
O O1 0.500000 0.369613 0.931255
O O2 0.290591 0.428351 0.895219
O O3 0.231039 0.338318 0.928096
O O4 0.299192 0.405510 0.000000
O O5 0.290131 0.670089 0.500000
O O6 0.500000 0.711268 0.559136
O O7 0.250000 0.750000 0.555930
O O8 0.289216 0.674293 0.616866
O O9 0.766156 0.412615 0.789421
O O10 0.792342 0.321321 0.821787
O O11 0.742222 0.341675 0.719489
O O12 0.000000 0.363519 0.760883
O O13 0.500000 0.437107 0.180477
O O14 0.721923 0.500000 0.174414
O O15 0.750000 0.250000 0.109444
O O16 0.000000 0.293674 0.107975
O O17 0.500000 0.703036 0.688574
O O18 0.750000 0.750000 0.686053
#
# Coordination Sequence:
#
# PCOD8265652 Si02
#       6
#    16  16  16  16  16  16
#     4   9  18  32  49  69  91 113 139 172 210 256
#     4   8  14  24  37  55  82 117 154 187 217 250
#     4  10  20  32  46  65  89 116 148 185 221 261
#     4   9  18  33  52  71  90 112 138 173 219 267
#     4  10  20  32  46  63  85 116 149 180 215 253
#     4  10  18  27  42  64  91 123 156 188 221 257
#
# _framework density 15.956168
#
# number of rings (size 3 to 8) (size 9 to 14) (size 15 to 20)
#    0.000    2.667    0.000    2.000    0.000    5.333 
#    0.000    1.667    0.000    0.000    0.000    4.667 
#    0.000    0.667    0.000    7.667    0.000    2.167 
#
# Total GULP energy -594814.283046 kJ/mol
# GULP energy per Si atom -12391.964230 kJ/mol
# Density = 1.591985 g / cm^3
# Si number density = 15.956168 Si / 1000 Ang^3
#
#
#
# Elastic Constant Matrix: (Units=GPa)
#
#
# Indices 1 2 3 4 5 6 
#
# 1 62.2627 36.7691 47.5474 0.0000 0.0000 0.0000
# 2 36.7691 86.4771 47.3522 0.0000 0.0000 0.0000
# 3 47.5474 47.3522 134.2661 0.0000 0.0000 0.0000
# 4 0.0000 0.0000 0.0000 15.5658 0.0000 0.0000
# 5 0.0000 0.0000 0.0000 0.0000 19.8504 0.0000
# 6 0.0000 0.0000 0.0000 0.0000 0.0000 22.2905
#
#
#
# Elastic Compliance Matrix: (Units=1/GPa)
#
#
# Indices 1 2 3 4 5 6 
#
# 1 0.025194 -0.007221 -0.006375 0.000000 0.000000 0.000000
# 2 -0.007221 0.016401 -0.003227 0.000000 0.000000 0.000000
# 3 -0.006375 -0.003227 0.010844 0.000000 0.000000 0.000000
# 4 0.000000 0.000000 0.000000 0.064243 0.000000 0.000000
# 5 0.000000 0.000000 0.000000 0.000000 0.050377 0.000000
# 6 0.000000 0.000000 0.000000 0.000000 0.000000 0.044862
#
#
# Mechanical properties :
#
#
# Convention : Reuss Voigt Hill
#
# Bulk Modulus (GPa) = 53.21468 60.70481 56.95974
# Shear Modulus (GPa) = 19.85453 21.63050 20.74251
#
# Velocity S-wave (km/s) = 3.53131 3.68587 3.60942
# Velocity P-wave (km/s) = 7.07459 7.49943 7.29011
#
# Compressibility (1/GPa) = 0.01879181
#
# Stress axis : x y z
#
# Youngs Moduli (GPa) = 39.69210 60.97115 92.22057
#
# Poissons Ratio (x) = 0.44030 0.58791
# Poissons Ratio (y) = 0.28663 0.29760
# Poissons Ratio (z) = 0.25304 0.19675
#
# Static dielectric constant tensor:
#      x y z
#    x 3.102830 0.000000 0.000000 
#    y 0.000000 2.730590 0.000000 
#    z 0.000000 0.000000 3.508610 
# 
# 
# High freq. dielectric constant tensor:
#      x y z
#    x 1.623780 0.000000 0.000000 
#    y 0.000000 1.571040 0.000000 
#    z 0.000000 0.000000 1.621500 
# 
# From -- ./inp_files/67830.got.cif
#   From: 2010.03.12/outbox.cif.g09.slc.cpg/sg65_34_cif.got.tgz:67830.got - 2010.04.10 20:52:16.
