data_PCOD8265786
_publ_section_title
;
Structure prediction by ZEFSAII (Michael W. Deem and Ramdas Pophale) SiO2 
 PCOD8265786
Probable space group: C M M M
;
_chemical_formula_sum "Si O2"
_cell_formula_units_Z 88
_cell_length_a 27.469924
_cell_length_b 8.794776
_cell_length_c 21.512817
_cell_angle_alpha 90.000000
_cell_angle_beta 90.000000
_cell_angle_gamma 90.000000
_cell_volume 5197.320791
_symmetry_space_group_name_H-M "C M M M"
_symmetry_group_IT_number 65
_symmetry_cell_setting 'orthorhombic'
loop_
_space_group_symop_operation_xyz
x,y,z
-x,-y,z
x,-y,-z
-x,y,-z
-x,-y,-z
x,y,-z
-x,y,z
x,-y,z
1/2+x,1/2+y,z
1/2-x,1/2-y,z
1/2+x,1/2-y,-z
1/2-x,1/2+y,-z
1/2-x,1/2-y,-z
1/2+x,1/2+y,-z
1/2-x,1/2+y,z
1/2+x,1/2-y,z
loop_
_atom_site_type_symbol
_atom_site_label
_atom_site_fract_x
_atom_site_fract_y
_atom_site_fract_z
Si Si1 0.199632 0.178420 0.361091
Si Si2 0.104725 0.179120 0.432058
Si Si3 0.197586 0.677774 0.123688
Si Si4 0.354968 0.176772 0.749803
Si Si5 0.444902 0.680019 0.690926
Si Si6 0.196310 0.819105 0.000000
O O1 0.250000 0.250000 0.383487
O O2 0.159626 0.222129 0.412645
O O3 0.183891 0.241684 0.294291
O O4 0.205980 0.000000 0.353960
O O5 0.093267 0.252222 0.500000
O O6 0.067774 0.238809 0.378972
O O7 0.099085 0.000000 0.437238
O O8 0.205513 0.500000 0.111285
O O9 0.250000 0.750000 0.138990
O O10 0.160624 0.708497 0.179764
O O11 0.172002 0.755359 0.063264
O O12 0.409328 0.242034 0.740591
O O13 0.354808 0.000000 0.733498
O O14 0.500000 0.726678 0.706869
O O15 0.436756 0.500000 0.694695
O O16 0.250000 0.750000 0.000000
O O17 0.195962 0.000000 0.000000
#
# Coordination Sequence:
#
# PCOD8265786 Si02
#       6
#    16  16  16  16  16   8
#     4  10  19  30  45  65  91 122 155 192 231 273
#     4   8  15  28  45  66  91 118 150 187 228 278
#     4  10  19  30  45  67  96 128 160 190 222 261
#     4  10  20  32  48  69  92 122 157 193 232 273
#     4   9  18  32  50  71  93 117 147 189 239 285
#     4  10  18  28  44  66  95 130 161 188 220 257
#
# _framework density 16.931799999999999
#
# number of rings (size 3 to 8) (size 9 to 14) (size 15 to 20)
#    0.000    2.545    0.000    5.182    0.000    5.455 
#    0.000    1.818    0.000   13.091    0.000    5.727 
#    0.000    5.091    0.000    0.000    0.000    0.000 
#
# Total GULP energy -545439.000138 kJ/mol
# GULP energy per Si atom -12396.340912 kJ/mol
# Density = 1.689326 g / cm^3
# Si number density = 16.931800 Si / 1000 Ang^3
#
#
#
# Elastic Constant Matrix: (Units=GPa)
#
#
# Indices 1 2 3 4 5 6 
#
# 1 91.1324 33.6296 40.0207 0.0000 0.0000 0.0000
# 2 33.6296 80.0449 45.5550 0.0000 0.0000 0.0000
# 3 40.0207 45.5550 117.1633 0.0000 0.0000 0.0000
# 4 0.0000 0.0000 0.0000 21.1075 0.0000 0.0000
# 5 0.0000 0.0000 0.0000 0.0000 16.0198 0.0000
# 6 0.0000 0.0000 0.0000 0.0000 0.0000 24.4740
#
#
#
# Elastic Compliance Matrix: (Units=1/GPa)
#
#
# Indices 1 2 3 4 5 6 
#
# 1 0.013846 -0.004014 -0.003169 0.000000 0.000000 0.000000
# 2 -0.004014 0.017207 -0.005319 0.000000 0.000000 0.000000
# 3 -0.003169 -0.005319 0.011686 0.000000 0.000000 0.000000
# 4 0.000000 0.000000 0.000000 0.047377 0.000000 0.000000
# 5 0.000000 0.000000 0.000000 0.000000 0.062423 0.000000
# 6 0.000000 0.000000 0.000000 0.000000 0.000000 0.040860
#
#
# Mechanical properties :
#
#
# Convention : Reuss Voigt Hill
#
# Bulk Modulus (GPa) = 56.38698 58.52792 57.45745
# Shear Modulus (GPa) = 22.29041 23.59595 22.94318
#
# Velocity S-wave (km/s) = 3.63227 3.73713 3.68507
# Velocity P-wave (km/s) = 7.13904 7.29818 7.21905
#
# Compressibility (1/GPa) = 0.01773459
#
# Stress axis : x y z
#
# Youngs Moduli (GPa) = 72.22431 58.11755 85.57459
#
# Poissons Ratio (x) = 0.23326 0.27118
# Poissons Ratio (y) = 0.28988 0.45519
# Poissons Ratio (z) = 0.22887 0.30914
#
# Static dielectric constant tensor:
#      x y z
#    x 3.123590 0.000000 0.000000 
#    y 0.000000 3.131750 0.000000 
#    z 0.000000 0.000000 3.547360 
# 
# 
# High freq. dielectric constant tensor:
#      x y z
#    x 1.627290 0.000000 0.000000 
#    y 0.000000 1.649700 0.000000 
#    z 0.000000 0.000000 1.653710 
# 
# From -- ./inp_files/66183.got.cif
#   From: 2010.03.12/outbox.cif.g09.slc.cpg/sg65_34_cif.got.tgz:66183.got - 2010.04.10 20:52:16.
