data_PCOD8265412
_publ_section_title
;
Structure prediction by ZEFSAII (Michael W. Deem and Ramdas Pophale) SiO2 
 PCOD8265412
Probable space group: C M M M
;
_chemical_formula_sum "Si O2"
_cell_formula_units_Z 104
_cell_length_a 27.461052
_cell_length_b 17.290989
_cell_length_c 15.492498
_cell_angle_alpha 90.000000
_cell_angle_beta 90.000000
_cell_angle_gamma 90.000000
_cell_volume 7356.283430
_symmetry_space_group_name_H-M "C M M M"
_symmetry_group_IT_number 65
_symmetry_cell_setting 'orthorhombic'
loop_
_space_group_symop_operation_xyz
x,y,z
-x,-y,z
x,-y,-z
-x,y,-z
-x,-y,-z
x,y,-z
-x,y,z
x,-y,z
1/2+x,1/2+y,z
1/2-x,1/2-y,z
1/2+x,1/2-y,-z
1/2-x,1/2+y,-z
1/2-x,1/2-y,-z
1/2+x,1/2+y,-z
1/2-x,1/2+y,z
1/2+x,1/2-y,z
loop_
_atom_site_type_symbol
_atom_site_label
_atom_site_fract_x
_atom_site_fract_y
_atom_site_fract_z
Si Si1 0.788368 0.813606 0.100001
Si Si2 0.057715 0.090918 0.312606
Si Si3 0.556630 0.591537 0.000000
Si Si4 0.893425 0.344779 0.102056
Si Si5 0.054449 0.500000 0.102521
Si Si6 0.556585 0.589255 0.500000
Si Si7 0.604058 0.320763 0.157540
Si Si8 0.203086 0.583028 0.099967
O O1 0.750000 0.750000 0.133825
O O2 0.837318 0.819726 0.154839
O O3 0.759130 0.893418 0.112831
O O4 0.802219 0.796845 0.000000
O O5 0.076123 0.120836 0.407807
O O6 0.087317 0.144822 0.247989
O O7 0.000000 0.103572 0.300244
O O8 0.069726 0.000000 0.298390
O O9 0.582219 0.625154 0.916043
O O10 0.563791 0.500000 0.000000
O O11 0.500000 0.614407 0.000000
O O12 0.920200 0.421759 0.136648
O O13 0.914710 0.267757 0.147361
O O14 0.836499 0.353146 0.130609
O O15 0.900580 0.333519 0.000000
O O16 0.000000 0.500000 0.138614
O O17 0.056238 0.500000 0.000000
O O18 0.568489 0.500000 0.500000
O O19 0.500000 0.604699 0.500000
O O20 0.195111 0.500000 0.146415
O O21 0.191217 0.572015 0.000000
#
# Coordination Sequence:
#
# PCOD8265412 Si02
#       8
#    16  16   8  16   8   8  16  16
#     4  10  18  29  42  57  82 116 155 194 224 246
#     4   9  18  32  49  69  93 119 149 184 223 268
#     4  11  24  36  41  53  91 135 158 172 203 267
#     4  10  17  29  42  56  80 115 151 190 228 259
#     4   9  18  28  40  56  76 105 151 197 227 260
#     4   7  12  28  52  70  85 111 145 185 230 268
#     4  12  20  30  45  64  89 121 155 185 217 267
#     4   9  16  26  42  55  71 104 149 194 233 256
#
# _framework density 14.137574000000001
#
# number of rings (size 3 to 8) (size 9 to 14) (size 15 to 20)
#    0.000    2.231    3.846    1.846    0.000    3.692 
#    0.000    0.000    0.000    0.000    0.000    0.538 
#    0.000    0.615    0.000    3.462    0.000    0.000 
#
# Total GULP energy -644197.188468 kJ/mol
# GULP energy per Si atom -12388.407471 kJ/mol
# Density = 1.410540 g / cm^3
# Si number density = 14.137574 Si / 1000 Ang^3
#
#
#
# Elastic Constant Matrix: (Units=GPa)
#
#
# Indices 1 2 3 4 5 6 
#
# 1 84.7065 37.6063 36.0081 0.0000 0.0000 0.0000
# 2 37.6063 95.7038 41.2022 0.0000 0.0000 0.0000
# 3 36.0081 41.2022 82.1023 0.0000 0.0000 0.0000
# 4 0.0000 0.0000 0.0000 13.2654 0.0000 0.0000
# 5 0.0000 0.0000 0.0000 0.0000 4.6588 0.0000
# 6 0.0000 0.0000 0.0000 0.0000 0.0000 13.6992
#
#
#
# Elastic Compliance Matrix: (Units=1/GPa)
#
#
# Indices 1 2 3 4 5 6 
#
# 1 0.015667 -0.004080 -0.004824 0.000000 0.000000 0.000000
# 2 -0.004080 0.014391 -0.005433 0.000000 0.000000 0.000000
# 3 -0.004824 -0.005433 0.017022 0.000000 0.000000 0.000000
# 4 0.000000 0.000000 0.000000 0.075384 0.000000 0.000000
# 5 0.000000 0.000000 0.000000 0.000000 0.214647 0.000000
# 6 0.000000 0.000000 0.000000 0.000000 0.000000 0.072997
#
#
# Mechanical properties :
#
#
# Convention : Reuss Voigt Hill
#
# Bulk Modulus (GPa) = 54.32554 54.68288 54.50421
# Shear Modulus (GPa) = 11.23806 16.17108 13.70457
#
# Velocity S-wave (km/s) = 2.82247 3.38573 3.11685
# Velocity P-wave (km/s) = 7.00939 7.35169 7.18258
#
# Compressibility (1/GPa) = 0.01840755
#
# Stress axis : x y z
#
# Youngs Moduli (GPa) = 63.82732 69.48870 58.74768
#
# Poissons Ratio (x) = 0.28348 0.28340
# Poissons Ratio (y) = 0.26039 0.31916
# Poissons Ratio (z) = 0.30790 0.37751
#
# Static dielectric constant tensor:
#      x y z
#    x 2.847030 0.000000 0.000000 
#    y 0.000000 2.923170 0.000000 
#    z 0.000000 0.000000 2.541440 
# 
# 
# High freq. dielectric constant tensor:
#      x y z
#    x 1.540360 0.000000 0.000000 
#    y 0.000000 1.549530 0.000000 
#    z 0.000000 0.000000 1.474320 
# 
# From -- ./inp_files/47201.got.cif
#   From: 2010.03.12/outbox.cif.g09.slc.cpg/sg65_24_cif.got.tgz:47201.got - 2010.04.10 20:52:16.
