data_PCOD8265089
_publ_section_title
;
Structure prediction by ZEFSAII (Michael W. Deem and Ramdas Pophale) SiO2 
 PCOD8265089
Probable space group: C M M M
;
_chemical_formula_sum "Si O2"
_cell_formula_units_Z 104
_cell_length_a 8.851442
_cell_length_b 23.868404
_cell_length_c 28.694600
_cell_angle_alpha 90.000000
_cell_angle_beta 90.000000
_cell_angle_gamma 90.000000
_cell_volume 6062.302221
_symmetry_space_group_name_H-M "C M M M"
_symmetry_group_IT_number 65
_symmetry_cell_setting 'orthorhombic'
loop_
_space_group_symop_operation_xyz
x,y,z
-x,-y,z
x,-y,-z
-x,y,-z
-x,-y,-z
x,y,-z
-x,y,z
x,-y,z
1/2+x,1/2+y,z
1/2-x,1/2-y,z
1/2+x,1/2-y,-z
1/2-x,1/2+y,-z
1/2-x,1/2-y,-z
1/2+x,1/2+y,-z
1/2-x,1/2+y,z
1/2+x,1/2-y,z
loop_
_atom_site_type_symbol
_atom_site_label
_atom_site_fract_x
_atom_site_fract_y
_atom_site_fract_z
Si Si1 0.820470 0.500000 0.808982
Si Si2 0.677722 0.810371 0.866244
Si Si3 0.176305 0.689671 0.307611
Si Si4 0.323536 0.810430 0.409996
Si Si5 0.323089 0.500000 0.090190
Si Si6 0.826412 0.607692 0.947202
Si Si7 0.820687 0.187728 0.500000
Si Si8 0.820380 0.380823 0.221712
O O1 0.762286 0.500000 0.861181
O O2 0.760739 0.555281 0.782068
O O3 0.000000 0.500000 0.811817
O O4 0.500000 0.802905 0.862603
O O5 0.750000 0.750000 0.866388
O O6 0.725505 0.842335 0.913313
O O7 0.740303 0.845434 0.822213
O O8 0.250000 0.750000 0.301126
O O9 0.204940 0.662239 0.359024
O O10 0.242573 0.646622 0.269407
O O11 0.000000 0.699390 0.299657
O O12 0.500000 0.805551 0.421595
O O13 0.250000 0.750000 0.406551
O O14 0.240812 0.843184 0.452877
O O15 0.500000 0.500000 0.099410
O O16 0.277777 0.554056 0.060502
O O17 0.000000 0.590892 0.936740
O O18 0.806137 0.629079 0.000000
O O19 0.750000 0.250000 0.500000
O O20 0.000000 0.188946 0.500000
O O21 0.000000 0.380974 0.221767
#
# Coordination Sequence:
#
# PCOD8265089 Si02
#       8
#     8  16  16  16   8  16   8  16
#     4  10  18  35  59  74  94 128 161 192 232 286
#     4  10  20  34  52  74  99 128 162 195 231 278
#     4   9  17  28  43  66  93 123 156 191 230 278
#     4   9  15  23  35  53  82 116 151 187 227 269
#     4  12  23  35  54  81 106 122 151 201 251 284
#     4  10  21  38  58  76  97 131 167 193 229 289
#     4  10  16  22  34  52  78 113 156 193 225 264
#     4   9  17  31  52  73  92 120 160 196 230 279
#
# _framework density 17.155199
#
# number of rings (size 3 to 8) (size 9 to 14) (size 15 to 20)
#    0.000    2.308    1.538    3.462    0.000    2.769 
#    0.000    0.769    0.000    0.000    0.000    0.000 
#    0.000    0.615    0.000    7.846    0.000    1.538 
#
# Total GULP energy -644508.379178 kJ/mol
# GULP energy per Si atom -12394.391907 kJ/mol
# Density = 1.711615 g / cm^3
# Si number density = 17.155199 Si / 1000 Ang^3
#
#
#
# Elastic Constant Matrix: (Units=GPa)
#
#
# Indices 1 2 3 4 5 6 
#
# 1 50.5546 26.6208 35.9127 0.0000 0.0000 0.0000
# 2 26.6208 112.1730 66.1587 0.0000 0.0000 0.0000
# 3 35.9127 66.1587 170.4369 0.0000 0.0000 0.0000
# 4 0.0000 0.0000 0.0000 32.2920 0.0000 0.0000
# 5 0.0000 0.0000 0.0000 0.0000 16.0738 0.0000
# 6 0.0000 0.0000 0.0000 0.0000 0.0000 18.7498
#
#
#
# Elastic Compliance Matrix: (Units=1/GPa)
#
#
# Indices 1 2 3 4 5 6 
#
# 1 0.024314 -0.003565 -0.003740 0.000000 0.000000 0.000000
# 2 -0.003565 0.012084 -0.003940 0.000000 0.000000 0.000000
# 3 -0.003740 -0.003940 0.008185 0.000000 0.000000 0.000000
# 4 0.000000 0.000000 0.000000 0.030967 0.000000 0.000000
# 5 0.000000 0.000000 0.000000 0.000000 0.062213 0.000000
# 6 0.000000 0.000000 0.000000 0.000000 0.000000 0.053334
#
#
# Mechanical properties :
#
#
# Convention : Reuss Voigt Hill
#
# Bulk Modulus (GPa) = 45.25868 65.61655 55.43762
# Shear Modulus (GPa) = 22.62953 27.05461 24.84207
#
# Velocity S-wave (km/s) = 3.63589 3.97552 3.80949
# Velocity P-wave (km/s) = 6.63818 7.70745 7.19271
#
# Compressibility (1/GPa) = 0.02209521
#
# Stress axis : x y z
#
# Youngs Moduli (GPa) = 41.12840 82.75151 122.18217
#
# Poissons Ratio (x) = 0.29498 0.45690
# Poissons Ratio (y) = 0.14661 0.48136
# Poissons Ratio (z) = 0.15380 0.32602
#
# Static dielectric constant tensor:
#      x y z
#    x 3.076940 0.000000 0.000000 
#    y 0.000000 3.062850 0.000000 
#    z 0.000000 0.000000 4.151660 
# 
# 
# High freq. dielectric constant tensor:
#      x y z
#    x 1.647690 0.000000 0.000000 
#    y 0.000000 1.619720 0.000000 
#    z 0.000000 0.000000 1.683060 
# 
# From -- ./inp_files/77066.got.cif
#   From: 2010.03.12/outbox.cif.g09.slc.cpg/sg65_39_cif.got.tgz:77066.got - 2010.04.10 20:52:16.
