data_PCOD8265636
_publ_section_title
;
Structure prediction by ZEFSAII (Michael W. Deem and Ramdas Pophale) SiO2 
 PCOD8265636
Probable space group: C M M M
;
_chemical_formula_sum "Si O2"
_cell_formula_units_Z 72
_cell_length_a 14.977915
_cell_length_b 18.729528
_cell_length_c 16.661118
_cell_angle_alpha 90.000000
_cell_angle_beta 90.000000
_cell_angle_gamma 90.000000
_cell_volume 4673.931409
_symmetry_space_group_name_H-M "C M M M"
_symmetry_group_IT_number 65
_symmetry_cell_setting 'orthorhombic'
loop_
_space_group_symop_operation_xyz
x,y,z
-x,-y,z
x,-y,-z
-x,y,-z
-x,-y,-z
x,y,-z
-x,y,z
x,-y,z
1/2+x,1/2+y,z
1/2-x,1/2-y,z
1/2+x,1/2-y,-z
1/2-x,1/2+y,-z
1/2-x,1/2-y,-z
1/2+x,1/2+y,-z
1/2-x,1/2+y,z
1/2+x,1/2-y,z
loop_
_atom_site_type_symbol
_atom_site_label
_atom_site_fract_x
_atom_site_fract_y
_atom_site_fract_z
Si Si1 0.394019 0.579893 0.171333
Si Si2 0.896678 0.847726 0.332319
Si Si3 0.397951 0.803149 0.407060
Si Si4 0.763204 0.578384 0.406250
Si Si5 0.902237 0.084760 0.000000
O O1 0.500000 0.576861 0.161516
O O2 0.359161 0.500000 0.193594
O O3 0.367062 0.635840 0.240625
O O4 0.353301 0.605962 0.084497
O O5 0.878600 0.765376 0.352155
O O6 0.837629 0.896654 0.390158
O O7 0.000000 0.868050 0.347497
O O8 0.375433 0.784454 0.500000
O O9 0.500000 0.828374 0.398962
O O10 0.335516 0.865680 0.371645
O O11 0.778489 0.573285 0.500000
O O12 0.779074 0.500000 0.367713
O O13 0.000000 0.120928 0.000000
O O14 0.912187 0.000000 0.000000
#
# Coordination Sequence:
#
# PCOD8265636 Si02
#       5
#    16  16  16  16   8
#     4   8  13  21  34  54  81 111 139 163 189 229
#     4  10  18  27  41  62  88 114 135 158 195 247
#     4   9  18  32  47  60  76 103 140 178 211 241
#     4  10  20  31  43  60  81 106 138 175 209 240
#     4   7  10  18  32  50  75 108 140 164 187 221
#
# _framework density 15.404590000000001
#
# number of rings (size 3 to 8) (size 9 to 14) (size 15 to 20)
#    0.000    3.000    0.000    3.333    0.000    4.889 
#    0.000    3.333    0.000    0.000    0.000    3.111 
#    0.000    0.000    0.000    0.000    0.000   30.889 
#
# Total GULP energy -446005.591711 kJ/mol
# GULP energy per Si atom -12389.044214 kJ/mol
# Density = 1.536953 g / cm^3
# Si number density = 15.404590 Si / 1000 Ang^3
#
#
#
# Elastic Constant Matrix: (Units=GPa)
#
#
# Indices 1 2 3 4 5 6 
#
# 1 53.6098 49.4259 28.3595 0.0000 0.0000 0.0000
# 2 49.4259 109.7463 46.8195 0.0000 0.0000 0.0000
# 3 28.3595 46.8195 58.0772 0.0000 0.0000 0.0000
# 4 0.0000 0.0000 0.0000 15.5308 0.0000 0.0000
# 5 0.0000 0.0000 0.0000 0.0000 7.9526 0.0000
# 6 0.0000 0.0000 0.0000 0.0000 0.0000 17.3105
#
#
#
# Elastic Compliance Matrix: (Units=1/GPa)
#
#
# Indices 1 2 3 4 5 6 
#
# 1 0.033376 -0.012313 -0.006371 0.000000 0.000000 0.000000
# 2 -0.012313 0.018431 -0.008846 0.000000 0.000000 0.000000
# 3 -0.006371 -0.008846 0.027461 0.000000 0.000000 0.000000
# 4 0.000000 0.000000 0.000000 0.064388 0.000000 0.000000
# 5 0.000000 0.000000 0.000000 0.000000 0.125744 0.000000
# 6 0.000000 0.000000 0.000000 0.000000 0.000000 0.057769
#
#
# Mechanical properties :
#
#
# Convention : Reuss Voigt Hill
#
# Bulk Modulus (GPa) = 41.31004 52.29369 46.80187
# Shear Modulus (GPa) = 12.81070 14.61401 13.71236
#
# Velocity S-wave (km/s) = 2.88690 3.08340 2.98677
# Velocity P-wave (km/s) = 6.16338 6.83352 6.50708
#
# Compressibility (1/GPa) = 0.02420719
#
# Stress axis : x y z
#
# Youngs Moduli (GPa) = 29.96162 54.25593 36.41566
#
# Poissons Ratio (x) = 0.66807 0.23201
# Poissons Ratio (y) = 0.36893 0.32213
# Poissons Ratio (z) = 0.19089 0.47994
#
# Static dielectric constant tensor:
#      x y z
#    x 2.736710 0.000000 0.000000 
#    y 0.000000 3.043290 0.000000 
#    z 0.000000 0.000000 3.231060 
# 
# 
# High freq. dielectric constant tensor:
#      x y z
#    x 1.557220 0.000000 0.000000 
#    y 0.000000 1.576850 0.000000 
#    z 0.000000 0.000000 1.579970 
# 
# From -- ./inp_files/39800.got.cif
#   From: 2010.03.12/outbox.cif.g09.slc.cpg/sg65_20_cif.got.tgz:39800.got - 2010.04.10 20:52:16.
