data_PCOD8265686
_publ_section_title
;
Structure prediction by ZEFSAII (Michael W. Deem and Ramdas Pophale) SiO2 
 PCOD8265686
Probable space group: C M M M
;
_chemical_formula_sum "Si O2"
_cell_formula_units_Z 72
_cell_length_a 8.948615
_cell_length_b 28.950791
_cell_length_c 15.628749
_cell_angle_alpha 90.000000
_cell_angle_beta 90.000000
_cell_angle_gamma 90.000000
_cell_volume 4048.931917
_symmetry_space_group_name_H-M "C M M M"
_symmetry_group_IT_number 65
_symmetry_cell_setting 'orthorhombic'
loop_
_space_group_symop_operation_xyz
x,y,z
-x,-y,z
x,-y,-z
-x,y,-z
-x,-y,-z
x,y,-z
-x,y,z
x,-y,z
1/2+x,1/2+y,z
1/2-x,1/2-y,z
1/2+x,1/2-y,-z
1/2-x,1/2+y,-z
1/2-x,1/2-y,-z
1/2+x,1/2+y,-z
1/2-x,1/2+y,z
1/2+x,1/2-y,z
loop_
_atom_site_type_symbol
_atom_site_label
_atom_site_fract_x
_atom_site_fract_y
_atom_site_fract_z
Si Si1 0.178158 0.886471 0.249557
Si Si2 0.323902 0.800024 0.314177
Si Si3 0.822556 0.051606 0.095008
Si Si4 0.171404 0.702145 0.500000
Si Si5 0.822498 0.051920 0.594713
O O1 0.250630 0.835647 0.247752
O O2 0.238339 0.912523 0.165053
O O3 0.239727 0.914454 0.331964
O O4 0.000000 0.881898 0.250571
O O5 0.500000 0.795519 0.297319
O O6 0.250000 0.750000 0.301732
O O7 0.288026 0.821980 0.409423
O O8 0.000000 0.050602 0.099323
O O9 0.762328 0.000000 0.115329
O O10 0.769647 0.067001 0.000000
O O11 0.250000 0.750000 0.500000
O O12 0.000000 0.714821 0.500000
O O13 0.769727 0.068832 0.500000
O O14 0.000000 0.051379 0.598696
O O15 0.762675 0.000000 0.611456
#
# Coordination Sequence:
#
# PCOD8265686 Si02
#       5
#    16  16  16   8  16
#     4  10  18  27  46  73  96 123 159 198 238 281
#     4  10  20  34  49  67  93 125 160 200 241 283
#     4   8  14  26  46  73 102 128 157 196 238 279
#     4   8  16  30  46  62  83 116 155 193 232 273
#     4   8  14  24  38  61  94 126 155 188 224 267
#
# _framework density 17.782467
#
# number of rings (size 3 to 8) (size 9 to 14) (size 15 to 20)
#    0.000    3.111    0.000    2.667    1.556    3.556 
#    0.000    0.000    0.000    4.000    0.000    3.111 
#    0.000    0.000    0.000    0.000    0.000    0.000 
#
# Total GULP energy -445979.107952 kJ/mol
# GULP energy per Si atom -12388.308554 kJ/mol
# Density = 1.774199 g / cm^3
# Si number density = 17.782467 Si / 1000 Ang^3
#
#
#
# Elastic Constant Matrix: (Units=GPa)
#
#
# Indices 1 2 3 4 5 6 
#
# 1 29.4090 29.7396 28.6646 0.0000 0.0000 0.0000
# 2 29.7396 119.9535 85.0809 0.0000 0.0000 0.0000
# 3 28.6646 85.0809 132.7354 0.0000 0.0000 0.0000
# 4 0.0000 0.0000 0.0000 26.3920 0.0000 0.0000
# 5 0.0000 0.0000 0.0000 0.0000 10.0940 0.0000
# 6 0.0000 0.0000 0.0000 0.0000 0.0000 19.8982
#
#
#
# Elastic Compliance Matrix: (Units=1/GPa)
#
#
# Indices 1 2 3 4 5 6 
#
# 1 0.047072 -0.008179 -0.004923 0.000000 0.000000 0.000000
# 2 -0.008179 0.016707 -0.008943 0.000000 0.000000 0.000000
# 3 -0.004923 -0.008943 0.014329 0.000000 0.000000 0.000000
# 4 0.000000 0.000000 0.000000 0.037890 0.000000 0.000000
# 5 0.000000 0.000000 0.000000 0.000000 0.099068 0.000000
# 6 0.000000 0.000000 0.000000 0.000000 0.000000 0.050256
#
#
# Mechanical properties :
#
#
# Convention : Reuss Voigt Hill
#
# Bulk Modulus (GPa) = 29.39487 63.22978 46.31232
# Shear Modulus (GPa) = 15.58838 20.51769 18.05303
#
# Velocity S-wave (km/s) = 2.96398 3.40047 3.18970
# Velocity P-wave (km/s) = 5.31787 7.14508 6.29809
#
# Compressibility (1/GPa) = 0.03401954
#
# Stress axis : x y z
#
# Youngs Moduli (GPa) = 21.24402 59.85431 69.78792
#
# Poissons Ratio (x) = 0.48952 0.34357
# Poissons Ratio (y) = 0.17374 0.62410
# Poissons Ratio (z) = 0.10459 0.53527
#
# Static dielectric constant tensor:
#      x y z
#    x 2.766540 0.000000 0.000000 
#    y 0.000000 3.215840 0.000000 
#    z 0.000000 0.000000 3.568070 
# 
# 
# High freq. dielectric constant tensor:
#      x y z
#    x 1.641330 0.000000 0.000000 
#    y 0.000000 1.680630 0.000000 
#    z 0.000000 0.000000 1.680830 
# 
# From -- ./inp_files/36958.got.cif
#   From: 2010.03.12/outbox.cif.g09.slc.cpg/sg65_19_cif.got.tgz:36958.got - 2010.04.10 20:52:16.
