data_PCOD8265448
_publ_section_title
;
Structure prediction by ZEFSAII (Michael W. Deem and Ramdas Pophale) SiO2 
 PCOD8265448
Probable space group: C M M M
;
_chemical_formula_sum "Si O2"
_cell_formula_units_Z 112
_cell_length_a 17.679346
_cell_length_b 19.491133
_cell_length_c 18.407909
_cell_angle_alpha 90.000000
_cell_angle_beta 90.000000
_cell_angle_gamma 90.000000
_cell_volume 6343.190276
_symmetry_space_group_name_H-M "C M M M"
_symmetry_group_IT_number 65
_symmetry_cell_setting 'orthorhombic'
loop_
_space_group_symop_operation_xyz
x,y,z
-x,-y,z
x,-y,-z
-x,y,-z
-x,-y,-z
x,y,-z
-x,y,z
x,-y,z
1/2+x,1/2+y,z
1/2-x,1/2-y,z
1/2+x,1/2-y,-z
1/2-x,1/2+y,-z
1/2-x,1/2-y,-z
1/2+x,1/2+y,-z
1/2-x,1/2+y,z
1/2+x,1/2-y,z
loop_
_atom_site_type_symbol
_atom_site_label
_atom_site_fract_x
_atom_site_fract_y
_atom_site_fract_z
Si Si1 0.231359 0.575890 0.198219
Si Si2 0.416027 0.099407 0.730515
Si Si3 0.698658 0.816826 0.082493
Si Si4 0.410563 0.866419 0.577191
Si Si5 0.583744 0.763498 0.190718
Si Si6 0.191005 0.187361 0.288540
Si Si7 0.911860 0.210300 0.418108
O O1 0.268388 0.500000 0.188301
O O2 0.142575 0.563146 0.215848
O O3 0.238980 0.620108 0.124444
O O4 0.266434 0.617399 0.266188
O O5 0.500000 0.067297 0.741268
O O6 0.386134 0.089317 0.647253
O O7 0.419770 0.180793 0.744902
O O8 0.750000 0.750000 0.087294
O O9 0.618577 0.798045 0.118702
O O10 0.684782 0.840107 0.000000
O O11 0.379977 0.897425 0.500000
O O12 0.500000 0.864199 0.574814
O O13 0.382933 0.788377 0.584231
O O14 0.500000 0.736331 0.171196
O O15 0.634660 0.702137 0.221231
O O16 0.250000 0.250000 0.297595
O O17 0.143087 0.171118 0.361454
O O18 0.900999 0.180882 0.500000
O O19 0.000000 0.202593 0.394578
#
# Coordination Sequence:
#
# PCOD8265448 Si02
#       7
#    16  16  16  16  16  16  16
#     4  11  22  35  51  75 105 139 176 216 255 304
#     4   9  16  29  48  71  99 134 170 207 258 313
#     4  10  19  36  58  81 107 133 165 206 256 317
#     4   8  12  20  39  69  98 121 155 207 259 304
#     4  10  17  29  52  79 103 133 169 212 257 301
#     4  12  18  32  52  76 105 139 178 221 264 313
#     4   9  17  28  46  75 106 134 170 221 278 322
#
# _framework density 17.65673
#
# number of rings (size 3 to 8) (size 9 to 14) (size 15 to 20)
#    0.000    2.143    5.714    1.286    0.000    1.143 
#    0.000    0.714    0.000    3.429    0.000    7.000 
#    0.000    2.286    0.000    0.000    0.000    0.000 
#
# Total GULP energy -693824.479751 kJ/mol
# GULP energy per Si atom -12389.722853 kJ/mol
# Density = 1.761654 g / cm^3
# Si number density = 17.656730 Si / 1000 Ang^3
#
#
#
# Elastic Constant Matrix: (Units=GPa)
#
#
# Indices 1 2 3 4 5 6 
#
# 1 78.6556 24.0271 36.1059 0.0000 0.0000 0.0000
# 2 24.0271 74.6432 31.6064 0.0000 0.0000 0.0000
# 3 36.1059 31.6064 125.3138 0.0000 0.0000 0.0000
# 4 0.0000 0.0000 0.0000 6.5866 0.0000 0.0000
# 5 0.0000 0.0000 0.0000 0.0000 25.7577 0.0000
# 6 0.0000 0.0000 0.0000 0.0000 0.0000 3.5977
#
#
#
# Elastic Compliance Matrix: (Units=1/GPa)
#
#
# Indices 1 2 3 4 5 6 
#
# 1 0.015405 -0.003448 -0.003569 0.000000 0.000000 0.000000
# 2 -0.003448 0.015770 -0.002984 0.000000 0.000000 0.000000
# 3 -0.003569 -0.002984 0.009761 0.000000 0.000000 0.000000
# 4 0.000000 0.000000 0.000000 0.151823 0.000000 0.000000
# 5 0.000000 0.000000 0.000000 0.000000 0.038823 0.000000
# 6 0.000000 0.000000 0.000000 0.000000 0.000000 0.277955
#
#
# Mechanical properties :
#
#
# Convention : Reuss Voigt Hill
#
# Bulk Modulus (GPa) = 47.76732 51.34348 49.55540
# Shear Modulus (GPa) = 9.31935 19.64661 14.48298
#
# Velocity S-wave (km/s) = 2.29990 3.33933 2.86711
# Velocity P-wave (km/s) = 5.84506 6.63400 6.25199
#
# Compressibility (1/GPa) = 0.02093481
#
# Stress axis : x y z
#
# Youngs Moduli (GPa) = 64.91354 63.40974 102.44877
#
# Poissons Ratio (x) = 0.21861 0.36564
# Poissons Ratio (y) = 0.22379 0.30573
# Poissons Ratio (z) = 0.23168 0.18923
#
# Static dielectric constant tensor:
#      x y z
#    x 3.293800 0.000000 0.000000 
#    y 0.000000 2.857400 0.000000 
#    z 0.000000 0.000000 4.044660 
# 
# 
# High freq. dielectric constant tensor:
#      x y z
#    x 1.669220 0.000000 0.000000 
#    y 0.000000 1.632150 0.000000 
#    z 0.000000 0.000000 1.686650 
# 
# From -- ./inp_files/54868.got.cif
#   From: 2010.03.12/outbox.cif.g09.slc.cpg/sg65_28_cif.got.tgz:54868.got - 2010.04.10 20:52:16.
