data_PCOD8265087
_publ_section_title
;
Structure prediction by ZEFSAII (Michael W. Deem and Ramdas Pophale) SiO2 
 PCOD8265087
Probable space group: C M M M
;
_chemical_formula_sum "Si O2"
_cell_formula_units_Z 80
_cell_length_a 8.964992
_cell_length_b 28.594828
_cell_length_c 21.023240
_cell_angle_alpha 90.000000
_cell_angle_beta 90.000000
_cell_angle_gamma 90.000000
_cell_volume 5389.358119
_symmetry_space_group_name_H-M "C M M M"
_symmetry_group_IT_number 65
_symmetry_cell_setting 'orthorhombic'
loop_
_space_group_symop_operation_xyz
x,y,z
-x,-y,z
x,-y,-z
-x,y,-z
-x,-y,-z
x,y,-z
-x,y,z
x,-y,z
1/2+x,1/2+y,z
1/2-x,1/2-y,z
1/2+x,1/2-y,-z
1/2-x,1/2+y,-z
1/2-x,1/2-y,-z
1/2+x,1/2+y,-z
1/2-x,1/2+y,z
1/2+x,1/2-y,z
loop_
_atom_site_type_symbol
_atom_site_label
_atom_site_fract_x
_atom_site_fract_y
_atom_site_fract_z
Si Si1 0.676319 0.800285 0.000000
Si Si2 0.325774 0.800000 0.621684
Si Si3 0.676137 0.140565 0.878751
Si Si4 0.821935 0.801845 0.500000
Si Si5 0.325049 0.447489 0.927704
Si Si6 0.173058 0.700324 0.238480
O O1 0.750000 0.750000 0.000000
O O2 0.731428 0.828427 0.938098
O O3 0.500000 0.793662 0.000000
O O4 0.500000 0.795179 0.604681
O O5 0.250000 0.750000 0.627273
O O6 0.240812 0.827524 0.564083
O O7 0.301971 0.823029 0.691388
O O8 0.500000 0.135465 0.879029
O O9 0.743659 0.088780 0.881598
O O10 0.735319 0.164378 0.813915
O O11 0.750000 0.750000 0.500000
O O12 0.000000 0.800929 0.500000
O O13 0.500000 0.438960 0.923603
O O14 0.284750 0.500000 0.905250
O O15 0.269454 0.439988 0.000000
O O16 0.250000 0.750000 0.230257
O O17 0.000000 0.710010 0.226636
#
# Coordination Sequence:
#
# PCOD8265087 Si02
#       6
#     8  16  16   8  16  16
#     4  10  20  30  41  58  81 107 138 173 203 236
#     4   9  15  24  36  51  72 101 133 167 201 234
#     4  10  19  31  44  62  83 106 136 171 208 246
#     4  10  16  22  34  52  72  96 129 170 203 234
#     4   9  18  32  48  65  82 100 128 167 210 256
#     4   9  18  29  41  57  81 110 142 173 202 240
#
# _framework density 14.844068
#
# number of rings (size 3 to 8) (size 9 to 14) (size 15 to 20)
#    0.000    2.600    1.000    3.900    0.000    2.800 
#    0.000    1.000    0.000    0.000    0.000    0.000 
#    0.000    0.000    0.000    0.900    0.000   18.900 
#
# Total GULP energy -495693.257583 kJ/mol
# GULP energy per Si atom -12392.331440 kJ/mol
# Density = 1.481028 g / cm^3
# Si number density = 14.844068 Si / 1000 Ang^3
#
#
#
# Elastic Constant Matrix: (Units=GPa)
#
#
# Indices 1 2 3 4 5 6 
#
# 1 58.0869 28.1509 44.4551 0.0000 0.0000 0.0000
# 2 28.1509 77.4704 49.8084 0.0000 0.0000 0.0000
# 3 44.4551 49.8084 139.3660 0.0000 0.0000 0.0000
# 4 0.0000 0.0000 0.0000 6.1652 0.0000 0.0000
# 5 0.0000 0.0000 0.0000 0.0000 18.5982 0.0000
# 6 0.0000 0.0000 0.0000 0.0000 0.0000 21.5824
#
#
#
# Elastic Compliance Matrix: (Units=1/GPa)
#
#
# Indices 1 2 3 4 5 6 
#
# 1 0.024163 -0.004966 -0.005933 0.000000 0.000000 0.000000
# 2 -0.004966 0.017780 -0.004770 0.000000 0.000000 0.000000
# 3 -0.005933 -0.004770 0.010773 0.000000 0.000000 0.000000
# 4 0.000000 0.000000 0.000000 0.162201 0.000000 0.000000
# 5 0.000000 0.000000 0.000000 0.000000 0.053769 0.000000
# 6 0.000000 0.000000 0.000000 0.000000 0.000000 0.046334
#
#
# Mechanical properties :
#
#
# Convention : Reuss Voigt Hill
#
# Bulk Modulus (GPa) = 46.77865 57.75024 52.26444
# Shear Modulus (GPa) = 14.14501 19.43640 16.79070
#
# Velocity S-wave (km/s) = 3.09027 3.62245 3.36689
# Velocity P-wave (km/s) = 6.65693 7.51567 7.09930
#
# Compressibility (1/GPa) = 0.02137727
#
# Stress axis : x y z
#
# Youngs Moduli (GPa) = 41.38629 56.24417 92.82776
#
# Poissons Ratio (x) = 0.27930 0.55072
# Poissons Ratio (y) = 0.20552 0.44282
# Poissons Ratio (z) = 0.24553 0.26830
#
# Static dielectric constant tensor:
#      x y z
#    x 2.863070 0.000000 0.000000 
#    y 0.000000 2.552530 0.000000 
#    z 0.000000 0.000000 3.818330 
# 
# 
# High freq. dielectric constant tensor:
#      x y z
#    x 1.573620 0.000000 0.000000 
#    y 0.000000 1.513670 0.000000 
#    z 0.000000 0.000000 1.576970 
# 
# From -- ./inp_files/60584.got.cif
#   From: 2010.03.12/outbox.cif.g09.slc.cpg/sg65_31_cif.got.tgz:60584.got - 2010.04.10 20:52:16.
