data_PCOD8265870
_publ_section_title
;
Structure prediction by ZEFSAII (Michael W. Deem and Ramdas Pophale) SiO2 
 PCOD8265870
Probable space group: C M M M
;
_chemical_formula_sum "Si O2"
_cell_formula_units_Z 104
_cell_length_a 19.018241
_cell_length_b 8.855442
_cell_length_c 33.472644
_cell_angle_alpha 90.000000
_cell_angle_beta 90.000000
_cell_angle_gamma 90.000000
_cell_volume 5637.293000
_symmetry_space_group_name_H-M "C M M M"
_symmetry_group_IT_number 65
_symmetry_cell_setting 'orthorhombic'
loop_
_space_group_symop_operation_xyz
x,y,z
-x,-y,z
x,-y,-z
-x,y,-z
-x,-y,-z
x,y,-z
-x,y,z
x,-y,z
1/2+x,1/2+y,z
1/2-x,1/2-y,z
1/2+x,1/2-y,-z
1/2-x,1/2+y,-z
1/2-x,1/2-y,-z
1/2+x,1/2+y,-z
1/2-x,1/2+y,z
1/2+x,1/2-y,z
loop_
_atom_site_type_symbol
_atom_site_label
_atom_site_fract_x
_atom_site_fract_y
_atom_site_fract_z
Si Si1 0.078570 0.820658 0.195171
Si Si2 0.177494 0.177698 0.735219
Si Si3 0.583215 0.172759 0.580211
Si Si4 0.916315 0.170424 0.500000
Si Si5 0.325994 0.176766 0.956695
Si Si6 0.323062 0.677987 0.355523
Si Si7 0.827099 0.820510 0.121693
O O1 0.115223 0.764209 0.236063
O O2 0.123525 0.763276 0.157512
O O3 0.000000 0.751806 0.193283
O O4 0.074708 0.000000 0.194668
O O5 0.250000 0.250000 0.750032
O O6 0.159862 0.226726 0.689951
O O7 0.186977 0.000000 0.738691
O O8 0.500000 0.188469 0.582733
O O9 0.612293 0.244660 0.539187
O O10 0.613938 0.261546 0.617679
O O11 0.607712 0.000000 0.581547
O O12 0.000000 0.172455 0.500000
O O13 0.887246 0.000000 0.500000
O O14 0.250000 0.250000 0.959622
O O15 0.363875 0.259745 0.919421
O O16 0.318975 0.000000 0.947221
O O17 0.364295 0.201657 0.000000
O O18 0.317334 0.500000 0.360116
O O19 0.250000 0.750000 0.369965
O O20 0.750000 0.750000 0.127488
O O21 0.820893 0.000000 0.120504
#
# Coordination Sequence:
#
# PCOD8265870 Si02
#       7
#    16  16  16   8  16  16  16
#     4   9  18  32  49  71  98 127 161 200 241 284
#     4   9  18  33  54  75  97 128 163 202 244 291
#     4  10  20  34  53  77 106 139 173 211 255 300
#     4   9  17  31  52  77 104 135 174 215 251 295
#     4   9  16  26  42  65  93 122 153 193 237 280
#     4  10  20  34  53  77 104 135 170 208 253 302
#     4  10  18  28  47  71  95 125 158 196 239 285
#
# _framework density 18.448571000000001
#
# number of rings (size 3 to 8) (size 9 to 14) (size 15 to 20)
#    0.000    2.538    0.000    3.462    0.000    4.000 
#    0.000    2.692    0.000    4.615    0.000    3.231 
#    0.000    0.000    0.000    0.000    0.000    0.000 
#
# Total GULP energy -644611.330013 kJ/mol
# GULP energy per Si atom -12396.371731 kJ/mol
# Density = 1.840658 g / cm^3
# Si number density = 18.448571 Si / 1000 Ang^3
#
#
#
# Elastic Constant Matrix: (Units=GPa)
#
#
# Indices 1 2 3 4 5 6 
#
# 1 76.1507 28.2896 62.0468 0.0000 0.0000 0.0000
# 2 28.2896 79.2565 44.0532 0.0000 0.0000 0.0000
# 3 62.0468 44.0532 147.9803 0.0000 0.0000 0.0000
# 4 0.0000 0.0000 0.0000 25.5853 0.0000 0.0000
# 5 0.0000 0.0000 0.0000 0.0000 13.5868 0.0000
# 6 0.0000 0.0000 0.0000 0.0000 0.0000 21.9477
#
#
#
# Elastic Compliance Matrix: (Units=1/GPa)
#
#
# Indices 1 2 3 4 5 6 
#
# 1 0.020543 -0.003050 -0.007706 0.000000 0.000000 0.000000
# 2 -0.003050 0.015572 -0.003357 0.000000 0.000000 0.000000
# 3 -0.007706 -0.003357 0.010988 0.000000 0.000000 0.000000
# 4 0.000000 0.000000 0.000000 0.039085 0.000000 0.000000
# 5 0.000000 0.000000 0.000000 0.000000 0.073601 0.000000
# 6 0.000000 0.000000 0.000000 0.000000 0.000000 0.045563
#
#
# Mechanical properties :
#
#
# Convention : Reuss Voigt Hill
#
# Bulk Modulus (GPa) = 52.97078 63.57407 58.27243
# Shear Modulus (GPa) = 20.84467 23.49047 22.16757
#
# Velocity S-wave (km/s) = 3.36502 3.57220 3.47015
# Velocity P-wave (km/s) = 6.62365 7.17977 6.90731
#
# Compressibility (1/GPa) = 0.01887833
#
# Stress axis : x y z
#
# Youngs Moduli (GPa) = 48.67758 64.21913 91.00855
#
# Poissons Ratio (x) = 0.19584 0.70129
# Poissons Ratio (y) = 0.14845 0.30551
# Poissons Ratio (z) = 0.37510 0.21558
#
# Static dielectric constant tensor:
#      x y z
#    x 3.177610 0.000000 0.000000 
#    y 0.000000 3.369260 0.000000 
#    z 0.000000 0.000000 3.958980 
# 
# 
# High freq. dielectric constant tensor:
#      x y z
#    x 1.676250 0.000000 0.000000 
#    y 0.000000 1.712700 0.000000 
#    z 0.000000 0.000000 1.737040 
# 
# From -- ./inp_files/78245.got.cif
#   From: 2010.03.12/outbox.cif.g09.slc.cpg/sg65_40_cif.got.tgz:78245.got - 2010.04.10 20:52:16.
