data_PCOD8265172
_publ_section_title
;
Structure prediction by ZEFSAII (Michael W. Deem and Ramdas Pophale) SiO2 
 PCOD8265172
Probable space group: C M M M
;
_chemical_formula_sum "Si O2"
_cell_formula_units_Z 96
_cell_length_a 15.725107
_cell_length_b 16.885535
_cell_length_c 18.943047
_cell_angle_alpha 90.000000
_cell_angle_beta 90.000000
_cell_angle_gamma 90.000000
_cell_volume 5029.887498
_symmetry_space_group_name_H-M "C M M M"
_symmetry_group_IT_number 65
_symmetry_cell_setting 'orthorhombic'
loop_
_space_group_symop_operation_xyz
x,y,z
-x,-y,z
x,-y,-z
-x,y,-z
-x,-y,-z
x,y,-z
-x,y,z
x,-y,z
1/2+x,1/2+y,z
1/2-x,1/2-y,z
1/2+x,1/2-y,-z
1/2-x,1/2+y,-z
1/2-x,1/2-y,-z
1/2+x,1/2+y,-z
1/2-x,1/2+y,z
1/2+x,1/2-y,z
loop_
_atom_site_type_symbol
_atom_site_label
_atom_site_fract_x
_atom_site_fract_y
_atom_site_fract_z
Si Si1 0.194786 0.176819 0.189709
Si Si2 0.404381 0.228373 0.079508
Si Si3 0.358275 0.090072 0.178167
Si Si4 0.093439 0.644782 0.667270
Si Si5 0.746245 0.655581 0.420480
Si Si6 0.594663 0.332248 0.675951
O O1 0.250000 0.250000 0.223321
O O2 0.153903 0.205854 0.116684
O O3 0.256739 0.103484 0.174531
O O4 0.123696 0.148016 0.244473
O O5 0.500000 0.260936 0.079301
O O6 0.403319 0.145242 0.120651
O O7 0.370735 0.215707 0.000000
O O8 0.393130 0.109863 0.255384
O O9 0.379491 0.000000 0.158952
O O10 0.169799 0.617136 0.615712
O O11 0.092952 0.738709 0.668614
O O12 0.000000 0.615816 0.639917
O O13 0.740909 0.622762 0.500000
O O14 0.750000 0.750000 0.419999
O O15 0.661124 0.628520 0.378936
O O16 0.500000 0.367435 0.663049
#
# Coordination Sequence:
#
# PCOD8265172 Si02
#       6
#    16  16  16  16  16  16
#     4  10  17  32  54  75 105 139 183 227 265 316
#     4  10  21  36  56  83 110 140 182 228 274 326
#     4  11  22  34  52  79 113 147 182 224 273 328
#     4  10  18  30  49  74 104 140 179 217 264 324
#     4   9  17  29  45  73 109 139 172 222 281 330
#     4  10  16  27  51  77 101 135 176 224 274 318
#
# _framework density 19.085913999999999
#
# number of rings (size 3 to 8) (size 9 to 14) (size 15 to 20)
#    0.000    2.000    5.000    1.500    0.000    5.333 
#    0.000    4.167    0.000    2.500    0.000    2.333 
#    0.000    1.333    0.000    0.000    0.000    0.000 
#
# Total GULP energy -595014.896025 kJ/mol
# GULP energy per Si atom -12396.143667 kJ/mol
# Density = 1.904247 g / cm^3
# Si number density = 19.085914 Si / 1000 Ang^3
#
#
#
# Elastic Constant Matrix: (Units=GPa)
#
#
# Indices 1 2 3 4 5 6 
#
# 1 158.9156 17.3517 65.9987 0.0000 0.0000 0.0000
# 2 17.3517 25.8219 15.3259 0.0000 0.0000 0.0000
# 3 65.9987 15.3259 148.3574 0.0000 0.0000 0.0000
# 4 0.0000 0.0000 0.0000 1.3530 0.0000 0.0000
# 5 0.0000 0.0000 0.0000 0.0000 26.1266 0.0000
# 6 0.0000 0.0000 0.0000 0.0000 0.0000 7.8016
#
#
#
# Elastic Compliance Matrix: (Units=1/GPa)
#
#
# Indices 1 2 3 4 5 6 
#
# 1 0.008001 -0.003477 -0.003200 0.000000 0.000000 0.000000
# 2 -0.003477 0.042767 -0.002871 0.000000 0.000000 0.000000
# 3 -0.003200 -0.002871 0.008461 0.000000 0.000000 0.000000
# 4 0.000000 0.000000 0.000000 0.739124 0.000000 0.000000
# 5 0.000000 0.000000 0.000000 0.000000 0.038275 0.000000
# 6 0.000000 0.000000 0.000000 0.000000 0.000000 0.128178
#
#
# Mechanical properties :
#
#
# Convention : Reuss Voigt Hill
#
# Bulk Modulus (GPa) = 24.91765 58.93862 41.92813
# Shear Modulus (GPa) = 5.01363 22.68414 13.84889
#
# Velocity S-wave (km/s) = 1.62252 3.45124 2.69663
# Velocity P-wave (km/s) = 4.07357 6.84318 5.63130
#
# Compressibility (1/GPa) = 0.04013220
#
# Stress axis : x y z
#
# Youngs Moduli (GPa) = 124.97739 23.38225 118.19233
#
# Poissons Ratio (x) = 0.08131 0.37825
# Poissons Ratio (y) = 0.43459 0.33934
# Poissons Ratio (z) = 0.39997 0.06713
#
# Static dielectric constant tensor:
#      x y z
#    x 3.999590 0.000000 0.000000 
#    y 0.000000 2.924560 0.000000 
#    z 0.000000 0.000000 3.526020 
# 
# 
# High freq. dielectric constant tensor:
#      x y z
#    x 1.762990 0.000000 0.000000 
#    y 0.000000 1.676110 0.000000 
#    z 0.000000 0.000000 1.737400 
# 
# From -- ./inp_files/54496.got.cif
#   From: 2010.03.12/outbox.cif.g09.slc.cpg/sg65_28_cif.got.tgz:54496.got - 2010.04.10 20:52:16.
