data_PCOD8265283
_publ_section_title
;
Structure prediction by ZEFSAII (Michael W. Deem and Ramdas Pophale) SiO2 
 PCOD8265283
Probable space group: C M M M
;
_chemical_formula_sum "Si O2"
_cell_formula_units_Z 80
_cell_length_a 8.709071
_cell_length_b 18.776582
_cell_length_c 26.046496
_cell_angle_alpha 90.000000
_cell_angle_beta 90.000000
_cell_angle_gamma 90.000000
_cell_volume 4259.294562
_symmetry_space_group_name_H-M "C M M M"
_symmetry_group_IT_number 65
_symmetry_cell_setting 'orthorhombic'
loop_
_space_group_symop_operation_xyz
x,y,z
-x,-y,z
x,-y,-z
-x,y,-z
-x,-y,-z
x,y,-z
-x,y,z
x,-y,z
1/2+x,1/2+y,z
1/2-x,1/2-y,z
1/2+x,1/2-y,-z
1/2-x,1/2+y,-z
1/2-x,1/2-y,-z
1/2+x,1/2+y,-z
1/2-x,1/2+y,z
1/2+x,1/2-y,z
loop_
_atom_site_type_symbol
_atom_site_label
_atom_site_fract_x
_atom_site_fract_y
_atom_site_fract_z
Si Si1 0.319347 0.672231 0.740525
Si Si2 0.679068 0.672216 0.055661
Si Si3 0.318216 0.829013 0.155894
Si Si4 0.180216 0.676212 0.442780
Si Si5 0.821057 0.582711 0.348549
O O1 0.500000 0.680378 0.747216
O O2 0.250000 0.750000 0.729721
O O3 0.248440 0.636064 0.792141
O O4 0.281497 0.620299 0.694053
O O5 0.500000 0.678810 0.067941
O O6 0.750000 0.750000 0.051625
O O7 0.760604 0.631013 0.103551
O O8 0.705768 0.633713 0.000000
O O9 0.500000 0.829051 0.158198
O O10 0.250000 0.750000 0.153954
O O11 0.242710 0.657706 0.500000
O O12 0.250000 0.750000 0.422335
O O13 0.226717 0.613273 0.404156
O O14 0.000000 0.686468 0.444261
O O15 0.781029 0.500000 0.348826
O O16 0.000000 0.596932 0.336897
#
# Coordination Sequence:
#
# PCOD8265283 Si02
#       5
#    16  16  16  16  16
#     4  11  21  34  52  72  97 129 169 212 255 304
#     4   9  15  22  33  52  82 119 156 194 240 294
#     4  10  17  26  41  61  87 119 159 203 248 297
#     4   9  18  33  54  79 105 135 170 206 245 291
#     4  10  21  36  53  75 104 135 168 208 253 300
#
# _framework density 18.782451999999999
#
# number of rings (size 3 to 8) (size 9 to 14) (size 15 to 20)
#    0.000    2.200    0.000    7.200    0.000    4.400 
#    0.000    2.000    0.000    0.000    0.000    4.200 
#    0.000    0.800    0.000    8.400    0.000    7.000 
#
# Total GULP energy -495733.492829 kJ/mol
# GULP energy per Si atom -12393.337321 kJ/mol
# Density = 1.873970 g / cm^3
# Si number density = 18.782452 Si / 1000 Ang^3
#
#
#
# Elastic Constant Matrix: (Units=GPa)
#
#
# Indices 1 2 3 4 5 6 
#
# 1 127.9965 32.5820 66.6621 0.0000 0.0000 0.0000
# 2 32.5820 63.8793 53.2356 0.0000 0.0000 0.0000
# 3 66.6621 53.2356 163.5640 0.0000 0.0000 0.0000
# 4 0.0000 0.0000 0.0000 -3.2219 0.0000 0.0000
# 5 0.0000 0.0000 0.0000 0.0000 31.5479 0.0000
# 6 0.0000 0.0000 0.0000 0.0000 0.0000 16.7993
#
#
#
# Elastic Compliance Matrix: (Units=1/GPa)
#
#
# Indices 1 2 3 4 5 6 
#
# 1 0.010175 -0.002379 -0.003372 0.000000 0.000000 0.000000
# 2 -0.002379 0.022037 -0.006203 0.000000 0.000000 0.000000
# 3 -0.003372 -0.006203 0.009507 0.000000 0.000000 0.000000
# 4 0.000000 0.000000 0.000000 -0.310374 0.000000 0.000000
# 5 0.000000 0.000000 0.000000 0.000000 0.031698 0.000000
# 6 0.000000 0.000000 0.000000 0.000000 0.000000 0.059526
#
#
# Mechanical properties :
#
#
# Convention : Reuss Voigt Hill
#
# Bulk Modulus (GPa) = 56.14743 73.37769 64.76256
# Shear Modulus (GPa) = -33.87881 22.55572 -5.66154
#
# Velocity S-wave (km/s) = -4.25166 3.46915 -1.73805
# Velocity P-wave (km/s) = 2.41997 7.42958 5.52517
#
# Compressibility (1/GPa) = 0.01781025
#
# Stress axis : x y z
#
# Youngs Moduli (GPa) = 98.28244 45.37742 105.18361
#
# Poissons Ratio (x) = 0.10796 0.35473
# Poissons Ratio (y) = 0.23383 0.65245
# Poissons Ratio (z) = 0.33146 0.28147
#
# Static dielectric constant tensor:
#      x y z
#    x 3.445980 0.000000 0.000000 
#    y 0.000000 2.726340 0.000000 
#    z 0.000000 0.000000 4.769770 
# 
# 
# High freq. dielectric constant tensor:
#      x y z
#    x 1.736980 0.000000 0.000000 
#    y 0.000000 1.657090 0.000000 
#    z 0.000000 0.000000 1.764120 
# 
# From -- ./inp_files/72846.got.cif
#   From: 2010.03.12/outbox.cif.g09.slc.cpg/sg65_37_cif.got.tgz:72846.got - 2010.04.10 20:52:16.
