data_PCOD8265645
_publ_section_title
;
Structure prediction by ZEFSAII (Michael W. Deem and Ramdas Pophale) SiO2 
 PCOD8265645
Probable space group: C M M M
;
_chemical_formula_sum "Si O2"
_cell_formula_units_Z 112
_cell_length_a 37.177983
_cell_length_b 14.950994
_cell_length_c 13.910790
_cell_angle_alpha 90.000000
_cell_angle_beta 90.000000
_cell_angle_gamma 90.000000
_cell_volume 7732.282028
_symmetry_space_group_name_H-M "C M M M"
_symmetry_group_IT_number 65
_symmetry_cell_setting 'orthorhombic'
loop_
_space_group_symop_operation_xyz
x,y,z
-x,-y,z
x,-y,-z
-x,y,-z
-x,-y,-z
x,y,-z
-x,y,z
x,-y,z
1/2+x,1/2+y,z
1/2-x,1/2-y,z
1/2+x,1/2-y,-z
1/2-x,1/2+y,-z
1/2-x,1/2-y,-z
1/2+x,1/2+y,-z
1/2-x,1/2+y,z
1/2+x,1/2-y,z
loop_
_atom_site_type_symbol
_atom_site_label
_atom_site_fract_x
_atom_site_fract_y
_atom_site_fract_z
Si Si1 0.610503 0.605193 0.206148
Si Si2 0.734647 0.598169 0.807839
Si Si3 0.848478 0.103169 0.606322
Si Si4 0.269737 0.655944 0.605597
Si Si5 0.171469 0.787471 0.887555
Si Si6 0.311211 0.903011 0.111722
Si Si7 0.039484 0.105985 0.892173
O O1 0.615008 0.500000 0.185926
O O2 0.621174 0.629785 0.315707
O O3 0.635497 0.658065 0.132114
O O4 0.569754 0.637647 0.184090
O O5 0.719481 0.500000 0.834125
O O6 0.745345 0.598592 0.694438
O O7 0.704423 0.670997 0.828568
O O8 0.769563 0.619283 0.870015
O O9 0.865325 0.116946 0.500000
O O10 0.813119 0.164556 0.619208
O O11 0.836502 0.000000 0.621579
O O12 0.262383 0.611616 0.500000
O O13 0.250000 0.750000 0.609684
O O14 0.166339 0.683729 0.852451
O O15 0.180799 0.791639 0.000000
O O16 0.321835 0.000000 0.160173
O O17 0.317591 0.913866 0.000000
O O18 0.000000 0.142596 0.860447
O O19 0.038270 0.000000 0.893987
O O20 0.048688 0.140692 0.000000
#
# Coordination Sequence:
#
# PCOD8265645 Si02
#       7
#    16  16  16  16  16  16  16
#     4  10  18  27  41  63  86 107 132 164 201 241
#     4  11  20  29  41  57  78 104 131 165 209 250
#     4   9  17  29  42  56  77 105 137 173 213 249
#     4  10  19  29  41  55  72 100 140 179 211 244
#     4  11  20  28  41  60  80 101 131 170 204 237
#     4   9  19  33  44  54  73 104 137 166 202 248
#     4   8  14  25  40  58  84 116 140 157 186 233
#
# _framework density 14.484728
#
# number of rings (size 3 to 8) (size 9 to 14) (size 15 to 20)
#    0.000    2.286    1.429    3.429    0.000    4.286 
#    0.000    0.000    0.000    0.429    0.000    3.000 
#    0.000    0.571    0.000    5.286    0.000    0.143 
#
# Total GULP energy -693766.109073 kJ/mol
# GULP energy per Si atom -12388.680519 kJ/mol
# Density = 1.445176 g / cm^3
# Si number density = 14.484728 Si / 1000 Ang^3
#
#
#
# Elastic Constant Matrix: (Units=GPa)
#
#
# Indices 1 2 3 4 5 6 
#
# 1 76.9187 34.8081 28.3206 0.0000 0.0000 0.0000
# 2 34.8081 63.1004 29.2000 0.0000 0.0000 0.0000
# 3 28.3206 29.2000 59.2602 0.0000 0.0000 0.0000
# 4 0.0000 0.0000 0.0000 14.6289 0.0000 0.0000
# 5 0.0000 0.0000 0.0000 0.0000 17.0640 0.0000
# 6 0.0000 0.0000 0.0000 0.0000 0.0000 4.3882
#
#
#
# Elastic Compliance Matrix: (Units=1/GPa)
#
#
# Indices 1 2 3 4 5 6 
#
# 1 0.018363 -0.007861 -0.004902 0.000000 0.000000 0.000000
# 2 -0.007861 0.023894 -0.008017 0.000000 0.000000 0.000000
# 3 -0.004902 -0.008017 0.023168 0.000000 0.000000 0.000000
# 4 0.000000 0.000000 0.000000 0.068358 0.000000 0.000000
# 5 0.000000 0.000000 0.000000 0.000000 0.058603 0.000000
# 6 0.000000 0.000000 0.000000 0.000000 0.000000 0.227885
#
#
# Mechanical properties :
#
#
# Convention : Reuss Voigt Hill
#
# Bulk Modulus (GPa) = 41.90310 42.65964 42.28137
# Shear Modulus (GPa) = 10.64315 14.34625 12.49470
#
# Velocity S-wave (km/s) = 2.71363 3.15054 2.94021
# Velocity P-wave (km/s) = 6.22980 6.53834 6.38593
#
# Compressibility (1/GPa) = 0.02386458
#
# Stress axis : x y z
#
# Youngs Moduli (GPa) = 54.45705 41.85164 43.16353
#
# Poissons Ratio (x) = 0.32900 0.21160
# Poissons Ratio (y) = 0.42809 0.34603
# Poissons Ratio (z) = 0.26696 0.33551
#
# Static dielectric constant tensor:
#      x y z
#    x 2.767700 0.000000 0.000000 
#    y 0.000000 2.932520 0.000000 
#    z 0.000000 0.000000 3.053970 
# 
# 
# High freq. dielectric constant tensor:
#      x y z
#    x 1.515820 0.000000 0.000000 
#    y 0.000000 1.531760 0.000000 
#    z 0.000000 0.000000 1.560140 
# 
# From -- ./inp_files/47974.got.cif
#   From: 2010.03.12/outbox.cif.g09.slc.cpg/sg65_24_cif.got.tgz:47974.got - 2010.04.10 20:52:16.
