data_PCOD8265234
_publ_section_title
;
Structure prediction by ZEFSAII (Michael W. Deem and Ramdas Pophale) SiO2 
 PCOD8265234
Probable space group: C M M M
;
_chemical_formula_sum "Si O2"
_cell_formula_units_Z 104
_cell_length_a 28.760510
_cell_length_b 8.802307
_cell_length_c 26.222520
_cell_angle_alpha 90.000000
_cell_angle_beta 90.000000
_cell_angle_gamma 90.000000
_cell_volume 6638.462706
_symmetry_space_group_name_H-M "C M M M"
_symmetry_group_IT_number 65
_symmetry_cell_setting 'orthorhombic'
loop_
_space_group_symop_operation_xyz
x,y,z
-x,-y,z
x,-y,-z
-x,y,-z
-x,-y,-z
x,y,-z
-x,y,z
x,-y,z
1/2+x,1/2+y,z
1/2-x,1/2-y,z
1/2+x,1/2-y,-z
1/2-x,1/2+y,-z
1/2-x,1/2-y,-z
1/2+x,1/2+y,-z
1/2-x,1/2+y,z
1/2+x,1/2-y,z
loop_
_atom_site_type_symbol
_atom_site_label
_atom_site_fract_x
_atom_site_fract_y
_atom_site_fract_z
Si Si1 0.363317 0.821373 0.851961
Si Si2 0.055044 0.668965 0.000000
Si Si3 0.698560 0.680681 0.654163
Si Si4 0.700807 0.178264 0.942868
Si Si5 0.552704 0.678970 0.103928
Si Si6 0.300424 0.177176 0.555353
Si Si7 0.800650 0.680145 0.756636
O O1 0.336142 0.761576 0.901895
O O2 0.413705 0.740281 0.851347
O O3 0.334747 0.773044 0.802193
O O4 0.371573 0.000000 0.853576
O O5 0.071793 0.754928 0.050503
O O6 0.077293 0.500000 0.000000
O O7 0.000000 0.660252 0.000000
O O8 0.698808 0.500000 0.656329
O O9 0.750000 0.750000 0.652195
O O10 0.672499 0.739452 0.602348
O O11 0.675857 0.748794 0.705563
O O12 0.750000 0.250000 0.929542
O O13 0.707270 0.000000 0.937280
O O14 0.684177 0.223442 0.000000
O O15 0.500000 0.733765 0.115329
O O16 0.554910 0.500000 0.100662
O O17 0.325688 0.200427 0.500000
O O18 0.250000 0.250000 0.550904
O O19 0.295545 0.000000 0.568284
O O20 0.795406 0.500000 0.750897
O O21 0.750000 0.750000 0.767459
#
# Coordination Sequence:
#
# PCOD8265234 Si02
#       7
#    16   8  16  16  16  16  16
#     4  10  21  33  48  68  86 112 144 175 212 257
#     4   9  17  31  51  69  86 109 132 157 195 245
#     4  10  17  25  38  54  75 105 140 177 219 256
#     4   9  18  32  47  64  86 109 136 170 207 251
#     4  10  21  35  50  70  93 112 135 170 209 253
#     4   9  15  22  33  50  73 101 134 173 215 254
#     4  10  19  31  45  62  85 111 147 186 219 256
#
# _framework density 15.666276999999999
#
# number of rings (size 3 to 8) (size 9 to 14) (size 15 to 20)
#    0.000    2.385    0.000    5.308    1.077    4.615 
#    0.000    0.000    0.000    0.000    0.000    0.000 
#    0.000    0.000    0.000    0.000    0.000    0.769 
#
# Total GULP energy -644467.879059 kJ/mol
# GULP energy per Si atom -12393.613059 kJ/mol
# Density = 1.563062 g / cm^3
# Si number density = 15.666277 Si / 1000 Ang^3
#
#
#
# Elastic Constant Matrix: (Units=GPa)
#
#
# Indices 1 2 3 4 5 6 
#
# 1 53.9123 29.1769 52.5432 0.0000 0.0000 0.0000
# 2 29.1769 81.7432 52.4703 0.0000 0.0000 0.0000
# 3 52.5432 52.4703 136.2480 0.0000 0.0000 0.0000
# 4 0.0000 0.0000 0.0000 25.3941 0.0000 0.0000
# 5 0.0000 0.0000 0.0000 0.0000 5.6224 0.0000
# 6 0.0000 0.0000 0.0000 0.0000 0.0000 18.4032
#
#
#
# Elastic Compliance Matrix: (Units=1/GPa)
#
#
# Indices 1 2 3 4 5 6 
#
# 1 0.030912 -0.004492 -0.010191 0.000000 0.000000 0.000000
# 2 -0.004492 0.016903 -0.004777 0.000000 0.000000 0.000000
# 3 -0.010191 -0.004777 0.013109 0.000000 0.000000 0.000000
# 4 0.000000 0.000000 0.000000 0.039379 0.000000 0.000000
# 5 0.000000 0.000000 0.000000 0.000000 0.177861 0.000000
# 6 0.000000 0.000000 0.000000 0.000000 0.000000 0.054338
#
#
# Mechanical properties :
#
#
# Convention : Reuss Voigt Hill
#
# Bulk Modulus (GPa) = 45.44629 60.03160 52.73895
# Shear Modulus (GPa) = 13.20102 19.06480 16.13291
#
# Velocity S-wave (km/s) = 2.90597 3.49224 3.21251
# Velocity P-wave (km/s) = 6.35071 7.39345 6.89183
#
# Compressibility (1/GPa) = 0.02200400
#
# Stress axis : x y z
#
# Youngs Moduli (GPa) = 32.34990 59.16008 76.28060
#
# Poissons Ratio (x) = 0.26574 0.77739
# Poissons Ratio (y) = 0.14531 0.36442
# Poissons Ratio (z) = 0.32968 0.28263
#
# Static dielectric constant tensor:
#      x y z
#    x 5.038000 0.000000 0.000000 
#    y 0.000000 3.064210 0.000000 
#    z 0.000000 0.000000 3.856530 
# 
# 
# High freq. dielectric constant tensor:
#      x y z
#    x 1.541550 0.000000 0.000000 
#    y 0.000000 1.614970 0.000000 
#    z 0.000000 0.000000 1.607120 
# 
# From -- ./inp_files/76250.got.cif
#   From: 2010.03.12/outbox.cif.g09.slc.cpg/sg65_39_cif.got.tgz:76250.got - 2010.04.10 20:52:16.
