data_PCOD8265914
_publ_section_title
;
Structure prediction by ZEFSAII (Michael W. Deem and Ramdas Pophale) SiO2 
 PCOD8265914
Probable space group: C M M M
;
_chemical_formula_sum "Si O2"
_cell_formula_units_Z 128
_cell_length_a 18.685377
_cell_length_b 25.082292
_cell_length_c 17.655087
_cell_angle_alpha 90.000000
_cell_angle_beta 90.000000
_cell_angle_gamma 90.000000
_cell_volume 8274.446383
_symmetry_space_group_name_H-M "C M M M"
_symmetry_group_IT_number 65
_symmetry_cell_setting 'orthorhombic'
loop_
_space_group_symop_operation_xyz
x,y,z
-x,-y,z
x,-y,-z
-x,y,-z
-x,-y,-z
x,y,-z
-x,y,z
x,-y,z
1/2+x,1/2+y,z
1/2-x,1/2-y,z
1/2+x,1/2-y,-z
1/2-x,1/2+y,-z
1/2-x,1/2-y,-z
1/2+x,1/2+y,-z
1/2-x,1/2+y,z
1/2+x,1/2-y,z
loop_
_atom_site_type_symbol
_atom_site_label
_atom_site_fract_x
_atom_site_fract_y
_atom_site_fract_z
Si Si1 0.826034 0.882047 0.196299
Si Si2 0.080138 0.380361 0.085510
Si Si3 0.220192 0.438642 0.086016
Si Si4 0.677904 0.720845 0.295861
Si Si5 0.582562 0.777538 0.820487
Si Si6 0.918568 0.060402 0.685315
Si Si7 0.582392 0.339161 0.412733
Si Si8 0.416829 0.322580 0.917273
O O1 0.758846 0.904128 0.150147
O O2 0.802595 0.829730 0.243183
O O3 0.861191 0.926772 0.249505
O O4 0.886643 0.868045 0.136239
O O5 0.135294 0.428828 0.095348
O O6 0.101092 0.334976 0.145604
O O7 0.000000 0.401802 0.101791
O O8 0.084259 0.356814 0.000000
O O9 0.236716 0.500000 0.101675
O O10 0.244198 0.423164 0.000000
O O11 0.750000 0.750000 0.323395
O O12 0.631034 0.764883 0.251966
O O13 0.632950 0.701773 0.368240
O O14 0.500000 0.773217 0.795320
O O15 0.600547 0.735803 0.886263
O O16 0.905851 0.100272 0.615297
O O17 0.000000 0.067285 0.716108
O O18 0.905532 0.000000 0.657085
O O19 0.604481 0.336840 0.500000
O O20 0.500000 0.321902 0.400149
O O21 0.500000 0.333229 0.922384
O O22 0.381137 0.326912 0.000000
#
# Coordination Sequence:
#
# PCOD8265914 Si02
#       8
#    16  16  16  16  16  16  16  16
#     4  10  18  29  42  58  84 112 140 172 204 239
#     4   9  17  29  44  60  78 101 133 176 220 256
#     4  10  20  31  42  56  76 106 142 178 216 252
#     4  10  19  29  44  65  87 112 138 163 194 237
#     4   9  16  27  43  62  84 108 135 168 206 246
#     4   9  17  29  46  66  85 108 138 169 201 235
#     4   9  18  32  48  66  88 111 134 162 197 237
#     4   9  16  25  39  59  82 110 142 173 205 240
#
# _framework density 15.469313
#
# number of rings (size 3 to 8) (size 9 to 14) (size 15 to 20)
#    0.000    2.625    0.000    2.625    0.000    5.250 
#    0.000    2.500    0.000    6.000    0.000    5.250 
#    0.000    0.000    0.000    0.000    0.000    0.000 
#
# Total GULP energy -793368.548680 kJ/mol
# GULP energy per Si atom -12396.383573 kJ/mol
# Density = 1.543410 g / cm^3
# Si number density = 15.469313 Si / 1000 Ang^3
#
#
#
# Elastic Constant Matrix: (Units=GPa)
#
#
# Indices 1 2 3 4 5 6 
#
# 1 69.7080 31.8293 47.9951 0.0000 0.0000 0.0000
# 2 31.8293 50.8586 33.5247 0.0000 0.0000 0.0000
# 3 47.9951 33.5247 97.5313 0.0000 0.0000 0.0000
# 4 0.0000 0.0000 0.0000 10.9491 0.0000 0.0000
# 5 0.0000 0.0000 0.0000 0.0000 20.9064 0.0000
# 6 0.0000 0.0000 0.0000 0.0000 0.0000 23.1065
#
#
#
# Elastic Compliance Matrix: (Units=1/GPa)
#
#
# Indices 1 2 3 4 5 6 
#
# 1 0.024929 -0.009717 -0.008928 0.000000 0.000000 0.000000
# 2 -0.009717 0.029210 -0.005259 0.000000 0.000000 0.000000
# 3 -0.008928 -0.005259 0.016454 0.000000 0.000000 0.000000
# 4 0.000000 0.000000 0.000000 0.091331 0.000000 0.000000
# 5 0.000000 0.000000 0.000000 0.000000 0.047832 0.000000
# 6 0.000000 0.000000 0.000000 0.000000 0.000000 0.043278
#
#
# Mechanical properties :
#
#
# Convention : Reuss Voigt Hill
#
# Bulk Modulus (GPa) = 43.88523 49.42179 46.65351
# Shear Modulus (GPa) = 16.21079 17.97567 17.09323
#
# Velocity S-wave (km/s) = 3.24069 3.41254 3.32773
# Velocity P-wave (km/s) = 6.51411 6.89528 6.70740
#
# Compressibility (1/GPa) = 0.02278671
#
# Stress axis : x y z
#
# Youngs Moduli (GPa) = 40.11367 34.23488 60.77539
#
# Poissons Ratio (x) = 0.33265 0.54258
# Poissons Ratio (y) = 0.38978 0.31960
# Poissons Ratio (z) = 0.35812 0.18003
#
# Static dielectric constant tensor:
#      x y z
#    x 2.926140 0.000000 0.000000 
#    y 0.000000 2.839950 0.000000 
#    z 0.000000 0.000000 3.072200 
# 
# 
# High freq. dielectric constant tensor:
#      x y z
#    x 1.589970 0.000000 0.000000 
#    y 0.000000 1.584100 0.000000 
#    z 0.000000 0.000000 1.577340 
# 
# From -- ./inp_files/55087.got.cif
#   From: 2010.03.12/outbox.cif.g09.slc.cpg/sg65_28_cif.got.tgz:55087.got - 2010.04.10 20:52:16.
