data_PCOD8265816
_publ_section_title
;
Structure prediction by ZEFSAII (Michael W. Deem and Ramdas Pophale) SiO2 
 PCOD8265816
Probable space group: C M M M
;
_chemical_formula_sum "Si O2"
_cell_formula_units_Z 120
_cell_length_a 22.639540
_cell_length_b 26.424252
_cell_length_c 11.731911
_cell_angle_alpha 90.000000
_cell_angle_beta 90.000000
_cell_angle_gamma 90.000000
_cell_volume 7018.415259
_symmetry_space_group_name_H-M "C M M M"
_symmetry_group_IT_number 65
_symmetry_cell_setting 'orthorhombic'
loop_
_space_group_symop_operation_xyz
x,y,z
-x,-y,z
x,-y,-z
-x,y,-z
-x,-y,-z
x,y,-z
-x,y,z
x,-y,z
1/2+x,1/2+y,z
1/2-x,1/2-y,z
1/2+x,1/2-y,-z
1/2-x,1/2+y,-z
1/2-x,1/2-y,-z
1/2+x,1/2+y,-z
1/2-x,1/2+y,z
1/2+x,1/2-y,z
loop_
_atom_site_type_symbol
_atom_site_label
_atom_site_fract_x
_atom_site_fract_y
_atom_site_fract_z
Si Si1 0.246421 0.121846 0.199872
Si Si2 0.329066 0.441275 0.365815
Si Si3 0.830249 0.705275 0.866489
Si Si4 0.430734 0.444909 0.000000
Si Si5 0.650994 0.054780 0.869320
Si Si6 0.069285 0.891901 0.233811
Si Si7 0.435204 0.862417 0.133383
Si Si8 0.141880 0.816365 0.872608
O O1 0.221807 0.095568 0.315158
O O2 0.287619 0.172070 0.215684
O O3 0.284337 0.079515 0.135833
O O4 0.190811 0.139318 0.125083
O O5 0.323789 0.436675 0.500000
O O6 0.321286 0.500000 0.327010
O O7 0.394424 0.421532 0.330508
O O8 0.898135 0.688668 0.846115
O O9 0.827270 0.764158 0.831862
O O10 0.811977 0.696606 0.000000
O O11 0.411914 0.415612 0.112775
O O12 0.399856 0.500000 0.000000
O O13 0.500000 0.452008 0.000000
O O14 0.601188 0.090511 0.811698
O O15 0.650761 0.000000 0.807589
O O16 0.634694 0.047581 0.000000
O O17 0.090338 0.833259 0.216828
O O18 0.000000 0.895139 0.263290
O O19 0.500000 0.857862 0.190902
O O20 0.442419 0.872067 0.000000
O O21 0.115837 0.808839 0.000000
#
# Coordination Sequence:
#
# PCOD8265816 Si02
#       8
#    16  16  16   8  16  16  16  16
#     4  10  18  30  47  65  90 119 156 201 243 284
#     4  10  22  38  54  72  93 123 167 214 257 304
#     4   9  17  28  45  69  98 132 163 194 234 286
#     4   9  16  28  46  68  97 128 156 192 243 298
#     4   9  16  25  39  61  89 119 148 181 227 283
#     4  10  20  33  50  73 102 132 164 204 248 296
#     4   8  14  24  36  55  86 122 157 185 212 257
#     4  10  18  28  45  69  98 130 162 194 233 285
#
# _framework density 17.097877
#
# number of rings (size 3 to 8) (size 9 to 14) (size 15 to 20)
#    0.000    2.600    0.667    3.200    0.000    2.933 
#    0.000    3.333    0.000    6.400    0.000    0.000 
#    0.000    8.533    0.000   29.333    0.000    0.533 
#
# Total GULP energy -743287.883440 kJ/mol
# GULP energy per Si atom -12388.131391 kJ/mol
# Density = 1.705896 g / cm^3
# Si number density = 17.097877 Si / 1000 Ang^3
#
#
#
# Elastic Constant Matrix: (Units=GPa)
#
#
# Indices 1 2 3 4 5 6 
#
# 1 106.6454 42.8290 21.8814 0.0000 0.0000 0.0000
# 2 42.8290 109.1603 33.1995 0.0000 0.0000 0.0000
# 3 21.8814 33.1995 42.2748 0.0000 0.0000 0.0000
# 4 0.0000 0.0000 0.0000 18.3674 0.0000 0.0000
# 5 0.0000 0.0000 0.0000 0.0000 13.7289 0.0000
# 6 0.0000 0.0000 0.0000 0.0000 0.0000 19.8530
#
#
#
# Elastic Compliance Matrix: (Units=1/GPa)
#
#
# Indices 1 2 3 4 5 6 
#
# 1 0.011441 -0.003531 -0.003149 0.000000 0.000000 0.000000
# 2 -0.003531 0.013125 -0.008480 0.000000 0.000000 0.000000
# 3 -0.003149 -0.008480 0.031944 0.000000 0.000000 0.000000
# 4 0.000000 0.000000 0.000000 0.054444 0.000000 0.000000
# 5 0.000000 0.000000 0.000000 0.000000 0.072839 0.000000
# 6 0.000000 0.000000 0.000000 0.000000 0.000000 0.050370
#
#
# Mechanical properties :
#
#
# Convention : Reuss Voigt Hill
#
# Bulk Modulus (GPa) = 38.18149 50.43336 44.30742
# Shear Modulus (GPa) = 18.30069 21.06791 19.68430
#
# Velocity S-wave (km/s) = 3.27517 3.51407 3.39672
# Velocity P-wave (km/s) = 6.05656 6.78423 6.43070
#
# Compressibility (1/GPa) = 0.02619070
#
# Stress axis : x y z
#
# Youngs Moduli (GPa) = 87.40428 76.18832 31.30482
#
# Poissons Ratio (x) = 0.26904 0.09857
# Poissons Ratio (y) = 0.30865 0.26546
# Poissons Ratio (z) = 0.27521 0.64607
#
# Static dielectric constant tensor:
#      x y z
#    x 3.348940 0.000000 0.000000 
#    y 0.000000 3.572640 0.000000 
#    z 0.000000 0.000000 2.632600 
# 
# 
# High freq. dielectric constant tensor:
#      x y z
#    x 1.666250 0.000000 0.000000 
#    y 0.000000 1.676250 0.000000 
#    z 0.000000 0.000000 1.583120 
# 
# From -- ./inp_files/29694.got.cif
#   From: 2010.03.12/outbox.cif.g09.slc.cpg/sg65_15_cif.got.tgz:29694.got - 2010.04.10 20:52:16.
