data_PCOD8265142
_publ_section_title
;
Structure prediction by ZEFSAII (Michael W. Deem and Ramdas Pophale) SiO2 
 PCOD8265142
Probable space group: C M M M
;
_chemical_formula_sum "Si O2"
_cell_formula_units_Z 104
_cell_length_a 19.211165
_cell_length_b 8.596162
_cell_length_c 34.098857
_cell_angle_alpha 90.000000
_cell_angle_beta 90.000000
_cell_angle_gamma 90.000000
_cell_volume 5631.163214
_symmetry_space_group_name_H-M "C M M M"
_symmetry_group_IT_number 65
_symmetry_cell_setting 'orthorhombic'
loop_
_space_group_symop_operation_xyz
x,y,z
-x,-y,z
x,-y,-z
-x,y,-z
-x,-y,-z
x,y,-z
-x,y,z
x,-y,z
1/2+x,1/2+y,z
1/2-x,1/2-y,z
1/2+x,1/2-y,-z
1/2-x,1/2+y,-z
1/2-x,1/2-y,-z
1/2+x,1/2+y,-z
1/2-x,1/2+y,z
1/2+x,1/2-y,z
loop_
_atom_site_type_symbol
_atom_site_label
_atom_site_fract_x
_atom_site_fract_y
_atom_site_fract_z
Si Si1 0.826081 0.682611 0.958645
Si Si2 0.581063 0.820250 0.723698
Si Si3 0.672120 0.683923 0.500000
Si Si4 0.826055 0.818026 0.342154
Si Si5 0.080045 0.819715 0.194399
Si Si6 0.827504 0.683926 0.421505
Si Si7 0.327445 0.184557 0.873576
O O1 0.818267 0.500000 0.958357
O O2 0.750000 0.750000 0.959693
O O3 0.859850 0.730627 0.916775
O O4 0.864909 0.733881 0.000000
O O5 0.500000 0.782524 0.717587
O O6 0.624093 0.713990 0.694196
O O7 0.604032 0.777335 0.767679
O O8 0.598154 0.000000 0.715829
O O9 0.672912 0.500000 0.500000
O O10 0.750000 0.750000 0.500000
O O11 0.634263 0.746556 0.460367
O O12 0.750000 0.750000 0.333130
O O13 0.862107 0.740656 0.380832
O O14 0.818439 0.000000 0.349496
O O15 0.124038 0.766598 0.157546
O O16 0.000000 0.785088 0.184512
O O17 0.093140 0.000000 0.203312
O O18 0.828005 0.500000 0.424332
O O19 0.750000 0.750000 0.420070
O O20 0.250000 0.250000 0.868913
O O21 0.326869 0.000000 0.866819
#
# Coordination Sequence:
#
# PCOD8265142 Si02
#       7
#    16  16   8  16  16  16  16
#     4   8  14  25  42  66  96 128 161 198 240 286
#     4  10  21  38  58  78 100 128 165 206 249 301
#     4  10  16  24  38  60  91 128 167 204 247 296
#     4  11  21  34  52  76 106 136 168 207 253 299
#     4  10  21  37  55  74  98 129 165 205 249 297
#     4  10  17  27  42  64  95 130 167 205 249 296
#     4  10  19  31  50  76 104 132 165 205 248 294
#
# _framework density 18.468653
#
# number of rings (size 3 to 8) (size 9 to 14) (size 15 to 20)
#    0.000    2.154    0.000    6.692    0.000    3.077 
#    0.000    3.077    0.000    0.462    0.000    3.769 
#    0.000    4.308    0.000    0.000    0.000    0.000 
#
# Total GULP energy -644310.628898 kJ/mol
# GULP energy per Si atom -12390.589017 kJ/mol
# Density = 1.842662 g / cm^3
# Si number density = 18.468653 Si / 1000 Ang^3
#
#
#
# Elastic Constant Matrix: (Units=GPa)
#
#
# Indices 1 2 3 4 5 6 
#
# 1 38.0600 22.7865 48.5481 0.0000 0.0000 0.0000
# 2 22.7865 105.1646 41.0751 0.0000 0.0000 0.0000
# 3 48.5481 41.0751 164.2244 0.0000 0.0000 0.0000
# 4 0.0000 0.0000 0.0000 29.8042 0.0000 0.0000
# 5 0.0000 0.0000 0.0000 0.0000 -5.9662 0.0000
# 6 0.0000 0.0000 0.0000 0.0000 0.0000 20.3134
#
#
#
# Elastic Compliance Matrix: (Units=1/GPa)
#
#
# Indices 1 2 3 4 5 6 
#
# 1 0.044416 -0.004982 -0.011884 0.000000 0.000000 0.000000
# 2 -0.004982 0.011097 -0.001303 0.000000 0.000000 0.000000
# 3 -0.011884 -0.001303 0.009928 0.000000 0.000000 0.000000
# 4 0.000000 0.000000 0.000000 0.033552 0.000000 0.000000
# 5 0.000000 0.000000 0.000000 0.000000 -0.167610 0.000000
# 6 0.000000 0.000000 0.000000 0.000000 0.000000 0.049229
#
#
# Mechanical properties :
#
#
# Convention : Reuss Voigt Hill
#
# Bulk Modulus (GPa) = 34.36013 59.14093 46.75053
# Shear Modulus (GPa) = 187.60353 21.83289 104.71821
#
# Velocity S-wave (km/s) = 10.08960 3.44198 7.53814
# Velocity P-wave (km/s) = 12.42490 6.92013 10.05650
#
# Compressibility (1/GPa) = 0.02910350
#
# Stress axis : x y z
#
# Youngs Moduli (GPa) = 22.51426 90.11252 100.72211
#
# Poissons Ratio (x) = 0.44895 1.19701
# Poissons Ratio (y) = 0.11217 0.13122
# Poissons Ratio (z) = 0.26757 0.11740
#
# Static dielectric constant tensor:
#      x y z
#    x 2.929460 0.000000 0.000000 
#    y 0.000000 3.588360 0.000000 
#    z 0.000000 0.000000 4.515330 
# 
# 
# High freq. dielectric constant tensor:
#      x y z
#    x 1.649640 0.000000 0.000000 
#    y 0.000000 1.733490 0.000000 
#    z 0.000000 0.000000 1.751220 
# 
# From -- ./inp_files/78222.got.cif
#   From: 2010.03.12/outbox.cif.g09.slc.cpg/sg65_40_cif.got.tgz:78222.got - 2010.04.10 20:52:16.
