data_PCOD8265684
_publ_section_title
;
Structure prediction by ZEFSAII (Michael W. Deem and Ramdas Pophale) SiO2 
 PCOD8265684
Probable space group: C M M M
;
_chemical_formula_sum "Si O2"
_cell_formula_units_Z 88
_cell_length_a 15.745586
_cell_length_b 16.987473
_cell_length_c 16.259407
_cell_angle_alpha 90.000000
_cell_angle_beta 90.000000
_cell_angle_gamma 90.000000
_cell_volume 4349.029065
_symmetry_space_group_name_H-M "C M M M"
_symmetry_group_IT_number 65
_symmetry_cell_setting 'orthorhombic'
loop_
_space_group_symop_operation_xyz
x,y,z
-x,-y,z
x,-y,-z
-x,y,-z
-x,-y,-z
x,y,-z
-x,y,z
x,-y,z
1/2+x,1/2+y,z
1/2-x,1/2-y,z
1/2+x,1/2-y,-z
1/2-x,1/2+y,-z
1/2-x,1/2-y,-z
1/2+x,1/2+y,-z
1/2-x,1/2+y,z
1/2+x,1/2-y,z
loop_
_atom_site_type_symbol
_atom_site_label
_atom_site_fract_x
_atom_site_fract_y
_atom_site_fract_z
Si Si1 0.098726 0.000000 0.907038
Si Si2 0.170388 0.410648 0.000000
Si Si3 0.697260 0.356331 0.127752
Si Si4 0.906263 0.658215 0.406596
Si Si5 0.251807 0.662221 0.310421
Si Si6 0.907385 0.155081 0.407055
Si Si7 0.098929 0.752573 0.000000
O O1 0.126200 0.922544 0.857650
O O2 0.000000 0.000000 0.915156
O O3 0.138589 0.000000 0.000000
O O4 0.227018 0.397862 0.920190
O O5 0.097832 0.342598 0.000000
O O6 0.132146 0.500000 0.000000
O O7 0.738979 0.330644 0.212811
O O8 0.651699 0.283707 0.079766
O O9 0.880827 0.634944 0.500000
O O10 0.836286 0.622430 0.342413
O O11 0.911510 0.751489 0.397837
O O12 0.000000 0.623348 0.385222
O O13 0.250000 0.750000 0.347581
O O14 0.334200 0.618440 0.348671
O O15 0.885844 0.130612 0.500000
O O16 0.000000 0.120805 0.381478
O O17 0.000000 0.781774 0.000000
#
# Coordination Sequence:
#
# PCOD8265684 Si02
#       7
#     8   8  16  16  16  16   8
#     4  11  20  36  62  84 105 140 185 235 294 347
#     4  11  21  40  60  78 110 154 185 224 282 344
#     4  11  20  37  55  83 111 144 186 237 291 338
#     4   8  14  26  44  68 102 142 183 228 279 335
#     4  10  18  27  45  75 108 143 182 229 281 339
#     4   8  14  24  38  61  99 143 179 216 270 335
#     4  11  23  37  59  85 113 146 191 238 279 340
#
# _framework density 20.234400999999998
#
# number of rings (size 3 to 8) (size 9 to 14) (size 15 to 20)
#    0.000    2.273    2.727    4.364    0.000    3.818 
#    0.000    4.545    0.000    0.000    0.000    2.545 
#    0.000    5.818    0.000    0.000    0.000    0.000 
#
# Total GULP energy -545106.370619 kJ/mol
# GULP energy per Si atom -12388.781150 kJ/mol
# Density = 2.018835 g / cm^3
# Si number density = 20.234401 Si / 1000 Ang^3
#
#
#
# Elastic Constant Matrix: (Units=GPa)
#
#
# Indices 1 2 3 4 5 6 
#
# 1 142.7133 13.4089 85.8553 0.0000 0.0000 0.0000
# 2 13.4089 74.3300 6.7972 0.0000 0.0000 0.0000
# 3 85.8553 6.7972 127.4948 0.0000 0.0000 0.0000
# 4 0.0000 0.0000 0.0000 9.2639 0.0000 0.0000
# 5 0.0000 0.0000 0.0000 0.0000 26.7564 0.0000
# 6 0.0000 0.0000 0.0000 0.0000 0.0000 16.3779
#
#
#
# Elastic Compliance Matrix: (Units=1/GPa)
#
#
# Indices 1 2 3 4 5 6 
#
# 1 0.011927 -0.001424 -0.007956 0.000000 0.000000 0.000000
# 2 -0.001424 0.013689 0.000229 0.000000 0.000000 0.000000
# 3 -0.007956 0.000229 0.013189 0.000000 0.000000 0.000000
# 4 0.000000 0.000000 0.000000 0.107946 0.000000 0.000000
# 5 0.000000 0.000000 0.000000 0.000000 0.037374 0.000000
# 6 0.000000 0.000000 0.000000 0.000000 0.000000 0.061058
#
#
# Mechanical properties :
#
#
# Convention : Reuss Voigt Hill
#
# Bulk Modulus (GPa) = 48.77155 61.85122 55.31139
# Shear Modulus (GPa) = 18.49663 26.37808 22.43736
#
# Velocity S-wave (km/s) = 3.02672 3.61449 3.33359
# Velocity P-wave (km/s) = 6.03078 6.93204 6.49705
#
# Compressibility (1/GPa) = 0.02050375
#
# Stress axis : x y z
#
# Youngs Moduli (GPa) = 83.84363 73.04893 75.82276
#
# Poissons Ratio (x) = 0.10403 0.60323
# Poissons Ratio (y) = 0.11940 -0.01737
# Poissons Ratio (z) = 0.66704 -0.01674
#
# Static dielectric constant tensor:
#      x y z
#    x 4.224300 0.000000 0.000000 
#    y 0.000000 3.334200 0.000000 
#    z 0.000000 0.000000 3.539780 
# 
# 
# High freq. dielectric constant tensor:
#      x y z
#    x 1.800310 0.000000 0.000000 
#    y 0.000000 1.737620 0.000000 
#    z 0.000000 0.000000 1.773920 
# 
# From -- ./inp_files/53075.got.cif
#   From: 2010.03.12/outbox.cif.g09.slc.cpg/sg65_27_cif.got.tgz:53075.got - 2010.04.10 20:52:16.
