data_PCOD8265971
_publ_section_title
;
Structure prediction by ZEFSAII (Michael W. Deem and Ramdas Pophale) SiO2 
 PCOD8265971
Probable space group: C M M M
;
_chemical_formula_sum "Si O2"
_cell_formula_units_Z 104
_cell_length_a 27.201998
_cell_length_b 8.968713
_cell_length_c 26.850637
_cell_angle_alpha 90.000000
_cell_angle_beta 90.000000
_cell_angle_gamma 90.000000
_cell_volume 6550.667023
_symmetry_space_group_name_H-M "C M M M"
_symmetry_group_IT_number 65
_symmetry_cell_setting 'orthorhombic'
loop_
_space_group_symop_operation_xyz
x,y,z
-x,-y,z
x,-y,-z
-x,y,-z
-x,-y,-z
x,y,-z
-x,y,z
x,-y,z
1/2+x,1/2+y,z
1/2-x,1/2-y,z
1/2+x,1/2-y,-z
1/2-x,1/2+y,-z
1/2-x,1/2-y,-z
1/2+x,1/2+y,-z
1/2-x,1/2+y,z
1/2+x,1/2-y,z
loop_
_atom_site_type_symbol
_atom_site_label
_atom_site_fract_x
_atom_site_fract_y
_atom_site_fract_z
Si Si1 0.897942 0.176118 0.154544
Si Si2 0.803500 0.675793 0.391830
Si Si3 0.358767 0.323235 0.303639
Si Si4 0.944766 0.176979 0.054401
Si Si5 0.300318 0.672622 0.793115
Si Si6 0.443237 0.172835 0.247085
Si Si7 0.300624 0.170009 0.500000
O O1 0.909586 0.234095 0.098727
O O2 0.841310 0.215615 0.165958
O O3 0.933810 0.259481 0.192570
O O4 0.907383 0.000000 0.161084
O O5 0.798399 0.500000 0.380774
O O6 0.750000 0.750000 0.385716
O O7 0.842115 0.749665 0.354860
O O8 0.827102 0.707052 0.447261
O O9 0.363047 0.500000 0.309491
O O10 0.319373 0.278067 0.261261
O O11 0.411858 0.259039 0.288821
O O12 0.000000 0.236348 0.063833
O O13 0.945250 0.000000 0.054448
O O14 0.925964 0.233988 0.000000
O O15 0.289125 0.500000 0.793427
O O16 0.250000 0.750000 0.807835
O O17 0.500000 0.194367 0.261114
O O18 0.428043 0.000000 0.246772
O O19 0.250000 0.250000 0.500000
O O20 0.285792 0.000000 0.500000
#
# Coordination Sequence:
#
# PCOD8265971 Si02
#       7
#    16  16  16  16  16  16   8
#     4   9  17  29  45  65  88 114 145 180 218 261
#     4  10  18  29  45  66  94 125 156 189 224 263
#     4  10  20  32  46  66  89 116 151 186 224 267
#     4   8  13  22  40  66  89 108 136 177 222 263
#     4   9  18  29  41  59  83 112 145 178 213 254
#     4  10  20  32  46  66  91 117 145 177 217 268
#     4   8  16  28  42  62  89 122 155 186 222 263
#
# _framework density 15.876246
#
# number of rings (size 3 to 8) (size 9 to 14) (size 15 to 20)
#    0.000    2.769    0.000    3.692    0.000    6.769 
#    0.000    0.000    0.000    0.923    0.000    2.692 
#    0.000    4.308    0.000    0.000    0.000    0.308 
#
# Total GULP energy -644435.603572 kJ/mol
# GULP energy per Si atom -12392.992376 kJ/mol
# Density = 1.584011 g / cm^3
# Si number density = 15.876246 Si / 1000 Ang^3
#
#
#
# Elastic Constant Matrix: (Units=GPa)
#
#
# Indices 1 2 3 4 5 6 
#
# 1 90.4205 39.6102 65.5170 0.0000 0.0000 0.0000
# 2 39.6102 61.1470 47.2935 0.0000 0.0000 0.0000
# 3 65.5170 47.2935 154.2663 0.0000 0.0000 0.0000
# 4 0.0000 0.0000 0.0000 17.5504 0.0000 0.0000
# 5 0.0000 0.0000 0.0000 0.0000 22.1340 0.0000
# 6 0.0000 0.0000 0.0000 0.0000 0.0000 24.8982
#
#
#
# Elastic Compliance Matrix: (Units=1/GPa)
#
#
# Indices 1 2 3 4 5 6 
#
# 1 0.018374 -0.007691 -0.005446 0.000000 0.000000 0.000000
# 2 -0.007691 0.024656 -0.004293 0.000000 0.000000 0.000000
# 3 -0.005446 -0.004293 0.010111 0.000000 0.000000 0.000000
# 4 0.000000 0.000000 0.000000 0.056979 0.000000 0.000000
# 5 0.000000 0.000000 0.000000 0.000000 0.045179 0.000000
# 6 0.000000 0.000000 0.000000 0.000000 0.000000 0.040164
#
#
# Mechanical properties :
#
#
# Convention : Reuss Voigt Hill
#
# Bulk Modulus (GPa) = 54.69464 67.85279 61.27371
# Shear Modulus (GPa) = 21.14917 23.14406 22.14661
#
# Velocity S-wave (km/s) = 3.65379 3.82223 3.73896
# Velocity P-wave (km/s) = 7.23365 7.89371 7.57087
#
# Compressibility (1/GPa) = 0.01828333
#
# Stress axis : x y z
#
# Youngs Moduli (GPa) = 54.42335 40.55814 98.90061
#
# Poissons Ratio (x) = 0.31192 0.53861
# Poissons Ratio (y) = 0.41855 0.42454
# Poissons Ratio (z) = 0.29639 0.17410
#
# Static dielectric constant tensor:
#      x y z
#    x 2.862090 0.000000 0.000000 
#    y 0.000000 2.968830 0.000000 
#    z 0.000000 0.000000 3.080240 
# 
# 
# High freq. dielectric constant tensor:
#      x y z
#    x 1.584890 0.000000 0.000000 
#    y 0.000000 1.606490 0.000000 
#    z 0.000000 0.000000 1.611590 
# 
# From -- ./inp_files/76022.got.cif
#   From: 2010.03.12/outbox.cif.g09.slc.cpg/sg65_39_cif.got.tgz:76022.got - 2010.04.10 20:52:16.
