data_PCOD8265081
_publ_section_title
;
Structure prediction by ZEFSAII (Michael W. Deem and Ramdas Pophale) SiO2 
 PCOD8265081
Probable space group: C M M M
;
_chemical_formula_sum "Si O2"
_cell_formula_units_Z 72
_cell_length_a 13.791709
_cell_length_b 28.990370
_cell_length_c 14.404762
_cell_angle_alpha 90.000000
_cell_angle_beta 90.000000
_cell_angle_gamma 90.000000
_cell_volume 5759.409129
_symmetry_space_group_name_H-M "C M M M"
_symmetry_group_IT_number 65
_symmetry_cell_setting 'orthorhombic'
loop_
_space_group_symop_operation_xyz
x,y,z
-x,-y,z
x,-y,-z
-x,y,-z
-x,-y,-z
x,y,-z
-x,y,z
x,-y,z
1/2+x,1/2+y,z
1/2-x,1/2-y,z
1/2+x,1/2-y,-z
1/2-x,1/2+y,-z
1/2-x,1/2-y,-z
1/2+x,1/2+y,-z
1/2-x,1/2+y,z
1/2+x,1/2-y,z
loop_
_atom_site_type_symbol
_atom_site_label
_atom_site_fract_x
_atom_site_fract_y
_atom_site_fract_z
Si Si1 0.606474 0.228493 0.109795
Si Si2 0.385159 0.448435 0.601640
Si Si3 0.614907 0.591442 0.791261
Si Si4 0.885177 0.000000 0.103486
Si Si5 0.705044 0.322054 0.890146
O O1 0.500000 0.216961 0.151581
O O2 0.639329 0.279162 0.142937
O O3 0.683761 0.189340 0.138588
O O4 0.602570 0.230159 0.000000
O O5 0.351208 0.429866 0.500000
O O6 0.500000 0.452265 0.604977
O O7 0.342974 0.500000 0.618166
O O8 0.352552 0.413886 0.683487
O O9 0.500000 0.599508 0.802756
O O10 0.650293 0.545539 0.843717
O O11 0.672664 0.633737 0.833566
O O12 0.000000 0.000000 0.099910
O O13 0.840948 0.000000 0.000000
O O14 0.694401 0.331369 0.000000
#
# Coordination Sequence:
#
# PCOD8265081 Si02
#       5
#    16  16  16   8  16
#     4   8  14  25  37  49  68  93 121 151 176 198
#     4   8  13  22  34  46  64  92 122 148 173 202
#     4  10  16  22  32  49  72  97 120 142 171 207
#     4   9  16  22  27  41  70 102 121 132 159 207
#     4   9  16  23  34  53  73  94 119 144 172 206
#
# _framework density 12.501282
#
# number of rings (size 3 to 8) (size 9 to 14) (size 15 to 20)
#    0.000    3.222    1.111    3.333    0.000    2.222 
#    0.000    0.000    0.000    0.000    0.000    3.889 
#    0.000    7.111    0.000    2.444    0.000    0.222 
#
# Total GULP energy -446025.284938 kJ/mol
# GULP energy per Si atom -12389.591248 kJ/mol
# Density = 1.247283 g / cm^3
# Si number density = 12.501282 Si / 1000 Ang^3
#
#
#
# Elastic Constant Matrix: (Units=GPa)
#
#
# Indices 1 2 3 4 5 6 
#
# 1 66.4299 40.5117 26.5638 0.0000 0.0000 0.0000
# 2 40.5117 97.8572 51.3527 0.0000 0.0000 0.0000
# 3 26.5638 51.3527 84.7993 0.0000 0.0000 0.0000
# 4 0.0000 0.0000 0.0000 6.3189 0.0000 0.0000
# 5 0.0000 0.0000 0.0000 0.0000 7.2655 0.0000
# 6 0.0000 0.0000 0.0000 0.0000 0.0000 17.7427
#
#
#
# Elastic Compliance Matrix: (Units=1/GPa)
#
#
# Indices 1 2 3 4 5 6 
#
# 1 0.020337 -0.007441 -0.001865 0.000000 0.000000 0.000000
# 2 -0.007441 0.017702 -0.008389 0.000000 0.000000 0.000000
# 3 -0.001865 -0.008389 0.017457 0.000000 0.000000 0.000000
# 4 0.000000 0.000000 0.000000 0.158256 0.000000 0.000000
# 5 0.000000 0.000000 0.000000 0.000000 0.137638 0.000000
# 6 0.000000 0.000000 0.000000 0.000000 0.000000 0.056361
#
#
# Mechanical properties :
#
#
# Convention : Reuss Voigt Hill
#
# Bulk Modulus (GPa) = 49.73472 53.99365 51.86418
# Shear Modulus (GPa) = 11.11504 14.97595 13.04549
#
# Velocity S-wave (km/s) = 2.98503 3.46490 3.23388
# Velocity P-wave (km/s) = 7.19379 7.70011 7.45125
#
# Compressibility (1/GPa) = 0.02010668
#
# Stress axis : x y z
#
# Youngs Moduli (GPa) = 49.17223 56.49231 57.28418
#
# Poissons Ratio (x) = 0.42034 0.10682
# Poissons Ratio (y) = 0.36587 0.48055
# Poissons Ratio (z) = 0.09169 0.47391
#
# Static dielectric constant tensor:
#      x y z
#    x 2.565800 0.000000 0.000000 
#    y 0.000000 2.471660 0.000000 
#    z 0.000000 0.000000 2.642950 
# 
# 
# High freq. dielectric constant tensor:
#      x y z
#    x 1.434440 0.000000 0.000000 
#    y 0.000000 1.467920 0.000000 
#    z 0.000000 0.000000 1.457240 
# 
# From -- ./inp_files/40501.got.cif
#   From: 2010.03.12/outbox.cif.g09.slc.cpg/sg65_21_cif.got.tgz:40501.got - 2010.04.10 20:52:16.
