data_PCOD8265819
_publ_section_title
;
Structure prediction by ZEFSAII (Michael W. Deem and Ramdas Pophale) SiO2 
 PCOD8265819
Probable space group: C M M M
;
_chemical_formula_sum "Si O2"
_cell_formula_units_Z 104
_cell_length_a 7.851542
_cell_length_b 26.352889
_cell_length_c 28.783870
_cell_angle_alpha 90.000000
_cell_angle_beta 90.000000
_cell_angle_gamma 90.000000
_cell_volume 5955.693995
_symmetry_space_group_name_H-M "C M M M"
_symmetry_group_IT_number 65
_symmetry_cell_setting 'orthorhombic'
loop_
_space_group_symop_operation_xyz
x,y,z
-x,-y,z
x,-y,-z
-x,y,-z
-x,-y,-z
x,y,-z
-x,y,z
x,-y,z
1/2+x,1/2+y,z
1/2-x,1/2-y,z
1/2+x,1/2-y,-z
1/2-x,1/2+y,-z
1/2-x,1/2-y,-z
1/2+x,1/2+y,-z
1/2-x,1/2+y,z
1/2+x,1/2-y,z
loop_
_atom_site_type_symbol
_atom_site_label
_atom_site_fract_x
_atom_site_fract_y
_atom_site_fract_z
Si Si1 0.310164 0.696288 0.554922
Si Si2 0.000000 0.375425 0.445698
Si Si3 0.000000 0.559921 0.360084
Si Si4 0.298170 0.598152 0.106478
Si Si5 0.202970 0.000000 0.052390
Si Si6 0.697856 0.057065 0.798355
Si Si7 0.312397 0.560235 0.300460
Si Si8 0.799393 0.804877 0.947846
O O1 0.318461 0.701569 0.500000
O O2 0.500000 0.682044 0.573796
O O3 0.250000 0.750000 0.576322
O O4 0.170232 0.654770 0.568527
O O5 0.000000 0.425484 0.414298
O O6 0.000000 0.390456 0.500000
O O7 0.832027 0.582639 0.334643
O O8 0.000000 0.500000 0.357612
O O9 0.500000 0.598084 0.104534
O O10 0.225437 0.550017 0.078027
O O11 0.237330 0.594854 0.159484
O O12 0.223881 0.650063 0.084187
O O13 0.000000 0.000000 0.052678
O O14 0.273101 0.000000 0.000000
O O15 0.500000 0.055356 0.787123
O O16 0.788386 0.079286 0.752444
O O17 0.764390 0.000000 0.810374
O O18 0.500000 0.577314 0.318013
O O19 0.295058 0.500000 0.299962
O O20 0.750000 0.750000 0.926630
O O21 0.000000 0.810523 0.949870
O O22 0.722874 0.809924 0.000000
#
# Coordination Sequence:
#
# PCOD8265819 Si02
#       8
#    16   8   8  16   8  16  16  16
#     4   9  15  26  46  72 103 134 168 214 264 307
#     4  10  20  31  48  76 108 144 179 216 260 305
#     4  10  20  35  50  72 106 142 184 221 245 296
#     4  10  18  28  45  70  95 122 158 196 243 300
#     4   9  16  26  41  63  95 131 159 185 227 295
#     4  10  18  29  46  71 102 124 150 196 253 311
#     4   9  17  31  52  72  95 131 171 215 264 301
#     4   9  18  32  48  65  88 121 165 211 244 281
#
# _framework density 17.462281000000001
#
# number of rings (size 3 to 8) (size 9 to 14) (size 15 to 20)
#    0.000    2.538    2.308    0.923    0.000    3.846 
#    0.000    0.000    0.000    1.846    0.000    5.385 
#    0.000    0.000    0.000    0.000    0.000    0.000 
#
# Total GULP energy -644561.763845 kJ/mol
# GULP energy per Si atom -12395.418535 kJ/mol
# Density = 1.742254 g / cm^3
# Si number density = 17.462281 Si / 1000 Ang^3
#
#
#
# Elastic Constant Matrix: (Units=GPa)
#
#
# Indices 1 2 3 4 5 6 
#
# 1 97.9708 25.6547 34.3933 0.0000 0.0000 0.0000
# 2 25.6547 77.9710 40.7860 0.0000 0.0000 0.0000
# 3 34.3933 40.7860 96.2953 0.0000 0.0000 0.0000
# 4 0.0000 0.0000 0.0000 16.9430 0.0000 0.0000
# 5 0.0000 0.0000 0.0000 0.0000 14.8843 0.0000
# 6 0.0000 0.0000 0.0000 0.0000 0.0000 15.3217
#
#
#
# Elastic Compliance Matrix: (Units=1/GPa)
#
#
# Indices 1 2 3 4 5 6 
#
# 1 0.011953 -0.002183 -0.003344 0.000000 0.000000 0.000000
# 2 -0.002183 0.016874 -0.006367 0.000000 0.000000 0.000000
# 3 -0.003344 -0.006367 0.014276 0.000000 0.000000 0.000000
# 4 0.000000 0.000000 0.000000 0.059021 0.000000 0.000000
# 5 0.000000 0.000000 0.000000 0.000000 0.067185 0.000000
# 6 0.000000 0.000000 0.000000 0.000000 0.000000 0.065267
#
#
# Mechanical properties :
#
#
# Convention : Reuss Voigt Hill
#
# Bulk Modulus (GPa) = 51.77816 52.65612 52.21714
# Shear Modulus (GPa) = 18.88184 20.85667 19.86925
#
# Velocity S-wave (km/s) = 3.29187 3.45974 3.37685
# Velocity P-wave (km/s) = 6.64563 6.79554 6.72100
#
# Compressibility (1/GPa) = 0.01931316
#
# Stress axis : x y z
#
# Youngs Moduli (GPa) = 83.66139 59.26142 70.04708
#
# Poissons Ratio (x) = 0.12939 0.23426
# Poissons Ratio (y) = 0.18267 0.44601
# Poissons Ratio (z) = 0.27980 0.37734
#
# Static dielectric constant tensor:
#      x y z
#    x 3.393990 0.000000 0.000000 
#    y 0.000000 3.146430 0.000000 
#    z 0.000000 0.000000 3.063020 
# 
# 
# High freq. dielectric constant tensor:
#      x y z
#    x 1.681920 0.000000 0.000000 
#    y 0.000000 1.637380 0.000000 
#    z 0.000000 0.000000 1.651500 
# 
# From -- ./inp_files/68322.got.cif
#   From: 2010.03.12/outbox.cif.g09.slc.cpg/sg65_35_cif.got.tgz:68322.got - 2010.04.10 20:52:16.
