data_PCOD8265777
_publ_section_title
;
Structure prediction by ZEFSAII (Michael W. Deem and Ramdas Pophale) SiO2 
 PCOD8265777
Probable space group: C M M M
;
_chemical_formula_sum "Si O2"
_cell_formula_units_Z 104
_cell_length_a 26.877444
_cell_length_b 17.702946
_cell_length_c 13.544336
_cell_angle_alpha 90.000000
_cell_angle_beta 90.000000
_cell_angle_gamma 90.000000
_cell_volume 6444.529696
_symmetry_space_group_name_H-M "C M M M"
_symmetry_group_IT_number 65
_symmetry_cell_setting 'orthorhombic'
loop_
_space_group_symop_operation_xyz
x,y,z
-x,-y,z
x,-y,-z
-x,y,-z
-x,-y,-z
x,y,-z
-x,y,z
x,-y,z
1/2+x,1/2+y,z
1/2-x,1/2-y,z
1/2+x,1/2-y,-z
1/2-x,1/2+y,-z
1/2-x,1/2-y,-z
1/2+x,1/2+y,-z
1/2-x,1/2+y,z
1/2+x,1/2-y,z
loop_
_atom_site_type_symbol
_atom_site_label
_atom_site_fract_x
_atom_site_fract_y
_atom_site_fract_z
Si Si1 0.554352 0.000000 0.381565
Si Si2 0.557034 0.413021 0.251651
Si Si3 0.288496 0.319113 0.259772
Si Si4 0.385458 0.137462 0.613676
Si Si5 0.851678 0.087191 0.114791
Si Si6 0.781393 0.588502 0.612508
Si Si7 0.114698 0.196963 0.614004
O O1 0.579973 0.074632 0.336159
O O2 0.500000 0.000000 0.336097
O O3 0.552989 0.000000 0.500000
O O4 0.500000 0.390997 0.224495
O O5 0.559868 0.500000 0.284755
O O6 0.593200 0.397506 0.158983
O O7 0.576524 0.364258 0.343791
O O8 0.250000 0.250000 0.238157
O O9 0.310780 0.355371 0.159594
O O10 0.263354 0.387889 0.317525
O O11 0.333471 0.294327 0.329416
O O12 0.380060 0.114382 0.500000
O O13 0.329560 0.132057 0.655764
O O14 0.409901 0.220026 0.625999
O O15 0.836026 0.000000 0.134409
O O16 0.855132 0.105401 0.000000
O O17 0.768859 0.612519 0.500000
O O18 0.790910 0.500000 0.620128
O O19 0.125029 0.177057 0.500000
#
# Coordination Sequence:
#
# PCOD8265777 Si02
#       7
#     8  16  16  16  16  16  16
#     4   9  16  26  40  58  82 112 155 207 242 267
#     4   9  19  35  53  73  95 122 159 200 243 292
#     4  11  20  30  47  71  97 127 162 197 239 282
#     4   9  16  27  41  59  84 121 162 195 230 268
#     4   9  19  36  54  72  95 119 150 197 250 302
#     4  10  18  28  44  65  93 130 168 200 229 268
#     4  10  20  31  45  67  99 133 165 196 228 274
#
# _framework density 16.137716999999999
#
# number of rings (size 3 to 8) (size 9 to 14) (size 15 to 20)
#    0.000    2.385    2.308    0.923    0.000    3.077 
#    0.000    3.846    0.000    0.000    0.000    0.000 
#    0.000    0.000    0.000    0.000    0.000   17.923 
#
# Total GULP energy -644435.628262 kJ/mol
# GULP energy per Si atom -12392.992851 kJ/mol
# Density = 1.610099 g / cm^3
# Si number density = 16.137717 Si / 1000 Ang^3
#
#
#
# Elastic Constant Matrix: (Units=GPa)
#
#
# Indices 1 2 3 4 5 6 
#
# 1 102.1536 50.8699 42.4399 0.0000 0.0000 0.0000
# 2 50.8699 89.6445 47.3205 0.0000 0.0000 0.0000
# 3 42.4399 47.3205 86.1518 0.0000 0.0000 0.0000
# 4 0.0000 0.0000 0.0000 15.4309 0.0000 0.0000
# 5 0.0000 0.0000 0.0000 0.0000 12.7726 0.0000
# 6 0.0000 0.0000 0.0000 0.0000 0.0000 25.8809
#
#
#
# Elastic Compliance Matrix: (Units=1/GPa)
#
#
# Indices 1 2 3 4 5 6 
#
# 1 0.014427 -0.006246 -0.003676 0.000000 0.000000 0.000000
# 2 -0.006246 0.018415 -0.007038 0.000000 0.000000 0.000000
# 3 -0.003676 -0.007038 0.017284 0.000000 0.000000 0.000000
# 4 0.000000 0.000000 0.000000 0.064805 0.000000 0.000000
# 5 0.000000 0.000000 0.000000 0.000000 0.078293 0.000000
# 6 0.000000 0.000000 0.000000 0.000000 0.000000 0.038638
#
#
# Mechanical properties :
#
#
# Convention : Reuss Voigt Hill
#
# Bulk Modulus (GPa) = 61.70720 62.13451 61.92086
# Shear Modulus (GPa) = 18.43774 19.97153 19.20463
#
# Velocity S-wave (km/s) = 3.38379 3.52173 3.45345
# Velocity P-wave (km/s) = 7.32036 7.42449 7.37260
#
# Compressibility (1/GPa) = 0.01620556
#
# Stress axis : x y z
#
# Youngs Moduli (GPa) = 69.31499 54.30488 57.85762
#
# Poissons Ratio (x) = 0.33920 0.21269
# Poissons Ratio (y) = 0.43296 0.40717
# Poissons Ratio (z) = 0.25481 0.38217
#
# Static dielectric constant tensor:
#      x y z
#    x 3.179610 0.000000 0.000000 
#    y 0.000000 3.140940 0.000000 
#    z 0.000000 0.000000 2.697220 
# 
# 
# High freq. dielectric constant tensor:
#      x y z
#    x 1.624160 0.000000 0.000000 
#    y 0.000000 1.633010 0.000000 
#    z 0.000000 0.000000 1.573290 
# 
# From -- ./inp_files/47183.got.cif
#   From: 2010.03.12/outbox.cif.g09.slc.cpg/sg65_24_cif.got.tgz:47183.got - 2010.04.10 20:52:16.
