data_PCOD8265804
_publ_section_title
;
Structure prediction by ZEFSAII (Michael W. Deem and Ramdas Pophale) SiO2 
 PCOD8265804
Probable space group: C M M M
;
_chemical_formula_sum "Si O2"
_cell_formula_units_Z 96
_cell_length_a 19.722801
_cell_length_b 8.934401
_cell_length_c 31.254189
_cell_angle_alpha 90.000000
_cell_angle_beta 90.000000
_cell_angle_gamma 90.000000
_cell_volume 5507.344805
_symmetry_space_group_name_H-M "C M M M"
_symmetry_group_IT_number 65
_symmetry_cell_setting 'orthorhombic'
loop_
_space_group_symop_operation_xyz
x,y,z
-x,-y,z
x,-y,-z
-x,y,-z
-x,-y,-z
x,y,-z
-x,y,z
x,-y,z
1/2+x,1/2+y,z
1/2-x,1/2-y,z
1/2+x,1/2-y,-z
1/2-x,1/2+y,-z
1/2-x,1/2-y,-z
1/2+x,1/2+y,-z
1/2-x,1/2+y,z
1/2+x,1/2-y,z
loop_
_atom_site_type_symbol
_atom_site_label
_atom_site_fract_x
_atom_site_fract_y
_atom_site_fract_z
Si Si1 0.919423 0.665894 0.797100
Si Si2 0.675941 0.821446 0.629897
Si Si3 0.075762 0.321740 0.703704
Si Si4 0.423666 0.323238 0.118848
Si Si5 0.822845 0.175275 0.546412
Si Si6 0.819986 0.823458 0.951608
O O1 0.888869 0.500000 0.803417
O O2 0.898112 0.732864 0.750638
O O3 0.892552 0.767344 0.836060
O O4 0.000000 0.659060 0.797619
O O5 0.750000 0.750000 0.636269
O O6 0.628279 0.763976 0.668249
O O7 0.640597 0.759380 0.586016
O O8 0.681363 0.000000 0.628260
O O9 0.072796 0.500000 0.704274
O O10 0.000000 0.259281 0.693771
O O11 0.500000 0.262006 0.112007
O O12 0.423326 0.500000 0.119966
O O13 0.378711 0.262675 0.079594
O O14 0.859931 0.197648 0.500000
O O15 0.750000 0.250000 0.543034
O O16 0.815413 0.000000 0.556962
O O17 0.750000 0.750000 0.936968
O O18 0.811648 0.000000 0.947717
O O19 0.839037 0.775968 0.000000
#
# Coordination Sequence:
#
# PCOD8265804 Si02
#       6
#    16  16  16  16  16  16
#     4   8  14  27  47  67  87 114 148 182 216 257
#     4  10  18  28  45  67  91 115 141 180 223 260
#     4   8  15  29  48  67  86 114 152 185 213 253
#     4   9  17  29  46  69  93 113 140 182 225 261
#     4   9  16  26  41  61  86 115 146 179 215 258
#     4   9  18  32  48  65  88 120 152 180 215 260
#
# _framework density 17.431267999999999
#
# number of rings (size 3 to 8) (size 9 to 14) (size 15 to 20)
#    0.000    3.167    0.000    3.000    0.000    2.000 
#    0.000    4.167    0.000    8.500    0.000    8.167 
#    0.000    0.000    0.000    0.000    0.000    0.000 
#
# Total GULP energy -594711.783882 kJ/mol
# GULP energy per Si atom -12389.828831 kJ/mol
# Density = 1.739159 g / cm^3
# Si number density = 17.431268 Si / 1000 Ang^3
#
#
#
# Elastic Constant Matrix: (Units=GPa)
#
#
# Indices 1 2 3 4 5 6 
#
# 1 67.4956 22.9543 74.6681 0.0000 0.0000 0.0000
# 2 22.9543 43.3839 39.1053 0.0000 0.0000 0.0000
# 3 74.6681 39.1053 182.1444 0.0000 0.0000 0.0000
# 4 0.0000 0.0000 0.0000 28.8811 0.0000 0.0000
# 5 0.0000 0.0000 0.0000 0.0000 30.5599 0.0000
# 6 0.0000 0.0000 0.0000 0.0000 0.0000 16.5275
#
#
#
# Elastic Compliance Matrix: (Units=1/GPa)
#
#
# Indices 1 2 3 4 5 6 
#
# 1 0.028156 -0.005572 -0.010346 0.000000 0.000000 0.000000
# 2 -0.005572 0.029684 -0.004089 0.000000 0.000000 0.000000
# 3 -0.010346 -0.004089 0.010609 0.000000 0.000000 0.000000
# 4 0.000000 0.000000 0.000000 0.034625 0.000000 0.000000
# 5 0.000000 0.000000 0.000000 0.000000 0.032723 0.000000
# 6 0.000000 0.000000 0.000000 0.000000 0.000000 0.060505
#
#
# Mechanical properties :
#
#
# Convention : Reuss Voigt Hill
#
# Bulk Modulus (GPa) = 35.16686 62.94217 49.05452
# Shear Modulus (GPa) = 20.34228 25.61343 22.97785
#
# Velocity S-wave (km/s) = 3.41984 3.83743 3.63464
# Velocity P-wave (km/s) = 5.98433 7.47139 6.76882
#
# Compressibility (1/GPa) = 0.02843586
#
# Stress axis : x y z
#
# Youngs Moduli (GPa) = 35.51621 33.68863 94.25705
#
# Poissons Ratio (x) = 0.18770 0.97519
# Poissons Ratio (y) = 0.19788 0.38541
# Poissons Ratio (z) = 0.36745 0.13775
#
# Static dielectric constant tensor:
#      x y z
#    x 3.047800 0.000000 0.000000 
#    y 0.000000 3.119510 0.000000 
#    z 0.000000 0.000000 4.041310 
# 
# 
# High freq. dielectric constant tensor:
#      x y z
#    x 1.625920 0.000000 0.000000 
#    y 0.000000 1.657910 0.000000 
#    z 0.000000 0.000000 1.696480 
# 
# From -- ./inp_files/75678.got.cif
#   From: 2010.03.12/outbox.cif.g09.slc.cpg/sg65_38_cif.got.tgz:75678.got - 2010.04.10 20:52:16.
