data_PCOD8265718
_publ_section_title
;
Structure prediction by ZEFSAII (Michael W. Deem and Ramdas Pophale) SiO2 
 PCOD8265718
Probable space group: C M M M
;
_chemical_formula_sum "Si O2"
_cell_formula_units_Z 96
_cell_length_a 27.302094
_cell_length_b 9.153755
_cell_length_c 23.917274
_cell_angle_alpha 90.000000
_cell_angle_beta 90.000000
_cell_angle_gamma 90.000000
_cell_volume 5977.325700
_symmetry_space_group_name_H-M "C M M M"
_symmetry_group_IT_number 65
_symmetry_cell_setting 'orthorhombic'
loop_
_space_group_symop_operation_xyz
x,y,z
-x,-y,z
x,-y,-z
-x,y,-z
-x,-y,-z
x,y,-z
-x,y,z
x,-y,z
1/2+x,1/2+y,z
1/2-x,1/2-y,z
1/2+x,1/2-y,-z
1/2-x,1/2+y,-z
1/2-x,1/2-y,-z
1/2+x,1/2+y,-z
1/2-x,1/2+y,z
1/2+x,1/2-y,z
loop_
_atom_site_type_symbol
_atom_site_label
_atom_site_fract_x
_atom_site_fract_y
_atom_site_fract_z
Si Si1 0.943261 0.326680 0.000000
Si Si2 0.553604 0.326742 0.781354
Si Si3 0.697905 0.171417 0.378937
Si Si4 0.101817 0.171522 0.894610
Si Si5 0.148332 0.172374 0.720588
Si Si6 0.700576 0.330419 0.834138
Si Si7 0.200406 0.666111 0.500000
O O1 0.914698 0.265361 0.946905
O O2 0.939628 0.500000 0.000000
O O3 0.000000 0.275167 0.000000
O O4 0.500000 0.263458 0.765838
O O5 0.553541 0.500000 0.782434
O O6 0.568402 0.274521 0.843145
O O7 0.593225 0.276128 0.735703
O O8 0.750000 0.250000 0.373537
O O9 0.661156 0.238391 0.334415
O O10 0.673304 0.199934 0.440853
O O11 0.705265 0.000000 0.367141
O O12 0.158386 0.205442 0.879300
O O13 0.094646 0.000000 0.907215
O O14 0.183773 0.216358 0.771849
O O15 0.151353 0.000000 0.708708
O O16 0.712289 0.500000 0.834283
O O17 0.750000 0.250000 0.851923
O O18 0.216748 0.500000 0.500000
O O19 0.250000 0.750000 0.500000
#
# Coordination Sequence:
#
# PCOD8265718 Si02
#       7
#     8  16  16  16  16  16   8
#     4  11  23  35  48  71  98 117 138 177 228 271
#     4   8  14  27  48  70  90 114 145 181 219 258
#     4  10  18  28  42  61  87 118 150 182 217 257
#     4   9  18  33  52  71  89 115 153 184 209 255
#     4   9  17  28  43  67  94 116 144 181 219 261
#     4   9  18  31  47  68  93 120 149 181 215 255
#     4   8  16  28  40  56  81 114 149 183 216 253
#
# _framework density 16.060694000000002
#
# number of rings (size 3 to 8) (size 9 to 14) (size 15 to 20)
#    0.000    2.917    0.000    3.750    0.000    4.667 
#    0.000    2.917    0.000    1.500    0.000    0.583 
#    0.000    4.667    0.000    0.000    0.000    0.000 
#
# Total GULP energy -594801.823439 kJ/mol
# GULP energy per Si atom -12391.704655 kJ/mol
# Density = 1.602414 g / cm^3
# Si number density = 16.060694 Si / 1000 Ang^3
#
#
#
# Elastic Constant Matrix: (Units=GPa)
#
#
# Indices 1 2 3 4 5 6 
#
# 1 121.3319 41.2034 66.2804 0.0000 0.0000 0.0000
# 2 41.2034 54.4962 52.1182 0.0000 0.0000 0.0000
# 3 66.2804 52.1182 138.6600 0.0000 0.0000 0.0000
# 4 0.0000 0.0000 0.0000 25.2770 0.0000 0.0000
# 5 0.0000 0.0000 0.0000 0.0000 18.3122 0.0000
# 6 0.0000 0.0000 0.0000 0.0000 0.0000 21.3731
#
#
#
# Elastic Compliance Matrix: (Units=1/GPa)
#
#
# Indices 1 2 3 4 5 6 
#
# 1 0.012188 -0.005688 -0.003688 0.000000 0.000000 0.000000
# 2 -0.005688 0.031303 -0.009047 0.000000 0.000000 0.000000
# 3 -0.003688 -0.009047 0.012375 0.000000 0.000000 0.000000
# 4 0.000000 0.000000 0.000000 0.039562 0.000000 0.000000
# 5 0.000000 0.000000 0.000000 0.000000 0.054608 0.000000
# 6 0.000000 0.000000 0.000000 0.000000 0.000000 0.046788
#
#
# Mechanical properties :
#
#
# Convention : Reuss Voigt Hill
#
# Bulk Modulus (GPa) = 52.57589 70.41024 61.49306
# Shear Modulus (GPa) = 20.83251 23.31820 22.07536
#
# Velocity S-wave (km/s) = 3.60545 3.81449 3.71144
# Velocity P-wave (km/s) = 7.08090 7.95837 7.53243
#
# Compressibility (1/GPa) = 0.01902013
#
# Stress axis : x y z
#
# Youngs Moduli (GPa) = 82.04675 31.94628 80.80684
#
# Poissons Ratio (x) = 0.18171 0.29802
# Poissons Ratio (y) = 0.46669 0.73104
# Poissons Ratio (z) = 0.30259 0.28901
#
# Static dielectric constant tensor:
#      x y z
#    x 3.185520 0.000000 0.000000 
#    y 0.000000 2.873490 0.000000 
#    z 0.000000 0.000000 3.255380 
# 
# 
# High freq. dielectric constant tensor:
#      x y z
#    x 1.602420 0.000000 0.000000 
#    y 0.000000 1.605340 0.000000 
#    z 0.000000 0.000000 1.616650 
# 
# From -- ./inp_files/71756.got.cif
#   From: 2010.03.12/outbox.cif.g09.slc.cpg/sg65_36_cif.got.tgz:71756.got - 2010.04.10 20:52:16.
