data_PCOD8265504
_publ_section_title
;
Structure prediction by ZEFSAII (Michael W. Deem and Ramdas Pophale) SiO2 
 PCOD8265504
Probable space group: C M M M
;
_chemical_formula_sum "Si O2"
_cell_formula_units_Z 96
_cell_length_a 17.635808
_cell_length_b 18.761590
_cell_length_c 16.596797
_cell_angle_alpha 90.000000
_cell_angle_beta 90.000000
_cell_angle_gamma 90.000000
_cell_volume 5491.478468
_symmetry_space_group_name_H-M "C M M M"
_symmetry_group_IT_number 65
_symmetry_cell_setting 'orthorhombic'
loop_
_space_group_symop_operation_xyz
x,y,z
-x,-y,z
x,-y,-z
-x,y,-z
-x,-y,-z
x,y,-z
-x,y,z
x,-y,z
1/2+x,1/2+y,z
1/2-x,1/2-y,z
1/2+x,1/2-y,-z
1/2-x,1/2+y,-z
1/2-x,1/2-y,-z
1/2+x,1/2+y,-z
1/2-x,1/2+y,z
1/2+x,1/2-y,z
loop_
_atom_site_type_symbol
_atom_site_label
_atom_site_fract_x
_atom_site_fract_y
_atom_site_fract_z
Si Si1 0.171946 0.209059 0.146144
Si Si2 0.758924 0.578023 0.141212
Si Si3 0.716033 0.083846 0.324991
Si Si4 0.623444 0.077612 0.000000
Si Si5 0.587809 0.178110 0.405460
Si Si6 0.419008 0.229715 0.000000
Si Si7 0.325068 0.296137 0.675934
O O1 0.250000 0.250000 0.151877
O O2 0.190347 0.129473 0.115684
O O3 0.120426 0.247960 0.082061
O O4 0.135310 0.204225 0.235449
O O5 0.722416 0.500000 0.140383
O O6 0.792524 0.596205 0.229308
O O7 0.826897 0.584627 0.079557
O O8 0.640524 0.118174 0.363836
O O9 0.794711 0.124850 0.351592
O O10 0.721785 0.000000 0.348359
O O11 0.567369 0.144358 0.000000
O O12 0.581758 0.000000 0.000000
O O13 0.596268 0.167560 0.500000
O O14 0.500000 0.167959 0.378631
O O15 0.614987 0.259021 0.384228
O O16 0.500000 0.267477 0.000000
O O17 0.250000 0.250000 0.678643
#
# Coordination Sequence:
#
# PCOD8265504 Si02
#       7
#    16  16  16   8  16   8  16
#     4  10  17  32  52  71  94 128 166 211 249 289
#     4   9  17  31  54  77  96 125 167 205 246 292
#     4   9  18  33  53  80 106 127 164 215 258 298
#     4  10  19  32  48  69 100 138 169 197 235 290
#     4  10  21  35  51  73 104 140 171 199 243 310
#     4  12  24  31  44  73 104 133 167 212 251 287
#     4   8  17  32  53  75  96 129 172 213 251 294
#
# _framework density 17.481631
#
# number of rings (size 3 to 8) (size 9 to 14) (size 15 to 20)
#    0.000    2.500    1.667    1.750    0.000    4.500 
#    0.000    0.833    0.000    4.500    0.000    5.833 
#    0.000    0.000    0.000    0.000    0.000    0.000 
#
# Total GULP energy -594630.239642 kJ/mol
# GULP energy per Si atom -12388.129993 kJ/mol
# Density = 1.744184 g / cm^3
# Si number density = 17.481631 Si / 1000 Ang^3
#
#
#
# Elastic Constant Matrix: (Units=GPa)
#
#
# Indices 1 2 3 4 5 6 
#
# 1 66.3464 49.9287 34.3472 0.0000 0.0000 0.0000
# 2 49.9287 133.8985 37.2547 0.0000 0.0000 0.0000
# 3 34.3472 37.2547 66.7081 0.0000 0.0000 0.0000
# 4 0.0000 0.0000 0.0000 24.0141 0.0000 0.0000
# 5 0.0000 0.0000 0.0000 0.0000 0.7138 0.0000
# 6 0.0000 0.0000 0.0000 0.0000 0.0000 11.3928
#
#
#
# Elastic Compliance Matrix: (Units=1/GPa)
#
#
# Indices 1 2 3 4 5 6 
#
# 1 0.024812 -0.006746 -0.009008 0.000000 0.000000 0.000000
# 2 -0.006746 0.010676 -0.002489 0.000000 0.000000 0.000000
# 3 -0.009008 -0.002489 0.021019 0.000000 0.000000 0.000000
# 4 0.000000 0.000000 0.000000 0.041642 0.000000 0.000000
# 5 0.000000 0.000000 0.000000 0.000000 1.401032 0.000000
# 6 0.000000 0.000000 0.000000 0.000000 0.000000 0.087775
#
#
# Mechanical properties :
#
#
# Convention : Reuss Voigt Hill
#
# Bulk Modulus (GPa) = 49.94651 56.66824 53.30737
# Shear Modulus (GPa) = 3.06727 16.91896 9.99311
#
# Velocity S-wave (km/s) = 1.32604 3.11435 2.39348
# Velocity P-wave (km/s) = 5.56573 6.73932 6.18045
#
# Compressibility (1/GPa) = 0.02002142
#
# Stress axis : x y z
#
# Youngs Moduli (GPa) = 40.30231 93.66549 47.57590
#
# Poissons Ratio (x) = 0.63185 0.42858
# Poissons Ratio (y) = 0.27187 0.11842
# Poissons Ratio (z) = 0.36306 0.23314
#
# Static dielectric constant tensor:
#      x y z
#    x 2.581810 0.000000 0.000000 
#    y 0.000000 4.086250 0.000000 
#    z 0.000000 0.000000 3.381690 
# 
# 
# High freq. dielectric constant tensor:
#      x y z
#    x 1.632290 0.000000 0.000000 
#    y 0.000000 1.688230 0.000000 
#    z 0.000000 0.000000 1.680740 
# 
# From -- ./inp_files/54533.got.cif
#   From: 2010.03.12/outbox.cif.g09.slc.cpg/sg65_28_cif.got.tgz:54533.got - 2010.04.10 20:52:16.
