data_PCOD8265021
_publ_section_title
;
Structure prediction by ZEFSAII (Michael W. Deem and Ramdas Pophale) SiO2 
 PCOD8265021
Probable space group: C M C A
;
_chemical_formula_sum "Si O2"
_cell_formula_units_Z 80
_cell_length_a 9.607480
_cell_length_b 27.323202
_cell_length_c 18.402186
_cell_angle_alpha 90.000000
_cell_angle_beta 90.000000
_cell_angle_gamma 90.000000
_cell_volume 4830.704789
_symmetry_space_group_name_H-M "C M C A"
_symmetry_group_IT_number 64
_symmetry_cell_setting 'orthorhombic'
loop_
_space_group_symop_operation_xyz
x,y,z
-x,1/2-y,1/2+z
x,-y,-z
-x,1/2+y,1/2-z
-x,-y,-z
x,1/2+y,1/2-z
-x,y,z
x,1/2-y,1/2+z
1/2+x,1/2+y,z
1/2-x,-y,1/2+z
1/2+x,1/2-y,-z
1/2-x,y,1/2-z
1/2-x,1/2-y,-z
1/2+x,y,1/2-z
1/2-x,1/2+y,z
1/2+x,-y,1/2+z
loop_
_atom_site_type_symbol
_atom_site_label
_atom_site_fract_x
_atom_site_fract_y
_atom_site_fract_z
Si Si1 0.162522 0.663883 0.817345
Si Si2 0.836929 0.295412 0.027354
Si Si3 0.346081 0.439693 0.374077
Si Si4 0.345910 0.602299 0.465736
Si Si5 0.156567 0.978854 0.919023
O O1 0.250000 0.685315 0.750000
O O2 0.204160 0.693710 0.889362
O O3 0.201755 0.606711 0.826697
O O4 0.000000 0.669977 0.800807
O O5 0.000000 0.283902 0.021368
O O6 0.750000 0.250000 0.000000
O O7 0.797887 0.341669 0.976550
O O8 0.500000 0.457737 0.349859
O O9 0.355145 0.423672 0.457093
O O10 0.235406 0.483516 0.365143
O O11 0.500000 0.600258 0.429752
O O12 0.235355 0.573431 0.415901
O O13 0.000000 0.971364 0.890074
O O14 0.154578 0.000000 0.000000
#
# Coordination Sequence:
#
# PCOD8265021 Si02
#       5
#    16  16  16  16  16
#     4   9  18  31  46  66  91 119 152 187 226 277
#     4   9  18  31  46  66  91 119 154 195 237 280
#     4   8  14  25  39  55  80 113 142 168 204 255
#     4   8  14  25  39  55  80 113 143 172 212 261
#     4   9  15  21  33  57  84 107 135 169 202 240
#
# _framework density 16.56073
#
# number of rings (size 3 to 8) (size 9 to 14) (size 15 to 20)
#    0.000    3.400    0.000    3.000    0.000    4.800 
#    0.000    4.000    0.000    0.000    0.000    1.400 
#    0.000    9.600    0.000    0.000    0.000    0.000 
#
# Total GULP energy -495745.088145 kJ/mol
# GULP energy per Si atom -12393.627204 kJ/mol
# Density = 1.652304 g / cm^3
# Si number density = 16.560730 Si / 1000 Ang^3
#
#
#
# Elastic Constant Matrix: (Units=GPa)
#
#
# Indices 1 2 3 4 5 6 
#
# 1 111.1143 78.0082 38.8929 0.0000 0.0000 0.0000
# 2 78.0082 121.5713 35.7601 0.0000 0.0000 0.0000
# 3 38.8929 35.7601 45.4096 0.0000 0.0000 0.0000
# 4 0.0000 0.0000 0.0000 13.0214 0.0000 0.0000
# 5 0.0000 0.0000 0.0000 0.0000 19.0104 0.0000
# 6 0.0000 0.0000 0.0000 0.0000 0.0000 30.4157
#
#
#
# Elastic Compliance Matrix: (Units=1/GPa)
#
#
# Indices 1 2 3 4 5 6 
#
# 1 0.018598 -0.009433 -0.008500 0.000000 0.000000 0.000000
# 2 -0.009433 0.015490 -0.004119 0.000000 0.000000 0.000000
# 3 -0.008500 -0.004119 0.032546 0.000000 0.000000 0.000000
# 4 0.000000 0.000000 0.000000 0.076797 0.000000 0.000000
# 5 0.000000 0.000000 0.000000 0.000000 0.052603 0.000000
# 6 0.000000 0.000000 0.000000 0.000000 0.000000 0.032878
#
#
# Mechanical properties :
#
#
# Convention : Reuss Voigt Hill
#
# Bulk Modulus (GPa) = 44.38735 64.82418 54.60577
# Shear Modulus (GPa) = 17.82371 20.85175 19.33773
#
# Velocity S-wave (km/s) = 3.28420 3.55224 3.42085
# Velocity P-wave (km/s) = 6.42202 7.48684 6.97478
#
# Compressibility (1/GPa) = 0.02252894
#
# Stress axis : x y z
#
# Youngs Moduli (GPa) = 53.77057 64.55694 30.72587
#
# Poissons Ratio (x) = 0.60897 0.26117
# Poissons Ratio (y) = 0.50722 0.12657
# Poissons Ratio (z) = 0.45705 0.26592
#
# Static dielectric constant tensor:
#      x y z
#    x 3.318370 0.000000 0.000000 
#    y 0.000000 3.098150 0.000000 
#    z 0.000000 0.000000 2.703940 
# 
# 
# High freq. dielectric constant tensor:
#      x y z
#    x 1.643510 0.000000 0.000000 
#    y 0.000000 1.624720 0.000000 
#    z 0.000000 0.000000 1.583770 
# 
# From -- ./inp_files/29790.got.cif
#   From: 2010.03.12/outbox.cif.g09.slc.cpg/sg64_15_cif.got.tgz:29790.got - 2010.04.10 20:19:32.
