data_PCOD8265338
_publ_section_title
;
Structure prediction by ZEFSAII (Michael W. Deem and Ramdas Pophale) SiO2 
 PCOD8265338
Probable space group: C M M M
;
_chemical_formula_sum "Si O2"
_cell_formula_units_Z 64
_cell_length_a 21.300661
_cell_length_b 22.101293
_cell_length_c 8.505327
_cell_angle_alpha 90.000000
_cell_angle_beta 90.000000
_cell_angle_gamma 90.000000
_cell_volume 4004.071077
_symmetry_space_group_name_H-M "C M M M"
_symmetry_group_IT_number 65
_symmetry_cell_setting 'orthorhombic'
loop_
_space_group_symop_operation_xyz
x,y,z
-x,-y,z
x,-y,-z
-x,y,-z
-x,-y,-z
x,y,-z
-x,y,z
x,-y,z
1/2+x,1/2+y,z
1/2-x,1/2-y,z
1/2+x,1/2-y,-z
1/2-x,1/2+y,-z
1/2-x,1/2-y,-z
1/2+x,1/2+y,-z
1/2-x,1/2+y,z
1/2+x,1/2-y,z
loop_
_atom_site_type_symbol
_atom_site_label
_atom_site_fract_x
_atom_site_fract_y
_atom_site_fract_z
Si Si1 0.927786 0.156339 0.183736
Si Si2 0.743778 0.836562 0.183739
Si Si3 0.846371 0.252193 0.316691
Si Si4 0.324904 0.431157 0.684494
O O1 0.909628 0.224081 0.242132
O O2 0.887709 0.105010 0.270546
O O3 0.000000 0.144642 0.224630
O O4 0.913801 0.151654 0.000000
O O5 0.791759 0.796050 0.283790
O O6 0.673405 0.816570 0.236604
O O7 0.762279 0.905220 0.228365
O O8 0.752866 0.824656 0.000000
O O9 0.856480 0.262622 0.500000
O O10 0.313787 0.426241 0.500000
O O11 0.333538 0.500000 0.739791
#
# Coordination Sequence:
#
# PCOD8265338 Si02
#       4
#    16  16  16  16
#     4  10  20  32  45  62  86 116 150 185 218 255
#     4  10  17  27  44  63  84 108 138 176 219 263
#     4  10  17  27  44  63  84 108 138 176 219 263
#     4  10  20  32  45  62  86 116 150 185 218 255
#
# _framework density 15.983732
#
# number of rings (size 3 to 8) (size 9 to 14) (size 15 to 20)
#    0.000    2.000    0.000   10.500    0.000    4.500 
#    0.000    2.500    0.000    0.000    0.000    0.000 
#    0.000    1.000    0.000   10.500    0.000    4.500 
#
# Total GULP energy -396606.122050 kJ/mol
# GULP energy per Si atom -12393.941314 kJ/mol
# Density = 1.594735 g / cm^3
# Si number density = 15.983732 Si / 1000 Ang^3
#
#
#
# Elastic Constant Matrix: (Units=GPa)
#
#
# Indices 1 2 3 4 5 6 
#
# 1 44.5848 60.1786 21.9509 0.0000 0.0000 0.0000
# 2 60.1786 87.5520 31.4064 0.0000 0.0000 0.0000
# 3 21.9509 31.4064 59.0576 0.0000 0.0000 0.0000
# 4 0.0000 0.0000 0.0000 14.6230 0.0000 0.0000
# 5 0.0000 0.0000 0.0000 0.0000 18.1963 0.0000
# 6 0.0000 0.0000 0.0000 0.0000 0.0000 20.1172
#
#
#
# Elastic Compliance Matrix: (Units=1/GPa)
#
#
# Indices 1 2 3 4 5 6 
#
# 1 0.310705 -0.212714 -0.002365 0.000000 0.000000 0.000000
# 2 -0.212714 0.159741 -0.005886 0.000000 0.000000 0.000000
# 3 -0.002365 -0.005886 0.020942 0.000000 0.000000 0.000000
# 4 0.000000 0.000000 0.000000 0.068386 0.000000 0.000000
# 5 0.000000 0.000000 0.000000 0.000000 0.054956 0.000000
# 6 0.000000 0.000000 0.000000 0.000000 0.000000 0.049709
#
#
# Mechanical properties :
#
#
# Convention : Reuss Voigt Hill
#
# Bulk Modulus (GPa) = 20.21928 46.47400 33.34664
# Shear Modulus (GPa) = 4.45293 15.76453 10.10873
#
# Velocity S-wave (km/s) = 1.67092 3.14393 2.51756
# Velocity P-wave (km/s) = 4.04969 6.50523 5.41839
#
# Compressibility (1/GPa) = 0.04945775
#
# Stress axis : x y z
#
# Youngs Moduli (GPa) = 3.21848 6.26011 47.75050
#
# Poissons Ratio (x) = 1.33161 0.11295
# Poissons Ratio (y) = 0.68462 0.28108
# Poissons Ratio (z) = 0.00761 0.03685
#
# Static dielectric constant tensor:
#      x y z
#    x 3.188370 0.000000 0.000000 
#    y 0.000000 3.425570 0.000000 
#    z 0.000000 0.000000 3.108810 
# 
# 
# High freq. dielectric constant tensor:
#      x y z
#    x 1.580620 0.000000 0.000000 
#    y 0.000000 1.591730 0.000000 
#    z 0.000000 0.000000 1.636670 
# 
# From -- ./inp_files/9388.got.cif
#   From: 2010.03.12/outbox.cif.g09.slc.cpg/sg65_5_cif.got.tgz:9388.got - 2010.04.10 20:52:16.
