data_PCOD8265275
_publ_section_title
;
Structure prediction by ZEFSAII (Michael W. Deem and Ramdas Pophale) SiO2 
 PCOD8265275
Probable space group: C M M M
;
_chemical_formula_sum "Si O2"
_cell_formula_units_Z 96
_cell_length_a 17.209299
_cell_length_b 22.635758
_cell_length_c 18.761428
_cell_angle_alpha 90.000000
_cell_angle_beta 90.000000
_cell_angle_gamma 90.000000
_cell_volume 7308.430367
_symmetry_space_group_name_H-M "C M M M"
_symmetry_group_IT_number 65
_symmetry_cell_setting 'orthorhombic'
loop_
_space_group_symop_operation_xyz
x,y,z
-x,-y,z
x,-y,-z
-x,y,-z
-x,-y,-z
x,y,-z
-x,y,z
x,-y,z
1/2+x,1/2+y,z
1/2-x,1/2-y,z
1/2+x,1/2-y,-z
1/2-x,1/2+y,-z
1/2-x,1/2-y,-z
1/2+x,1/2+y,-z
1/2-x,1/2+y,z
1/2+x,1/2-y,z
loop_
_atom_site_type_symbol
_atom_site_label
_atom_site_fract_x
_atom_site_fract_y
_atom_site_fract_z
Si Si1 0.722989 0.624861 0.081221
Si Si2 0.590775 0.119852 0.278138
Si Si3 0.588942 0.000000 0.807010
Si Si4 0.777622 0.500000 0.917971
Si Si5 0.092097 0.433971 0.421666
Si Si6 0.411412 0.709426 0.918555
Si Si7 0.818743 0.293437 0.181204
O O1 0.724060 0.555980 0.101329
O O2 0.636501 0.649270 0.094313
O O3 0.785140 0.657519 0.129337
O O4 0.749022 0.635588 0.000000
O O5 0.500000 0.136692 0.273681
O O6 0.620076 0.110583 0.359719
O O7 0.640526 0.174312 0.247533
O O8 0.607160 0.058374 0.238335
O O9 0.500000 0.000000 0.832783
O O10 0.641630 0.000000 0.876538
O O11 0.802447 0.500000 0.000000
O O12 0.117573 0.410038 0.500000
O O13 0.126432 0.500000 0.410049
O O14 0.000000 0.438844 0.416726
O O15 0.500000 0.693968 0.901825
O O16 0.383308 0.759164 0.864139
O O17 0.400391 0.731989 0.000000
O O18 0.750000 0.250000 0.208602
#
# Coordination Sequence:
#
# PCOD8265275 Si02
#       7
#    16  16   8   8  16  16  16
#     4   9  17  28  41  55  72  97 127 158 193 233
#     4  10  17  26  40  59  81 100 122 157 190 218
#     4  10  18  27  39  57  79 103 127 154 190 224
#     4  10  18  29  41  53  75 105 129 152 190 238
#     4   8  13  22  37  57  79 101 123 146 178 221
#     4   9  17  29  42  55  71  93 127 170 203 222
#     4  10  18  27  40  55  74 102 132 157 183 226
#
# _framework density 13.135515
#
# number of rings (size 3 to 8) (size 9 to 14) (size 15 to 20)
#    0.000    2.667    2.500    1.500    0.000    2.167 
#    0.000    0.417    0.000    3.000    0.000    0.000 
#    0.000    0.000    0.000    0.000    0.000    0.000 
#
# Total GULP energy -594923.056544 kJ/mol
# GULP energy per Si atom -12394.230345 kJ/mol
# Density = 1.310562 g / cm^3
# Si number density = 13.135515 Si / 1000 Ang^3
#
#
#
# Elastic Constant Matrix: (Units=GPa)
#
#
# Indices 1 2 3 4 5 6 
#
# 1 66.7749 42.0097 45.7687 0.0000 0.0000 0.0000
# 2 42.0097 91.7189 54.8213 0.0000 0.0000 0.0000
# 3 45.7687 54.8213 89.5102 0.0000 0.0000 0.0000
# 4 0.0000 0.0000 0.0000 20.7209 0.0000 0.0000
# 5 0.0000 0.0000 0.0000 0.0000 12.0463 0.0000
# 6 0.0000 0.0000 0.0000 0.0000 0.0000 18.3543
#
#
#
# Elastic Compliance Matrix: (Units=1/GPa)
#
#
# Indices 1 2 3 4 5 6 
#
# 1 0.024993 -0.006008 -0.009099 0.000000 0.000000 0.000000
# 2 -0.006008 0.018643 -0.008346 0.000000 0.000000 0.000000
# 3 -0.009099 -0.008346 0.020936 0.000000 0.000000 0.000000
# 4 0.000000 0.000000 0.000000 0.048260 0.000000 0.000000
# 5 0.000000 0.000000 0.000000 0.000000 0.083013 0.000000
# 6 0.000000 0.000000 0.000000 0.000000 0.000000 0.054483
#
#
# Mechanical properties :
#
#
# Convention : Reuss Voigt Hill
#
# Bulk Modulus (GPa) = 56.61076 59.24481 57.92779
# Shear Modulus (GPa) = 16.49483 17.25125 16.87304
#
# Velocity S-wave (km/s) = 3.54749 3.62792 3.58793
# Velocity P-wave (km/s) = 7.74407 7.92147 7.83327
#
# Compressibility (1/GPa) = 0.01766449
#
# Stress axis : x y z
#
# Youngs Moduli (GPa) = 40.01177 53.63817 47.76407
#
# Poissons Ratio (x) = 0.32228 0.43462
# Poissons Ratio (y) = 0.24041 0.39864
# Poissons Ratio (z) = 0.36408 0.44767
#
# Static dielectric constant tensor:
#      x y z
#    x 2.474800 0.000000 0.000000 
#    y 0.000000 2.694060 0.000000 
#    z 0.000000 0.000000 2.712730 
# 
# 
# High freq. dielectric constant tensor:
#      x y z
#    x 1.476630 0.000000 0.000000 
#    y 0.000000 1.494760 0.000000 
#    z 0.000000 0.000000 1.488610 
# 
# From -- ./inp_files/54786.got.cif
#   From: 2010.03.12/outbox.cif.g09.slc.cpg/sg65_28_cif.got.tgz:54786.got - 2010.04.10 20:52:16.
