data_PCOD8265945
_publ_section_title
;
Structure prediction by ZEFSAII (Michael W. Deem and Ramdas Pophale) SiO2 
 PCOD8265945
Probable space group: C M M M
;
_chemical_formula_sum "Si O2"
_cell_formula_units_Z 104
_cell_length_a 31.259268
_cell_length_b 14.996829
_cell_length_c 13.777343
_cell_angle_alpha 90.000000
_cell_angle_beta 90.000000
_cell_angle_gamma 90.000000
_cell_volume 6458.679204
_symmetry_space_group_name_H-M "C M M M"
_symmetry_group_IT_number 65
_symmetry_cell_setting 'orthorhombic'
loop_
_space_group_symop_operation_xyz
x,y,z
-x,-y,z
x,-y,-z
-x,y,-z
-x,-y,-z
x,y,-z
-x,y,z
x,-y,z
1/2+x,1/2+y,z
1/2-x,1/2-y,z
1/2+x,1/2-y,-z
1/2-x,1/2+y,-z
1/2-x,1/2-y,-z
1/2+x,1/2+y,-z
1/2-x,1/2+y,z
1/2+x,1/2-y,z
loop_
_atom_site_type_symbol
_atom_site_label
_atom_site_fract_x
_atom_site_fract_y
_atom_site_fract_z
Si Si1 0.500000 0.105970 0.608222
Si Si2 0.573935 0.897738 0.747676
Si Si3 0.130968 0.102938 0.386550
Si Si4 0.951324 0.102880 0.260708
Si Si5 0.450412 0.246688 0.890925
Si Si6 0.204143 0.234103 0.609672
Si Si7 0.350819 0.097925 0.394464
O O1 0.500000 0.148069 0.500000
O O2 0.459500 0.139856 0.668895
O O3 0.500000 0.000000 0.599423
O O4 0.574227 0.836390 0.842635
O O5 0.618931 0.887626 0.696373
O O6 0.563866 0.000000 0.777385
O O7 0.125326 0.123549 0.500000
O O8 0.084991 0.127839 0.339596
O O9 0.169965 0.163918 0.343136
O O10 0.142758 0.000000 0.366801
O O11 0.942166 0.161304 0.165496
O O12 0.000000 0.121086 0.300685
O O13 0.946978 0.000000 0.229672
O O14 0.500000 0.221359 0.891466
O O15 0.432849 0.258937 0.000000
O O16 0.212416 0.200027 0.500000
O O17 0.250000 0.250000 0.663498
O O18 0.186727 0.333050 0.612704
O O19 0.374702 0.107967 0.500000
O O20 0.330062 0.000000 0.387732
#
# Coordination Sequence:
#
# PCOD8265945 Si02
#       7
#     8  16  16  16  16  16  16
#     4   9  16  26  41  61  86 117 151 181 209 247
#     4  10  18  29  44  63  89 119 150 184 220 261
#     4   9  17  29  46  68  94 123 152 185 226 271
#     4   9  18  32  49  67  89 118 153 192 232 272
#     4  10  20  32  45  61  85 117 155 196 231 266
#     4   9  17  28  42  61  88 123 158 188 217 256
#     4   9  17  28  43  63  88 118 148 181 221 262
#
# _framework density 16.102363
#
# number of rings (size 3 to 8) (size 9 to 14) (size 15 to 20)
#    0.000    2.692    0.769    1.385    0.000    3.385 
#    0.000    7.692    0.000    0.000    0.000    0.000 
#    0.000    9.846    0.000   27.077    0.000    1.538 
#
# Total GULP energy -644313.843570 kJ/mol
# GULP energy per Si atom -12390.650838 kJ/mol
# Density = 1.606571 g / cm^3
# Si number density = 16.102363 Si / 1000 Ang^3
#
#
#
# Elastic Constant Matrix: (Units=GPa)
#
#
# Indices 1 2 3 4 5 6 
#
# 1 99.6282 53.8904 40.2503 0.0000 0.0000 0.0000
# 2 53.8904 87.2560 43.1347 0.0000 0.0000 0.0000
# 3 40.2503 43.1347 78.6407 0.0000 0.0000 0.0000
# 4 0.0000 0.0000 0.0000 22.6345 0.0000 0.0000
# 5 0.0000 0.0000 0.0000 0.0000 -7.3483 0.0000
# 6 0.0000 0.0000 0.0000 0.0000 0.0000 19.2596
#
#
#
# Elastic Compliance Matrix: (Units=1/GPa)
#
#
# Indices 1 2 3 4 5 6 
#
# 1 0.015845 -0.007926 -0.003762 0.000000 0.000000 0.000000
# 2 -0.007926 0.019689 -0.006743 0.000000 0.000000 0.000000
# 3 -0.003762 -0.006743 0.018340 0.000000 0.000000 0.000000
# 4 0.000000 0.000000 0.000000 0.044180 0.000000 0.000000
# 5 0.000000 0.000000 0.000000 0.000000 -0.136086 0.000000
# 6 0.000000 0.000000 0.000000 0.000000 0.000000 0.051922
#
#
# Mechanical properties :
#
#
# Convention : Reuss Voigt Hill
#
# Bulk Modulus (GPa) = 58.78301 60.00841 59.39571
# Shear Modulus (GPa) = 88.61707 15.45911 52.03809
#
# Velocity S-wave (km/s) = 7.42651 3.10183 5.69098
# Velocity P-wave (km/s) = 10.49393 7.08352 8.95262
#
# Compressibility (1/GPa) = 0.01701172
#
# Stress axis : x y z
#
# Youngs Moduli (GPa) = 63.11318 50.78984 54.52537
#
# Poissons Ratio (x) = 0.40256 0.20514
# Poissons Ratio (y) = 0.50023 0.36765
# Poissons Ratio (z) = 0.23745 0.34246
#
# Static dielectric constant tensor:
#      x y z
#    x 3.013450 0.000000 0.000000 
#    y 0.000000 3.175530 0.000000 
#    z 0.000000 0.000000 2.871280 
# 
# 
# High freq. dielectric constant tensor:
#      x y z
#    x 1.602170 0.000000 0.000000 
#    y 0.000000 1.632520 0.000000 
#    z 0.000000 0.000000 1.577380 
# 
# From -- ./inp_files/48029.got.cif
#   From: 2010.03.12/outbox.cif.g09.slc.cpg/sg65_25_cif.got.tgz:48029.got - 2010.04.10 20:52:16.
