data_PCOD8265459
_publ_section_title
;
Structure prediction by ZEFSAII (Michael W. Deem and Ramdas Pophale) SiO2 
 PCOD8265459
Probable space group: C M M M
;
_chemical_formula_sum "Si O2"
_cell_formula_units_Z 128
_cell_length_a 17.492884
_cell_length_b 26.395351
_cell_length_c 17.252920
_cell_angle_alpha 90.000000
_cell_angle_beta 90.000000
_cell_angle_gamma 90.000000
_cell_volume 7966.204781
_symmetry_space_group_name_H-M "C M M M"
_symmetry_group_IT_number 65
_symmetry_cell_setting 'orthorhombic'
loop_
_space_group_symop_operation_xyz
x,y,z
-x,-y,z
x,-y,-z
-x,y,-z
-x,-y,-z
x,y,-z
-x,y,z
x,-y,z
1/2+x,1/2+y,z
1/2-x,1/2-y,z
1/2+x,1/2-y,-z
1/2-x,1/2+y,-z
1/2-x,1/2-y,-z
1/2+x,1/2+y,-z
1/2-x,1/2+y,z
1/2+x,1/2-y,z
loop_
_atom_site_type_symbol
_atom_site_label
_atom_site_fract_x
_atom_site_fract_y
_atom_site_fract_z
Si Si1 0.809822 0.866502 0.678895
Si Si2 0.175185 0.354628 0.791640
Si Si3 0.776832 0.192960 0.908769
Si Si4 0.089389 0.441527 0.284565
Si Si5 0.165681 0.230864 0.584005
Si Si6 0.416962 0.228444 0.279547
Si Si7 0.586121 0.665402 0.803329
Si Si8 0.288093 0.058794 0.411831
O O1 0.736792 0.845022 0.724394
O O2 0.838811 0.825630 0.617580
O O3 0.875330 0.876501 0.745145
O O4 0.784670 0.916437 0.631862
O O5 0.216341 0.348174 0.874840
O O6 0.130538 0.408129 0.782606
O O7 0.116630 0.308754 0.784470
O O8 0.750000 0.250000 0.884771
O O9 0.861239 0.178061 0.877726
O O10 0.778257 0.186535 0.000000
O O11 0.098803 0.500000 0.259778
O O12 0.132325 0.430655 0.366186
O O13 0.000000 0.427230 0.293803
O O14 0.124635 0.229857 0.500000
O O15 0.250000 0.250000 0.572715
O O16 0.126439 0.272079 0.638992
O O17 0.500000 0.207514 0.298466
O O18 0.418493 0.284301 0.246476
O O19 0.500000 0.648223 0.828672
O O20 0.296937 0.079611 0.500000
O O21 0.269002 0.000000 0.413115
#
# Coordination Sequence:
#
# PCOD8265459 Si02
#       8
#    16  16  16  16  16  16  16  16
#     4   9  17  28  47  64  86 121 160 193 229 277
#     4  10  17  30  49  66  91 122 158 195 228 275
#     4  10  19  31  50  74 100 125 151 186 229 284
#     4   9  18  31  47  69  96 130 169 205 243 281
#     4  10  18  27  40  58  83 116 154 193 231 272
#     4  10  18  28  42  61  86 119 156 190 227 268
#     4   9  18  30  47  69  94 124 155 187 225 278
#     4   9  17  29  46  69  95 124 162 207 250 288
#
# _framework density 16.067876999999999
#
# number of rings (size 3 to 8) (size 9 to 14) (size 15 to 20)
#    0.000    2.500    2.500    0.750    0.000    0.750 
#    0.000    1.250    0.000    4.875    0.000    1.750 
#    0.000    0.000    0.000    9.750    0.000    0.000 
#
# Total GULP energy -792978.695496 kJ/mol
# GULP energy per Si atom -12390.292117 kJ/mol
# Density = 1.603131 g / cm^3
# Si number density = 16.067877 Si / 1000 Ang^3
#
#
#
# Elastic Constant Matrix: (Units=GPa)
#
#
# Indices 1 2 3 4 5 6 
#
# 1 112.4077 36.0752 50.9269 0.0000 0.0000 0.0000
# 2 36.0752 47.4117 31.7336 0.0000 0.0000 0.0000
# 3 50.9269 31.7336 98.0284 0.0000 0.0000 0.0000
# 4 0.0000 0.0000 0.0000 20.2858 0.0000 0.0000
# 5 0.0000 0.0000 0.0000 0.0000 24.9063 0.0000
# 6 0.0000 0.0000 0.0000 0.0000 0.0000 19.8695
#
#
#
# Elastic Compliance Matrix: (Units=1/GPa)
#
#
# Indices 1 2 3 4 5 6 
#
# 1 0.013224 -0.006975 -0.004612 0.000000 0.000000 0.000000
# 2 -0.006975 0.030605 -0.006284 0.000000 0.000000 0.000000
# 3 -0.004612 -0.006284 0.014631 0.000000 0.000000 0.000000
# 4 0.000000 0.000000 0.000000 0.049296 0.000000 0.000000
# 5 0.000000 0.000000 0.000000 0.000000 0.040150 0.000000
# 6 0.000000 0.000000 0.000000 0.000000 0.000000 0.050328
#
#
# Mechanical properties :
#
#
# Convention : Reuss Voigt Hill
#
# Bulk Modulus (GPa) = 44.01705 55.03547 49.52626
# Shear Modulus (GPa) = 20.69962 22.28646 21.49304
#
# Velocity S-wave (km/s) = 3.59313 3.72831 3.66134
# Velocity P-wave (km/s) = 6.68341 7.27049 6.98312
#
# Compressibility (1/GPa) = 0.02271847
#
# Stress axis : x y z
#
# Youngs Moduli (GPa) = 75.61813 32.67435 68.34646
#
# Poissons Ratio (x) = 0.22791 0.31523
# Poissons Ratio (y) = 0.52746 0.42947
# Poissons Ratio (z) = 0.34876 0.20532
#
# Static dielectric constant tensor:
#      x y z
#    x 3.345500 0.000000 0.000000 
#    y 0.000000 2.922860 0.000000 
#    z 0.000000 0.000000 3.025470 
# 
# 
# High freq. dielectric constant tensor:
#      x y z
#    x 1.617280 0.000000 0.000000 
#    y 0.000000 1.592640 0.000000 
#    z 0.000000 0.000000 1.604310 
# 
# From -- ./inp_files/55113.got.cif
#   From: 2010.03.12/outbox.cif.g09.slc.cpg/sg65_28_cif.got.tgz:55113.got - 2010.04.10 20:52:16.
