data_PCOD8265162
_publ_section_title
;
Structure prediction by ZEFSAII (Michael W. Deem and Ramdas Pophale) SiO2 
 PCOD8265162
Probable space group: C M M M
;
_chemical_formula_sum "Si O2"
_cell_formula_units_Z 72
_cell_length_a 19.427821
_cell_length_b 27.525032
_cell_length_c 8.838660
_cell_angle_alpha 90.000000
_cell_angle_beta 90.000000
_cell_angle_gamma 90.000000
_cell_volume 4726.485762
_symmetry_space_group_name_H-M "C M M M"
_symmetry_group_IT_number 65
_symmetry_cell_setting 'orthorhombic'
loop_
_space_group_symop_operation_xyz
x,y,z
-x,-y,z
x,-y,-z
-x,y,-z
-x,-y,-z
x,y,-z
-x,y,z
x,-y,z
1/2+x,1/2+y,z
1/2-x,1/2-y,z
1/2+x,1/2-y,-z
1/2-x,1/2+y,-z
1/2-x,1/2-y,-z
1/2+x,1/2+y,-z
1/2-x,1/2+y,z
1/2+x,1/2-y,z
loop_
_atom_site_type_symbol
_atom_site_label
_atom_site_fract_x
_atom_site_fract_y
_atom_site_fract_z
Si Si1 0.351701 0.272184 0.820431
Si Si2 0.719256 0.173987 0.179225
Si Si3 0.500000 0.160836 0.328463
Si Si4 0.078751 0.500000 0.820957
Si Si5 0.368410 0.095713 0.675059
Si Si6 0.500000 0.260969 0.822710
O O1 0.327722 0.218991 0.762869
O O2 0.298101 0.313949 0.771111
O O3 0.428803 0.283896 0.755994
O O4 0.352526 0.269229 0.000000
O O5 0.697907 0.124428 0.261888
O O6 0.712956 0.166807 0.000000
O O7 0.500000 0.181015 0.500000
O O8 0.565671 0.128432 0.295192
O O9 0.500000 0.203922 0.209190
O O10 0.121383 0.453937 0.764313
O O11 0.000000 0.500000 0.757117
O O12 0.077164 0.500000 0.000000
O O13 0.357136 0.083598 0.500000
O O14 0.500000 0.269198 0.000000
#
# Coordination Sequence:
#
# PCOD8265162 Si02
#       6
#    16  16   8   8  16   8
#     4   8  15  25  42  65  88 113 148 189 222 253
#     4   9  16  29  44  62  87 116 149 186 222 259
#     4  10  20  29  39  60  89 118 145 181 226 259
#     4  11  23  35  49  67  85 112 151 188 221 259
#     4  11  21  33  46  62  88 119 149 185 225 262
#     4  10  16  26  45  65  84 117 158 188 216 257
#
# _framework density 15.233305
#
# number of rings (size 3 to 8) (size 9 to 14) (size 15 to 20)
#    0.000    2.333    3.333    2.333    0.000    1.333 
#    0.000    3.333    0.000    0.000    0.000    0.000 
#    0.000    0.889    0.000   10.444    0.000    2.000 
#
# Total GULP energy -446174.832635 kJ/mol
# GULP energy per Si atom -12393.745351 kJ/mol
# Density = 1.519863 g / cm^3
# Si number density = 15.233305 Si / 1000 Ang^3
#
#
#
# Elastic Constant Matrix: (Units=GPa)
#
#
# Indices 1 2 3 4 5 6 
#
# 1 133.9519 53.4797 24.4510 0.0000 0.0000 0.0000
# 2 53.4797 83.7604 24.4188 0.0000 0.0000 0.0000
# 3 24.4510 24.4188 35.3907 0.0000 0.0000 0.0000
# 4 0.0000 0.0000 0.0000 13.9710 0.0000 0.0000
# 5 0.0000 0.0000 0.0000 0.0000 14.5797 0.0000
# 6 0.0000 0.0000 0.0000 0.0000 0.0000 30.7382
#
#
#
# Elastic Compliance Matrix: (Units=1/GPa)
#
#
# Indices 1 2 3 4 5 6 
#
# 1 0.010306 -0.005639 -0.003230 0.000000 0.000000 0.000000
# 2 -0.005639 0.018030 -0.008545 0.000000 0.000000 0.000000
# 3 -0.003230 -0.008545 0.036383 0.000000 0.000000 0.000000
# 4 0.000000 0.000000 0.000000 0.071577 0.000000 0.000000
# 5 0.000000 0.000000 0.000000 0.000000 0.068588 0.000000
# 6 0.000000 0.000000 0.000000 0.000000 0.000000 0.032533
#
#
# Mechanical properties :
#
#
# Convention : Reuss Voigt Hill
#
# Bulk Modulus (GPa) = 33.45269 50.86688 42.15979
# Shear Modulus (GPa) = 17.71742 21.90801 19.81271
#
# Velocity S-wave (km/s) = 3.41408 3.79643 3.61032
# Velocity P-wave (km/s) = 6.12774 7.25820 6.71680
#
# Compressibility (1/GPa) = 0.02989296
#
# Stress axis : x y z
#
# Youngs Moduli (GPa) = 97.02935 55.46284 27.48534
#
# Poissons Ratio (x) = 0.31274 0.08877
# Poissons Ratio (y) = 0.54712 0.23485
# Poissons Ratio (z) = 0.31339 0.47391
#
# Static dielectric constant tensor:
#      x y z
#    x 3.397260 0.000000 0.000000 
#    y 0.000000 2.709480 0.000000 
#    z 0.000000 0.000000 2.739970 
# 
# 
# High freq. dielectric constant tensor:
#      x y z
#    x 1.581920 0.000000 0.000000 
#    y 0.000000 1.549570 0.000000 
#    z 0.000000 0.000000 1.569670 
# 
# From -- ./inp_files/11317.got.cif
#   From: 2010.03.12/outbox.cif.g09.slc.cpg/sg65_6_cif.got.tgz:11317.got - 2010.04.10 20:52:16.
