data_PCOD8265390
_publ_section_title
;
Structure prediction by ZEFSAII (Michael W. Deem and Ramdas Pophale) SiO2 
 PCOD8265390
Probable space group: C M M M
;
_chemical_formula_sum "Si O2"
_cell_formula_units_Z 104
_cell_length_a 22.477162
_cell_length_b 29.676691
_cell_length_c 9.024353
_cell_angle_alpha 90.000000
_cell_angle_beta 90.000000
_cell_angle_gamma 90.000000
_cell_volume 6019.674736
_symmetry_space_group_name_H-M "C M M M"
_symmetry_group_IT_number 65
_symmetry_cell_setting 'orthorhombic'
loop_
_space_group_symop_operation_xyz
x,y,z
-x,-y,z
x,-y,-z
-x,y,-z
-x,-y,-z
x,y,-z
-x,y,z
x,-y,z
1/2+x,1/2+y,z
1/2-x,1/2-y,z
1/2+x,1/2-y,-z
1/2-x,1/2+y,-z
1/2-x,1/2-y,-z
1/2+x,1/2+y,-z
1/2-x,1/2+y,z
1/2+x,1/2-y,z
loop_
_atom_site_type_symbol
_atom_site_label
_atom_site_fract_x
_atom_site_fract_y
_atom_site_fract_z
Si Si1 0.500000 0.449518 0.824156
Si Si2 0.654310 0.052111 0.172350
Si Si3 0.429703 0.119216 0.330215
Si Si4 0.066023 0.194995 0.175740
Si Si5 0.429169 0.792931 0.165383
Si Si6 0.117042 0.102262 0.824468
Si Si7 0.723874 0.551754 0.325574
O O1 0.500000 0.500000 0.758929
O O2 0.441184 0.424240 0.767816
O O3 0.500000 0.450011 0.000000
O O4 0.598858 0.079769 0.234240
O O5 0.713845 0.067219 0.256212
O O6 0.640084 0.000000 0.202476
O O7 0.662911 0.062346 0.000000
O O8 0.410588 0.113893 0.500000
O O9 0.500000 0.115235 0.308856
O O10 0.406254 0.167783 0.273500
O O11 0.092333 0.243777 0.225897
O O12 0.109729 0.154572 0.223419
O O13 0.000000 0.186798 0.243548
O O14 0.059616 0.195355 0.000000
O O15 0.500000 0.791672 0.160186
O O16 0.404147 0.802261 0.000000
O O17 0.173634 0.083388 0.740718
O O18 0.125946 0.096532 0.000000
O O19 0.727391 0.558608 0.500000
O O20 0.709915 0.500000 0.282913
#
# Coordination Sequence:
#
# PCOD8265390 Si02
#       7
#     8  16  16  16  16  16  16
#     4   9  16  24  39  67  99 129 163 209 258 297
#     4  10  21  37  57  78  98 125 165 207 242 283
#     4  10  20  33  51  78 110 138 161 188 234 292
#     4   8  13  24  44  71  99 128 165 211 256 293
#     4   8  14  26  46  70  98 132 168 203 240 285
#     4  10  17  28  48  72  98 128 169 215 255 297
#     4  10  21  36  51  68  95 132 170 206 249 301
#
# _framework density 17.276679999999999
#
# number of rings (size 3 to 8) (size 9 to 14) (size 15 to 20)
#    0.000    2.692    0.769    2.769    0.000    3.692 
#    0.000    2.692    0.000    3.231    0.000    6.462 
#    0.000    0.000    0.000    0.000    0.000    0.000 
#
# Total GULP energy -644658.162664 kJ/mol
# GULP energy per Si atom -12397.272359 kJ/mol
# Density = 1.723736 g / cm^3
# Si number density = 17.276680 Si / 1000 Ang^3
#
#
#
# Elastic Constant Matrix: (Units=GPa)
#
#
# Indices 1 2 3 4 5 6 
#
# 1 61.3648 53.1158 34.7487 0.0000 0.0000 0.0000
# 2 53.1158 125.5001 48.2217 0.0000 0.0000 0.0000
# 3 34.7487 48.2217 65.6169 0.0000 0.0000 0.0000
# 4 0.0000 0.0000 0.0000 19.5586 0.0000 0.0000
# 5 0.0000 0.0000 0.0000 0.0000 21.0291 0.0000
# 6 0.0000 0.0000 0.0000 0.0000 0.0000 14.6012
#
#
#
# Elastic Compliance Matrix: (Units=1/GPa)
#
#
# Indices 1 2 3 4 5 6 
#
# 1 0.028971 -0.008871 -0.008822 0.000000 0.000000 0.000000
# 2 -0.008871 0.013820 -0.005458 0.000000 0.000000 0.000000
# 3 -0.008822 -0.005458 0.023923 0.000000 0.000000 0.000000
# 4 0.000000 0.000000 0.000000 0.051128 0.000000 0.000000
# 5 0.000000 0.000000 0.000000 0.000000 0.047553 0.000000
# 6 0.000000 0.000000 0.000000 0.000000 0.000000 0.068487
#
#
# Mechanical properties :
#
#
# Convention : Reuss Voigt Hill
#
# Bulk Modulus (GPa) = 48.99602 58.29491 53.64546
# Shear Modulus (GPa) = 17.42218 18.79751 18.10984
#
# Velocity S-wave (km/s) = 3.17901 3.30210 3.24114
# Velocity P-wave (km/s) = 6.47271 6.95369 6.71751
#
# Compressibility (1/GPa) = 0.02040982
#
# Stress axis : x y z
#
# Youngs Moduli (GPa) = 34.51765 72.35841 41.80025
#
# Poissons Ratio (x) = 0.64193 0.36878
# Poissons Ratio (y) = 0.30622 0.22816
# Poissons Ratio (z) = 0.30453 0.39495
#
# Static dielectric constant tensor:
#      x y z
#    x 2.979010 0.000000 0.000000 
#    y 0.000000 3.612070 0.000000 
#    z 0.000000 0.000000 3.066790 
# 
# 
# High freq. dielectric constant tensor:
#      x y z
#    x 1.637390 0.000000 0.000000 
#    y 0.000000 1.678800 0.000000 
#    z 0.000000 0.000000 1.648320 
# 
# From -- ./inp_files/14701.got.cif
#   From: 2010.03.12/outbox.cif.g09.slc.cpg/sg65_8_cif.got.tgz:14701.got - 2010.04.10 20:52:16.
