data_PCOD8265334
_publ_section_title
;
Structure prediction by ZEFSAII (Michael W. Deem and Ramdas Pophale) SiO2 
 PCOD8265334
Probable space group: C M M M
;
_chemical_formula_sum "Si O2"
_cell_formula_units_Z 104
_cell_length_a 8.616254
_cell_length_b 30.809202
_cell_length_c 22.331297
_cell_angle_alpha 90.000000
_cell_angle_beta 90.000000
_cell_angle_gamma 90.000000
_cell_volume 5928.064091
_symmetry_space_group_name_H-M "C M M M"
_symmetry_group_IT_number 65
_symmetry_cell_setting 'orthorhombic'
loop_
_space_group_symop_operation_xyz
x,y,z
-x,-y,z
x,-y,-z
-x,y,-z
-x,-y,-z
x,y,-z
-x,y,z
x,-y,z
1/2+x,1/2+y,z
1/2-x,1/2-y,z
1/2+x,1/2-y,-z
1/2-x,1/2+y,-z
1/2-x,1/2-y,-z
1/2+x,1/2+y,-z
1/2-x,1/2+y,z
1/2+x,1/2-y,z
loop_
_atom_site_type_symbol
_atom_site_label
_atom_site_fract_x
_atom_site_fract_y
_atom_site_fract_z
Si Si1 0.317127 0.793781 0.352457
Si Si2 0.183146 0.548732 0.122300
Si Si3 0.177994 0.449991 0.569051
Si Si4 0.674662 0.448457 0.000000
Si Si5 0.316312 0.707239 0.219840
Si Si6 0.816586 0.380759 0.216666
Si Si7 0.680564 0.618489 0.346914
O O1 0.500000 0.794744 0.360955
O O2 0.250000 0.750000 0.383770
O O3 0.270409 0.793540 0.283242
O O4 0.243584 0.837776 0.379790
O O5 0.249308 0.500000 0.132886
O O6 0.239868 0.578709 0.176871
O O7 0.000000 0.547386 0.118928
O O8 0.243227 0.569109 0.059930
O O9 0.218262 0.441409 0.500000
O O10 0.206975 0.500000 0.585381
O O11 0.292017 0.421666 0.609304
O O12 0.000000 0.437321 0.582357
O O13 0.686093 0.500000 0.000000
O O14 0.500000 0.431296 0.000000
O O15 0.500000 0.710406 0.227640
O O16 0.250000 0.750000 0.185043
O O17 0.266988 0.662120 0.188691
O O18 0.768311 0.390205 0.284709
O O19 0.000000 0.374039 0.213266
O O20 0.500000 0.623986 0.332944
#
# Coordination Sequence:
#
# PCOD8265334 Si02
#       7
#    16  16  16   8  16  16  16
#     4  10  17  28  46  68  95 126 160 195 234 282
#     4   9  18  32  49  68  93 127 164 199 234 277
#     4   9  19  37  58  75  92 121 163 205 242 284
#     4   9  17  29  47  69  92 121 158 199 239 279
#     4  10  17  27  43  64  92 124 158 196 238 283
#     4  10  19  31  47  70  99 130 164 199 238 283
#     4  11  21  32  48  73 103 131 159 195 242 291
#
# _framework density 17.543669999999999
#
# number of rings (size 3 to 8) (size 9 to 14) (size 15 to 20)
#    0.000    2.231    0.000    8.077    0.000    3.385 
#    0.000    2.308    0.000    0.462    0.000    0.538 
#    0.000    0.000    0.000    0.000    0.000    0.000 
#
# Total GULP energy -644593.744213 kJ/mol
# GULP energy per Si atom -12396.033543 kJ/mol
# Density = 1.750374 g / cm^3
# Si number density = 17.543670 Si / 1000 Ang^3
#
#
#
# Elastic Constant Matrix: (Units=GPa)
#
#
# Indices 1 2 3 4 5 6 
#
# 1 59.7338 34.2238 15.9655 0.0000 0.0000 0.0000
# 2 34.2238 121.2308 49.8323 0.0000 0.0000 0.0000
# 3 15.9655 49.8323 57.1055 0.0000 0.0000 0.0000
# 4 0.0000 0.0000 0.0000 1.4528 0.0000 0.0000
# 5 0.0000 0.0000 0.0000 0.0000 12.8409 0.0000
# 6 0.0000 0.0000 0.0000 0.0000 0.0000 30.6022
#
#
#
# Elastic Compliance Matrix: (Units=1/GPa)
#
#
# Indices 1 2 3 4 5 6 
#
# 1 0.020010 -0.005223 -0.001037 0.000000 0.000000 0.000000
# 2 -0.005223 0.014226 -0.010954 0.000000 0.000000 0.000000
# 3 -0.001037 -0.010954 0.027360 0.000000 0.000000 0.000000
# 4 0.000000 0.000000 0.000000 0.688336 0.000000 0.000000
# 5 0.000000 0.000000 0.000000 0.000000 0.077876 0.000000
# 6 0.000000 0.000000 0.000000 0.000000 0.000000 0.032677
#
#
# Mechanical properties :
#
#
# Convention : Reuss Voigt Hill
#
# Bulk Modulus (GPa) = 36.80621 48.67924 42.74273
# Shear Modulus (GPa) = 5.53116 18.18239 11.85678
#
# Velocity S-wave (km/s) = 1.77754 3.22282 2.60252
# Velocity P-wave (km/s) = 5.02376 6.45418 5.78337
#
# Compressibility (1/GPa) = 0.02716933
#
# Stress axis : x y z
#
# Youngs Moduli (GPa) = 49.97394 70.29555 36.54987
#
# Poissons Ratio (x) = 0.36714 0.03790
# Poissons Ratio (y) = 0.26100 0.40035
# Poissons Ratio (z) = 0.05182 0.76999
#
# Static dielectric constant tensor:
#      x y z
#    x 3.243910 0.000000 0.000000 
#    y 0.000000 4.096860 0.000000 
#    z 0.000000 0.000000 2.917960 
# 
# 
# High freq. dielectric constant tensor:
#      x y z
#    x 1.688510 0.000000 0.000000 
#    y 0.000000 1.688750 0.000000 
#    z 0.000000 0.000000 1.627680 
# 
# From -- ./inp_files/68529.got.cif
#   From: 2010.03.12/outbox.cif.g09.slc.cpg/sg65_35_cif.got.tgz:68529.got - 2010.04.10 20:52:16.
