data_PCOD8265839
_publ_section_title
;
Structure prediction by ZEFSAII (Michael W. Deem and Ramdas Pophale) SiO2 
 PCOD8265839
Probable space group: C M M M
;
_chemical_formula_sum "Si O2"
_cell_formula_units_Z 128
_cell_length_a 9.392903
_cell_length_b 29.617669
_cell_length_c 27.670647
_cell_angle_alpha 90.000000
_cell_angle_beta 90.000000
_cell_angle_gamma 90.000000
_cell_volume 7697.860324
_symmetry_space_group_name_H-M "C M M M"
_symmetry_group_IT_number 65
_symmetry_cell_setting 'orthorhombic'
loop_
_space_group_symop_operation_xyz
x,y,z
-x,-y,z
x,-y,-z
-x,y,-z
-x,-y,-z
x,y,-z
-x,y,z
x,-y,z
1/2+x,1/2+y,z
1/2-x,1/2-y,z
1/2+x,1/2-y,-z
1/2-x,1/2+y,-z
1/2-x,1/2-y,-z
1/2+x,1/2+y,-z
1/2-x,1/2+y,z
1/2+x,1/2-y,z
loop_
_atom_site_type_symbol
_atom_site_label
_atom_site_fract_x
_atom_site_fract_y
_atom_site_fract_z
Si Si1 0.666491 0.295334 0.445180
Si Si2 0.334751 0.705903 0.167011
Si Si3 0.335928 0.948859 0.056484
Si Si4 0.334114 0.293940 0.722405
Si Si5 0.170034 0.049372 0.676130
Si Si6 0.668336 0.640844 0.638230
Si Si7 0.333066 0.449435 0.216280
Si Si8 0.331406 0.610057 0.870288
O O1 0.695999 0.311128 0.500000
O O2 0.500000 0.285838 0.436460
O O3 0.750000 0.250000 0.432701
O O4 0.726613 0.334293 0.409675
O O5 0.500000 0.717626 0.162108
O O6 0.250000 0.750000 0.149214
O O7 0.296909 0.693222 0.222422
O O8 0.293392 0.663168 0.133698
O O9 0.500000 0.941459 0.070513
O O10 0.241336 0.911524 0.083077
O O11 0.289312 0.000000 0.070473
O O12 0.312335 0.941069 0.000000
O O13 0.500000 0.283589 0.716032
O O14 0.250000 0.250000 0.705482
O O15 0.284419 0.334210 0.687411
O O16 0.226912 0.089255 0.641028
O O17 0.230632 0.058380 0.730161
O O18 0.000000 0.049756 0.678363
O O19 0.222288 0.000000 0.657483
O O20 0.500000 0.639689 0.634847
O O21 0.500000 0.441040 0.219393
O O22 0.298041 0.500000 0.198416
O O23 0.268787 0.414667 0.177456
O O24 0.500000 0.602875 0.874742
#
# Coordination Sequence:
#
# PCOD8265839 Si02
#       8
#    16  16  16  16  16  16  16  16
#     4   9  17  28  41  58  81 106 132 167 211 254
#     4   9  18  30  43  62  89 118 146 178 214 251
#     4   9  19  35  51  68  93 121 144 168 205 255
#     4   9  16  26  40  59  85 113 140 171 207 249
#     4   8  13  21  34  54  81 111 140 168 200 243
#     4   9  15  23  37  55  77 108 141 171 206 247
#     4   8  13  21  35  59  89 113 133 165 209 250
#     4  10  18  28  46  70  91 112 143 181 216 249
#
# _framework density 16.627996
#
# number of rings (size 3 to 8) (size 9 to 14) (size 15 to 20)
#    0.000    3.125    0.000    2.625    0.000    4.500 
#    0.000    0.625    0.000    0.750    0.000    3.500 
#    0.000    3.000    0.000    3.125    0.000    3.250 
#
# Total GULP energy -793166.796017 kJ/mol
# GULP energy per Si atom -12393.231188 kJ/mol
# Density = 1.659015 g / cm^3
# Si number density = 16.627996 Si / 1000 Ang^3
#
#
#
# Elastic Constant Matrix: (Units=GPa)
#
#
# Indices 1 2 3 4 5 6 
#
# 1 27.3399 38.3247 26.3009 0.0000 0.0000 0.0000
# 2 38.3247 147.3948 72.0422 0.0000 0.0000 0.0000
# 3 26.3009 72.0422 78.5521 0.0000 0.0000 0.0000
# 4 0.0000 0.0000 0.0000 29.4450 0.0000 0.0000
# 5 0.0000 0.0000 0.0000 0.0000 14.2271 0.0000
# 6 0.0000 0.0000 0.0000 0.0000 0.0000 20.7156
#
#
#
# Elastic Compliance Matrix: (Units=1/GPa)
#
#
# Indices 1 2 3 4 5 6 
#
# 1 0.062293 -0.010880 -0.010879 0.000000 0.000000 0.000000
# 2 -0.010880 0.014197 -0.009378 0.000000 0.000000 0.000000
# 3 -0.010879 -0.009378 0.024973 0.000000 0.000000 0.000000
# 4 0.000000 0.000000 0.000000 0.033962 0.000000 0.000000
# 5 0.000000 0.000000 0.000000 0.000000 0.070289 0.000000
# 6 0.000000 0.000000 0.000000 0.000000 0.000000 0.048273
#
#
# Mechanical properties :
#
#
# Convention : Reuss Voigt Hill
#
# Bulk Modulus (GPa) = 25.51622 58.51360 42.01491
# Shear Modulus (GPa) = 15.18270 20.65214 17.91742
#
# Velocity S-wave (km/s) = 3.02500 3.52804 3.28616
# Velocity P-wave (km/s) = 5.25162 7.20155 6.30245
#
# Compressibility (1/GPa) = 0.03919076
#
# Stress axis : x y z
#
# Youngs Moduli (GPa) = 16.05316 70.43819 40.04275
#
# Poissons Ratio (x) = 0.76635 0.43562
# Poissons Ratio (y) = 0.17465 0.37550
# Poissons Ratio (z) = 0.17464 0.66054
#
# Static dielectric constant tensor:
#      x y z
#    x 2.737990 0.000000 0.000000 
#    y 0.000000 3.378070 0.000000 
#    z 0.000000 0.000000 3.125390 
# 
# 
# High freq. dielectric constant tensor:
#      x y z
#    x 1.595160 0.000000 0.000000 
#    y 0.000000 1.645540 0.000000 
#    z 0.000000 0.000000 1.624730 
# 
# From -- ./inp_files/69275.got.cif
#   From: 2010.03.12/outbox.cif.g09.slc.cpg/sg65_35_cif.got.tgz:69275.got - 2010.04.10 20:52:16.
