data_PCOD8265266
_publ_section_title
;
Structure prediction by ZEFSAII (Michael W. Deem and Ramdas Pophale) SiO2 
 PCOD8265266
Probable space group: C M M M
;
_chemical_formula_sum "Si O2"
_cell_formula_units_Z 120
_cell_length_a 13.858435
_cell_length_b 28.104129
_cell_length_c 21.315657
_cell_angle_alpha 90.000000
_cell_angle_beta 90.000000
_cell_angle_gamma 90.000000
_cell_volume 8302.005995
_symmetry_space_group_name_H-M "C M M M"
_symmetry_group_IT_number 65
_symmetry_cell_setting 'orthorhombic'
loop_
_space_group_symop_operation_xyz
x,y,z
-x,-y,z
x,-y,-z
-x,y,-z
-x,-y,-z
x,y,-z
-x,y,z
x,-y,z
1/2+x,1/2+y,z
1/2-x,1/2-y,z
1/2+x,1/2-y,-z
1/2-x,1/2+y,-z
1/2-x,1/2-y,-z
1/2+x,1/2+y,-z
1/2-x,1/2+y,z
1/2+x,1/2-y,z
loop_
_atom_site_type_symbol
_atom_site_label
_atom_site_fract_x
_atom_site_fract_y
_atom_site_fract_z
Si Si1 0.608097 0.698140 0.347076
Si Si2 0.885620 0.284759 0.429106
Si Si3 0.889213 0.553738 0.700850
Si Si4 0.111967 0.416757 0.841255
Si Si5 0.299424 0.176609 0.803246
Si Si6 0.614973 0.000000 0.070751
Si Si7 0.708623 0.144127 0.336045
Si Si8 0.107882 0.774455 0.793209
O O1 0.500000 0.680205 0.362131
O O2 0.648868 0.734656 0.399172
O O3 0.676498 0.651733 0.345474
O O4 0.611216 0.727195 0.282138
O O5 0.846781 0.287345 0.500000
O O6 0.847436 0.329745 0.391240
O O7 0.000000 0.286492 0.426192
O O8 0.866081 0.500000 0.679852
O O9 0.870022 0.558180 0.774793
O O10 0.818511 0.588341 0.661615
O O11 0.000000 0.567113 0.685732
O O12 0.169976 0.367233 0.847205
O O13 0.152225 0.452504 0.894330
O O14 0.000000 0.405125 0.851522
O O15 0.323478 0.164563 0.731153
O O16 0.185713 0.186357 0.815972
O O17 0.362527 0.222980 0.820040
O O18 0.500000 0.000000 0.073051
O O19 0.655028 0.000000 0.000000
O O20 0.000000 0.787813 0.817009
#
# Coordination Sequence:
#
# PCOD8265266 Si02
#       8
#    16  16  16  16  16   8  16  16
#     4   9  17  27  37  52  77 104 131 162 198 240
#     4  10  19  28  39  57  80 105 133 164 199 241
#     4   9  16  26  41  60  80 100 127 164 201 237
#     4   9  15  24  38  59  84 108 133 162 192 230
#     4   9  16  23  37  59  79 105 136 162 196 238
#     4   9  16  26  40  60  89 117 134 156 199 242
#     4  10  17  26  40  56  74 103 135 163 199 239
#     4   9  15  24  36  54  81 107 131 163 200 237
#
# _framework density 14.454338
#
# number of rings (size 3 to 8) (size 9 to 14) (size 15 to 20)
#    0.000    2.733    2.000    1.200    0.000    2.133 
#    0.000    0.000    0.000    0.800    0.000    4.200 
#    0.000    2.133    0.000    4.533    0.000    0.267 
#
# Total GULP energy -743786.345852 kJ/mol
# GULP energy per Si atom -12396.439098 kJ/mol
# Density = 1.442144 g / cm^3
# Si number density = 14.454338 Si / 1000 Ang^3
#
#
#
# Elastic Constant Matrix: (Units=GPa)
#
#
# Indices 1 2 3 4 5 6 
#
# 1 71.5876 55.8700 26.4434 0.0000 0.0000 0.0000
# 2 55.8700 118.9348 42.5714 0.0000 0.0000 0.0000
# 3 26.4434 42.5714 54.9948 0.0000 0.0000 0.0000
# 4 0.0000 0.0000 0.0000 16.5035 0.0000 0.0000
# 5 0.0000 0.0000 0.0000 0.0000 8.6752 0.0000
# 6 0.0000 0.0000 0.0000 0.0000 0.0000 24.0840
#
#
#
# Elastic Compliance Matrix: (Units=1/GPa)
#
#
# Indices 1 2 3 4 5 6 
#
# 1 0.022575 -0.009295 -0.003660 0.000000 0.000000 0.000000
# 2 -0.009295 0.015457 -0.007496 0.000000 0.000000 0.000000
# 3 -0.003660 -0.007496 0.025746 0.000000 0.000000 0.000000
# 4 0.000000 0.000000 0.000000 0.060593 0.000000 0.000000
# 5 0.000000 0.000000 0.000000 0.000000 0.115272 0.000000
# 6 0.000000 0.000000 0.000000 0.000000 0.000000 0.041521
#
#
# Mechanical properties :
#
#
# Convention : Reuss Voigt Hill
#
# Bulk Modulus (GPa) = 43.71241 55.03188 49.37215
# Shear Modulus (GPa) = 15.16571 17.89470 16.53021
#
# Velocity S-wave (km/s) = 3.24267 3.52236 3.38541
# Velocity P-wave (km/s) = 6.65787 7.39583 7.03653
#
# Compressibility (1/GPa) = 0.02287680
#
# Stress axis : x y z
#
# Youngs Moduli (GPa) = 44.29761 64.69418 38.84065
#
# Poissons Ratio (x) = 0.60130 0.14215
# Poissons Ratio (y) = 0.41172 0.29116
# Poissons Ratio (z) = 0.16212 0.48497
#
# Static dielectric constant tensor:
#      x y z
#    x 2.878240 0.000000 0.000000 
#    y 0.000000 2.786540 0.000000 
#    z 0.000000 0.000000 2.585240 
# 
# 
# High freq. dielectric constant tensor:
#      x y z
#    x 1.544290 0.000000 0.000000 
#    y 0.000000 1.540390 0.000000 
#    z 0.000000 0.000000 1.512890 
# 
# From -- ./inp_files/63164.got.cif
#   From: 2010.03.12/outbox.cif.g09.slc.cpg/sg65_32_cif.got.tgz:63164.got - 2010.04.10 20:52:16.
