data_PCOD8265600
_publ_section_title
;
Structure prediction by ZEFSAII (Michael W. Deem and Ramdas Pophale) SiO2 
 PCOD8265600
Probable space group: C M M M
;
_chemical_formula_sum "Si O2"
_cell_formula_units_Z 96
_cell_length_a 31.224319
_cell_length_b 27.148486
_cell_length_c 9.124484
_cell_angle_alpha 90.000000
_cell_angle_beta 90.000000
_cell_angle_gamma 90.000000
_cell_volume 7734.761099
_symmetry_space_group_name_H-M "C M M M"
_symmetry_group_IT_number 65
_symmetry_cell_setting 'orthorhombic'
loop_
_space_group_symop_operation_xyz
x,y,z
-x,-y,z
x,-y,-z
-x,y,-z
-x,-y,-z
x,y,-z
-x,y,z
x,-y,z
1/2+x,1/2+y,z
1/2-x,1/2-y,z
1/2+x,1/2-y,-z
1/2-x,1/2+y,-z
1/2-x,1/2-y,-z
1/2+x,1/2+y,-z
1/2-x,1/2+y,z
1/2+x,1/2-y,z
loop_
_atom_site_type_symbol
_atom_site_label
_atom_site_fract_x
_atom_site_fract_y
_atom_site_fract_z
Si Si1 0.749362 0.361972 0.834734
Si Si2 0.379685 0.885414 0.328473
Si Si3 0.705375 0.056471 0.329088
Si Si4 0.549470 0.943432 0.167720
Si Si5 0.793732 0.219587 0.665750
Si Si6 0.663324 0.198567 0.165683
O O1 0.757932 0.414418 0.758545
O O2 0.712779 0.332651 0.746410
O O3 0.792395 0.330525 0.832931
O O4 0.733308 0.370806 0.000000
O O5 0.382441 0.874818 0.500000
O O6 0.341525 0.923066 0.289923
O O7 0.423794 0.908712 0.274362
O O8 0.372648 0.833423 0.247681
O O9 0.714989 0.063102 0.500000
O O10 0.707088 0.000000 0.279360
O O11 0.500000 0.929470 0.188062
O O12 0.557261 0.000000 0.212328
O O13 0.563764 0.934852 0.000000
O O14 0.808959 0.209754 0.500000
O O15 0.750000 0.250000 0.666577
O O16 0.830613 0.249794 0.750201
O O17 0.648299 0.209224 0.000000
#
# Coordination Sequence:
#
# PCOD8265600 Si02
#       6
#    16  16  16  16  16  16
#     4   9  16  24  34  48  64  83 107 132 158 191
#     4  10  18  27  39  54  69  84 105 134 168 205
#     4   9  17  27  36  47  65  87 109 135 168 202
#     4   9  18  31  43  53  66  85 108 134 167 207
#     4   9  15  23  35  49  65  84 104 127 156 190
#     4   9  16  25  36  50  67  85 104 127 157 194
#
# _framework density 12.411502
#
# number of rings (size 3 to 8) (size 9 to 14) (size 15 to 20)
#    0.000    2.833    0.000    3.000    0.000    8.333 
#    0.000    0.833    0.000    0.000    0.000    0.000 
#    0.000    0.000    0.000    0.000    0.000    0.000 
#
# Total GULP energy -595179.135792 kJ/mol
# GULP energy per Si atom -12399.565329 kJ/mol
# Density = 1.238325 g / cm^3
# Si number density = 12.411502 Si / 1000 Ang^3
#
#
#
# Elastic Constant Matrix: (Units=GPa)
#
#
# Indices 1 2 3 4 5 6 
#
# 1 34.4559 34.8702 31.8463 0.0000 0.0000 0.0000
# 2 34.8702 67.2701 45.7498 0.0000 0.0000 0.0000
# 3 31.8463 45.7498 94.9241 0.0000 0.0000 0.0000
# 4 0.0000 0.0000 0.0000 23.4196 0.0000 0.0000
# 5 0.0000 0.0000 0.0000 0.0000 17.0183 0.0000
# 6 0.0000 0.0000 0.0000 0.0000 0.0000 21.0320
#
#
#
# Elastic Compliance Matrix: (Units=1/GPa)
#
#
# Indices 1 2 3 4 5 6 
#
# 1 0.065171 -0.028134 -0.008305 0.000000 0.000000 0.000000
# 2 -0.028134 0.034259 -0.007073 0.000000 0.000000 0.000000
# 3 -0.008305 -0.007073 0.016730 0.000000 0.000000 0.000000
# 4 0.000000 0.000000 0.000000 0.042699 0.000000 0.000000
# 5 0.000000 0.000000 0.000000 0.000000 0.058760 0.000000
# 6 0.000000 0.000000 0.000000 0.000000 0.000000 0.047547
#
#
# Mechanical properties :
#
#
# Convention : Reuss Voigt Hill
#
# Bulk Modulus (GPa) = 34.32130 46.84253 40.58192
# Shear Modulus (GPa) = 13.81590 17.90622 15.86106
#
# Velocity S-wave (km/s) = 3.34001 3.80242 3.57870
# Velocity P-wave (km/s) = 6.52588 7.55652 7.06003
#
# Compressibility (1/GPa) = 0.02913642
#
# Stress axis : x y z
#
# Youngs Moduli (GPa) = 15.34429 29.18911 59.77361
#
# Poissons Ratio (x) = 0.82121 0.49640
# Poissons Ratio (y) = 0.43170 0.42277
# Poissons Ratio (z) = 0.12743 0.20645
#
# Static dielectric constant tensor:
#      x y z
#    x 2.169990 0.000000 0.000000 
#    y 0.000000 2.508100 0.000000 
#    z 0.000000 0.000000 2.690940 
# 
# 
# High freq. dielectric constant tensor:
#      x y z
#    x 1.413780 0.000000 0.000000 
#    y 0.000000 1.456120 0.000000 
#    z 0.000000 0.000000 1.489280 
# 
# From -- ./inp_files/14599.got.cif
#   From: 2010.03.12/outbox.cif.g09.slc.cpg/sg65_8_cif.got.tgz:14599.got - 2010.04.10 20:52:16.
