data_PCOD8265589
_publ_section_title
;
Structure prediction by ZEFSAII (Michael W. Deem and Ramdas Pophale) SiO2 
 PCOD8265589
Probable space group: C M M M
;
_chemical_formula_sum "Si O2"
_cell_formula_units_Z 72
_cell_length_a 20.251152
_cell_length_b 17.668461
_cell_length_c 11.892896
_cell_angle_alpha 90.000000
_cell_angle_beta 90.000000
_cell_angle_gamma 90.000000
_cell_volume 4255.357744
_symmetry_space_group_name_H-M "C M M M"
_symmetry_group_IT_number 65
_symmetry_cell_setting 'orthorhombic'
loop_
_space_group_symop_operation_xyz
x,y,z
-x,-y,z
x,-y,-z
-x,y,-z
-x,-y,-z
x,y,-z
-x,y,z
x,-y,z
1/2+x,1/2+y,z
1/2-x,1/2-y,z
1/2+x,1/2-y,-z
1/2-x,1/2+y,-z
1/2-x,1/2-y,-z
1/2+x,1/2+y,-z
1/2-x,1/2+y,z
1/2+x,1/2-y,z
loop_
_atom_site_type_symbol
_atom_site_label
_atom_site_fract_x
_atom_site_fract_y
_atom_site_fract_z
Si Si1 0.671362 0.753397 0.500000
Si Si2 0.500000 0.409866 0.367755
Si Si3 0.257314 0.084049 0.741320
Si Si4 0.686953 0.917813 0.500000
Si Si5 0.821073 0.289200 0.127010
Si Si6 0.872397 0.830088 0.721495
O O1 0.750000 0.750000 0.500000
O O2 0.643562 0.840764 0.500000
O O3 0.645535 0.711842 0.608026
O O4 0.500000 0.500000 0.357972
O O5 0.500000 0.386026 0.500000
O O6 0.561424 0.376562 0.299189
O O7 0.265963 0.085439 0.607599
O O8 0.313900 0.133544 0.802126
O O9 0.183392 0.112217 0.764063
O O10 0.264332 0.000000 0.790879
O O11 0.647911 0.000000 0.500000
O O12 0.750000 0.250000 0.131673
O O13 0.877040 0.235114 0.182504
O O14 0.842874 0.307551 0.000000
#
# Coordination Sequence:
#
# PCOD8265589 Si02
#       6
#     8   8  16   8  16  16
#     4  12  16  29  49  74  98 136 173 212 266 320
#     4  11  24  36  49  77 111 146 182 213 248 296
#     4  10  18  28  47  75 107 136 162 207 267 319
#     4  10  18  26  42  75 105 128 160 197 255 323
#     4   9  18  32  51  73  96 128 173 221 266 311
#     4  11  19  33  50  70 105 142 178 215 251 304
#
# _framework density 16.919847000000001
#
# number of rings (size 3 to 8) (size 9 to 14) (size 15 to 20)
#    0.000    1.667    5.556    1.333    0.000    0.444 
#    0.000    0.556    0.000    2.667    0.000    3.889 
#    0.000    1.778    0.000    0.000    0.000    0.000 
#
# Total GULP energy -446118.644128 kJ/mol
# GULP energy per Si atom -12392.184559 kJ/mol
# Density = 1.688134 g / cm^3
# Si number density = 16.919847 Si / 1000 Ang^3
#
#
#
# Elastic Constant Matrix: (Units=GPa)
#
#
# Indices 1 2 3 4 5 6 
#
# 1 58.6170 36.4753 28.3537 0.0000 0.0000 0.0000
# 2 36.4753 141.4734 45.8180 0.0000 0.0000 0.0000
# 3 28.3537 45.8180 109.0819 0.0000 0.0000 0.0000
# 4 0.0000 0.0000 0.0000 9.0585 0.0000 0.0000
# 5 0.0000 0.0000 0.0000 0.0000 48.7902 0.0000
# 6 0.0000 0.0000 0.0000 0.0000 0.0000 24.7510
#
#
#
# Elastic Compliance Matrix: (Units=1/GPa)
#
#
# Indices 1 2 3 4 5 6 
#
# 1 0.021594 -0.004340 -0.003790 0.000000 0.000000 0.000000
# 2 -0.004340 0.009054 -0.002675 0.000000 0.000000 0.000000
# 3 -0.003790 -0.002675 0.011276 0.000000 0.000000 0.000000
# 4 0.000000 0.000000 0.000000 0.110393 0.000000 0.000000
# 5 0.000000 0.000000 0.000000 0.000000 0.020496 0.000000
# 6 0.000000 0.000000 0.000000 0.000000 0.000000 0.040402
#
#
# Mechanical properties :
#
#
# Convention : Reuss Voigt Hill
#
# Bulk Modulus (GPa) = 49.22684 58.94070 54.08377
# Shear Modulus (GPa) = 20.69571 29.75496 25.22533
#
# Velocity S-wave (km/s) = 3.50117 4.19810 3.86537
# Velocity P-wave (km/s) = 6.74548 7.64261 7.20802
#
# Compressibility (1/GPa) = 0.02031412
#
# Stress axis : x y z
#
# Youngs Moduli (GPa) = 46.30967 110.45236 88.68368
#
# Poissons Ratio (x) = 0.47936 0.33611
# Poissons Ratio (y) = 0.20098 0.23721
# Poissons Ratio (z) = 0.17551 0.29543
#
# Static dielectric constant tensor:
#      x y z
#    x 2.857810 0.000000 0.000000 
#    y 0.000000 3.689540 0.000000 
#    z 0.000000 0.000000 3.292240 
# 
# 
# High freq. dielectric constant tensor:
#      x y z
#    x 1.589460 0.000000 0.000000 
#    y 0.000000 1.674040 0.000000 
#    z 0.000000 0.000000 1.653020 
# 
# From -- ./inp_files/28490.got.cif
#   From: 2010.03.12/outbox.cif.g09.slc.cpg/sg65_15_cif.got.tgz:28490.got - 2010.04.10 20:52:16.
