data_PCOD8265830
_publ_section_title
;
Structure prediction by ZEFSAII (Michael W. Deem and Ramdas Pophale) SiO2 
 PCOD8265830
Probable space group: C M M M
;
_chemical_formula_sum "Si O2"
_cell_formula_units_Z 96
_cell_length_a 8.912907
_cell_length_b 23.933898
_cell_length_c 25.594851
_cell_angle_alpha 90.000000
_cell_angle_beta 90.000000
_cell_angle_gamma 90.000000
_cell_volume 5459.909152
_symmetry_space_group_name_H-M "C M M M"
_symmetry_group_IT_number 65
_symmetry_cell_setting 'orthorhombic'
loop_
_space_group_symop_operation_xyz
x,y,z
-x,-y,z
x,-y,-z
-x,y,-z
-x,-y,-z
x,y,-z
-x,y,z
x,-y,z
1/2+x,1/2+y,z
1/2-x,1/2-y,z
1/2+x,1/2-y,-z
1/2-x,1/2+y,-z
1/2-x,1/2-y,-z
1/2+x,1/2+y,-z
1/2-x,1/2+y,z
1/2+x,1/2-y,z
loop_
_atom_site_type_symbol
_atom_site_label
_atom_site_fract_x
_atom_site_fract_y
_atom_site_fract_z
Si Si1 0.677842 0.689459 0.754789
Si Si2 0.824877 0.000000 0.322444
Si Si3 0.328387 0.884465 0.839265
Si Si4 0.323476 0.691379 0.558334
Si Si5 0.178207 0.437376 0.942228
Si Si6 0.178707 0.880007 0.345758
Si Si7 0.165869 0.500000 0.218609
O O1 0.500000 0.695624 0.754212
O O2 0.750000 0.750000 0.750518
O O3 0.726946 0.659779 0.808445
O O4 0.736665 0.653245 0.705274
O O5 0.755115 0.056855 0.346505
O O6 0.796284 0.000000 0.261020
O O7 0.000000 0.000000 0.332973
O O8 0.500000 0.862944 0.837340
O O9 0.267351 0.892148 0.898852
O O10 0.313468 0.945914 0.816181
O O11 0.279614 0.670701 0.500000
O O12 0.500000 0.699155 0.563663
O O13 0.250000 0.750000 0.571440
O O14 0.261744 0.647788 0.600884
O O15 0.243194 0.500000 0.932398
O O16 0.000000 0.441225 0.938076
O O17 0.227687 0.416479 0.000000
O O18 0.000000 0.881245 0.344168
O O19 0.000000 0.500000 0.244868
#
# Coordination Sequence:
#
# PCOD8265830 Si02
#       7
#    16   8  16  16  16  16   8
#     4  11  22  35  50  70  96 128 164 202 245 289
#     4  10  18  32  49  67  97 133 162 189 232 294
#     4  10  18  30  49  74 103 130 159 198 238 283
#     4   9  17  31  50  71  94 122 159 201 241 281
#     4   8  13  23  43  72 102 129 157 191 233 281
#     4   9  18  31  49  72  97 125 157 195 238 287
#     4  10  18  28  45  73 103 129 160 195 234 278
#
# _framework density 17.582709999999999
#
# number of rings (size 3 to 8) (size 9 to 14) (size 15 to 20)
#    0.000    2.500    2.500    1.500    0.000    0.000 
#    0.000    2.083    0.000    3.500    0.000    1.167 
#    0.000    3.333    0.000    0.000    0.000    0.000 
#
# Total GULP energy -594884.259641 kJ/mol
# GULP energy per Si atom -12393.422076 kJ/mol
# Density = 1.754269 g / cm^3
# Si number density = 17.582710 Si / 1000 Ang^3
#
#
#
# Elastic Constant Matrix: (Units=GPa)
#
#
# Indices 1 2 3 4 5 6 
#
# 1 27.2701 29.6286 21.9263 0.0000 0.0000 0.0000
# 2 29.6286 135.0787 81.4599 0.0000 0.0000 0.0000
# 3 21.9263 81.4599 151.1363 0.0000 0.0000 0.0000
# 4 0.0000 0.0000 0.0000 -12.0367 0.0000 0.0000
# 5 0.0000 0.0000 0.0000 0.0000 18.8293 0.0000
# 6 0.0000 0.0000 0.0000 0.0000 0.0000 12.4988
#
#
#
# Elastic Compliance Matrix: (Units=1/GPa)
#
#
# Indices 1 2 3 4 5 6 
#
# 1 0.048521 -0.009479 -0.001930 0.000000 0.000000 0.000000
# 2 -0.009479 0.012820 -0.005535 0.000000 0.000000 0.000000
# 3 -0.001930 -0.005535 0.009880 0.000000 0.000000 0.000000
# 4 0.000000 0.000000 0.000000 -0.083079 0.000000 0.000000
# 5 0.000000 0.000000 0.000000 0.000000 0.053109 0.000000
# 6 0.000000 0.000000 0.000000 0.000000 0.000000 0.080007
#
#
# Mechanical properties :
#
#
# Convention : Reuss Voigt Hill
#
# Bulk Modulus (GPa) = 26.78592 64.39054 45.58823
# Shear Modulus (GPa) = 29.83499 15.88963 22.86231
#
# Velocity S-wave (km/s) = 4.12374 3.00943 3.60984
# Velocity P-wave (km/s) = 6.15962 6.98403 6.58474
#
# Compressibility (1/GPa) = 0.03733305
#
# Stress axis : x y z
#
# Youngs Moduli (GPa) = 20.60979 78.00445 101.21843
#
# Poissons Ratio (x) = 0.73937 0.19539
# Poissons Ratio (y) = 0.19535 0.56020
# Poissons Ratio (z) = 0.03979 0.43172
#
# Static dielectric constant tensor:
#      x y z
#    x 2.981770 0.000000 0.000000 
#    y 0.000000 3.116980 0.000000 
#    z 0.000000 0.000000 3.613590 
# 
# 
# High freq. dielectric constant tensor:
#      x y z
#    x 1.643010 0.000000 0.000000 
#    y 0.000000 1.669480 0.000000 
#    z 0.000000 0.000000 1.685840 
# 
# From -- ./inp_files/73486.got.cif
#   From: 2010.03.12/outbox.cif.g09.slc.cpg/sg65_37_cif.got.tgz:73486.got - 2010.04.10 20:52:16.
