data_PCOD8265909
_publ_section_title
;
Structure prediction by ZEFSAII (Michael W. Deem and Ramdas Pophale) SiO2 
 PCOD8265909
Probable space group: C M M M
;
_chemical_formula_sum "Si O2"
_cell_formula_units_Z 120
_cell_length_a 32.516800
_cell_length_b 28.516841
_cell_length_c 10.363779
_cell_angle_alpha 90.000000
_cell_angle_beta 90.000000
_cell_angle_gamma 90.000000
_cell_volume 9610.087841
_symmetry_space_group_name_H-M "C M M M"
_symmetry_group_IT_number 65
_symmetry_cell_setting 'orthorhombic'
loop_
_space_group_symop_operation_xyz
x,y,z
-x,-y,z
x,-y,-z
-x,y,-z
-x,-y,-z
x,y,-z
-x,y,z
x,-y,z
1/2+x,1/2+y,z
1/2-x,1/2-y,z
1/2+x,1/2-y,-z
1/2-x,1/2+y,-z
1/2-x,1/2-y,-z
1/2+x,1/2+y,-z
1/2-x,1/2+y,z
1/2+x,1/2-y,z
loop_
_atom_site_type_symbol
_atom_site_label
_atom_site_fract_x
_atom_site_fract_y
_atom_site_fract_z
Si Si1 0.453201 0.595071 0.236594
Si Si2 0.630522 0.733882 0.853097
Si Si3 0.685768 0.228371 0.643750
Si Si4 0.677814 0.362803 0.849742
Si Si5 0.454917 0.697223 0.852050
Si Si6 0.048586 0.948053 0.500000
Si Si7 0.624611 0.448740 0.854806
Si Si8 0.734847 0.324583 0.644421
O O1 0.500000 0.578445 0.208544
O O2 0.449877 0.650949 0.233074
O O3 0.436436 0.580466 0.376577
O O4 0.422677 0.568764 0.139661
O O5 0.650734 0.770821 0.753923
O O6 0.647663 0.681490 0.833736
O O7 0.581625 0.733603 0.821241
O O8 0.638710 0.750906 0.000000
O O9 0.666314 0.222766 0.500000
O O10 0.710784 0.276125 0.650733
O O11 0.716906 0.185337 0.671493
O O12 0.653965 0.408563 0.795138
O O13 0.717710 0.358191 0.757386
O O14 0.691478 0.367345 0.000000
O O15 0.500000 0.720389 0.825753
O O16 0.451409 0.680548 0.000000
O O17 0.000000 0.951862 0.500000
O O18 0.068234 0.000000 0.500000
O O19 0.628795 0.500000 0.785144
O O20 0.639207 0.455134 0.000000
O O21 0.729508 0.346457 0.500000
#
# Coordination Sequence:
#
# PCOD8265909 Si02
#       8
#    16  16  16  16  16   8  16  16
#     4  10  18  29  41  49  60  79 106 140 177 214
#     4   9  15  24  37  52  70  88 108 134 164 198
#     4   8  14  24  37  54  72  86 101 124 156 195
#     4   9  16  26  37  50  68  87 106 132 167 203
#     4   9  16  26  39  52  66  85 110 140 170 199
#     4   9  18  30  38  44  58  76  93 126 176 218
#     4  10  19  29  39  51  66  82 105 139 176 210
#     4   8  14  25  39  53  69  86 103 124 153 196
#
# _framework density 12.486878000000001
#
# number of rings (size 3 to 8) (size 9 to 14) (size 15 to 20)
#    0.000    3.000    1.333    1.600    0.000    2.133 
#    2.400    3.333    0.000    0.000    0.000    0.000 
#    0.000    0.000    0.000    0.000    0.000    0.000 
#
# Total GULP energy -743371.525998 kJ/mol
# GULP energy per Si atom -12389.525433 kJ/mol
# Density = 1.245846 g / cm^3
# Si number density = 12.486878 Si / 1000 Ang^3
#
#
#
# Elastic Constant Matrix: (Units=GPa)
#
#
# Indices 1 2 3 4 5 6 
#
# 1 76.9020 31.5670 46.5834 0.0000 0.0000 0.0000
# 2 31.5670 27.4687 21.5496 0.0000 0.0000 0.0000
# 3 46.5834 21.5496 66.6040 0.0000 0.0000 0.0000
# 4 0.0000 0.0000 0.0000 11.1380 0.0000 0.0000
# 5 0.0000 0.0000 0.0000 0.0000 11.7294 0.0000
# 6 0.0000 0.0000 0.0000 0.0000 0.0000 14.5064
#
#
#
# Elastic Compliance Matrix: (Units=1/GPa)
#
#
# Indices 1 2 3 4 5 6 
#
# 1 0.032210 -0.025922 -0.014141 0.000000 0.000000 0.000000
# 2 -0.025922 0.069650 -0.004405 0.000000 0.000000 0.000000
# 3 -0.014141 -0.004405 0.026330 0.000000 0.000000 0.000000
# 4 0.000000 0.000000 0.000000 0.089782 0.000000 0.000000
# 5 0.000000 0.000000 0.000000 0.000000 0.085256 0.000000
# 6 0.000000 0.000000 0.000000 0.000000 0.000000 0.068935
#
#
# Mechanical properties :
#
#
# Convention : Reuss Voigt Hill
#
# Bulk Modulus (GPa) = 25.47518 41.15275 33.31397
# Shear Modulus (GPa) = 10.54444 12.22642 11.38543
#
# Velocity S-wave (km/s) = 2.90908 3.13252 3.02286
# Velocity P-wave (km/s) = 5.63290 6.79058 6.23865
#
# Compressibility (1/GPa) = 0.03925389
#
# Stress axis : x y z
#
# Youngs Moduli (GPa) = 31.04642 14.35744 37.97987
#
# Poissons Ratio (x) = 0.37217 0.53707
# Poissons Ratio (y) = 0.80478 0.16732
# Poissons Ratio (z) = 0.43902 0.06325
#
# Static dielectric constant tensor:
#      x y z
#    x 2.597750 0.000000 0.000000 
#    y 0.000000 2.307790 0.000000 
#    z 0.000000 0.000000 2.725650 
# 
# 
# High freq. dielectric constant tensor:
#      x y z
#    x 1.456890 0.000000 0.000000 
#    y 0.000000 1.418260 0.000000 
#    z 0.000000 0.000000 1.477510 
# 
# From -- ./inp_files/32992.got.cif
#   From: 2010.03.12/outbox.cif.g09.slc.cpg/sg65_17_cif.got.tgz:32992.got - 2010.04.10 20:52:16.
