data_PCOD8265723
_publ_section_title
;
Structure prediction by ZEFSAII (Michael W. Deem and Ramdas Pophale) SiO2 
 PCOD8265723
Probable space group: C M M M
;
_chemical_formula_sum "Si O2"
_cell_formula_units_Z 72
_cell_length_a 19.741794
_cell_length_b 21.622237
_cell_length_c 10.356267
_cell_angle_alpha 90.000000
_cell_angle_beta 90.000000
_cell_angle_gamma 90.000000
_cell_volume 4420.694241
_symmetry_space_group_name_H-M "C M M M"
_symmetry_group_IT_number 65
_symmetry_cell_setting 'orthorhombic'
loop_
_space_group_symop_operation_xyz
x,y,z
-x,-y,z
x,-y,-z
-x,y,-z
-x,-y,-z
x,y,-z
-x,y,z
x,-y,z
1/2+x,1/2+y,z
1/2-x,1/2-y,z
1/2+x,1/2-y,-z
1/2-x,1/2+y,-z
1/2-x,1/2-y,-z
1/2+x,1/2+y,-z
1/2-x,1/2+y,z
1/2+x,1/2-y,z
loop_
_atom_site_type_symbol
_atom_site_label
_atom_site_fract_x
_atom_site_fract_y
_atom_site_fract_z
Si Si1 0.079653 0.568438 0.000000
Si Si2 0.733226 0.649906 0.145591
Si Si3 0.142071 0.257454 0.143866
Si Si4 0.577664 0.863005 0.740712
Si Si5 0.299467 0.070966 0.643632
O O1 0.102867 0.605693 0.874538
O O2 0.112935 0.500000 0.000000
O O3 0.000000 0.562018 0.000000
O O4 0.793324 0.698453 0.147656
O O5 0.664686 0.688015 0.184042
O O6 0.745933 0.597017 0.251940
O O7 0.726165 0.621838 0.000000
O O8 0.087165 0.288480 0.241624
O O9 0.110793 0.255177 0.000000
O O10 0.500000 0.877831 0.703228
O O11 0.628802 0.892050 0.637245
O O12 0.267772 0.077191 0.500000
O O13 0.314640 0.000000 0.678311
#
# Coordination Sequence:
#
# PCOD8265723 Si02
#       5
#     8  16  16  16  16
#     4   9  16  24  36  57  82 110 147 182 198 219
#     4   8  15  28  46  63  79 105 142 181 221 264
#     4   8  13  25  43  63  85 107 135 178 225 256
#     4  10  18  28  42  62  88 118 149 176 206 251
#     4  10  21  33  43  59  86 118 149 184 224 259
#
# _framework density 16.287033999999998
#
# number of rings (size 3 to 8) (size 9 to 14) (size 15 to 20)
#    0.000    3.000    1.111    2.000    1.556    2.222 
#    0.000   10.000    0.000    0.000    0.000    0.000 
#    0.000    0.889    0.000    7.333    0.000    2.222 
#
# Total GULP energy -445973.564246 kJ/mol
# GULP energy per Si atom -12388.154562 kJ/mol
# Density = 1.624996 g / cm^3
# Si number density = 16.287034 Si / 1000 Ang^3
#
#
#
# Elastic Constant Matrix: (Units=GPa)
#
#
# Indices 1 2 3 4 5 6 
#
# 1 27.4533 37.6254 17.8095 0.0000 0.0000 0.0000
# 2 37.6254 80.4096 44.3979 0.0000 0.0000 0.0000
# 3 17.8095 44.3979 75.7747 0.0000 0.0000 0.0000
# 4 0.0000 0.0000 0.0000 21.5835 0.0000 0.0000
# 5 0.0000 0.0000 0.0000 0.0000 13.4662 0.0000
# 6 0.0000 0.0000 0.0000 0.0000 0.0000 19.5205
#
#
#
# Elastic Compliance Matrix: (Units=1/GPa)
#
#
# Indices 1 2 3 4 5 6 
#
# 1 0.103348 -0.051660 0.005978 0.000000 0.000000 0.000000
# 2 -0.051660 0.044206 -0.013760 0.000000 0.000000 0.000000
# 3 0.005978 -0.013760 0.019854 0.000000 0.000000 0.000000
# 4 0.000000 0.000000 0.000000 0.046332 0.000000 0.000000
# 5 0.000000 0.000000 0.000000 0.000000 0.074260 0.000000
# 6 0.000000 0.000000 0.000000 0.000000 0.000000 0.051228
#
#
# Mechanical properties :
#
#
# Convention : Reuss Voigt Hill
#
# Bulk Modulus (GPa) = 20.60736 42.58926 31.59831
# Shear Modulus (GPa) = 10.54215 16.50101 13.52158
#
# Velocity S-wave (km/s) = 2.54691 3.18644 2.88445
# Velocity P-wave (km/s) = 4.61835 6.30427 5.52598
#
# Compressibility (1/GPa) = 0.04852635
#
# Stress axis : x y z
#
# Youngs Moduli (GPa) = 9.67601 22.62112 50.36760
#
# Poissons Ratio (x) = 1.16860 -0.30111
# Poissons Ratio (y) = 0.49986 0.69304
# Poissons Ratio (z) = -0.05785 0.31126
#
# Static dielectric constant tensor:
#      x y z
#    x 2.996470 0.000000 0.000000 
#    y 0.000000 3.384730 0.000000 
#    z 0.000000 0.000000 3.013590 
# 
# 
# High freq. dielectric constant tensor:
#      x y z
#    x 1.579770 0.000000 0.000000 
#    y 0.000000 1.611270 0.000000 
#    z 0.000000 0.000000 1.613300 
# 
# From -- ./inp_files/13754.got.cif
#   From: 2010.03.12/outbox.cif.g09.slc.cpg/sg65_7_cif.got.tgz:13754.got - 2010.04.10 20:52:16.
