data_PCOD8265575
_publ_section_title
;
Structure prediction by ZEFSAII (Michael W. Deem and Ramdas Pophale) SiO2 
 PCOD8265575
Probable space group: C M M M
;
_chemical_formula_sum "Si O2"
_cell_formula_units_Z 104
_cell_length_a 28.914486
_cell_length_b 19.240681
_cell_length_c 12.758042
_cell_angle_alpha 90.000000
_cell_angle_beta 90.000000
_cell_angle_gamma 90.000000
_cell_volume 7097.737659
_symmetry_space_group_name_H-M "C M M M"
_symmetry_group_IT_number 65
_symmetry_cell_setting 'orthorhombic'
loop_
_space_group_symop_operation_xyz
x,y,z
-x,-y,z
x,-y,-z
-x,y,-z
-x,-y,-z
x,y,-z
-x,y,z
x,-y,z
1/2+x,1/2+y,z
1/2-x,1/2-y,z
1/2+x,1/2-y,-z
1/2-x,1/2+y,-z
1/2-x,1/2-y,-z
1/2+x,1/2+y,-z
1/2-x,1/2+y,z
1/2+x,1/2-y,z
loop_
_atom_site_type_symbol
_atom_site_label
_atom_site_fract_x
_atom_site_fract_y
_atom_site_fract_z
Si Si1 0.446260 0.699035 0.376566
Si Si2 0.094278 0.659118 0.306711
Si Si3 0.945624 0.577093 0.500000
Si Si4 0.620778 0.422618 0.624435
Si Si5 0.792796 0.160858 0.375976
Si Si6 0.446084 0.079284 0.119710
Si Si7 0.807671 0.682872 0.375968
O O1 0.440004 0.712878 0.500000
O O2 0.500000 0.694221 0.345342
O O3 0.421144 0.760815 0.314832
O O4 0.421619 0.627166 0.342324
O O5 0.068599 0.616153 0.395506
O O6 0.082167 0.631441 0.192249
O O7 0.149153 0.648135 0.318439
O O8 0.923650 0.500000 0.500000
O O9 0.000000 0.572436 0.500000
O O10 0.623633 0.426142 0.500000
O O11 0.612422 0.500000 0.670574
O O12 0.669733 0.393479 0.669817
O O13 0.796161 0.161430 0.500000
O O14 0.804835 0.237865 0.336553
O O15 0.739784 0.142510 0.343834
O O16 0.500000 0.091675 0.139083
O O17 0.433151 0.000000 0.147537
O O18 0.432909 0.095891 0.000000
O O19 0.816093 0.679297 0.500000
#
# Coordination Sequence:
#
# PCOD8265575 Si02
#       7
#    16  16   8  16  16  16  16
#     4  10  18  26  38  60  88 116 146 178 218 263
#     4  12  18  28  46  66  88 117 142 184 222 262
#     4  11  22  30  38  59  93 125 145 166 213 278
#     4   9  16  26  38  53  80 120 158 185 210 249
#     4   8  14  25  40  56  80 119 156 179 205 257
#     4   9  19  35  50  62  82 117 156 187 217 259
#     4   9  15  25  41  62  86 115 147 176 217 261
#
# _framework density 14.652556000000001
#
# number of rings (size 3 to 8) (size 9 to 14) (size 15 to 20)
#    0.000    2.385    3.077    3.231    0.000    1.538 
#    0.000    3.077    0.000    0.000    0.000    2.154 
#    0.000    0.615    0.000    3.231    0.000    0.154 
#
# Total GULP energy -644550.991925 kJ/mol
# GULP energy per Si atom -12395.211383 kJ/mol
# Density = 1.461921 g / cm^3
# Si number density = 14.652556 Si / 1000 Ang^3
#
#
#
# Elastic Constant Matrix: (Units=GPa)
#
#
# Indices 1 2 3 4 5 6 
#
# 1 106.1441 39.2107 24.0757 0.0000 0.0000 0.0000
# 2 39.2107 84.3238 23.2019 0.0000 0.0000 0.0000
# 3 24.0757 23.2019 43.2019 0.0000 0.0000 0.0000
# 4 0.0000 0.0000 0.0000 13.9466 0.0000 0.0000
# 5 0.0000 0.0000 0.0000 0.0000 13.6254 0.0000
# 6 0.0000 0.0000 0.0000 0.0000 0.0000 23.7367
#
#
#
# Elastic Compliance Matrix: (Units=1/GPa)
#
#
# Indices 1 2 3 4 5 6 
#
# 1 0.012031 -0.004400 -0.004342 0.000000 0.000000 0.000000
# 2 -0.004400 0.015524 -0.005885 0.000000 0.000000 0.000000
# 3 -0.004342 -0.005885 0.028728 0.000000 0.000000 0.000000
# 4 0.000000 0.000000 0.000000 0.071702 0.000000 0.000000
# 5 0.000000 0.000000 0.000000 0.000000 0.073393 0.000000
# 6 0.000000 0.000000 0.000000 0.000000 0.000000 0.042129
#
#
# Mechanical properties :
#
#
# Convention : Reuss Voigt Hill
#
# Bulk Modulus (GPa) = 36.99751 45.18292 41.09021
# Shear Modulus (GPa) = 17.74490 20.07383 18.90937
#
# Velocity S-wave (km/s) = 3.48378 3.70535 3.59627
# Velocity P-wave (km/s) = 6.44104 7.01494 6.73410
#
# Compressibility (1/GPa) = 0.02702885
#
# Stress axis : x y z
#
# Youngs Moduli (GPa) = 83.11611 64.41465 34.80966
#
# Poissons Ratio (x) = 0.28342 0.15114
# Poissons Ratio (y) = 0.36570 0.20487
# Poissons Ratio (z) = 0.36088 0.37911
#
# Static dielectric constant tensor:
#      x y z
#    x 3.086370 0.000000 0.000000 
#    y 0.000000 3.016290 0.000000 
#    z 0.000000 0.000000 2.413340 
# 
# 
# High freq. dielectric constant tensor:
#      x y z
#    x 1.573380 0.000000 0.000000 
#    y 0.000000 1.559000 0.000000 
#    z 0.000000 0.000000 1.490420 
# 
# From -- ./inp_files/32779.got.cif
#   From: 2010.03.12/outbox.cif.g09.slc.cpg/sg65_17_cif.got.tgz:32779.got - 2010.04.10 20:52:16.
