data_PCOD8265758
_publ_section_title
;
Structure prediction by ZEFSAII (Michael W. Deem and Ramdas Pophale) SiO2 
 PCOD8265758
Probable space group: C M M M
;
_chemical_formula_sum "Si O2"
_cell_formula_units_Z 88
_cell_length_a 23.826609
_cell_length_b 29.994602
_cell_length_c 8.921556
_cell_angle_alpha 90.000000
_cell_angle_beta 90.000000
_cell_angle_gamma 90.000000
_cell_volume 6375.965339
_symmetry_space_group_name_H-M "C M M M"
_symmetry_group_IT_number 65
_symmetry_cell_setting 'orthorhombic'
loop_
_space_group_symop_operation_xyz
x,y,z
-x,-y,z
x,-y,-z
-x,y,-z
-x,-y,-z
x,y,-z
-x,y,z
x,-y,z
1/2+x,1/2+y,z
1/2-x,1/2-y,z
1/2+x,1/2-y,-z
1/2-x,1/2+y,-z
1/2-x,1/2-y,-z
1/2+x,1/2+y,-z
1/2-x,1/2+y,z
1/2+x,1/2-y,z
loop_
_atom_site_type_symbol
_atom_site_label
_atom_site_fract_x
_atom_site_fract_y
_atom_site_fract_z
Si Si1 0.603598 0.412863 0.174291
Si Si2 0.500000 0.643870 0.822890
Si Si3 0.721969 0.797885 0.335457
Si Si4 0.435159 0.500000 0.323065
Si Si5 0.885521 0.750534 0.321989
Si Si6 0.000000 0.756227 0.178589
Si Si7 0.676940 0.667848 0.173859
O O1 0.553848 0.382027 0.235815
O O2 0.601243 0.458122 0.267560
O O3 0.659714 0.383765 0.202971
O O4 0.596168 0.425016 0.000000
O O5 0.500000 0.693431 0.758627
O O6 0.500000 0.647472 0.000000
O O7 0.722432 0.820598 0.500000
O O8 0.750000 0.750000 0.347360
O O9 0.658353 0.789142 0.279848
O O10 0.757896 0.828398 0.222561
O O11 0.500000 0.500000 0.260981
O O12 0.436675 0.500000 0.500000
O O13 0.891980 0.754989 0.500000
O O14 0.863963 0.798194 0.260609
O O15 0.943615 0.734588 0.246300
O O16 0.000000 0.751462 0.000000
O O17 0.670499 0.679971 0.000000
#
# Coordination Sequence:
#
# PCOD8265758 Si02
#       7
#    16   8  16   8  16   8  16
#     4  10  19  32  46  57  73 102 131 162 207 252
#     4   9  16  28  42  55  74  98 129 163 200 244
#     4   8  16  29  41  55  78 104 128 157 197 241
#     4  11  23  33  41  59  79  97 129 170 205 244
#     4  10  19  29  40  57  81 107 131 158 200 244
#     4  11  19  29  42  60  81 102 135 171 201 238
#     4  10  18  28  44  62  76  96 132 170 201 237
#
# _framework density 13.801831999999999
#
# number of rings (size 3 to 8) (size 9 to 14) (size 15 to 20)
#    0.000    2.273    2.727    2.727    0.000    5.818 
#    0.000    0.000    0.000    0.000    0.000    0.000 
#    0.000    0.000    0.000    0.000    0.000    0.909 
#
# Total GULP energy -545328.580401 kJ/mol
# GULP energy per Si atom -12393.831373 kJ/mol
# Density = 1.377042 g / cm^3
# Si number density = 13.801832 Si / 1000 Ang^3
#
#
#
# Elastic Constant Matrix: (Units=GPa)
#
#
# Indices 1 2 3 4 5 6 
#
# 1 107.3090 39.5677 44.6241 0.0000 0.0000 0.0000
# 2 39.5677 50.4438 29.7455 0.0000 0.0000 0.0000
# 3 44.6241 29.7455 70.4795 0.0000 0.0000 0.0000
# 4 0.0000 0.0000 0.0000 13.6475 0.0000 0.0000
# 5 0.0000 0.0000 0.0000 0.0000 23.3599 0.0000
# 6 0.0000 0.0000 0.0000 0.0000 0.0000 39.1474
#
#
#
# Elastic Compliance Matrix: (Units=1/GPa)
#
#
# Indices 1 2 3 4 5 6 
#
# 1 0.014769 -0.008082 -0.005940 0.000000 0.000000 0.000000
# 2 -0.008082 0.030815 -0.007888 0.000000 0.000000 0.000000
# 3 -0.005940 -0.007888 0.021279 0.000000 0.000000 0.000000
# 4 0.000000 0.000000 0.000000 0.073274 0.000000 0.000000
# 5 0.000000 0.000000 0.000000 0.000000 0.042808 0.000000
# 6 0.000000 0.000000 0.000000 0.000000 0.000000 0.025544
#
#
# Mechanical properties :
#
#
# Convention : Reuss Voigt Hill
#
# Bulk Modulus (GPa) = 43.39865 50.67853 47.03859
# Shear Modulus (GPa) = 19.23147 22.85062 21.04104
#
# Velocity S-wave (km/s) = 3.73688 4.07335 3.90873
# Velocity P-wave (km/s) = 7.08035 7.67602 7.38420
#
# Compressibility (1/GPa) = 0.02304219
#
# Stress axis : x y z
#
# Youngs Moduli (GPa) = 67.70889 32.45173 46.99550
#
# Poissons Ratio (x) = 0.26228 0.27916
# Poissons Ratio (y) = 0.54723 0.37071
# Poissons Ratio (z) = 0.40220 0.25598
#
# Static dielectric constant tensor:
#      x y z
#    x 3.003190 0.000000 0.000000 
#    y 0.000000 2.497740 0.000000 
#    z 0.000000 0.000000 2.730640 
# 
# 
# High freq. dielectric constant tensor:
#      x y z
#    x 1.518510 0.000000 0.000000 
#    y 0.000000 1.476600 0.000000 
#    z 0.000000 0.000000 1.532600 
# 
# From -- ./inp_files/14994.got.cif
#   From: 2010.03.12/outbox.cif.g09.slc.cpg/sg65_8_cif.got.tgz:14994.got - 2010.04.10 20:52:16.
