data_PCOD8265363
_publ_section_title
;
Structure prediction by ZEFSAII (Michael W. Deem and Ramdas Pophale) SiO2 
 PCOD8265363
Probable space group: C M M M
;
_chemical_formula_sum "Si O2"
_cell_formula_units_Z 96
_cell_length_a 20.421055
_cell_length_b 17.568761
_cell_length_c 14.546479
_cell_angle_alpha 90.000000
_cell_angle_beta 90.000000
_cell_angle_gamma 90.000000
_cell_volume 5218.878596
_symmetry_space_group_name_H-M "C M M M"
_symmetry_group_IT_number 65
_symmetry_cell_setting 'orthorhombic'
loop_
_space_group_symop_operation_xyz
x,y,z
-x,-y,z
x,-y,-z
-x,y,-z
-x,-y,-z
x,y,-z
-x,y,z
x,-y,z
1/2+x,1/2+y,z
1/2-x,1/2-y,z
1/2+x,1/2-y,-z
1/2-x,1/2+y,-z
1/2-x,1/2-y,-z
1/2+x,1/2+y,-z
1/2-x,1/2+y,z
1/2+x,1/2-y,z
loop_
_atom_site_type_symbol
_atom_site_label
_atom_site_fract_x
_atom_site_fract_y
_atom_site_fract_z
Si Si1 0.076526 0.411394 0.750937
Si Si2 0.070974 0.909449 0.603886
Si Si3 0.849117 0.310792 0.102070
Si Si4 0.680479 0.910169 0.396565
Si Si5 0.306931 0.413604 0.706666
Si Si6 0.801639 0.852745 0.102062
O O1 0.089306 0.500000 0.777127
O O2 0.104339 0.357762 0.830705
O O3 0.113034 0.390077 0.655810
O O4 0.000000 0.395083 0.736935
O O5 0.083795 0.883692 0.500000
O O6 0.128821 0.872682 0.664684
O O7 0.000000 0.878510 0.637485
O O8 0.070684 0.000000 0.611646
O O9 0.845701 0.221134 0.125745
O O10 0.775124 0.338401 0.104394
O O11 0.878277 0.322491 0.000000
O O12 0.679678 0.875144 0.500000
O O13 0.740987 0.875653 0.335977
O O14 0.688140 0.000000 0.403865
O O15 0.306498 0.500000 0.673802
O O16 0.313482 0.412620 0.816940
O O17 0.820725 0.883961 0.000000
#
# Coordination Sequence:
#
# PCOD8265363 Si02
#       6
#    16  16  16  16  16  16
#     4  10  20  33  51  77 105 133 168 211 259 305
#     4   8  14  25  42  66  95 125 157 195 243 293
#     4   9  18  34  52  69  95 129 165 206 249 299
#     4   9  17  29  46  72 104 135 169 208 249 297
#     4  10  17  27  48  76 103 129 165 211 249 286
#     4   9  18  32  51  72  95 128 167 205 249 299
#
# _framework density 18.394756000000001
#
# number of rings (size 3 to 8) (size 9 to 14) (size 15 to 20)
#    0.000    2.833    1.667    2.000    0.000    3.333 
#    0.000    5.000    0.000    4.500    0.000    2.333 
#    0.000    0.000    0.000    0.000    0.000    0.000 
#
# Total GULP energy -594649.815262 kJ/mol
# GULP energy per Si atom -12388.537818 kJ/mol
# Density = 1.835289 g / cm^3
# Si number density = 18.394756 Si / 1000 Ang^3
#
#
#
# Elastic Constant Matrix: (Units=GPa)
#
#
# Indices 1 2 3 4 5 6 
#
# 1 137.0630 26.3493 79.7674 0.0000 0.0000 0.0000
# 2 26.3493 17.8428 21.4173 0.0000 0.0000 0.0000
# 3 79.7674 21.4173 145.4177 0.0000 0.0000 0.0000
# 4 0.0000 0.0000 0.0000 8.8290 0.0000 0.0000
# 5 0.0000 0.0000 0.0000 0.0000 30.9280 0.0000
# 6 0.0000 0.0000 0.0000 0.0000 0.0000 18.8102
#
#
#
# Elastic Compliance Matrix: (Units=1/GPa)
#
#
# Indices 1 2 3 4 5 6 
#
# 1 0.012691 -0.012616 -0.005104 0.000000 0.000000 0.000000
# 2 -0.012616 0.080621 -0.004954 0.000000 0.000000 0.000000
# 3 -0.005104 -0.004954 0.010406 0.000000 0.000000 0.000000
# 4 0.000000 0.000000 0.000000 0.113263 0.000000 0.000000
# 5 0.000000 0.000000 0.000000 0.000000 0.032333 0.000000
# 6 0.000000 0.000000 0.000000 0.000000 0.000000 0.053163
#
#
# Mechanical properties :
#
#
# Convention : Reuss Voigt Hill
#
# Bulk Modulus (GPa) = 17.13143 61.71016 39.42080
# Shear Modulus (GPa) = 13.61354 23.23276 18.42315
#
# Velocity S-wave (km/s) = 2.72339 3.55774 3.16815
# Velocity P-wave (km/s) = 4.38435 7.10614 5.90423
#
# Compressibility (1/GPa) = 0.05837223
#
# Stress axis : x y z
#
# Youngs Moduli (GPa) = 78.79316 12.40365 96.09938
#
# Poissons Ratio (x) = 0.15648 0.49046
# Poissons Ratio (y) = 0.99405 0.47604
# Poissons Ratio (z) = 0.40214 0.06144
#
# Static dielectric constant tensor:
#      x y z
#    x 3.612300 0.000000 0.000000 
#    y 0.000000 2.938780 0.000000 
#    z 0.000000 0.000000 4.365860 
# 
# 
# High freq. dielectric constant tensor:
#      x y z
#    x 1.710030 0.000000 0.000000 
#    y 0.000000 1.659900 0.000000 
#    z 0.000000 0.000000 1.721380 
# 
# From -- ./inp_files/27117.got.cif
#   From: 2010.03.12/outbox.cif.g09.slc.cpg/sg65_14_cif.got.tgz:27117.got - 2010.04.10 20:52:16.
