data_PCOD8265214
_publ_section_title
;
Structure prediction by ZEFSAII (Michael W. Deem and Ramdas Pophale) SiO2 
 PCOD8265214
Probable space group: C M M M
;
_chemical_formula_sum "Si O2"
_cell_formula_units_Z 80
_cell_length_a 21.112255
_cell_length_b 19.650727
_cell_length_c 14.113712
_cell_angle_alpha 90.000000
_cell_angle_beta 90.000000
_cell_angle_gamma 90.000000
_cell_volume 5855.372060
_symmetry_space_group_name_H-M "C M M M"
_symmetry_group_IT_number 65
_symmetry_cell_setting 'orthorhombic'
loop_
_space_group_symop_operation_xyz
x,y,z
-x,-y,z
x,-y,-z
-x,y,-z
-x,-y,-z
x,y,-z
-x,y,z
x,-y,z
1/2+x,1/2+y,z
1/2-x,1/2-y,z
1/2+x,1/2-y,-z
1/2-x,1/2+y,-z
1/2-x,1/2-y,-z
1/2+x,1/2+y,-z
1/2-x,1/2+y,z
1/2+x,1/2-y,z
loop_
_atom_site_type_symbol
_atom_site_label
_atom_site_fract_x
_atom_site_fract_y
_atom_site_fract_z
Si Si1 0.186737 0.214642 0.110998
Si Si2 0.069635 0.297914 0.111698
Si Si3 0.739752 0.424619 0.891202
Si Si4 0.871803 0.421890 0.204150
Si Si5 0.428977 0.919508 0.396711
O O1 0.250000 0.250000 0.153807
O O2 0.123197 0.247497 0.156302
O O3 0.187855 0.133401 0.132077
O O4 0.185182 0.229876 0.000000
O O5 0.085297 0.375882 0.136413
O O6 0.000000 0.278673 0.152436
O O7 0.068489 0.290391 0.000000
O O8 0.710037 0.500000 0.875474
O O9 0.798595 0.413181 0.821983
O O10 0.763364 0.416583 0.000000
O O11 0.893823 0.500000 0.190470
O O12 0.881575 0.396672 0.312880
O O13 0.406223 0.891237 0.500000
O O14 0.500000 0.892452 0.374746
O O15 0.430477 0.000000 0.401778
#
# Coordination Sequence:
#
# PCOD8265214 Si02
#       5
#    16  16  16  16  16
#     4   9  15  26  40  51  70 103 133 152 176 216
#     4  10  19  27  36  54  78 101 125 154 187 222
#     4   9  16  25  39  58  76  95 124 158 186 217
#     4  10  17  24  36  55  78 101 125 151 181 217
#     4   8  14  24  35  46  65  97 132 158 177 203
#
# _framework density 13.662667000000001
#
# number of rings (size 3 to 8) (size 9 to 14) (size 15 to 20)
#    0.000    2.800    2.000    1.800    0.000    2.400 
#    0.000    1.000    0.000    0.600    0.000    7.000 
#    0.000    0.000    0.000    0.000    0.000    0.000 
#
# Total GULP energy -495565.676311 kJ/mol
# GULP energy per Si atom -12389.141908 kJ/mol
# Density = 1.363157 g / cm^3
# Si number density = 13.662667 Si / 1000 Ang^3
#
#
#
# Elastic Constant Matrix: (Units=GPa)
#
#
# Indices 1 2 3 4 5 6 
#
# 1 87.1795 53.1576 17.5171 0.0000 0.0000 0.0000
# 2 53.1576 85.8521 16.5123 0.0000 0.0000 0.0000
# 3 17.5171 16.5123 28.2299 0.0000 0.0000 0.0000
# 4 0.0000 0.0000 0.0000 5.4513 0.0000 0.0000
# 5 0.0000 0.0000 0.0000 0.0000 9.5524 0.0000
# 6 0.0000 0.0000 0.0000 0.0000 0.0000 16.9767
#
#
#
# Elastic Compliance Matrix: (Units=1/GPa)
#
#
# Indices 1 2 3 4 5 6 
#
# 1 0.019178 -0.010801 -0.005583 0.000000 0.000000 0.000000
# 2 -0.010801 0.019207 -0.004533 0.000000 0.000000 0.000000
# 3 -0.005583 -0.004533 0.041539 0.000000 0.000000 0.000000
# 4 0.000000 0.000000 0.000000 0.183443 0.000000 0.000000
# 5 0.000000 0.000000 0.000000 0.000000 0.104686 0.000000
# 6 0.000000 0.000000 0.000000 0.000000 0.000000 0.058904
#
#
# Mechanical properties :
#
#
# Convention : Reuss Voigt Hill
#
# Bulk Modulus (GPa) = 26.25234 41.73729 33.99481
# Shear Modulus (GPa) = 10.38448 14.00103 12.19275
#
# Velocity S-wave (km/s) = 2.75991 3.20467 2.99057
# Velocity P-wave (km/s) = 5.42333 6.65642 6.07126
#
# Compressibility (1/GPa) = 0.03809184
#
# Stress axis : x y z
#
# Youngs Moduli (GPa) = 52.14257 52.06319 24.07387
#
# Poissons Ratio (x) = 0.56233 0.13440
# Poissons Ratio (y) = 0.56319 0.10912
# Poissons Ratio (z) = 0.29109 0.23599
#
# Static dielectric constant tensor:
#      x y z
#    x 2.815110 0.000000 0.000000 
#    y 0.000000 2.730600 0.000000 
#    z 0.000000 0.000000 2.743200 
# 
# 
# High freq. dielectric constant tensor:
#      x y z
#    x 1.501010 0.000000 0.000000 
#    y 0.000000 1.506200 0.000000 
#    z 0.000000 0.000000 1.487240 
# 
# From -- ./inp_files/40022.got.cif
#   From: 2010.03.12/outbox.cif.g09.slc.cpg/sg65_21_cif.got.tgz:40022.got - 2010.04.10 20:52:16.
