data_PCOD8265352
_publ_section_title
;
Structure prediction by ZEFSAII (Michael W. Deem and Ramdas Pophale) SiO2 
 PCOD8265352
Probable space group: C M M M
;
_chemical_formula_sum "Si O2"
_cell_formula_units_Z 128
_cell_length_a 23.047787
_cell_length_b 18.000690
_cell_length_c 18.286599
_cell_angle_alpha 90.000000
_cell_angle_beta 90.000000
_cell_angle_gamma 90.000000
_cell_volume 7586.672308
_symmetry_space_group_name_H-M "C M M M"
_symmetry_group_IT_number 65
_symmetry_cell_setting 'orthorhombic'
loop_
_space_group_symop_operation_xyz
x,y,z
-x,-y,z
x,-y,-z
-x,y,-z
-x,-y,-z
x,y,-z
-x,y,z
x,-y,z
1/2+x,1/2+y,z
1/2-x,1/2-y,z
1/2+x,1/2-y,-z
1/2-x,1/2+y,-z
1/2-x,1/2-y,-z
1/2+x,1/2+y,-z
1/2-x,1/2+y,z
1/2+x,1/2-y,z
loop_
_atom_site_type_symbol
_atom_site_label
_atom_site_fract_x
_atom_site_fract_y
_atom_site_fract_z
Si Si1 0.432871 0.713160 0.916471
Si Si2 0.131095 0.687643 0.804039
Si Si3 0.723194 0.325538 0.419257
Si Si4 0.934118 0.412632 0.697230
Si Si5 0.229235 0.583716 0.217324
Si Si6 0.323609 0.919359 0.621900
Si Si7 0.566598 0.415737 0.191694
Si Si8 0.661596 0.662876 0.272483
O O1 0.500000 0.735903 0.909881
O O2 0.394684 0.775133 0.876305
O O3 0.421919 0.632325 0.881170
O O4 0.412421 0.708844 0.000000
O O5 0.080511 0.637932 0.767401
O O6 0.184359 0.634410 0.829088
O O7 0.154475 0.750128 0.746883
O O8 0.693624 0.319936 0.500000
O O9 0.750000 0.250000 0.389587
O O10 0.780646 0.375082 0.430020
O O11 0.676986 0.350635 0.358165
O O12 0.924740 0.500000 0.717013
O O13 0.889955 0.389221 0.631203
O O14 0.000000 0.397270 0.672124
O O15 0.235630 0.500000 0.184566
O O16 0.203593 0.579177 0.297868
O O17 0.290933 0.625240 0.219220
O O18 0.326864 0.000000 0.586226
O O19 0.500000 0.411897 0.215958
O O20 0.585982 0.500000 0.175213
O O21 0.601850 0.381041 0.259463
#
# Coordination Sequence:
#
# PCOD8265352 Si02
#       8
#    16  16  16  16  16  16  16  16
#     4   9  18  31  47  70  99 129 159 190 228 276
#     4  10  17  27  46  69  94 121 154 197 238 273
#     4  10  19  30  45  66  93 123 152 186 230 279
#     4   9  16  26  43  66  90 118 154 197 240 278
#     4   9  16  27  45  66  88 118 154 194 236 274
#     4   8  15  27  41  61  87 113 147 190 230 268
#     4   9  18  32  51  74  96 120 153 195 239 279
#     4  10  18  30  48  71  95 119 152 195 239 282
#
# _framework density 16.871691999999999
#
# number of rings (size 3 to 8) (size 9 to 14) (size 15 to 20)
#    0.000    2.750    0.000    4.500    0.000    1.500 
#    0.000    1.250    0.000    8.250    0.000    8.750 
#    0.000    0.000    0.000    0.000    0.000    0.000 
#
# Total GULP energy -793057.599058 kJ/mol
# GULP energy per Si atom -12391.524985 kJ/mol
# Density = 1.683329 g / cm^3
# Si number density = 16.871692 Si / 1000 Ang^3
#
#
#
# Elastic Constant Matrix: (Units=GPa)
#
#
# Indices 1 2 3 4 5 6 
#
# 1 79.7682 38.7401 37.7053 0.0000 0.0000 0.0000
# 2 38.7401 100.1469 32.8830 0.0000 0.0000 0.0000
# 3 37.7053 32.8830 86.8206 0.0000 0.0000 0.0000
# 4 0.0000 0.0000 0.0000 21.9164 0.0000 0.0000
# 5 0.0000 0.0000 0.0000 0.0000 19.9705 0.0000
# 6 0.0000 0.0000 0.0000 0.0000 0.0000 30.2347
#
#
#
# Elastic Compliance Matrix: (Units=1/GPa)
#
#
# Indices 1 2 3 4 5 6 
#
# 1 0.017677 -0.004930 -0.005810 0.000000 0.000000 0.000000
# 2 -0.004930 0.012779 -0.002699 0.000000 0.000000 0.000000
# 3 -0.005810 -0.002699 0.015063 0.000000 0.000000 0.000000
# 4 0.000000 0.000000 0.000000 0.045628 0.000000 0.000000
# 5 0.000000 0.000000 0.000000 0.000000 0.050074 0.000000
# 6 0.000000 0.000000 0.000000 0.000000 0.000000 0.033075
#
#
# Mechanical properties :
#
#
# Convention : Reuss Voigt Hill
#
# Bulk Modulus (GPa) = 53.64375 53.93250 53.78813
# Shear Modulus (GPa) = 24.10961 24.91813 24.51387
#
# Velocity S-wave (km/s) = 3.78431 3.84724 3.81590
# Velocity P-wave (km/s) = 7.13854 7.19518 7.16692
#
# Compressibility (1/GPa) = 0.01864150
#
# Stress axis : x y z
#
# Youngs Moduli (GPa) = 56.57095 78.25532 66.38733
#
# Poissons Ratio (x) = 0.38584 0.38568
# Poissons Ratio (y) = 0.27892 0.17915
# Poissons Ratio (z) = 0.32865 0.21118
#
# Static dielectric constant tensor:
#      x y z
#    x 3.381300 0.000000 0.000000 
#    y 0.000000 3.298100 0.000000 
#    z 0.000000 0.000000 2.754060 
# 
# 
# High freq. dielectric constant tensor:
#      x y z
#    x 1.652180 0.000000 0.000000 
#    y 0.000000 1.664100 0.000000 
#    z 0.000000 0.000000 1.604390 
# 
# From -- ./inp_files/56988.got.cif
#   From: 2010.03.12/outbox.cif.g09.slc.cpg/sg65_29_cif.got.tgz:56988.got - 2010.04.10 20:52:16.
