data_PCOD8265276
_publ_section_title
;
Structure prediction by ZEFSAII (Michael W. Deem and Ramdas Pophale) SiO2 
 PCOD8265276
Probable space group: C M M M
;
_chemical_formula_sum "Si O2"
_cell_formula_units_Z 120
_cell_length_a 27.782479
_cell_length_b 21.499016
_cell_length_c 13.692469
_cell_angle_alpha 90.000000
_cell_angle_beta 90.000000
_cell_angle_gamma 90.000000
_cell_volume 8178.456424
_symmetry_space_group_name_H-M "C M M M"
_symmetry_group_IT_number 65
_symmetry_cell_setting 'orthorhombic'
loop_
_space_group_symop_operation_xyz
x,y,z
-x,-y,z
x,-y,-z
-x,y,-z
-x,-y,-z
x,y,-z
-x,y,z
x,-y,z
1/2+x,1/2+y,z
1/2-x,1/2-y,z
1/2+x,1/2-y,-z
1/2-x,1/2+y,-z
1/2-x,1/2-y,-z
1/2+x,1/2+y,-z
1/2-x,1/2+y,z
1/2+x,1/2-y,z
loop_
_atom_site_type_symbol
_atom_site_label
_atom_site_fract_x
_atom_site_fract_y
_atom_site_fract_z
Si Si1 0.442733 0.255503 0.200172
Si Si2 0.691292 0.069656 0.115463
Si Si3 0.105636 0.875357 0.115615
Si Si4 0.555727 0.067701 0.711524
Si Si5 0.443098 0.187656 0.607392
Si Si6 0.553292 0.500000 0.115536
Si Si7 0.095422 0.632981 0.113047
Si Si8 0.296877 0.569625 0.115852
O O1 0.500000 0.256202 0.180994
O O2 0.419478 0.321056 0.175696
O O3 0.430258 0.240513 0.313412
O O4 0.417746 0.204687 0.130556
O O5 0.650407 0.118668 0.147963
O O6 0.744113 0.091891 0.153644
O O7 0.679698 0.000000 0.155488
O O8 0.693420 0.066487 0.000000
O O9 0.161720 0.881569 0.147812
O O10 0.080570 0.938635 0.150677
O O11 0.099460 0.863308 0.000000
O O12 0.500000 0.061843 0.687964
O O13 0.578878 0.120974 0.642095
O O14 0.560934 0.088373 0.824325
O O15 0.580174 0.000000 0.693211
O O16 0.422317 0.204931 0.500000
O O17 0.500000 0.180491 0.602413
O O18 0.500000 0.500000 0.161402
O O19 0.550778 0.500000 0.000000
O O20 0.087990 0.616174 0.000000
O O21 0.307656 0.500000 0.156163
O O22 0.297936 0.565915 0.000000
#
# Coordination Sequence:
#
# PCOD8265276 Si02
#       8
#    16  16  16  16  16   8  16  16
#     4  10  20  30  40  57  81 109 139 168 198 237
#     4   8  14  24  39  55  72 102 144 179 202 226
#     4  10  17  26  40  59  84 112 137 163 197 236
#     4   9  17  26  37  57  81 103 133 173 209 239
#     4   8  15  29  45  57  72  98 132 168 206 246
#     4   9  16  24  36  56  81 109 139 163 187 231
#     4  10  18  27  37  52  80 117 147 166 188 226
#     4   8  13  24  40  57  77 103 136 172 207 236
#
# _framework density 14.672696
#
# number of rings (size 3 to 8) (size 9 to 14) (size 15 to 20)
#    0.000    3.000    0.667    3.200    0.000    3.467 
#    0.000    2.667    0.000    3.200    0.000    0.467 
#    0.000   11.200    0.000   12.000    0.000    1.067 
#
# Total GULP energy -743330.823783 kJ/mol
# GULP energy per Si atom -12388.847063 kJ/mol
# Density = 1.463930 g / cm^3
# Si number density = 14.672696 Si / 1000 Ang^3
#
#
#
# Elastic Constant Matrix: (Units=GPa)
#
#
# Indices 1 2 3 4 5 6 
#
# 1 74.2752 42.6938 14.3472 0.0000 0.0000 0.0000
# 2 42.6938 106.8151 30.2058 0.0000 0.0000 0.0000
# 3 14.3472 30.2058 60.2721 0.0000 0.0000 0.0000
# 4 0.0000 0.0000 0.0000 8.7243 0.0000 0.0000
# 5 0.0000 0.0000 0.0000 0.0000 4.1488 0.0000
# 6 0.0000 0.0000 0.0000 0.0000 0.0000 25.2382
#
#
#
# Elastic Compliance Matrix: (Units=1/GPa)
#
#
# Indices 1 2 3 4 5 6 
#
# 1 0.017510 -0.006781 -0.000770 0.000000 0.000000 0.000000
# 2 -0.006781 0.013534 -0.005168 0.000000 0.000000 0.000000
# 3 -0.000770 -0.005168 0.019365 0.000000 0.000000 0.000000
# 4 0.000000 0.000000 0.000000 0.114622 0.000000 0.000000
# 5 0.000000 0.000000 0.000000 0.000000 0.241036 0.000000
# 6 0.000000 0.000000 0.000000 0.000000 0.000000 0.039623
#
#
# Mechanical properties :
#
#
# Convention : Reuss Voigt Hill
#
# Bulk Modulus (GPa) = 40.04758 46.20622 43.12690
# Shear Modulus (GPa) = 10.42860 17.89663 14.16262
#
# Velocity S-wave (km/s) = 2.66888 3.49624 3.11020
# Velocity P-wave (km/s) = 6.07046 6.91794 6.50801
#
# Compressibility (1/GPa) = 0.02497030
#
# Stress axis : x y z
#
# Youngs Moduli (GPa) = 57.11063 73.88861 51.63995
#
# Poissons Ratio (x) = 0.50104 0.03975
# Poissons Ratio (y) = 0.38727 0.26690
# Poissons Ratio (z) = 0.04396 0.38189
#
# Static dielectric constant tensor:
#      x y z
#    x 3.100020 0.000000 0.000000 
#    y 0.000000 2.881430 0.000000 
#    z 0.000000 0.000000 2.642790 
# 
# 
# High freq. dielectric constant tensor:
#      x y z
#    x 1.551870 0.000000 0.000000 
#    y 0.000000 1.557200 0.000000 
#    z 0.000000 0.000000 1.510970 
# 
# From -- ./inp_files/47295.got.cif
#   From: 2010.03.12/outbox.cif.g09.slc.cpg/sg65_24_cif.got.tgz:47295.got - 2010.04.10 20:52:16.
