data_PCOD8265197
_publ_section_title
;
Structure prediction by ZEFSAII (Michael W. Deem and Ramdas Pophale) SiO2 
 PCOD8265197
Probable space group: C M M M
;
_chemical_formula_sum "Si O2"
_cell_formula_units_Z 128
_cell_length_a 19.763283
_cell_length_b 19.910301
_cell_length_c 21.590583
_cell_angle_alpha 90.000000
_cell_angle_beta 90.000000
_cell_angle_gamma 90.000000
_cell_volume 8495.741404
_symmetry_space_group_name_H-M "C M M M"
_symmetry_group_IT_number 65
_symmetry_cell_setting 'orthorhombic'
loop_
_space_group_symop_operation_xyz
x,y,z
-x,-y,z
x,-y,-z
-x,y,-z
-x,-y,-z
x,y,-z
-x,y,z
x,-y,z
1/2+x,1/2+y,z
1/2-x,1/2-y,z
1/2+x,1/2-y,-z
1/2-x,1/2+y,-z
1/2-x,1/2-y,-z
1/2+x,1/2+y,-z
1/2-x,1/2+y,z
1/2+x,1/2-y,z
loop_
_atom_site_type_symbol
_atom_site_label
_atom_site_fract_x
_atom_site_fract_y
_atom_site_fract_z
Si Si1 0.710117 0.319777 0.197700
Si Si2 0.746436 0.176641 0.328772
Si Si3 0.889211 0.647099 0.262652
Si Si4 0.076934 0.644767 0.072053
Si Si5 0.786821 0.421547 0.569799
Si Si6 0.071960 0.576720 0.620866
Si Si7 0.181315 0.576973 0.156138
Si Si8 0.074490 0.757965 0.167429
O O1 0.750000 0.250000 0.188704
O O2 0.702528 0.336441 0.271258
O O3 0.750941 0.376947 0.159902
O O4 0.633586 0.313677 0.171878
O O5 0.750000 0.250000 0.360402
O O6 0.673401 0.177817 0.298414
O O7 0.758248 0.120236 0.381414
O O8 0.937225 0.616118 0.314639
O O9 0.864004 0.588290 0.217033
O O10 0.925118 0.706190 0.224925
O O11 0.133779 0.593625 0.097286
O O12 0.086398 0.716864 0.104393
O O13 0.000000 0.617715 0.084287
O O14 0.090365 0.655215 0.000000
O O15 0.764993 0.403384 0.500000
O O16 0.775346 0.500000 0.583113
O O17 0.865522 0.399863 0.578236
O O18 0.084784 0.500000 0.638778
O O19 0.000000 0.585900 0.584997
O O20 0.204922 0.500000 0.152079
O O21 0.000000 0.792642 0.166832
#
# Coordination Sequence:
#
# PCOD8265197 Si02
#       8
#    16  16  16  16  16  16  16  16
#     4  10  16  32  47  68  94 115 148 195 231 274
#     4   9  15  26  45  61  83 110 137 179 229 264
#     4   9  15  26  41  62  87 106 142 186 227 272
#     4   9  18  31  46  67  97 128 158 188 221 267
#     4   9  18  29  39  56  83 114 149 181 209 254
#     4   9  16  24  35  53  79 111 144 178 213 250
#     4  10  19  29  45  64  89 125 158 186 229 276
#     4  10  17  28  48  69  89 121 153 186 231 275
#
# _framework density 15.066373
#
# number of rings (size 3 to 8) (size 9 to 14) (size 15 to 20)
#    0.000    2.625    5.000    0.750    0.000    4.500 
#    0.000    3.125    0.000    0.375    0.000    0.000 
#    0.000    0.500    0.000    5.625    0.000    0.000 
#
# Total GULP energy -792930.398652 kJ/mol
# GULP energy per Si atom -12389.537479 kJ/mol
# Density = 1.503208 g / cm^3
# Si number density = 15.066373 Si / 1000 Ang^3
#
#
#
# Elastic Constant Matrix: (Units=GPa)
#
#
# Indices 1 2 3 4 5 6 
#
# 1 74.3662 37.6891 29.0141 0.0000 0.0000 0.0000
# 2 37.6891 70.5295 42.8036 0.0000 0.0000 0.0000
# 3 29.0141 42.8036 84.8135 0.0000 0.0000 0.0000
# 4 0.0000 0.0000 0.0000 14.0398 0.0000 0.0000
# 5 0.0000 0.0000 0.0000 0.0000 12.6993 0.0000
# 6 0.0000 0.0000 0.0000 0.0000 0.0000 18.5511
#
#
#
# Elastic Compliance Matrix: (Units=1/GPa)
#
#
# Indices 1 2 3 4 5 6 
#
# 1 0.018662 -0.008790 -0.001948 0.000000 0.000000 0.000000
# 2 -0.008790 0.024579 -0.009397 0.000000 0.000000 0.000000
# 3 -0.001948 -0.009397 0.017200 0.000000 0.000000 0.000000
# 4 0.000000 0.000000 0.000000 0.071226 0.000000 0.000000
# 5 0.000000 0.000000 0.000000 0.000000 0.078745 0.000000
# 6 0.000000 0.000000 0.000000 0.000000 0.000000 0.053905
#
#
# Mechanical properties :
#
#
# Convention : Reuss Voigt Hill
#
# Bulk Modulus (GPa) = 49.58007 49.85809 49.71908
# Shear Modulus (GPa) = 16.06113 17.07153 16.56633
#
# Velocity S-wave (km/s) = 3.26855 3.36979 3.31955
# Velocity P-wave (km/s) = 6.87195 6.95016 6.91117
#
# Compressibility (1/GPa) = 0.02016939
#
# Stress axis : x y z
#
# Youngs Moduli (GPa) = 53.58519 40.68520 58.14099
#
# Poissons Ratio (x) = 0.35764 0.11325
# Poissons Ratio (y) = 0.47103 0.54637
# Poissons Ratio (z) = 0.10437 0.38233
#
# Static dielectric constant tensor:
#      x y z
#    x 2.932400 0.000000 0.000000 
#    y 0.000000 2.827490 0.000000 
#    z 0.000000 0.000000 3.020810 
# 
# 
# High freq. dielectric constant tensor:
#      x y z
#    x 1.560510 0.000000 0.000000 
#    y 0.000000 1.548820 0.000000 
#    z 0.000000 0.000000 1.571580 
# 
# From -- ./inp_files/71301.got.cif
#   From: 2010.03.12/outbox.cif.g09.slc.cpg/sg65_36_cif.got.tgz:71301.got - 2010.04.10 20:52:16.
