data_PCOD8265375
_publ_section_title
;
Structure prediction by ZEFSAII (Michael W. Deem and Ramdas Pophale) SiO2 
 PCOD8265375
Probable space group: C M M M
;
_chemical_formula_sum "Si O2"
_cell_formula_units_Z 104
_cell_length_a 9.597052
_cell_length_b 31.102446
_cell_length_c 19.163311
_cell_angle_alpha 90.000000
_cell_angle_beta 90.000000
_cell_angle_gamma 90.000000
_cell_volume 5720.091033
_symmetry_space_group_name_H-M "C M M M"
_symmetry_group_IT_number 65
_symmetry_cell_setting 'orthorhombic'
loop_
_space_group_symop_operation_xyz
x,y,z
-x,-y,z
x,-y,-z
-x,y,-z
-x,-y,-z
x,y,-z
-x,y,z
x,-y,z
1/2+x,1/2+y,z
1/2-x,1/2-y,z
1/2+x,1/2-y,-z
1/2-x,1/2+y,-z
1/2-x,1/2-y,-z
1/2+x,1/2+y,-z
1/2-x,1/2+y,z
1/2+x,1/2-y,z
loop_
_atom_site_type_symbol
_atom_site_label
_atom_site_fract_x
_atom_site_fract_y
_atom_site_fract_z
Si Si1 0.500000 0.723396 0.080705
Si Si2 0.338066 0.373590 0.418197
Si Si3 0.832852 0.000000 0.923548
Si Si4 0.791311 0.848621 0.918173
Si Si5 0.155643 0.927792 0.827501
Si Si6 0.339049 0.790877 0.582919
Si Si7 0.834550 0.048887 0.322392
Si Si8 0.000000 0.683588 0.918503
O O1 0.361767 0.696855 0.099137
O O2 0.500000 0.769625 0.119712
O O3 0.500000 0.733590 0.000000
O O4 0.320253 0.381113 0.500000
O O5 0.500000 0.363225 0.399598
O O6 0.241082 0.334118 0.392240
O O7 0.284860 0.417643 0.381715
O O8 0.770700 0.041138 0.883246
O O9 0.000000 0.000000 0.929199
O O10 0.765841 0.000000 0.000000
O O11 0.852838 0.881266 0.862289
O O12 0.631003 0.844910 0.897861
O O13 0.818130 0.861729 0.000000
O O14 0.225383 0.931826 0.751072
O O15 0.000000 0.945168 0.816188
O O16 0.341902 0.789164 0.500000
O O17 0.500000 0.790017 0.610943
O O18 0.250000 0.750000 0.611349
O O19 0.000000 0.047580 0.323319
O O20 0.777333 0.000000 0.334915
O O21 0.000000 0.692312 0.000000
#
# Coordination Sequence:
#
# PCOD8265375 Si02
#       8
#     8  16   8  16  16  16  16   8
#     4   9  16  28  46  69  93 119 158 202 237 279
#     4   9  17  29  48  76 104 131 167 209 250 293
#     4   9  16  24  40  67  98 122 148 199 247 283
#     4  10  18  28  46  71  96 122 157 199 239 284
#     4  10  17  28  45  69  96 123 158 198 243 292
#     4   9  16  27  47  76 108 138 167 202 246 294
#     4   9  17  30  48  71  99 130 165 203 253 305
#     4   9  18  30  44  65  95 129 158 192 243 291
#
# _framework density 18.181529999999999
#
# number of rings (size 3 to 8) (size 9 to 14) (size 15 to 20)
#    0.000    2.692    1.538    1.385    0.000    4.615 
#    0.000    1.538    1.692    2.769    0.000    4.308 
#    0.000    0.000    0.000    0.000    0.000    0.000 
#
# Total GULP energy -644195.272318 kJ/mol
# GULP energy per Si atom -12388.370622 kJ/mol
# Density = 1.814015 g / cm^3
# Si number density = 18.181530 Si / 1000 Ang^3
#
#
#
# Elastic Constant Matrix: (Units=GPa)
#
#
# Indices 1 2 3 4 5 6 
#
# 1 76.9473 27.1035 18.2111 0.0000 0.0000 0.0000
# 2 27.1035 126.4636 49.3293 0.0000 0.0000 0.0000
# 3 18.2111 49.3293 66.2999 0.0000 0.0000 0.0000
# 4 0.0000 0.0000 0.0000 6.8508 0.0000 0.0000
# 5 0.0000 0.0000 0.0000 0.0000 7.8979 0.0000
# 6 0.0000 0.0000 0.0000 0.0000 0.0000 3.6034
#
#
#
# Elastic Compliance Matrix: (Units=1/GPa)
#
#
# Indices 1 2 3 4 5 6 
#
# 1 0.014306 -0.002160 -0.002322 0.000000 0.000000 0.000000
# 2 -0.002160 0.011467 -0.007938 0.000000 0.000000 0.000000
# 3 -0.002322 -0.007938 0.021627 0.000000 0.000000 0.000000
# 4 0.000000 0.000000 0.000000 0.145968 0.000000 0.000000
# 5 0.000000 0.000000 0.000000 0.000000 0.126616 0.000000
# 6 0.000000 0.000000 0.000000 0.000000 0.000000 0.277514
#
#
# Mechanical properties :
#
#
# Convention : Reuss Voigt Hill
#
# Bulk Modulus (GPa) = 44.32887 50.99984 47.66436
# Shear Modulus (GPa) = 7.93827 15.34155 11.63991
#
# Velocity S-wave (km/s) = 2.09179 2.90797 2.53297
# Velocity P-wave (km/s) = 5.50167 6.27585 5.90147
#
# Compressibility (1/GPa) = 0.02255866
#
# Stress axis : x y z
#
# Youngs Moduli (GPa) = 69.89846 87.20762 46.23794
#
# Poissons Ratio (x) = 0.18839 0.10738
# Poissons Ratio (y) = 0.15100 0.36705
# Poissons Ratio (z) = 0.16233 0.69228
#
# Static dielectric constant tensor:
#      x y z
#    x 2.918570 0.000000 0.000000 
#    y 0.000000 3.537400 0.000000 
#    z 0.000000 0.000000 3.137750 
# 
# 
# High freq. dielectric constant tensor:
#      x y z
#    x 1.667100 0.000000 0.000000 
#    y 0.000000 1.716410 0.000000 
#    z 0.000000 0.000000 1.668080 
# 
# From -- ./inp_files/60959.got.cif
#   From: 2010.03.12/outbox.cif.g09.slc.cpg/sg65_31_cif.got.tgz:60959.got - 2010.04.10 20:52:16.
