data_PCOD8265742
_publ_section_title
;
Structure prediction by ZEFSAII (Michael W. Deem and Ramdas Pophale) SiO2 
 PCOD8265742
Probable space group: C M M M
;
_chemical_formula_sum "Si O2"
_cell_formula_units_Z 88
_cell_length_a 17.222242
_cell_length_b 22.570303
_cell_length_c 15.979695
_cell_angle_alpha 90.000000
_cell_angle_beta 90.000000
_cell_angle_gamma 90.000000
_cell_volume 6211.486743
_symmetry_space_group_name_H-M "C M M M"
_symmetry_group_IT_number 65
_symmetry_cell_setting 'orthorhombic'
loop_
_space_group_symop_operation_xyz
x,y,z
-x,-y,z
x,-y,-z
-x,y,-z
-x,-y,-z
x,y,-z
-x,y,z
x,-y,z
1/2+x,1/2+y,z
1/2-x,1/2-y,z
1/2+x,1/2-y,-z
1/2-x,1/2+y,-z
1/2-x,1/2-y,-z
1/2+x,1/2+y,-z
1/2-x,1/2+y,z
1/2+x,1/2-y,z
loop_
_atom_site_type_symbol
_atom_site_label
_atom_site_fract_x
_atom_site_fract_y
_atom_site_fract_z
Si Si1 0.411697 0.000000 0.780471
Si Si2 0.817992 0.705849 0.785670
Si Si3 0.911324 0.211663 0.095371
Si Si4 0.226736 0.500000 0.096520
Si Si5 0.721324 0.625271 0.904518
Si Si6 0.407967 0.066750 0.500000
Si Si7 0.409609 0.882313 0.674756
O O1 0.356246 0.000000 0.859564
O O2 0.394856 0.058199 0.726581
O O3 0.500000 0.000000 0.813208
O O4 0.750000 0.750000 0.752875
O O5 0.882907 0.739677 0.839103
O O6 0.783244 0.657812 0.847611
O O7 0.858683 0.672747 0.708207
O O8 0.864734 0.150669 0.109367
O O9 0.000000 0.196729 0.114305
O O10 0.899523 0.234935 0.000000
O O11 0.279116 0.556415 0.120941
O O12 0.204882 0.500000 0.000000
O O13 0.748401 0.634504 0.000000
O O14 0.500000 0.059946 0.500000
O O15 0.380847 0.103835 0.419181
O O16 0.372218 0.000000 0.500000
O O17 0.500000 0.864030 0.677493
#
# Coordination Sequence:
#
# PCOD8265742 Si02
#       7
#     8  16  16   8  16   8  16
#     4  10  18  28  44  63  84 111 141 172 202 243
#     4  10  18  28  43  61  83 113 143 166 204 246
#     4   9  17  29  43  59  80 108 145 183 209 234
#     4  10  18  29  42  59  86 115 139 168 213 253
#     4   9  17  28  42  59  81 110 142 173 207 250
#     4   9  16  28  45  64  84 108 134 164 205 250
#     4  10  18  29  45  65  86 106 137 173 205 244
#
# _framework density 14.167299999999999
#
# number of rings (size 3 to 8) (size 9 to 14) (size 15 to 20)
#    0.000    2.455    2.727    1.091    0.000    2.364 
#    0.000    0.909    0.000    2.727    0.000    0.000 
#    0.000    0.000    0.000    0.000    0.000   22.545 
#
# Total GULP energy -545450.952766 kJ/mol
# GULP energy per Si atom -12396.612563 kJ/mol
# Density = 1.413505 g / cm^3
# Si number density = 14.167300 Si / 1000 Ang^3
#
#
#
# Elastic Constant Matrix: (Units=GPa)
#
#
# Indices 1 2 3 4 5 6 
#
# 1 82.3895 53.4344 49.2682 0.0000 0.0000 0.0000
# 2 53.4344 112.1114 58.5064 0.0000 0.0000 0.0000
# 3 49.2682 58.5064 77.9309 0.0000 0.0000 0.0000
# 4 0.0000 0.0000 0.0000 9.3387 0.0000 0.0000
# 5 0.0000 0.0000 0.0000 0.0000 16.6698 0.0000
# 6 0.0000 0.0000 0.0000 0.0000 0.0000 21.6299
#
#
#
# Elastic Compliance Matrix: (Units=1/GPa)
#
#
# Indices 1 2 3 4 5 6 
#
# 1 0.021153 -0.005102 -0.009543 0.000000 0.000000 0.000000
# 2 -0.005102 0.015896 -0.008708 0.000000 0.000000 0.000000
# 3 -0.009543 -0.008708 0.025403 0.000000 0.000000 0.000000
# 4 0.000000 0.000000 0.000000 0.107081 0.000000 0.000000
# 5 0.000000 0.000000 0.000000 0.000000 0.059989 0.000000
# 6 0.000000 0.000000 0.000000 0.000000 0.000000 0.046232
#
#
# Mechanical properties :
#
#
# Convention : Reuss Voigt Hill
#
# Bulk Modulus (GPa) = 63.51048 66.09445 64.80247
# Shear Modulus (GPa) = 15.25751 16.94255 16.10003
#
# Velocity S-wave (km/s) = 3.28526 3.46192 3.37474
# Velocity P-wave (km/s) = 7.70174 7.92048 7.81187
#
# Compressibility (1/GPa) = 0.01574543
#
# Stress axis : x y z
#
# Youngs Moduli (GPa) = 47.27521 62.90933 39.36612
#
# Poissons Ratio (x) = 0.32096 0.37566
# Poissons Ratio (y) = 0.24119 0.34282
# Poissons Ratio (z) = 0.45113 0.54784
#
# Static dielectric constant tensor:
#      x y z
#    x 2.671270 0.000000 0.000000 
#    y 0.000000 2.935810 0.000000 
#    z 0.000000 0.000000 2.744860 
# 
# 
# High freq. dielectric constant tensor:
#      x y z
#    x 1.525510 0.000000 0.000000 
#    y 0.000000 1.544050 0.000000 
#    z 0.000000 0.000000 1.526270 
# 
# From -- ./inp_files/42783.got.cif
#   From: 2010.03.12/outbox.cif.g09.slc.cpg/sg65_22_cif.got.tgz:42783.got - 2010.04.10 20:52:16.
