data_PCOD8265670
_publ_section_title
;
Structure prediction by ZEFSAII (Michael W. Deem and Ramdas Pophale) SiO2 
 PCOD8265670
Probable space group: C M M M
;
_chemical_formula_sum "Si O2"
_cell_formula_units_Z 96
_cell_length_a 9.228504
_cell_length_b 28.704304
_cell_length_c 23.549198
_cell_angle_alpha 90.000000
_cell_angle_beta 90.000000
_cell_angle_gamma 90.000000
_cell_volume 6238.130372
_symmetry_space_group_name_H-M "C M M M"
_symmetry_group_IT_number 65
_symmetry_cell_setting 'orthorhombic'
loop_
_space_group_symop_operation_xyz
x,y,z
-x,-y,z
x,-y,-z
-x,y,-z
-x,-y,-z
x,y,-z
-x,y,z
x,-y,z
1/2+x,1/2+y,z
1/2-x,1/2-y,z
1/2+x,1/2-y,-z
1/2-x,1/2+y,-z
1/2-x,1/2-y,-z
1/2+x,1/2+y,-z
1/2-x,1/2+y,z
1/2+x,1/2-y,z
loop_
_atom_site_type_symbol
_atom_site_label
_atom_site_fract_x
_atom_site_fract_y
_atom_site_fract_z
Si Si1 0.836281 0.203610 0.000000
Si Si2 0.661019 0.055384 0.393547
Si Si3 0.327193 0.115197 0.834262
Si Si4 0.162046 0.944346 0.500000
Si Si5 0.170811 0.200459 0.876418
Si Si6 0.328010 0.947804 0.937173
Si Si7 0.172362 0.551855 0.731040
O O1 0.750000 0.250000 0.000000
O O2 0.803324 0.178021 0.059952
O O3 0.000000 0.220439 0.000000
O O4 0.500000 0.076107 0.402118
O O5 0.761191 0.075650 0.443524
O O6 0.724253 0.069226 0.331408
O O7 0.653803 0.000000 0.397180
O O8 0.500000 0.122547 0.835348
O O9 0.246528 0.164831 0.833049
O O10 0.269625 0.086437 0.888713
O O11 0.273797 0.087893 0.778380
O O12 0.000000 0.924955 0.500000
O O13 0.165559 0.000000 0.500000
O O14 0.250000 0.250000 0.870150
O O15 0.000000 0.205971 0.862843
O O16 0.500000 0.949027 0.934392
O O17 0.268445 0.000000 0.925923
O O18 0.277459 0.930661 0.000000
O O19 0.233942 0.500000 0.744389
O O20 0.000000 0.549016 0.730931
#
# Coordination Sequence:
#
# PCOD8265670 Si02
#       7
#     8  16  16   8  16  16  16
#     4   8  16  30  46  60  75  96 121 155 200 251
#     4   8  13  22  36  52  73 105 143 176 203 235
#     4  10  18  27  44  66  85 108 138 173 212 251
#     4   9  15  21  31  51  77 103 134 173 214 247
#     4  10  20  34  48  63  82 104 131 167 212 262
#     4   8  14  24  38  59  85 109 136 171 206 241
#     4   8  14  25  41  61  84 112 147 181 207 237
#
# _framework density 15.389226000000001
#
# number of rings (size 3 to 8) (size 9 to 14) (size 15 to 20)
#    0.000    3.250    0.000    2.750    1.167    3.667 
#    0.000    0.833    0.000    3.000    0.000    1.167 
#    0.000    0.000    0.000    0.750    0.000    8.417 
#
# Total GULP energy -594645.894772 kJ/mol
# GULP energy per Si atom -12388.456141 kJ/mol
# Density = 1.535420 g / cm^3
# Si number density = 15.389226 Si / 1000 Ang^3
#
#
#
# Elastic Constant Matrix: (Units=GPa)
#
#
# Indices 1 2 3 4 5 6 
#
# 1 54.2941 28.7331 43.7215 0.0000 0.0000 0.0000
# 2 28.7331 64.2701 53.7231 0.0000 0.0000 0.0000
# 3 43.7215 53.7231 131.7598 0.0000 0.0000 0.0000
# 4 0.0000 0.0000 0.0000 7.8893 0.0000 0.0000
# 5 0.0000 0.0000 0.0000 0.0000 11.0635 0.0000
# 6 0.0000 0.0000 0.0000 0.0000 0.0000 15.2704
#
#
#
# Elastic Compliance Matrix: (Units=1/GPa)
#
#
# Indices 1 2 3 4 5 6 
#
# 1 0.027043 -0.006962 -0.006135 0.000000 0.000000 0.000000
# 2 -0.006962 0.025396 -0.008045 0.000000 0.000000 0.000000
# 3 -0.006135 -0.008045 0.012905 0.000000 0.000000 0.000000
# 4 0.000000 0.000000 0.000000 0.126755 0.000000 0.000000
# 5 0.000000 0.000000 0.000000 0.000000 0.090387 0.000000
# 6 0.000000 0.000000 0.000000 0.000000 0.000000 0.065486
#
#
# Mechanical properties :
#
#
# Convention : Reuss Voigt Hill
#
# Bulk Modulus (GPa) = 43.36251 55.85329 49.60790
# Shear Modulus (GPa) = 12.56461 15.12107 13.84284
#
# Velocity S-wave (km/s) = 2.86047 3.13801 3.00245
# Velocity P-wave (km/s) = 6.25684 7.03577 6.65770
#
# Compressibility (1/GPa) = 0.02306139
#
# Stress axis : x y z
#
# Youngs Moduli (GPa) = 36.97846 39.37569 77.48636
#
# Poissons Ratio (x) = 0.27412 0.47538
# Poissons Ratio (y) = 0.25744 0.62337
# Poissons Ratio (z) = 0.22686 0.31677
#
# Static dielectric constant tensor:
#      x y z
#    x 2.714060 0.000000 0.000000 
#    y 0.000000 2.606980 0.000000 
#    z 0.000000 0.000000 3.438960 
# 
# 
# High freq. dielectric constant tensor:
#      x y z
#    x 1.564530 0.000000 0.000000 
#    y 0.000000 1.543000 0.000000 
#    z 0.000000 0.000000 1.589510 
# 
# From -- ./inp_files/68106.got.cif
#   From: 2010.03.12/outbox.cif.g09.slc.cpg/sg65_35_cif.got.tgz:68106.got - 2010.04.10 20:52:16.
