data_PCOD8265566
_publ_section_title
;
Structure prediction by ZEFSAII (Michael W. Deem and Ramdas Pophale) SiO2 
 PCOD8265566
Probable space group: C M M M
;
_chemical_formula_sum "Si O2"
_cell_formula_units_Z 88
_cell_length_a 31.821609
_cell_length_b 26.866037
_cell_length_c 7.724698
_cell_angle_alpha 90.000000
_cell_angle_beta 90.000000
_cell_angle_gamma 90.000000
_cell_volume 6604.002868
_symmetry_space_group_name_H-M "C M M M"
_symmetry_group_IT_number 65
_symmetry_cell_setting 'orthorhombic'
loop_
_space_group_symop_operation_xyz
x,y,z
-x,-y,z
x,-y,-z
-x,y,-z
-x,-y,-z
x,y,-z
-x,y,z
x,-y,z
1/2+x,1/2+y,z
1/2-x,1/2-y,z
1/2+x,1/2-y,-z
1/2-x,1/2+y,-z
1/2-x,1/2-y,-z
1/2+x,1/2+y,-z
1/2-x,1/2+y,z
1/2+x,1/2-y,z
loop_
_atom_site_type_symbol
_atom_site_label
_atom_site_fract_x
_atom_site_fract_y
_atom_site_fract_z
Si Si1 0.758977 0.390843 0.297392
Si Si2 0.316032 0.229753 0.000000
Si Si3 0.656420 0.167364 0.306728
Si Si4 0.411966 0.903625 0.201154
Si Si5 0.271155 0.673471 0.000000
Si Si6 0.000000 0.557186 0.296583
Si Si7 0.367941 0.000000 0.203978
Si Si8 0.227501 0.500000 0.700699
O O1 0.746637 0.384314 0.500000
O O2 0.807375 0.373805 0.266720
O O3 0.753271 0.448031 0.229919
O O4 0.727710 0.359224 0.175948
O O5 0.340735 0.212948 0.172390
O O6 0.311389 0.289773 0.000000
O O7 0.270526 0.205752 0.000000
O O8 0.662498 0.188961 0.500000
O O9 0.609985 0.143283 0.293827
O O10 0.461364 0.909173 0.232542
O O11 0.390663 0.952270 0.284265
O O12 0.401856 0.897924 0.000000
O O13 0.000000 0.500000 0.219424
O O14 0.000000 0.553117 0.500000
O O15 0.320746 0.000000 0.258484
O O16 0.373783 0.000000 0.000000
O O17 0.234909 0.500000 0.500000
#
# Coordination Sequence:
#
# PCOD8265566 Si02
#       8
#    16   8  16  16   8   8   8   8
#     4   9  18  27  39  60  80 101 126 153 188 231
#     4   9  18  32  42  59  73  92 122 155 200 240
#     4  10  18  29  45  60  75  96 126 162 198 236
#     4  11  20  32  43  57  77  98 131 165 199 244
#     4   9  18  29  44  54  76  99 118 153 193 242
#     4  11  23  33  41  55  77 105 135 162 199 249
#     4  10  20  25  41  58  71 100 130 162 194 234
#     4  10  18  26  37  57  82 102 127 159 189 228
#
# _framework density 13.325251
#
# number of rings (size 3 to 8) (size 9 to 14) (size 15 to 20)
#    0.000    2.091    3.636    0.818    1.273    1.818 
#    0.000    3.636    0.000    0.000    0.000    0.000 
#    0.000    0.000    0.000    0.000    0.000    0.000 
#
# Total GULP energy -545298.420401 kJ/mol
# GULP energy per Si atom -12393.145918 kJ/mol
# Density = 1.329492 g / cm^3
# Si number density = 13.325251 Si / 1000 Ang^3
#
#
#
# Elastic Constant Matrix: (Units=GPa)
#
#
# Indices 1 2 3 4 5 6 
#
# 1 41.5065 40.4093 20.9050 0.0000 0.0000 0.0000
# 2 40.4093 87.6886 39.0009 0.0000 0.0000 0.0000
# 3 20.9050 39.0009 72.3700 0.0000 0.0000 0.0000
# 4 0.0000 0.0000 0.0000 15.5837 0.0000 0.0000
# 5 0.0000 0.0000 0.0000 0.0000 15.8932 0.0000
# 6 0.0000 0.0000 0.0000 0.0000 0.0000 29.0873
#
#
#
# Elastic Compliance Matrix: (Units=1/GPa)
#
#
# Indices 1 2 3 4 5 6 
#
# 1 0.043998 -0.019232 -0.002345 0.000000 0.000000 0.000000
# 2 -0.019232 0.023406 -0.007058 0.000000 0.000000 0.000000
# 3 -0.002345 -0.007058 0.018299 0.000000 0.000000 0.000000
# 4 0.000000 0.000000 0.000000 0.064170 0.000000 0.000000
# 5 0.000000 0.000000 0.000000 0.000000 0.062920 0.000000
# 6 0.000000 0.000000 0.000000 0.000000 0.000000 0.034379
#
#
# Mechanical properties :
#
#
# Convention : Reuss Voigt Hill
#
# Bulk Modulus (GPa) = 35.17182 44.68837 39.93009
# Shear Modulus (GPa) = 15.92767 18.86285 17.39526
#
# Velocity S-wave (km/s) = 3.46106 3.76649 3.61700
# Velocity P-wave (km/s) = 6.51338 7.24739 6.89017
#
# Compressibility (1/GPa) = 0.02843185
#
# Stress axis : x y z
#
# Youngs Moduli (GPa) = 22.72852 42.72397 54.64803
#
# Poissons Ratio (x) = 0.82169 0.12813
# Poissons Ratio (y) = 0.43712 0.38572
# Poissons Ratio (z) = 0.05329 0.30156
#
# Static dielectric constant tensor:
#      x y z
#    x 2.390040 0.000000 0.000000 
#    y 0.000000 2.757360 0.000000 
#    z 0.000000 0.000000 2.807720 
# 
# 
# High freq. dielectric constant tensor:
#      x y z
#    x 1.453410 0.000000 0.000000 
#    y 0.000000 1.482290 0.000000 
#    z 0.000000 0.000000 1.524740 
# 
# From -- ./inp_files/18594.got.cif
#   From: 2010.03.12/outbox.cif.g09.slc.cpg/sg65_10_cif.got.tgz:18594.got - 2010.04.10 20:52:16.
