data_PCOD8265667
_publ_section_title
;
Structure prediction by ZEFSAII (Michael W. Deem and Ramdas Pophale) SiO2 
 PCOD8265667
Probable space group: C M M M
;
_chemical_formula_sum "Si O2"
_cell_formula_units_Z 88
_cell_length_a 18.327111
_cell_length_b 20.001083
_cell_length_c 14.460200
_cell_angle_alpha 90.000000
_cell_angle_beta 90.000000
_cell_angle_gamma 90.000000
_cell_volume 5300.560819
_symmetry_space_group_name_H-M "C M M M"
_symmetry_group_IT_number 65
_symmetry_cell_setting 'orthorhombic'
loop_
_space_group_symop_operation_xyz
x,y,z
-x,-y,z
x,-y,-z
-x,y,-z
-x,-y,-z
x,y,-z
-x,y,z
x,-y,z
1/2+x,1/2+y,z
1/2-x,1/2-y,z
1/2+x,1/2-y,-z
1/2-x,1/2+y,-z
1/2-x,1/2-y,-z
1/2+x,1/2+y,-z
1/2-x,1/2+y,z
1/2+x,1/2-y,z
loop_
_atom_site_type_symbol
_atom_site_label
_atom_site_fract_x
_atom_site_fract_y
_atom_site_fract_z
Si Si1 0.586304 0.000000 0.106287
Si Si2 0.788043 0.354649 0.398880
Si Si3 0.859323 0.210149 0.398996
Si Si4 0.082444 0.235654 0.210279
Si Si5 0.788915 0.820935 0.103435
Si Si6 0.659165 0.877891 0.791556
O O1 0.614399 0.064870 0.158792
O O2 0.500000 0.000000 0.110586
O O3 0.613499 0.000000 0.000000
O O4 0.804485 0.387490 0.500000
O O5 0.819128 0.280557 0.395595
O O6 0.700853 0.348143 0.383696
O O7 0.825386 0.396949 0.316226
O O8 0.897195 0.200599 0.500000
O O9 0.917724 0.209371 0.316378
O O10 0.131749 0.185510 0.149970
O O11 0.111951 0.310755 0.200651
O O12 0.000000 0.233110 0.172781
O O13 0.750000 0.750000 0.102763
O O14 0.738032 0.871448 0.160225
O O15 0.799201 0.848777 0.000000
#
# Coordination Sequence:
#
# PCOD8265667 Si02
#       6
#     8  16  16  16  16  16
#     4  11  24  38  51  69  92 124 168 209 239 269
#     4   8  13  24  46  69  89 118 155 191 229 275
#     4   8  13  23  40  66  96 123 150 182 225 283
#     4  10  18  27  43  70 100 126 150 187 242 291
#     4   9  17  29  45  64  86 117 157 198 239 285
#     4  10  18  33  50  66  91 127 163 199 232 277
#
# _framework density 16.602015999999999
#
# number of rings (size 3 to 8) (size 9 to 14) (size 15 to 20)
#    0.000    2.818    1.818    2.182    0.000    1.455 
#    0.000    0.455    0.000    2.182    0.000    0.636 
#    0.000    2.182    0.000    4.000    0.000    0.364 
#
# Total GULP energy -545204.438835 kJ/mol
# GULP energy per Si atom -12391.009974 kJ/mol
# Density = 1.656423 g / cm^3
# Si number density = 16.602016 Si / 1000 Ang^3
#
#
#
# Elastic Constant Matrix: (Units=GPa)
#
#
# Indices 1 2 3 4 5 6 
#
# 1 99.8560 19.2327 50.4579 0.0000 0.0000 0.0000
# 2 19.2327 28.5713 32.0234 0.0000 0.0000 0.0000
# 3 50.4579 32.0234 149.7205 0.0000 0.0000 0.0000
# 4 0.0000 0.0000 0.0000 14.1158 0.0000 0.0000
# 5 0.0000 0.0000 0.0000 0.0000 21.5507 0.0000
# 6 0.0000 0.0000 0.0000 0.0000 0.0000 18.4086
#
#
#
# Elastic Compliance Matrix: (Units=1/GPa)
#
#
# Indices 1 2 3 4 5 6 
#
# 1 0.012567 -0.004883 -0.003191 0.000000 0.000000 0.000000
# 2 -0.004883 0.047934 -0.008607 0.000000 0.000000 0.000000
# 3 -0.003191 -0.008607 0.009595 0.000000 0.000000 0.000000
# 4 0.000000 0.000000 0.000000 0.070843 0.000000 0.000000
# 5 0.000000 0.000000 0.000000 0.000000 0.046402 0.000000
# 6 0.000000 0.000000 0.000000 0.000000 0.000000 0.054322
#
#
# Mechanical properties :
#
#
# Convention : Reuss Voigt Hill
#
# Bulk Modulus (GPa) = 27.22212 53.50842 40.36527
# Shear Modulus (GPa) = 17.40518 22.57727 19.99123
#
# Velocity S-wave (km/s) = 3.24138 3.69170 3.47384
# Velocity P-wave (km/s) = 5.51735 7.10433 6.36053
#
# Compressibility (1/GPa) = 0.03673484
#
# Stress axis : x y z
#
# Youngs Moduli (GPa) = 79.57133 20.86206 104.21689
#
# Poissons Ratio (x) = 0.10187 0.33255
# Poissons Ratio (y) = 0.38856 0.89697
# Poissons Ratio (z) = 0.25391 0.17955
#
# Static dielectric constant tensor:
#      x y z
#    x 2.968560 0.000000 0.000000 
#    y 0.000000 2.585770 0.000000 
#    z 0.000000 0.000000 3.686220 
# 
# 
# High freq. dielectric constant tensor:
#      x y z
#    x 1.623730 0.000000 0.000000 
#    y 0.000000 1.569920 0.000000 
#    z 0.000000 0.000000 1.664800 
# 
# From -- ./inp_files/42512.got.cif
#   From: 2010.03.12/outbox.cif.g09.slc.cpg/sg65_22_cif.got.tgz:42512.got - 2010.04.10 20:52:16.
