data_PCOD8265243
_publ_section_title
;
Structure prediction by ZEFSAII (Michael W. Deem and Ramdas Pophale) SiO2 
 PCOD8265243
Probable space group: C M M M
;
_chemical_formula_sum "Si O2"
_cell_formula_units_Z 96
_cell_length_a 27.513816
_cell_length_b 8.799205
_cell_length_c 24.271225
_cell_angle_alpha 90.000000
_cell_angle_beta 90.000000
_cell_angle_gamma 90.000000
_cell_volume 5876.056469
_symmetry_space_group_name_H-M "C M M M"
_symmetry_group_IT_number 65
_symmetry_cell_setting 'orthorhombic'
loop_
_space_group_symop_operation_xyz
x,y,z
-x,-y,z
x,-y,-z
-x,y,-z
-x,-y,-z
x,y,-z
-x,y,z
x,-y,z
1/2+x,1/2+y,z
1/2-x,1/2-y,z
1/2+x,1/2-y,-z
1/2-x,1/2+y,-z
1/2-x,1/2-y,-z
1/2+x,1/2+y,-z
1/2-x,1/2+y,z
1/2+x,1/2-y,z
loop_
_atom_site_type_symbol
_atom_site_label
_atom_site_fract_x
_atom_site_fract_y
_atom_site_fract_z
Si Si1 0.554569 0.678564 0.840720
Si Si2 0.302754 0.822241 0.440283
Si Si3 0.853265 0.820708 0.222690
Si Si4 0.801175 0.179423 0.886431
Si Si5 0.608220 0.175399 0.062508
Si Si6 0.803601 0.819042 0.668005
O O1 0.500000 0.719498 0.821695
O O2 0.561129 0.500000 0.851240
O O3 0.592055 0.733740 0.793035
O O4 0.566039 0.760996 0.898112
O O5 0.329067 0.795647 0.500000
O O6 0.250000 0.750000 0.444078
O O7 0.329355 0.740098 0.388713
O O8 0.298085 0.000000 0.427521
O O9 0.816361 0.766125 0.174992
O O10 0.836174 0.754916 0.281501
O O11 0.852131 0.000000 0.226666
O O12 0.750000 0.250000 0.902967
O O13 0.841377 0.235794 0.929348
O O14 0.797476 0.000000 0.890263
O O15 0.617358 0.000000 0.076343
O O16 0.590493 0.198829 0.000000
O O17 0.750000 0.750000 0.673863
O O18 0.800388 0.000000 0.667597
#
# Coordination Sequence:
#
# PCOD8265243 Si02
#       6
#    16  16  16  16  16  16
#     4   9  18  34  54  71  88 112 141 175 219 269
#     4   9  16  25  36  52  78 112 149 183 211 241
#     4   8  16  29  44  65  89 112 141 177 214 256
#     4  10  19  32  49  67  90 119 150 181 215 257
#     4  10  21  35  49  67  91 116 144 179 217 258
#     4  10  17  25  39  59  86 116 146 177 208 246
#
# _framework density 16.337489000000001
#
# number of rings (size 3 to 8) (size 9 to 14) (size 15 to 20)
#    0.000    2.667    0.000    4.500    0.000    3.333 
#    0.000    9.167    0.000    0.000    0.000    0.000 
#    0.000    0.667    0.000    8.333    0.000    1.333 
#
# Total GULP energy -594865.423823 kJ/mol
# GULP energy per Si atom -12393.029663 kJ/mol
# Density = 1.630030 g / cm^3
# Si number density = 16.337489 Si / 1000 Ang^3
#
#
#
# Elastic Constant Matrix: (Units=GPa)
#
#
# Indices 1 2 3 4 5 6 
#
# 1 79.6153 25.0452 36.9137 0.0000 0.0000 0.0000
# 2 25.0452 68.8637 36.0040 0.0000 0.0000 0.0000
# 3 36.9137 36.0040 125.0986 0.0000 0.0000 0.0000
# 4 0.0000 0.0000 0.0000 23.3044 0.0000 0.0000
# 5 0.0000 0.0000 0.0000 0.0000 15.3849 0.0000
# 6 0.0000 0.0000 0.0000 0.0000 0.0000 17.8880
#
#
#
# Elastic Compliance Matrix: (Units=1/GPa)
#
#
# Indices 1 2 3 4 5 6 
#
# 1 0.015345 -0.003783 -0.003439 0.000000 0.000000 0.000000
# 2 -0.003783 0.018026 -0.004072 0.000000 0.000000 0.000000
# 3 -0.003439 -0.004072 0.010180 0.000000 0.000000 0.000000
# 4 0.000000 0.000000 0.000000 0.042910 0.000000 0.000000
# 5 0.000000 0.000000 0.000000 0.000000 0.064999 0.000000
# 6 0.000000 0.000000 0.000000 0.000000 0.000000 0.055903
#
#
# Mechanical properties :
#
#
# Convention : Reuss Voigt Hill
#
# Bulk Modulus (GPa) = 47.70101 52.16704 49.93402
# Shear Modulus (GPa) = 21.10245 23.02312 22.06278
#
# Velocity S-wave (km/s) = 3.59786 3.75803 3.67882
# Velocity P-wave (km/s) = 6.82057 7.12956 6.97677
#
# Compressibility (1/GPa) = 0.02096392
#
# Stress axis : x y z
#
# Youngs Moduli (GPa) = 65.16794 55.47529 98.22769
#
# Poissons Ratio (x) = 0.20985 0.33783
# Poissons Ratio (y) = 0.24651 0.39996
# Poissons Ratio (z) = 0.22413 0.22588
#
# Static dielectric constant tensor:
#      x y z
#    x 2.926650 0.000000 0.000000 
#    y 0.000000 3.066960 0.000000 
#    z 0.000000 0.000000 3.723820 
# 
# 
# High freq. dielectric constant tensor:
#      x y z
#    x 1.588270 0.000000 0.000000 
#    y 0.000000 1.630340 0.000000 
#    z 0.000000 0.000000 1.632880 
# 
# From -- ./inp_files/71665.got.cif
#   From: 2010.03.12/outbox.cif.g09.slc.cpg/sg65_36_cif.got.tgz:71665.got - 2010.04.10 20:52:16.
