data_PCOD8265204
_publ_section_title
;
Structure prediction by ZEFSAII (Michael W. Deem and Ramdas Pophale) SiO2 
 PCOD8265204
Probable space group: C M M M
;
_chemical_formula_sum "Si O2"
_cell_formula_units_Z 96
_cell_length_a 18.182675
_cell_length_b 28.192033
_cell_length_c 14.117215
_cell_angle_alpha 90.000000
_cell_angle_beta 90.000000
_cell_angle_gamma 90.000000
_cell_volume 7236.577210
_symmetry_space_group_name_H-M "C M M M"
_symmetry_group_IT_number 65
_symmetry_cell_setting 'orthorhombic'
loop_
_space_group_symop_operation_xyz
x,y,z
-x,-y,z
x,-y,-z
-x,y,-z
-x,-y,-z
x,y,-z
-x,y,z
x,-y,z
1/2+x,1/2+y,z
1/2-x,1/2-y,z
1/2+x,1/2-y,-z
1/2-x,1/2+y,-z
1/2-x,1/2-y,-z
1/2+x,1/2+y,-z
1/2-x,1/2+y,z
1/2+x,1/2-y,z
loop_
_atom_site_type_symbol
_atom_site_label
_atom_site_fract_x
_atom_site_fract_y
_atom_site_fract_z
Si Si1 0.086967 0.446784 0.103269
Si Si2 0.134936 0.312446 0.610239
Si Si3 0.415911 0.904301 0.295730
Si Si4 0.790196 0.854479 0.610016
Si Si5 0.718725 0.052064 0.387891
Si Si6 0.917539 0.209790 0.387120
O O1 0.116053 0.500000 0.125758
O O2 0.111751 0.411099 0.186847
O O3 0.000000 0.447848 0.097640
O O4 0.117878 0.429996 0.000000
O O5 0.114016 0.320396 0.500000
O O6 0.090572 0.349614 0.674381
O O7 0.222070 0.318801 0.625538
O O8 0.111216 0.260892 0.646866
O O9 0.500000 0.921376 0.307286
O O10 0.365643 0.937187 0.361969
O O11 0.805236 0.861810 0.500000
O O12 0.771811 0.906467 0.654787
O O13 0.863286 0.830783 0.655428
O O14 0.723631 0.053261 0.500000
O O15 0.742338 0.000000 0.349479
O O16 0.915550 0.208657 0.500000
O O17 0.000000 0.200536 0.349051
#
# Coordination Sequence:
#
# PCOD8265204 Si02
#       6
#    16  16  16  16  16  16
#     4   8  14  24  35  45  59  83 116 150 177 195
#     4   9  16  24  33  48  72  97 115 133 164 204
#     4  10  17  23  33  49  69  92 117 142 165 192
#     4   8  14  24  35  45  62  90 118 140 165 201
#     4   9  17  26  34  46  66  92 117 139 166 201
#     4   9  15  22  34  50  66  86 114 147 176 197
#
# _framework density 13.265940000000001
#
# number of rings (size 3 to 8) (size 9 to 14) (size 15 to 20)
#    0.000    3.167    0.000    3.500    0.000    5.000 
#    0.000    0.833    0.000    0.500    0.000    3.500 
#    0.000   10.667    0.000    1.333    0.000    2.833 
#
# Total GULP energy -594670.941688 kJ/mol
# GULP energy per Si atom -12388.977952 kJ/mol
# Density = 1.323575 g / cm^3
# Si number density = 13.265940 Si / 1000 Ang^3
#
#
#
# Elastic Constant Matrix: (Units=GPa)
#
#
# Indices 1 2 3 4 5 6 
#
# 1 72.1410 55.6862 15.7611 0.0000 0.0000 0.0000
# 2 55.6862 109.4772 24.8416 0.0000 0.0000 0.0000
# 3 15.7611 24.8416 19.7549 0.0000 0.0000 0.0000
# 4 0.0000 0.0000 0.0000 9.6853 0.0000 0.0000
# 5 0.0000 0.0000 0.0000 0.0000 3.0931 0.0000
# 6 0.0000 0.0000 0.0000 0.0000 0.0000 14.5196
#
#
#
# Elastic Compliance Matrix: (Units=1/GPa)
#
#
# Indices 1 2 3 4 5 6 
#
# 1 0.023189 -0.010630 -0.005133 0.000000 0.000000 0.000000
# 2 -0.010630 0.017655 -0.013719 0.000000 0.000000 0.000000
# 3 -0.005133 -0.013719 0.071968 0.000000 0.000000 0.000000
# 4 0.000000 0.000000 0.000000 0.103249 0.000000 0.000000
# 5 0.000000 0.000000 0.000000 0.000000 0.323299 0.000000
# 6 0.000000 0.000000 0.000000 0.000000 0.000000 0.068872
#
#
# Mechanical properties :
#
#
# Convention : Reuss Voigt Hill
#
# Bulk Modulus (GPa) = 18.57165 43.77232 31.17198
# Shear Modulus (GPa) = 7.29771 12.46521 9.88146
#
# Velocity S-wave (km/s) = 2.34798 3.06868 2.73220
# Velocity P-wave (km/s) = 4.62392 6.75451 5.78809
#
# Compressibility (1/GPa) = 0.05384552
#
# Stress axis : x y z
#
# Youngs Moduli (GPa) = 43.12403 56.64251 13.89512
#
# Poissons Ratio (x) = 0.60213 0.07133
# Poissons Ratio (y) = 0.45843 0.19063
# Poissons Ratio (z) = 0.22136 0.77709
#
# Static dielectric constant tensor:
#      x y z
#    x 2.649530 0.000000 0.000000 
#    y 0.000000 2.968020 0.000000 
#    z 0.000000 0.000000 2.518270 
# 
# 
# High freq. dielectric constant tensor:
#      x y z
#    x 1.483110 0.000000 0.000000 
#    y 0.000000 1.506600 0.000000 
#    z 0.000000 0.000000 1.453520 
# 
# From -- ./inp_files/29504.got.cif
#   From: 2010.03.12/outbox.cif.g09.slc.cpg/sg65_15_cif.got.tgz:29504.got - 2010.04.10 20:52:16.
