data_PCOD8265496
_publ_section_title
;
Structure prediction by ZEFSAII (Michael W. Deem and Ramdas Pophale) SiO2 
 PCOD8265496
Probable space group: C M M M
;
_chemical_formula_sum "Si O2"
_cell_formula_units_Z 80
_cell_length_a 29.324859
_cell_length_b 8.701526
_cell_length_c 16.370172
_cell_angle_alpha 90.000000
_cell_angle_beta 90.000000
_cell_angle_gamma 90.000000
_cell_volume 4177.193536
_symmetry_space_group_name_H-M "C M M M"
_symmetry_group_IT_number 65
_symmetry_cell_setting 'orthorhombic'
loop_
_space_group_symop_operation_xyz
x,y,z
-x,-y,z
x,-y,-z
-x,y,-z
-x,-y,-z
x,y,-z
-x,y,z
x,-y,z
1/2+x,1/2+y,z
1/2-x,1/2-y,z
1/2+x,1/2-y,-z
1/2-x,1/2+y,-z
1/2-x,1/2-y,-z
1/2+x,1/2+y,-z
1/2-x,1/2+y,z
1/2+x,1/2-y,z
loop_
_atom_site_type_symbol
_atom_site_label
_atom_site_fract_x
_atom_site_fract_y
_atom_site_fract_z
Si Si1 0.051108 0.682285 0.175133
Si Si2 0.798258 0.818870 0.407381
Si Si3 0.417225 0.178067 0.000000
Si Si4 0.294804 0.674158 0.173625
Si Si5 0.365415 0.820817 0.721359
Si Si6 0.825198 0.832160 0.000000
O O1 0.056321 0.500000 0.169021
O O2 0.062778 0.751353 0.084563
O O3 0.084149 0.737872 0.249927
O O4 0.000000 0.733333 0.198829
O O5 0.807146 0.763789 0.500000
O O6 0.750000 0.750000 0.375488
O O7 0.842351 0.766315 0.355079
O O8 0.794055 0.000000 0.401193
O O9 0.363051 0.200752 0.000000
O O10 0.429578 0.000000 0.000000
O O11 0.300242 0.500000 0.207549
O O12 0.250000 0.750000 0.212170
O O13 0.336272 0.782714 0.198686
O O14 0.291705 0.679729 0.076505
O O15 0.365596 0.000000 0.700327
O O16 0.849899 0.000000 0.000000
#
# Coordination Sequence:
#
# PCOD8265496 Si02
#       6
#    16  16   8  16  16   8
#     4   9  18  32  53  81 108 138 180 229 274 314
#     4  10  21  38  60  85 113 143 175 212 257 314
#     4  10  17  31  55  77 101 137 184 230 272 317
#     4  11  22  35  50  70 101 140 181 221 263 313
#     4  11  21  34  55  81 109 139 174 219 267 318
#     4  10  21  34  48  68 100 139 176 222 268 311
#
# _framework density 19.151613999999999
#
# number of rings (size 3 to 8) (size 9 to 14) (size 15 to 20)
#    0.000    1.800    2.000    3.000    0.000    3.200 
#    0.000    0.000    0.000    6.600    0.000    4.200 
#    0.000    0.000    0.000    0.000    0.000    0.000 
#
# Total GULP energy -495612.847379 kJ/mol
# GULP energy per Si atom -12390.321184 kJ/mol
# Density = 1.910802 g / cm^3
# Si number density = 19.151614 Si / 1000 Ang^3
#
#
#
# Elastic Constant Matrix: (Units=GPa)
#
#
# Indices 1 2 3 4 5 6 
#
# 1 141.8351 27.8961 49.8521 0.0000 0.0000 0.0000
# 2 27.8961 40.1552 19.2263 0.0000 0.0000 0.0000
# 3 49.8521 19.2263 118.0620 0.0000 0.0000 0.0000
# 4 0.0000 0.0000 0.0000 22.5279 0.0000 0.0000
# 5 0.0000 0.0000 0.0000 0.0000 9.7673 0.0000
# 6 0.0000 0.0000 0.0000 0.0000 0.0000 20.2068
#
#
#
# Elastic Compliance Matrix: (Units=1/GPa)
#
#
# Indices 1 2 3 4 5 6 
#
# 1 0.009073 -0.004847 -0.003042 0.000000 0.000000 0.000000
# 2 -0.004847 0.029598 -0.002774 0.000000 0.000000 0.000000
# 3 -0.003042 -0.002774 0.010206 0.000000 0.000000 0.000000
# 4 0.000000 0.000000 0.000000 0.044389 0.000000 0.000000
# 5 0.000000 0.000000 0.000000 0.000000 0.102383 0.000000
# 6 0.000000 0.000000 0.000000 0.000000 0.000000 0.049488
#
#
# Mechanical properties :
#
#
# Convention : Reuss Voigt Hill
#
# Bulk Modulus (GPa) = 36.29303 54.88903 45.59103
# Shear Modulus (GPa) = 18.13921 24.03892 21.08906
#
# Velocity S-wave (km/s) = 3.08090 3.54671 3.32198
# Velocity P-wave (km/s) = 5.62560 6.74497 6.21056
#
# Compressibility (1/GPa) = 0.02755350
#
# Stress axis : x y z
#
# Youngs Moduli (GPa) = 110.21998 33.78577 97.97964
#
# Poissons Ratio (x) = 0.16374 0.29803
# Poissons Ratio (y) = 0.53418 0.27176
# Poissons Ratio (z) = 0.33526 0.09371
#
# Static dielectric constant tensor:
#      x y z
#    x 3.496360 0.000000 0.000000 
#    y 0.000000 3.367940 0.000000 
#    z 0.000000 0.000000 3.600630 
# 
# 
# High freq. dielectric constant tensor:
#      x y z
#    x 1.732660 0.000000 0.000000 
#    y 0.000000 1.727750 0.000000 
#    z 0.000000 0.000000 1.741470 
# 
# From -- ./inp_files/57253.got.cif
#   From: 2010.03.12/outbox.cif.g09.slc.cpg/sg65_29_cif.got.tgz:57253.got - 2010.04.10 20:52:16.
