data_PCOD8265842
_publ_section_title
;
Structure prediction by ZEFSAII (Michael W. Deem and Ramdas Pophale) SiO2 
 PCOD8265842
Probable space group: C M M M
;
_chemical_formula_sum "Si O2"
_cell_formula_units_Z 104
_cell_length_a 8.991623
_cell_length_b 30.410813
_cell_length_c 22.902028
_cell_angle_alpha 90.000000
_cell_angle_beta 90.000000
_cell_angle_gamma 90.000000
_cell_volume 6262.389294
_symmetry_space_group_name_H-M "C M M M"
_symmetry_group_IT_number 65
_symmetry_cell_setting 'orthorhombic'
loop_
_space_group_symop_operation_xyz
x,y,z
-x,-y,z
x,-y,-z
-x,y,-z
-x,-y,-z
x,y,-z
-x,y,z
x,-y,z
1/2+x,1/2+y,z
1/2-x,1/2-y,z
1/2+x,1/2-y,-z
1/2-x,1/2+y,-z
1/2-x,1/2-y,-z
1/2+x,1/2+y,-z
1/2-x,1/2+y,z
1/2+x,1/2-y,z
loop_
_atom_site_type_symbol
_atom_site_label
_atom_site_fract_x
_atom_site_fract_y
_atom_site_fract_z
Si Si1 0.823432 0.048990 0.064878
Si Si2 0.177470 0.117994 0.159838
Si Si3 0.162677 0.708743 0.706981
Si Si4 0.170960 0.947609 0.373630
Si Si5 0.176966 0.612704 0.717439
Si Si6 0.824613 0.047835 0.500000
Si Si7 0.333506 0.207763 0.154721
O O1 0.763053 0.083046 0.112546
O O2 0.000000 0.049358 0.065724
O O3 0.765684 0.000000 0.080581
O O4 0.767096 0.062348 0.000000
O O5 0.243464 0.102721 0.221563
O O6 0.238616 0.164893 0.138846
O O7 0.000000 0.120093 0.164365
O O8 0.250000 0.750000 0.679194
O O9 0.231456 0.660506 0.692864
O O10 0.155508 0.713493 0.776228
O O11 0.000000 0.711706 0.678996
O O12 0.279292 0.925082 0.327558
O O13 0.217973 0.928964 0.438419
O O14 0.000000 0.935414 0.359462
O O15 0.193034 0.000000 0.370876
O O16 0.000000 0.613553 0.727651
O O17 0.000000 0.040920 0.500000
O O18 0.747647 0.000000 0.500000
O O19 0.500000 0.204152 0.128394
O O20 0.250000 0.250000 0.127339
#
# Coordination Sequence:
#
# PCOD8265842 Si02
#       7
#    16  16  16  16  16   8  16
#     4   8  15  29  48  68  88 112 148 193 233 270
#     4  10  18  28  46  70  93 119 151 187 229 275
#     4   8  15  26  40  58  82 113 146 179 215 256
#     4   9  17  30  48  68  90 119 155 190 224 267
#     4  10  20  31  42  64  98 127 150 181 225 273
#     4   7  12  26  47  67  86 111 148 193 230 261
#     4   9  16  27  43  64  91 120 149 182 222 269
#
# _framework density 16.607081000000001
#
# number of rings (size 3 to 8) (size 9 to 14) (size 15 to 20)
#    0.000    3.154    0.000    3.692    0.000    5.231 
#    0.000    1.923    0.000    5.077    0.000    4.846 
#    0.000    0.000    0.000    0.000    0.000    0.000 
#
# Total GULP energy -644267.885011 kJ/mol
# GULP energy per Si atom -12389.767019 kJ/mol
# Density = 1.656928 g / cm^3
# Si number density = 16.607081 Si / 1000 Ang^3
#
#
#
# Elastic Constant Matrix: (Units=GPa)
#
#
# Indices 1 2 3 4 5 6 
#
# 1 68.4502 38.9979 34.0519 0.0000 0.0000 0.0000
# 2 38.9979 103.8116 62.8071 0.0000 0.0000 0.0000
# 3 34.0519 62.8071 85.6187 0.0000 0.0000 0.0000
# 4 0.0000 0.0000 0.0000 1.9020 0.0000 0.0000
# 5 0.0000 0.0000 0.0000 0.0000 5.2354 0.0000
# 6 0.0000 0.0000 0.0000 0.0000 0.0000 25.9271
#
#
#
# Elastic Compliance Matrix: (Units=1/GPa)
#
#
# Indices 1 2 3 4 5 6 
#
# 1 0.019416 -0.004714 -0.004264 0.000000 0.000000 0.000000
# 2 -0.004714 0.018464 -0.011670 0.000000 0.000000 0.000000
# 3 -0.004264 -0.011670 0.021936 0.000000 0.000000 0.000000
# 4 0.000000 0.000000 0.000000 0.525772 0.000000 0.000000
# 5 0.000000 0.000000 0.000000 0.000000 0.191009 0.000000
# 6 0.000000 0.000000 0.000000 0.000000 0.000000 0.038570
#
#
# Mechanical properties :
#
#
# Convention : Reuss Voigt Hill
#
# Bulk Modulus (GPa) = 53.99401 58.84383 56.41892
# Shear Modulus (GPa) = 5.79619 14.74779 10.27199
#
# Velocity S-wave (km/s) = 1.87023 2.98324 2.48973
# Velocity P-wave (km/s) = 6.10303 6.88303 6.50473
#
# Compressibility (1/GPa) = 0.01852057
#
# Stress axis : x y z
#
# Youngs Moduli (GPa) = 51.50362 54.15920 45.58698
#
# Poissons Ratio (x) = 0.25531 0.19438
# Poissons Ratio (y) = 0.24279 0.53199
# Poissons Ratio (z) = 0.21961 0.63203
#
# Static dielectric constant tensor:
#      x y z
#    x 3.040310 0.000000 0.000000 
#    y 0.000000 3.279420 0.000000 
#    z 0.000000 0.000000 3.004290 
# 
# 
# High freq. dielectric constant tensor:
#      x y z
#    x 1.627010 0.000000 0.000000 
#    y 0.000000 1.639180 0.000000 
#    z 0.000000 0.000000 1.603730 
# 
# From -- ./inp_files/60894.got.cif
#   From: 2010.03.12/outbox.cif.g09.slc.cpg/sg65_31_cif.got.tgz:60894.got - 2010.04.10 20:52:16.
