data_PCOD8265775
_publ_section_title
;
Structure prediction by ZEFSAII (Michael W. Deem and Ramdas Pophale) SiO2 
 PCOD8265775
Probable space group: C M M M
;
_chemical_formula_sum "Si O2"
_cell_formula_units_Z 120
_cell_length_a 17.015467
_cell_length_b 16.950323
_cell_length_c 25.278287
_cell_angle_alpha 90.000000
_cell_angle_beta 90.000000
_cell_angle_gamma 90.000000
_cell_volume 7290.704427
_symmetry_space_group_name_H-M "C M M M"
_symmetry_group_IT_number 65
_symmetry_cell_setting 'orthorhombic'
loop_
_space_group_symop_operation_xyz
x,y,z
-x,-y,z
x,-y,-z
-x,y,-z
-x,-y,-z
x,y,-z
-x,y,z
x,-y,z
1/2+x,1/2+y,z
1/2-x,1/2-y,z
1/2+x,1/2-y,-z
1/2-x,1/2+y,-z
1/2-x,1/2-y,-z
1/2+x,1/2+y,-z
1/2-x,1/2+y,z
1/2+x,1/2-y,z
loop_
_atom_site_type_symbol
_atom_site_label
_atom_site_fract_x
_atom_site_fract_y
_atom_site_fract_z
Si Si1 0.911626 0.693910 0.659006
Si Si2 0.303745 0.911838 0.211933
Si Si3 0.320688 0.305909 0.589523
Si Si4 0.409142 0.589936 0.061160
Si Si5 0.594118 0.594493 0.500000
Si Si6 0.089520 0.729913 0.776584
Si Si7 0.306679 0.679440 0.143217
Si Si8 0.229770 0.589508 0.329553
O O1 0.889922 0.750222 0.610350
O O2 0.900769 0.742738 0.713666
O O3 0.859326 0.615243 0.657807
O O4 0.000000 0.664273 0.651905
O O5 0.380164 0.857102 0.208749
O O6 0.244873 0.893219 0.164101
O O7 0.255974 0.900711 0.266889
O O8 0.335551 0.000000 0.205911
O O9 0.250000 0.250000 0.565883
O O10 0.360774 0.366600 0.549299
O O11 0.289231 0.354600 0.639494
O O12 0.500000 0.609502 0.071481
O O13 0.391289 0.500000 0.078376
O O14 0.357676 0.651415 0.093925
O O15 0.387839 0.601835 0.000000
O O16 0.607592 0.500000 0.500000
O O17 0.500000 0.612792 0.500000
O O18 0.139388 0.794676 0.807638
O O19 0.000000 0.737098 0.795027
O O20 0.250000 0.750000 0.124138
O O21 0.241641 0.500000 0.348595
#
# Coordination Sequence:
#
# PCOD8265775 Si02
#       8
#    16  16  16  16   8  16  16  16
#     4   9  17  29  46  67  91 118 146 177 212 252
#     4   9  17  28  43  65  91 119 148 176 210 251
#     4  10  19  33  51  68  88 114 145 179 217 260
#     4   9  18  32  48  64  83 110 144 182 224 266
#     4  11  23  36  50  68  89 113 144 182 220 259
#     4   9  17  28  43  65  91 119 148 176 210 251
#     4  10  18  28  44  65  90 116 144 180 216 255
#     4   9  17  29  46  67  91 118 146 177 212 252
#
# _framework density 16.459316000000001
#
# number of rings (size 3 to 8) (size 9 to 14) (size 15 to 20)
#    0.000    2.600    0.000    3.000    0.000    4.000 
#    0.000    2.667    0.000    0.000    0.000   11.200 
#    0.000    9.600    0.000   24.800    0.000    0.267 
#
# Total GULP energy -743759.027315 kJ/mol
# GULP energy per Si atom -12395.983789 kJ/mol
# Density = 1.642185 g / cm^3
# Si number density = 16.459316 Si / 1000 Ang^3
#
#
#
# Elastic Constant Matrix: (Units=GPa)
#
#
# Indices 1 2 3 4 5 6 
#
# 1 72.9886 21.7120 26.0909 0.0000 0.0000 0.0000
# 2 21.7120 67.6587 24.5230 0.0000 0.0000 0.0000
# 3 26.0909 24.5230 55.6003 0.0000 0.0000 0.0000
# 4 0.0000 0.0000 0.0000 23.1663 0.0000 0.0000
# 5 0.0000 0.0000 0.0000 0.0000 24.0005 0.0000
# 6 0.0000 0.0000 0.0000 0.0000 0.0000 20.0581
#
#
#
# Elastic Compliance Matrix: (Units=1/GPa)
#
#
# Indices 1 2 3 4 5 6 
#
# 1 0.016974 -0.003047 -0.006621 0.000000 0.000000 0.000000
# 2 -0.003047 0.018139 -0.006571 0.000000 0.000000 0.000000
# 3 -0.006621 -0.006571 0.023991 0.000000 0.000000 0.000000
# 4 0.000000 0.000000 0.000000 0.043166 0.000000 0.000000
# 5 0.000000 0.000000 0.000000 0.000000 0.041666 0.000000
# 6 0.000000 0.000000 0.000000 0.000000 0.000000 0.049855
#
#
# Mechanical properties :
#
#
# Convention : Reuss Voigt Hill
#
# Bulk Modulus (GPa) = 37.55726 37.87773 37.71750
# Shear Modulus (GPa) = 21.26349 21.70642 21.48496
#
# Velocity S-wave (km/s) = 3.59817 3.63546 3.61686
# Velocity P-wave (km/s) = 6.33484 6.37848 6.35670
#
# Compressibility (1/GPa) = 0.02662601
#
# Stress axis : x y z
#
# Youngs Moduli (GPa) = 58.91329 55.12834 41.68288
#
# Poissons Ratio (x) = 0.16799 0.27599
# Poissons Ratio (y) = 0.17952 0.27388
# Poissons Ratio (z) = 0.39008 0.36223
#
# Static dielectric constant tensor:
#      x y z
#    x 3.085490 0.000000 0.000000 
#    y 0.000000 3.055910 0.000000 
#    z 0.000000 0.000000 2.954020 
# 
# 
# High freq. dielectric constant tensor:
#      x y z
#    x 1.633920 0.000000 0.000000 
#    y 0.000000 1.632360 0.000000 
#    z 0.000000 0.000000 1.619620 
# 
# From -- ./inp_files/64030.got.cif
#   From: 2010.03.12/outbox.cif.g09.slc.cpg/sg65_33_cif.got.tgz:64030.got - 2010.04.10 20:52:16.
