data_PCOD8265066
_publ_section_title
;
Structure prediction by ZEFSAII (Michael W. Deem and Ramdas Pophale) SiO2 
 PCOD8265066
Probable space group: C M M M
;
_chemical_formula_sum "Si O2"
_cell_formula_units_Z 72
_cell_length_a 13.761870
_cell_length_b 31.913821
_cell_length_c 12.929577
_cell_angle_alpha 90.000000
_cell_angle_beta 90.000000
_cell_angle_gamma 90.000000
_cell_volume 5678.590777
_symmetry_space_group_name_H-M "C M M M"
_symmetry_group_IT_number 65
_symmetry_cell_setting 'orthorhombic'
loop_
_space_group_symop_operation_xyz
x,y,z
-x,-y,z
x,-y,-z
-x,y,-z
-x,-y,-z
x,y,-z
-x,y,z
x,-y,z
1/2+x,1/2+y,z
1/2-x,1/2-y,z
1/2+x,1/2-y,-z
1/2-x,1/2+y,-z
1/2-x,1/2-y,-z
1/2+x,1/2+y,-z
1/2-x,1/2+y,z
1/2+x,1/2-y,z
loop_
_atom_site_type_symbol
_atom_site_label
_atom_site_fract_x
_atom_site_fract_y
_atom_site_fract_z
Si Si1 0.606719 0.770313 0.377656
Si Si2 0.203407 0.184867 0.622429
Si Si3 0.615299 0.453218 0.885185
Si Si4 0.384367 0.600703 0.694486
Si Si5 0.384873 0.453197 0.500000
O O1 0.602922 0.768473 0.500000
O O2 0.500000 0.781043 0.331471
O O3 0.684455 0.805914 0.346116
O O4 0.639672 0.724386 0.340116
O O5 0.191362 0.176680 0.500000
O O6 0.167695 0.145207 0.686540
O O7 0.500000 0.454716 0.879392
O O8 0.655231 0.500000 0.861102
O O9 0.653527 0.420385 0.800492
O O10 0.649157 0.438976 0.000000
O O11 0.500000 0.607235 0.691707
O O12 0.348818 0.571154 0.601307
O O13 0.340120 0.500000 0.500000
O O14 0.500000 0.456178 0.500000
#
# Coordination Sequence:
#
# PCOD8265066 Si02
#       5
#    16  16  16  16   8
#     4   8  14  23  34  46  67  96 121 143 169 200
#     4   9  15  22  32  50  72  93 117 143 170 204
#     4   8  14  24  35  46  64  93 124 148 170 198
#     4  10  16  21  32  49  71  95 117 142 170 202
#     4   9  16  22  28  43  69  97 115 129 164 214
#
# _framework density 12.679202
#
# number of rings (size 3 to 8) (size 9 to 14) (size 15 to 20)
#    0.000    3.222    1.111    3.333    0.000    3.556 
#    0.000    0.000    0.000    0.000    0.000    3.111 
#    0.000    7.111    0.000    2.444    0.000    0.222 
#
# Total GULP energy -446109.299910 kJ/mol
# GULP energy per Si atom -12391.924997 kJ/mol
# Density = 1.265034 g / cm^3
# Si number density = 12.679202 Si / 1000 Ang^3
#
#
#
# Elastic Constant Matrix: (Units=GPa)
#
#
# Indices 1 2 3 4 5 6 
#
# 1 59.4360 33.3966 20.0358 0.0000 0.0000 0.0000
# 2 33.3966 102.7941 50.7295 0.0000 0.0000 0.0000
# 3 20.0358 50.7295 74.5055 0.0000 0.0000 0.0000
# 4 0.0000 0.0000 0.0000 17.0278 0.0000 0.0000
# 5 0.0000 0.0000 0.0000 0.0000 5.5455 0.0000
# 6 0.0000 0.0000 0.0000 0.0000 0.0000 17.3995
#
#
#
# Elastic Compliance Matrix: (Units=1/GPa)
#
#
# Indices 1 2 3 4 5 6 
#
# 1 0.020691 -0.005989 -0.001487 0.000000 0.000000 0.000000
# 2 -0.005989 0.016385 -0.009546 0.000000 0.000000 0.000000
# 3 -0.001487 -0.009546 0.020321 0.000000 0.000000 0.000000
# 4 0.000000 0.000000 0.000000 0.058728 0.000000 0.000000
# 5 0.000000 0.000000 0.000000 0.000000 0.180325 0.000000
# 6 0.000000 0.000000 0.000000 0.000000 0.000000 0.057473
#
#
# Mechanical properties :
#
#
# Convention : Reuss Voigt Hill
#
# Bulk Modulus (GPa) = 42.81737 49.45103 46.13420
# Shear Modulus (GPa) = 12.63428 16.83281 14.73354
#
# Velocity S-wave (km/s) = 3.16009 3.64757 3.41255
# Velocity P-wave (km/s) = 6.86717 7.53830 7.21055
#
# Compressibility (1/GPa) = 0.02335501
#
# Stress axis : x y z
#
# Youngs Moduli (GPa) = 48.33046 61.03286 49.21011
#
# Poissons Ratio (x) = 0.36550 0.07316
# Poissons Ratio (y) = 0.28943 0.46974
# Poissons Ratio (z) = 0.07185 0.58259
#
# Static dielectric constant tensor:
#      x y z
#    x 2.559920 0.000000 0.000000 
#    y 0.000000 2.613410 0.000000 
#    z 0.000000 0.000000 2.478760 
# 
# 
# High freq. dielectric constant tensor:
#      x y z
#    x 1.439540 0.000000 0.000000 
#    y 0.000000 1.485040 0.000000 
#    z 0.000000 0.000000 1.452550 
# 
# From -- ./inp_files/25273.got.cif
#   From: 2010.03.12/outbox.cif.g09.slc.cpg/sg65_13_cif.got.tgz:25273.got - 2010.04.10 20:52:16.
