data_PCOD8265725
_publ_section_title
;
Structure prediction by ZEFSAII (Michael W. Deem and Ramdas Pophale) SiO2 
 PCOD8265725
Probable space group: C M M M
;
_chemical_formula_sum "Si O2"
_cell_formula_units_Z 104
_cell_length_a 36.152787
_cell_length_b 9.742683
_cell_length_c 18.596756
_cell_angle_alpha 90.000000
_cell_angle_beta 90.000000
_cell_angle_gamma 90.000000
_cell_volume 6550.245047
_symmetry_space_group_name_H-M "C M M M"
_symmetry_group_IT_number 65
_symmetry_cell_setting 'orthorhombic'
loop_
_space_group_symop_operation_xyz
x,y,z
-x,-y,z
x,-y,-z
-x,y,-z
-x,-y,-z
x,y,-z
-x,y,z
x,-y,z
1/2+x,1/2+y,z
1/2-x,1/2-y,z
1/2+x,1/2-y,-z
1/2-x,1/2+y,-z
1/2-x,1/2-y,-z
1/2+x,1/2+y,-z
1/2-x,1/2+y,z
1/2+x,1/2-y,z
loop_
_atom_site_type_symbol
_atom_site_label
_atom_site_fract_x
_atom_site_fract_y
_atom_site_fract_z
Si Si1 0.672813 0.837813 0.354980
Si Si2 0.214906 0.660814 0.784520
Si Si3 0.414949 0.342970 0.920418
Si Si4 0.857751 0.650352 0.862133
Si Si5 0.212741 0.663181 0.500000
Si Si6 0.457497 0.339526 0.779195
Si Si7 0.100045 0.346561 0.287683
O O1 0.699403 0.782044 0.291787
O O2 0.688738 0.791120 0.431387
O O3 0.629972 0.788256 0.345888
O O4 0.671666 0.000000 0.346823
O O5 0.225265 0.500000 0.779368
O O6 0.250000 0.750000 0.806362
O O7 0.184928 0.687324 0.847322
O O8 0.403731 0.500000 0.909161
O O9 0.376771 0.259175 0.914667
O O10 0.444688 0.298824 0.860062
O O11 0.432198 0.318603 0.000000
O O12 0.860653 0.500000 0.898165
O O13 0.878516 0.648069 0.786732
O O14 0.221489 0.500000 0.500000
O O15 0.250000 0.750000 0.500000
O O16 0.500000 0.296996 0.771886
O O17 0.451415 0.500000 0.764576
O O18 0.434744 0.255881 0.718830
O O19 0.085905 0.500000 0.308223
#
# Coordination Sequence:
#
# PCOD8265725 Si02
#       7
#    16  16  16  16   8  16  16
#     4   8  15  27  42  60  84 114 143 170 202 241
#     4   9  16  26  40  59  81 104 133 169 208 244
#     4   9  17  28  42  60  81 106 134 160 190 237
#     4   8  15  27  41  56  76 103 134 168 203 238
#     4  10  18  28  42  62  91 122 147 171 204 245
#     4   9  17  28  42  63  89 110 129 160 203 245
#     4   8  14  27  44  59  78 107 142 173 200 234
#
# _framework density 15.877268000000001
#
# number of rings (size 3 to 8) (size 9 to 14) (size 15 to 20)
#    0.000    3.385    0.000    2.308    0.000    1.538 
#    0.000    4.615    0.000    0.462    0.000    4.846 
#    0.000    4.308    0.000    0.000    0.000    0.000 
#
# Total GULP energy -644418.044197 kJ/mol
# GULP energy per Si atom -12392.654696 kJ/mol
# Density = 1.584113 g / cm^3
# Si number density = 15.877268 Si / 1000 Ang^3
#
#
#
# Elastic Constant Matrix: (Units=GPa)
#
#
# Indices 1 2 3 4 5 6 
#
# 1 130.5265 57.1970 38.1148 0.0000 0.0000 0.0000
# 2 57.1970 54.6025 22.0634 0.0000 0.0000 0.0000
# 3 38.1148 22.0634 47.4976 0.0000 0.0000 0.0000
# 4 0.0000 0.0000 0.0000 14.9955 0.0000 0.0000
# 5 0.0000 0.0000 0.0000 0.0000 19.9525 0.0000
# 6 0.0000 0.0000 0.0000 0.0000 0.0000 29.1999
#
#
#
# Elastic Compliance Matrix: (Units=1/GPa)
#
#
# Indices 1 2 3 4 5 6 
#
# 1 0.015437 -0.013745 -0.006003 0.000000 0.000000 0.000000
# 2 -0.013745 0.034785 -0.005128 0.000000 0.000000 0.000000
# 3 -0.006003 -0.005128 0.028253 0.000000 0.000000 0.000000
# 4 0.000000 0.000000 0.000000 0.066686 0.000000 0.000000
# 5 0.000000 0.000000 0.000000 0.000000 0.050119 0.000000
# 6 0.000000 0.000000 0.000000 0.000000 0.000000 0.034247
#
#
# Mechanical properties :
#
#
# Convention : Reuss Voigt Hill
#
# Bulk Modulus (GPa) = 34.81605 51.93079 43.37342
# Shear Modulus (GPa) = 17.30979 20.51303 18.91141
#
# Velocity S-wave (km/s) = 3.30544 3.59830 3.45498
# Velocity P-wave (km/s) = 6.04514 7.07406 6.57975
#
# Compressibility (1/GPa) = 0.02872239
#
# Stress axis : x y z
#
# Youngs Moduli (GPa) = 64.77767 28.74821 35.39466
#
# Poissons Ratio (x) = 0.39515 0.21247
# Poissons Ratio (y) = 0.89039 0.18151
# Poissons Ratio (z) = 0.38886 0.14742
#
# Static dielectric constant tensor:
#      x y z
#    x 3.101210 0.000000 0.000000 
#    y 0.000000 3.013060 0.000000 
#    z 0.000000 0.000000 3.015410 
# 
# 
# High freq. dielectric constant tensor:
#      x y z
#    x 1.602930 0.000000 0.000000 
#    y 0.000000 1.597320 0.000000 
#    z 0.000000 0.000000 1.580000 
# 
# From -- ./inp_files/57557.got.cif
#   From: 2010.03.12/outbox.cif.g09.slc.cpg/sg65_29_cif.got.tgz:57557.got - 2010.04.10 20:52:16.
