data_PCOD8265330
_publ_section_title
;
Structure prediction by ZEFSAII (Michael W. Deem and Ramdas Pophale) SiO2 
 PCOD8265330
Probable space group: C M M M
;
_chemical_formula_sum "Si O2"
_cell_formula_units_Z 104
_cell_length_a 16.338312
_cell_length_b 25.804475
_cell_length_c 15.540364
_cell_angle_alpha 90.000000
_cell_angle_beta 90.000000
_cell_angle_gamma 90.000000
_cell_volume 6551.841760
_symmetry_space_group_name_H-M "C M M M"
_symmetry_group_IT_number 65
_symmetry_cell_setting 'orthorhombic'
loop_
_space_group_symop_operation_xyz
x,y,z
-x,-y,z
x,-y,-z
-x,y,-z
-x,-y,-z
x,y,-z
-x,y,z
x,-y,z
1/2+x,1/2+y,z
1/2-x,1/2-y,z
1/2+x,1/2-y,-z
1/2-x,1/2+y,-z
1/2-x,1/2-y,-z
1/2+x,1/2+y,-z
1/2-x,1/2+y,z
1/2+x,1/2-y,z
loop_
_atom_site_type_symbol
_atom_site_label
_atom_site_fract_x
_atom_site_fract_y
_atom_site_fract_z
Si Si1 0.404632 0.260138 0.598523
Si Si2 0.090930 0.057397 0.399362
Si Si3 0.097457 0.940605 0.000000
Si Si4 0.816101 0.704907 0.741348
Si Si5 0.594755 0.355668 0.130999
Si Si6 0.327743 0.644302 0.310071
Si Si7 0.596022 0.758713 0.904166
O O1 0.383433 0.244883 0.500000
O O2 0.500000 0.272029 0.609262
O O3 0.379684 0.213529 0.662892
O O4 0.353866 0.310925 0.623787
O O5 0.104776 0.055577 0.500000
O O6 0.164530 0.090340 0.359322
O O7 0.000000 0.080265 0.378806
O O8 0.097273 0.000000 0.360123
O O9 0.129910 0.906675 0.081939
O O10 0.000000 0.945561 0.000000
O O11 0.133613 0.000000 0.000000
O O12 0.750000 0.750000 0.742358
O O13 0.765512 0.651894 0.724084
O O14 0.861323 0.704131 0.833584
O O15 0.500000 0.354113 0.108976
O O16 0.609309 0.359336 0.231738
O O17 0.631616 0.300196 0.100145
O O18 0.500000 0.758619 0.883239
O O19 0.613665 0.780715 0.000000
#
# Coordination Sequence:
#
# PCOD8265330 Si02
#       7
#    16  16   8  16  16  16  16
#     4  10  19  30  45  63  90 129 163 192 228 271
#     4   9  18  32  49  68  90 122 167 207 230 259
#     4   9  18  30  42  61  86 112 155 206 240 267
#     4  10  20  30  41  67  95 120 155 196 233 282
#     4  10  17  27  43  60  82 119 158 190 228 276
#     4  11  20  29  43  67  93 121 154 193 237 276
#     4  10  18  31  49  64  85 121 160 196 232 277
#
# _framework density 15.873398999999999
#
# number of rings (size 3 to 8) (size 9 to 14) (size 15 to 20)
#    0.000    2.077    3.846    2.769    0.000    5.538 
#    1.385    1.538    0.000    0.000    0.000    0.000 
#    0.000    2.462    0.000   10.154    0.000    0.000 
#
# Total GULP energy -644372.917549 kJ/mol
# GULP energy per Si atom -12391.786876 kJ/mol
# Density = 1.583727 g / cm^3
# Si number density = 15.873399 Si / 1000 Ang^3
#
#
#
# Elastic Constant Matrix: (Units=GPa)
#
#
# Indices 1 2 3 4 5 6 
#
# 1 49.8681 33.5863 35.3319 0.0000 0.0000 0.0000
# 2 33.5863 72.7178 37.8366 0.0000 0.0000 0.0000
# 3 35.3319 37.8366 105.8212 0.0000 0.0000 0.0000
# 4 0.0000 0.0000 0.0000 21.3424 0.0000 0.0000
# 5 0.0000 0.0000 0.0000 0.0000 21.2024 0.0000
# 6 0.0000 0.0000 0.0000 0.0000 0.0000 22.3309
#
#
#
# Elastic Compliance Matrix: (Units=1/GPa)
#
#
# Indices 1 2 3 4 5 6 
#
# 1 0.032622 -0.011549 -0.006763 0.000000 0.000000 0.000000
# 2 -0.011549 0.020983 -0.003647 0.000000 0.000000 0.000000
# 3 -0.006763 -0.003647 0.013012 0.000000 0.000000 0.000000
# 4 0.000000 0.000000 0.000000 0.046855 0.000000 0.000000
# 5 0.000000 0.000000 0.000000 0.000000 0.047164 0.000000
# 6 0.000000 0.000000 0.000000 0.000000 0.000000 0.044781
#
#
# Mechanical properties :
#
#
# Convention : Reuss Voigt Hill
#
# Bulk Modulus (GPa) = 44.05056 49.10184 46.57620
# Shear Modulus (GPa) = 19.46274 21.08530 20.27402
#
# Velocity S-wave (km/s) = 3.50540 3.64860 3.57772
# Velocity P-wave (km/s) = 6.64795 6.98214 6.81709
#
# Compressibility (1/GPa) = 0.02270118
#
# Stress axis : x y z
#
# Youngs Moduli (GPa) = 30.65376 47.65718 76.85322
#
# Poissons Ratio (x) = 0.55037 0.51975
# Poissons Ratio (y) = 0.35401 0.28026
# Poissons Ratio (z) = 0.20731 0.17379
#
# Static dielectric constant tensor:
#      x y z
#    x 3.072630 0.000000 0.000000 
#    y 0.000000 3.104500 0.000000 
#    z 0.000000 0.000000 3.191550 
# 
# 
# High freq. dielectric constant tensor:
#      x y z
#    x 1.576110 0.000000 0.000000 
#    y 0.000000 1.568440 0.000000 
#    z 0.000000 0.000000 1.628740 
# 
# From -- ./inp_files/43266.got.cif
#   From: 2010.03.12/outbox.cif.g09.slc.cpg/sg65_22_cif.got.tgz:43266.got - 2010.04.10 20:52:16.
