data_PCOD8265431
_publ_section_title
;
Structure prediction by ZEFSAII (Michael W. Deem and Ramdas Pophale) SiO2 
 PCOD8265431
Probable space group: C M M M
;
_chemical_formula_sum "Si O2"
_cell_formula_units_Z 64
_cell_length_a 19.028659
_cell_length_b 13.858534
_cell_length_c 13.576799
_cell_angle_alpha 90.000000
_cell_angle_beta 90.000000
_cell_angle_gamma 90.000000
_cell_volume 3580.328401
_symmetry_space_group_name_H-M "C M M M"
_symmetry_group_IT_number 65
_symmetry_cell_setting 'orthorhombic'
loop_
_space_group_symop_operation_xyz
x,y,z
-x,-y,z
x,-y,-z
-x,y,-z
-x,-y,-z
x,y,-z
-x,y,z
x,-y,z
1/2+x,1/2+y,z
1/2-x,1/2-y,z
1/2+x,1/2-y,-z
1/2-x,1/2+y,-z
1/2-x,1/2-y,-z
1/2+x,1/2+y,-z
1/2-x,1/2+y,z
1/2+x,1/2-y,z
loop_
_atom_site_type_symbol
_atom_site_label
_atom_site_fract_x
_atom_site_fract_y
_atom_site_fract_z
Si Si1 0.651988 0.287309 0.612117
Si Si2 0.000000 0.734504 0.612160
Si Si3 0.142932 0.386582 0.108313
Si Si4 0.224163 0.612005 0.297979
Si Si5 0.500000 0.885886 0.201440
O O1 0.671003 0.313464 0.500000
O O2 0.568940 0.300167 0.631309
O O3 0.694494 0.359855 0.683644
O O4 0.674556 0.176227 0.631730
O O5 0.000000 0.643837 0.684523
O O6 0.000000 0.694982 0.500000
O O7 0.133053 0.500000 0.099246
O O8 0.205800 0.363019 0.184264
O O9 0.069116 0.343077 0.147759
O O10 0.160258 0.342918 0.000000
O O11 0.210382 0.500000 0.322139
O O12 0.500000 0.000000 0.199186
#
# Coordination Sequence:
#
# PCOD8265431 Si02
#       5
#    16   8  16  16   8
#     4  10  21  35  51  74 103 135 169 210 256 300
#     4  10  20  34  50  68 100 138 168 208 253 296
#     4   9  17  29  48  74 102 133 167 205 252 304
#     4  10  19  33  53  75 101 134 167 204 254 305
#     4  10  17  29  48  72 104 137 166 202 251 307
#
# _framework density 17.875454999999999
#
# number of rings (size 3 to 8) (size 9 to 14) (size 15 to 20)
#    0.000    2.250    2.500    1.875    0.000    3.750 
#    0.000    5.625    0.000    2.250    0.000    0.000 
#    0.000    4.000    0.000    0.000    0.000    0.000 
#
# Total GULP energy -396606.323463 kJ/mol
# GULP energy per Si atom -12393.947608 kJ/mol
# Density = 1.783477 g / cm^3
# Si number density = 17.875455 Si / 1000 Ang^3
#
#
#
# Elastic Constant Matrix: (Units=GPa)
#
#
# Indices 1 2 3 4 5 6 
#
# 1 143.2379 24.2553 68.2279 0.0000 0.0000 0.0000
# 2 24.2553 42.6806 21.7277 0.0000 0.0000 0.0000
# 3 68.2279 21.7277 140.2655 0.0000 0.0000 0.0000
# 4 0.0000 0.0000 0.0000 19.8469 0.0000 0.0000
# 5 0.0000 0.0000 0.0000 0.0000 29.9034 0.0000
# 6 0.0000 0.0000 0.0000 0.0000 0.0000 17.4057
#
#
#
# Elastic Compliance Matrix: (Units=1/GPa)
#
#
# Indices 1 2 3 4 5 6 
#
# 1 0.009498 -0.003306 -0.004108 0.000000 0.000000 0.000000
# 2 -0.003306 0.026587 -0.002510 0.000000 0.000000 0.000000
# 3 -0.004108 -0.002510 0.009516 0.000000 0.000000 0.000000
# 4 0.000000 0.000000 0.000000 0.050386 0.000000 0.000000
# 5 0.000000 0.000000 0.000000 0.000000 0.033441 0.000000
# 6 0.000000 0.000000 0.000000 0.000000 0.000000 0.057452
#
#
# Mechanical properties :
#
#
# Convention : Reuss Voigt Hill
#
# Bulk Modulus (GPa) = 38.83155 61.62288 50.22722
# Shear Modulus (GPa) = 23.22202 27.56274 25.39238
#
# Velocity S-wave (km/s) = 3.60821 3.93100 3.77306
# Velocity P-wave (km/s) = 6.25536 7.42644 6.86591
#
# Compressibility (1/GPa) = 0.02575226
#
# Stress axis : x y z
#
# Youngs Moduli (GPa) = 105.28595 37.61278 105.08318
#
# Poissons Ratio (x) = 0.12437 0.43166
# Poissons Ratio (y) = 0.34812 0.26377
# Poissons Ratio (z) = 0.43249 0.09441
#
# Static dielectric constant tensor:
#      x y z
#    x 3.533080 0.000000 0.000000 
#    y 0.000000 2.859530 0.000000 
#    z 0.000000 0.000000 3.606440 
# 
# 
# High freq. dielectric constant tensor:
#      x y z
#    x 1.698770 0.000000 0.000000 
#    y 0.000000 1.636860 0.000000 
#    z 0.000000 0.000000 1.699500 
# 
# From -- ./inp_files/26112.got.cif
#   From: 2010.03.12/outbox.cif.g09.slc.cpg/sg65_14_cif.got.tgz:26112.got - 2010.04.10 20:52:16.
