data_PCOD8265123
_publ_section_title
;
Structure prediction by ZEFSAII (Michael W. Deem and Ramdas Pophale) SiO2 
 PCOD8265123
Probable space group: C M M M
;
_chemical_formula_sum "Si O2"
_cell_formula_units_Z 72
_cell_length_a 30.873467
_cell_length_b 8.673985
_cell_length_c 18.095665
_cell_angle_alpha 90.000000
_cell_angle_beta 90.000000
_cell_angle_gamma 90.000000
_cell_volume 4845.946517
_symmetry_space_group_name_H-M "C M M M"
_symmetry_group_IT_number 65
_symmetry_cell_setting 'orthorhombic'
loop_
_space_group_symop_operation_xyz
x,y,z
-x,-y,z
x,-y,-z
-x,y,-z
-x,-y,-z
x,y,-z
-x,y,z
x,-y,z
1/2+x,1/2+y,z
1/2-x,1/2-y,z
1/2+x,1/2-y,-z
1/2-x,1/2+y,-z
1/2-x,1/2-y,-z
1/2+x,1/2+y,-z
1/2-x,1/2+y,z
1/2+x,1/2-y,z
loop_
_atom_site_type_symbol
_atom_site_label
_atom_site_fract_x
_atom_site_fract_y
_atom_site_fract_z
Si Si1 0.453045 0.325625 0.412280
Si Si2 0.797580 0.316341 0.297779
Si Si3 0.798154 0.816406 0.147641
Si Si4 0.365965 0.818770 0.582636
Si Si5 0.298370 0.816546 0.000000
O O1 0.453182 0.317224 0.500000
O O2 0.500000 0.262382 0.383514
O O3 0.447044 0.500000 0.384863
O O4 0.412438 0.228048 0.382237
O O5 0.795281 0.500000 0.290813
O O6 0.750000 0.250000 0.312500
O O7 0.819510 0.245991 0.223300
O O8 0.827441 0.259041 0.365280
O O9 0.750000 0.750000 0.148926
O O10 0.798267 0.000000 0.145092
O O11 0.821937 0.748157 0.074243
O O12 0.359609 0.748395 0.500000
O O13 0.364555 0.000000 0.578240
O O14 0.250000 0.750000 0.000000
O O15 0.298022 0.000000 0.000000
#
# Coordination Sequence:
#
# PCOD8265123 Si02
#       5
#    16  16  16  16   8
#     4   8  14  25  41  60  79  97 120 154 197 244
#     4  10  19  30  41  54  75 104 138 172 204 235
#     4  10  17  26  39  55  74  97 127 160 196 235
#     4   9  18  30  42  57  77 102 134 170 204 239
#     4  10  16  24  38  56  76  96 121 154 193 234
#
# _framework density 14.857778
#
# number of rings (size 3 to 8) (size 9 to 14) (size 15 to 20)
#    0.000    2.667    0.000    7.000    0.000    2.667 
#    0.000    2.222    0.000    0.000    0.000    0.000 
#    0.000    0.000    0.000    1.000    0.000   18.778 
#
# Total GULP energy -446003.726781 kJ/mol
# GULP energy per Si atom -12388.992411 kJ/mol
# Density = 1.482396 g / cm^3
# Si number density = 14.857778 Si / 1000 Ang^3
#
#
#
# Elastic Constant Matrix: (Units=GPa)
#
#
# Indices 1 2 3 4 5 6 
#
# 1 76.3656 24.2540 52.8443 0.0000 0.0000 0.0000
# 2 24.2540 78.0585 39.7125 0.0000 0.0000 0.0000
# 3 52.8443 39.7125 105.5056 0.0000 0.0000 0.0000
# 4 0.0000 0.0000 0.0000 20.6334 0.0000 0.0000
# 5 0.0000 0.0000 0.0000 0.0000 1.1417 0.0000
# 6 0.0000 0.0000 0.0000 0.0000 0.0000 19.4027
#
#
#
# Elastic Compliance Matrix: (Units=1/GPa)
#
#
# Indices 1 2 3 4 5 6 
#
# 1 0.020163 -0.001394 -0.009574 0.000000 0.000000 0.000000
# 2 -0.001394 0.015942 -0.005302 0.000000 0.000000 0.000000
# 3 -0.009574 -0.005302 0.016269 0.000000 0.000000 0.000000
# 4 0.000000 0.000000 0.000000 0.048465 0.000000 0.000000
# 5 0.000000 0.000000 0.000000 0.000000 0.875905 0.000000
# 6 0.000000 0.000000 0.000000 0.000000 0.000000 0.051539
#
#
# Mechanical properties :
#
#
# Convention : Reuss Voigt Hill
#
# Bulk Modulus (GPa) = 50.42124 54.83902 52.63013
# Shear Modulus (GPa) = 4.68413 17.77682 11.23047
#
# Velocity S-wave (km/s) = 1.77749 3.46275 2.75228
# Velocity P-wave (km/s) = 6.18241 7.27853 6.75275
#
# Compressibility (1/GPa) = 0.01983291
#
# Stress axis : x y z
#
# Youngs Moduli (GPa) = 49.59601 62.72911 61.46521
#
# Poissons Ratio (x) = 0.08744 0.58848
# Poissons Ratio (y) = 0.06914 0.32590
# Poissons Ratio (z) = 0.47484 0.33260
#
# Static dielectric constant tensor:
#      x y z
#    x 2.927790 0.000000 0.000000 
#    y 0.000000 2.909130 0.000000 
#    z 0.000000 0.000000 3.886210 
# 
# 
# High freq. dielectric constant tensor:
#      x y z
#    x 1.522100 0.000000 0.000000 
#    y 0.000000 1.578340 0.000000 
#    z 0.000000 0.000000 1.557130 
# 
# From -- ./inp_files/65628.got.cif
#   From: 2010.03.12/outbox.cif.g09.slc.cpg/sg65_33_cif.got.tgz:65628.got - 2010.04.10 20:52:16.
