data_PCOD8265634
_publ_section_title
;
Structure prediction by ZEFSAII (Michael W. Deem and Ramdas Pophale) SiO2 
 PCOD8265634
Probable space group: C M M M
;
_chemical_formula_sum "Si O2"
_cell_formula_units_Z 96
_cell_length_a 17.178488
_cell_length_b 23.322096
_cell_length_c 14.148271
_cell_angle_alpha 90.000000
_cell_angle_beta 90.000000
_cell_angle_gamma 90.000000
_cell_volume 5668.339896
_symmetry_space_group_name_H-M "C M M M"
_symmetry_group_IT_number 65
_symmetry_cell_setting 'orthorhombic'
loop_
_space_group_symop_operation_xyz
x,y,z
-x,-y,z
x,-y,-z
-x,y,-z
-x,-y,-z
x,y,-z
-x,y,z
x,-y,z
1/2+x,1/2+y,z
1/2-x,1/2-y,z
1/2+x,1/2-y,-z
1/2-x,1/2+y,-z
1/2-x,1/2-y,-z
1/2+x,1/2+y,-z
1/2-x,1/2+y,z
1/2+x,1/2-y,z
loop_
_atom_site_type_symbol
_atom_site_label
_atom_site_fract_x
_atom_site_fract_y
_atom_site_fract_z
Si Si1 0.909724 0.935092 0.240513
Si Si2 0.585397 0.263917 0.105996
Si Si3 0.589731 0.215225 0.609725
Si Si4 0.909454 0.153106 0.603640
Si Si5 0.693651 0.626790 0.108128
Si Si6 0.193647 0.695847 0.229143
O O1 0.875643 0.891570 0.320040
O O2 0.855531 0.927086 0.147909
O O3 0.000000 0.922024 0.215687
O O4 0.900701 0.000000 0.277328
O O5 0.500000 0.278538 0.146961
O O6 0.636022 0.320281 0.111215
O O7 0.621342 0.212253 0.163931
O O8 0.580233 0.241101 0.000000
O O9 0.607449 0.204550 0.500000
O O10 0.500000 0.198570 0.631976
O O11 0.605027 0.281862 0.637506
O O12 0.652879 0.178774 0.670549
O O13 0.870757 0.143144 0.500000
O O14 0.000000 0.141023 0.593162
O O15 0.765496 0.641657 0.178159
O O16 0.721354 0.614534 0.000000
O O17 0.250000 0.750000 0.242575
#
# Coordination Sequence:
#
# PCOD8265634 Si02
#       6
#    16  16  16  16  16  16
#     4  10  20  32  47  66  85 113 159 205 238 268
#     4   9  16  26  42  62  83 111 147 183 219 263
#     4   9  17  29  46  68  94 124 154 181 214 262
#     4   8  14  26  44  65  89 116 146 182 223 263
#     4  10  20  32  43  59  87 120 151 187 235 280
#     4  10  18  27  41  61  88 120 149 180 217 265
#
# _framework density 16.936176
#
# number of rings (size 3 to 8) (size 9 to 14) (size 15 to 20)
#    0.000    2.667    0.000    4.500    0.000    5.333 
#    0.000    3.333    0.000    0.000    0.000    0.000 
#    0.000    2.667    0.000   10.000    0.000    0.167 
#
# Total GULP energy -594826.105787 kJ/mol
# GULP energy per Si atom -12392.210537 kJ/mol
# Density = 1.689763 g / cm^3
# Si number density = 16.936176 Si / 1000 Ang^3
#
#
#
# Elastic Constant Matrix: (Units=GPa)
#
#
# Indices 1 2 3 4 5 6 
#
# 1 64.3773 15.5354 54.6688 0.0000 0.0000 0.0000
# 2 15.5354 28.1870 27.0012 0.0000 0.0000 0.0000
# 3 54.6688 27.0012 98.1263 0.0000 0.0000 0.0000
# 4 0.0000 0.0000 0.0000 17.3616 0.0000 0.0000
# 5 0.0000 0.0000 0.0000 0.0000 35.1200 0.0000
# 6 0.0000 0.0000 0.0000 0.0000 0.0000 18.9350
#
#
#
# Elastic Compliance Matrix: (Units=1/GPa)
#
#
# Indices 1 2 3 4 5 6 
#
# 1 0.029491 -0.000699 -0.016238 0.000000 0.000000 0.000000
# 2 -0.000699 0.048193 -0.012871 0.000000 0.000000 0.000000
# 3 -0.016238 -0.012871 0.022779 0.000000 0.000000 0.000000
# 4 0.000000 0.000000 0.000000 0.057598 0.000000 0.000000
# 5 0.000000 0.000000 0.000000 0.000000 0.028474 0.000000
# 6 0.000000 0.000000 0.000000 0.000000 0.000000 0.052812
#
#
# Mechanical properties :
#
#
# Convention : Reuss Voigt Hill
#
# Bulk Modulus (GPa) = 24.48228 42.78905 33.63566
# Shear Modulus (GPa) = 15.99583 20.51566 18.25575
#
# Velocity S-wave (km/s) = 3.07657 3.48422 3.28672
# Velocity P-wave (km/s) = 5.20647 6.44253 5.85720
#
# Compressibility (1/GPa) = 0.04084587
#
# Stress axis : x y z
#
# Youngs Moduli (GPa) = 33.90812 20.74994 43.89929
#
# Poissons Ratio (x) = 0.01451 0.71284
# Poissons Ratio (y) = 0.02372 0.56505
# Poissons Ratio (z) = 0.55060 0.26708
#
# Static dielectric constant tensor:
#      x y z
#    x 3.162620 0.000000 0.000000 
#    y 0.000000 2.708620 0.000000 
#    z 0.000000 0.000000 3.604180 
# 
# 
# High freq. dielectric constant tensor:
#      x y z
#    x 1.638840 0.000000 0.000000 
#    y 0.000000 1.585040 0.000000 
#    z 0.000000 0.000000 1.673220 
# 
# From -- ./inp_files/40357.got.cif
#   From: 2010.03.12/outbox.cif.g09.slc.cpg/sg65_21_cif.got.tgz:40357.got - 2010.04.10 20:52:16.
