data_PCOD8265246
_publ_section_title
;
Structure prediction by ZEFSAII (Michael W. Deem and Ramdas Pophale) SiO2 
 PCOD8265246
Probable space group: C M M M
;
_chemical_formula_sum "Si O2"
_cell_formula_units_Z 72
_cell_length_a 22.136698
_cell_length_b 19.883820
_cell_length_c 10.367263
_cell_angle_alpha 90.000000
_cell_angle_beta 90.000000
_cell_angle_gamma 90.000000
_cell_volume 4563.276444
_symmetry_space_group_name_H-M "C M M M"
_symmetry_group_IT_number 65
_symmetry_cell_setting 'orthorhombic'
loop_
_space_group_symop_operation_xyz
x,y,z
-x,-y,z
x,-y,-z
-x,y,-z
-x,-y,-z
x,y,-z
-x,y,z
x,-y,z
1/2+x,1/2+y,z
1/2-x,1/2-y,z
1/2+x,1/2-y,-z
1/2-x,1/2+y,-z
1/2-x,1/2-y,-z
1/2+x,1/2+y,-z
1/2-x,1/2+y,z
1/2+x,1/2-y,z
loop_
_atom_site_type_symbol
_atom_site_label
_atom_site_fract_x
_atom_site_fract_y
_atom_site_fract_z
Si Si1 0.857682 0.123559 0.244297
Si Si2 0.660657 0.696356 0.500000
Si Si3 0.699889 0.158598 0.500000
Si Si4 0.279988 0.921561 0.253126
Si Si5 0.335898 0.296078 0.000000
Si Si6 0.700233 0.848177 0.000000
Si Si7 0.071444 0.000000 0.851867
O O1 0.871297 0.164083 0.375317
O O2 0.791382 0.091347 0.248049
O O3 0.867232 0.175383 0.127635
O O4 0.905841 0.064648 0.226045
O O5 0.654623 0.777460 0.500000
O O6 0.731228 0.681442 0.500000
O O7 0.687851 0.114581 0.373167
O O8 0.311658 0.893591 0.124852
O O9 0.292609 0.000000 0.264877
O O10 0.344476 0.215651 0.000000
O O11 0.266902 0.318338 0.000000
O O12 0.000000 0.000000 0.851927
O O13 0.096433 0.000000 0.000000
#
# Coordination Sequence:
#
# PCOD8265246 Si02
#       7
#    16   8   8  16   8   8   8
#     4  10  18  30  46  60  80 112 149 184 228 263
#     4   9  18  29  44  61  82 107 144 186 217 255
#     4   9  17  28  39  60  86 112 143 179 212 256
#     4  10  17  25  40  59  87 116 148 178 215 258
#     4   9  16  27  42  57  78 107 146 186 221 263
#     4   9  17  24  37  60  80 106 145 191 216 242
#     4  11  22  35  49  67  87 111 153 199 241 273
#
# _framework density 15.778136
#
# number of rings (size 3 to 8) (size 9 to 14) (size 15 to 20)
#    0.000    2.333    2.222    2.000    0.000    5.778 
#    0.000    1.111    0.000    0.000    0.000    0.000 
#    0.000    0.000    0.000    0.000    0.000   77.778 
#
# Total GULP energy -446374.140203 kJ/mol
# GULP energy per Si atom -12399.281672 kJ/mol
# Density = 1.574222 g / cm^3
# Si number density = 15.778136 Si / 1000 Ang^3
#
#
#
# Elastic Constant Matrix: (Units=GPa)
#
#
# Indices 1 2 3 4 5 6 
#
# 1 23.4737 25.5564 21.0686 0.0000 0.0000 0.0000
# 2 25.5564 156.4550 85.1506 0.0000 0.0000 0.0000
# 3 21.0686 85.1506 167.4421 0.0000 0.0000 0.0000
# 4 0.0000 0.0000 0.0000 25.8084 0.0000 0.0000
# 5 0.0000 0.0000 0.0000 0.0000 9.4805 0.0000
# 6 0.0000 0.0000 0.0000 0.0000 0.0000 9.9207
#
#
#
# Elastic Compliance Matrix: (Units=1/GPa)
#
#
# Indices 1 2 3 4 5 6 
#
# 1 0.052978 -0.006949 -0.003132 0.000000 0.000000 0.000000
# 2 -0.006949 0.009749 -0.004083 0.000000 0.000000 0.000000
# 3 -0.003132 -0.004083 0.008443 0.000000 0.000000 0.000000
# 4 0.000000 0.000000 0.000000 0.038747 0.000000 0.000000
# 5 0.000000 0.000000 0.000000 0.000000 0.105480 0.000000
# 6 0.000000 0.000000 0.000000 0.000000 0.000000 0.100799
#
#
# Mechanical properties :
#
#
# Convention : Reuss Voigt Hill
#
# Bulk Modulus (GPa) = 23.34237 67.88022 45.61130
# Shear Modulus (GPa) = 13.93514 23.41494 18.67504
#
# Velocity S-wave (km/s) = 2.97508 3.85647 3.44408
# Velocity P-wave (km/s) = 5.16020 7.93378 6.69226
#
# Compressibility (1/GPa) = 0.04284054
#
# Stress axis : x y z
#
# Youngs Moduli (GPa) = 18.87584 102.57339 118.44282
#
# Poissons Ratio (x) = 0.71279 0.37098
# Poissons Ratio (y) = 0.13117 0.48365
# Poissons Ratio (z) = 0.05912 0.41885
#
# Static dielectric constant tensor:
#      x y z
#    x 2.324830 0.000000 0.000000 
#    y 0.000000 3.157930 0.000000 
#    z 0.000000 0.000000 3.274110 
# 
# 
# High freq. dielectric constant tensor:
#      x y z
#    x 1.516960 0.000000 0.000000 
#    y 0.000000 1.621000 0.000000 
#    z 0.000000 0.000000 1.627100 
# 
# From -- ./inp_files/11363.got.cif
#   From: 2010.03.12/outbox.cif.g09.slc.cpg/sg65_6_cif.got.tgz:11363.got - 2010.04.10 20:52:16.
