data_PCOD8265140
_publ_section_title
;
Structure prediction by ZEFSAII (Michael W. Deem and Ramdas Pophale) SiO2 
 PCOD8265140
Probable space group: C M M M
;
_chemical_formula_sum "Si O2"
_cell_formula_units_Z 56
_cell_length_a 8.616859
_cell_length_b 19.358465
_cell_length_c 18.101985
_cell_angle_alpha 90.000000
_cell_angle_beta 90.000000
_cell_angle_gamma 90.000000
_cell_volume 3019.576973
_symmetry_space_group_name_H-M "C M M M"
_symmetry_group_IT_number 65
_symmetry_cell_setting 'orthorhombic'
loop_
_space_group_symop_operation_xyz
x,y,z
-x,-y,z
x,-y,-z
-x,y,-z
-x,-y,-z
x,y,-z
-x,y,z
x,-y,z
1/2+x,1/2+y,z
1/2-x,1/2-y,z
1/2+x,1/2-y,-z
1/2-x,1/2+y,-z
1/2-x,1/2-y,-z
1/2+x,1/2+y,-z
1/2-x,1/2+y,z
1/2+x,1/2-y,z
loop_
_atom_site_type_symbol
_atom_site_label
_atom_site_fract_x
_atom_site_fract_y
_atom_site_fract_z
Si Si1 0.316459 0.826875 0.147690
Si Si2 0.321780 0.079712 0.414938
Si Si3 0.316378 0.327229 0.000000
Si Si4 0.319103 0.674945 0.703498
O O1 0.500000 0.827228 0.141900
O O2 0.250000 0.750000 0.150838
O O3 0.246346 0.864763 0.074618
O O4 0.260176 0.861319 0.224367
O O5 0.287360 0.096998 0.500000
O O6 0.500000 0.096793 0.395704
O O7 0.208791 0.126110 0.366191
O O8 0.285516 0.000000 0.398504
O O9 0.250000 0.250000 0.000000
O O10 0.500000 0.326358 0.000000
O O11 0.500000 0.683175 0.718953
O O12 0.250000 0.750000 0.686082
#
# Coordination Sequence:
#
# PCOD8265140 Si02
#       4
#    16  16   8  16
#     4  10  17  27  42  63  93 128 165 203 246 293
#     4   9  19  37  58  77  99 129 165 205 250 301
#     4  10  16  24  38  60  91 126 163 200 243 292
#     4  11  21  33  50  74 104 135 168 208 253 298
#
# _framework density 18.545643999999999
#
# number of rings (size 3 to 8) (size 9 to 14) (size 15 to 20)
#    0.000    2.000    0.000   10.714    0.000    1.714 
#    0.000    1.429    0.000    0.000    0.000    1.000 
#    0.000    8.000    0.000    0.000    0.000    0.000 
#
# Total GULP energy -347093.204988 kJ/mol
# GULP energy per Si atom -12396.185892 kJ/mol
# Density = 1.850343 g / cm^3
# Si number density = 18.545644 Si / 1000 Ang^3
#
#
#
# Elastic Constant Matrix: (Units=GPa)
#
#
# Indices 1 2 3 4 5 6 
#
# 1 166.6022 26.3534 59.6168 0.0000 0.0000 0.0000
# 2 26.3534 37.8376 44.3838 0.0000 0.0000 0.0000
# 3 59.6168 44.3838 142.3105 0.0000 0.0000 0.0000
# 4 0.0000 0.0000 0.0000 -1.2190 0.0000 0.0000
# 5 0.0000 0.0000 0.0000 0.0000 38.6045 0.0000
# 6 0.0000 0.0000 0.0000 0.0000 0.0000 19.0668
#
#
#
# Elastic Compliance Matrix: (Units=1/GPa)
#
#
# Indices 1 2 3 4 5 6 
#
# 1 0.007188 -0.002325 -0.002286 0.000000 0.000000 0.000000
# 2 -0.002325 0.042427 -0.012258 0.000000 0.000000 0.000000
# 3 -0.002286 -0.012258 0.011808 0.000000 0.000000 0.000000
# 4 0.000000 0.000000 0.000000 -0.820334 0.000000 0.000000
# 5 0.000000 0.000000 0.000000 0.000000 0.025904 0.000000
# 6 0.000000 0.000000 0.000000 0.000000 0.000000 0.052447
#
#
# Mechanical properties :
#
#
# Convention : Reuss Voigt Hill
#
# Bulk Modulus (GPa) = 36.12140 67.49537 51.80839
# Shear Modulus (GPa) = -7.84198 25.71690 8.93746
#
# Velocity S-wave (km/s) = -2.05856 3.72786 2.19764
# Velocity P-wave (km/s) = 3.72412 7.41636 5.86820
#
# Compressibility (1/GPa) = 0.02768442
#
# Stress axis : x y z
#
# Youngs Moduli (GPa) = 139.11788 23.57000 84.69023
#
# Poissons Ratio (x) = 0.05479 0.19362
# Poissons Ratio (y) = 0.32340 1.03815
# Poissons Ratio (z) = 0.31806 0.28893
#
# Static dielectric constant tensor:
#      x y z
#    x 3.408330 0.000000 0.000000 
#    y 0.000000 2.870720 0.000000 
#    z 0.000000 0.000000 4.540770 
# 
# 
# High freq. dielectric constant tensor:
#      x y z
#    x 1.734060 0.000000 0.000000 
#    y 0.000000 1.646880 0.000000 
#    z 0.000000 0.000000 1.750120 
# 
# From -- ./inp_files/35811.got.cif
#   From: 2010.03.12/outbox.cif.g09.slc.cpg/sg65_18_cif.got.tgz:35811.got - 2010.04.10 20:52:16.
