data_PCOD8265388
_publ_section_title
;
Structure prediction by ZEFSAII (Michael W. Deem and Ramdas Pophale) SiO2 
 PCOD8265388
Probable space group: C M M M
;
_chemical_formula_sum "Si O2"
_cell_formula_units_Z 104
_cell_length_a 24.197421
_cell_length_b 27.986738
_cell_length_c 9.027432
_cell_angle_alpha 90.000000
_cell_angle_beta 90.000000
_cell_angle_gamma 90.000000
_cell_volume 6113.439075
_symmetry_space_group_name_H-M "C M M M"
_symmetry_group_IT_number 65
_symmetry_cell_setting 'orthorhombic'
loop_
_space_group_symop_operation_xyz
x,y,z
-x,-y,z
x,-y,-z
-x,y,-z
-x,-y,-z
x,y,-z
-x,y,z
x,-y,z
1/2+x,1/2+y,z
1/2-x,1/2-y,z
1/2+x,1/2-y,-z
1/2-x,1/2+y,-z
1/2-x,1/2-y,-z
1/2+x,1/2+y,-z
1/2-x,1/2+y,z
1/2+x,1/2-y,z
loop_
_atom_site_type_symbol
_atom_site_label
_atom_site_fract_x
_atom_site_fract_y
_atom_site_fract_z
Si Si1 0.859590 0.443629 0.670056
Si Si2 0.938204 0.000000 0.324366
Si Si3 0.565646 0.776819 0.333090
Si Si4 0.063960 0.628642 0.827035
Si Si5 0.237248 0.052696 0.675062
Si Si6 0.563839 0.318603 0.174460
Si Si7 0.624412 0.405383 0.675340
O O1 0.870021 0.428716 0.500000
O O2 0.867268 0.500000 0.690109
O O3 0.903355 0.417767 0.774075
O O4 0.797757 0.428274 0.722397
O O5 0.907114 0.047275 0.268983
O O6 0.939384 0.000000 0.500000
O O7 0.000000 0.000000 0.258178
O O8 0.588802 0.774747 0.500000
O O9 0.500000 0.777867 0.330723
O O10 0.588132 0.824573 0.254673
O O11 0.586480 0.730454 0.244728
O O12 0.000000 0.620334 0.787335
O O13 0.072647 0.636437 0.000000
O O14 0.236372 0.046529 0.500000
O O15 0.188801 0.089115 0.722310
O O16 0.226305 0.000000 0.744309
O O17 0.500000 0.327625 0.218042
O O18 0.600522 0.360802 0.238168
O O19 0.571474 0.315211 0.000000
O O20 0.616940 0.397483 0.500000
#
# Coordination Sequence:
#
# PCOD8265388 Si02
#       7
#    16   8  16  16  16  16  16
#     4   9  18  32  51  74 100 130 165 202 237 279
#     4   9  16  24  39  67  97 123 156 201 246 286
#     4   9  17  31  52  74  94 121 161 202 237 283
#     4  10  20  33  50  74 104 133 157 187 236 292
#     4   8  14  28  49  71  93 122 164 210 249 281
#     4  10  20  32  45  66  99 133 162 197 245 295
#     4  10  17  28  48  70  93 124 165 209 247 287
#
# _framework density 17.011702
#
# number of rings (size 3 to 8) (size 9 to 14) (size 15 to 20)
#    0.000    2.692    0.769    2.769    0.000    4.923 
#    0.000    2.692    0.000    3.231    0.000    6.462 
#    0.000    0.000    0.000    0.000    0.000    0.000 
#
# Total GULP energy -644677.486392 kJ/mol
# GULP energy per Si atom -12397.643969 kJ/mol
# Density = 1.697298 g / cm^3
# Si number density = 17.011702 Si / 1000 Ang^3
#
#
#
# Elastic Constant Matrix: (Units=GPa)
#
#
# Indices 1 2 3 4 5 6 
#
# 1 90.6475 58.8190 41.7935 0.0000 0.0000 0.0000
# 2 58.8190 106.1081 45.9736 0.0000 0.0000 0.0000
# 3 41.7935 45.9736 69.4312 0.0000 0.0000 0.0000
# 4 0.0000 0.0000 0.0000 9.0739 0.0000 0.0000
# 5 0.0000 0.0000 0.0000 0.0000 16.3265 0.0000
# 6 0.0000 0.0000 0.0000 0.0000 0.0000 6.5977
#
#
#
# Elastic Compliance Matrix: (Units=1/GPa)
#
#
# Indices 1 2 3 4 5 6 
#
# 1 0.018986 -0.007815 -0.006254 0.000000 0.000000 0.000000
# 2 -0.007815 0.016433 -0.006177 0.000000 0.000000 0.000000
# 3 -0.006254 -0.006177 0.022257 0.000000 0.000000 0.000000
# 4 0.000000 0.000000 0.000000 0.110206 0.000000 0.000000
# 5 0.000000 0.000000 0.000000 0.000000 0.061250 0.000000
# 6 0.000000 0.000000 0.000000 0.000000 0.000000 0.151568
#
#
# Mechanical properties :
#
#
# Convention : Reuss Voigt Hill
#
# Bulk Modulus (GPa) = 58.19093 62.15099 60.17096
# Shear Modulus (GPa) = 11.71183 14.37301 13.04242
#
# Velocity S-wave (km/s) = 2.62669 2.90985 2.77189
# Velocity P-wave (km/s) = 6.59394 6.92121 6.75956
#
# Compressibility (1/GPa) = 0.01718481
#
# Stress axis : x y z
#
# Youngs Moduli (GPa) = 52.67028 60.85480 44.92961
#
# Poissons Ratio (x) = 0.47558 0.28098
# Poissons Ratio (y) = 0.41161 0.27751
# Poissons Ratio (z) = 0.32939 0.37588
#
# Static dielectric constant tensor:
#      x y z
#    x 3.256380 0.000000 0.000000 
#    y 0.000000 3.193040 0.000000 
#    z 0.000000 0.000000 2.998150 
# 
# 
# High freq. dielectric constant tensor:
#      x y z
#    x 1.637890 0.000000 0.000000 
#    y 0.000000 1.655050 0.000000 
#    z 0.000000 0.000000 1.638580 
# 
# From -- ./inp_files/14805.got.cif
#   From: 2010.03.12/outbox.cif.g09.slc.cpg/sg65_8_cif.got.tgz:14805.got - 2010.04.10 20:52:16.
