data_PCOD8265579
_publ_section_title
;
Structure prediction by ZEFSAII (Michael W. Deem and Ramdas Pophale) SiO2 
 PCOD8265579
Probable space group: C M M M
;
_chemical_formula_sum "Si O2"
_cell_formula_units_Z 96
_cell_length_a 8.795612
_cell_length_b 27.572039
_cell_length_c 24.405252
_cell_angle_alpha 90.000000
_cell_angle_beta 90.000000
_cell_angle_gamma 90.000000
_cell_volume 5918.589831
_symmetry_space_group_name_H-M "C M M M"
_symmetry_group_IT_number 65
_symmetry_cell_setting 'orthorhombic'
loop_
_space_group_symop_operation_xyz
x,y,z
-x,-y,z
x,-y,-z
-x,y,-z
-x,-y,-z
x,y,-z
-x,y,z
x,-y,z
1/2+x,1/2+y,z
1/2-x,1/2-y,z
1/2+x,1/2-y,-z
1/2-x,1/2+y,-z
1/2-x,1/2-y,-z
1/2+x,1/2+y,-z
1/2-x,1/2+y,z
1/2+x,1/2-y,z
loop_
_atom_site_type_symbol
_atom_site_label
_atom_site_fract_x
_atom_site_fract_y
_atom_site_fract_z
Si Si1 0.678063 0.697246 0.440666
Si Si2 0.823276 0.387209 0.938250
Si Si3 0.320625 0.148354 0.221472
Si Si4 0.179002 0.553002 0.835457
Si Si5 0.320864 0.699386 0.120723
Si Si6 0.321023 0.197025 0.333116
O O1 0.708405 0.671282 0.500000
O O2 0.500000 0.701674 0.429433
O O3 0.750000 0.750000 0.443200
O O4 0.756580 0.671020 0.388589
O O5 0.775879 0.430235 0.896874
O O6 0.726305 0.339679 0.924799
O O7 0.000000 0.373959 0.930141
O O8 0.788392 0.404498 0.000000
O O9 0.500000 0.153216 0.211372
O O10 0.264707 0.093286 0.208498
O O11 0.239385 0.185495 0.180837
O O12 0.275092 0.161852 0.283275
O O13 0.253855 0.500000 0.823892
O O14 0.000000 0.547818 0.830644
O O15 0.500000 0.704126 0.123237
O O16 0.250000 0.750000 0.102142
O O17 0.500000 0.203093 0.338082
O O18 0.250000 0.250000 0.323846
#
# Coordination Sequence:
#
# PCOD8265579 Si02
#       6
#    16  16  16  16  16  16
#     4   9  16  25  37  54  79 112 148 181 210 242
#     4   9  18  32  48  67  90 112 138 173 209 251
#     4   9  18  31  45  65  90 113 143 179 213 254
#     4   8  14  27  48  70  89 109 135 171 214 257
#     4  11  21  32  47  64  85 115 146 176 212 251
#     4  10  18  26  39  59  85 116 147 178 209 244
#
# _framework density 16.220079999999999
#
# number of rings (size 3 to 8) (size 9 to 14) (size 15 to 20)
#    0.000    2.667    0.000    5.000    0.000    4.667 
#    0.000    1.667    0.000    8.000    0.000    4.667 
#    0.000    0.667    0.000    8.333    0.000    1.333 
#
# Total GULP energy -594840.331491 kJ/mol
# GULP energy per Si atom -12392.506906 kJ/mol
# Density = 1.618316 g / cm^3
# Si number density = 16.220080 Si / 1000 Ang^3
#
#
#
# Elastic Constant Matrix: (Units=GPa)
#
#
# Indices 1 2 3 4 5 6 
#
# 1 62.4551 21.0287 33.4486 0.0000 0.0000 0.0000
# 2 21.0287 88.9985 43.9433 0.0000 0.0000 0.0000
# 3 33.4486 43.9433 143.1965 0.0000 0.0000 0.0000
# 4 0.0000 0.0000 0.0000 11.6736 0.0000 0.0000
# 5 0.0000 0.0000 0.0000 0.0000 22.9006 0.0000
# 6 0.0000 0.0000 0.0000 0.0000 0.0000 12.3373
#
#
#
# Elastic Compliance Matrix: (Units=1/GPa)
#
#
# Indices 1 2 3 4 5 6 
#
# 1 0.018830 -0.002684 -0.003575 0.000000 0.000000 0.000000
# 2 -0.002684 0.013625 -0.003554 0.000000 0.000000 0.000000
# 3 -0.003575 -0.003554 0.008909 0.000000 0.000000 0.000000
# 4 0.000000 0.000000 0.000000 0.085663 0.000000 0.000000
# 5 0.000000 0.000000 0.000000 0.000000 0.043667 0.000000
# 6 0.000000 0.000000 0.000000 0.000000 0.000000 0.081055
#
#
# Mechanical properties :
#
#
# Convention : Reuss Voigt Hill
#
# Bulk Modulus (GPa) = 46.00241 54.61015 50.30628
# Shear Modulus (GPa) = 17.94550 22.46428 20.20489
#
# Velocity S-wave (km/s) = 3.32983 3.72555 3.53324
# Velocity P-wave (km/s) = 6.57318 7.22825 6.90848
#
# Compressibility (1/GPa) = 0.02173799
#
# Stress axis : x y z
#
# Youngs Moduli (GPa) = 53.10764 73.39294 112.24466
#
# Poissons Ratio (x) = 0.19700 0.40123
# Poissons Ratio (y) = 0.14255 0.39895
# Poissons Ratio (z) = 0.18984 0.26086
#
# Static dielectric constant tensor:
#      x y z
#    x 2.981560 0.000000 0.000000 
#    y 0.000000 3.074350 0.000000 
#    z 0.000000 0.000000 3.579110 
# 
# 
# High freq. dielectric constant tensor:
#      x y z
#    x 1.616840 0.000000 0.000000 
#    y 0.000000 1.584620 0.000000 
#    z 0.000000 0.000000 1.630180 
# 
# From -- ./inp_files/68037.got.cif
#   From: 2010.03.12/outbox.cif.g09.slc.cpg/sg65_35_cif.got.tgz:68037.got - 2010.04.10 20:52:16.
