data_PCOD8265867
_publ_section_title
;
Structure prediction by ZEFSAII (Michael W. Deem and Ramdas Pophale) SiO2 
 PCOD8265867
Probable space group: C M M M
;
_chemical_formula_sum "Si O2"
_cell_formula_units_Z 72
_cell_length_a 10.169499
_cell_length_b 23.581061
_cell_length_c 17.849535
_cell_angle_alpha 90.000000
_cell_angle_beta 90.000000
_cell_angle_gamma 90.000000
_cell_volume 4280.453726
_symmetry_space_group_name_H-M "C M M M"
_symmetry_group_IT_number 65
_symmetry_cell_setting 'orthorhombic'
loop_
_space_group_symop_operation_xyz
x,y,z
-x,-y,z
x,-y,-z
-x,y,-z
-x,-y,-z
x,y,-z
-x,y,z
x,-y,z
1/2+x,1/2+y,z
1/2-x,1/2-y,z
1/2+x,1/2-y,-z
1/2-x,1/2+y,-z
1/2-x,1/2-y,-z
1/2+x,1/2+y,-z
1/2-x,1/2+y,z
1/2+x,1/2-y,z
loop_
_atom_site_type_symbol
_atom_site_label
_atom_site_fract_x
_atom_site_fract_y
_atom_site_fract_z
Si Si1 0.272459 0.184476 0.655066
Si Si2 0.000000 0.065734 0.163109
Si Si3 0.000000 0.708244 0.763713
Si Si4 0.148480 0.698897 0.500000
Si Si5 0.000000 0.161888 0.716583
Si Si6 0.769611 0.437948 0.087877
Si Si7 0.500000 0.854694 0.911232
O O1 0.250000 0.250000 0.641391
O O2 0.373233 0.178555 0.724894
O O3 0.330879 0.161124 0.575865
O O4 0.132964 0.154325 0.668846
O O5 0.000000 0.107842 0.231389
O O6 0.126377 0.080725 0.113952
O O7 0.000000 0.000000 0.189492
O O8 0.000000 0.698256 0.853879
O O9 0.000000 0.776482 0.756520
O O10 0.250000 0.750000 0.500000
O O11 0.000000 0.723281 0.500000
O O12 0.807783 0.500000 0.121328
O O13 0.873894 0.391162 0.112062
O O14 0.768149 0.442788 0.000000
O O15 0.500000 0.836471 0.000000
#
# Coordination Sequence:
#
# PCOD8265867 Si02
#       7
#    16   8   8   8   8  16   8
#     4   9  18  29  47  68  97 129 156 189 232 283
#     4  10  19  32  50  69  90 117 158 207 248 291
#     4  10  18  32  46  64  97 136 161 189 237 286
#     4  10  18  28  46  74 104 127 161 197 231 278
#     4  10  20  32  46  68  95 129 160 191 238 285
#     4   9  17  30  48  69  91 117 154 207 261 292
#     4  10  19  30  47  69  96 130 167 197 229 283
#
# _framework density 16.820646
#
# number of rings (size 3 to 8) (size 9 to 14) (size 15 to 20)
#    0.000    2.444    1.111    2.000    4.667    2.667 
#    0.000    1.111    0.000    8.667    0.000    1.556 
#    0.000    0.889    0.000    0.000    0.000    0.000 
#
# Total GULP energy -445993.545249 kJ/mol
# GULP energy per Si atom -12388.709590 kJ/mol
# Density = 1.678236 g / cm^3
# Si number density = 16.820646 Si / 1000 Ang^3
#
#
#
# Elastic Constant Matrix: (Units=GPa)
#
#
# Indices 1 2 3 4 5 6 
#
# 1 117.2416 20.4209 5.2354 0.0000 0.0000 0.0000
# 2 20.4209 36.2272 13.2683 0.0000 0.0000 0.0000
# 3 5.2354 13.2683 32.4612 0.0000 0.0000 0.0000
# 4 0.0000 0.0000 0.0000 9.6888 0.0000 0.0000
# 5 0.0000 0.0000 0.0000 0.0000 21.3888 0.0000
# 6 0.0000 0.0000 0.0000 0.0000 0.0000 13.7271
#
#
#
# Elastic Compliance Matrix: (Units=1/GPa)
#
#
# Indices 1 2 3 4 5 6 
#
# 1 0.009474 -0.005623 0.000770 0.000000 0.000000 0.000000
# 2 -0.005623 0.035800 -0.013726 0.000000 0.000000 0.000000
# 3 0.000770 -0.013726 0.036292 0.000000 0.000000 0.000000
# 4 0.000000 0.000000 0.000000 0.103212 0.000000 0.000000
# 5 0.000000 0.000000 0.000000 0.000000 0.046753 0.000000
# 6 0.000000 0.000000 0.000000 0.000000 0.000000 0.072849
#
#
# Mechanical properties :
#
#
# Convention : Reuss Voigt Hill
#
# Bulk Modulus (GPa) = 22.51775 29.30879 25.91327
# Shear Modulus (GPa) = 14.03147 18.76130 16.39638
#
# Velocity S-wave (km/s) = 2.89135 3.34334 3.12553
# Velocity P-wave (km/s) = 4.95607 5.68912 5.33520
#
# Compressibility (1/GPa) = 0.04440941
#
# Stress axis : x y z
#
# Youngs Moduli (GPa) = 105.54814 27.93271 27.55407
#
# Poissons Ratio (x) = 0.15706 -0.02122
# Poissons Ratio (y) = 0.59346 0.37822
# Poissons Ratio (z) = -0.08129 0.38341
#
# Static dielectric constant tensor:
#      x y z
#    x 3.220630 0.000000 0.000000 
#    y 0.000000 2.836670 0.000000 
#    z 0.000000 0.000000 3.429490 
# 
# 
# High freq. dielectric constant tensor:
#      x y z
#    x 1.673740 0.000000 0.000000 
#    y 0.000000 1.593420 0.000000 
#    z 0.000000 0.000000 1.646850 
# 
# From -- ./inp_files/59447.got.cif
#   From: 2010.03.12/outbox.cif.g09.slc.cpg/sg65_30_cif.got.tgz:59447.got - 2010.04.10 20:52:16.
