data_PCOD8265464
_publ_section_title
;
Structure prediction by ZEFSAII (Michael W. Deem and Ramdas Pophale) SiO2 
 PCOD8265464
Probable space group: C M M M
;
_chemical_formula_sum "Si O2"
_cell_formula_units_Z 80
_cell_length_a 15.850993
_cell_length_b 18.243835
_cell_length_c 14.436121
_cell_angle_alpha 90.000000
_cell_angle_beta 90.000000
_cell_angle_gamma 90.000000
_cell_volume 4174.679348
_symmetry_space_group_name_H-M "C M M M"
_symmetry_group_IT_number 65
_symmetry_cell_setting 'orthorhombic'
loop_
_space_group_symop_operation_xyz
x,y,z
-x,-y,z
x,-y,-z
-x,y,-z
-x,-y,-z
x,y,-z
-x,y,z
x,-y,z
1/2+x,1/2+y,z
1/2-x,1/2-y,z
1/2+x,1/2-y,-z
1/2-x,1/2+y,-z
1/2-x,1/2-y,-z
1/2+x,1/2+y,-z
1/2-x,1/2+y,z
1/2+x,1/2-y,z
loop_
_atom_site_type_symbol
_atom_site_label
_atom_site_fract_x
_atom_site_fract_y
_atom_site_fract_z
Si Si1 0.246811 0.162456 0.604891
Si Si2 0.908995 0.654619 0.286724
Si Si3 0.646334 0.084674 0.896398
Si Si4 0.302452 0.320285 0.896714
Si Si5 0.907038 0.173763 0.275492
O O1 0.243543 0.133559 0.500000
O O2 0.250000 0.250000 0.608507
O O3 0.329035 0.125755 0.654005
O O4 0.162345 0.135448 0.657948
O O5 0.903784 0.632072 0.178866
O O6 0.910691 0.741098 0.297633
O O7 0.000000 0.624613 0.324204
O O8 0.743888 0.108255 0.896158
O O9 0.640118 0.000000 0.868602
O O10 0.608623 0.098141 0.000000
O O11 0.250000 0.250000 0.857662
O O12 0.381523 0.336956 0.831564
O O13 0.335681 0.302223 0.000000
O O14 0.000000 0.138597 0.291384
#
# Coordination Sequence:
#
# PCOD8265464 Si02
#       5
#    16  16  16  16  16
#     4   9  17  31  49  72 104 134 165 212 265 307
#     4  10  19  31  49  74 104 136 171 208 249 302
#     4  10  20  33  51  75 105 141 176 211 254 304
#     4  10  17  30  51  72 101 137 172 212 256 304
#     4  10  18  29  49  77 104 131 168 211 258 306
#
# _framework density 19.163148
#
# number of rings (size 3 to 8) (size 9 to 14) (size 15 to 20)
#    0.000    2.200    4.000    0.600    0.000    2.000 
#    0.000    7.000    0.000    1.200    0.000    4.200 
#    0.000    1.600    0.000    0.000    0.000    0.000 
#
# Total GULP energy -495712.279032 kJ/mol
# GULP energy per Si atom -12392.806976 kJ/mol
# Density = 1.911953 g / cm^3
# Si number density = 19.163148 Si / 1000 Ang^3
#
#
#
# Elastic Constant Matrix: (Units=GPa)
#
#
# Indices 1 2 3 4 5 6 
#
# 1 178.9724 9.0656 82.7655 0.0000 0.0000 0.0000
# 2 9.0656 18.8654 5.1212 0.0000 0.0000 0.0000
# 3 82.7655 5.1212 132.7014 0.0000 0.0000 0.0000
# 4 0.0000 0.0000 0.0000 9.6248 0.0000 0.0000
# 5 0.0000 0.0000 0.0000 0.0000 13.6964 0.0000
# 6 0.0000 0.0000 0.0000 0.0000 0.0000 5.3550
#
#
#
# Elastic Compliance Matrix: (Units=1/GPa)
#
#
# Indices 1 2 3 4 5 6 
#
# 1 0.007968 -0.002506 -0.004873 0.000000 0.000000 0.000000
# 2 -0.002506 0.054357 -0.000535 0.000000 0.000000 0.000000
# 3 -0.004873 -0.000535 0.010595 0.000000 0.000000 0.000000
# 4 0.000000 0.000000 0.000000 0.103898 0.000000 0.000000
# 5 0.000000 0.000000 0.000000 0.000000 0.073012 0.000000
# 6 0.000000 0.000000 0.000000 0.000000 0.000000 0.186740
#
#
# Mechanical properties :
#
#
# Convention : Reuss Voigt Hill
#
# Bulk Modulus (GPa) = 17.51534 58.27152 37.89343
# Shear Modulus (GPa) = 10.60607 21.30770 15.95688
#
# Velocity S-wave (km/s) = 2.35513 3.33815 2.88876
# Velocity P-wave (km/s) = 4.06884 6.73289 5.56270
#
# Compressibility (1/GPa) = 0.05709282
#
# Stress axis : x y z
#
# Youngs Moduli (GPa) = 125.50506 18.39702 94.37976
#
# Poissons Ratio (x) = 0.04610 0.45989
# Poissons Ratio (y) = 0.31453 0.05046
# Poissons Ratio (z) = 0.61156 0.00984
#
# Static dielectric constant tensor:
#      x y z
#    x 3.917740 0.000000 0.000000 
#    y 0.000000 2.977490 0.000000 
#    z 0.000000 0.000000 3.615620 
# 
# 
# High freq. dielectric constant tensor:
#      x y z
#    x 1.744370 0.000000 0.000000 
#    y 0.000000 1.680810 0.000000 
#    z 0.000000 0.000000 1.746860 
# 
# From -- ./inp_files/39992.got.cif
#   From: 2010.03.12/outbox.cif.g09.slc.cpg/sg65_20_cif.got.tgz:39992.got - 2010.04.10 20:52:16.
