data_PCOD8265210
_publ_section_title
;
Structure prediction by ZEFSAII (Michael W. Deem and Ramdas Pophale) SiO2 
 PCOD8265210
Probable space group: C M M M
;
_chemical_formula_sum "Si O2"
_cell_formula_units_Z 96
_cell_length_a 24.145782
_cell_length_b 16.719603
_cell_length_c 16.591095
_cell_angle_alpha 90.000000
_cell_angle_beta 90.000000
_cell_angle_gamma 90.000000
_cell_volume 6697.955941
_symmetry_space_group_name_H-M "C M M M"
_symmetry_group_IT_number 65
_symmetry_cell_setting 'orthorhombic'
loop_
_space_group_symop_operation_xyz
x,y,z
-x,-y,z
x,-y,-z
-x,y,-z
-x,-y,-z
x,y,-z
-x,y,z
x,-y,z
1/2+x,1/2+y,z
1/2-x,1/2-y,z
1/2+x,1/2-y,-z
1/2-x,1/2+y,-z
1/2-x,1/2-y,-z
1/2+x,1/2+y,-z
1/2-x,1/2+y,z
1/2+x,1/2-y,z
loop_
_atom_site_type_symbol
_atom_site_label
_atom_site_fract_x
_atom_site_fract_y
_atom_site_fract_z
Si Si1 0.937321 0.093780 0.198978
Si Si2 0.161802 0.905222 0.089131
Si Si3 0.152029 0.092899 0.500000
Si Si4 0.799861 0.307717 0.652474
Si Si5 0.232782 0.092300 0.235409
Si Si6 0.217215 0.406477 0.500000
Si Si7 0.367116 0.658654 0.332205
O O1 0.897102 0.121913 0.126459
O O2 0.922044 0.142084 0.280124
O O3 0.000000 0.114306 0.173859
O O4 0.929521 0.000000 0.216662
O O5 0.212343 0.877723 0.147184
O O6 0.162659 0.000000 0.083184
O O7 0.168902 0.867102 0.000000
O O8 0.217407 0.110451 0.500000
O O9 0.122623 0.133322 0.576246
O O10 0.138765 0.000000 0.500000
O O11 0.750000 0.250000 0.625503
O O12 0.784869 0.355527 0.734728
O O13 0.811049 0.368523 0.579252
O O14 0.853278 0.253418 0.671780
O O15 0.182685 0.103671 0.298220
O O16 0.250423 0.000000 0.234223
O O17 0.203931 0.500000 0.500000
#
# Coordination Sequence:
#
# PCOD8265210 Si02
#       7
#    16  16   8  16  16   8  16
#     4   9  17  29  43  57  74  97 127 162 195 226
#     4   8  14  24  39  59  78  97 126 161 191 220
#     4  11  17  23  38  54  73 103 131 157 188 218
#     4  10  17  24  35  53  78 104 131 157 186 223
#     4   9  15  24  37  53  76 103 127 153 185 223
#     4  11  18  24  36  56  79 100 130 165 188 214
#     4  10  18  26  38  53  77 103 131 158 190 225
#
# _framework density 14.33273
#
# number of rings (size 3 to 8) (size 9 to 14) (size 15 to 20)
#    0.000    2.500    3.333    3.750    0.000    0.333 
#    0.000    2.083    0.000   14.000    0.000    0.000 
#    0.000    3.333    0.000    0.000    0.000    0.000 
#
# Total GULP energy -595030.608780 kJ/mol
# GULP energy per Si atom -12396.471016 kJ/mol
# Density = 1.430011 g / cm^3
# Si number density = 14.332730 Si / 1000 Ang^3
#
#
#
# Elastic Constant Matrix: (Units=GPa)
#
#
# Indices 1 2 3 4 5 6 
#
# 1 34.8199 26.4064 34.7887 0.0000 0.0000 0.0000
# 2 26.4064 67.4634 38.0297 0.0000 0.0000 0.0000
# 3 34.7887 38.0297 134.0097 0.0000 0.0000 0.0000
# 4 0.0000 0.0000 0.0000 10.2839 0.0000 0.0000
# 5 0.0000 0.0000 0.0000 0.0000 6.7716 0.0000
# 6 0.0000 0.0000 0.0000 0.0000 0.0000 12.3572
#
#
#
# Elastic Compliance Matrix: (Units=1/GPa)
#
#
# Indices 1 2 3 4 5 6 
#
# 1 0.047699 -0.013916 -0.008433 0.000000 0.000000 0.000000
# 2 -0.013916 0.021706 -0.002547 0.000000 0.000000 0.000000
# 3 -0.008433 -0.002547 0.010374 0.000000 0.000000 0.000000
# 4 0.000000 0.000000 0.000000 0.097240 0.000000 0.000000
# 5 0.000000 0.000000 0.000000 0.000000 0.147675 0.000000
# 6 0.000000 0.000000 0.000000 0.000000 0.000000 0.080924
#
#
# Mechanical properties :
#
#
# Convention : Reuss Voigt Hill
#
# Bulk Modulus (GPa) = 33.34957 48.30476 40.82717
# Shear Modulus (GPa) = 10.74332 15.02043 12.88188
#
# Velocity S-wave (km/s) = 2.74079 3.24077 3.00121
# Velocity P-wave (km/s) = 5.77361 6.91223 6.36842
#
# Compressibility (1/GPa) = 0.02998539
#
# Stress axis : x y z
#
# Youngs Moduli (GPa) = 20.96499 46.07083 96.39254
#
# Poissons Ratio (x) = 0.64113 0.81291
# Poissons Ratio (y) = 0.29175 0.24552
# Poissons Ratio (z) = 0.17680 0.11735
#
# Static dielectric constant tensor:
#      x y z
#    x 2.476220 0.000000 0.000000 
#    y 0.000000 2.756260 0.000000 
#    z 0.000000 0.000000 3.117100 
# 
# 
# High freq. dielectric constant tensor:
#      x y z
#    x 1.491460 0.000000 0.000000 
#    y 0.000000 1.527800 0.000000 
#    z 0.000000 0.000000 1.555570 
# 
# From -- ./inp_files/55990.got.cif
#   From: 2010.03.12/outbox.cif.g09.slc.cpg/sg65_28_cif.got.tgz:55990.got - 2010.04.10 20:52:16.
