data_PCOD8265088
_publ_section_title
;
Structure prediction by ZEFSAII (Michael W. Deem and Ramdas Pophale) SiO2 
 PCOD8265088
Probable space group: C M M M
;
_chemical_formula_sum "Si O2"
_cell_formula_units_Z 72
_cell_length_a 8.824393
_cell_length_b 23.769634
_cell_length_c 21.013113
_cell_angle_alpha 90.000000
_cell_angle_beta 90.000000
_cell_angle_gamma 90.000000
_cell_volume 4407.554915
_symmetry_space_group_name_H-M "C M M M"
_symmetry_group_IT_number 65
_symmetry_cell_setting 'orthorhombic'
loop_
_space_group_symop_operation_xyz
x,y,z
-x,-y,z
x,-y,-z
-x,y,-z
-x,-y,-z
x,y,-z
-x,y,z
x,-y,z
1/2+x,1/2+y,z
1/2-x,1/2-y,z
1/2+x,1/2-y,-z
1/2-x,1/2+y,-z
1/2-x,1/2-y,-z
1/2+x,1/2+y,-z
1/2-x,1/2+y,z
1/2+x,1/2-y,z
loop_
_atom_site_type_symbol
_atom_site_label
_atom_site_fract_x
_atom_site_fract_y
_atom_site_fract_z
Si Si1 0.680164 0.618262 0.619734
Si Si2 0.319205 0.500000 0.572531
Si Si3 0.179619 0.687422 0.000000
Si Si4 0.676947 0.689233 0.123133
Si Si5 0.676977 0.310842 0.263102
Si Si6 0.320435 0.310746 0.500000
O O1 0.500000 0.616646 0.620262
O O2 0.742425 0.554906 0.609928
O O3 0.742641 0.644773 0.685633
O O4 0.738821 0.656441 0.561882
O O5 0.500000 0.500000 0.570656
O O6 0.258229 0.500000 0.500000
O O7 0.250000 0.750000 0.000000
O O8 0.240804 0.656339 0.935589
O O9 0.000000 0.688676 0.000000
O O10 0.500000 0.693883 0.107528
O O11 0.750000 0.750000 0.127506
O O12 0.706463 0.662072 0.192767
O O13 0.500000 0.301247 0.273988
O O14 0.750000 0.250000 0.272692
O O15 0.500000 0.305893 0.500000
O O16 0.250000 0.250000 0.500000
#
# Coordination Sequence:
#
# PCOD8265088 Si02
#       6
#    16   8   8  16  16   8
#     4   9  16  26  40  60  83 106 136 173 208 244
#     4   9  14  24  42  62  82 105 134 173 217 246
#     4  10  16  22  34  52  74 101 134 167 193 226
#     4   9  15  23  34  49  73 105 135 162 194 233
#     4   9  17  27  39  57  83 111 138 168 203 245
#     4  10  18  27  41  61  85 108 135 168 202 242
#
# _framework density 16.335588000000001
#
# number of rings (size 3 to 8) (size 9 to 14) (size 15 to 20)
#    0.000    2.778    1.111    3.667    0.000    0.889 
#    0.000    0.000    0.000    0.000    0.000    3.889 
#    0.000    0.889    0.000   11.333    0.000    2.222 
#
# Total GULP energy -445999.478108 kJ/mol
# GULP energy per Si atom -12388.874392 kJ/mol
# Density = 1.629841 g / cm^3
# Si number density = 16.335588 Si / 1000 Ang^3
#
#
#
# Elastic Constant Matrix: (Units=GPa)
#
#
# Indices 1 2 3 4 5 6 
#
# 1 52.6539 18.0974 41.7628 0.0000 0.0000 0.0000
# 2 18.0974 97.6338 65.9898 0.0000 0.0000 0.0000
# 3 41.7628 65.9898 182.6335 0.0000 0.0000 0.0000
# 4 0.0000 0.0000 0.0000 7.1271 0.0000 0.0000
# 5 0.0000 0.0000 0.0000 0.0000 15.5747 0.0000
# 6 0.0000 0.0000 0.0000 0.0000 0.0000 11.2112
#
#
#
# Elastic Compliance Matrix: (Units=1/GPa)
#
#
# Indices 1 2 3 4 5 6 
#
# 1 0.023266 -0.000948 -0.004978 0.000000 0.000000 0.000000
# 2 -0.000948 0.013591 -0.004694 0.000000 0.000000 0.000000
# 3 -0.004978 -0.004694 0.008310 0.000000 0.000000 0.000000
# 4 0.000000 0.000000 0.000000 0.140310 0.000000 0.000000
# 5 0.000000 0.000000 0.000000 0.000000 0.064207 0.000000
# 6 0.000000 0.000000 0.000000 0.000000 0.000000 0.089196
#
#
# Mechanical properties :
#
#
# Convention : Reuss Voigt Hill
#
# Bulk Modulus (GPa) = 41.79397 64.95793 53.37595
# Shear Modulus (GPa) = 13.58347 20.58734 17.08540
#
# Velocity S-wave (km/s) = 2.88675 3.55389 3.23755
# Velocity P-wave (km/s) = 6.06228 7.52935 6.83529
#
# Compressibility (1/GPa) = 0.02392690
#
# Stress axis : x y z
#
# Youngs Moduli (GPa) = 42.98139 73.58031 120.34222
#
# Poissons Ratio (x) = 0.06977 0.59901
# Poissons Ratio (y) = 0.04076 0.56486
# Poissons Ratio (z) = 0.21394 0.34537
#
# Static dielectric constant tensor:
#      x y z
#    x 2.879700 0.000000 0.000000 
#    y 0.000000 2.857880 0.000000 
#    z 0.000000 0.000000 4.379490 
# 
# 
# High freq. dielectric constant tensor:
#      x y z
#    x 1.603980 0.000000 0.000000 
#    y 0.000000 1.570740 0.000000 
#    z 0.000000 0.000000 1.654680 
# 
# From -- ./inp_files/59559.got.cif
#   From: 2010.03.12/outbox.cif.g09.slc.cpg/sg65_30_cif.got.tgz:59559.got - 2010.04.10 20:52:16.
