data_PCOD8265899
_publ_section_title
;
Structure prediction by ZEFSAII (Michael W. Deem and Ramdas Pophale) SiO2 
 PCOD8265899
Probable space group: C M M M
;
_chemical_formula_sum "Si O2"
_cell_formula_units_Z 112
_cell_length_a 16.074191
_cell_length_b 28.367827
_cell_length_c 14.172541
_cell_angle_alpha 90.000000
_cell_angle_beta 90.000000
_cell_angle_gamma 90.000000
_cell_volume 6462.535120
_symmetry_space_group_name_H-M "C M M M"
_symmetry_group_IT_number 65
_symmetry_cell_setting 'orthorhombic'
loop_
_space_group_symop_operation_xyz
x,y,z
-x,-y,z
x,-y,-z
-x,y,-z
-x,-y,-z
x,y,-z
-x,y,z
x,-y,z
1/2+x,1/2+y,z
1/2-x,1/2-y,z
1/2+x,1/2-y,-z
1/2-x,1/2+y,-z
1/2-x,1/2-y,-z
1/2+x,1/2+y,-z
1/2-x,1/2+y,z
1/2+x,1/2-y,z
loop_
_atom_site_type_symbol
_atom_site_label
_atom_site_fract_x
_atom_site_fract_y
_atom_site_fract_z
Si Si1 0.165106 0.721572 0.894319
Si Si2 0.094708 0.248147 0.604712
Si Si3 0.330537 0.153320 0.394233
Si Si4 0.000000 0.553773 0.798516
Si Si5 0.668471 0.945482 0.111446
Si Si6 0.251817 0.137873 0.204274
Si Si7 0.406734 0.695643 0.213003
Si Si8 0.500000 0.902017 0.604703
O O1 0.250000 0.750000 0.896417
O O2 0.177906 0.672907 0.837889
O O3 0.097690 0.755036 0.844013
O O4 0.134600 0.709615 0.000000
O O5 0.107852 0.227204 0.500000
O O6 0.158357 0.290877 0.621669
O O7 0.114483 0.206543 0.677779
O O8 0.000000 0.266320 0.617684
O O9 0.296079 0.143148 0.500000
O O10 0.266091 0.133341 0.316973
O O11 0.419830 0.129916 0.381083
O O12 0.917122 0.575493 0.844986
O O13 0.000000 0.500000 0.828793
O O14 0.000000 0.558234 0.685247
O O15 0.741518 0.913382 0.155634
O O16 0.684217 0.000000 0.140161
O O17 0.666324 0.939476 0.000000
O O18 0.159298 0.156558 0.179325
O O19 0.500000 0.675296 0.200604
O O20 0.500000 0.925476 0.500000
#
# Coordination Sequence:
#
# PCOD8265899 Si02
#       8
#    16  16  16   8  16  16  16   8
#     4   9  18  32  48  69  98 129 161 200 246 301
#     4   9  16  28  46  69 101 137 169 203 243 289
#     4  10  18  28  48  75 104 139 175 207 244 293
#     4  10  19  33  54  79 107 134 161 201 250 306
#     4  10  21  37  57  79 103 132 168 213 261 306
#     4  11  20  34  54  74 100 135 173 215 257 305
#     4  10  21  34  50  73 103 136 172 213 258 306
#     4  10  18  30  47  74 108 141 171 203 242 293
#
# _framework density 17.330660000000002
#
# number of rings (size 3 to 8) (size 9 to 14) (size 15 to 20)
#    0.000    2.143    3.571    0.643    0.000    2.429 
#    1.286    1.429    0.000    0.857    0.000    1.000 
#    0.000    0.000    0.000    4.857    0.000    0.000 
#
# Total GULP energy -694273.414436 kJ/mol
# GULP energy per Si atom -12397.739544 kJ/mol
# Density = 1.729121 g / cm^3
# Si number density = 17.330660 Si / 1000 Ang^3
#
#
#
# Elastic Constant Matrix: (Units=GPa)
#
#
# Indices 1 2 3 4 5 6 
#
# 1 68.8321 35.1242 32.3446 0.0000 0.0000 0.0000
# 2 35.1242 73.0020 38.4910 0.0000 0.0000 0.0000
# 3 32.3446 38.4910 113.4980 0.0000 0.0000 0.0000
# 4 0.0000 0.0000 0.0000 24.8643 0.0000 0.0000
# 5 0.0000 0.0000 0.0000 0.0000 18.6924 0.0000
# 6 0.0000 0.0000 0.0000 0.0000 0.0000 19.9128
#
#
#
# Elastic Compliance Matrix: (Units=1/GPa)
#
#
# Indices 1 2 3 4 5 6 
#
# 1 0.020047 -0.008078 -0.002974 0.000000 0.000000 0.000000
# 2 -0.008078 0.019936 -0.004459 0.000000 0.000000 0.000000
# 3 -0.002974 -0.004459 0.011170 0.000000 0.000000 0.000000
# 4 0.000000 0.000000 0.000000 0.040218 0.000000 0.000000
# 5 0.000000 0.000000 0.000000 0.000000 0.053498 0.000000
# 6 0.000000 0.000000 0.000000 0.000000 0.000000 0.050219
#
#
# Mechanical properties :
#
#
# Convention : Reuss Voigt Hill
#
# Bulk Modulus (GPa) = 49.66991 51.91686 50.79339
# Shear Modulus (GPa) = 21.47582 22.65206 22.06394
#
# Velocity S-wave (km/s) = 3.52402 3.61924 3.57195
# Velocity P-wave (km/s) = 6.72909 6.89107 6.81056
#
# Compressibility (1/GPa) = 0.02013291
#
# Stress axis : x y z
#
# Youngs Moduli (GPa) = 49.88179 50.16115 89.52287
#
# Poissons Ratio (x) = 0.40519 0.26621
# Poissons Ratio (y) = 0.40293 0.39917
# Poissons Ratio (z) = 0.14833 0.22366
#
# Static dielectric constant tensor:
#      x y z
#    x 3.001000 0.000000 0.000000 
#    y 0.000000 2.933980 0.000000 
#    z 0.000000 0.000000 3.500340 
# 
# 
# High freq. dielectric constant tensor:
#      x y z
#    x 1.644510 0.000000 0.000000 
#    y 0.000000 1.629760 0.000000 
#    z 0.000000 0.000000 1.688350 
# 
# From -- ./inp_files/41191.got.cif
#   From: 2010.03.12/outbox.cif.g09.slc.cpg/sg65_21_cif.got.tgz:41191.got - 2010.04.10 20:52:16.
