data_PCOD8265981
_publ_section_title
;
Structure prediction by ZEFSAII (Michael W. Deem and Ramdas Pophale) SiO2 
 PCOD8265981
Probable space group: C M M M
;
_chemical_formula_sum "Si O2"
_cell_formula_units_Z 120
_cell_length_a 28.253811
_cell_length_b 9.026315
_cell_length_c 28.683338
_cell_angle_alpha 90.000000
_cell_angle_beta 90.000000
_cell_angle_gamma 90.000000
_cell_volume 7315.048530
_symmetry_space_group_name_H-M "C M M M"
_symmetry_group_IT_number 65
_symmetry_cell_setting 'orthorhombic'
loop_
_space_group_symop_operation_xyz
x,y,z
-x,-y,z
x,-y,-z
-x,y,-z
-x,-y,-z
x,y,-z
-x,y,z
x,-y,z
1/2+x,1/2+y,z
1/2-x,1/2-y,z
1/2+x,1/2-y,-z
1/2-x,1/2+y,-z
1/2-x,1/2-y,-z
1/2+x,1/2+y,-z
1/2-x,1/2+y,z
1/2+x,1/2-y,z
loop_
_atom_site_type_symbol
_atom_site_label
_atom_site_fract_x
_atom_site_fract_y
_atom_site_fract_z
Si Si1 0.611523 0.175883 0.231333
Si Si2 0.446642 0.175664 0.500000
Si Si3 0.389870 0.823924 0.409355
Si Si4 0.447357 0.824255 0.319882
Si Si5 0.298723 0.326139 0.268293
Si Si6 0.946366 0.674668 0.141728
Si Si7 0.056208 0.167311 0.050821
Si Si8 0.298917 0.674105 0.623966
O O1 0.578671 0.231232 0.273567
O O2 0.661519 0.257322 0.235041
O O3 0.586491 0.228963 0.183916
O O4 0.619403 0.000000 0.232940
O O5 0.500000 0.241928 0.500000
O O6 0.418338 0.230278 0.545325
O O7 0.450116 0.000000 0.500000
O O8 0.419540 0.767623 0.365041
O O9 0.339261 0.743949 0.408609
O O10 0.382008 0.000000 0.408866
O O11 0.500000 0.755986 0.320586
O O12 0.450318 0.000000 0.320406
O O13 0.294609 0.500000 0.259446
O O14 0.250000 0.250000 0.253523
O O15 0.310661 0.289905 0.322125
O O16 0.946816 0.500000 0.139052
O O17 0.924091 0.734372 0.093317
O O18 0.000000 0.733750 0.149734
O O19 0.000000 0.175081 0.050904
O O20 0.073695 0.000000 0.058563
O O21 0.074518 0.224883 0.000000
O O22 0.295008 0.500000 0.614877
O O23 0.250000 0.750000 0.609142
#
# Coordination Sequence:
#
# PCOD8265981 Si02
#       8
#    16   8  16  16  16  16  16  16
#     4  10  18  29  45  67  96 125 156 191 230 278
#     4   9  18  32  52  79 104 125 158 201 234 269
#     4  10  18  31  52  75  98 125 158 195 235 276
#     4   9  16  26  44  68  92 123 160 191 221 266
#     4  10  20  33  50  70  93 120 153 192 235 281
#     4   9  17  27  40  62  93 127 160 196 235 273
#     4   8  14  25  40  57  80 116 162 205 241 278
#     4  10  20  34  53  75  98 121 152 192 236 286
#
# _framework density 16.404540000000001
#
# number of rings (size 3 to 8) (size 9 to 14) (size 15 to 20)
#    0.000    2.600    1.333    2.000    0.000    5.067 
#    0.000    2.000    0.000    4.000    0.000    0.000 
#    0.000    0.533    0.000    1.733    0.000    2.533 
#
# Total GULP energy -743921.546939 kJ/mol
# GULP energy per Si atom -12398.692449 kJ/mol
# Density = 1.636720 g / cm^3
# Si number density = 16.404540 Si / 1000 Ang^3
#
#
#
# Elastic Constant Matrix: (Units=GPa)
#
#
# Indices 1 2 3 4 5 6 
#
# 1 126.8757 40.8310 68.7031 0.0000 0.0000 0.0000
# 2 40.8310 42.3820 34.3178 0.0000 0.0000 0.0000
# 3 68.7031 34.3178 139.0687 0.0000 0.0000 0.0000
# 4 0.0000 0.0000 0.0000 17.8869 0.0000 0.0000
# 5 0.0000 0.0000 0.0000 0.0000 14.6336 0.0000
# 6 0.0000 0.0000 0.0000 0.0000 0.0000 22.7254
#
#
#
# Elastic Compliance Matrix: (Units=1/GPa)
#
#
# Indices 1 2 3 4 5 6 
#
# 1 0.013137 -0.009249 -0.004207 0.000000 0.000000 0.000000
# 2 -0.009249 0.035999 -0.004314 0.000000 0.000000 0.000000
# 3 -0.004207 -0.004314 0.010334 0.000000 0.000000 0.000000
# 4 0.000000 0.000000 0.000000 0.055907 0.000000 0.000000
# 5 0.000000 0.000000 0.000000 0.000000 0.068336 0.000000
# 6 0.000000 0.000000 0.000000 0.000000 0.000000 0.044004
#
#
# Mechanical properties :
#
#
# Convention : Reuss Voigt Hill
#
# Bulk Modulus (GPa) = 41.79199 66.22556 54.00878
# Shear Modulus (GPa) = 18.43438 22.01415 20.22426
#
# Velocity S-wave (km/s) = 3.35585 3.66724 3.51500
# Velocity P-wave (km/s) = 6.36764 7.64130 7.03336
#
# Compressibility (1/GPa) = 0.02392803
#
# Stress axis : x y z
#
# Youngs Moduli (GPa) = 76.12374 27.77884 96.76953
#
# Poissons Ratio (x) = 0.25692 0.40715
# Poissons Ratio (y) = 0.70406 0.41748
# Poissons Ratio (z) = 0.32028 0.11984
#
# Static dielectric constant tensor:
#      x y z
#    x 3.031160 0.000000 0.000000 
#    y 0.000000 2.861950 0.000000 
#    z 0.000000 0.000000 3.264750 
# 
# 
# High freq. dielectric constant tensor:
#      x y z
#    x 1.616280 0.000000 0.000000 
#    y 0.000000 1.611300 0.000000 
#    z 0.000000 0.000000 1.623880 
# 
# From -- ./inp_files/76102.got.cif
#   From: 2010.03.12/outbox.cif.g09.slc.cpg/sg65_39_cif.got.tgz:76102.got - 2010.04.10 20:52:16.
