data_PCOD8265136
_publ_section_title
;
Structure prediction by ZEFSAII (Michael W. Deem and Ramdas Pophale) SiO2 
 PCOD8265136
Probable space group: C M M M
;
_chemical_formula_sum "Si O2"
_cell_formula_units_Z 104
_cell_length_a 19.414357
_cell_length_b 8.646018
_cell_length_c 33.726393
_cell_angle_alpha 90.000000
_cell_angle_beta 90.000000
_cell_angle_gamma 90.000000
_cell_volume 5661.207105
_symmetry_space_group_name_H-M "C M M M"
_symmetry_group_IT_number 65
_symmetry_cell_setting 'orthorhombic'
loop_
_space_group_symop_operation_xyz
x,y,z
-x,-y,z
x,-y,-z
-x,y,-z
-x,-y,-z
x,y,-z
-x,y,z
x,-y,z
1/2+x,1/2+y,z
1/2-x,1/2-y,z
1/2+x,1/2-y,-z
1/2-x,1/2+y,-z
1/2-x,1/2-y,-z
1/2+x,1/2+y,-z
1/2-x,1/2+y,z
1/2+x,1/2-y,z
loop_
_atom_site_type_symbol
_atom_site_label
_atom_site_fract_x
_atom_site_fract_y
_atom_site_fract_z
Si Si1 0.822577 0.682992 0.955597
Si Si2 0.580622 0.820971 0.725285
Si Si3 0.673026 0.683486 0.500000
Si Si4 0.825384 0.818207 0.340459
Si Si5 0.081703 0.826486 0.193571
Si Si6 0.826544 0.683516 0.420806
Si Si7 0.421549 0.182589 0.887061
O O1 0.818153 0.500000 0.954615
O O2 0.750000 0.750000 0.941575
O O3 0.880139 0.743948 0.925218
O O4 0.841236 0.741182 0.000000
O O5 0.500000 0.783424 0.719725
O O6 0.623351 0.715949 0.695326
O O7 0.605713 0.777920 0.769504
O O8 0.596660 0.000000 0.717422
O O9 0.673765 0.500000 0.500000
O O10 0.750000 0.750000 0.500000
O O11 0.635521 0.747049 0.460051
O O12 0.750000 0.750000 0.331189
O O13 0.860405 0.741979 0.379817
O O14 0.817816 0.000000 0.347022
O O15 0.111053 0.757066 0.152614
O O16 0.000000 0.824076 0.191082
O O17 0.109933 0.000000 0.199364
O O18 0.827077 0.500000 0.423180
O O19 0.750000 0.750000 0.419741
O O20 0.500000 0.235679 0.893414
O O21 0.415998 0.000000 0.882290
#
# Coordination Sequence:
#
# PCOD8265136 Si02
#       7
#    16  16   8  16  16  16  16
#     4   9  18  32  49  69  95 128 162 195 234 282
#     4  10  20  35  55  77 101 131 168 207 247 295
#     4  10  16  24  38  60  89 122 161 202 247 296
#     4  11  21  34  51  73 103 135 167 205 252 300
#     4   9  17  30  49  73  99 126 158 198 244 291
#     4  10  17  27  42  63  92 126 163 202 248 297
#     4   9  17  30  49  72  96 122 155 197 242 285
#
# _framework density 18.370640999999999
#
# number of rings (size 3 to 8) (size 9 to 14) (size 15 to 20)
#    0.000    2.308    0.000    6.231    0.000    3.692 
#    0.000    2.308    0.000    1.846    0.000    4.846 
#    0.000    4.308    0.000    0.000    0.000    0.000 
#
# Total GULP energy -644643.516599 kJ/mol
# GULP energy per Si atom -12396.990704 kJ/mol
# Density = 1.832883 g / cm^3
# Si number density = 18.370641 Si / 1000 Ang^3
#
#
#
# Elastic Constant Matrix: (Units=GPa)
#
#
# Indices 1 2 3 4 5 6 
#
# 1 46.2353 24.3295 50.8888 0.0000 0.0000 0.0000
# 2 24.3295 110.4998 47.0342 0.0000 0.0000 0.0000
# 3 50.8888 47.0342 158.5370 0.0000 0.0000 0.0000
# 4 0.0000 0.0000 0.0000 33.3688 0.0000 0.0000
# 5 0.0000 0.0000 0.0000 0.0000 10.0606 0.0000
# 6 0.0000 0.0000 0.0000 0.0000 0.0000 20.0268
#
#
#
# Elastic Compliance Matrix: (Units=1/GPa)
#
#
# Indices 1 2 3 4 5 6 
#
# 1 0.034462 -0.003295 -0.010084 0.000000 0.000000 0.000000
# 2 -0.003295 0.010673 -0.002109 0.000000 0.000000 0.000000
# 3 -0.010084 -0.002109 0.010170 0.000000 0.000000 0.000000
# 4 0.000000 0.000000 0.000000 0.029968 0.000000 0.000000
# 5 0.000000 0.000000 0.000000 0.000000 0.099397 0.000000
# 6 0.000000 0.000000 0.000000 0.000000 0.000000 0.049933
#
#
# Mechanical properties :
#
#
# Convention : Reuss Voigt Hill
#
# Bulk Modulus (GPa) = 41.10415 62.19747 51.65081
# Shear Modulus (GPa) = 18.26888 25.55920 21.91404
#
# Velocity S-wave (km/s) = 3.15693 3.73407 3.45756
# Velocity P-wave (km/s) = 5.97593 7.24717 6.64204
#
# Compressibility (1/GPa) = 0.02432844
#
# Stress axis : x y z
#
# Youngs Moduli (GPa) = 29.01767 93.69536 98.32650
#
# Poissons Ratio (x) = 0.30876 0.99155
# Poissons Ratio (y) = 0.09562 0.20733
# Poissons Ratio (z) = 0.29262 0.19757
#
# Static dielectric constant tensor:
#      x y z
#    x 2.944670 0.000000 0.000000 
#    y 0.000000 3.441590 0.000000 
#    z 0.000000 0.000000 4.232070 
# 
# 
# High freq. dielectric constant tensor:
#      x y z
#    x 1.652210 0.000000 0.000000 
#    y 0.000000 1.722240 0.000000 
#    z 0.000000 0.000000 1.737340 
# 
# From -- ./inp_files/78221.got.cif
#   From: 2010.03.12/outbox.cif.g09.slc.cpg/sg65_40_cif.got.tgz:78221.got - 2010.04.10 20:52:16.
