data_PCOD8265740
_publ_section_title
;
Structure prediction by ZEFSAII (Michael W. Deem and Ramdas Pophale) SiO2 
 PCOD8265740
Probable space group: C M M M
;
_chemical_formula_sum "Si O2"
_cell_formula_units_Z 80
_cell_length_a 18.480469
_cell_length_b 22.638806
_cell_length_c 12.091773
_cell_angle_alpha 90.000000
_cell_angle_beta 90.000000
_cell_angle_gamma 90.000000
_cell_volume 5058.904628
_symmetry_space_group_name_H-M "C M M M"
_symmetry_group_IT_number 65
_symmetry_cell_setting 'orthorhombic'
loop_
_space_group_symop_operation_xyz
x,y,z
-x,-y,z
x,-y,-z
-x,y,-z
-x,-y,-z
x,y,-z
-x,y,z
x,-y,z
1/2+x,1/2+y,z
1/2-x,1/2-y,z
1/2+x,1/2-y,-z
1/2-x,1/2+y,-z
1/2-x,1/2-y,-z
1/2+x,1/2+y,-z
1/2-x,1/2+y,z
1/2+x,1/2-y,z
loop_
_atom_site_type_symbol
_atom_site_label
_atom_site_fract_x
_atom_site_fract_y
_atom_site_fract_z
Si Si1 0.913860 0.067625 0.000000
Si Si2 0.081725 0.433694 0.368379
Si Si3 0.413498 0.500000 0.623299
Si Si4 0.155873 0.800986 0.369780
Si Si5 0.584143 0.606538 0.766957
Si Si6 0.684318 0.168621 0.629514
O O1 0.882812 0.100893 0.109218
O O2 0.000000 0.069403 0.000000
O O3 0.886823 0.000000 0.000000
O O4 0.083263 0.430532 0.500000
O O5 0.104160 0.500000 0.329726
O O6 0.137589 0.385124 0.316879
O O7 0.000000 0.419426 0.327296
O O8 0.500000 0.500000 0.618512
O O9 0.380794 0.500000 0.500000
O O10 0.382206 0.443126 0.686678
O O11 0.140981 0.812276 0.500000
O O12 0.096779 0.830574 0.290598
O O13 0.232413 0.829458 0.331725
O O14 0.149340 0.731844 0.342081
O O15 0.500000 0.594401 0.777447
O O16 0.684182 0.159537 0.500000
#
# Coordination Sequence:
#
# PCOD8265740 Si02
#       6
#     8  16   8  16  16  16
#     4   9  16  30  46  57  76 112 152 185 220 256
#     4   8  13  22  37  56  76 100 136 178 209 239
#     4   9  16  25  37  57  87 112 130 166 213 246
#     4   9  17  28  41  59  86 117 143 170 210 260
#     4  10  18  28  43  61  82 111 148 185 214 247
#     4   8  15  28  41  54  82 119 143 164 205 264
#
# _framework density 15.813700000000001
#
# number of rings (size 3 to 8) (size 9 to 14) (size 15 to 20)
#    0.000    3.200    1.000    2.400    0.000    2.000 
#    1.800    2.000    0.000    2.400    0.000    0.000 
#    0.000    0.000    0.000    0.000    0.000   14.600 
#
# Total GULP energy -495569.938816 kJ/mol
# GULP energy per Si atom -12389.248470 kJ/mol
# Density = 1.577771 g / cm^3
# Si number density = 15.813700 Si / 1000 Ang^3
#
#
#
# Elastic Constant Matrix: (Units=GPa)
#
#
# Indices 1 2 3 4 5 6 
#
# 1 28.3981 31.5603 10.7436 0.0000 0.0000 0.0000
# 2 31.5603 100.2034 35.6210 0.0000 0.0000 0.0000
# 3 10.7436 35.6210 86.3780 0.0000 0.0000 0.0000
# 4 0.0000 0.0000 0.0000 8.5640 0.0000 0.0000
# 5 0.0000 0.0000 0.0000 0.0000 7.4021 0.0000
# 6 0.0000 0.0000 0.0000 0.0000 0.0000 29.1789
#
#
#
# Elastic Compliance Matrix: (Units=1/GPa)
#
#
# Indices 1 2 3 4 5 6 
#
# 1 0.054187 -0.017191 0.000350 0.000000 0.000000 0.000000
# 2 -0.017191 0.017148 -0.004933 0.000000 0.000000 0.000000
# 3 0.000350 -0.004933 0.013568 0.000000 0.000000 0.000000
# 4 0.000000 0.000000 0.000000 0.116768 0.000000 0.000000
# 5 0.000000 0.000000 0.000000 0.000000 0.135097 0.000000
# 6 0.000000 0.000000 0.000000 0.000000 0.000000 0.034271
#
#
# Mechanical properties :
#
#
# Convention : Reuss Voigt Hill
#
# Bulk Modulus (GPa) = 24.18194 41.20326 32.69260
# Shear Modulus (GPa) = 11.67205 18.16597 14.91901
#
# Velocity S-wave (km/s) = 2.71974 3.39300 3.07485
# Velocity P-wave (km/s) = 5.01873 6.43909 5.77276
#
# Compressibility (1/GPa) = 0.04135318
#
# Stress axis : x y z
#
# Youngs Moduli (GPa) = 18.45467 58.31574 73.70293
#
# Poissons Ratio (x) = 1.00251 -0.02577
# Poissons Ratio (y) = 0.31726 0.36361
# Poissons Ratio (z) = -0.00645 0.28769
#
# Static dielectric constant tensor:
#      x y z
#    x 2.915920 0.000000 0.000000 
#    y 0.000000 3.257820 0.000000 
#    z 0.000000 0.000000 2.758730 
# 
# 
# High freq. dielectric constant tensor:
#      x y z
#    x 1.577930 0.000000 0.000000 
#    y 0.000000 1.614850 0.000000 
#    z 0.000000 0.000000 1.556950 
# 
# From -- ./inp_files/26710.got.cif
#   From: 2010.03.12/outbox.cif.g09.slc.cpg/sg65_14_cif.got.tgz:26710.got - 2010.04.10 20:52:16.
