data_PCOD8265137
_publ_section_title
;
Structure prediction by ZEFSAII (Michael W. Deem and Ramdas Pophale) SiO2 
 PCOD8265137
Probable space group: C M M M
;
_chemical_formula_sum "Si O2"
_cell_formula_units_Z 72
_cell_length_a 8.580771
_cell_length_b 23.503102
_cell_length_c 20.866877
_cell_angle_alpha 90.000000
_cell_angle_beta 90.000000
_cell_angle_gamma 90.000000
_cell_volume 4208.321911
_symmetry_space_group_name_H-M "C M M M"
_symmetry_group_IT_number 65
_symmetry_cell_setting 'orthorhombic'
loop_
_space_group_symop_operation_xyz
x,y,z
-x,-y,z
x,-y,-z
-x,y,-z
-x,-y,-z
x,y,-z
-x,y,z
x,-y,z
1/2+x,1/2+y,z
1/2-x,1/2-y,z
1/2+x,1/2-y,-z
1/2-x,1/2+y,-z
1/2-x,1/2-y,-z
1/2+x,1/2+y,-z
1/2-x,1/2+y,z
1/2+x,1/2-y,z
loop_
_atom_site_type_symbol
_atom_site_label
_atom_site_fract_x
_atom_site_fract_y
_atom_site_fract_z
Si Si1 0.684550 0.620105 0.624057
Si Si2 0.315767 0.500000 0.572061
Si Si3 0.184343 0.686285 0.000000
Si Si4 0.684513 0.686652 0.128441
Si Si5 0.816681 0.312675 0.259315
Si Si6 0.316466 0.312168 0.500000
O O1 0.500000 0.625881 0.635265
O O2 0.736774 0.555109 0.612213
O O3 0.775992 0.643730 0.684762
O O4 0.742376 0.655357 0.562737
O O5 0.500000 0.500000 0.563809
O O6 0.243289 0.500000 0.500000
O O7 0.250000 0.750000 0.000000
O O8 0.247514 0.655263 0.935296
O O9 0.000000 0.686757 0.000000
O O10 0.500000 0.686011 0.125460
O O11 0.750000 0.750000 0.129457
O O12 0.744370 0.659086 0.194675
O O13 0.750000 0.250000 0.274624
O O14 0.000000 0.306574 0.251013
O O15 0.500000 0.309725 0.500000
O O16 0.250000 0.250000 0.500000
#
# Coordination Sequence:
#
# PCOD8265137 Si02
#       6
#    16   8   8  16  16   8
#     4  10  19  33  52  73  94 122 158 199 241 291
#     4   9  16  32  57  77  93 118 157 200 245 291
#     4  10  16  24  38  60  90 125 162 197 232 276
#     4  10  17  27  42  62  89 124 163 200 236 280
#     4  11  21  33  47  67  96 130 163 200 245 293
#     4  10  20  31  47  69  95 122 155 192 233 282
#
# _framework density 17.108957
#
# number of rings (size 3 to 8) (size 9 to 14) (size 15 to 20)
#    0.000    1.889    1.111    8.333    0.000    2.667 
#    0.000    0.556    0.000    0.667    0.000    0.000 
#    0.000    0.889    0.000    9.556    0.000    5.333 
#
# Total GULP energy -446255.327014 kJ/mol
# GULP energy per Si atom -12395.981306 kJ/mol
# Density = 1.707002 g / cm^3
# Si number density = 17.108957 Si / 1000 Ang^3
#
#
#
# Elastic Constant Matrix: (Units=GPa)
#
#
# Indices 1 2 3 4 5 6 
#
# 1 119.4268 24.8468 58.0874 0.0000 0.0000 0.0000
# 2 24.8468 86.6666 52.3642 0.0000 0.0000 0.0000
# 3 58.0874 52.3642 173.7177 0.0000 0.0000 0.0000
# 4 0.0000 0.0000 0.0000 0.0505 0.0000 0.0000
# 5 0.0000 0.0000 0.0000 0.0000 30.4398 0.0000
# 6 0.0000 0.0000 0.0000 0.0000 0.0000 15.3164
#
#
#
# Elastic Compliance Matrix: (Units=1/GPa)
#
#
# Indices 1 2 3 4 5 6 
#
# 1 0.010076 -0.001043 -0.003055 0.000000 0.000000 0.000000
# 2 -0.001043 0.014216 -0.003936 0.000000 0.000000 0.000000
# 3 -0.003055 -0.003936 0.007964 0.000000 0.000000 0.000000
# 4 0.000000 0.000000 0.000000 19.817719 0.000000 0.000000
# 5 0.000000 0.000000 0.000000 0.000000 0.032852 0.000000
# 6 0.000000 0.000000 0.000000 0.000000 0.000000 0.065290
#
#
# Mechanical properties :
#
#
# Convention : Reuss Voigt Hill
#
# Bulk Modulus (GPa) = 61.77402 72.26755 67.02079
# Shear Modulus (GPa) = 0.25038 25.46219 12.85628
#
# Velocity S-wave (km/s) = 0.38297 3.86195 2.74421
# Velocity P-wave (km/s) = 6.03160 7.88781 7.02131
#
# Compressibility (1/GPa) = 0.01618804
#
# Stress axis : x y z
#
# Youngs Moduli (GPa) = 99.24413 70.34403 125.55739
#
# Poissons Ratio (x) = 0.07337 0.38356
# Poissons Ratio (y) = 0.10351 0.49424
# Poissons Ratio (z) = 0.30318 0.27690
#
# Static dielectric constant tensor:
#      x y z
#    x 3.335470 0.000000 0.000000 
#    y 0.000000 2.786730 0.000000 
#    z 0.000000 0.000000 4.413960 
# 
# 
# High freq. dielectric constant tensor:
#      x y z
#    x 1.661710 0.000000 0.000000 
#    y 0.000000 1.599910 0.000000 
#    z 0.000000 0.000000 1.685450 
# 
# From -- ./inp_files/59572.got.cif
#   From: 2010.03.12/outbox.cif.g09.slc.cpg/sg65_30_cif.got.tgz:59572.got - 2010.04.10 20:52:16.
