data_PCOD8265898
_publ_section_title
;
Structure prediction by ZEFSAII (Michael W. Deem and Ramdas Pophale) SiO2 
 PCOD8265898
Probable space group: C M M M
;
_chemical_formula_sum "Si O2"
_cell_formula_units_Z 64
_cell_length_a 19.478089
_cell_length_b 14.327962
_cell_length_c 8.303257
_cell_angle_alpha 90.000000
_cell_angle_beta 90.000000
_cell_angle_gamma 90.000000
_cell_volume 2317.283916
_symmetry_space_group_name_H-M "C M M M"
_symmetry_group_IT_number 65
_symmetry_cell_setting 'orthorhombic'
loop_
_space_group_symop_operation_xyz
x,y,z
-x,-y,z
x,-y,-z
-x,y,-z
-x,-y,-z
x,y,-z
-x,y,z
x,-y,z
1/2+x,1/2+y,z
1/2-x,1/2-y,z
1/2+x,1/2-y,-z
1/2-x,1/2+y,-z
1/2-x,1/2-y,-z
1/2+x,1/2+y,-z
1/2-x,1/2+y,z
1/2+x,1/2-y,z
loop_
_atom_site_type_symbol
_atom_site_label
_atom_site_fract_x
_atom_site_fract_y
_atom_site_fract_z
Si Si1 0.753000 0.103427 0.330902
Si Si2 0.418503 0.604402 0.817963
Si Si3 0.393580 0.896206 0.000000
Si Si4 0.236471 0.856962 0.000000
Si Si5 0.613653 0.204892 0.679001
O O1 0.793343 0.120058 0.500000
O O2 0.694204 0.180795 0.314624
O O3 0.719577 0.000000 0.332640
O O4 0.801158 0.112335 0.169258
O O5 0.500000 0.609083 0.828122
O O6 0.396845 0.500000 0.756603
O O7 0.393000 0.683780 0.693751
O O8 0.389051 0.624254 0.000000
O O9 0.421168 0.844708 0.164046
O O10 0.310950 0.905837 0.000000
O O11 0.424879 0.000000 0.000000
O O12 0.250000 0.750000 0.000000
O O13 0.584594 0.174691 0.500000
#
# Coordination Sequence:
#
# PCOD8265898 Si02
#       5
#    16  16   8   8  16
#     4   9  18  33  53  76 102 133 169 207 247 296
#     4   9  18  33  52  74 103 138 174 212 256 305
#     4  10  20  36  56  77 104 135 168 208 254 302
#     4  10  18  28  48  75 101 126 160 201 242 290
#     4  10  18  30  53  80 102 130 173 216 253 297
#
# _framework density 27.618542000000001
#
# number of rings (size 3 to 8) (size 9 to 14) (size 15 to 20)
#    0.000    2.500    1.250    4.125    0.000    3.000 
#    0.000    1.250    0.000   21.750    0.000    8.750 
#    0.000    0.000    0.000    0.000    0.000    0.000 
#
# Total GULP energy -396426.193585 kJ/mol
# GULP energy per Si atom -12388.318550 kJ/mol
# Density = 2.755568 g / cm^3
# Si number density = 27.618542 Si / 1000 Ang^3
#
#
#
# Elastic Constant Matrix: (Units=GPa)
#
#
# Indices 1 2 3 4 5 6 
#
# 1 60.7103 29.9476 37.0649 0.0000 0.0000 0.0000
# 2 29.9476 188.2650 107.5639 0.0000 0.0000 0.0000
# 3 37.0649 107.5639 356.6348 0.0000 0.0000 0.0000
# 4 0.0000 0.0000 0.0000 40.0701 0.0000 0.0000
# 5 0.0000 0.0000 0.0000 0.0000 13.2308 0.0000
# 6 0.0000 0.0000 0.0000 0.0000 0.0000 8.6297
#
#
#
# Elastic Compliance Matrix: (Units=1/GPa)
#
#
# Indices 1 2 3 4 5 6 
#
# 1 0.018316 -0.002206 -0.001238 0.000000 0.000000 0.000000
# 2 -0.002206 0.006683 -0.001786 0.000000 0.000000 0.000000
# 3 -0.001238 -0.001786 0.003471 0.000000 0.000000 0.000000
# 4 0.000000 0.000000 0.000000 0.024956 0.000000 0.000000
# 5 0.000000 0.000000 0.000000 0.000000 0.075581 0.000000
# 6 0.000000 0.000000 0.000000 0.000000 0.000000 0.115878
#
#
# Mechanical properties :
#
#
# Convention : Reuss Voigt Hill
#
# Bulk Modulus (GPa) = 55.52742 106.08478 80.80610
# Shear Modulus (GPa) = 19.13136 41.12172 30.12654
#
# Velocity S-wave (km/s) = 2.63477 3.86284 3.30632
# Velocity P-wave (km/s) = 5.42262 7.64130 6.62549
#
# Compressibility (1/GPa) = 0.01800912
#
# Stress axis : x y z
#
# Youngs Moduli (GPa) = 54.59758 149.62753 288.06173
#
# Poissons Ratio (x) = 0.33009 0.35667
# Poissons Ratio (y) = 0.12045 0.51461
# Poissons Ratio (z) = 0.06760 0.26730
#
# Static dielectric constant tensor:
#      x y z
#    x 3.925050 0.000000 0.000000 
#    y 0.000000 5.046060 0.000000 
#    z 0.000000 0.000000 6.450980 
# 
# 
# High freq. dielectric constant tensor:
#      x y z
#    x 2.088610 0.000000 0.000000 
#    y 0.000000 2.126180 0.000000 
#    z 0.000000 0.000000 2.147330 
# 
# From -- ./inp_files/13384.got.cif
#   From: 2010.03.12/outbox.cif.g09.slc.cpg/sg65_7_cif.got.tgz:13384.got - 2010.04.10 20:52:16.
