data_PCOD8265311
_publ_section_title
;
Structure prediction by ZEFSAII (Michael W. Deem and Ramdas Pophale) SiO2 
 PCOD8265311
Probable space group: C M M M
;
_chemical_formula_sum "Si O2"
_cell_formula_units_Z 120
_cell_length_a 14.445475
_cell_length_b 19.862977
_cell_length_c 22.745475
_cell_angle_alpha 90.000000
_cell_angle_beta 90.000000
_cell_angle_gamma 90.000000
_cell_volume 6526.362273
_symmetry_space_group_name_H-M "C M M M"
_symmetry_group_IT_number 65
_symmetry_cell_setting 'orthorhombic'
loop_
_space_group_symop_operation_xyz
x,y,z
-x,-y,z
x,-y,-z
-x,y,-z
-x,-y,-z
x,y,-z
-x,y,z
x,-y,z
1/2+x,1/2+y,z
1/2-x,1/2-y,z
1/2+x,1/2-y,-z
1/2-x,1/2+y,-z
1/2-x,1/2-y,-z
1/2+x,1/2+y,-z
1/2-x,1/2+y,z
1/2+x,1/2-y,z
loop_
_atom_site_type_symbol
_atom_site_label
_atom_site_fract_x
_atom_site_fract_y
_atom_site_fract_z
Si Si1 0.603856 0.787465 0.874080
Si Si2 0.104612 0.869453 0.149964
Si Si3 0.734678 0.828836 0.355815
Si Si4 0.605569 0.076765 0.569472
Si Si5 0.399155 0.000000 0.930647
Si Si6 0.899065 0.694483 0.744002
Si Si7 0.397682 0.648153 0.719690
Si Si8 0.267165 0.117151 0.931732
O O1 0.500000 0.805371 0.897228
O O2 0.611871 0.708692 0.864987
O O3 0.623282 0.823069 0.811408
O O4 0.684896 0.810696 0.918417
O O5 0.131224 0.886283 0.218070
O O6 0.176397 0.903514 0.105339
O O7 0.000000 0.895229 0.137849
O O8 0.750000 0.750000 0.374523
O O9 0.681317 0.870361 0.405960
O O10 0.676898 0.839012 0.296525
O O11 0.831272 0.864611 0.336773
O O12 0.614543 0.081125 0.500000
O O13 0.500000 0.096401 0.588133
O O14 0.626999 0.000000 0.590301
O O15 0.345251 0.065762 0.910451
O O16 0.500000 0.000000 0.900375
O O17 0.409418 0.000000 0.000000
O O18 0.898171 0.773576 0.733806
O O19 0.000000 0.665702 0.727013
O O20 0.500000 0.623263 0.700964
O O21 0.240292 0.112038 0.000000
#
# Coordination Sequence:
#
# PCOD8265311 Si02
#       8
#    16  16  16  16   8  16  16  16
#     4   9  17  29  47  71  99 127 153 189 244 308
#     4   9  18  32  49  71  99 127 155 192 242 300
#     4  10  17  26  50  81 104 130 173 225 263 291
#     4   9  19  36  55  75 106 149 184 207 247 310
#     4   9  20  38  53  63  79 109 152 196 236 285
#     4   8  14  25  43  70 100 127 157 196 248 303
#     4   8  15  28  46  70  99 130 161 194 241 301
#     4  11  21  32  48  67  87 120 164 203 242 291
#
# _framework density 18.386966000000001
#
# number of rings (size 3 to 8) (size 9 to 14) (size 15 to 20)
#    0.000    2.867    0.000    4.000    0.000    5.067 
#    0.000    1.667    5.867    2.000    0.000    0.933 
#    0.000    0.000    0.000    0.000    0.000    0.000 
#
# Total GULP energy -743324.281284 kJ/mol
# GULP energy per Si atom -12388.738021 kJ/mol
# Density = 1.834512 g / cm^3
# Si number density = 18.386966 Si / 1000 Ang^3
#
#
#
# Elastic Constant Matrix: (Units=GPa)
#
#
# Indices 1 2 3 4 5 6 
#
# 1 127.2467 36.0121 52.1120 0.0000 0.0000 0.0000
# 2 36.0121 44.2471 25.7212 0.0000 0.0000 0.0000
# 3 52.1120 25.7212 65.8066 0.0000 0.0000 0.0000
# 4 0.0000 0.0000 0.0000 8.9479 0.0000 0.0000
# 5 0.0000 0.0000 0.0000 0.0000 35.7999 0.0000
# 6 0.0000 0.0000 0.0000 0.0000 0.0000 35.8502
#
#
#
# Elastic Compliance Matrix: (Units=1/GPa)
#
#
# Indices 1 2 3 4 5 6 
#
# 1 0.012687 -0.005804 -0.007778 0.000000 0.000000 0.000000
# 2 -0.005804 0.031901 -0.007872 0.000000 0.000000 0.000000
# 3 -0.007778 -0.007872 0.024432 0.000000 0.000000 0.000000
# 4 0.000000 0.000000 0.000000 0.111758 0.000000 0.000000
# 5 0.000000 0.000000 0.000000 0.000000 0.027933 0.000000
# 6 0.000000 0.000000 0.000000 0.000000 0.000000 0.027894
#
#
# Mechanical properties :
#
#
# Convention : Reuss Voigt Hill
#
# Bulk Modulus (GPa) = 38.29851 51.66568 44.98209
# Shear Modulus (GPa) = 17.34805 24.34993 20.84899
#
# Velocity S-wave (km/s) = 3.07497 3.64305 3.37100
# Velocity P-wave (km/s) = 5.78633 6.77169 6.29831
#
# Compressibility (1/GPa) = 0.02611068
#
# Stress axis : x y z
#
# Youngs Moduli (GPa) = 78.82241 31.34740 40.92928
#
# Poissons Ratio (x) = 0.18195 0.31835
# Poissons Ratio (y) = 0.45750 0.32221
# Poissons Ratio (z) = 0.61308 0.24678
#
# Static dielectric constant tensor:
#      x y z
#    x 4.029740 0.000000 0.000000 
#    y 0.000000 3.037530 0.000000 
#    z 0.000000 0.000000 3.269080 
# 
# 
# High freq. dielectric constant tensor:
#      x y z
#    x 1.730470 0.000000 0.000000 
#    y 0.000000 1.669550 0.000000 
#    z 0.000000 0.000000 1.687880 
# 
# From -- ./inp_files/63019.got.cif
#   From: 2010.03.12/outbox.cif.g09.slc.cpg/sg65_32_cif.got.tgz:63019.got - 2010.04.10 20:52:16.
