data_PCOD8265494
_publ_section_title
;
Structure prediction by ZEFSAII (Michael W. Deem and Ramdas Pophale) SiO2 
 PCOD8265494
Probable space group: C M M M
;
_chemical_formula_sum "Si O2"
_cell_formula_units_Z 104
_cell_length_a 18.369138
_cell_length_b 15.872815
_cell_length_c 19.191027
_cell_angle_alpha 90.000000
_cell_angle_beta 90.000000
_cell_angle_gamma 90.000000
_cell_volume 5595.526383
_symmetry_space_group_name_H-M "C M M M"
_symmetry_group_IT_number 65
_symmetry_cell_setting 'orthorhombic'
loop_
_space_group_symop_operation_xyz
x,y,z
-x,-y,z
x,-y,-z
-x,y,-z
-x,-y,-z
x,y,-z
-x,y,z
x,-y,z
1/2+x,1/2+y,z
1/2-x,1/2-y,z
1/2+x,1/2-y,-z
1/2-x,1/2+y,-z
1/2-x,1/2-y,-z
1/2+x,1/2+y,-z
1/2-x,1/2+y,z
1/2+x,1/2-y,z
loop_
_atom_site_type_symbol
_atom_site_label
_atom_site_fract_x
_atom_site_fract_y
_atom_site_fract_z
Si Si1 0.836729 0.246720 0.703003
Si Si2 0.084154 0.355638 0.077936
Si Si3 0.586031 0.817368 0.580992
Si Si4 0.820669 0.800672 0.922208
Si Si5 0.414729 0.000000 0.580291
Si Si6 0.325727 0.407170 0.206333
Si Si7 0.154925 0.409332 0.785175
O O1 0.750000 0.250000 0.698199
O O2 0.871211 0.247372 0.625699
O O3 0.861811 0.160957 0.741362
O O4 0.872299 0.326483 0.744252
O O5 0.109156 0.258781 0.078289
O O6 0.130256 0.407495 0.134153
O O7 0.000000 0.359678 0.099029
O O8 0.096729 0.393412 0.000000
O O9 0.605723 0.804366 0.500000
O O10 0.500000 0.807950 0.592108
O O11 0.614496 0.910053 0.609265
O O12 0.750000 0.750000 0.892415
O O13 0.838557 0.879537 0.873406
O O14 0.802921 0.833750 0.000000
O O15 0.500000 0.000000 0.590471
O O16 0.394456 0.000000 0.500000
O O17 0.360741 0.500000 0.217811
O O18 0.240871 0.411041 0.220429
O O19 0.125944 0.500000 0.754310
#
# Coordination Sequence:
#
# PCOD8265494 Si02
#       7
#    16  16  16  16   8  16  16
#     4  10  20  35  52  77 109 139 173 217 260 303
#     4  10  20  33  50  73 106 142 172 213 266 312
#     4   9  18  33  55  81 109 140 171 207 257 319
#     4  10  17  31  54  76 100 133 178 223 261 309
#     4   7  12  26  48  78 112 138 162 194 238 305
#     4  10  19  34  54  75 101 134 176 225 268 301
#     4  10  20  33  51  75 105 140 174 206 254 318
#
# _framework density 18.586276999999999
#
# number of rings (size 3 to 8) (size 9 to 14) (size 15 to 20)
#    0.000    2.385    3.077    1.385    1.077    1.846 
#    0.000    2.308    0.000    2.308    0.000    3.231 
#    0.000    0.000    0.000    0.000    0.000    0.000 
#
# Total GULP energy -644283.857920 kJ/mol
# GULP energy per Si atom -12390.074191 kJ/mol
# Density = 1.854397 g / cm^3
# Si number density = 18.586277 Si / 1000 Ang^3
#
#
#
# Elastic Constant Matrix: (Units=GPa)
#
#
# Indices 1 2 3 4 5 6 
#
# 1 25.5277 23.3501 23.1887 0.0000 0.0000 0.0000
# 2 23.3501 145.4833 68.4994 0.0000 0.0000 0.0000
# 3 23.1887 68.4994 98.5857 0.0000 0.0000 0.0000
# 4 0.0000 0.0000 0.0000 21.9938 0.0000 0.0000
# 5 0.0000 0.0000 0.0000 0.0000 26.5298 0.0000
# 6 0.0000 0.0000 0.0000 0.0000 0.0000 10.9742
#
#
#
# Elastic Compliance Matrix: (Units=1/GPa)
#
#
# Indices 1 2 3 4 5 6 
#
# 1 0.051182 -0.003784 -0.009409 0.000000 0.000000 0.000000
# 2 -0.003784 0.010496 -0.006402 0.000000 0.000000 0.000000
# 3 -0.009409 -0.006402 0.016805 0.000000 0.000000 0.000000
# 4 0.000000 0.000000 0.000000 0.045467 0.000000 0.000000
# 5 0.000000 0.000000 0.000000 0.000000 0.037693 0.000000
# 6 0.000000 0.000000 0.000000 0.000000 0.000000 0.091123
#
#
# Mechanical properties :
#
#
# Convention : Reuss Voigt Hill
#
# Bulk Modulus (GPa) = 25.45146 55.51926 40.48536
# Shear Modulus (GPa) = 16.39049 22.20346 19.29698
#
# Velocity S-wave (km/s) = 2.97283 3.46007 3.22567
# Velocity P-wave (km/s) = 5.05045 6.77486 5.97519
#
# Compressibility (1/GPa) = 0.03929047
#
# Stress axis : x y z
#
# Youngs Moduli (GPa) = 19.53822 95.27853 59.50574
#
# Poissons Ratio (x) = 0.36058 0.55990
# Poissons Ratio (y) = 0.07394 0.38098
# Poissons Ratio (z) = 0.18384 0.61001
#
# Static dielectric constant tensor:
#      x y z
#    x 3.025570 0.000000 0.000000 
#    y 0.000000 3.876280 0.000000 
#    z 0.000000 0.000000 3.421520 
# 
# 
# High freq. dielectric constant tensor:
#      x y z
#    x 1.680000 0.000000 0.000000 
#    y 0.000000 1.712060 0.000000 
#    z 0.000000 0.000000 1.722200 
# 
# From -- ./inp_files/63825.got.cif
#   From: 2010.03.12/outbox.cif.g09.slc.cpg/sg65_32_cif.got.tgz:63825.got - 2010.04.10 20:52:16.
