data_PCOD8265061
_publ_section_title
;
Structure prediction by ZEFSAII (Michael W. Deem and Ramdas Pophale) SiO2 
 PCOD8265061
Probable space group: C M M M
;
_chemical_formula_sum "Si O2"
_cell_formula_units_Z 112
_cell_length_a 17.799754
_cell_length_b 23.024452
_cell_length_c 17.604956
_cell_angle_alpha 90.000000
_cell_angle_beta 90.000000
_cell_angle_gamma 90.000000
_cell_volume 7215.031751
_symmetry_space_group_name_H-M "C M M M"
_symmetry_group_IT_number 65
_symmetry_cell_setting 'orthorhombic'
loop_
_space_group_symop_operation_xyz
x,y,z
-x,-y,z
x,-y,-z
-x,y,-z
-x,-y,-z
x,y,-z
-x,y,z
x,-y,z
1/2+x,1/2+y,z
1/2-x,1/2-y,z
1/2+x,1/2-y,-z
1/2-x,1/2+y,-z
1/2-x,1/2-y,-z
1/2+x,1/2+y,-z
1/2-x,1/2+y,z
1/2+x,1/2-y,z
loop_
_atom_site_type_symbol
_atom_site_label
_atom_site_fract_x
_atom_site_fract_y
_atom_site_fract_z
Si Si1 0.882916 0.346097 0.085097
Si Si2 0.914904 0.753686 0.314224
Si Si3 0.580593 0.718769 0.142165
Si Si4 0.703959 0.690652 0.585244
Si Si5 0.084511 0.565972 0.217594
Si Si6 0.307797 0.855763 0.702156
Si Si7 0.764603 0.817160 0.147632
O O1 0.914591 0.284459 0.112154
O O2 0.911272 0.395797 0.141244
O O3 0.791929 0.343214 0.085229
O O4 0.910637 0.360069 0.000000
O O5 0.916589 0.783592 0.232748
O O6 0.875099 0.798037 0.372782
O O7 0.869145 0.694505 0.306091
O O8 0.000000 0.740983 0.342739
O O9 0.500000 0.693512 0.114042
O O10 0.649803 0.677600 0.115462
O O11 0.688105 0.668544 0.500000
O O12 0.750000 0.750000 0.585160
O O13 0.754918 0.641673 0.627616
O O14 0.104065 0.500000 0.195563
O O15 0.143523 0.586246 0.282442
O O16 0.000000 0.570941 0.250365
O O17 0.250349 0.847665 0.772020
O O18 0.750000 0.750000 0.163766
#
# Coordination Sequence:
#
# PCOD8265061 Si02
#       7
#    16  16  16  16  16  16  16
#     4  10  20  30  42  60  85 116 150 185 224 265
#     4  10  16  24  41  63  90 121 146 171 202 250
#     4  10  17  25  40  62  87 119 151 177 208 254
#     4   9  17  27  42  65  90 117 144 171 206 250
#     4  10  20  32  47  65  83 110 150 191 227 258
#     4  10  15  28  45  60  84 118 152 180 207 252
#     4   9  14  26  41  57  80 114 149 178 209 254
#
# _framework density 15.523147
#
# number of rings (size 3 to 8) (size 9 to 14) (size 15 to 20)
#    0.000    2.286    5.714    1.286    0.000    4.286 
#    0.000    0.714    0.000    1.714    0.000    1.000 
#    0.000   14.286    0.000    6.429    0.000    0.000 
#
# Total GULP energy -693786.049005 kJ/mol
# GULP energy per Si atom -12389.036589 kJ/mol
# Density = 1.548782 g / cm^3
# Si number density = 15.523147 Si / 1000 Ang^3
#
#
#
# Elastic Constant Matrix: (Units=GPa)
#
#
# Indices 1 2 3 4 5 6 
#
# 1 123.3523 24.8555 16.5100 0.0000 0.0000 0.0000
# 2 24.8555 43.4216 13.8821 0.0000 0.0000 0.0000
# 3 16.5100 13.8821 76.1272 0.0000 0.0000 0.0000
# 4 0.0000 0.0000 0.0000 4.9726 0.0000 0.0000
# 5 0.0000 0.0000 0.0000 0.0000 5.4364 0.0000
# 6 0.0000 0.0000 0.0000 0.0000 0.0000 18.5219
#
#
#
# Elastic Compliance Matrix: (Units=1/GPa)
#
#
# Indices 1 2 3 4 5 6 
#
# 1 0.009251 -0.004942 -0.001105 0.000000 0.000000 0.000000
# 2 -0.004942 0.027096 -0.003869 0.000000 0.000000 0.000000
# 3 -0.001105 -0.003869 0.014081 0.000000 0.000000 0.000000
# 4 0.000000 0.000000 0.000000 0.201103 0.000000 0.000000
# 5 0.000000 0.000000 0.000000 0.000000 0.183945 0.000000
# 6 0.000000 0.000000 0.000000 0.000000 0.000000 0.053990
#
#
# Mechanical properties :
#
#
# Convention : Reuss Voigt Hill
#
# Bulk Modulus (GPa) = 32.68496 39.26627 35.97561
# Shear Modulus (GPa) = 9.62470 18.29641 13.96055
#
# Velocity S-wave (km/s) = 2.49273 3.43688 3.00215
# Velocity P-wave (km/s) = 5.42091 6.41091 5.93658
#
# Compressibility (1/GPa) = 0.03059511
#
# Stress axis : x y z
#
# Youngs Moduli (GPa) = 108.10146 36.90592 71.01702
#
# Poissons Ratio (x) = 0.18239 0.07847
# Poissons Ratio (y) = 0.53423 0.27479
# Poissons Ratio (z) = 0.11945 0.14280
#
# Static dielectric constant tensor:
#      x y z
#    x 3.636020 0.000000 0.000000 
#    y 0.000000 2.524140 0.000000 
#    z 0.000000 0.000000 2.991970 
# 
# 
# High freq. dielectric constant tensor:
#      x y z
#    x 1.614700 0.000000 0.000000 
#    y 0.000000 1.526700 0.000000 
#    z 0.000000 0.000000 1.583240 
# 
# From -- ./inp_files/55057.got.cif
#   From: 2010.03.12/outbox.cif.g09.slc.cpg/sg65_28_cif.got.tgz:55057.got - 2010.04.10 20:52:16.
