data_PCOD8265230
_publ_section_title
;
Structure prediction by ZEFSAII (Michael W. Deem and Ramdas Pophale) SiO2 
 PCOD8265230
Probable space group: C M M M
;
_chemical_formula_sum "Si O2"
_cell_formula_units_Z 120
_cell_length_a 21.476156
_cell_length_b 28.484743
_cell_length_c 13.639275
_cell_angle_alpha 90.000000
_cell_angle_beta 90.000000
_cell_angle_gamma 90.000000
_cell_volume 8343.728064
_symmetry_space_group_name_H-M "C M M M"
_symmetry_group_IT_number 65
_symmetry_cell_setting 'orthorhombic'
loop_
_space_group_symop_operation_xyz
x,y,z
-x,-y,z
x,-y,-z
-x,y,-z
-x,-y,-z
x,y,-z
-x,y,z
x,-y,z
1/2+x,1/2+y,z
1/2-x,1/2-y,z
1/2+x,1/2-y,-z
1/2-x,1/2+y,-z
1/2-x,1/2-y,-z
1/2+x,1/2+y,-z
1/2-x,1/2+y,z
1/2+x,1/2-y,z
loop_
_atom_site_type_symbol
_atom_site_label
_atom_site_fract_x
_atom_site_fract_y
_atom_site_fract_z
Si Si1 0.748388 0.555269 0.802783
Si Si2 0.372973 0.600545 0.116685
Si Si3 0.811076 0.444536 0.392833
Si Si4 0.318392 0.200274 0.116074
Si Si5 0.365834 0.896763 0.887113
Si Si6 0.179001 0.802516 0.116224
Si Si7 0.500000 0.446720 0.116347
Si Si8 0.430871 0.055060 0.281860
O O1 0.757885 0.500000 0.814847
O O2 0.679017 0.568810 0.832153
O O3 0.761203 0.570914 0.689630
O O4 0.797825 0.580208 0.873813
O O5 0.365022 0.654739 0.152284
O O6 0.439404 0.581412 0.153847
O O7 0.366150 0.595507 0.000000
O O8 0.795103 0.422478 0.500000
O O9 0.811582 0.500000 0.402409
O O10 0.880148 0.427197 0.360624
O O11 0.363119 0.157813 0.147868
O O12 0.248907 0.190866 0.158193
O O13 0.345236 0.251005 0.152196
O O14 0.312064 0.201058 0.000000
O O15 0.418731 0.921351 0.823274
O O16 0.385519 0.901087 0.000000
O O17 0.180070 0.803863 0.000000
O O18 0.500000 0.500000 0.158113
O O19 0.500000 0.448438 0.000000
O O20 0.500000 0.068278 0.319140
O O21 0.423789 0.000000 0.264646
#
# Coordination Sequence:
#
# PCOD8265230 Si02
#       8
#    16  16  16  16  16  16   8  16
#     4  10  18  25  37  59  81 101 130 161 195 240
#     4  10  17  26  39  56  81 111 138 165 196 229
#     4   8  15  28  43  58  76  97 125 164 204 237
#     4   8  13  22  36  54  73  96 131 167 198 228
#     4  10  17  25  37  54  78 107 135 165 195 227
#     4   8  13  22  37  54  72  97 131 167 197 229
#     4   9  18  28  36  50  77 115 149 167 185 223
#     4   9  18  29  39  54  77 106 138 164 189 231
#
# _framework density 14.382061
#
# number of rings (size 3 to 8) (size 9 to 14) (size 15 to 20)
#    0.000    3.000    1.333    2.800    0.000    2.933 
#    0.000    2.000    1.467    0.000    0.000    0.467 
#    0.000   11.200    0.000    0.000    0.267    0.000 
#
# Total GULP energy -743406.140253 kJ/mol
# GULP energy per Si atom -12390.102338 kJ/mol
# Density = 1.434933 g / cm^3
# Si number density = 14.382061 Si / 1000 Ang^3
#
#
#
# Elastic Constant Matrix: (Units=GPa)
#
#
# Indices 1 2 3 4 5 6 
#
# 1 75.5803 29.3986 15.6948 0.0000 0.0000 0.0000
# 2 29.3986 79.2091 12.4945 0.0000 0.0000 0.0000
# 3 15.6948 12.4945 49.6335 0.0000 0.0000 0.0000
# 4 0.0000 0.0000 0.0000 2.6504 0.0000 0.0000
# 5 0.0000 0.0000 0.0000 0.0000 9.6851 0.0000
# 6 0.0000 0.0000 0.0000 0.0000 0.0000 20.2066
#
#
#
# Elastic Compliance Matrix: (Units=1/GPa)
#
#
# Indices 1 2 3 4 5 6 
#
# 1 0.016102 -0.005387 -0.003736 0.000000 0.000000 0.000000
# 2 -0.005387 0.014949 -0.002060 0.000000 0.000000 0.000000
# 3 -0.003736 -0.002060 0.021847 0.000000 0.000000 0.000000
# 4 0.000000 0.000000 0.000000 0.377304 0.000000 0.000000
# 5 0.000000 0.000000 0.000000 0.000000 0.103251 0.000000
# 6 0.000000 0.000000 0.000000 0.000000 0.000000 0.049489
#
#
# Mechanical properties :
#
#
# Convention : Reuss Voigt Hill
#
# Bulk Modulus (GPa) = 32.75055 35.51096 34.13076
# Shear Modulus (GPa) = 8.12367 16.29742 12.21055
#
# Velocity S-wave (km/s) = 2.37923 3.36992 2.91694
# Velocity P-wave (km/s) = 5.51080 6.31558 5.92687
#
# Compressibility (1/GPa) = 0.03053384
#
# Stress axis : x y z
#
# Youngs Moduli (GPa) = 62.10377 66.89348 45.77201
#
# Poissons Ratio (x) = 0.36036 0.17098
# Poissons Ratio (y) = 0.33456 0.09428
# Poissons Ratio (z) = 0.23199 0.13778
#
# Static dielectric constant tensor:
#      x y z
#    x 2.751010 0.000000 0.000000 
#    y 0.000000 3.110740 0.000000 
#    z 0.000000 0.000000 2.614200 
# 
# 
# High freq. dielectric constant tensor:
#      x y z
#    x 1.532910 0.000000 0.000000 
#    y 0.000000 1.548990 0.000000 
#    z 0.000000 0.000000 1.500020 
# 
# From -- ./inp_files/44827.got.cif
#   From: 2010.03.12/outbox.cif.g09.slc.cpg/sg65_23_cif.got.tgz:44827.got - 2010.04.10 20:52:16.
