data_PCOD8265337
_publ_section_title
;
Structure prediction by ZEFSAII (Michael W. Deem and Ramdas Pophale) SiO2 
 PCOD8265337
Probable space group: C M M M
;
_chemical_formula_sum "Si O2"
_cell_formula_units_Z 80
_cell_length_a 7.922234
_cell_length_b 28.770123
_cell_length_c 22.611543
_cell_angle_alpha 90.000000
_cell_angle_beta 90.000000
_cell_angle_gamma 90.000000
_cell_volume 5153.705336
_symmetry_space_group_name_H-M "C M M M"
_symmetry_group_IT_number 65
_symmetry_cell_setting 'orthorhombic'
loop_
_space_group_symop_operation_xyz
x,y,z
-x,-y,z
x,-y,-z
-x,y,-z
-x,-y,-z
x,y,-z
-x,y,z
x,-y,z
1/2+x,1/2+y,z
1/2-x,1/2-y,z
1/2+x,1/2-y,-z
1/2-x,1/2+y,-z
1/2-x,1/2-y,-z
1/2+x,1/2+y,-z
1/2-x,1/2+y,z
1/2+x,1/2-y,z
loop_
_atom_site_type_symbol
_atom_site_label
_atom_site_fract_x
_atom_site_fract_y
_atom_site_fract_z
Si Si1 0.500000 0.555444 0.433125
Si Si2 0.201592 0.447223 0.000000
Si Si3 0.189069 0.555371 0.356108
Si Si4 0.799974 0.551687 0.225119
Si Si5 0.196274 0.605731 0.886101
Si Si6 0.197979 0.199877 0.933427
O O1 0.500000 0.500000 0.431231
O O2 0.500000 0.574159 0.500000
O O3 0.329686 0.574559 0.401647
O O4 0.276070 0.420935 0.942473
O O5 0.267524 0.500000 0.000000
O O6 0.000000 0.445548 0.000000
O O7 0.182942 0.500000 0.357429
O O8 0.246100 0.571237 0.290245
O O9 0.000000 0.574289 0.372140
O O10 0.723607 0.500000 0.215594
O O11 0.723715 0.585814 0.174773
O O12 0.000000 0.548645 0.220362
O O13 0.226673 0.660750 0.890605
O O14 0.000000 0.595001 0.884980
O O15 0.250000 0.250000 0.907526
O O16 0.000000 0.194649 0.934632
O O17 0.272895 0.194248 0.000000
#
# Coordination Sequence:
#
# PCOD8265337 Si02
#       6
#     8   8  16  16  16  16
#     4   9  16  24  36  56  78 101 137 181 217 248
#     4   9  16  24  38  61  84 105 132 169 210 249
#     4   8  14  25  38  52  75 107 141 176 210 244
#     4   8  14  25  41  59  80 109 142 173 202 242
#     4  10  17  27  44  63  81 102 134 172 210 252
#     4  10  20  33  47  60  77  99 128 169 216 262
#
# _framework density 15.522812999999999
#
# number of rings (size 3 to 8) (size 9 to 14) (size 15 to 20)
#    0.000    3.000    1.000    2.400    0.000    3.600 
#    1.800    2.000    0.000    2.400    0.000    0.000 
#    0.000    0.000    0.000    0.000    0.000    1.000 
#
# Total GULP energy -495740.908023 kJ/mol
# GULP energy per Si atom -12393.522701 kJ/mol
# Density = 1.548748 g / cm^3
# Si number density = 15.522813 Si / 1000 Ang^3
#
#
#
# Elastic Constant Matrix: (Units=GPa)
#
#
# Indices 1 2 3 4 5 6 
#
# 1 48.1967 8.9730 44.2982 0.0000 0.0000 0.0000
# 2 8.9730 73.9042 44.8193 0.0000 0.0000 0.0000
# 3 44.2982 44.8193 133.3985 0.0000 0.0000 0.0000
# 4 0.0000 0.0000 0.0000 6.8250 0.0000 0.0000
# 5 0.0000 0.0000 0.0000 0.0000 15.3700 0.0000
# 6 0.0000 0.0000 0.0000 0.0000 0.0000 12.1288
#
#
#
# Elastic Compliance Matrix: (Units=1/GPa)
#
#
# Indices 1 2 3 4 5 6 
#
# 1 0.030402 0.003053 -0.011122 0.000000 0.000000 0.000000
# 2 0.003053 0.017300 -0.006827 0.000000 0.000000 0.000000
# 3 -0.011122 -0.006827 0.013483 0.000000 0.000000 0.000000
# 4 0.000000 0.000000 0.000000 0.146519 0.000000 0.000000
# 5 0.000000 0.000000 0.000000 0.000000 0.065062 0.000000
# 6 0.000000 0.000000 0.000000 0.000000 0.000000 0.082449
#
#
# Mechanical properties :
#
#
# Convention : Reuss Voigt Hill
#
# Bulk Modulus (GPa) = 31.85125 50.18673 41.01899
# Shear Modulus (GPa) = 12.64319 17.35868 15.00094
#
# Velocity S-wave (km/s) = 2.85703 3.34768 3.11204
# Velocity P-wave (km/s) = 5.60776 6.88068 6.27657
#
# Compressibility (1/GPa) = 0.03139594
#
# Stress axis : x y z
#
# Youngs Moduli (GPa) = 32.89273 57.80265 74.16682
#
# Poissons Ratio (x) = -0.17650 0.82485
# Poissons Ratio (y) = -0.10044 0.50630
# Poissons Ratio (z) = 0.36582 0.39459
#
# Static dielectric constant tensor:
#      x y z
#    x 2.879100 0.000000 0.000000 
#    y 0.000000 2.192980 0.000000 
#    z 0.000000 0.000000 3.174940 
# 
# 
# High freq. dielectric constant tensor:
#      x y z
#    x 1.588000 0.000000 0.000000 
#    y 0.000000 1.544290 0.000000 
#    z 0.000000 0.000000 1.580610 
# 
# From -- ./inp_files/60558.got.cif
#   From: 2010.03.12/outbox.cif.g09.slc.cpg/sg65_31_cif.got.tgz:60558.got - 2010.04.10 20:52:16.
