data_PCOD8265473
_publ_section_title
;
Structure prediction by ZEFSAII (Michael W. Deem and Ramdas Pophale) SiO2 
 PCOD8265473
Probable space group: C M M M
;
_chemical_formula_sum "Si O2"
_cell_formula_units_Z 64
_cell_length_a 14.524075
_cell_length_b 14.383433
_cell_length_c 17.145911
_cell_angle_alpha 90.000000
_cell_angle_beta 90.000000
_cell_angle_gamma 90.000000
_cell_volume 3581.884706
_symmetry_space_group_name_H-M "C M M M"
_symmetry_group_IT_number 65
_symmetry_cell_setting 'orthorhombic'
loop_
_space_group_symop_operation_xyz
x,y,z
-x,-y,z
x,-y,-z
-x,y,-z
-x,-y,-z
x,y,-z
-x,y,z
x,-y,z
1/2+x,1/2+y,z
1/2-x,1/2-y,z
1/2+x,1/2-y,-z
1/2-x,1/2+y,-z
1/2-x,1/2-y,-z
1/2+x,1/2+y,-z
1/2-x,1/2+y,z
1/2+x,1/2-y,z
loop_
_atom_site_type_symbol
_atom_site_label
_atom_site_fract_x
_atom_site_fract_y
_atom_site_fract_z
Si Si1 0.000000 0.892795 0.845131
Si Si2 0.352459 0.248655 0.351234
Si Si3 0.500000 0.107587 0.592217
Si Si4 0.189308 0.108512 0.910570
Si Si5 0.750000 0.750000 0.798340
Si Si6 0.000000 0.892649 0.339792
O O1 0.089770 0.849719 0.886414
O O2 0.000000 0.880329 0.752686
O O3 0.000000 0.000000 0.868132
O O4 0.250000 0.250000 0.391058
O O5 0.407828 0.156351 0.375174
O O6 0.340406 0.250072 0.257127
O O7 0.409734 0.341219 0.375007
O O8 0.500000 0.117229 0.500000
O O9 0.500000 0.000000 0.618611
O O10 0.260701 0.159799 0.853621
O O11 0.197442 0.000000 0.893141
O O12 0.210906 0.132104 0.000000
O O13 0.000000 0.000000 0.366165
#
# Coordination Sequence:
#
# PCOD8265473 Si02
#       6
#     8  16   8  16   8   8
#     4   9  14  25  43  62  89 121 161 209 253 295
#     4   9  20  35  55  83 108 139 176 218 269 318
#     4  10  22  40  60  82 110 142 176 216 263 322
#     4  10  19  29  44  69 101 136 174 218 265 311
#     4  10  19  32  49  72 100 140 174 220 267 312
#     4  10  17  30  53  78 106 137 171 219 267 312
#
# _framework density 17.86769
#
# number of rings (size 3 to 8) (size 9 to 14) (size 15 to 20)
#    0.750    1.625    2.500    0.750    0.000    4.000 
#    0.000    0.000    0.000    6.000    0.000    0.000 
#    0.000   10.500    0.000    0.000    0.000    0.000 
#
# Total GULP energy -396497.743598 kJ/mol
# GULP energy per Si atom -12390.554487 kJ/mol
# Density = 1.782702 g / cm^3
# Si number density = 17.867690 Si / 1000 Ang^3
#
#
#
# Elastic Constant Matrix: (Units=GPa)
#
#
# Indices 1 2 3 4 5 6 
#
# 1 112.2940 60.0628 14.5278 0.0000 0.0000 0.0000
# 2 60.0628 126.9374 37.3768 0.0000 0.0000 0.0000
# 3 14.5278 37.3768 52.2005 0.0000 0.0000 0.0000
# 4 0.0000 0.0000 0.0000 25.0008 0.0000 0.0000
# 5 0.0000 0.0000 0.0000 0.0000 6.8222 0.0000
# 6 0.0000 0.0000 0.0000 0.0000 0.0000 19.7705
#
#
#
# Elastic Compliance Matrix: (Units=1/GPa)
#
#
# Indices 1 2 3 4 5 6 
#
# 1 0.011957 -0.005928 0.000917 0.000000 0.000000 0.000000
# 2 -0.005928 0.012921 -0.007602 0.000000 0.000000 0.000000
# 3 0.000917 -0.007602 0.024345 0.000000 0.000000 0.000000
# 4 0.000000 0.000000 0.000000 0.039999 0.000000 0.000000
# 5 0.000000 0.000000 0.000000 0.000000 0.146581 0.000000
# 6 0.000000 0.000000 0.000000 0.000000 0.000000 0.050580
#
#
# Mechanical properties :
#
#
# Convention : Reuss Voigt Hill
#
# Bulk Modulus (GPa) = 41.67191 57.26298 49.46744
# Shear Modulus (GPa) = 15.64415 22.28301 18.96358
#
# Velocity S-wave (km/s) = 2.96219 3.53528 3.26135
# Velocity P-wave (km/s) = 5.92221 6.98442 6.47513
#
# Compressibility (1/GPa) = 0.02399698
#
# Stress axis : x y z
#
# Youngs Moduli (GPa) = 83.63210 77.39268 41.07599
#
# Poissons Ratio (x) = 0.45875 -0.03765
# Poissons Ratio (y) = 0.49574 0.31226
# Poissons Ratio (z) = -0.07665 0.58835
#
# Static dielectric constant tensor:
#      x y z
#    x 3.313580 0.000000 0.000000 
#    y 0.000000 3.247000 0.000000 
#    z 0.000000 0.000000 3.135090 
# 
# 
# High freq. dielectric constant tensor:
#      x y z
#    x 1.681530 0.000000 0.000000 
#    y 0.000000 1.680740 0.000000 
#    z 0.000000 0.000000 1.682680 
# 
# From -- ./inp_files/52687.got.cif
#   From: 2010.03.12/outbox.cif.g09.slc.cpg/sg65_27_cif.got.tgz:52687.got - 2010.04.10 20:52:16.
