data_PCOD8265904
_publ_section_title
;
Structure prediction by ZEFSAII (Michael W. Deem and Ramdas Pophale) SiO2 
 PCOD8265904
Probable space group: C M M M
;
_chemical_formula_sum "Si O2"
_cell_formula_units_Z 80
_cell_length_a 25.504795
_cell_length_b 19.732433
_cell_length_c 9.028659
_cell_angle_alpha 90.000000
_cell_angle_beta 90.000000
_cell_angle_gamma 90.000000
_cell_volume 4543.868189
_symmetry_space_group_name_H-M "C M M M"
_symmetry_group_IT_number 65
_symmetry_cell_setting 'orthorhombic'
loop_
_space_group_symop_operation_xyz
x,y,z
-x,-y,z
x,-y,-z
-x,y,-z
-x,-y,-z
x,y,-z
-x,y,z
x,-y,z
1/2+x,1/2+y,z
1/2-x,1/2-y,z
1/2+x,1/2-y,-z
1/2-x,1/2+y,-z
1/2-x,1/2-y,-z
1/2+x,1/2+y,-z
1/2-x,1/2+y,z
1/2+x,1/2-y,z
loop_
_atom_site_type_symbol
_atom_site_label
_atom_site_fract_x
_atom_site_fract_y
_atom_site_fract_z
Si Si1 0.254212 0.330160 0.162770
Si Si2 0.441620 0.424589 0.324034
Si Si3 0.360393 0.175539 0.825313
Si Si4 0.939580 0.578384 0.669894
Si Si5 0.356557 0.680939 0.324590
O O1 0.250000 0.250000 0.151211
O O2 0.196875 0.355949 0.216724
O O3 0.300000 0.349501 0.277115
O O4 0.267778 0.360038 0.000000
O O5 0.439888 0.424352 0.500000
O O6 0.500000 0.404387 0.269485
O O7 0.427317 0.500000 0.266014
O O8 0.400195 0.370599 0.261913
O O9 0.404446 0.122834 0.777938
O O10 0.369523 0.246503 0.744033
O O11 0.363519 0.188829 0.000000
O O12 0.925031 0.594279 0.500000
O O13 0.929205 0.500000 0.706055
O O14 0.000000 0.596746 0.699823
O O15 0.357611 0.687696 0.500000
#
# Coordination Sequence:
#
# PCOD8265904 Si02
#       5
#    16  16  16  16  16
#     4   8  16  31  47  65  95 131 161 194 239 286
#     4   8  15  29  47  67  94 126 157 192 237 286
#     4  10  20  33  50  72  99 131 164 196 235 290
#     4   9  19  36  55  74  98 127 159 200 248 290
#     4  10  18  28  49  77  98 122 162 207 247 286
#
# _framework density 17.606144
#
# number of rings (size 3 to 8) (size 9 to 14) (size 15 to 20)
#    0.000    3.000    0.000    3.600    0.000    6.000 
#    0.000    4.000    0.000    7.800    0.000    5.600 
#    0.000    0.000    0.000    0.000    0.000    0.000 
#
# Total GULP energy -495780.207434 kJ/mol
# GULP energy per Si atom -12394.505186 kJ/mol
# Density = 1.756607 g / cm^3
# Si number density = 17.606144 Si / 1000 Ang^3
#
#
#
# Elastic Constant Matrix: (Units=GPa)
#
#
# Indices 1 2 3 4 5 6 
#
# 1 142.4301 73.9462 52.7560 0.0000 0.0000 0.0000
# 2 73.9462 77.1403 39.1656 0.0000 0.0000 0.0000
# 3 52.7560 39.1656 66.2173 0.0000 0.0000 0.0000
# 4 0.0000 0.0000 0.0000 2.1687 0.0000 0.0000
# 5 0.0000 0.0000 0.0000 0.0000 23.1855 0.0000
# 6 0.0000 0.0000 0.0000 0.0000 0.0000 6.1189
#
#
#
# Elastic Compliance Matrix: (Units=1/GPa)
#
#
# Indices 1 2 3 4 5 6 
#
# 1 0.015026 -0.011899 -0.004933 0.000000 0.000000 0.000000
# 2 -0.011899 0.027950 -0.007051 0.000000 0.000000 0.000000
# 3 -0.004933 -0.007051 0.023203 0.000000 0.000000 0.000000
# 4 0.000000 0.000000 0.000000 0.461099 0.000000 0.000000
# 5 0.000000 0.000000 0.000000 0.000000 0.043130 0.000000
# 6 0.000000 0.000000 0.000000 0.000000 0.000000 0.163428
#
#
# Mechanical properties :
#
#
# Convention : Reuss Voigt Hill
#
# Bulk Modulus (GPa) = 54.31511 68.61370 61.46441
# Shear Modulus (GPa) = 6.34726 14.28929 10.31827
#
# Velocity S-wave (km/s) = 1.90078 2.85196 2.42350
# Velocity P-wave (km/s) = 5.97782 7.06406 6.54352
#
# Compressibility (1/GPa) = 0.01841108
#
# Stress axis : x y z
#
# Youngs Moduli (GPa) = 66.55122 35.77834 43.09778
#
# Poissons Ratio (x) = 0.42573 0.21262
# Poissons Ratio (y) = 0.79189 0.30390
# Poissons Ratio (z) = 0.32833 0.25229
#
# Static dielectric constant tensor:
#      x y z
#    x 3.745070 0.000000 0.000000 
#    y 0.000000 3.114830 0.000000 
#    z 0.000000 0.000000 3.093880 
# 
# 
# High freq. dielectric constant tensor:
#      x y z
#    x 1.694020 0.000000 0.000000 
#    y 0.000000 1.656250 0.000000 
#    z 0.000000 0.000000 1.665670 
# 
# From -- ./inp_files/9871.got.cif
#   From: 2010.03.12/outbox.cif.g09.slc.cpg/sg65_5_cif.got.tgz:9871.got - 2010.04.10 20:52:16.
