data_PCOD8265171
_publ_section_title
;
Structure prediction by ZEFSAII (Michael W. Deem and Ramdas Pophale) SiO2 
 PCOD8265171
Probable space group: C M M M
;
_chemical_formula_sum "Si O2"
_cell_formula_units_Z 128
_cell_length_a 18.689569
_cell_length_b 20.144620
_cell_length_c 19.024858
_cell_angle_alpha 90.000000
_cell_angle_beta 90.000000
_cell_angle_gamma 90.000000
_cell_volume 7162.749938
_symmetry_space_group_name_H-M "C M M M"
_symmetry_group_IT_number 65
_symmetry_cell_setting 'orthorhombic'
loop_
_space_group_symop_operation_xyz
x,y,z
-x,-y,z
x,-y,-z
-x,y,-z
-x,-y,-z
x,y,-z
-x,y,z
x,-y,z
1/2+x,1/2+y,z
1/2-x,1/2-y,z
1/2+x,1/2-y,-z
1/2-x,1/2+y,-z
1/2-x,1/2-y,-z
1/2+x,1/2+y,-z
1/2-x,1/2+y,z
1/2+x,1/2-y,z
loop_
_atom_site_type_symbol
_atom_site_label
_atom_site_fract_x
_atom_site_fract_y
_atom_site_fract_z
Si Si1 0.176544 0.574418 0.078453
Si Si2 0.177109 0.323996 0.193050
Si Si3 0.921894 0.733917 0.578848
Si Si4 0.080770 0.862579 0.327257
Si Si5 0.654750 0.321229 0.813254
Si Si6 0.188786 0.924818 0.418688
Si Si7 0.846795 0.073327 0.078726
Si Si8 0.207136 0.319761 0.348744
O O1 0.147622 0.500000 0.091757
O O2 0.143860 0.621483 0.139680
O O3 0.261670 0.574478 0.082279
O O4 0.153000 0.598618 0.000000
O O5 0.260653 0.318629 0.177118
O O6 0.131791 0.255941 0.179896
O O7 0.171914 0.343180 0.275218
O O8 0.910673 0.760747 0.500000
O O9 0.917706 0.794177 0.631780
O O10 0.858099 0.683832 0.596507
O O11 0.000000 0.698951 0.585830
O O12 0.131397 0.853455 0.260035
O O13 0.112693 0.919087 0.378546
O O14 0.000000 0.882278 0.305344
O O15 0.620275 0.368326 0.873047
O O16 0.180070 0.904274 0.500000
O O17 0.241950 0.875669 0.379208
O O18 0.216970 0.000000 0.412176
O O19 0.873058 0.000000 0.103832
O O20 0.873937 0.086777 0.000000
O O21 0.250000 0.250000 0.339017
#
# Coordination Sequence:
#
# PCOD8265171 Si02
#       8
#    16  16  16  16  16  16  16  16
#     4   8  15  26  40  65  99 132 164 196 245 315
#     4  10  16  27  47  68 100 130 161 209 263 303
#     4  10  20  33  54  81 103 133 177 219 260 309
#     4  11  21  35  52  72 103 141 176 215 263 315
#     4  10  17  30  44  71 100 125 165 213 258 309
#     4  11  24  38  53  77 106 137 175 219 265 313
#     4   8  15  27  44  65  91 128 169 207 249 301
#     4  12  19  35  55  78 106 137 175 219 265 316
#
# _framework density 17.870232000000001
#
# number of rings (size 3 to 8) (size 9 to 14) (size 15 to 20)
#    0.000    2.000    5.000    1.500    0.000    3.000 
#    0.000    3.125    0.000    0.750    0.000    2.625 
#    0.000    1.000    0.000    5.500    0.000    2.375 
#
# Total GULP energy -793031.289060 kJ/mol
# GULP energy per Si atom -12391.113892 kJ/mol
# Density = 1.782956 g / cm^3
# Si number density = 17.870232 Si / 1000 Ang^3
#
#
#
# Elastic Constant Matrix: (Units=GPa)
#
#
# Indices 1 2 3 4 5 6 
#
# 1 43.1438 23.3180 23.8619 0.0000 0.0000 0.0000
# 2 23.3180 103.2654 73.3710 0.0000 0.0000 0.0000
# 3 23.8619 73.3710 140.3292 0.0000 0.0000 0.0000
# 4 0.0000 0.0000 0.0000 18.7338 0.0000 0.0000
# 5 0.0000 0.0000 0.0000 0.0000 2.9857 0.0000
# 6 0.0000 0.0000 0.0000 0.0000 0.0000 11.0009
#
#
#
# Elastic Compliance Matrix: (Units=1/GPa)
#
#
# Indices 1 2 3 4 5 6 
#
# 1 0.026828 -0.004481 -0.002219 0.000000 0.000000 0.000000
# 2 -0.004481 0.016156 -0.007685 0.000000 0.000000 0.000000
# 3 -0.002219 -0.007685 0.011522 0.000000 0.000000 0.000000
# 4 0.000000 0.000000 0.000000 0.053379 0.000000 0.000000
# 5 0.000000 0.000000 0.000000 0.000000 0.334934 0.000000
# 6 0.000000 0.000000 0.000000 0.000000 0.000000 0.090902
#
#
# Mechanical properties :
#
#
# Convention : Reuss Voigt Hill
#
# Bulk Modulus (GPa) = 38.85821 58.64890 48.75356
# Shear Modulus (GPa) = 8.75551 17.62325 13.18938
#
# Velocity S-wave (km/s) = 2.21588 3.14376 2.71968
# Velocity P-wave (km/s) = 5.32341 6.78735 6.09946
#
# Compressibility (1/GPa) = 0.02573459
#
# Stress axis : x y z
#
# Youngs Moduli (GPa) = 37.27515 61.89612 86.79383
#
# Poissons Ratio (x) = 0.27738 0.19257
# Poissons Ratio (y) = 0.16705 0.66703
# Poissons Ratio (z) = 0.08270 0.47568
#
# Static dielectric constant tensor:
#      x y z
#    x 3.145020 0.000000 0.000000 
#    y 0.000000 3.521690 0.000000 
#    z 0.000000 0.000000 3.629590 
# 
# 
# High freq. dielectric constant tensor:
#      x y z
#    x 1.643500 0.000000 0.000000 
#    y 0.000000 1.676510 0.000000 
#    z 0.000000 0.000000 1.707050 
# 
# From -- ./inp_files/56277.got.cif
#   From: 2010.03.12/outbox.cif.g09.slc.cpg/sg65_29_cif.got.tgz:56277.got - 2010.04.10 20:52:16.
