data_PCOD8265921
_publ_section_title
;
Structure prediction by ZEFSAII (Michael W. Deem and Ramdas Pophale) SiO2 
 PCOD8265921
Probable space group: C M M M
;
_chemical_formula_sum "Si O2"
_cell_formula_units_Z 96
_cell_length_a 27.999006
_cell_length_b 17.821894
_cell_length_c 11.786622
_cell_angle_alpha 90.000000
_cell_angle_beta 90.000000
_cell_angle_gamma 90.000000
_cell_volume 5881.469182
_symmetry_space_group_name_H-M "C M M M"
_symmetry_group_IT_number 65
_symmetry_cell_setting 'orthorhombic'
loop_
_space_group_symop_operation_xyz
x,y,z
-x,-y,z
x,-y,-z
-x,y,-z
-x,-y,-z
x,y,-z
-x,y,z
x,-y,z
1/2+x,1/2+y,z
1/2-x,1/2-y,z
1/2+x,1/2-y,-z
1/2-x,1/2+y,-z
1/2-x,1/2-y,-z
1/2+x,1/2+y,-z
1/2-x,1/2+y,z
1/2+x,1/2-y,z
loop_
_atom_site_type_symbol
_atom_site_label
_atom_site_fract_x
_atom_site_fract_y
_atom_site_fract_z
Si Si1 0.401094 0.916469 0.264571
Si Si2 0.360237 0.911085 0.500000
Si Si3 0.748685 0.910444 0.500000
Si Si4 0.813118 0.377181 0.874320
Si Si5 0.729353 0.666545 0.273939
Si Si6 0.053455 0.712575 0.868605
Si Si7 0.646923 0.711237 0.125120
O O1 0.388107 0.882561 0.388458
O O2 0.352589 0.924378 0.192641
O O3 0.439241 0.862080 0.205960
O O4 0.423457 0.000000 0.274648
O O5 0.306039 0.880733 0.500000
O O6 0.357927 0.000000 0.500000
O O7 0.775673 0.876545 0.391924
O O8 0.752329 0.000000 0.500000
O O9 0.763315 0.381818 0.808057
O O10 0.829339 0.292027 0.883925
O O11 0.806179 0.411404 0.000000
O O12 0.750000 0.750000 0.292716
O O13 0.676508 0.664698 0.217846
O O14 0.091577 0.777567 0.835731
O O15 0.000000 0.743289 0.847305
O O16 0.061312 0.689776 0.000000
O O17 0.649236 0.672831 0.000000
#
# Coordination Sequence:
#
# PCOD8265921 Si02
#       7
#    16   8   8  16  16  16  16
#     4  10  18  29  43  60  86 125 167 198 227 268
#     4   9  18  31  44  56  80 124 167 196 222 263
#     4  11  21  33  45  63  96 132 160 190 231 269
#     4   9  16  25  40  63  89 115 146 190 236 272
#     4  10  18  29  46  68  91 120 159 195 223 273
#     4   9  18  32  48  67  91 117 148 194 247 285
#     4   8  15  28  45  65  88 114 144 184 234 281
#
# _framework density 16.322451999999998
#
# number of rings (size 3 to 8) (size 9 to 14) (size 15 to 20)
#    0.000    2.667    1.667    2.250    0.000    3.667 
#    0.000    1.250    0.000    3.000    0.000    0.000 
#    0.000    1.333    0.000    4.167    0.000    0.000 
#
# Total GULP energy -594990.373773 kJ/mol
# GULP energy per Si atom -12395.632787 kJ/mol
# Density = 1.628530 g / cm^3
# Si number density = 16.322452 Si / 1000 Ang^3
#
#
#
# Elastic Constant Matrix: (Units=GPa)
#
#
# Indices 1 2 3 4 5 6 
#
# 1 113.7162 16.5704 47.0416 0.0000 0.0000 0.0000
# 2 16.5704 22.5132 18.5894 0.0000 0.0000 0.0000
# 3 47.0416 18.5894 120.5642 0.0000 0.0000 0.0000
# 4 0.0000 0.0000 0.0000 12.6947 0.0000 0.0000
# 5 0.0000 0.0000 0.0000 0.0000 16.1645 0.0000
# 6 0.0000 0.0000 0.0000 0.0000 0.0000 15.2504
#
#
#
# Elastic Compliance Matrix: (Units=1/GPa)
#
#
# Indices 1 2 3 4 5 6 
#
# 1 0.010996 -0.005215 -0.003486 0.000000 0.000000 0.000000
# 2 -0.005215 0.053371 -0.006195 0.000000 0.000000 0.000000
# 3 -0.003486 -0.006195 0.010610 0.000000 0.000000 0.000000
# 4 0.000000 0.000000 0.000000 0.078773 0.000000 0.000000
# 5 0.000000 0.000000 0.000000 0.000000 0.061864 0.000000
# 6 0.000000 0.000000 0.000000 0.000000 0.000000 0.065572
#
#
# Mechanical properties :
#
#
# Convention : Reuss Voigt Hill
#
# Bulk Modulus (GPa) = 22.13072 46.79958 34.46515
# Shear Modulus (GPa) = 15.33560 20.46141 17.89851
#
# Velocity S-wave (km/s) = 3.06852 3.54443 3.31502
# Velocity P-wave (km/s) = 5.11295 6.74424 5.98444
#
# Compressibility (1/GPa) = 0.04518606
#
# Stress axis : x y z
#
# Youngs Moduli (GPa) = 90.94306 18.73666 94.25298
#
# Poissons Ratio (x) = 0.09770 0.32860
# Poissons Ratio (y) = 0.47423 0.58385
# Poissons Ratio (z) = 0.31706 0.11606
#
# Static dielectric constant tensor:
#      x y z
#    x 3.125890 0.000000 0.000000 
#    y 0.000000 2.666910 0.000000 
#    z 0.000000 0.000000 3.353410 
# 
# 
# High freq. dielectric constant tensor:
#      x y z
#    x 1.608950 0.000000 0.000000 
#    y 0.000000 1.574150 0.000000 
#    z 0.000000 0.000000 1.640530 
# 
# From -- ./inp_files/31000.got.cif
#   From: 2010.03.12/outbox.cif.g09.slc.cpg/sg65_16_cif.got.tgz:31000.got - 2010.04.10 20:52:16.
