data_PCOD8265693
_publ_section_title
;
Structure prediction by ZEFSAII (Michael W. Deem and Ramdas Pophale) SiO2 
 PCOD8265693
Probable space group: C M M M
;
_chemical_formula_sum "Si O2"
_cell_formula_units_Z 72
_cell_length_a 25.506434
_cell_length_b 7.735154
_cell_length_c 20.824015
_cell_angle_alpha 90.000000
_cell_angle_beta 90.000000
_cell_angle_gamma 90.000000
_cell_volume 4108.498924
_symmetry_space_group_name_H-M "C M M M"
_symmetry_group_IT_number 65
_symmetry_cell_setting 'orthorhombic'
loop_
_space_group_symop_operation_xyz
x,y,z
-x,-y,z
x,-y,-z
-x,y,-z
-x,-y,-z
x,y,-z
-x,y,z
x,-y,z
1/2+x,1/2+y,z
1/2-x,1/2-y,z
1/2+x,1/2-y,-z
1/2-x,1/2+y,-z
1/2-x,1/2-y,-z
1/2+x,1/2+y,-z
1/2-x,1/2+y,z
1/2+x,1/2-y,z
loop_
_atom_site_type_symbol
_atom_site_label
_atom_site_fract_x
_atom_site_fract_y
_atom_site_fract_z
Si Si1 0.129308 0.691260 0.244076
Si Si2 0.061612 0.000000 0.200306
Si Si3 0.190301 0.301221 0.118335
Si Si4 0.689581 0.304173 0.636911
Si Si5 0.310262 0.202398 0.500000
Si Si6 0.379184 0.500000 0.070836
O O1 0.105100 0.500000 0.233439
O O2 0.083384 0.830401 0.236021
O O3 0.175246 0.727811 0.192694
O O4 0.155272 0.693153 0.314176
O O5 0.075955 0.000000 0.124906
O O6 0.000000 0.000000 0.207930
O O7 0.180859 0.500000 0.096844
O O8 0.250000 0.250000 0.108720
O O9 0.155556 0.173405 0.075484
O O10 0.684724 0.500000 0.659395
O O11 0.750000 0.250000 0.638106
O O12 0.665182 0.280298 0.565324
O O13 0.250000 0.250000 0.500000
O O14 0.318944 0.000000 0.500000
O O15 0.405295 0.500000 0.000000
#
# Coordination Sequence:
#
# PCOD8265693 Si02
#       6
#    16   8  16  16   8   8
#     4  10  20  34  54  79 104 134 177 220 269 318
#     4  10  22  41  60  79 102 128 171 230 277 315
#     4  10  19  32  50  75 109 144 174 209 249 303
#     4  11  19  29  46  74 110 150 182 215 254 307
#     4  10  18  28  40  64 106 151 190 214 245 298
#     4  10  22  37  54  78 107 139 175 208 253 317
#
# _framework density 17.524647999999999
#
# number of rings (size 3 to 8) (size 9 to 14) (size 15 to 20)
#    0.000    1.778    2.222    5.000    0.000    3.333 
#    0.000    0.000    0.000    0.000    0.000    7.778 
#    0.000    2.667    0.000    0.000    0.000    0.000 
#
# Total GULP energy -446345.091836 kJ/mol
# GULP energy per Si atom -12398.474773 kJ/mol
# Density = 1.748476 g / cm^3
# Si number density = 17.524648 Si / 1000 Ang^3
#
#
#
# Elastic Constant Matrix: (Units=GPa)
#
#
# Indices 1 2 3 4 5 6 
#
# 1 74.0130 30.9356 28.6562 0.0000 0.0000 0.0000
# 2 30.9356 129.5260 22.1959 0.0000 0.0000 0.0000
# 3 28.6562 22.1959 116.9663 0.0000 0.0000 0.0000
# 4 0.0000 0.0000 0.0000 15.9779 0.0000 0.0000
# 5 0.0000 0.0000 0.0000 0.0000 10.3965 0.0000
# 6 0.0000 0.0000 0.0000 0.0000 0.0000 14.0062
#
#
#
# Elastic Compliance Matrix: (Units=1/GPa)
#
#
# Indices 1 2 3 4 5 6 
#
# 1 0.016180 -0.003292 -0.003339 0.000000 0.000000 0.000000
# 2 -0.003292 0.008650 -0.000835 0.000000 0.000000 0.000000
# 3 -0.003339 -0.000835 0.009526 0.000000 0.000000 0.000000
# 4 0.000000 0.000000 0.000000 0.062587 0.000000 0.000000
# 5 0.000000 0.000000 0.000000 0.000000 0.096186 0.000000
# 6 0.000000 0.000000 0.000000 0.000000 0.000000 0.071397
#
#
# Mechanical properties :
#
#
# Convention : Reuss Voigt Hill
#
# Bulk Modulus (GPa) = 51.48470 53.78674 52.63572
# Shear Modulus (GPa) = 17.48667 23.99065 20.73866
#
# Velocity S-wave (km/s) = 3.16228 3.70397 3.44379
# Velocity P-wave (km/s) = 6.54030 7.00366 6.77594
#
# Compressibility (1/GPa) = 0.01942325
#
# Stress axis : x y z
#
# Youngs Moduli (GPa) = 61.80435 115.60952 104.97573
#
# Poissons Ratio (x) = 0.38061 0.35055
# Poissons Ratio (y) = 0.20347 0.08764
# Poissons Ratio (z) = 0.20638 0.09652
#
# Static dielectric constant tensor:
#      x y z
#    x 2.713210 0.000000 0.000000 
#    y 0.000000 3.565770 0.000000 
#    z 0.000000 0.000000 3.546290 
# 
# 
# High freq. dielectric constant tensor:
#      x y z
#    x 1.614290 0.000000 0.000000 
#    y 0.000000 1.703640 0.000000 
#    z 0.000000 0.000000 1.685920 
# 
# From -- ./inp_files/64396.got.cif
#   From: 2010.03.12/outbox.cif.g09.slc.cpg/sg65_33_cif.got.tgz:64396.got - 2010.04.10 20:52:16.
