data_PCOD8265671
_publ_section_title
;
Structure prediction by ZEFSAII (Michael W. Deem and Ramdas Pophale) SiO2 
 PCOD8265671
Probable space group: C M M M
;
_chemical_formula_sum "Si O2"
_cell_formula_units_Z 72
_cell_length_a 8.777832
_cell_length_b 16.102914
_cell_length_c 25.241768
_cell_angle_alpha 90.000000
_cell_angle_beta 90.000000
_cell_angle_gamma 90.000000
_cell_volume 3567.890431
_symmetry_space_group_name_H-M "C M M M"
_symmetry_group_IT_number 65
_symmetry_cell_setting 'orthorhombic'
loop_
_space_group_symop_operation_xyz
x,y,z
-x,-y,z
x,-y,-z
-x,y,-z
-x,-y,-z
x,y,-z
-x,y,z
x,-y,z
1/2+x,1/2+y,z
1/2-x,1/2-y,z
1/2+x,1/2-y,-z
1/2-x,1/2+y,-z
1/2-x,1/2-y,-z
1/2+x,1/2+y,-z
1/2-x,1/2+y,z
1/2+x,1/2-y,z
loop_
_atom_site_type_symbol
_atom_site_label
_atom_site_fract_x
_atom_site_fract_y
_atom_site_fract_z
Si Si1 0.319096 0.159310 0.839880
Si Si2 0.322167 0.659646 0.942595
Si Si3 0.819531 0.336221 0.620912
Si Si4 0.318905 0.000000 0.560164
Si Si5 0.680749 0.091661 0.729340
O O1 0.500000 0.160523 0.839954
O O2 0.250000 0.250000 0.841784
O O3 0.258571 0.111672 0.893089
O O4 0.253632 0.117853 0.786462
O O5 0.500000 0.667808 0.930008
O O6 0.250000 0.750000 0.946774
O O7 0.296607 0.614536 0.000000
O O8 0.750000 0.250000 0.599044
O O9 0.757586 0.415729 0.587981
O O10 0.766286 0.347503 0.682122
O O11 0.000000 0.330617 0.615602
O O12 0.500000 0.000000 0.563765
O O13 0.260216 0.000000 0.500000
O O14 0.500000 0.091041 0.731977
O O15 0.742053 0.000000 0.715933
#
# Coordination Sequence:
#
# PCOD8265671 Si02
#       5
#    16  16  16   8  16
#     4  10  18  27  44  68  93 119 154 202 251 304
#     4   9  16  26  41  61  88 121 156 196 244 300
#     4  10  19  34  57  81 109 144 183 226 269 317
#     4   9  18  34  57  83 111 149 192 223 256 316
#     4   9  17  31  50  71  96 131 172 210 254 310
#
# _framework density 20.179991000000001
#
# number of rings (size 3 to 8) (size 9 to 14) (size 15 to 20)
#    0.000    2.556    1.111    3.333    0.000    1.778 
#    0.000    1.667    0.000    6.667    0.000    4.667 
#    0.000    0.000    0.000    0.000    0.000    0.000 
#
# Total GULP energy -445994.896286 kJ/mol
# GULP energy per Si atom -12388.747119 kJ/mol
# Density = 2.013406 g / cm^3
# Si number density = 20.179991 Si / 1000 Ang^3
#
#
#
# Elastic Constant Matrix: (Units=GPa)
#
#
# Indices 1 2 3 4 5 6 
#
# 1 52.8719 18.6256 32.0483 0.0000 0.0000 0.0000
# 2 18.6256 110.9324 59.8250 0.0000 0.0000 0.0000
# 3 32.0483 59.8250 172.5588 0.0000 0.0000 0.0000
# 4 0.0000 0.0000 0.0000 25.4055 0.0000 0.0000
# 5 0.0000 0.0000 0.0000 0.0000 17.7278 0.0000
# 6 0.0000 0.0000 0.0000 0.0000 0.0000 18.2012
#
#
#
# Elastic Compliance Matrix: (Units=1/GPa)
#
#
# Indices 1 2 3 4 5 6 
#
# 1 0.021601 -0.001800 -0.003388 0.000000 0.000000 0.000000
# 2 -0.001800 0.011237 -0.003562 0.000000 0.000000 0.000000
# 3 -0.003388 -0.003562 0.007659 0.000000 0.000000 0.000000
# 4 0.000000 0.000000 0.000000 0.039362 0.000000 0.000000
# 5 0.000000 0.000000 0.000000 0.000000 0.056409 0.000000
# 6 0.000000 0.000000 0.000000 0.000000 0.000000 0.054941
#
#
# Mechanical properties :
#
#
# Convention : Reuss Voigt Hill
#
# Bulk Modulus (GPa) = 43.47993 61.92899 52.70446
# Shear Modulus (GPa) = 23.10806 27.32450 25.21628
#
# Velocity S-wave (km/s) = 3.38760 3.68372 3.53876
# Velocity P-wave (km/s) = 6.07404 6.98913 6.54759
#
# Compressibility (1/GPa) = 0.02299912
#
# Stress axis : x y z
#
# Youngs Moduli (GPa) = 46.29362 88.98793 130.56271
#
# Poissons Ratio (x) = 0.16016 0.44233
# Poissons Ratio (y) = 0.08332 0.46502
# Poissons Ratio (z) = 0.15684 0.31695
#
# Static dielectric constant tensor:
#      x y z
#    x 3.322870 0.000000 0.000000 
#    y 0.000000 3.474640 0.000000 
#    z 0.000000 0.000000 4.712310 
# 
# 
# High freq. dielectric constant tensor:
#      x y z
#    x 1.749550 0.000000 0.000000 
#    y 0.000000 1.758200 0.000000 
#    z 0.000000 0.000000 1.812800 
# 
# From -- ./inp_files/72545.got.cif
#   From: 2010.03.12/outbox.cif.g09.slc.cpg/sg65_37_cif.got.tgz:72545.got - 2010.04.10 20:52:16.
