data_PCOD8265567
_publ_section_title
;
Structure prediction by ZEFSAII (Michael W. Deem and Ramdas Pophale) SiO2 
 PCOD8265567
Probable space group: C M M M
;
_chemical_formula_sum "Si O2"
_cell_formula_units_Z 104
_cell_length_a 29.687142
_cell_length_b 9.843209
_cell_length_c 22.506010
_cell_angle_alpha 90.000000
_cell_angle_beta 90.000000
_cell_angle_gamma 90.000000
_cell_volume 6576.632947
_symmetry_space_group_name_H-M "C M M M"
_symmetry_group_IT_number 65
_symmetry_cell_setting 'orthorhombic'
loop_
_space_group_symop_operation_xyz
x,y,z
-x,-y,z
x,-y,-z
-x,y,-z
-x,-y,-z
x,y,-z
-x,y,z
x,-y,z
1/2+x,1/2+y,z
1/2-x,1/2-y,z
1/2+x,1/2-y,-z
1/2-x,1/2+y,-z
1/2-x,1/2-y,-z
1/2+x,1/2+y,-z
1/2-x,1/2+y,z
1/2+x,1/2-y,z
loop_
_atom_site_type_symbol
_atom_site_label
_atom_site_fract_x
_atom_site_fract_y
_atom_site_fract_z
Si Si1 0.707541 0.342483 0.287141
Si Si2 0.049166 0.161338 0.432046
Si Si3 0.795279 0.162080 0.500000
Si Si4 0.208815 0.844296 0.848607
Si Si5 0.549555 0.848889 0.929468
Si Si6 0.643207 0.659925 0.609952
Si Si7 0.873147 0.156544 0.931451
O O1 0.720384 0.500000 0.299091
O O2 0.750000 0.250000 0.304376
O O3 0.693190 0.318916 0.219014
O O4 0.665145 0.296658 0.327257
O O5 0.055307 0.207391 0.500000
O O6 0.092273 0.221593 0.395672
O O7 0.000000 0.214563 0.408236
O O8 0.049203 0.000000 0.428063
O O9 0.750000 0.250000 0.500000
O O10 0.824083 0.207867 0.442826
O O11 0.784503 0.000000 0.500000
O O12 0.250000 0.750000 0.866338
O O13 0.169409 0.801753 0.892709
O O14 0.223384 0.000000 0.858149
O O15 0.500000 0.812671 0.904216
O O16 0.585208 0.741127 0.904911
O O17 0.563679 0.000000 0.908856
O O18 0.548150 0.841415 0.000000
O O19 0.638346 0.500000 0.605365
O O20 0.885872 0.000000 0.923581
O O21 0.862719 0.192235 0.000000
#
# Coordination Sequence:
#
# PCOD8265567 Si02
#       7
#    16  16   8  16  16  16  16
#     4   9  17  29  44  59  79 108 138 167 199 241
#     4   8  12  19  33  54  80 106 131 160 194 234
#     4  10  18  26  37  57  85 109 130 160 197 236
#     4   9  18  31  44  59  80 107 140 174 207 247
#     4   8  14  25  41  62  87 111 135 165 201 243
#     4   9  15  24  38  57  81 108 133 161 201 238
#     4   9  17  28  42  61  84 108 136 172 213 254
#
# _framework density 15.813563
#
# number of rings (size 3 to 8) (size 9 to 14) (size 15 to 20)
#    0.000    3.231    0.769    1.385    0.000    1.231 
#    0.000    1.538    0.000    0.923    0.000    4.308 
#    0.000    3.077    0.000    0.000    0.000    0.000 
#
# Total GULP energy -644383.487377 kJ/mol
# GULP energy per Si atom -12391.990142 kJ/mol
# Density = 1.577757 g / cm^3
# Si number density = 15.813563 Si / 1000 Ang^3
#
#
#
# Elastic Constant Matrix: (Units=GPa)
#
#
# Indices 1 2 3 4 5 6 
#
# 1 168.3924 61.4340 66.8346 0.0000 0.0000 0.0000
# 2 61.4340 49.5860 31.8742 0.0000 0.0000 0.0000
# 3 66.8346 31.8742 62.0710 0.0000 0.0000 0.0000
# 4 0.0000 0.0000 0.0000 11.7352 0.0000 0.0000
# 5 0.0000 0.0000 0.0000 0.0000 14.4165 0.0000
# 6 0.0000 0.0000 0.0000 0.0000 0.0000 26.1654
#
#
#
# Elastic Compliance Matrix: (Units=1/GPa)
#
#
# Indices 1 2 3 4 5 6 
#
# 1 0.013459 -0.010986 -0.008851 0.000000 0.000000 0.000000
# 2 -0.010986 0.039071 -0.008234 0.000000 0.000000 0.000000
# 3 -0.008851 -0.008234 0.029869 0.000000 0.000000 0.000000
# 4 0.000000 0.000000 0.000000 0.085213 0.000000 0.000000
# 5 0.000000 0.000000 0.000000 0.000000 0.069365 0.000000
# 6 0.000000 0.000000 0.000000 0.000000 0.000000 0.038218
#
#
# Mechanical properties :
#
#
# Convention : Reuss Voigt Hill
#
# Bulk Modulus (GPa) = 38.08495 66.70389 52.39442
# Shear Modulus (GPa) = 14.70195 18.45720 16.57958
#
# Velocity S-wave (km/s) = 3.05241 3.42010 3.24148
# Velocity P-wave (km/s) = 6.04640 7.60718 6.87125
#
# Compressibility (1/GPa) = 0.02625709
#
# Stress axis : x y z
#
# Youngs Moduli (GPa) = 74.29780 25.59446 33.47930
#
# Poissons Ratio (x) = 0.28118 0.29632
# Poissons Ratio (y) = 0.81623 0.27568
# Poissons Ratio (z) = 0.65760 0.21076
#
# Static dielectric constant tensor:
#      x y z
#    x 3.401520 0.000000 0.000000 
#    y 0.000000 2.810710 0.000000 
#    z 0.000000 0.000000 2.896770 
# 
# 
# High freq. dielectric constant tensor:
#      x y z
#    x 1.614690 0.000000 0.000000 
#    y 0.000000 1.576720 0.000000 
#    z 0.000000 0.000000 1.582850 
# 
# From -- ./inp_files/76016.got.cif
#   From: 2010.03.12/outbox.cif.g09.slc.cpg/sg65_39_cif.got.tgz:76016.got - 2010.04.10 20:52:16.
