data_PCOD8265101
_publ_section_title
;
Structure prediction by ZEFSAII (Michael W. Deem and Ramdas Pophale) SiO2 
 PCOD8265101
Probable space group: C M M M
;
_chemical_formula_sum "Si O2"
_cell_formula_units_Z 64
_cell_length_a 8.883563
_cell_length_b 25.425944
_cell_length_c 17.640903
_cell_angle_alpha 90.000000
_cell_angle_beta 90.000000
_cell_angle_gamma 90.000000
_cell_volume 3984.603249
_symmetry_space_group_name_H-M "C M M M"
_symmetry_group_IT_number 65
_symmetry_cell_setting 'orthorhombic'
loop_
_space_group_symop_operation_xyz
x,y,z
-x,-y,z
x,-y,-z
-x,y,-z
-x,-y,-z
x,y,-z
-x,y,z
x,-y,z
1/2+x,1/2+y,z
1/2-x,1/2-y,z
1/2+x,1/2-y,-z
1/2-x,1/2+y,-z
1/2-x,1/2-y,-z
1/2+x,1/2+y,-z
1/2-x,1/2+y,z
1/2+x,1/2-y,z
loop_
_atom_site_type_symbol
_atom_site_label
_atom_site_fract_x
_atom_site_fract_y
_atom_site_fract_z
Si Si1 0.330426 0.000000 0.409857
Si Si2 0.826751 0.105498 0.589491
Si Si3 0.174629 0.693729 0.145516
Si Si4 0.174755 0.306644 0.687104
Si Si5 0.821155 0.808451 0.000000
O O1 0.246677 0.051786 0.379328
O O2 0.500000 0.000000 0.378274
O O3 0.328023 0.000000 0.500000
O O4 0.805124 0.110573 0.500000
O O5 0.746797 0.155008 0.626411
O O6 0.000000 0.104950 0.613153
O O7 0.250000 0.750000 0.152464
O O8 0.196182 0.667782 0.228537
O O9 0.000000 0.699528 0.124235
O O10 0.259439 0.662665 0.076687
O O11 0.250000 0.250000 0.679575
O O12 0.000000 0.299548 0.668395
O O13 0.750000 0.750000 0.000000
O O14 0.000000 0.807563 0.000000
#
# Coordination Sequence:
#
# PCOD8265101 Si02
#       5
#     8  16  16  16   8
#     4   9  17  31  51  71  89 110 141 184 229 269
#     4  10  20  33  49  68  90 117 149 186 227 269
#     4   9  16  26  39  56  80 110 144 180 217 257
#     4  10  20  32  46  64  89 122 155 187 224 266
#     4  10  16  22  36  56  78 107 142 177 214 256
#
# _framework density 16.061824000000001
#
# number of rings (size 3 to 8) (size 9 to 14) (size 15 to 20)
#    0.000    2.375    0.000    5.250    0.000    6.500 
#    0.000    0.000    0.000    0.000    0.000    0.000 
#    0.000    1.000    0.000   10.500    0.000    5.750 
#
# Total GULP energy -396556.830217 kJ/mol
# GULP energy per Si atom -12392.400944 kJ/mol
# Density = 1.602527 g / cm^3
# Si number density = 16.061824 Si / 1000 Ang^3
#
#
#
# Elastic Constant Matrix: (Units=GPa)
#
#
# Indices 1 2 3 4 5 6 
#
# 1 154.8861 50.1810 50.4968 0.0000 0.0000 0.0000
# 2 50.1810 78.0021 34.5525 0.0000 0.0000 0.0000
# 3 50.4968 34.5525 49.2769 0.0000 0.0000 0.0000
# 4 0.0000 0.0000 0.0000 0.1511 0.0000 0.0000
# 5 0.0000 0.0000 0.0000 0.0000 26.0520 0.0000
# 6 0.0000 0.0000 0.0000 0.0000 0.0000 24.7711
#
#
#
# Elastic Compliance Matrix: (Units=1/GPa)
#
#
# Indices 1 2 3 4 5 6 
#
# 1 0.010093 -0.002773 -0.008398 0.000000 0.000000 0.000000
# 2 -0.002773 0.019358 -0.010732 0.000000 0.000000 0.000000
# 3 -0.008398 -0.010732 0.036425 0.000000 0.000000 0.000000
# 4 0.000000 0.000000 0.000000 6.617882 0.000000 0.000000
# 5 0.000000 0.000000 0.000000 0.000000 0.038385 0.000000
# 6 0.000000 0.000000 0.000000 0.000000 0.000000 0.040370
#
#
# Mechanical properties :
#
#
# Convention : Reuss Voigt Hill
#
# Bulk Modulus (GPa) = 45.31221 61.40285 53.35753
# Shear Modulus (GPa) = 0.73382 19.99049 10.36215
#
# Velocity S-wave (km/s) = 0.67666 3.53171 2.54272
# Velocity P-wave (km/s) = 5.37428 7.41233 6.47401
#
# Compressibility (1/GPa) = 0.02206911
#
# Stress axis : x y z
#
# Youngs Moduli (GPa) = 99.08061 51.65825 27.45359
#
# Poissons Ratio (x) = 0.14324 0.23057
# Poissons Ratio (y) = 0.27473 0.29464
# Poissons Ratio (z) = 0.83212 0.55441
#
# Static dielectric constant tensor:
#      x y z
#    x 3.291750 0.000000 0.000000 
#    y 0.000000 2.451740 0.000000 
#    z 0.000000 0.000000 3.829880 
# 
# 
# High freq. dielectric constant tensor:
#      x y z
#    x 1.643640 0.000000 0.000000 
#    y 0.000000 1.559180 0.000000 
#    z 0.000000 0.000000 1.619360 
# 
# From -- ./inp_files/36368.got.cif
#   From: 2010.03.12/outbox.cif.g09.slc.cpg/sg65_19_cif.got.tgz:36368.got - 2010.04.10 20:52:16.
