data_PCOD8265000
_publ_section_title
;
Structure prediction by ZEFSAII (Michael W. Deem and Ramdas Pophale) SiO2 
 PCOD8265000
Probable space group: C M C A
;
_chemical_formula_sum "Si O2"
_cell_formula_units_Z 88
_cell_length_a 15.296219
_cell_length_b 18.126340
_cell_length_c 15.544458
_cell_angle_alpha 90.000000
_cell_angle_beta 90.000000
_cell_angle_gamma 90.000000
_cell_volume 4309.925851
_symmetry_space_group_name_H-M "C M C A"
_symmetry_group_IT_number 64
_symmetry_cell_setting 'orthorhombic'
loop_
_space_group_symop_operation_xyz
x,y,z
-x,1/2-y,1/2+z
x,-y,-z
-x,1/2+y,1/2-z
-x,-y,-z
x,1/2+y,1/2-z
-x,y,z
x,1/2-y,1/2+z
1/2+x,1/2+y,z
1/2-x,-y,1/2+z
1/2+x,1/2-y,-z
1/2-x,y,1/2-z
1/2-x,1/2-y,-z
1/2+x,y,1/2-z
1/2-x,1/2+y,z
1/2+x,-y,1/2+z
loop_
_atom_site_type_symbol
_atom_site_label
_atom_site_fract_x
_atom_site_fract_y
_atom_site_fract_z
Si Si1 0.404458 0.194329 0.546713
Si Si2 0.342378 0.852108 0.923854
Si Si3 0.775470 0.862611 0.391649
Si Si4 0.338274 0.296195 0.861829
Si Si5 0.597989 0.585682 0.259520
Si Si6 0.750000 0.479384 0.250000
O O1 0.500000 0.163880 0.575112
O O2 0.402963 0.281502 0.562712
O O3 0.327694 0.154354 0.599010
O O4 0.393912 0.181614 0.445165
O O5 0.257237 0.829875 0.870627
O O6 0.392166 0.910876 0.863550
O O7 0.316509 0.885739 0.016532
O O8 0.827691 0.792410 0.352401
O O9 0.785706 0.930796 0.328341
O O10 0.385597 0.332108 0.779393
O O11 0.500000 0.558966 0.237316
O O12 0.667971 0.528892 0.218976
#
# Coordination Sequence:
#
# PCOD8265000 Si02
#       6
#    16  16  16  16  16   8
#     4   9  17  33  61  97 121 144 201 262 312 370
#     4   9  18  38  60  89 118 158 202 252 310 365
#     4   9  22  38  64  85 124 170 198 254 319 361
#     4   9  18  38  64  89 117 152 204 256 308 358
#     4  12  24  40  64  90 124 168 209 256 310 369
#     4  12  26  42  56  86 134 164 208 254 300 378
#
# _framework density 20.417984000000001
#
# number of rings (size 3 to 8) (size 9 to 14) (size 15 to 20)
#    0.000    2.182    1.818    3.273    5.091    1.455 
#    0.000    6.364    0.000    3.273    0.000    0.000 
#    0.000    0.000    0.000    0.000    0.000    0.000 
#
# Total GULP energy -545438.359667 kJ/mol
# GULP energy per Si atom -12396.326356 kJ/mol
# Density = 2.037151 g / cm^3
# Si number density = 20.417984 Si / 1000 Ang^3
#
#
#
# Elastic Constant Matrix: (Units=GPa)
#
#
# Indices 1 2 3 4 5 6 
#
# 1 116.0476 25.9548 10.9172 0.0000 0.0000 0.0000
# 2 25.9548 73.7506 33.2713 0.0000 0.0000 0.0000
# 3 10.9172 33.2713 76.9287 0.0000 0.0000 0.0000
# 4 0.0000 0.0000 0.0000 24.2930 0.0000 0.0000
# 5 0.0000 0.0000 0.0000 0.0000 22.2043 0.0000
# 6 0.0000 0.0000 0.0000 0.0000 0.0000 13.5795
#
#
#
# Elastic Compliance Matrix: (Units=1/GPa)
#
#
# Indices 1 2 3 4 5 6 
#
# 1 0.009354 -0.003346 0.000120 0.000000 0.000000 0.000000
# 2 -0.003346 0.018043 -0.007329 0.000000 0.000000 0.000000
# 3 0.000120 -0.007329 0.016152 0.000000 0.000000 0.000000
# 4 0.000000 0.000000 0.000000 0.041164 0.000000 0.000000
# 5 0.000000 0.000000 0.000000 0.000000 0.045036 0.000000
# 6 0.000000 0.000000 0.000000 0.000000 0.000000 0.073640
#
#
# Mechanical properties :
#
#
# Convention : Reuss Voigt Hill
#
# Bulk Modulus (GPa) = 44.56552 45.22373 44.89462
# Shear Modulus (GPa) = 21.55364 25.12094 23.33729
#
# Velocity S-wave (km/s) = 3.25256 3.51142 3.38446
# Velocity P-wave (km/s) = 5.99829 6.21588 6.10805
#
# Compressibility (1/GPa) = 0.02243887
#
# Stress axis : x y z
#
# Youngs Moduli (GPa) = 106.90329 55.42327 61.91301
#
# Poissons Ratio (x) = 0.18545 -0.00741
# Poissons Ratio (y) = 0.35770 0.45374
# Poissons Ratio (z) = -0.01279 0.40618
#
# Static dielectric constant tensor:
#      x y z
#    x 3.632380 0.000000 0.000000 
#    y 0.000000 3.407430 0.000000 
#    z 0.000000 0.000000 3.676390 
# 
# 
# High freq. dielectric constant tensor:
#      x y z
#    x 1.794380 0.000000 0.000000 
#    y 0.000000 1.764830 0.000000 
#    z 0.000000 0.000000 1.797370 
# 
# From -- ./inp_files/23738.got.cif
#   From: 2010.03.12/outbox.cif.g09.slc.cpg/sg64_12_cif.got.tgz:23738.got - 2010.04.10 20:19:32.
