data_PCOD8265656
_publ_section_title
;
Structure prediction by ZEFSAII (Michael W. Deem and Ramdas Pophale) SiO2 
 PCOD8265656
Probable space group: C M M M
;
_chemical_formula_sum "Si O2"
_cell_formula_units_Z 96
_cell_length_a 26.954953
_cell_length_b 9.036699
_cell_length_c 24.324826
_cell_angle_alpha 90.000000
_cell_angle_beta 90.000000
_cell_angle_gamma 90.000000
_cell_volume 5925.133474
_symmetry_space_group_name_H-M "C M M M"
_symmetry_group_IT_number 65
_symmetry_cell_setting 'orthorhombic'
loop_
_space_group_symop_operation_xyz
x,y,z
-x,-y,z
x,-y,-z
-x,y,-z
-x,-y,-z
x,y,-z
-x,y,z
x,-y,z
1/2+x,1/2+y,z
1/2-x,1/2-y,z
1/2+x,1/2-y,-z
1/2-x,1/2+y,-z
1/2-x,1/2-y,-z
1/2+x,1/2+y,-z
1/2-x,1/2+y,z
1/2+x,1/2-y,z
loop_
_atom_site_type_symbol
_atom_site_label
_atom_site_fract_x
_atom_site_fract_y
_atom_site_fract_z
Si Si1 0.443095 0.329747 0.162830
Si Si2 0.358101 0.174170 0.225377
Si Si3 0.699771 0.170402 0.117365
Si Si4 0.599540 0.826916 0.937203
Si Si5 0.303648 0.324944 0.322450
Si Si6 0.198152 0.171292 0.442011
O O1 0.500000 0.314288 0.180743
O O2 0.425761 0.500000 0.163514
O O3 0.411031 0.236421 0.206102
O O4 0.437047 0.266387 0.101200
O O5 0.316853 0.209751 0.179304
O O6 0.342817 0.255909 0.280830
O O7 0.363298 0.000000 0.235753
O O8 0.750000 0.250000 0.100728
O O9 0.656378 0.218197 0.075439
O O10 0.711610 0.000000 0.111524
O O11 0.591982 0.000000 0.923818
O O12 0.586745 0.789576 0.000000
O O13 0.298068 0.500000 0.311789
O O14 0.250000 0.250000 0.314918
O O15 0.327180 0.289241 0.383397
O O16 0.168774 0.210408 0.500000
O O17 0.250000 0.250000 0.443983
O O18 0.210498 0.000000 0.441061
#
# Coordination Sequence:
#
# PCOD8265656 Si02
#       6
#    16  16  16  16  16  16
#     4  10  21  36  53  72  92 112 138 180 232 279
#     4  10  20  33  48  66  90 119 152 188 225 272
#     4   9  18  30  44  63  87 117 149 180 214 252
#     4   9  19  35  51  68  92 120 150 181 214 262
#     4  10  18  27  42  65  94 127 161 195 229 264
#     4   8  14  24  37  55  83 121 161 195 225 258
#
# _framework density 16.202165999999998
#
# number of rings (size 3 to 8) (size 9 to 14) (size 15 to 20)
#    0.000    2.667    0.000    3.000    0.000    7.667 
#    0.000    1.667    0.000    0.000    0.000    0.000 
#    0.000    0.667    0.000    7.667    0.000    2.167 
#
# Total GULP energy -594787.064177 kJ/mol
# GULP energy per Si atom -12391.397170 kJ/mol
# Density = 1.616529 g / cm^3
# Si number density = 16.202166 Si / 1000 Ang^3
#
#
#
# Elastic Constant Matrix: (Units=GPa)
#
#
# Indices 1 2 3 4 5 6 
#
# 1 59.0258 30.8487 29.1862 0.0000 0.0000 0.0000
# 2 30.8487 70.4510 45.8921 0.0000 0.0000 0.0000
# 3 29.1862 45.8921 120.7574 0.0000 0.0000 0.0000
# 4 0.0000 0.0000 0.0000 21.5698 0.0000 0.0000
# 5 0.0000 0.0000 0.0000 0.0000 1.5609 0.0000
# 6 0.0000 0.0000 0.0000 0.0000 0.0000 24.5575
#
#
#
# Elastic Compliance Matrix: (Units=1/GPa)
#
#
# Indices 1 2 3 4 5 6 
#
# 1 0.022417 -0.008355 -0.002243 0.000000 0.000000 0.000000
# 2 -0.008355 0.021978 -0.006333 0.000000 0.000000 0.000000
# 3 -0.002243 -0.006333 0.011230 0.000000 0.000000 0.000000
# 4 0.000000 0.000000 0.000000 0.046361 0.000000 0.000000
# 5 0.000000 0.000000 0.000000 0.000000 0.640665 0.000000
# 6 0.000000 0.000000 0.000000 0.000000 0.000000 0.040721
#
#
# Mechanical properties :
#
#
# Convention : Reuss Voigt Hill
#
# Bulk Modulus (GPa) = 45.94864 51.34315 48.64589
# Shear Modulus (GPa) = 6.06437 19.15810 12.61123
#
# Velocity S-wave (km/s) = 1.93677 3.44239 2.79295
# Velocity P-wave (km/s) = 5.78122 6.89623 6.36320
#
# Compressibility (1/GPa) = 0.02176343
#
# Stress axis : x y z
#
# Youngs Moduli (GPa) = 44.60835 45.49989 89.04731
#
# Poissons Ratio (x) = 0.38015 0.19973
# Poissons Ratio (y) = 0.37270 0.56395
# Poissons Ratio (z) = 0.10005 0.28816
#
# Static dielectric constant tensor:
#      x y z
#    x 2.723180 0.000000 0.000000 
#    y 0.000000 3.125550 0.000000 
#    z 0.000000 0.000000 3.559720 
# 
# 
# High freq. dielectric constant tensor:
#      x y z
#    x 1.581820 0.000000 0.000000 
#    y 0.000000 1.634680 0.000000 
#    z 0.000000 0.000000 1.629890 
# 
# From -- ./inp_files/67832.got.cif
#   From: 2010.03.12/outbox.cif.g09.slc.cpg/sg65_34_cif.got.tgz:67832.got - 2010.04.10 20:52:16.
