data_PCOD8265304
_publ_section_title
;
Structure prediction by ZEFSAII (Michael W. Deem and Ramdas Pophale) SiO2 
 PCOD8265304
Probable space group: C M M M
;
_chemical_formula_sum "Si O2"
_cell_formula_units_Z 112
_cell_length_a 17.414288
_cell_length_b 27.933913
_cell_length_c 14.484464
_cell_angle_alpha 90.000000
_cell_angle_beta 90.000000
_cell_angle_gamma 90.000000
_cell_volume 7045.956011
_symmetry_space_group_name_H-M "C M M M"
_symmetry_group_IT_number 65
_symmetry_cell_setting 'orthorhombic'
loop_
_space_group_symop_operation_xyz
x,y,z
-x,-y,z
x,-y,-z
-x,y,-z
-x,-y,-z
x,y,-z
-x,y,z
x,-y,z
1/2+x,1/2+y,z
1/2-x,1/2-y,z
1/2+x,1/2-y,-z
1/2-x,1/2+y,-z
1/2-x,1/2-y,-z
1/2+x,1/2+y,-z
1/2-x,1/2+y,z
1/2+x,1/2-y,z
loop_
_atom_site_type_symbol
_atom_site_label
_atom_site_fract_x
_atom_site_fract_y
_atom_site_fract_z
Si Si1 0.282005 0.553458 0.106679
Si Si2 0.301532 0.852775 0.105419
Si Si3 0.091084 0.247644 0.600619
Si Si4 0.087177 0.900071 0.211449
Si Si5 0.091068 0.140567 0.399190
Si Si6 0.362417 0.691103 0.106789
Si Si7 0.909161 0.713050 0.208561
O O1 0.249697 0.500000 0.124141
O O2 0.218763 0.592756 0.135897
O O3 0.360358 0.560209 0.163372
O O4 0.303618 0.561911 0.000000
O O5 0.227962 0.818727 0.118511
O O6 0.369891 0.834979 0.170647
O O7 0.330227 0.851471 0.000000
O O8 0.117904 0.268087 0.500000
O O9 0.124745 0.194113 0.613602
O O10 0.119340 0.280440 0.685377
O O11 0.000000 0.244669 0.603289
O O12 0.119742 0.893158 0.316032
O O13 0.089078 0.849297 0.159152
O O14 0.000000 0.919134 0.211495
O O15 0.116331 0.120111 0.500000
O O16 0.000000 0.143846 0.393001
O O17 0.382544 0.742466 0.147332
O O18 0.386383 0.690161 0.000000
O O19 0.000000 0.706590 0.201964
#
# Coordination Sequence:
#
# PCOD8265304 Si02
#       7
#    16  16  16  16  16  16  16
#     4   9  19  35  51  64  81 113 152 184 224 275
#     4   9  19  33  46  61  86 121 152 178 214 267
#     4   8  14  25  40  60  89 123 153 177 207 250
#     4  10  17  26  43  69  93 114 147 186 219 251
#     4   8  13  23  39  59  87 122 154 179 207 250
#     4  10  19  29  40  59  93 132 154 165 202 265
#     4  11  19  27  44  69  92 116 148 186 220 248
#
# _framework density 15.895644000000001
#
# number of rings (size 3 to 8) (size 9 to 14) (size 15 to 20)
#    0.000    2.714    1.429    3.429    0.000    4.286 
#    0.000    0.714    0.000    6.000    0.000    4.000 
#    0.000    0.000    0.000    3.571    0.000    0.000 
#
# Total GULP energy -694087.319876 kJ/mol
# GULP energy per Si atom -12394.416426 kJ/mol
# Density = 1.585946 g / cm^3
# Si number density = 15.895644 Si / 1000 Ang^3
#
#
#
# Elastic Constant Matrix: (Units=GPa)
#
#
# Indices 1 2 3 4 5 6 
#
# 1 40.6411 30.4918 29.3319 0.0000 0.0000 0.0000
# 2 30.4918 81.3919 39.3910 0.0000 0.0000 0.0000
# 3 29.3319 39.3910 111.2847 0.0000 0.0000 0.0000
# 4 0.0000 0.0000 0.0000 16.4217 0.0000 0.0000
# 5 0.0000 0.0000 0.0000 0.0000 4.1580 0.0000
# 6 0.0000 0.0000 0.0000 0.0000 0.0000 13.9712
#
#
#
# Elastic Compliance Matrix: (Units=1/GPa)
#
#
# Indices 1 2 3 4 5 6 
#
# 1 0.037155 -0.011077 -0.005872 0.000000 0.000000 0.000000
# 2 -0.011077 0.018129 -0.003497 0.000000 0.000000 0.000000
# 3 -0.005872 -0.003497 0.011772 0.000000 0.000000 0.000000
# 4 0.000000 0.000000 0.000000 0.060895 0.000000 0.000000
# 5 0.000000 0.000000 0.000000 0.000000 0.240498 0.000000
# 6 0.000000 0.000000 0.000000 0.000000 0.000000 0.071576
#
#
# Mechanical properties :
#
#
# Convention : Reuss Voigt Hill
#
# Bulk Modulus (GPa) = 38.22380 47.97189 43.09784
# Shear Modulus (GPa) = 10.21164 15.85039 13.03102
#
# Velocity S-wave (km/s) = 2.53735 3.16120 2.86630
# Velocity P-wave (km/s) = 5.71691 6.60068 6.17463
#
# Compressibility (1/GPa) = 0.02616171
#
# Stress axis : x y z
#
# Youngs Moduli (GPa) = 26.91447 55.16115 84.95037
#
# Poissons Ratio (x) = 0.61104 0.49883
# Poissons Ratio (y) = 0.29814 0.29709
# Poissons Ratio (z) = 0.15804 0.19291
#
# Static dielectric constant tensor:
#      x y z
#    x 2.685200 0.000000 0.000000 
#    y 0.000000 2.822130 0.000000 
#    z 0.000000 0.000000 3.449680 
# 
# 
# High freq. dielectric constant tensor:
#      x y z
#    x 1.572460 0.000000 0.000000 
#    y 0.000000 1.576520 0.000000 
#    z 0.000000 0.000000 1.624970 
# 
# From -- ./inp_files/41373.got.cif
#   From: 2010.03.12/outbox.cif.g09.slc.cpg/sg65_21_cif.got.tgz:41373.got - 2010.04.10 20:52:16.
