data_PCOD8265623
_publ_section_title
;
Structure prediction by ZEFSAII (Michael W. Deem and Ramdas Pophale) SiO2 
 PCOD8265623
Probable space group: C M M M
;
_chemical_formula_sum "Si O2"
_cell_formula_units_Z 96
_cell_length_a 26.036646
_cell_length_b 9.133571
_cell_length_c 23.221284
_cell_angle_alpha 90.000000
_cell_angle_beta 90.000000
_cell_angle_gamma 90.000000
_cell_volume 5522.196768
_symmetry_space_group_name_H-M "C M M M"
_symmetry_group_IT_number 65
_symmetry_cell_setting 'orthorhombic'
loop_
_space_group_symop_operation_xyz
x,y,z
-x,-y,z
x,-y,-z
-x,y,-z
-x,-y,-z
x,y,-z
-x,y,z
x,-y,z
1/2+x,1/2+y,z
1/2-x,1/2-y,z
1/2+x,1/2-y,-z
1/2-x,1/2+y,-z
1/2-x,1/2-y,-z
1/2+x,1/2+y,-z
1/2-x,1/2+y,z
1/2+x,1/2-y,z
loop_
_atom_site_type_symbol
_atom_site_label
_atom_site_fract_x
_atom_site_fract_y
_atom_site_fract_z
Si Si1 0.058115 0.828713 0.752443
Si Si2 0.705576 0.160536 0.249579
Si Si3 0.643740 0.673526 0.337702
Si Si4 0.196521 0.670083 0.566763
Si Si5 0.618147 0.839623 0.158118
Si Si6 0.302592 0.172061 0.066230
O O1 0.092331 0.778911 0.697526
O O2 0.073814 0.761059 0.814674
O O3 0.000000 0.781534 0.738440
O O4 0.064114 0.000000 0.761413
O O5 0.750000 0.250000 0.216109
O O6 0.692538 0.264607 0.303322
O O7 0.658772 0.139467 0.207942
O O8 0.723944 0.000000 0.270649
O O9 0.646485 0.500000 0.345558
O O10 0.648638 0.753086 0.399604
O O11 0.182920 0.687984 0.500000
O O12 0.201039 0.500000 0.584299
O O13 0.250000 0.750000 0.581572
O O14 0.648086 0.770612 0.102923
O O15 0.595232 0.000000 0.141927
O O16 0.250000 0.250000 0.085640
O O17 0.295028 0.000000 0.077804
O O18 0.314913 0.207567 0.000000
#
# Coordination Sequence:
#
# PCOD8265623 Si02
#       6
#    16  16  16  16  16  16
#     4   9  19  35  53  72  92 116 150 195 244 287
#     4  10  18  27  40  61  91 121 150 184 223 271
#     4  10  19  31  48  68  91 119 151 188 231 277
#     4  10  20  33  49  70  98 130 161 190 220 260
#     4   9  18  30  45  67  92 120 154 191 232 278
#     4   9  17  29  45  67  97 130 162 194 227 269
#
# _framework density 17.384385999999999
#
# number of rings (size 3 to 8) (size 9 to 14) (size 15 to 20)
#    0.000    2.500    0.000    2.500    0.000    3.333 
#    0.000    0.000    0.000    1.000    0.000    7.000 
#    0.000    0.000    0.000    0.000    0.000    0.000 
#
# Total GULP energy -594787.180027 kJ/mol
# GULP energy per Si atom -12391.399584 kJ/mol
# Density = 1.734482 g / cm^3
# Si number density = 17.384386 Si / 1000 Ang^3
#
#
#
# Elastic Constant Matrix: (Units=GPa)
#
#
# Indices 1 2 3 4 5 6 
#
# 1 87.9538 48.4848 43.3685 0.0000 0.0000 0.0000
# 2 48.4848 84.6433 40.6745 0.0000 0.0000 0.0000
# 3 43.3685 40.6745 93.9032 0.0000 0.0000 0.0000
# 4 0.0000 0.0000 0.0000 25.3012 0.0000 0.0000
# 5 0.0000 0.0000 0.0000 0.0000 24.1082 0.0000
# 6 0.0000 0.0000 0.0000 0.0000 0.0000 22.5112
#
#
#
# Elastic Compliance Matrix: (Units=1/GPa)
#
#
# Indices 1 2 3 4 5 6 
#
# 1 0.018260 -0.008091 -0.004929 0.000000 0.000000 0.000000
# 2 -0.008091 0.018505 -0.004279 0.000000 0.000000 0.000000
# 3 -0.004929 -0.004279 0.014779 0.000000 0.000000 0.000000
# 4 0.000000 0.000000 0.000000 0.039524 0.000000 0.000000
# 5 0.000000 0.000000 0.000000 0.000000 0.041480 0.000000
# 6 0.000000 0.000000 0.000000 0.000000 0.000000 0.044422
#
#
# Mechanical properties :
#
#
# Convention : Reuss Voigt Hill
#
# Bulk Modulus (GPa) = 59.00718 59.06176 59.03447
# Shear Modulus (GPa) = 23.01858 23.31562 23.16710
#
# Velocity S-wave (km/s) = 3.64276 3.66619 3.65449
# Velocity P-wave (km/s) = 7.19091 7.20895 7.19994
#
# Compressibility (1/GPa) = 0.01694709
#
# Stress axis : x y z
#
# Youngs Moduli (GPa) = 54.76417 54.03902 67.66456
#
# Poissons Ratio (x) = 0.43724 0.33349
# Poissons Ratio (y) = 0.44311 0.28951
# Poissons Ratio (z) = 0.26991 0.23122
#
# Static dielectric constant tensor:
#      x y z
#    x 3.116330 0.000000 0.000000 
#    y 0.000000 3.547390 0.000000 
#    z 0.000000 0.000000 3.361290 
# 
# 
# High freq. dielectric constant tensor:
#      x y z
#    x 1.639280 0.000000 0.000000 
#    y 0.000000 1.679460 0.000000 
#    z 0.000000 0.000000 1.667340 
# 
# From -- ./inp_files/68005.got.cif
#   From: 2010.03.12/outbox.cif.g09.slc.cpg/sg65_35_cif.got.tgz:68005.got - 2010.04.10 20:52:16.
