data_PCOD8265912
_publ_section_title
;
Structure prediction by ZEFSAII (Michael W. Deem and Ramdas Pophale) SiO2 
 PCOD8265912
Probable space group: C M M M
;
_chemical_formula_sum "Si O2"
_cell_formula_units_Z 88
_cell_length_a 35.908642
_cell_length_b 9.176479
_cell_length_c 19.656102
_cell_angle_alpha 90.000000
_cell_angle_beta 90.000000
_cell_angle_gamma 90.000000
_cell_volume 6476.978470
_symmetry_space_group_name_H-M "C M M M"
_symmetry_group_IT_number 65
_symmetry_cell_setting 'orthorhombic'
loop_
_space_group_symop_operation_xyz
x,y,z
-x,-y,z
x,-y,-z
-x,y,-z
-x,-y,-z
x,y,-z
-x,y,z
x,-y,z
1/2+x,1/2+y,z
1/2-x,1/2-y,z
1/2+x,1/2-y,-z
1/2-x,1/2+y,-z
1/2-x,1/2-y,-z
1/2+x,1/2+y,-z
1/2-x,1/2+y,z
1/2+x,1/2-y,z
loop_
_atom_site_type_symbol
_atom_site_label
_atom_site_fract_x
_atom_site_fract_y
_atom_site_fract_z
Si Si1 0.000000 0.327002 0.076073
Si Si2 0.044251 0.164753 0.425836
Si Si3 0.785679 0.335464 0.080729
Si Si4 0.926580 0.328586 0.847636
Si Si5 0.542218 0.830489 0.296291
Si Si6 0.639896 0.328518 0.078923
O O1 0.963296 0.271170 0.114008
O O2 0.000000 0.500000 0.076455
O O3 0.000000 0.263360 0.000000
O O4 0.058144 0.223140 0.500000
O O5 0.060507 0.257344 0.363132
O O6 0.000000 0.174118 0.424083
O O7 0.057917 0.000000 0.416188
O O8 0.786793 0.500000 0.110236
O O9 0.750000 0.250000 0.110738
O O10 0.822317 0.248505 0.103318
O O11 0.782853 0.341207 0.000000
O O12 0.919725 0.500000 0.861093
O O13 0.931783 0.294599 0.767944
O O14 0.892482 0.235554 0.874768
O O15 0.500000 0.774588 0.282036
O O16 0.541132 0.000000 0.310825
O O17 0.643888 0.500000 0.091207
O O18 0.631364 0.293491 0.000000
#
# Coordination Sequence:
#
# PCOD8265912 Si02
#       6
#     8  16  16  16  16  16
#     4   9  16  26  41  55  66  89 128 170 207 241
#     4   8  14  24  37  53  72  93 118 148 184 230
#     4   9  16  27  44  63  80  98 120 149 189 236
#     4  10  18  29  42  56  73  97 131 167 203 242
#     4   9  16  26  39  55  74  94 122 161 199 235
#     4  10  20  31  41  56  78 101 128 164 201 237
#
# _framework density 13.586582
#
# number of rings (size 3 to 8) (size 9 to 14) (size 15 to 20)
#    0.000    2.818    0.909    2.182    0.000    5.091 
#    0.000    2.273    0.000    1.636    0.000    0.000 
#    0.000    0.000    0.000    0.000    0.000    0.909 
#
# Total GULP energy -545408.525847 kJ/mol
# GULP energy per Si atom -12395.648315 kJ/mol
# Density = 1.355566 g / cm^3
# Si number density = 13.586582 Si / 1000 Ang^3
#
#
#
# Elastic Constant Matrix: (Units=GPa)
#
#
# Indices 1 2 3 4 5 6 
#
# 1 87.6904 45.4876 39.4024 0.0000 0.0000 0.0000
# 2 45.4876 71.8856 44.3804 0.0000 0.0000 0.0000
# 3 39.4024 44.3804 91.0573 0.0000 0.0000 0.0000
# 4 0.0000 0.0000 0.0000 21.0901 0.0000 0.0000
# 5 0.0000 0.0000 0.0000 0.0000 2.2886 0.0000
# 6 0.0000 0.0000 0.0000 0.0000 0.0000 21.8318
#
#
#
# Elastic Compliance Matrix: (Units=1/GPa)
#
#
# Indices 1 2 3 4 5 6 
#
# 1 0.017577 -0.009192 -0.003125 0.000000 0.000000 0.000000
# 2 -0.009192 0.024706 -0.008064 0.000000 0.000000 0.000000
# 3 -0.003125 -0.008064 0.016265 0.000000 0.000000 0.000000
# 4 0.000000 0.000000 0.000000 0.047416 0.000000 0.000000
# 5 0.000000 0.000000 0.000000 0.000000 0.436951 0.000000
# 6 0.000000 0.000000 0.000000 0.000000 0.000000 0.045805
#
#
# Mechanical properties :
#
#
# Convention : Reuss Voigt Hill
#
# Bulk Modulus (GPa) = 56.22995 56.57489 56.40242
# Shear Modulus (GPa) = 7.86893 17.13294 12.50094
#
# Velocity S-wave (km/s) = 2.40920 3.55494 3.03660
# Velocity P-wave (km/s) = 7.01536 7.65381 7.34153
#
# Compressibility (1/GPa) = 0.01778412
#
# Stress axis : x y z
#
# Youngs Moduli (GPa) = 56.89407 40.47575 61.48284
#
# Poissons Ratio (x) = 0.37207 0.19216
# Poissons Ratio (y) = 0.52300 0.49578
# Poissons Ratio (z) = 0.17782 0.32639
#
# Static dielectric constant tensor:
#      x y z
#    x 2.525810 0.000000 0.000000 
#    y 0.000000 2.725610 0.000000 
#    z 0.000000 0.000000 2.765230 
# 
# 
# High freq. dielectric constant tensor:
#      x y z
#    x 1.484500 0.000000 0.000000 
#    y 0.000000 1.519000 0.000000 
#    z 0.000000 0.000000 1.496230 
# 
# From -- ./inp_files/60661.got.cif
#   From: 2010.03.12/outbox.cif.g09.slc.cpg/sg65_31_cif.got.tgz:60661.got - 2010.04.10 20:52:16.
