data_PCOD8265030
_publ_section_title
;
Structure prediction by ZEFSAII (Michael W. Deem and Ramdas Pophale) SiO2 
 PCOD8265030
Probable space group: C M C A
;
_chemical_formula_sum "Si O2"
_cell_formula_units_Z 104
_cell_length_a 23.983458
_cell_length_b 18.621793
_cell_length_c 14.036890
_cell_angle_alpha 90.000000
_cell_angle_beta 90.000000
_cell_angle_gamma 90.000000
_cell_volume 6269.085491
_symmetry_space_group_name_H-M "C M C A"
_symmetry_group_IT_number 64
_symmetry_cell_setting 'orthorhombic'
loop_
_space_group_symop_operation_xyz
x,y,z
-x,1/2-y,1/2+z
x,-y,-z
-x,1/2+y,1/2-z
-x,-y,-z
x,1/2+y,1/2-z
-x,y,z
x,1/2-y,1/2+z
1/2+x,1/2+y,z
1/2-x,-y,1/2+z
1/2+x,1/2-y,-z
1/2-x,y,1/2-z
1/2-x,1/2-y,-z
1/2+x,y,1/2-z
1/2-x,1/2+y,z
1/2+x,-y,1/2+z
loop_
_atom_site_type_symbol
_atom_site_label
_atom_site_fract_x
_atom_site_fract_y
_atom_site_fract_z
Si Si1 0.935361 0.740463 0.893301
Si Si2 0.369984 0.850002 0.250519
Si Si3 0.563171 0.365002 0.750716
Si Si4 0.435343 0.241409 0.606713
Si Si5 0.750000 0.635488 0.750000
Si Si6 0.749656 0.505548 0.613668
Si Si7 0.344038 0.516484 0.249311
O O1 0.901118 0.676878 0.843869
O O2 0.925386 0.816490 0.842903
O O3 0.000000 0.718036 0.888918
O O4 0.913521 0.749131 0.000063
O O5 0.401144 0.822556 0.344594
O O6 0.306546 0.817633 0.250385
O O7 0.367966 0.935799 0.250954
O O8 0.500000 0.394278 0.750767
O O9 0.574712 0.317059 0.658037
O O10 0.603392 0.432273 0.751211
O O11 0.500000 0.219021 0.610818
O O12 0.749748 0.586906 0.653838
O O13 0.749358 0.500000 0.500000
O O14 0.693699 0.468640 0.656504
O O15 0.805788 0.468604 0.655746
#
# Coordination Sequence:
#
# PCOD8265030 Si02
#       7
#    16  16  16  16   8  16  16
#     4   9  18  33  51  69  93 129 163 189 231 286
#     4   9  17  33  50  66  95 126 153 196 239 279
#     4   9  18  31  46  70 103 125 150 199 239 271
#     4   9  18  33  51  69  93 129 163 189 231 286
#     4   8  18  30  44  72  96 120 160 196 230 278
#     4   8  16  32  49  66  96 130 154 188 237 283
#     4   9  19  31  50  77  95 118 161 198 234 283
#
# _framework density 16.589341999999998
#
# number of rings (size 3 to 8) (size 9 to 14) (size 15 to 20)
#    0.000    3.692    0.000    1.385    0.000    6.154 
#    0.000    6.923    0.000    6.462    0.000    0.000 
#    0.000    0.000    0.000    0.000    0.000    0.000 
#
# Total GULP energy -644430.564641 kJ/mol
# GULP energy per Si atom -12392.895474 kJ/mol
# Density = 1.655158 g / cm^3
# Si number density = 16.589342 Si / 1000 Ang^3
#
#
#
# Elastic Constant Matrix: (Units=GPa)
#
#
# Indices 1 2 3 4 5 6 
#
# 1 117.8027 65.3710 56.5414 0.0000 0.0000 0.0000
# 2 65.3710 81.7383 43.0792 0.0000 0.0000 0.0000
# 3 56.5414 43.0792 166.7461 0.0000 0.0000 0.0000
# 4 0.0000 0.0000 0.0000 8.8177 0.0000 0.0000
# 5 0.0000 0.0000 0.0000 0.0000 17.0295 0.0000
# 6 0.0000 0.0000 0.0000 0.0000 0.0000 26.3192
#
#
#
# Elastic Compliance Matrix: (Units=1/GPa)
#
#
# Indices 1 2 3 4 5 6 
#
# 1 0.016094 -0.011571 -0.002468 0.000000 0.000000 0.000000
# 2 -0.011571 0.022481 -0.001885 0.000000 0.000000 0.000000
# 3 -0.002468 -0.001885 0.007321 0.000000 0.000000 0.000000
# 4 0.000000 0.000000 0.000000 0.113408 0.000000 0.000000
# 5 0.000000 0.000000 0.000000 0.000000 0.058722 0.000000
# 6 0.000000 0.000000 0.000000 0.000000 0.000000 0.037995
#
#
# Mechanical properties :
#
#
# Convention : Reuss Voigt Hill
#
# Bulk Modulus (GPa) = 71.17621 77.36339 74.26980
# Shear Modulus (GPa) = 17.09106 23.85298 20.47202
#
# Velocity S-wave (km/s) = 3.21322 3.79601 3.51671
# Velocity P-wave (km/s) = 7.53421 8.12087 7.83304
#
# Compressibility (1/GPa) = 0.01404964
#
# Stress axis : x y z
#
# Youngs Moduli (GPa) = 62.13432 44.48154 136.59534
#
# Poissons Ratio (x) = 0.51468 0.33712
# Poissons Ratio (y) = 0.71894 0.25743
# Poissons Ratio (z) = 0.15335 0.08383
#
# Static dielectric constant tensor:
#      x y z
#    x 3.338140 0.000000 0.000000 
#    y 0.000000 2.748600 0.000000 
#    z 0.000000 0.000000 3.297320 
# 
# 
# High freq. dielectric constant tensor:
#      x y z
#    x 1.651320 0.000000 0.000000 
#    y 0.000000 1.608740 0.000000 
#    z 0.000000 0.000000 1.638940 
# 
# From -- ./inp_files/27552.got.cif
#   From: 2010.03.12/outbox.cif.g09.slc.cpg/sg64_14_cif.got.tgz:27552.got - 2010.04.10 20:19:32.
