data_PCOD8265963
_publ_section_title
;
Structure prediction by ZEFSAII (Michael W. Deem and Ramdas Pophale) SiO2 
 PCOD8265963
Probable space group: C M M M
;
_chemical_formula_sum "Si O2"
_cell_formula_units_Z 80
_cell_length_a 24.962935
_cell_length_b 17.678003
_cell_length_c 11.961997
_cell_angle_alpha 90.000000
_cell_angle_beta 90.000000
_cell_angle_gamma 90.000000
_cell_volume 5278.767550
_symmetry_space_group_name_H-M "C M M M"
_symmetry_group_IT_number 65
_symmetry_cell_setting 'orthorhombic'
loop_
_space_group_symop_operation_xyz
x,y,z
-x,-y,z
x,-y,-z
-x,y,-z
-x,-y,-z
x,y,-z
-x,y,z
x,-y,z
1/2+x,1/2+y,z
1/2-x,1/2-y,z
1/2+x,1/2-y,-z
1/2-x,1/2+y,-z
1/2-x,1/2-y,-z
1/2+x,1/2+y,-z
1/2-x,1/2+y,z
1/2+x,1/2-y,z
loop_
_atom_site_type_symbol
_atom_site_label
_atom_site_fract_x
_atom_site_fract_y
_atom_site_fract_z
Si Si1 0.687243 0.757381 0.000000
Si Si2 0.855973 0.663358 0.630051
Si Si3 0.372491 0.087220 0.000000
Si Si4 0.439790 0.912612 0.778790
Si Si5 0.692743 0.289612 0.763228
Si Si6 0.244700 0.911867 0.371697
O O1 0.750000 0.750000 0.000000
O O2 0.666661 0.713774 0.111853
O O3 0.673136 0.847598 0.000000
O O4 0.864483 0.672350 0.500000
O O5 0.910140 0.629296 0.678737
O O6 0.847120 0.746302 0.680639
O O7 0.805658 0.609432 0.659972
O O8 0.409299 0.101612 0.893834
O O9 0.349202 0.000000 0.000000
O O10 0.500000 0.880470 0.790029
O O11 0.441231 0.000000 0.747721
O O12 0.750000 0.250000 0.763861
O O13 0.702106 0.373220 0.712834
O O14 0.233224 0.886885 0.500000
O O15 0.236976 0.000000 0.354844
#
# Coordination Sequence:
#
# PCOD8265963 Si02
#       6
#     8  16   8  16  16  16
#     4  10  18  31  45  68  90 114 148 189 229 271
#     4  10  18  29  45  64  89 123 156 186 227 273
#     4  10  19  34  52  65  85 125 164 188 220 268
#     4  10  20  32  46  65  88 117 157 199 229 258
#     4   9  17  29  44  63  88 117 150 187 227 270
#     4   9  17  29  45  65  90 122 158 186 215 271
#
# _framework density 15.155052
#
# number of rings (size 3 to 8) (size 9 to 14) (size 15 to 20)
#    0.000    2.400    2.000    1.500    0.000    5.200 
#    0.000    1.500    0.000    0.000    0.000    0.000 
#    0.000    0.800    0.000    6.000    0.000    0.000 
#
# Total GULP energy -495784.527781 kJ/mol
# GULP energy per Si atom -12394.613195 kJ/mol
# Density = 1.512056 g / cm^3
# Si number density = 15.155052 Si / 1000 Ang^3
#
#
#
# Elastic Constant Matrix: (Units=GPa)
#
#
# Indices 1 2 3 4 5 6 
#
# 1 68.3503 43.2095 41.9317 0.0000 0.0000 0.0000
# 2 43.2095 78.7247 47.0625 0.0000 0.0000 0.0000
# 3 41.9317 47.0625 110.6371 0.0000 0.0000 0.0000
# 4 0.0000 0.0000 0.0000 24.6583 0.0000 0.0000
# 5 0.0000 0.0000 0.0000 0.0000 10.0682 0.0000
# 6 0.0000 0.0000 0.0000 0.0000 0.0000 21.8215
#
#
#
# Elastic Compliance Matrix: (Units=1/GPa)
#
#
# Indices 1 2 3 4 5 6 
#
# 1 0.024101 -0.010417 -0.004703 0.000000 0.000000 0.000000
# 2 -0.010417 0.021536 -0.005213 0.000000 0.000000 0.000000
# 3 -0.004703 -0.005213 0.013039 0.000000 0.000000 0.000000
# 4 0.000000 0.000000 0.000000 0.040554 0.000000 0.000000
# 5 0.000000 0.000000 0.000000 0.000000 0.099323 0.000000
# 6 0.000000 0.000000 0.000000 0.000000 0.000000 0.045826
#
#
# Mechanical properties :
#
#
# Convention : Reuss Voigt Hill
#
# Bulk Modulus (GPa) = 55.52514 58.01328 56.76921
# Shear Modulus (GPa) = 17.17925 19.67684 18.42804
#
# Velocity S-wave (km/s) = 3.37050 3.60720 3.49085
# Velocity P-wave (km/s) = 7.20171 7.46405 7.33405
#
# Compressibility (1/GPa) = 0.01800986
#
# Stress axis : x y z
#
# Youngs Moduli (GPa) = 41.49192 46.43314 76.69474
#
# Poissons Ratio (x) = 0.48368 0.36072
# Poissons Ratio (y) = 0.43221 0.39982
# Poissons Ratio (z) = 0.19515 0.24206
#
# Static dielectric constant tensor:
#      x y z
#    x 2.747080 0.000000 0.000000 
#    y 0.000000 2.882040 0.000000 
#    z 0.000000 0.000000 3.416760 
# 
# 
# High freq. dielectric constant tensor:
#      x y z
#    x 1.541530 0.000000 0.000000 
#    y 0.000000 1.561100 0.000000 
#    z 0.000000 0.000000 1.602040 
# 
# From -- ./inp_files/26672.got.cif
#   From: 2010.03.12/outbox.cif.g09.slc.cpg/sg65_14_cif.got.tgz:26672.got - 2010.04.10 20:52:16.
