data_PCOD8265768
_publ_section_title
;
Structure prediction by ZEFSAII (Michael W. Deem and Ramdas Pophale) SiO2 
 PCOD8265768
Probable space group: C M M M
;
_chemical_formula_sum "Si O2"
_cell_formula_units_Z 96
_cell_length_a 23.742763
_cell_length_b 23.642117
_cell_length_c 11.667582
_cell_angle_alpha 90.000000
_cell_angle_beta 90.000000
_cell_angle_gamma 90.000000
_cell_volume 6549.354245
_symmetry_space_group_name_H-M "C M M M"
_symmetry_group_IT_number 65
_symmetry_cell_setting 'orthorhombic'
loop_
_space_group_symop_operation_xyz
x,y,z
-x,-y,z
x,-y,-z
-x,y,-z
-x,-y,-z
x,y,-z
-x,y,z
x,-y,z
1/2+x,1/2+y,z
1/2-x,1/2-y,z
1/2+x,1/2-y,-z
1/2-x,1/2+y,-z
1/2-x,1/2-y,-z
1/2+x,1/2+y,-z
1/2-x,1/2+y,z
1/2+x,1/2-y,z
loop_
_atom_site_type_symbol
_atom_site_label
_atom_site_fract_x
_atom_site_fract_y
_atom_site_fract_z
Si Si1 0.062838 0.368540 0.500000
Si Si2 0.563187 0.170534 0.747595
Si Si3 0.274035 0.936126 0.736652
Si Si4 0.110859 0.563562 0.132783
Si Si5 0.160104 0.733577 0.867861
Si Si6 0.674756 0.066480 0.500000
Si Si7 0.769847 0.160394 0.867652
O O1 0.070785 0.329271 0.389073
O O2 0.109472 0.417080 0.500000
O O3 0.000000 0.396109 0.500000
O O4 0.500000 0.188528 0.781729
O O5 0.573526 0.107521 0.796411
O O6 0.605498 0.217337 0.795689
O O7 0.325183 0.934681 0.825593
O O8 0.293504 0.911404 0.613465
O O9 0.225536 0.895322 0.787835
O O10 0.250220 0.000000 0.725049
O O11 0.086475 0.500000 0.150554
O O12 0.109863 0.581325 0.000000
O O13 0.181634 0.795617 0.830358
O O14 0.208874 0.688015 0.846721
O O15 0.142777 0.734058 0.000000
O O16 0.674884 0.000000 0.500000
O O17 0.777550 0.143573 0.000000
#
# Coordination Sequence:
#
# PCOD8265768 Si02
#       7
#     8  16  16  16  16   8  16
#     4  10  20  31  43  57  77 115 158 186 212 247
#     4  11  21  32  45  60  84 114 147 185 218 252
#     4  10  18  28  44  64  87 112 141 177 216 254
#     4  10  19  29  42  60  82 109 142 178 216 255
#     4   9  17  29  45  64  84 109 141 175 218 263
#     4  10  18  29  43  59  83 117 150 182 214 250
#     4   9  16  28  46  64  85 110 138 175 215 264
#
# _framework density 14.657933999999999
#
# number of rings (size 3 to 8) (size 9 to 14) (size 15 to 20)
#    0.000    2.167    3.333    2.000    0.000    2.833 
#    0.000    3.333    0.000    3.000    0.000    0.000 
#    0.000    0.667    0.000    3.667    0.000    9.333 
#
# Total GULP energy -595083.436400 kJ/mol
# GULP energy per Si atom -12397.571592 kJ/mol
# Density = 1.462457 g / cm^3
# Si number density = 14.657934 Si / 1000 Ang^3
#
#
#
# Elastic Constant Matrix: (Units=GPa)
#
#
# Indices 1 2 3 4 5 6 
#
# 1 61.8642 43.0686 40.0571 0.0000 0.0000 0.0000
# 2 43.0686 79.9719 47.6076 0.0000 0.0000 0.0000
# 3 40.0571 47.6076 95.7314 0.0000 0.0000 0.0000
# 4 0.0000 0.0000 0.0000 18.8057 0.0000 0.0000
# 5 0.0000 0.0000 0.0000 0.0000 19.7362 0.0000
# 6 0.0000 0.0000 0.0000 0.0000 0.0000 24.7843
#
#
#
# Elastic Compliance Matrix: (Units=1/GPa)
#
#
# Indices 1 2 3 4 5 6 
#
# 1 0.028102 -0.011555 -0.006012 0.000000 0.000000 0.000000
# 2 -0.011555 0.022514 -0.006362 0.000000 0.000000 0.000000
# 3 -0.006012 -0.006362 0.016125 0.000000 0.000000 0.000000
# 4 0.000000 0.000000 0.000000 0.053175 0.000000 0.000000
# 5 0.000000 0.000000 0.000000 0.000000 0.050668 0.000000
# 6 0.000000 0.000000 0.000000 0.000000 0.000000 0.040348
#
#
# Mechanical properties :
#
#
# Convention : Reuss Voigt Hill
#
# Bulk Modulus (GPa) = 52.95564 55.44824 54.20194
# Shear Modulus (GPa) = 18.86187 19.78753 19.32470
#
# Velocity S-wave (km/s) = 3.59109 3.67816 3.63489
# Velocity P-wave (km/s) = 7.30758 7.47989 7.39423
#
# Compressibility (1/GPa) = 0.01888373
#
# Stress axis : x y z
#
# Youngs Moduli (GPa) = 35.58494 44.41621 62.01450
#
# Poissons Ratio (x) = 0.51323 0.37285
# Poissons Ratio (y) = 0.41118 0.39451
# Poissons Ratio (z) = 0.21395 0.28255
#
# Static dielectric constant tensor:
#      x y z
#    x 2.573420 0.000000 0.000000 
#    y 0.000000 2.838730 0.000000 
#    z 0.000000 0.000000 3.102090 
# 
# 
# High freq. dielectric constant tensor:
#      x y z
#    x 1.520200 0.000000 0.000000 
#    y 0.000000 1.541690 0.000000 
#    z 0.000000 0.000000 1.572550 
# 
# From -- ./inp_files/29285.got.cif
#   From: 2010.03.12/outbox.cif.g09.slc.cpg/sg65_15_cif.got.tgz:29285.got - 2010.04.10 20:52:16.
