data_PCOD8265629
_publ_section_title
;
Structure prediction by ZEFSAII (Michael W. Deem and Ramdas Pophale) SiO2 
 PCOD8265629
Probable space group: C M M M
;
_chemical_formula_sum "Si O2"
_cell_formula_units_Z 80
_cell_length_a 14.049305
_cell_length_b 25.501068
_cell_length_c 13.755426
_cell_angle_alpha 90.000000
_cell_angle_beta 90.000000
_cell_angle_gamma 90.000000
_cell_volume 4928.187865
_symmetry_space_group_name_H-M "C M M M"
_symmetry_group_IT_number 65
_symmetry_cell_setting 'orthorhombic'
loop_
_space_group_symop_operation_xyz
x,y,z
-x,-y,z
x,-y,-z
-x,y,-z
-x,-y,-z
x,y,-z
-x,y,z
x,-y,z
1/2+x,1/2+y,z
1/2-x,1/2-y,z
1/2+x,1/2-y,-z
1/2-x,1/2+y,-z
1/2-x,1/2-y,-z
1/2+x,1/2+y,-z
1/2-x,1/2+y,z
1/2+x,1/2-y,z
loop_
_atom_site_type_symbol
_atom_site_label
_atom_site_fract_x
_atom_site_fract_y
_atom_site_fract_z
Si Si1 0.612668 0.786204 0.704349
Si Si2 0.888014 0.657389 0.106397
Si Si3 0.892427 0.821309 0.387815
Si Si4 0.288825 0.881219 0.610426
Si Si5 0.889657 0.559192 0.771951
O O1 0.500000 0.791934 0.696308
O O2 0.648587 0.800584 0.813727
O O3 0.644089 0.727329 0.677979
O O4 0.655582 0.827037 0.627902
O O5 0.861563 0.598475 0.141046
O O6 0.000000 0.662805 0.096097
O O7 0.840853 0.667412 0.000000
O O8 0.887041 0.803406 0.500000
O O9 0.823356 0.870563 0.368312
O O10 0.000000 0.837830 0.359640
O O11 0.304490 0.899209 0.500000
O O12 0.326209 0.928038 0.677740
O O13 0.868735 0.500000 0.806354
O O14 0.000000 0.566862 0.742992
#
# Coordination Sequence:
#
# PCOD8265629 Si02
#       5
#    16  16  16  16  16
#     4   9  16  25  39  61  87 111 136 167 200 237
#     4   8  14  25  41  61  85 112 139 165 196 238
#     4   9  17  28  42  60  81 108 144 178 202 231
#     4  10  18  27  41  59  82 112 140 168 204 243
#     4   9  18  30  43  62  85 107 134 168 206 249
#
# _framework density 16.233148
#
# number of rings (size 3 to 8) (size 9 to 14) (size 15 to 20)
#    0.000    3.000    0.000    3.000    0.000    4.800 
#    0.000    3.000    0.000   10.200    0.000    2.800 
#    0.000    0.000    0.000    7.200    0.000    0.800 
#
# Total GULP energy -495785.186506 kJ/mol
# GULP energy per Si atom -12394.629663 kJ/mol
# Density = 1.619620 g / cm^3
# Si number density = 16.233148 Si / 1000 Ang^3
#
#
#
# Elastic Constant Matrix: (Units=GPa)
#
#
# Indices 1 2 3 4 5 6 
#
# 1 29.0598 15.7474 18.7827 0.0000 0.0000 0.0000
# 2 15.7474 45.2775 26.7854 0.0000 0.0000 0.0000
# 3 18.7827 26.7854 92.7495 0.0000 0.0000 0.0000
# 4 0.0000 0.0000 0.0000 15.6753 0.0000 0.0000
# 5 0.0000 0.0000 0.0000 0.0000 10.8970 0.0000
# 6 0.0000 0.0000 0.0000 0.0000 0.0000 20.1763
#
#
#
# Elastic Compliance Matrix: (Units=1/GPa)
#
#
# Indices 1 2 3 4 5 6 
#
# 1 0.044608 -0.012266 -0.005491 0.000000 0.000000 0.000000
# 2 -0.012266 0.030010 -0.006183 0.000000 0.000000 0.000000
# 3 -0.005491 -0.006183 0.013679 0.000000 0.000000 0.000000
# 4 0.000000 0.000000 0.000000 0.063795 0.000000 0.000000
# 5 0.000000 0.000000 0.000000 0.000000 0.091768 0.000000
# 6 0.000000 0.000000 0.000000 0.000000 0.000000 0.049563
#
#
# Mechanical properties :
#
#
# Convention : Reuss Voigt Hill
#
# Bulk Modulus (GPa) = 24.74194 32.19086 28.46640
# Shear Modulus (GPa) = 14.09346 16.40115 15.24730
#
# Velocity S-wave (km/s) = 2.94970 3.18205 3.06808
# Velocity P-wave (km/s) = 5.18418 5.77702 5.48861
#
# Compressibility (1/GPa) = 0.04041721
#
# Stress axis : x y z
#
# Youngs Moduli (GPa) = 22.41752 33.32273 73.10348
#
# Poissons Ratio (x) = 0.40874 0.40143
# Poissons Ratio (y) = 0.27497 0.45197
# Poissons Ratio (z) = 0.12310 0.20602
#
# Static dielectric constant tensor:
#      x y z
#    x 3.011820 0.000000 0.000000 
#    y 0.000000 2.899790 0.000000 
#    z 0.000000 0.000000 3.287400 
# 
# 
# High freq. dielectric constant tensor:
#      x y z
#    x 1.604580 0.000000 0.000000 
#    y 0.000000 1.598460 0.000000 
#    z 0.000000 0.000000 1.618910 
# 
# From -- ./inp_files/24626.got.cif
#   From: 2010.03.12/outbox.cif.g09.slc.cpg/sg65_13_cif.got.tgz:24626.got - 2010.04.10 20:52:16.
