data_PCOD8265590
_publ_section_title
;
Structure prediction by ZEFSAII (Michael W. Deem and Ramdas Pophale) SiO2 
 PCOD8265590
Probable space group: C M M M
;
_chemical_formula_sum "Si O2"
_cell_formula_units_Z 80
_cell_length_a 18.114507
_cell_length_b 20.725971
_cell_length_c 12.575525
_cell_angle_alpha 90.000000
_cell_angle_beta 90.000000
_cell_angle_gamma 90.000000
_cell_volume 4721.364497
_symmetry_space_group_name_H-M "C M M M"
_symmetry_group_IT_number 65
_symmetry_cell_setting 'orthorhombic'
loop_
_space_group_symop_operation_xyz
x,y,z
-x,-y,z
x,-y,-z
-x,y,-z
-x,-y,-z
x,y,-z
-x,y,z
x,-y,z
1/2+x,1/2+y,z
1/2-x,1/2-y,z
1/2+x,1/2-y,-z
1/2-x,1/2+y,-z
1/2-x,1/2-y,-z
1/2+x,1/2+y,-z
1/2-x,1/2+y,z
1/2+x,1/2-y,z
loop_
_atom_site_type_symbol
_atom_site_label
_atom_site_fract_x
_atom_site_fract_y
_atom_site_fract_z
Si Si1 0.583425 0.882512 0.500000
Si Si2 0.287595 0.928194 0.878915
Si Si3 0.915029 0.240979 0.289442
Si Si4 0.582310 0.893736 0.269873
Si Si5 0.806634 0.807035 0.123632
Si Si6 0.837341 0.747975 0.500000
O O1 0.500000 0.852033 0.500000
O O2 0.593771 0.922459 0.390249
O O3 0.642855 0.826661 0.500000
O O4 0.361102 0.926821 0.809017
O O5 0.228311 0.875453 0.840834
O O6 0.252860 0.000000 0.869549
O O7 0.310874 0.912492 0.000000
O O8 0.906089 0.317103 0.271818
O O9 0.881339 0.203208 0.189129
O O10 0.871184 0.218351 0.395033
O O11 0.000000 0.220657 0.300286
O O12 0.500000 0.910718 0.229747
O O13 0.750000 0.750000 0.151759
O O14 0.827912 0.806611 0.000000
O O15 0.750000 0.750000 0.500000
#
# Coordination Sequence:
#
# PCOD8265590 Si02
#       6
#     8  16  16  16  16   8
#     4   8  16  30  45  67 101 136 165 199 239 286
#     4  10  21  35  50  70 100 135 168 207 254 302
#     4  10  19  31  49  76 107 134 165 206 252 299
#     4   9  17  30  49  71 101 136 168 201 244 299
#     4  10  19  33  52  74 100 129 167 214 257 295
#     4  10  18  26  46  76 107 136 162 198 248 297
#
# _framework density 16.944254000000001
#
# number of rings (size 3 to 8) (size 9 to 14) (size 15 to 20)
#    0.000    2.400    2.000    2.700    2.800    1.200 
#    0.000    3.500    0.000    2.400    0.000    2.800 
#    0.000    1.600    0.000    0.000    0.000    0.000 
#
# Total GULP energy -495850.635356 kJ/mol
# GULP energy per Si atom -12396.265884 kJ/mol
# Density = 1.690569 g / cm^3
# Si number density = 16.944254 Si / 1000 Ang^3
#
#
#
# Elastic Constant Matrix: (Units=GPa)
#
#
# Indices 1 2 3 4 5 6 
#
# 1 114.6183 33.0694 56.5191 0.0000 0.0000 0.0000
# 2 33.0694 72.1782 27.7746 0.0000 0.0000 0.0000
# 3 56.5191 27.7746 90.3374 0.0000 0.0000 0.0000
# 4 0.0000 0.0000 0.0000 10.2516 0.0000 0.0000
# 5 0.0000 0.0000 0.0000 0.0000 34.0047 0.0000
# 6 0.0000 0.0000 0.0000 0.0000 0.0000 17.7774
#
#
#
# Elastic Compliance Matrix: (Units=1/GPa)
#
#
# Indices 1 2 3 4 5 6 
#
# 1 0.013265 -0.003271 -0.007293 0.000000 0.000000 0.000000
# 2 -0.003271 0.016520 -0.003033 0.000000 0.000000 0.000000
# 3 -0.007293 -0.003033 0.016565 0.000000 0.000000 0.000000
# 4 0.000000 0.000000 0.000000 0.097546 0.000000 0.000000
# 5 0.000000 0.000000 0.000000 0.000000 0.029408 0.000000
# 6 0.000000 0.000000 0.000000 0.000000 0.000000 0.056251
#
#
# Mechanical properties :
#
#
# Convention : Reuss Voigt Hill
#
# Bulk Modulus (GPa) = 52.20301 56.87333 54.53817
# Shear Modulus (GPa) = 19.00173 23.05814 21.02994
#
# Velocity S-wave (km/s) = 3.35240 3.69294 3.52678
# Velocity P-wave (km/s) = 6.77203 7.19872 6.98863
#
# Compressibility (1/GPa) = 0.01915598
#
# Stress axis : x y z
#
# Youngs Moduli (GPa) = 75.38799 60.53181 60.36786
#
# Poissons Ratio (x) = 0.19799 0.44028
# Poissons Ratio (y) = 0.24658 0.18308
# Poissons Ratio (z) = 0.54983 0.18358
#
# Static dielectric constant tensor:
#      x y z
#    x 3.035300 0.000000 0.000000 
#    y 0.000000 2.961890 0.000000 
#    z 0.000000 0.000000 3.453460 
# 
# 
# High freq. dielectric constant tensor:
#      x y z
#    x 1.639700 0.000000 0.000000 
#    y 0.000000 1.619490 0.000000 
#    z 0.000000 0.000000 1.669510 
# 
# From -- ./inp_files/26715.got.cif
#   From: 2010.03.12/outbox.cif.g09.slc.cpg/sg65_14_cif.got.tgz:26715.got - 2010.04.10 20:52:16.
