data_PCOD8265285
_publ_section_title
;
Structure prediction by ZEFSAII (Michael W. Deem and Ramdas Pophale) SiO2 
 PCOD8265285
Probable space group: C M M M
;
_chemical_formula_sum "Si O2"
_cell_formula_units_Z 80
_cell_length_a 8.662779
_cell_length_b 18.612411
_cell_length_c 25.869380
_cell_angle_alpha 90.000000
_cell_angle_beta 90.000000
_cell_angle_gamma 90.000000
_cell_volume 4171.054740
_symmetry_space_group_name_H-M "C M M M"
_symmetry_group_IT_number 65
_symmetry_cell_setting 'orthorhombic'
loop_
_space_group_symop_operation_xyz
x,y,z
-x,-y,z
x,-y,-z
-x,y,-z
-x,-y,-z
x,y,-z
-x,y,z
x,-y,z
1/2+x,1/2+y,z
1/2-x,1/2-y,z
1/2+x,1/2-y,-z
1/2-x,1/2+y,-z
1/2-x,1/2-y,-z
1/2+x,1/2+y,-z
1/2-x,1/2+y,z
1/2+x,1/2-y,z
loop_
_atom_site_type_symbol
_atom_site_label
_atom_site_fract_x
_atom_site_fract_y
_atom_site_fract_z
Si Si1 0.818697 0.328585 0.261634
Si Si2 0.321553 0.584179 0.646788
Si Si3 0.319928 0.828747 0.056005
Si Si4 0.682311 0.670129 0.157337
Si Si5 0.319699 0.173937 0.559997
O O1 0.750000 0.250000 0.271877
O O2 0.780757 0.379284 0.309338
O O3 0.748069 0.365562 0.209721
O O4 0.000000 0.320904 0.254754
O O5 0.500000 0.603813 0.655338
O O6 0.292128 0.500000 0.649030
O O7 0.266096 0.611466 0.591023
O O8 0.500000 0.822599 0.067868
O O9 0.250000 0.750000 0.052267
O O10 0.239497 0.870136 0.104540
O O11 0.291113 0.867422 0.000000
O O12 0.500000 0.670144 0.159556
O O13 0.750000 0.750000 0.155673
O O14 0.287358 0.159050 0.500000
O O15 0.500000 0.173926 0.573075
O O16 0.250000 0.250000 0.577362
#
# Coordination Sequence:
#
# PCOD8265285 Si02
#       5
#    16  16  16  16  16
#     4  11  21  35  55  76 102 135 175 219 263 313
#     4  11  24  40  57  79 109 142 176 216 263 313
#     4   9  15  22  33  52  82 120 160 201 249 305
#     4  10  17  26  41  62  90 123 164 209 255 307
#     4  10  21  38  61  87 114 144 179 217 256 303
#
# _framework density 19.179801000000001
#
# number of rings (size 3 to 8) (size 9 to 14) (size 15 to 20)
#    0.000    1.800    0.000    8.400    0.000    4.400 
#    0.000    2.000    0.000    0.000    0.000    0.000 
#    0.000    0.800    0.000    8.400    0.000    7.000 
#
# Total GULP energy -495845.993024 kJ/mol
# GULP energy per Si atom -12396.149826 kJ/mol
# Density = 1.913615 g / cm^3
# Si number density = 19.179801 Si / 1000 Ang^3
#
#
#
# Elastic Constant Matrix: (Units=GPa)
#
#
# Indices 1 2 3 4 5 6 
#
# 1 156.2753 37.0227 59.1680 0.0000 0.0000 0.0000
# 2 37.0227 49.6208 42.1955 0.0000 0.0000 0.0000
# 3 59.1680 42.1955 139.1010 0.0000 0.0000 0.0000
# 4 0.0000 0.0000 0.0000 0.8523 0.0000 0.0000
# 5 0.0000 0.0000 0.0000 0.0000 38.7978 0.0000
# 6 0.0000 0.0000 0.0000 0.0000 0.0000 19.6752
#
#
#
# Elastic Compliance Matrix: (Units=1/GPa)
#
#
# Indices 1 2 3 4 5 6 
#
# 1 0.008249 -0.004273 -0.002213 0.000000 0.000000 0.000000
# 2 -0.004273 0.029372 -0.007092 0.000000 0.000000 0.000000
# 3 -0.002213 -0.007092 0.010282 0.000000 0.000000 0.000000
# 4 0.000000 0.000000 0.000000 1.173342 0.000000 0.000000
# 5 0.000000 0.000000 0.000000 0.000000 0.025775 0.000000
# 6 0.000000 0.000000 0.000000 0.000000 0.000000 0.050825
#
#
# Mechanical properties :
#
#
# Convention : Reuss Voigt Hill
#
# Bulk Modulus (GPa) = 48.20050 69.08551 58.64300
# Shear Modulus (GPa) = 3.75399 25.63913 14.69656
#
# Velocity S-wave (km/s) = 1.40054 3.66016 2.77113
# Velocity P-wave (km/s) = 5.27264 7.34578 6.39380
#
# Compressibility (1/GPa) = 0.02074667
#
# Stress axis : x y z
#
# Youngs Moduli (GPa) = 121.22647 34.04597 97.26192
#
# Poissons Ratio (x) = 0.14549 0.21520
# Poissons Ratio (y) = 0.51803 0.68980
# Poissons Ratio (z) = 0.26822 0.24146
#
# Static dielectric constant tensor:
#      x y z
#    x 3.610620 0.000000 0.000000 
#    y 0.000000 2.929740 0.000000 
#    z 0.000000 0.000000 4.609310 
# 
# 
# High freq. dielectric constant tensor:
#      x y z
#    x 1.768460 0.000000 0.000000 
#    y 0.000000 1.673430 0.000000 
#    z 0.000000 0.000000 1.780470 
# 
# From -- ./inp_files/72716.got.cif
#   From: 2010.03.12/outbox.cif.g09.slc.cpg/sg65_37_cif.got.tgz:72716.got - 2010.04.10 20:52:16.
