data_PCOD8265548
_publ_section_title
;
Structure prediction by ZEFSAII (Michael W. Deem and Ramdas Pophale) SiO2 
 PCOD8265548
Probable space group: C M M M
;
_chemical_formula_sum "Si O2"
_cell_formula_units_Z 112
_cell_length_a 28.024099
_cell_length_b 20.900655
_cell_length_c 13.635958
_cell_angle_alpha 90.000000
_cell_angle_beta 90.000000
_cell_angle_gamma 90.000000
_cell_volume 7986.880931
_symmetry_space_group_name_H-M "C M M M"
_symmetry_group_IT_number 65
_symmetry_cell_setting 'orthorhombic'
loop_
_space_group_symop_operation_xyz
x,y,z
-x,-y,z
x,-y,-z
-x,y,-z
-x,-y,-z
x,y,-z
-x,y,z
x,-y,z
1/2+x,1/2+y,z
1/2-x,1/2-y,z
1/2+x,1/2-y,-z
1/2-x,1/2+y,-z
1/2-x,1/2-y,-z
1/2+x,1/2+y,-z
1/2-x,1/2+y,z
1/2+x,1/2-y,z
loop_
_atom_site_type_symbol
_atom_site_label
_atom_site_fract_x
_atom_site_fract_y
_atom_site_fract_z
Si Si1 0.055925 0.747250 0.389147
Si Si2 0.554792 0.074690 0.111853
Si Si3 0.446593 0.000000 0.615186
Si Si4 0.554201 0.500000 0.617158
Si Si5 0.099864 0.624496 0.703602
Si Si6 0.307067 0.823840 0.383518
Si Si7 0.105099 0.125673 0.383436
Si Si8 0.298222 0.678515 0.384667
O O1 0.075003 0.736571 0.500000
O O2 0.070106 0.686448 0.326308
O O3 0.078554 0.811413 0.343040
O O4 0.000000 0.756812 0.388001
O O5 0.500000 0.095276 0.131174
O O6 0.591018 0.114412 0.180447
O O7 0.560788 0.000000 0.136006
O O8 0.569064 0.089235 0.000000
O O9 0.418904 0.063062 0.646586
O O10 0.500000 0.000000 0.661524
O O11 0.450554 0.000000 0.500000
O O12 0.500000 0.500000 0.655198
O O13 0.555622 0.500000 0.500000
O O14 0.581048 0.437877 0.660691
O O15 0.155606 0.633753 0.678083
O O16 0.314640 0.835098 0.500000
O O17 0.314166 0.749769 0.353094
O O18 0.253816 0.843371 0.346129
O O19 0.100141 0.124248 0.500000
O O20 0.160855 0.128669 0.351155
O O21 0.292781 0.680907 0.500000
#
# Coordination Sequence:
#
# PCOD8265548 Si02
#       8
#    16  16   8   8  16  16  16  16
#     4  10  18  25  36  57  85 112 141 174 207 252
#     4   9  18  33  49  61  77 108 149 185 215 255
#     4  11  22  30  36  54  90 125 144 162 200 253
#     4   9  16  24  35  51  73 104 141 177 210 240
#     4  12  19  28  43  61  82 112 145 178 215 249
#     4   9  16  26  41  60  83 111 144 178 207 246
#     4   9  15  25  38  53  75 107 144 177 207 239
#     4   8  14  26  41  56  77 110 148 177 204 239
#
# _framework density 14.022995999999999
#
# number of rings (size 3 to 8) (size 9 to 14) (size 15 to 20)
#    0.000    2.429    2.143    4.286    0.000    2.857 
#    0.000    0.714    0.000    2.571    0.000    2.000 
#    0.000    0.000    0.000    0.643    0.000    7.143 
#
# Total GULP energy -694074.607776 kJ/mol
# GULP energy per Si atom -12394.189425 kJ/mol
# Density = 1.399108 g / cm^3
# Si number density = 14.022996 Si / 1000 Ang^3
#
#
#
# Elastic Constant Matrix: (Units=GPa)
#
#
# Indices 1 2 3 4 5 6 
#
# 1 118.7831 60.9865 30.0747 0.0000 0.0000 0.0000
# 2 60.9865 97.2024 27.5959 0.0000 0.0000 0.0000
# 3 30.0747 27.5959 49.6274 0.0000 0.0000 0.0000
# 4 0.0000 0.0000 0.0000 -4.0483 0.0000 0.0000
# 5 0.0000 0.0000 0.0000 0.0000 11.8850 0.0000
# 6 0.0000 0.0000 0.0000 0.0000 0.0000 29.9428
#
#
#
# Elastic Compliance Matrix: (Units=1/GPa)
#
#
# Indices 1 2 3 4 5 6 
#
# 1 0.013051 -0.007057 -0.003985 0.000000 0.000000 0.000000
# 2 -0.007057 0.016032 -0.004638 0.000000 0.000000 0.000000
# 3 -0.003985 -0.004638 0.025144 0.000000 0.000000 0.000000
# 4 0.000000 0.000000 0.000000 -0.247018 0.000000 0.000000
# 5 0.000000 0.000000 0.000000 0.000000 0.084140 0.000000
# 6 0.000000 0.000000 0.000000 0.000000 0.000000 0.033397
#
#
# Mechanical properties :
#
#
# Convention : Reuss Voigt Hill
#
# Bulk Modulus (GPa) = 43.73105 55.88077 49.80591
# Shear Modulus (GPa) = -137.85057 17.35295 -60.24881
#
# Velocity S-wave (km/s) = -9.92555 3.52158 -6.56183
# Velocity P-wave (km/s) = 10.00513 7.51473 4.67072
#
# Compressibility (1/GPa) = 0.02286705
#
# Stress axis : x y z
#
# Youngs Moduli (GPa) = 76.62299 62.37379 39.77057
#
# Poissons Ratio (x) = 0.44018 0.15848
# Poissons Ratio (y) = 0.54073 0.18447
# Poissons Ratio (z) = 0.30533 0.28931
#
# Static dielectric constant tensor:
#      x y z
#    x 2.998170 0.000000 0.000000 
#    y 0.000000 2.946350 0.000000 
#    z 0.000000 0.000000 2.347990 
# 
# 
# High freq. dielectric constant tensor:
#      x y z
#    x 1.546890 0.000000 0.000000 
#    y 0.000000 1.531540 0.000000 
#    z 0.000000 0.000000 1.468970 
# 
# From -- ./inp_files/48160.got.cif
#   From: 2010.03.12/outbox.cif.g09.slc.cpg/sg65_25_cif.got.tgz:48160.got - 2010.04.10 20:52:16.
