data_PCOD8265885
_publ_section_title
;
Structure prediction by ZEFSAII (Michael W. Deem and Ramdas Pophale) SiO2 
 PCOD8265885
Probable space group: C M M M
;
_chemical_formula_sum "Si O2"
_cell_formula_units_Z 80
_cell_length_a 24.818295
_cell_length_b 9.032065
_cell_length_c 20.324729
_cell_angle_alpha 90.000000
_cell_angle_beta 90.000000
_cell_angle_gamma 90.000000
_cell_volume 4556.000473
_symmetry_space_group_name_H-M "C M M M"
_symmetry_group_IT_number 65
_symmetry_cell_setting 'orthorhombic'
loop_
_space_group_symop_operation_xyz
x,y,z
-x,-y,z
x,-y,-z
-x,y,-z
-x,-y,-z
x,y,-z
-x,y,z
x,-y,z
1/2+x,1/2+y,z
1/2-x,1/2-y,z
1/2+x,1/2-y,-z
1/2-x,1/2+y,-z
1/2-x,1/2-y,-z
1/2+x,1/2+y,-z
1/2-x,1/2+y,z
1/2+x,1/2-y,z
loop_
_atom_site_type_symbol
_atom_site_label
_atom_site_fract_x
_atom_site_fract_y
_atom_site_fract_z
Si Si1 0.606578 0.826805 0.745096
Si Si2 0.000000 0.668391 0.885162
Si Si3 0.191620 0.824505 0.000000
Si Si4 0.807209 0.326266 0.358028
Si Si5 0.500000 0.326817 0.248240
Si Si6 0.805932 0.670747 0.500000
Si Si7 0.382164 0.831294 0.898008
O O1 0.654393 0.765726 0.699396
O O2 0.553298 0.743501 0.719916
O O3 0.620146 0.790719 0.820975
O O4 0.597014 0.000000 0.734922
O O5 0.055982 0.688839 0.925418
O O6 0.000000 0.500000 0.854724
O O7 0.000000 0.790428 0.828836
O O8 0.250000 0.750000 0.000000
O O9 0.158345 0.776502 0.064425
O O10 0.198785 0.000000 0.000000
O O11 0.798158 0.500000 0.349325
O O12 0.750000 0.250000 0.349696
O O13 0.834708 0.289627 0.430154
O O14 0.500000 0.500000 0.260471
O O15 0.791881 0.500000 0.500000
O O16 0.750000 0.750000 0.500000
O O17 0.363338 0.000000 0.910343
#
# Coordination Sequence:
#
# PCOD8265885 Si02
#       7
#    16   8   8  16   8   8  16
#     4   9  18  33  52  73  99 131 163 196 239 290
#     4   8  16  33  57  80 102 127 153 188 240 295
#     4  12  26  41  54  69  95 132 168 202 243 290
#     4   9  17  29  47  72 100 129 161 198 241 288
#     4  10  18  28  47  74 101 128 161 202 243 282
#     4   8  14  26  44  67  96 127 159 196 238 284
#     4   9  18  35  56  76  98 126 161 198 239 289
#
# _framework density 17.559260999999999
#
# number of rings (size 3 to 8) (size 9 to 14) (size 15 to 20)
#    0.000    2.800    0.000    3.000    0.000    5.200 
#    0.000    4.000    0.000    0.600    0.000    4.200 
#    0.000    0.000    0.000    0.000    0.000    0.000 
#
# Total GULP energy -495546.437925 kJ/mol
# GULP energy per Si atom -12388.660948 kJ/mol
# Density = 1.751930 g / cm^3
# Si number density = 17.559261 Si / 1000 Ang^3
#
#
#
# Elastic Constant Matrix: (Units=GPa)
#
#
# Indices 1 2 3 4 5 6 
#
# 1 138.2854 55.4173 70.2826 0.0000 0.0000 0.0000
# 2 55.4173 72.2888 39.2150 0.0000 0.0000 0.0000
# 3 70.2826 39.2150 106.8113 0.0000 0.0000 0.0000
# 4 0.0000 0.0000 0.0000 18.7589 0.0000 0.0000
# 5 0.0000 0.0000 0.0000 0.0000 -3.6928 0.0000
# 6 0.0000 0.0000 0.0000 0.0000 0.0000 27.5393
#
#
#
# Elastic Compliance Matrix: (Units=1/GPa)
#
#
# Indices 1 2 3 4 5 6 
#
# 1 0.013006 -0.006653 -0.006115 0.000000 0.000000 0.000000
# 2 -0.006653 0.020677 -0.003214 0.000000 0.000000 0.000000
# 3 -0.006115 -0.003214 0.014566 0.000000 0.000000 0.000000
# 4 0.000000 0.000000 0.000000 0.053308 0.000000 0.000000
# 5 0.000000 0.000000 0.000000 0.000000 -0.270798 0.000000
# 6 0.000000 0.000000 0.000000 0.000000 0.000000 0.036312
#
#
# Mechanical properties :
#
#
# Convention : Reuss Voigt Hill
#
# Bulk Modulus (GPa) = 61.40648 71.91281 66.65965
# Shear Modulus (GPa) = -52.33505 18.68580 -16.82462
#
# Velocity S-wave (km/s) = -5.46530 3.26568 -3.09878
# Velocity P-wave (km/s) = 2.18612 7.43390 5.02413
#
# Compressibility (1/GPa) = 0.01628493
#
# Stress axis : x y z
#
# Youngs Moduli (GPa) = 76.89044 48.36316 68.65271
#
# Poissons Ratio (x) = 0.32175 0.41983
# Poissons Ratio (y) = 0.51154 0.22063
# Poissons Ratio (z) = 0.47020 0.15543
#
# Static dielectric constant tensor:
#      x y z
#    x 3.362600 0.000000 0.000000 
#    y 0.000000 3.272660 0.000000 
#    z 0.000000 0.000000 3.512840 
# 
# 
# High freq. dielectric constant tensor:
#      x y z
#    x 1.669580 0.000000 0.000000 
#    y 0.000000 1.670040 0.000000 
#    z 0.000000 0.000000 1.669090 
# 
# From -- ./inp_files/65103.got.cif
#   From: 2010.03.12/outbox.cif.g09.slc.cpg/sg65_33_cif.got.tgz:65103.got - 2010.04.10 20:52:16.
