data_PCOD8265524
_publ_section_title
;
Structure prediction by ZEFSAII (Michael W. Deem and Ramdas Pophale) SiO2 
 PCOD8265524
Probable space group: C M M M
;
_chemical_formula_sum "Si O2"
_cell_formula_units_Z 104
_cell_length_a 18.710470
_cell_length_b 25.192763
_cell_length_c 11.951451
_cell_angle_alpha 90.000000
_cell_angle_beta 90.000000
_cell_angle_gamma 90.000000
_cell_volume 5633.536770
_symmetry_space_group_name_H-M "C M M M"
_symmetry_group_IT_number 65
_symmetry_cell_setting 'orthorhombic'
loop_
_space_group_symop_operation_xyz
x,y,z
-x,-y,z
x,-y,-z
-x,y,-z
-x,-y,-z
x,y,-z
-x,y,z
x,-y,z
1/2+x,1/2+y,z
1/2-x,1/2-y,z
1/2+x,1/2-y,-z
1/2-x,1/2+y,-z
1/2-x,1/2-y,-z
1/2+x,1/2+y,-z
1/2-x,1/2+y,z
1/2+x,1/2-y,z
loop_
_atom_site_type_symbol
_atom_site_label
_atom_site_fract_x
_atom_site_fract_y
_atom_site_fract_z
Si Si1 0.077968 0.347717 0.238461
Si Si2 0.872592 0.938355 0.000000
Si Si3 0.226747 0.384558 0.000000
Si Si4 0.725095 0.192122 0.788045
Si Si5 0.918796 0.062092 0.761728
Si Si6 0.648785 0.060843 0.370577
Si Si7 0.574454 0.892576 0.000000
Si Si8 0.795644 0.883440 0.629678
O O1 0.143223 0.306622 0.260079
O O2 0.095680 0.404061 0.296322
O O3 0.000000 0.327438 0.283523
O O4 0.071681 0.354331 0.106201
O O5 0.907613 0.914478 0.887389
O O6 0.788369 0.927705 0.000000
O O7 0.888379 0.000000 0.000000
O O8 0.231477 0.347848 0.108594
O O9 0.152867 0.420036 0.000000
O O10 0.750000 0.250000 0.826258
O O11 0.777709 0.172028 0.690371
O O12 0.868862 0.092256 0.674857
O O13 0.000000 0.072349 0.724694
O O14 0.899492 0.000000 0.758614
O O15 0.629914 0.070543 0.500000
O O16 0.731238 0.075486 0.346981
O O17 0.636999 0.000000 0.335763
O O18 0.500000 0.928099 0.000000
O O19 0.805867 0.871055 0.500000
#
# Coordination Sequence:
#
# PCOD8265524 Si02
#       8
#    16   8   8  16  16  16   8  16
#     4   9  18  33  52  73 101 134 167 206 256 309
#     4  10  19  33  55  82 111 141 177 219 268 329
#     4  10  17  33  58  82 103 135 177 223 266 315
#     4  10  20  35  56  79 103 137 180 228 269 315
#     4  10  20  34  54  79 109 145 179 217 271 331
#     4   9  18  32  51  75 102 132 168 211 255 302
#     4   8  16  31  48  70 101 133 161 196 245 301
#     4  10  20  35  53  75 105 140 179 223 267 314
#
# _framework density 18.460871999999998
#
# number of rings (size 3 to 8) (size 9 to 14) (size 15 to 20)
#    0.000    2.462    1.538    0.923    0.000    3.077 
#    0.000    2.692    0.000    2.538    0.000    0.000 
#    0.000    0.000    0.000    0.000    0.000    0.000 
#
# Total GULP energy -644360.711950 kJ/mol
# GULP energy per Si atom -12391.552153 kJ/mol
# Density = 1.841885 g / cm^3
# Si number density = 18.460872 Si / 1000 Ang^3
#
#
#
# Elastic Constant Matrix: (Units=GPa)
#
#
# Indices 1 2 3 4 5 6 
#
# 1 122.2153 15.6681 33.7809 0.0000 0.0000 0.0000
# 2 15.6681 35.0349 19.8690 0.0000 0.0000 0.0000
# 3 33.7809 19.8690 98.9400 0.0000 0.0000 0.0000
# 4 0.0000 0.0000 0.0000 9.5719 0.0000 0.0000
# 5 0.0000 0.0000 0.0000 0.0000 -28.2184 0.0000
# 6 0.0000 0.0000 0.0000 0.0000 0.0000 17.0760
#
#
#
# Elastic Compliance Matrix: (Units=1/GPa)
#
#
# Indices 1 2 3 4 5 6 
#
# 1 0.009247 -0.002646 -0.002626 0.000000 0.000000 0.000000
# 2 -0.002646 0.032969 -0.005717 0.000000 0.000000 0.000000
# 3 -0.002626 -0.005717 0.012152 0.000000 0.000000 0.000000
# 4 0.000000 0.000000 0.000000 0.104472 0.000000 0.000000
# 5 0.000000 0.000000 0.000000 0.000000 -0.035438 0.000000
# 6 0.000000 0.000000 0.000000 0.000000 0.000000 0.058562
#
#
# Mechanical properties :
#
#
# Convention : Reuss Voigt Hill
#
# Bulk Modulus (GPa) = 30.87461 43.86958 37.37209
# Shear Modulus (GPa) = 23.28405 12.14405 17.71405
#
# Velocity S-wave (km/s) = 3.55528 2.56759 3.10101
# Velocity P-wave (km/s) = 5.79776 5.71010 5.75410
#
# Compressibility (1/GPa) = 0.03238908
#
# Stress axis : x y z
#
# Youngs Moduli (GPa) = 108.13906 30.33174 82.29238
#
# Poissons Ratio (x) = 0.08027 0.21609
# Poissons Ratio (y) = 0.28617 0.47048
# Poissons Ratio (z) = 0.28396 0.17341
#
# Static dielectric constant tensor:
#      x y z
#    x 3.791680 0.000000 0.000000 
#    y 0.000000 2.927530 0.000000 
#    z 0.000000 0.000000 3.557560 
# 
# 
# High freq. dielectric constant tensor:
#      x y z
#    x 1.731460 0.000000 0.000000 
#    y 0.000000 1.661690 0.000000 
#    z 0.000000 0.000000 1.726300 
# 
# From -- ./inp_files/27554.got.cif
#   From: 2010.03.12/outbox.cif.g09.slc.cpg/sg65_14_cif.got.tgz:27554.got - 2010.04.10 20:52:16.
