data_PCOD8265750
_publ_section_title
;
Structure prediction by ZEFSAII (Michael W. Deem and Ramdas Pophale) SiO2 
 PCOD8265750
Probable space group: C M M M
;
_chemical_formula_sum "Si O2"
_cell_formula_units_Z 104
_cell_length_a 9.347420
_cell_length_b 25.890658
_cell_length_c 26.221615
_cell_angle_alpha 90.000000
_cell_angle_beta 90.000000
_cell_angle_gamma 90.000000
_cell_volume 6345.915450
_symmetry_space_group_name_H-M "C M M M"
_symmetry_group_IT_number 65
_symmetry_cell_setting 'orthorhombic'
loop_
_space_group_symop_operation_xyz
x,y,z
-x,-y,z
x,-y,-z
-x,y,-z
-x,-y,-z
x,y,-z
-x,y,z
x,-y,z
1/2+x,1/2+y,z
1/2-x,1/2-y,z
1/2+x,1/2-y,-z
1/2-x,1/2+y,-z
1/2-x,1/2-y,-z
1/2+x,1/2+y,-z
1/2-x,1/2+y,z
1/2+x,1/2-y,z
loop_
_atom_site_type_symbol
_atom_site_label
_atom_site_fract_x
_atom_site_fract_y
_atom_site_fract_z
Si Si1 0.170931 0.000000 0.883808
Si Si2 0.656169 0.061070 0.500000
Si Si3 0.332721 0.300507 0.118740
Si Si4 0.829705 0.440463 0.610305
Si Si5 0.670322 0.399719 0.057536
Si Si6 0.169654 0.000000 0.230911
Si Si7 0.169142 0.902400 0.704405
Si Si8 0.165945 0.199898 0.763713
O O1 0.230142 0.949672 0.912940
O O2 0.232295 0.000000 0.826325
O O3 0.000000 0.000000 0.883190
O O4 0.500000 0.087147 0.500000
O O5 0.730754 0.076341 0.553830
O O6 0.636184 0.000000 0.500000
O O7 0.500000 0.291158 0.109953
O O8 0.250000 0.250000 0.099483
O O9 0.274893 0.348552 0.086044
O O10 0.297777 0.312376 0.177603
O O11 0.790338 0.500000 0.621542
O O12 0.749392 0.404401 0.650500
O O13 0.000000 0.432302 0.613344
O O14 0.500000 0.401080 0.057667
O O15 0.730090 0.399955 0.000000
O O16 0.224197 0.050912 0.260023
O O17 0.000000 0.000000 0.228078
O O18 0.214171 0.849140 0.730875
O O19 0.000000 0.906140 0.695317
O O20 0.250000 0.250000 0.743960
O O21 0.000000 0.211731 0.756443
#
# Coordination Sequence:
#
# PCOD8265750 Si02
#       8
#     8   8  16  16  16   8  16  16
#     4   9  15  24  39  59  84 115 146 174 211 258
#     4   7  12  24  41  59  84 121 156 181 206 248
#     4   9  17  30  46  64  87 112 141 177 219 264
#     4   9  16  27  43  64  91 122 154 182 212 252
#     4   9  16  25  39  61  87 111 139 179 220 256
#     4   9  16  25  39  59  86 117 143 170 213 268
#     4  10  18  28  43  65  92 118 145 181 224 265
#     4   9  18  31  46  63  85 116 151 183 218 264
#
# _framework density 16.388494000000001
#
# number of rings (size 3 to 8) (size 9 to 14) (size 15 to 20)
#    0.000    3.000    0.769    2.077    0.000    5.538 
#    0.000    0.385    0.000    1.385    0.000    1.077 
#    0.000    1.231    0.000    0.000    0.000    0.000 
#
# Total GULP energy -644567.217184 kJ/mol
# GULP energy per Si atom -12395.523407 kJ/mol
# Density = 1.635119 g / cm^3
# Si number density = 16.388494 Si / 1000 Ang^3
#
#
#
# Elastic Constant Matrix: (Units=GPa)
#
#
# Indices 1 2 3 4 5 6 
#
# 1 20.9208 31.7040 30.2914 0.0000 0.0000 0.0000
# 2 31.7040 138.0639 82.7749 0.0000 0.0000 0.0000
# 3 30.2914 82.7749 146.2566 0.0000 0.0000 0.0000
# 4 0.0000 0.0000 0.0000 17.5324 0.0000 0.0000
# 5 0.0000 0.0000 0.0000 0.0000 16.1789 0.0000
# 6 0.0000 0.0000 0.0000 0.0000 0.0000 21.4439
#
#
#
# Elastic Compliance Matrix: (Units=1/GPa)
#
#
# Indices 1 2 3 4 5 6 
#
# 1 0.081150 -0.012953 -0.009476 0.000000 0.000000 0.000000
# 2 -0.012953 0.013031 -0.004692 0.000000 0.000000 0.000000
# 3 -0.009476 -0.004692 0.011455 0.000000 0.000000 0.000000
# 4 0.000000 0.000000 0.000000 0.057037 0.000000 0.000000
# 5 0.000000 0.000000 0.000000 0.000000 0.061809 0.000000
# 6 0.000000 0.000000 0.000000 0.000000 0.000000 0.046633
#
#
# Mechanical properties :
#
#
# Convention : Reuss Voigt Hill
#
# Bulk Modulus (GPa) = 19.45791 66.08689 42.77240
# Shear Modulus (GPa) = 14.59901 21.72908 18.16405
#
# Velocity S-wave (km/s) = 2.98788 3.64521 3.33279
# Velocity P-wave (km/s) = 4.87872 7.62427 6.40044
#
# Compressibility (1/GPa) = 0.05139298
#
# Stress axis : x y z
#
# Youngs Moduli (GPa) = 12.32289 76.74272 87.29579
#
# Poissons Ratio (x) = 0.99408 0.82721
# Poissons Ratio (y) = 0.15962 0.40958
# Poissons Ratio (z) = 0.11677 0.36007
#
# Static dielectric constant tensor:
#      x y z
#    x 2.658050 0.000000 0.000000 
#    y 0.000000 3.064600 0.000000 
#    z 0.000000 0.000000 3.309440 
# 
# 
# High freq. dielectric constant tensor:
#      x y z
#    x 1.585020 0.000000 0.000000 
#    y 0.000000 1.618500 0.000000 
#    z 0.000000 0.000000 1.639120 
# 
# From -- ./inp_files/73855.got.cif
#   From: 2010.03.12/outbox.cif.g09.slc.cpg/sg65_37_cif.got.tgz:73855.got - 2010.04.10 20:52:16.
