data_PCOD8265045
_publ_section_title
;
Structure prediction by ZEFSAII (Michael W. Deem and Ramdas Pophale) SiO2 
 PCOD8265045
Probable space group: C M C A
;
_chemical_formula_sum "Si O2"
_cell_formula_units_Z 44
_cell_length_a 9.000000
_cell_length_b 24.000000
_cell_length_c 21.000000
_cell_angle_alpha 90.000000
_cell_angle_beta 90.000000
_cell_angle_gamma 90.000000
_cell_volume 4536.000000
_symmetry_space_group_name_H-M "C M C A"
_symmetry_group_IT_number 64
_symmetry_cell_setting 'orthorhombic'
loop_
_space_group_symop_operation_xyz
x,y,z
-x,1/2-y,1/2+z
x,-y,-z
-x,1/2+y,1/2-z
-x,-y,-z
x,1/2+y,1/2-z
-x,y,z
x,1/2-y,1/2+z
1/2+x,1/2+y,z
1/2-x,-y,1/2+z
1/2+x,1/2-y,-z
1/2-x,y,1/2-z
1/2-x,1/2-y,-z
1/2+x,y,1/2-z
1/2-x,1/2+y,z
1/2+x,-y,1/2+z
loop_
_atom_site_type_symbol
_atom_site_label
_atom_site_fract_x
_atom_site_fract_y
_atom_site_fract_z
Si Si1 0.664663 0.822303 0.348813
Si Si2 0.825491 0.406284 0.455561
Si Si3 0.675418 0.791315 0.683853
Si Si4 0.831380 0.990269 0.365041
Si Si5 0.674984 0.398929 0.897337
Si Si6 0.750000 0.412458 0.250000
O O1 0.500000 0.797063 0.355240
O O2 0.715380 0.850795 0.415254
O O3 0.773866 0.770809 0.336148
O O4 0.654426 0.869880 0.293482
O O5 0.744058 0.458862 0.424305
O O6 0.774111 0.398392 0.528611
O O7 0.000000 0.418539 0.451102
O O8 0.500000 0.788419 0.693466
O O9 0.750000 0.808685 0.750000
O O10 0.719764 0.838899 0.632606
O O11 0.832146 0.953955 0.299524
O O12 0.000000 0.001814 0.383809
O O13 0.751852 0.050549 0.358222
O O14 0.500000 0.408388 0.891507
#
# Coordination Sequence:
#
# PCOD8265045 Si02
#       6
#    16  16  16  16  16   8
#     4  10  20  37  63  88 114 150 196 245 294 349
#     4   9  20  40  63  87 119 159 198 238 295 356
#     4  11  24  40  60  86 119 157 197 243 294 349
#     4  11  23  37  60  92 122 154 200 251 293 343
#     4  10  23  42  60  83 121 165 198 235 294 359
#     4  10  22  38  58  86 120 154 192 242 300 354
#
# _framework density 9.7001760000000008
#
# number of rings (size 3 to 8) (size 9 to 14) (size 15 to 20)
#    0.000    1.818    0.909    2.182    1.273   10.182 
#    0.000    0.000    0.000    0.000    0.000    0.000 
#    0.000    0.000    0.000    0.000    0.000    0.000 
#
# Total GULP energy -545408.234636 kJ/mol
# GULP energy per Si atom -12395.641696 kJ/mol
# Density = 0.967810 g / cm^3
# Si number density = 9.700176 Si / 1000 Ang^3
#
#
#
# Elastic Constant Matrix: (Units=GPa)
#
#
# Indices 1 2 3 4 5 6 
#
# 1 81.6672 51.7383 34.3867 0.0000 0.0000 0.0000
# 2 51.7383 158.7437 70.0724 0.0000 0.0000 0.0000
# 3 34.3867 70.0724 128.1323 0.0000 0.0000 0.0000
# 4 0.0000 0.0000 0.0000 38.0232 0.0000 0.0000
# 5 0.0000 0.0000 0.0000 0.0000 23.6836 0.0000
# 6 0.0000 0.0000 0.0000 0.0000 0.0000 22.2007
#
#
#
# Elastic Compliance Matrix: (Units=1/GPa)
#
#
# Indices 1 2 3 4 5 6 
#
# 1 0.015765 -0.004311 -0.001873 0.000000 0.000000 0.000000
# 2 -0.004311 0.009483 -0.004029 0.000000 0.000000 0.000000
# 3 -0.001873 -0.004029 0.010510 0.000000 0.000000 0.000000
# 4 0.000000 0.000000 0.000000 0.026300 0.000000 0.000000
# 5 0.000000 0.000000 0.000000 0.000000 0.042223 0.000000
# 6 0.000000 0.000000 0.000000 0.000000 0.000000 0.045044
#
#
# Mechanical properties :
#
#
# Convention : Reuss Voigt Hill
#
# Bulk Modulus (GPa) = 65.22480 75.65978 70.44229
# Shear Modulus (GPa) = 28.59392 30.93790 29.76591
#
# Velocity S-wave (km/s) = 3.84329 3.99771 3.92126
# Velocity P-wave (km/s) = 7.30670 7.77128 7.54257
#
# Compressibility (1/GPa) = 0.01533159
#
# Stress axis : x y z
#
# Youngs Moduli (GPa) = 63.43241 105.45038 95.14305
#
# Poissons Ratio (x) = 0.45463 0.17820
# Poissons Ratio (y) = 0.27348 0.38334
# Poissons Ratio (z) = 0.11881 0.42487
#
# Static dielectric constant tensor:
#      x y z
#    x 3.397640 0.000000 0.000000 
#    y 0.000000 3.766460 0.000000 
#    z 0.000000 0.000000 3.878900 
# 
# 
# High freq. dielectric constant tensor:
#      x y z
#    x 1.749850 0.000000 0.000000 
#    y 0.000000 1.776320 0.000000 
#    z 0.000000 0.000000 1.772010 
# 
# From -- ./inp_files/36758.got.cif
#   From: 2010.03.12/outbox.ucp.g09.slc.cvg/sg64_19_cif.got.tgz:36758.got - 2010.05.04 19:41:48.
