data_PCOD8265536
_publ_section_title
;
Structure prediction by ZEFSAII (Michael W. Deem and Ramdas Pophale) SiO2 
 PCOD8265536
Probable space group: C M M M
;
_chemical_formula_sum "Si O2"
_cell_formula_units_Z 84
_cell_length_a 21.672956
_cell_length_b 19.231257
_cell_length_c 11.584468
_cell_angle_alpha 90.000000
_cell_angle_beta 90.000000
_cell_angle_gamma 90.000000
_cell_volume 4828.385257
_symmetry_space_group_name_H-M "C M M M"
_symmetry_group_IT_number 65
_symmetry_cell_setting 'orthorhombic'
loop_
_space_group_symop_operation_xyz
x,y,z
-x,-y,z
x,-y,-z
-x,y,-z
-x,-y,-z
x,y,-z
-x,y,z
x,-y,z
1/2+x,1/2+y,z
1/2-x,1/2-y,z
1/2+x,1/2-y,-z
1/2-x,1/2+y,-z
1/2-x,1/2-y,-z
1/2+x,1/2+y,-z
1/2-x,1/2+y,z
1/2+x,1/2-y,z
loop_
_atom_site_type_symbol
_atom_site_label
_atom_site_fract_x
_atom_site_fract_y
_atom_site_fract_z
Si Si1 0.572996 0.797220 0.752832
Si Si2 0.500000 0.629206 0.000000
Si Si3 0.389263 0.661461 0.363863
Si Si4 0.634729 0.919541 0.634172
Si Si5 0.932262 0.263416 0.000000
Si Si6 0.272629 0.423286 0.636644
Si Si7 0.000000 0.079303 0.749016
O O1 0.500000 0.781724 0.752126
O O2 0.606381 0.742193 0.669212
O O3 0.586797 0.874213 0.707667
O O4 0.601064 0.788330 0.882351
O O5 0.560748 0.679158 0.000000
O O6 0.500000 0.581094 0.887652
O O7 0.398714 0.652705 0.500000
O O8 0.322581 0.633143 0.322427
O O9 0.440052 0.616898 0.298773
O O10 0.626065 0.901670 0.500000
O O11 0.704052 0.901282 0.677062
O O12 0.619581 0.000000 0.657636
O O13 0.000000 0.299011 0.000000
O O14 0.271436 0.428591 0.500000
O O15 0.289375 0.500000 0.686455
O O16 0.000000 0.000000 0.706707
#
# Coordination Sequence:
#
# PCOD8265536 Si02
#       7
#    16   4  16  16   8  16   8
#     4  11  20  34  54  76 101 136 173 214 259 306
#     4  10  17  40  52  68  95 144 184 212 243 292
#     4  11  20  31  50  78 110 139 166 206 260 309
#     4   9  19  35  54  77 104 134 168 208 257 314
#     4   8  16  35  55  66  96 136 175 212 251 293
#     4   8  16  32  50  70 103 142 172 201 245 306
#     4  12  22  32  51  79 106 138 178 213 251 301
#
# _framework density 17.397120999999999
#
# number of rings (size 3 to 8) (size 9 to 14) (size 15 to 20)
#    0.286    1.905    2.857    2.714    0.000    3.810 
#    0.000    4.286    0.000    5.143    0.000    2.667 
#    0.000    0.000    0.000    0.000    0.000    0.000 
#
# Total GULP energy -520629.035289 kJ/mol
# GULP energy per Si atom -12395.929412 kJ/mol
# Density = 1.735752 g / cm^3
# Si number density = 17.397121 Si / 1000 Ang^3
#
#
#
# Elastic Constant Matrix: (Units=GPa)
#
#
# Indices 1 2 3 4 5 6 
#
# 1 44.6290 28.6437 20.5694 0.0000 0.0000 0.0000
# 2 28.6437 92.3524 30.1665 0.0000 0.0000 0.0000
# 3 20.5694 30.1665 76.7689 0.0000 0.0000 0.0000
# 4 0.0000 0.0000 0.0000 23.7905 0.0000 0.0000
# 5 0.0000 0.0000 0.0000 0.0000 -0.5034 0.0000
# 6 0.0000 0.0000 0.0000 0.0000 0.0000 31.3323
#
#
#
# Elastic Compliance Matrix: (Units=1/GPa)
#
#
# Indices 1 2 3 4 5 6 
#
# 1 0.029528 -0.007542 -0.004948 0.000000 0.000000 0.000000
# 2 -0.007542 0.014349 -0.003618 0.000000 0.000000 0.000000
# 3 -0.004948 -0.003618 0.015773 0.000000 0.000000 0.000000
# 4 0.000000 0.000000 0.000000 0.042034 0.000000 0.000000
# 5 0.000000 0.000000 0.000000 0.000000 -1.986617 0.000000
# 6 0.000000 0.000000 0.000000 0.000000 0.000000 0.031916
#
#
# Mechanical properties :
#
#
# Convention : Reuss Voigt Hill
#
# Bulk Modulus (GPa) = 36.44981 41.38994 38.91987
# Shear Modulus (GPa) = -2.75990 19.88194 8.56102
#
# Velocity S-wave (km/s) = -1.26090 3.38424 2.22073
# Velocity P-wave (km/s) = 4.34480 6.25410 5.38475
#
# Compressibility (1/GPa) = 0.02743499
#
# Stress axis : x y z
#
# Youngs Moduli (GPa) = 33.86604 69.69132 63.39764
#
# Poissons Ratio (x) = 0.52562 0.31370
# Poissons Ratio (y) = 0.25542 0.22935
# Poissons Ratio (z) = 0.16757 0.25212
#
# Static dielectric constant tensor:
#      x y z
#    x 3.249630 0.000000 0.000000 
#    y 0.000000 3.197240 0.000000 
#    z 0.000000 0.000000 3.101710 
# 
# 
# High freq. dielectric constant tensor:
#      x y z
#    x 1.654590 0.000000 0.000000 
#    y 0.000000 1.673470 0.000000 
#    z 0.000000 0.000000 1.652650 
# 
# From -- ./inp_files/28987.got.cif
#   From: 2010.03.12/outbox.cif.g09.slc.cpg/sg65_15_cif.got.tgz:28987.got - 2010.04.10 20:52:16.
