data_PCOD8265116
_publ_section_title
;
Structure prediction by ZEFSAII (Michael W. Deem and Ramdas Pophale) SiO2 
 PCOD8265116
Probable space group: C M M M
;
_chemical_formula_sum "Si O2"
_cell_formula_units_Z 104
_cell_length_a 31.867574
_cell_length_b 17.761890
_cell_length_c 14.397860
_cell_angle_alpha 90.000000
_cell_angle_beta 90.000000
_cell_angle_gamma 90.000000
_cell_volume 8149.596852
_symmetry_space_group_name_H-M "C M M M"
_symmetry_group_IT_number 65
_symmetry_cell_setting 'orthorhombic'
loop_
_space_group_symop_operation_xyz
x,y,z
-x,-y,z
x,-y,-z
-x,y,-z
-x,-y,-z
x,y,-z
-x,y,z
x,-y,z
1/2+x,1/2+y,z
1/2-x,1/2-y,z
1/2+x,1/2-y,-z
1/2-x,1/2+y,-z
1/2-x,1/2-y,-z
1/2+x,1/2+y,-z
1/2-x,1/2+y,z
1/2+x,1/2-y,z
loop_
_atom_site_type_symbol
_atom_site_label
_atom_site_fract_x
_atom_site_fract_y
_atom_site_fract_z
Si Si1 0.113453 0.910651 0.101128
Si Si2 0.754181 0.087291 0.288185
Si Si3 0.707620 0.589274 0.101493
Si Si4 0.416232 0.589487 0.295980
Si Si5 0.792261 0.297341 0.397933
Si Si6 0.833494 0.149397 0.390088
Si Si7 0.000000 0.089563 0.394779
O O1 0.160550 0.879047 0.116459
O O2 0.084841 0.883975 0.187716
O O3 0.115029 0.000000 0.099601
O O4 0.096159 0.882217 0.000000
O O5 0.762115 0.118236 0.183389
O O6 0.714230 0.133267 0.327584
O O7 0.796556 0.098662 0.347055
O O8 0.741756 0.000000 0.289681
O O9 0.705371 0.500000 0.107501
O O10 0.724774 0.614887 0.000000
O O11 0.412843 0.500000 0.304028
O O12 0.378090 0.624530 0.352275
O O13 0.459156 0.619926 0.340806
O O14 0.803164 0.330126 0.500000
O O15 0.750000 0.250000 0.403829
O O16 0.827844 0.238246 0.364742
O O17 0.831626 0.137124 0.500000
O O18 0.000000 0.120814 0.500000
O O19 0.000000 0.000000 0.395498
#
# Coordination Sequence:
#
# PCOD8265116 Si02
#       7
#    16  16  16  16  16  16   8
#     4   8  13  22  35  50  67  85 110 146 178 200
#     4  10  16  23  37  54  67  86 117 146 172 203
#     4   8  13  21  33  50  69  86 109 144 179 202
#     4  10  17  26  39  54  68  89 118 143 170 207
#     4   8  16  27  34  45  69  93 110 140 180 203
#     4  10  18  26  36  49  67  93 120 141 167 207
#     4   9  18  28  35  49  75  93 103 139 186 203
#
# _framework density 12.761367999999999
#
# number of rings (size 3 to 8) (size 9 to 14) (size 15 to 20)
#    0.000    3.000    1.538    3.231    0.000    2.769 
#    0.000    0.385    0.000    7.385    0.000    0.000 
#    0.000    0.000    0.000    0.692    0.000    7.692 
#
# Total GULP energy -644259.663425 kJ/mol
# GULP energy per Si atom -12389.608912 kJ/mol
# Density = 1.273232 g / cm^3
# Si number density = 12.761368 Si / 1000 Ang^3
#
#
#
# Elastic Constant Matrix: (Units=GPa)
#
#
# Indices 1 2 3 4 5 6 
#
# 1 43.3852 18.9486 29.5289 0.0000 0.0000 0.0000
# 2 18.9486 32.4026 29.1956 0.0000 0.0000 0.0000
# 3 29.5289 29.1956 110.0337 0.0000 0.0000 0.0000
# 4 0.0000 0.0000 0.0000 6.7487 0.0000 0.0000
# 5 0.0000 0.0000 0.0000 0.0000 17.5368 0.0000
# 6 0.0000 0.0000 0.0000 0.0000 0.0000 11.5927
#
#
#
# Elastic Compliance Matrix: (Units=1/GPa)
#
#
# Indices 1 2 3 4 5 6 
#
# 1 0.032839 -0.014802 -0.004885 0.000000 0.000000 0.000000
# 2 -0.014802 0.047230 -0.008559 0.000000 0.000000 0.000000
# 3 -0.004885 -0.008559 0.012670 0.000000 0.000000 0.000000
# 4 0.000000 0.000000 0.000000 0.148176 0.000000 0.000000
# 5 0.000000 0.000000 0.000000 0.000000 0.057023 0.000000
# 6 0.000000 0.000000 0.000000 0.000000 0.000000 0.086261
#
#
# Mechanical properties :
#
#
# Convention : Reuss Voigt Hill
#
# Bulk Modulus (GPa) = 27.58937 37.90752 32.74844
# Shear Modulus (GPa) = 11.04301 14.38554 12.71427
#
# Velocity S-wave (km/s) = 2.94487 3.36113 3.15986
# Velocity P-wave (km/s) = 5.76449 6.69569 6.24747
#
# Compressibility (1/GPa) = 0.03624584
#
# Stress axis : x y z
#
# Youngs Moduli (GPa) = 30.45139 21.17301 78.92509
#
# Poissons Ratio (x) = 0.31341 0.38557
# Poissons Ratio (y) = 0.45075 0.67555
# Poissons Ratio (z) = 0.14876 0.18123
#
# Static dielectric constant tensor:
#      x y z
#    x 2.443210 0.000000 0.000000 
#    y 0.000000 2.353550 0.000000 
#    z 0.000000 0.000000 3.049060 
# 
# 
# High freq. dielectric constant tensor:
#      x y z
#    x 1.446640 0.000000 0.000000 
#    y 0.000000 1.432810 0.000000 
#    z 0.000000 0.000000 1.508010 
# 
# From -- ./inp_files/47158.got.cif
#   From: 2010.03.12/outbox.cif.g09.slc.cpg/sg65_24_cif.got.tgz:47158.got - 2010.04.10 20:52:16.
