data_PCOD8265554
_publ_section_title
;
Structure prediction by ZEFSAII (Michael W. Deem and Ramdas Pophale) SiO2 
 PCOD8265554
Probable space group: C M M M
;
_chemical_formula_sum "Si O2"
_cell_formula_units_Z 104
_cell_length_a 19.376239
_cell_length_b 29.431542
_cell_length_c 12.868803
_cell_angle_alpha 90.000000
_cell_angle_beta 90.000000
_cell_angle_gamma 90.000000
_cell_volume 7338.725642
_symmetry_space_group_name_H-M "C M M M"
_symmetry_group_IT_number 65
_symmetry_cell_setting 'orthorhombic'
loop_
_space_group_symop_operation_xyz
x,y,z
-x,-y,z
x,-y,-z
-x,y,-z
-x,-y,-z
x,y,-z
-x,y,z
x,-y,z
1/2+x,1/2+y,z
1/2-x,1/2-y,z
1/2+x,1/2-y,-z
1/2-x,1/2+y,-z
1/2-x,1/2-y,-z
1/2+x,1/2+y,-z
1/2-x,1/2+y,z
1/2+x,1/2-y,z
loop_
_atom_site_type_symbol
_atom_site_label
_atom_site_fract_x
_atom_site_fract_y
_atom_site_fract_z
Si Si1 0.683326 0.125366 0.622500
Si Si2 0.680056 0.226827 0.623892
Si Si3 0.340604 0.609261 0.621823
Si Si4 0.422852 0.446088 0.777446
Si Si5 0.422196 0.050848 0.623588
Si Si6 0.577099 0.302148 0.623288
Si Si7 0.418130 0.450297 0.000000
O O1 0.672615 0.127045 0.500000
O O2 0.670106 0.175851 0.668467
O O3 0.760535 0.110908 0.650432
O O4 0.630136 0.088484 0.671098
O O5 0.685124 0.225166 0.500000
O O6 0.750000 0.250000 0.667230
O O7 0.614727 0.256340 0.661845
O O8 0.352537 0.600645 0.500000
O O9 0.372224 0.567734 0.685237
O O10 0.378078 0.655029 0.660383
O O11 0.500000 0.428509 0.751050
O O12 0.422831 0.500000 0.785989
O O13 0.397742 0.425715 0.890533
O O14 0.418081 0.051580 0.500000
O O15 0.500000 0.062814 0.659866
O O16 0.401975 0.000000 0.662656
O O17 0.573304 0.302279 0.500000
O O18 0.500000 0.304015 0.671075
O O19 0.383137 0.500000 0.000000
O O20 0.500000 0.455889 0.000000
#
# Coordination Sequence:
#
# PCOD8265554 Si02
#       7
#    16  16  16  16  16  16   8
#     4   9  16  24  36  50  68  97 129 157 188 228
#     4   9  14  23  35  45  61  89 125 161 188 212
#     4  10  18  26  35  52  80 109 128 148 185 235
#     4   9  17  28  41  55  72  98 132 166 193 219
#     4   8  14  24  35  46  62  86 120 162 199 225
#     4   9  16  24  34  48  68  96 126 156 191 227
#     4   7  12  26  44  56  66  87 125 169 205 224
#
# _framework density 14.171398
#
# number of rings (size 3 to 8) (size 9 to 14) (size 15 to 20)
#    0.000    3.154    1.538    1.846    0.000    2.462 
#    0.000    5.385    0.000    0.000    0.000    0.000 
#    0.000    2.462    0.000    0.769    0.000    8.308 
#
# Total GULP energy -644251.148575 kJ/mol
# GULP energy per Si atom -12389.445165 kJ/mol
# Density = 1.413914 g / cm^3
# Si number density = 14.171398 Si / 1000 Ang^3
#
#
#
# Elastic Constant Matrix: (Units=GPa)
#
#
# Indices 1 2 3 4 5 6 
#
# 1 107.2555 58.8759 20.1872 0.0000 0.0000 0.0000
# 2 58.8759 86.5202 17.0745 0.0000 0.0000 0.0000
# 3 20.1872 17.0745 30.4939 0.0000 0.0000 0.0000
# 4 0.0000 0.0000 0.0000 2.3446 0.0000 0.0000
# 5 0.0000 0.0000 0.0000 0.0000 2.9900 0.0000
# 6 0.0000 0.0000 0.0000 0.0000 0.0000 28.8811
#
#
#
# Elastic Compliance Matrix: (Units=1/GPa)
#
#
# Indices 1 2 3 4 5 6 
#
# 1 0.015508 -0.009586 -0.004899 0.000000 0.000000 0.000000
# 2 -0.009586 0.018919 -0.004248 0.000000 0.000000 0.000000
# 3 -0.004899 -0.004248 0.038415 0.000000 0.000000 0.000000
# 4 0.000000 0.000000 0.000000 0.426507 0.000000 0.000000
# 5 0.000000 0.000000 0.000000 0.000000 0.334453 0.000000
# 6 0.000000 0.000000 0.000000 0.000000 0.000000 0.034625
#
#
# Mechanical properties :
#
#
# Convention : Reuss Voigt Hill
#
# Bulk Modulus (GPa) = 28.26668 46.28275 37.27471
# Shear Modulus (GPa) = 5.44850 15.38527 10.41689
#
# Velocity S-wave (km/s) = 1.96292 3.29850 2.71415
# Velocity P-wave (km/s) = 5.01268 6.87292 6.01515
#
# Compressibility (1/GPa) = 0.03537735
#
# Stress axis : x y z
#
# Youngs Moduli (GPa) = 64.48449 52.85582 26.03164
#
# Poissons Ratio (x) = 0.50668 0.12752
# Poissons Ratio (y) = 0.61815 0.11057
# Poissons Ratio (z) = 0.31589 0.22451
#
# Static dielectric constant tensor:
#      x y z
#    x 2.907840 0.000000 0.000000 
#    y 0.000000 2.922230 0.000000 
#    z 0.000000 0.000000 2.335820 
# 
# 
# High freq. dielectric constant tensor:
#      x y z
#    x 1.542260 0.000000 0.000000 
#    y 0.000000 1.542420 0.000000 
#    z 0.000000 0.000000 1.463310 
# 
# From -- ./inp_files/27710.got.cif
#   From: 2010.03.12/outbox.cif.g09.slc.cpg/sg65_14_cif.got.tgz:27710.got - 2010.04.10 20:52:16.
