data_PCOD8265748
_publ_section_title
;
Structure prediction by ZEFSAII (Michael W. Deem and Ramdas Pophale) SiO2 
 PCOD8265748
Probable space group: C M M M
;
_chemical_formula_sum "Si O2"
_cell_formula_units_Z 104
_cell_length_a 8.095763
_cell_length_b 27.563161
_cell_length_c 28.119797
_cell_angle_alpha 90.000000
_cell_angle_beta 90.000000
_cell_angle_gamma 90.000000
_cell_volume 6274.787012
_symmetry_space_group_name_H-M "C M M M"
_symmetry_group_IT_number 65
_symmetry_cell_setting 'orthorhombic'
loop_
_space_group_symop_operation_xyz
x,y,z
-x,-y,z
x,-y,-z
-x,y,-z
-x,-y,-z
x,y,-z
-x,y,z
x,-y,z
1/2+x,1/2+y,z
1/2-x,1/2-y,z
1/2+x,1/2-y,-z
1/2-x,1/2+y,-z
1/2-x,1/2-y,-z
1/2+x,1/2+y,-z
1/2-x,1/2+y,z
1/2+x,1/2-y,z
loop_
_atom_site_type_symbol
_atom_site_label
_atom_site_fract_x
_atom_site_fract_y
_atom_site_fract_z
Si Si1 0.317055 0.557572 0.389238
Si Si2 0.304291 0.445498 0.103913
Si Si3 0.304639 0.804212 0.854830
Si Si4 0.807065 0.644363 0.051907
Si Si5 0.500000 0.057867 0.445911
Si Si6 0.189312 0.445446 0.710768
Si Si7 0.308319 0.606476 0.198740
O O1 0.500000 0.575908 0.406041
O O2 0.309346 0.500000 0.392702
O O3 0.167664 0.578907 0.421412
O O4 0.293372 0.573270 0.334364
O O5 0.500000 0.442612 0.100732
O O6 0.239125 0.500000 0.096277
O O7 0.228171 0.411983 0.062932
O O8 0.243628 0.426653 0.155281
O O9 0.500000 0.809580 0.853815
O O10 0.250000 0.750000 0.844403
O O11 0.232319 0.821521 0.906339
O O12 0.227925 0.837411 0.813364
O O13 0.000000 0.653169 0.049352
O O14 0.729145 0.657232 0.000000
O O15 0.500000 0.076116 0.500000
O O16 0.500000 0.000000 0.442776
O O17 0.244886 0.500000 0.725772
O O18 0.211767 0.408716 0.754204
O O19 0.000000 0.445768 0.694579
O O20 0.500000 0.598117 0.208222
#
# Coordination Sequence:
#
# PCOD8265748 Si02
#       7
#    16  16  16  16   8  16  16
#     4   9  16  26  39  56  81 115 155 199 243 281
#     4   9  18  31  45  63  89 116 142 175 213 255
#     4  10  20  35  52  68  87 110 137 175 219 266
#     4   9  19  34  49  66  87 110 139 174 213 260
#     4   9  16  26  38  54  80 114 158 208 245 277
#     4  10  18  28  43  64  92 122 152 191 233 272
#     4  10  19  31  47  67  88 113 147 182 218 269
#
# _framework density 16.574266999999999
#
# number of rings (size 3 to 8) (size 9 to 14) (size 15 to 20)
#    0.000    2.538    0.769    1.846    0.000    4.308 
#    0.000    3.077    0.000    0.000    0.000    0.000 
#    0.000    0.000    0.000    0.000    0.000    0.769 
#
# Total GULP energy -644631.967644 kJ/mol
# GULP energy per Si atom -12396.768609 kJ/mol
# Density = 1.653654 g / cm^3
# Si number density = 16.574267 Si / 1000 Ang^3
#
#
#
# Elastic Constant Matrix: (Units=GPa)
#
#
# Indices 1 2 3 4 5 6 
#
# 1 67.4426 5.4342 36.1030 0.0000 0.0000 0.0000
# 2 5.4342 68.8472 26.4707 0.0000 0.0000 0.0000
# 3 36.1030 26.4707 102.1750 0.0000 0.0000 0.0000
# 4 0.0000 0.0000 0.0000 10.4467 0.0000 0.0000
# 5 0.0000 0.0000 0.0000 0.0000 20.3562 0.0000
# 6 0.0000 0.0000 0.0000 0.0000 0.0000 18.9321
#
#
#
# Elastic Compliance Matrix: (Units=1/GPa)
#
#
# Indices 1 2 3 4 5 6 
#
# 1 0.018370 0.001161 -0.006792 0.000000 0.000000 0.000000
# 2 0.001161 0.016205 -0.004609 0.000000 0.000000 0.000000
# 3 -0.006792 -0.004609 0.013381 0.000000 0.000000 0.000000
# 4 0.000000 0.000000 0.000000 0.095724 0.000000 0.000000
# 5 0.000000 0.000000 0.000000 0.000000 0.049125 0.000000
# 6 0.000000 0.000000 0.000000 0.000000 0.000000 0.052820
#
#
# Mechanical properties :
#
#
# Convention : Reuss Voigt Hill
#
# Bulk Modulus (GPa) = 36.39313 41.60895 39.00104
# Shear Modulus (GPa) = 18.16452 21.31080 19.73766
#
# Velocity S-wave (km/s) = 3.31410 3.58966 3.45463
# Velocity P-wave (km/s) = 6.05389 6.50692 6.28449
#
# Compressibility (1/GPa) = 0.02747771
#
# Stress axis : x y z
#
# Youngs Moduli (GPa) = 54.43798 61.70851 74.73332
#
# Poissons Ratio (x) = -0.07167 0.50756
# Poissons Ratio (y) = -0.06322 0.34442
# Poissons Ratio (z) = 0.36972 0.28440
#
# Static dielectric constant tensor:
#      x y z
#    x 3.222310 0.000000 0.000000 
#    y 0.000000 2.510940 0.000000 
#    z 0.000000 0.000000 3.123160 
# 
# 
# High freq. dielectric constant tensor:
#      x y z
#    x 1.648540 0.000000 0.000000 
#    y 0.000000 1.587790 0.000000 
#    z 0.000000 0.000000 1.626730 
# 
# From -- ./inp_files/73583.got.cif
#   From: 2010.03.12/outbox.cif.g09.slc.cpg/sg65_37_cif.got.tgz:73583.got - 2010.04.10 20:52:16.
