data_PCOD8265549
_publ_section_title
;
Structure prediction by ZEFSAII (Michael W. Deem and Ramdas Pophale) SiO2 
 PCOD8265549
Probable space group: C M M M
;
_chemical_formula_sum "Si O2"
_cell_formula_units_Z 88
_cell_length_a 30.051825
_cell_length_b 24.194984
_cell_length_c 9.235096
_cell_angle_alpha 90.000000
_cell_angle_beta 90.000000
_cell_angle_gamma 90.000000
_cell_volume 6714.869932
_symmetry_space_group_name_H-M "C M M M"
_symmetry_group_IT_number 65
_symmetry_cell_setting 'orthorhombic'
loop_
_space_group_symop_operation_xyz
x,y,z
-x,-y,z
x,-y,-z
-x,y,-z
-x,-y,-z
x,y,-z
-x,y,z
x,-y,z
1/2+x,1/2+y,z
1/2-x,1/2-y,z
1/2+x,1/2-y,-z
1/2-x,1/2+y,-z
1/2-x,1/2-y,-z
1/2+x,1/2+y,-z
1/2-x,1/2+y,z
1/2+x,1/2-y,z
loop_
_atom_site_type_symbol
_atom_site_label
_atom_site_fract_x
_atom_site_fract_y
_atom_site_fract_z
Si Si1 0.298827 0.775648 0.160227
Si Si2 0.000000 0.937414 0.329947
Si Si3 0.250176 0.879859 0.172499
Si Si4 0.859247 0.000000 0.830598
Si Si5 0.595020 0.402928 0.333452
Si Si6 0.742917 0.500000 0.830995
Si Si7 0.829867 0.178696 0.332636
O O1 0.250000 0.750000 0.156568
O O2 0.291782 0.839489 0.210461
O O3 0.329679 0.741240 0.269951
O O4 0.320347 0.773052 0.000000
O O5 0.043379 0.901911 0.282607
O O6 0.000000 0.944637 0.500000
O O7 0.000000 0.000000 0.262086
O O8 0.204877 0.860472 0.249628
O O9 0.263410 0.941913 0.227787
O O10 0.240367 0.878726 0.000000
O O11 0.880481 0.054144 0.766383
O O12 0.808173 0.000000 0.787248
O O13 0.867169 0.000000 0.000000
O O14 0.598469 0.422403 0.500000
O O15 0.619761 0.344094 0.313122
O O16 0.750430 0.500000 0.000000
O O17 0.815782 0.180743 0.500000
#
# Coordination Sequence:
#
# PCOD8265549 Si02
#       7
#    16   8  16   8  16   8  16
#     4   8  15  26  39  51  67  91 116 139 169 211
#     4   9  16  28  44  52  64  94 122 145 180 225
#     4   9  16  27  39  52  70  93 117 140 171 212
#     4  11  19  26  40  55  70  92 116 150 187 219
#     4  10  19  30  41  53  68  91 121 151 184 222
#     4   9  16  25  38  54  71  92 118 145 175 206
#     4  10  18  25  37  54  70  86 113 152 182 205
#
# _framework density 13.105243
#
# number of rings (size 3 to 8) (size 9 to 14) (size 15 to 20)
#    0.000    2.636    2.727    1.909    0.000    4.000 
#    0.000    1.364    0.000    0.000    0.000    0.000 
#    0.000    0.000    0.000    0.000    0.000    0.909 
#
# Total GULP energy -545082.770431 kJ/mol
# GULP energy per Si atom -12388.244783 kJ/mol
# Density = 1.307541 g / cm^3
# Si number density = 13.105243 Si / 1000 Ang^3
#
#
#
# Elastic Constant Matrix: (Units=GPa)
#
#
# Indices 1 2 3 4 5 6 
#
# 1 51.6974 45.0695 22.4524 0.0000 0.0000 0.0000
# 2 45.0695 119.7418 34.1340 0.0000 0.0000 0.0000
# 3 22.4524 34.1340 49.1299 0.0000 0.0000 0.0000
# 4 0.0000 0.0000 0.0000 20.8898 0.0000 0.0000
# 5 0.0000 0.0000 0.0000 0.0000 9.0810 0.0000
# 6 0.0000 0.0000 0.0000 0.0000 0.0000 25.2606
#
#
#
# Elastic Compliance Matrix: (Units=1/GPa)
#
#
# Indices 1 2 3 4 5 6 
#
# 1 0.030871 -0.009474 -0.007526 0.000000 0.000000 0.000000
# 2 -0.009474 0.013321 -0.004926 0.000000 0.000000 0.000000
# 3 -0.007526 -0.004926 0.027216 0.000000 0.000000 0.000000
# 4 0.000000 0.000000 0.000000 0.047870 0.000000 0.000000
# 5 0.000000 0.000000 0.000000 0.000000 0.110120 0.000000
# 6 0.000000 0.000000 0.000000 0.000000 0.000000 0.039587
#
#
# Mechanical properties :
#
#
# Convention : Reuss Voigt Hill
#
# Bulk Modulus (GPa) = 36.28821 47.09786 41.69304
# Shear Modulus (GPa) = 15.52684 18.97384 17.25034
#
# Velocity S-wave (km/s) = 3.44580 3.80913 3.63201
# Velocity P-wave (km/s) = 6.60162 7.44058 7.03362
#
# Compressibility (1/GPa) = 0.02755716
#
# Stress axis : x y z
#
# Youngs Moduli (GPa) = 32.39234 75.06703 36.74361
#
# Poissons Ratio (x) = 0.71121 0.27652
# Poissons Ratio (y) = 0.30690 0.18098
# Poissons Ratio (z) = 0.24378 0.36975
#
# Static dielectric constant tensor:
#      x y z
#    x 2.510000 0.000000 0.000000 
#    y 0.000000 3.074140 0.000000 
#    z 0.000000 0.000000 2.612560 
# 
# 
# High freq. dielectric constant tensor:
#      x y z
#    x 1.450270 0.000000 0.000000 
#    y 0.000000 1.495270 0.000000 
#    z 0.000000 0.000000 1.494330 
# 
# From -- ./inp_files/19022.got.cif
#   From: 2010.03.12/outbox.cif.g09.slc.cpg/sg65_10_cif.got.tgz:19022.got - 2010.04.10 20:52:16.
