data_PCOD8265710
_publ_section_title
;
Structure prediction by ZEFSAII (Michael W. Deem and Ramdas Pophale) SiO2 
 PCOD8265710
Probable space group: C M M M
;
_chemical_formula_sum "Si O2"
_cell_formula_units_Z 112
_cell_length_a 32.596797
_cell_length_b 13.965630
_cell_length_c 14.791083
_cell_angle_alpha 90.000000
_cell_angle_beta 90.000000
_cell_angle_gamma 90.000000
_cell_volume 6733.415801
_symmetry_space_group_name_H-M "C M M M"
_symmetry_group_IT_number 65
_symmetry_cell_setting 'orthorhombic'
loop_
_space_group_symop_operation_xyz
x,y,z
-x,-y,z
x,-y,-z
-x,y,-z
-x,-y,-z
x,y,-z
-x,y,z
x,-y,z
1/2+x,1/2+y,z
1/2-x,1/2-y,z
1/2+x,1/2-y,-z
1/2-x,1/2+y,-z
1/2-x,1/2-y,-z
1/2+x,1/2+y,-z
1/2-x,1/2+y,z
1/2+x,1/2-y,z
loop_
_atom_site_type_symbol
_atom_site_label
_atom_site_fract_x
_atom_site_fract_y
_atom_site_fract_z
Si Si1 0.261699 0.888349 0.351593
Si Si2 0.825472 0.397567 0.100894
Si Si3 0.954520 0.886486 0.601068
Si Si4 0.348856 0.697106 0.104657
Si Si5 0.314361 0.282146 0.401017
Si Si6 0.879700 0.887134 0.720540
Si Si7 0.764555 0.107816 0.850608
O O1 0.302623 0.825709 0.369347
O O2 0.225560 0.849340 0.415060
O O3 0.245609 0.866308 0.251912
O O4 0.271519 0.000000 0.369533
O O5 0.832761 0.500000 0.153822
O O6 0.851067 0.307824 0.139913
O O7 0.777048 0.375143 0.094598
O O8 0.841426 0.410880 0.000000
O O9 0.941799 0.851129 0.500000
O O10 0.922534 0.851001 0.677221
O O11 0.000000 0.847070 0.625465
O O12 0.955467 0.000000 0.601044
O O13 0.377766 0.635584 0.171839
O O14 0.300920 0.671415 0.110200
O O15 0.363471 0.684318 0.000000
O O16 0.335678 0.276931 0.500000
O O17 0.343665 0.329781 0.327635
O O18 0.873145 0.000000 0.705143
O O19 0.780732 0.000000 0.858863
#
# Coordination Sequence:
#
# PCOD8265710 Si02
#       7
#    16  16  16  16  16  16  16
#     4  10  20  33  45  59  88 127 164 201 237 276
#     4   9  18  30  43  59  80 114 161 208 248 277
#     4   8  15  30  53  78  99 120 148 182 225 279
#     4  11  21  31  45  65  91 121 156 197 236 279
#     4  11  22  32  46  67  90 120 160 201 241 285
#     4  11  21  33  49  70  98 126 153 191 235 279
#     4  10  18  28  42  59  82 117 159 200 238 276
#
# _framework density 16.633459999999999
#
# number of rings (size 3 to 8) (size 9 to 14) (size 15 to 20)
#    0.000    2.000    1.429    4.286    2.000    5.429 
#    0.000    0.000    0.000    0.429    0.000    2.000 
#    0.000    2.286    0.000   11.429    0.000    0.571 
#
# Total GULP energy -693791.796827 kJ/mol
# GULP energy per Si atom -12389.139229 kJ/mol
# Density = 1.659560 g / cm^3
# Si number density = 16.633460 Si / 1000 Ang^3
#
#
#
# Elastic Constant Matrix: (Units=GPa)
#
#
# Indices 1 2 3 4 5 6 
#
# 1 62.5521 31.6915 35.0319 0.0000 0.0000 0.0000
# 2 31.6915 92.5689 30.6616 0.0000 0.0000 0.0000
# 3 35.0319 30.6616 93.1484 0.0000 0.0000 0.0000
# 4 0.0000 0.0000 0.0000 17.4326 0.0000 0.0000
# 5 0.0000 0.0000 0.0000 0.0000 18.9351 0.0000
# 6 0.0000 0.0000 0.0000 0.0000 0.0000 10.0967
#
#
#
# Elastic Compliance Matrix: (Units=1/GPa)
#
#
# Indices 1 2 3 4 5 6 
#
# 1 0.022498 -0.005499 -0.006651 0.000000 0.000000 0.000000
# 2 -0.005499 0.013469 -0.002365 0.000000 0.000000 0.000000
# 3 -0.006651 -0.002365 0.014015 0.000000 0.000000 0.000000
# 4 0.000000 0.000000 0.000000 0.057364 0.000000 0.000000
# 5 0.000000 0.000000 0.000000 0.000000 0.052812 0.000000
# 6 0.000000 0.000000 0.000000 0.000000 0.000000 0.099042
#
#
# Mechanical properties :
#
#
# Convention : Reuss Voigt Hill
#
# Bulk Modulus (GPa) = 47.73028 49.22661 48.47844
# Shear Modulus (GPa) = 16.93683 19.35184 18.14434
#
# Velocity S-wave (km/s) = 3.19445 3.41461 3.30636
# Velocity P-wave (km/s) = 6.50873 6.72348 6.61698
#
# Compressibility (1/GPa) = 0.02095106
#
# Stress axis : x y z
#
# Youngs Moduli (GPa) = 44.44926 74.24485 71.34975
#
# Poissons Ratio (x) = 0.40829 0.47454
# Poissons Ratio (y) = 0.24444 0.16877
# Poissons Ratio (z) = 0.29563 0.17562
#
# Static dielectric constant tensor:
#      x y z
#    x 2.873280 0.000000 0.000000 
#    y 0.000000 3.342920 0.000000 
#    z 0.000000 0.000000 3.247140 
# 
# 
# High freq. dielectric constant tensor:
#      x y z
#    x 1.575730 0.000000 0.000000 
#    y 0.000000 1.639490 0.000000 
#    z 0.000000 0.000000 1.649290 
# 
# From -- ./inp_files/47997.got.cif
#   From: 2010.03.12/outbox.cif.g09.slc.cpg/sg65_24_cif.got.tgz:47997.got - 2010.04.10 20:52:16.
