data_PCOD8265906
_publ_section_title
;
Structure prediction by ZEFSAII (Michael W. Deem and Ramdas Pophale) SiO2 
 PCOD8265906
Probable space group: C M M M
;
_chemical_formula_sum "Si O2"
_cell_formula_units_Z 80
_cell_length_a 19.255480
_cell_length_b 29.656573
_cell_length_c 10.010785
_cell_angle_alpha 90.000000
_cell_angle_beta 90.000000
_cell_angle_gamma 90.000000
_cell_volume 5716.674274
_symmetry_space_group_name_H-M "C M M M"
_symmetry_group_IT_number 65
_symmetry_cell_setting 'orthorhombic'
loop_
_space_group_symop_operation_xyz
x,y,z
-x,-y,z
x,-y,-z
-x,y,-z
-x,-y,-z
x,y,-z
-x,y,z
x,-y,z
1/2+x,1/2+y,z
1/2-x,1/2-y,z
1/2+x,1/2-y,-z
1/2-x,1/2+y,-z
1/2-x,1/2-y,-z
1/2+x,1/2+y,-z
1/2-x,1/2+y,z
1/2+x,1/2-y,z
loop_
_atom_site_type_symbol
_atom_site_label
_atom_site_fract_x
_atom_site_fract_y
_atom_site_fract_z
Si Si1 0.000000 0.746385 0.845099
Si Si2 0.419431 0.446834 0.500000
Si Si3 0.000000 0.831566 0.659198
Si Si4 0.281295 0.321255 0.158835
Si Si5 0.581962 0.449224 0.000000
Si Si6 0.150952 0.729528 0.154332
Si Si7 0.376130 0.605793 0.256510
O O1 0.000000 0.784959 0.736702
O O2 0.070035 0.717092 0.819317
O O3 0.000000 0.764400 0.000000
O O4 0.423367 0.500000 0.500000
O O5 0.500000 0.427746 0.500000
O O6 0.374366 0.430366 0.625026
O O7 0.066793 0.857666 0.708453
O O8 0.000000 0.823325 0.500000
O O9 0.202905 0.309145 0.209938
O O10 0.330828 0.279775 0.206754
O O11 0.304360 0.366790 0.235581
O O12 0.287038 0.329921 0.000000
O O13 0.607418 0.422275 0.126519
O O14 0.612798 0.500000 0.000000
O O15 0.500000 0.451787 0.000000
O O16 0.169257 0.731332 0.000000
#
# Coordination Sequence:
#
# PCOD8265906 Si02
#       7
#     8   8   8  16   8  16  16
#     4  10  18  28  50  65  83 114 154 183 201 244
#     4  11  22  36  46  57  84 119 147 182 227 261
#     4  12  22  30  39  63  87 116 150 181 217 250
#     4   9  16  26  42  64  90 110 137 181 220 246
#     4  11  22  30  42  65  84 101 139 192 223 247
#     4   8  15  25  40  67  90 109 138 177 216 246
#     4  12  19  31  46  60  82 115 150 180 215 256
#
# _framework density 13.994149999999999
#
# number of rings (size 3 to 8) (size 9 to 14) (size 15 to 20)
#    0.000    1.800    6.000    1.800    1.400    1.600 
#    0.000    0.000    2.200    2.400    0.000    0.000 
#    0.000    0.000    0.000    5.400    0.000    0.100 
#
# Total GULP energy -495552.774140 kJ/mol
# GULP energy per Si atom -12388.819354 kJ/mol
# Density = 1.396230 g / cm^3
# Si number density = 13.994150 Si / 1000 Ang^3
#
#
#
# Elastic Constant Matrix: (Units=GPa)
#
#
# Indices 1 2 3 4 5 6 
#
# 1 101.5227 43.0622 30.2411 0.0000 0.0000 0.0000
# 2 43.0622 70.0041 41.8750 0.0000 0.0000 0.0000
# 3 30.2411 41.8750 85.0417 0.0000 0.0000 0.0000
# 4 0.0000 0.0000 0.0000 23.6110 0.0000 0.0000
# 5 0.0000 0.0000 0.0000 0.0000 22.4208 0.0000
# 6 0.0000 0.0000 0.0000 0.0000 0.0000 24.7750
#
#
#
# Elastic Compliance Matrix: (Units=1/GPa)
#
#
# Indices 1 2 3 4 5 6 
#
# 1 0.013387 -0.007637 -0.001000 0.000000 0.000000 0.000000
# 2 -0.007637 0.024606 -0.009400 0.000000 0.000000 0.000000
# 3 -0.001000 -0.009400 0.016743 0.000000 0.000000 0.000000
# 4 0.000000 0.000000 0.000000 0.042353 0.000000 0.000000
# 5 0.000000 0.000000 0.000000 0.000000 0.044601 0.000000
# 6 0.000000 0.000000 0.000000 0.000000 0.000000 0.040363
#
#
# Mechanical properties :
#
#
# Convention : Reuss Voigt Hill
#
# Bulk Modulus (GPa) = 53.58541 54.10279 53.84410
# Shear Modulus (GPa) = 22.28674 23.58737 22.93706
#
# Velocity S-wave (km/s) = 3.99504 4.10996 4.05291
# Velocity P-wave (km/s) = 7.72366 7.82734 7.77567
#
# Compressibility (1/GPa) = 0.01866180
#
# Stress axis : x y z
#
# Youngs Moduli (GPa) = 74.69869 40.64132 59.72521
#
# Poissons Ratio (x) = 0.31036 0.05974
# Poissons Ratio (y) = 0.57045 0.56143
# Poissons Ratio (z) = 0.07471 0.38204
#
# Static dielectric constant tensor:
#      x y z
#    x 2.798300 0.000000 0.000000 
#    y 0.000000 2.733360 0.000000 
#    z 0.000000 0.000000 2.762010 
# 
# 
# High freq. dielectric constant tensor:
#      x y z
#    x 1.515710 0.000000 0.000000 
#    y 0.000000 1.512670 0.000000 
#    z 0.000000 0.000000 1.523030 
# 
# From -- ./inp_files/12141.got.cif
#   From: 2010.03.12/outbox.cif.g09.slc.cpg/sg65_7_cif.got.tgz:12141.got - 2010.04.10 20:52:16.
