data_PCOD8265993
_publ_section_title
;
Structure prediction by ZEFSAII (Michael W. Deem and Ramdas Pophale) SiO2 
 PCOD8265993
Probable space group: C M M M
;
_chemical_formula_sum "Si O2"
_cell_formula_units_Z 88
_cell_length_a 15.563415
_cell_length_b 15.632306
_cell_length_c 19.653140
_cell_angle_alpha 90.000000
_cell_angle_beta 90.000000
_cell_angle_gamma 90.000000
_cell_volume 4781.453028
_symmetry_space_group_name_H-M "C M M M"
_symmetry_group_IT_number 65
_symmetry_cell_setting 'orthorhombic'
loop_
_space_group_symop_operation_xyz
x,y,z
-x,-y,z
x,-y,-z
-x,y,-z
-x,-y,-z
x,y,-z
-x,y,z
x,-y,z
1/2+x,1/2+y,z
1/2-x,1/2-y,z
1/2+x,1/2-y,-z
1/2-x,1/2+y,-z
1/2-x,1/2-y,-z
1/2+x,1/2+y,-z
1/2-x,1/2+y,z
1/2+x,1/2-y,z
loop_
_atom_site_type_symbol
_atom_site_label
_atom_site_fract_x
_atom_site_fract_y
_atom_site_fract_z
Si Si1 0.903963 0.000000 0.253738
Si Si2 0.399650 0.000000 0.727705
Si Si3 0.099759 0.095710 0.000000
Si Si4 0.398697 0.164338 0.641791
Si Si5 0.599142 0.315015 0.735048
Si Si6 0.305102 0.669672 0.122065
Si Si7 0.760072 0.500000 0.160623
Si Si8 0.897191 0.598204 0.500000
O O1 0.893614 0.088321 0.296582
O O2 0.833672 0.000000 0.195497
O O3 0.000000 0.000000 0.220140
O O4 0.372021 0.917249 0.685675
O O5 0.500000 0.000000 0.746296
O O6 0.345337 0.000000 0.795369
O O7 0.122693 0.150276 0.933312
O O8 0.000000 0.083035 0.000000
O O9 0.142416 0.000000 0.000000
O O10 0.500000 0.172302 0.635969
O O11 0.361903 0.249490 0.678916
O O12 0.361558 0.149751 0.565832
O O13 0.500000 0.290895 0.750725
O O14 0.652763 0.309907 0.804584
O O15 0.250000 0.750000 0.098036
O O16 0.239220 0.588916 0.120030
O O17 0.863423 0.500000 0.500000
O O18 0.000000 0.595248 0.500000
#
# Coordination Sequence:
#
# PCOD8265993 Si02
#       8
#     8   8   8  16  16  16   8   8
#     4   8  16  30  49  71  99 129 172 229 282 317
#     4  10  18  29  45  72 109 145 177 218 262 321
#     4  11  23  40  62  85 108 140 184 236 287 335
#     4   9  16  26  44  71 105 141 180 221 269 322
#     4   9  17  30  49  75 103 135 174 224 276 326
#     4  11  21  36  55  81 111 142 177 225 281 333
#     4  10  20  33  52  81 108 144 184 217 275 334
#     4   9  14  24  42  69 104 144 184 225 268 315
#
# _framework density 18.404447000000001
#
# number of rings (size 3 to 8) (size 9 to 14) (size 15 to 20)
#    0.000    2.364    1.818    1.909    0.000    0.727 
#    0.000    0.909    0.000    0.545    0.000   26.091 
#    0.000    0.000    0.000    0.000    0.000    0.000 
#
# Total GULP energy -545158.096122 kJ/mol
# GULP energy per Si atom -12389.956730 kJ/mol
# Density = 1.836256 g / cm^3
# Si number density = 18.404447 Si / 1000 Ang^3
#
#
#
# Elastic Constant Matrix: (Units=GPa)
#
#
# Indices 1 2 3 4 5 6 
#
# 1 39.0440 26.9679 18.4352 0.0000 0.0000 0.0000
# 2 26.9679 167.5486 61.2722 0.0000 0.0000 0.0000
# 3 18.4352 61.2722 105.6095 0.0000 0.0000 0.0000
# 4 0.0000 0.0000 0.0000 -25.4466 0.0000 0.0000
# 5 0.0000 0.0000 0.0000 0.0000 6.9387 0.0000
# 6 0.0000 0.0000 0.0000 0.0000 0.0000 17.9843
#
#
#
# Elastic Compliance Matrix: (Units=1/GPa)
#
#
# Indices 1 2 3 4 5 6 
#
# 1 0.029568 -0.003645 -0.003047 0.000000 0.000000 0.000000
# 2 -0.003645 0.008025 -0.004020 0.000000 0.000000 0.000000
# 3 -0.003047 -0.004020 0.012333 0.000000 0.000000 0.000000
# 4 0.000000 0.000000 0.000000 -0.039298 0.000000 0.000000
# 5 0.000000 0.000000 0.000000 0.000000 0.144119 0.000000
# 6 0.000000 0.000000 0.000000 0.000000 0.000000 0.055604
#
#
# Mechanical properties :
#
#
# Convention : Reuss Voigt Hill
#
# Bulk Modulus (GPa) = 35.08358 58.39476 46.73917
# Shear Modulus (GPa) = 20.72321 13.59708 17.16014
#
# Velocity S-wave (km/s) = 3.35922 2.72102 3.05682
# Velocity P-wave (km/s) = 5.84378 6.45519 6.15708
#
# Compressibility (1/GPa) = 0.02850337
#
# Stress axis : x y z
#
# Youngs Moduli (GPa) = 33.82004 124.60900 81.08445
#
# Poissons Ratio (x) = 0.45420 0.24704
# Poissons Ratio (y) = 0.12327 0.32594
# Poissons Ratio (z) = 0.10304 0.50089
#
# Static dielectric constant tensor:
#      x y z
#    x 3.047350 0.000000 0.000000 
#    y 0.000000 3.999690 0.000000 
#    z 0.000000 0.000000 3.316030 
# 
# 
# High freq. dielectric constant tensor:
#      x y z
#    x 1.684060 0.000000 0.000000 
#    y 0.000000 1.735190 0.000000 
#    z 0.000000 0.000000 1.685850 
# 
# From -- ./inp_files/53116.got.cif
#   From: 2010.03.12/outbox.cif.g09.slc.cpg/sg65_27_cif.got.tgz:53116.got - 2010.04.10 20:52:16.
