data_PCOD8265286
_publ_section_title
;
Structure prediction by ZEFSAII (Michael W. Deem and Ramdas Pophale) SiO2 
 PCOD8265286
Probable space group: C M M M
;
_chemical_formula_sum "Si O2"
_cell_formula_units_Z 80
_cell_length_a 23.210951
_cell_length_b 26.870335
_cell_length_c 9.293007
_cell_angle_alpha 90.000000
_cell_angle_beta 90.000000
_cell_angle_gamma 90.000000
_cell_volume 5795.918634
_symmetry_space_group_name_H-M "C M M M"
_symmetry_group_IT_number 65
_symmetry_cell_setting 'orthorhombic'
loop_
_space_group_symop_operation_xyz
x,y,z
-x,-y,z
x,-y,-z
-x,y,-z
-x,-y,-z
x,y,-z
-x,y,z
x,-y,z
1/2+x,1/2+y,z
1/2-x,1/2-y,z
1/2+x,1/2-y,-z
1/2-x,1/2+y,-z
1/2-x,1/2-y,-z
1/2+x,1/2+y,-z
1/2-x,1/2+y,z
1/2+x,1/2-y,z
loop_
_atom_site_type_symbol
_atom_site_label
_atom_site_fract_x
_atom_site_fract_y
_atom_site_fract_z
Si Si1 0.186184 0.851761 0.830484
Si Si2 0.124761 0.764272 0.333989
Si Si3 0.000000 0.794388 0.662543
Si Si4 0.706563 0.203907 0.840638
Si Si5 0.500000 0.395491 0.828929
Si Si6 0.116807 0.945062 0.829755
O O1 0.145804 0.813855 0.745087
O O2 0.254109 0.843547 0.793586
O O3 0.168381 0.907678 0.784918
O O4 0.175315 0.842158 0.000000
O O5 0.142742 0.767699 0.500000
O O6 0.154090 0.714510 0.267921
O O7 0.056059 0.759900 0.312813
O O8 0.000000 0.815846 0.500000
O O9 0.000000 0.839791 0.771556
O O10 0.750000 0.250000 0.840418
O O11 0.680639 0.195703 0.000000
O O12 0.556024 0.424541 0.770624
O O13 0.500000 0.391897 0.000000
O O14 0.128932 0.000000 0.764322
O O15 0.112806 0.948834 0.000000
#
# Coordination Sequence:
#
# PCOD8265286 Si02
#       6
#    16  16   8  16   8  16
#     4   9  16  27  41  56  74  96 122 156 192 223
#     4  10  18  27  39  54  73  97 125 154 187 226
#     4  10  20  29  37  53  78 102 125 159 194 224
#     4   8  15  26  39  55  74  93 118 152 188 225
#     4  10  17  26  42  56  70  98 136 167 191 219
#     4   9  16  25  39  59  77  95 127 167 196 218
#
# _framework density 13.802816
#
# number of rings (size 3 to 8) (size 9 to 14) (size 15 to 20)
#    0.000    2.800    2.000    2.100    0.000    5.600 
#    0.000    0.000    0.000    3.000    0.000    0.000 
#    0.000    0.000    0.000    0.900    0.000   20.800 
#
# Total GULP energy -495704.574750 kJ/mol
# GULP energy per Si atom -12392.614369 kJ/mol
# Density = 1.377140 g / cm^3
# Si number density = 13.802816 Si / 1000 Ang^3
#
#
#
# Elastic Constant Matrix: (Units=GPa)
#
#
# Indices 1 2 3 4 5 6 
#
# 1 94.1679 61.3852 39.0742 0.0000 0.0000 0.0000
# 2 61.3852 78.1068 23.8110 0.0000 0.0000 0.0000
# 3 39.0742 23.8110 47.9271 0.0000 0.0000 0.0000
# 4 0.0000 0.0000 0.0000 5.1133 0.0000 0.0000
# 5 0.0000 0.0000 0.0000 0.0000 18.8574 0.0000
# 6 0.0000 0.0000 0.0000 0.0000 0.0000 21.3029
#
#
#
# Elastic Compliance Matrix: (Units=1/GPa)
#
#
# Indices 1 2 3 4 5 6 
#
# 1 0.027987 -0.017724 -0.014012 0.000000 0.000000 0.000000
# 2 -0.017724 0.026313 0.001378 0.000000 0.000000 0.000000
# 3 -0.014012 0.001378 0.031604 0.000000 0.000000 0.000000
# 4 0.000000 0.000000 0.000000 0.195568 0.000000 0.000000
# 5 0.000000 0.000000 0.000000 0.000000 0.053029 0.000000
# 6 0.000000 0.000000 0.000000 0.000000 0.000000 0.046942
#
#
# Mechanical properties :
#
#
# Convention : Reuss Voigt Hill
#
# Bulk Modulus (GPa) = 39.70241 52.08252 45.89246
# Shear Modulus (GPa) = 11.09740 15.45017 13.27378
#
# Velocity S-wave (km/s) = 2.83856 3.34930 3.10445
# Velocity P-wave (km/s) = 6.29044 7.26445 6.79492
#
# Compressibility (1/GPa) = 0.02518739
#
# Stress axis : x y z
#
# Youngs Moduli (GPa) = 35.73062 38.00473 31.64116
#
# Poissons Ratio (x) = 0.67359 0.44336
# Poissons Ratio (y) = 0.63329 -0.04359
# Poissons Ratio (z) = 0.50066 -0.05235
#
# Static dielectric constant tensor:
#      x y z
#    x 2.943620 0.000000 0.000000 
#    y 0.000000 2.806210 0.000000 
#    z 0.000000 0.000000 2.649480 
# 
# 
# High freq. dielectric constant tensor:
#      x y z
#    x 1.516540 0.000000 0.000000 
#    y 0.000000 1.490500 0.000000 
#    z 0.000000 0.000000 1.515570 
# 
# From -- ./inp_files/12541.got.cif
#   From: 2010.03.12/outbox.cif.g09.slc.cpg/sg65_7_cif.got.tgz:12541.got - 2010.04.10 20:52:16.
