data_PCOD8265582
_publ_section_title
;
Structure prediction by ZEFSAII (Michael W. Deem and Ramdas Pophale) SiO2 
 PCOD8265582
Probable space group: C M M M
;
_chemical_formula_sum "Si O2"
_cell_formula_units_Z 96
_cell_length_a 29.175342
_cell_length_b 25.383114
_cell_length_c 7.589499
_cell_angle_alpha 90.000000
_cell_angle_beta 90.000000
_cell_angle_gamma 90.000000
_cell_volume 5620.487212
_symmetry_space_group_name_H-M "C M M M"
_symmetry_group_IT_number 65
_symmetry_cell_setting 'orthorhombic'
loop_
_space_group_symop_operation_xyz
x,y,z
-x,-y,z
x,-y,-z
-x,y,-z
-x,-y,-z
x,y,-z
-x,y,z
x,-y,z
1/2+x,1/2+y,z
1/2-x,1/2-y,z
1/2+x,1/2-y,-z
1/2-x,1/2+y,-z
1/2-x,1/2-y,-z
1/2+x,1/2+y,-z
1/2-x,1/2+y,z
1/2+x,1/2-y,z
loop_
_atom_site_type_symbol
_atom_site_label
_atom_site_fract_x
_atom_site_fract_y
_atom_site_fract_z
Si Si1 0.119682 0.808926 0.797121
Si Si2 0.809974 0.000000 0.806617
Si Si3 0.302421 0.387799 0.789982
Si Si4 0.200017 0.611941 0.205904
Si Si5 0.949268 0.314302 0.500000
Si Si6 0.379856 0.813803 0.795792
Si Si7 0.289706 0.000000 0.298666
Si Si8 0.449263 0.310067 0.500000
O O1 0.164704 0.840395 0.733034
O O2 0.131021 0.747740 0.769405
O O3 0.077422 0.827881 0.676558
O O4 0.107122 0.821431 0.000000
O O5 0.822578 0.944020 0.713136
O O6 0.754684 0.000000 0.826231
O O7 0.832464 0.000000 0.000000
O O8 0.251077 0.377960 0.714039
O O9 0.299708 0.392964 0.000000
O O10 0.164160 0.654770 0.278713
O O11 0.181822 0.553278 0.256194
O O12 0.201980 0.619911 0.000000
O O13 0.922956 0.331813 0.677637
O O14 0.954127 0.252055 0.500000
O O15 0.000000 0.340146 0.500000
O O16 0.391193 0.826603 0.000000
O O17 0.273873 0.000000 0.500000
O O18 0.500000 0.336040 0.500000
#
# Coordination Sequence:
#
# PCOD8265582 Si02
#       8
#    16   8  16  16   8  16   8   8
#     4   9  17  30  46  69  94 119 152 186 220 273
#     4   8  14  28  44  60  86 121 157 190 221 256
#     4   8  14  26  45  65  91 123 154 185 220 259
#     4   9  17  30  45  63  91 126 153 183 220 261
#     4   9  18  32  49  66  91 118 147 190 233 269
#     4   9  18  30  47  69  94 121 151 182 223 274
#     4  10  18  26  40  64  88 117 156 193 218 250
#     4   9  18  32  47  66  89 118 149 188 237 273
#
# _framework density 17.080369999999998
#
# number of rings (size 3 to 8) (size 9 to 14) (size 15 to 20)
#    0.000    3.167    0.000    1.750    1.167    1.333 
#    6.000    6.667    0.000    3.000    0.000    2.333 
#    0.000    6.000    0.000    0.000    0.000    0.000 
#
# Total GULP energy -594660.270390 kJ/mol
# GULP energy per Si atom -12388.755633 kJ/mol
# Density = 1.704149 g / cm^3
# Si number density = 17.080370 Si / 1000 Ang^3
#
#
#
# Elastic Constant Matrix: (Units=GPa)
#
#
# Indices 1 2 3 4 5 6 
#
# 1 128.4164 61.2903 44.5753 0.0000 0.0000 0.0000
# 2 61.2903 84.7666 24.6578 0.0000 0.0000 0.0000
# 3 44.5753 24.6578 60.7174 0.0000 0.0000 0.0000
# 4 0.0000 0.0000 0.0000 8.6623 0.0000 0.0000
# 5 0.0000 0.0000 0.0000 0.0000 14.3685 0.0000
# 6 0.0000 0.0000 0.0000 0.0000 0.0000 4.3886
#
#
#
# Elastic Compliance Matrix: (Units=1/GPa)
#
#
# Indices 1 2 3 4 5 6 
#
# 1 0.014136 -0.008167 -0.007061 0.000000 0.000000 0.000000
# 2 -0.008167 0.018096 -0.001353 0.000000 0.000000 0.000000
# 3 -0.007061 -0.001353 0.022203 0.000000 0.000000 0.000000
# 4 0.000000 0.000000 0.000000 0.115443 0.000000 0.000000
# 5 0.000000 0.000000 0.000000 0.000000 0.069597 0.000000
# 6 0.000000 0.000000 0.000000 0.000000 0.000000 0.227861
#
#
# Mechanical properties :
#
#
# Convention : Reuss Voigt Hill
#
# Bulk Modulus (GPa) = 47.00917 59.43858 53.22388
# Shear Modulus (GPa) = 9.85047 15.04235 12.44641
#
# Velocity S-wave (km/s) = 2.40409 2.97085 2.70237
# Velocity P-wave (km/s) = 5.94039 6.82955 6.40043
#
# Compressibility (1/GPa) = 0.02127244
#
# Stress axis : x y z
#
# Youngs Moduli (GPa) = 70.74018 55.26118 45.03845
#
# Poissons Ratio (x) = 0.45132 0.31803
# Poissons Ratio (y) = 0.57774 0.06094
# Poissons Ratio (z) = 0.49952 0.07477
#
# Static dielectric constant tensor:
#      x y z
#    x 3.257790 0.000000 0.000000 
#    y 0.000000 3.312870 0.000000 
#    z 0.000000 0.000000 3.120680 
# 
# 
# High freq. dielectric constant tensor:
#      x y z
#    x 1.621420 0.000000 0.000000 
#    y 0.000000 1.646170 0.000000 
#    z 0.000000 0.000000 1.659170 
# 
# From -- ./inp_files/14687.got.cif
#   From: 2010.03.12/outbox.cif.g09.slc.cpg/sg65_8_cif.got.tgz:14687.got - 2010.04.10 20:52:16.
