data_PCOD8265212
_publ_section_title
;
Structure prediction by ZEFSAII (Michael W. Deem and Ramdas Pophale) SiO2 
 PCOD8265212
Probable space group: C M M M
;
_chemical_formula_sum "Si O2"
_cell_formula_units_Z 88
_cell_length_a 26.152562
_cell_length_b 27.931531
_cell_length_c 8.676608
_cell_angle_alpha 90.000000
_cell_angle_beta 90.000000
_cell_angle_gamma 90.000000
_cell_volume 6338.098123
_symmetry_space_group_name_H-M "C M M M"
_symmetry_group_IT_number 65
_symmetry_cell_setting 'orthorhombic'
loop_
_space_group_symop_operation_xyz
x,y,z
-x,-y,z
x,-y,-z
-x,y,-z
-x,-y,-z
x,y,-z
-x,y,z
x,-y,z
1/2+x,1/2+y,z
1/2-x,1/2-y,z
1/2+x,1/2-y,-z
1/2-x,1/2+y,-z
1/2-x,1/2-y,-z
1/2+x,1/2+y,-z
1/2-x,1/2+y,z
1/2+x,1/2-y,z
loop_
_atom_site_type_symbol
_atom_site_label
_atom_site_fract_x
_atom_site_fract_y
_atom_site_fract_z
Si Si1 0.802111 0.554774 0.320838
Si Si2 0.750472 0.863878 0.819302
Si Si3 0.305345 0.273876 0.174587
Si Si4 0.154567 0.312120 0.320255
Si Si5 0.398465 0.106310 0.182140
Si Si6 0.000000 0.553710 0.816935
O O1 0.813704 0.562466 0.500000
O O2 0.790044 0.500000 0.280774
O O3 0.751714 0.585746 0.272333
O O4 0.851236 0.571981 0.225569
O O5 0.798709 0.829692 0.772127
O O6 0.698894 0.835646 0.780884
O O7 0.752098 0.874443 0.000000
O O8 0.250000 0.250000 0.190099
O O9 0.346417 0.244783 0.279221
O O10 0.325226 0.271881 0.000000
O O11 0.164770 0.318978 0.500000
O O12 0.104344 0.341627 0.267196
O O13 0.449942 0.081315 0.242677
O O14 0.399416 0.114296 0.000000
O O15 0.000000 0.500000 0.748109
O O16 0.000000 0.551186 0.000000
#
# Coordination Sequence:
#
# PCOD8265212 Si02
#       6
#    16  16  16  16  16   8
#     4  10  19  28  37  51  71  92 115 144 177 212
#     4   9  16  25  37  51  67  88 113 139 166 199
#     4   8  14  24  36  51  69  87 108 133 163 199
#     4  10  17  24  36  53  71  88 106 131 168 212
#     4  10  18  29  43  54  66  85 112 147 183 219
#     4   9  18  30  43  57  67  81 113 153 188 221
#
# _framework density 13.884290999999999
#
# number of rings (size 3 to 8) (size 9 to 14) (size 15 to 20)
#    0.000    2.636    0.000    7.091    0.000    6.182 
#    0.000    1.818    0.000    3.273    0.000    0.000 
#    0.000    0.000    0.000    0.000    0.000    0.000 
#
# Total GULP energy -545098.754334 kJ/mol
# GULP energy per Si atom -12388.608053 kJ/mol
# Density = 1.385269 g / cm^3
# Si number density = 13.884291 Si / 1000 Ang^3
#
#
#
# Elastic Constant Matrix: (Units=GPa)
#
#
# Indices 1 2 3 4 5 6 
#
# 1 35.0613 48.9422 13.3923 0.0000 0.0000 0.0000
# 2 48.9422 117.0563 31.2903 0.0000 0.0000 0.0000
# 3 13.3923 31.2903 35.4786 0.0000 0.0000 0.0000
# 4 0.0000 0.0000 0.0000 22.3199 0.0000 0.0000
# 5 0.0000 0.0000 0.0000 0.0000 4.5954 0.0000
# 6 0.0000 0.0000 0.0000 0.0000 0.0000 23.2509
#
#
#
# Elastic Compliance Matrix: (Units=1/GPa)
#
#
# Indices 1 2 3 4 5 6 
#
# 1 0.068518 -0.028439 -0.000782 0.000000 0.000000 0.000000
# 2 -0.028439 0.022982 -0.009534 0.000000 0.000000 0.000000
# 3 -0.000782 -0.009534 0.036890 0.000000 0.000000 0.000000
# 4 0.000000 0.000000 0.000000 0.044803 0.000000 0.000000
# 5 0.000000 0.000000 0.000000 0.000000 0.217609 0.000000
# 6 0.000000 0.000000 0.000000 0.000000 0.000000 0.043009
#
#
# Mechanical properties :
#
#
# Convention : Reuss Voigt Hill
#
# Bulk Modulus (GPa) = 19.65419 41.64956 30.65188
# Shear Modulus (GPa) = 9.46466 16.29801 12.88133
#
# Velocity S-wave (km/s) = 2.61373 3.42986 3.04922
# Velocity P-wave (km/s) = 4.82651 6.76373 5.87551
#
# Compressibility (1/GPa) = 0.05087973
#
# Stress axis : x y z
#
# Youngs Moduli (GPa) = 14.59464 43.51231 27.10779
#
# Poissons Ratio (x) = 1.23745 0.02120
# Poissons Ratio (y) = 0.41506 0.25844
# Poissons Ratio (z) = 0.01142 0.41484
#
# Static dielectric constant tensor:
#      x y z
#    x 2.515020 0.000000 0.000000 
#    y 0.000000 3.407800 0.000000 
#    z 0.000000 0.000000 2.710910 
# 
# 
# High freq. dielectric constant tensor:
#      x y z
#    x 1.457590 0.000000 0.000000 
#    y 0.000000 1.534940 0.000000 
#    z 0.000000 0.000000 1.537000 
# 
# From -- ./inp_files/17164.got.cif
#   From: 2010.03.12/outbox.cif.g09.slc.cpg/sg65_9_cif.got.tgz:17164.got - 2010.04.10 20:52:16.
