data_PCOD8265660
_publ_section_title
;
Structure prediction by ZEFSAII (Michael W. Deem and Ramdas Pophale) SiO2 
 PCOD8265660
Probable space group: C M M M
;
_chemical_formula_sum "Si O2"
_cell_formula_units_Z 80
_cell_length_a 21.284683
_cell_length_b 18.261522
_cell_length_c 11.912926
_cell_angle_alpha 90.000000
_cell_angle_beta 90.000000
_cell_angle_gamma 90.000000
_cell_volume 4630.443628
_symmetry_space_group_name_H-M "C M M M"
_symmetry_group_IT_number 65
_symmetry_cell_setting 'orthorhombic'
loop_
_space_group_symop_operation_xyz
x,y,z
-x,-y,z
x,-y,-z
-x,y,-z
-x,-y,-z
x,y,-z
-x,y,z
x,-y,z
1/2+x,1/2+y,z
1/2-x,1/2-y,z
1/2+x,1/2-y,-z
1/2-x,1/2+y,-z
1/2-x,1/2-y,-z
1/2+x,1/2+y,-z
1/2-x,1/2+y,z
1/2+x,1/2-y,z
loop_
_atom_site_type_symbol
_atom_site_label
_atom_site_fract_x
_atom_site_fract_y
_atom_site_fract_z
Si Si1 0.750438 0.582216 0.627080
Si Si2 0.213133 0.823797 0.000000
Si Si3 0.187789 0.799220 0.760252
Si Si4 0.875207 0.677341 0.370984
Si Si5 0.838431 0.586639 0.000000
Si Si6 0.069761 0.584132 0.805610
O O1 0.726789 0.579026 0.500000
O O2 0.759602 0.500000 0.675407
O O3 0.697379 0.624278 0.696502
O O4 0.814700 0.626076 0.635978
O O5 0.250000 0.750000 0.000000
O O6 0.169883 0.823532 0.112023
O O7 0.266386 0.887287 0.000000
O O8 0.250000 0.750000 0.760198
O O9 0.134091 0.754033 0.695249
O O10 0.893846 0.693706 0.500000
O O11 0.929463 0.632162 0.308031
O O12 0.876841 0.614773 0.890783
O O13 0.839122 0.500000 0.000000
O O14 0.083521 0.500000 0.774798
O O15 0.000000 0.591500 0.859096
#
# Coordination Sequence:
#
# PCOD8265660 Si02
#       6
#    16   8  16  16   8  16
#     4   9  16  26  41  60  83 112 144 176 212 262
#     4  10  18  27  43  64  84 111 145 181 218 261
#     4   9  17  28  41  60  85 111 143 178 218 266
#     4  10  19  30  44  61  85 118 151 183 224 270
#     4  10  19  32  48  65  89 122 155 184 222 269
#     4  10  20  32  46  64  87 117 155 197 231 259
#
# _framework density 17.276962999999999
#
# number of rings (size 3 to 8) (size 9 to 14) (size 15 to 20)
#    0.000    2.400    0.000    5.100    0.000    7.600 
#    0.000    1.000    0.000    0.000    0.000    0.000 
#    0.000    0.800    0.000    4.600    0.000   45.800 
#
# Total GULP energy -495703.727607 kJ/mol
# GULP energy per Si atom -12392.593190 kJ/mol
# Density = 1.723764 g / cm^3
# Si number density = 17.276963 Si / 1000 Ang^3
#
#
#
# Elastic Constant Matrix: (Units=GPa)
#
#
# Indices 1 2 3 4 5 6 
#
# 1 23.2472 14.4933 26.8774 0.0000 0.0000 0.0000
# 2 14.4933 66.8108 42.6480 0.0000 0.0000 0.0000
# 3 26.8774 42.6480 127.2644 0.0000 0.0000 0.0000
# 4 0.0000 0.0000 0.0000 27.8217 0.0000 0.0000
# 5 0.0000 0.0000 0.0000 0.0000 15.9242 0.0000
# 6 0.0000 0.0000 0.0000 0.0000 0.0000 19.9786
#
#
#
# Elastic Compliance Matrix: (Units=1/GPa)
#
#
# Indices 1 2 3 4 5 6 
#
# 1 0.058831 -0.006146 -0.010365 0.000000 0.000000 0.000000
# 2 -0.006146 0.019683 -0.005298 0.000000 0.000000 0.000000
# 3 -0.010365 -0.005298 0.011822 0.000000 0.000000 0.000000
# 4 0.000000 0.000000 0.000000 0.035943 0.000000 0.000000
# 5 0.000000 0.000000 0.000000 0.000000 0.062798 0.000000
# 6 0.000000 0.000000 0.000000 0.000000 0.000000 0.050053
#
#
# Mechanical properties :
#
#
# Convention : Reuss Voigt Hill
#
# Bulk Modulus (GPa) = 21.40494 42.81776 32.11135
# Shear Modulus (GPa) = 16.76046 21.63181 19.19613
#
# Velocity S-wave (km/s) = 3.11803 3.54229 3.33691
# Velocity P-wave (km/s) = 5.03776 6.44727 5.78560
#
# Compressibility (1/GPa) = 0.04671818
#
# Stress axis : x y z
#
# Youngs Moduli (GPa) = 16.99777 50.80582 84.58687
#
# Poissons Ratio (x) = 0.31224 0.87676
# Poissons Ratio (y) = 0.10446 0.44814
# Poissons Ratio (z) = 0.17619 0.26917
#
# Static dielectric constant tensor:
#      x y z
#    x 2.626760 0.000000 0.000000 
#    y 0.000000 3.226200 0.000000 
#    z 0.000000 0.000000 3.939920 
# 
# 
# High freq. dielectric constant tensor:
#      x y z
#    x 1.597100 0.000000 0.000000 
#    y 0.000000 1.659170 0.000000 
#    z 0.000000 0.000000 1.687630 
# 
# From -- ./inp_files/28555.got.cif
#   From: 2010.03.12/outbox.cif.g09.slc.cpg/sg65_15_cif.got.tgz:28555.got - 2010.04.10 20:52:16.
