data_PCOD8265957
_publ_section_title
;
Structure prediction by ZEFSAII (Michael W. Deem and Ramdas Pophale) SiO2 
 PCOD8265957
Probable space group: C M M M
;
_chemical_formula_sum "Si O2"
_cell_formula_units_Z 80
_cell_length_a 26.213712
_cell_length_b 23.159820
_cell_length_c 9.028331
_cell_angle_alpha 90.000000
_cell_angle_beta 90.000000
_cell_angle_gamma 90.000000
_cell_volume 5481.143551
_symmetry_space_group_name_H-M "C M M M"
_symmetry_group_IT_number 65
_symmetry_cell_setting 'orthorhombic'
loop_
_space_group_symop_operation_xyz
x,y,z
-x,-y,z
x,-y,-z
-x,y,-z
-x,-y,-z
x,y,-z
-x,y,z
x,-y,z
1/2+x,1/2+y,z
1/2-x,1/2-y,z
1/2+x,1/2-y,-z
1/2-x,1/2+y,-z
1/2-x,1/2-y,-z
1/2+x,1/2+y,-z
1/2-x,1/2+y,z
1/2+x,1/2-y,z
loop_
_atom_site_type_symbol
_atom_site_label
_atom_site_fract_x
_atom_site_fract_y
_atom_site_fract_z
Si Si1 0.744192 0.884400 0.173487
Si Si2 0.717274 0.000000 0.676225
Si Si3 0.100597 0.500000 0.325177
Si Si4 0.699941 0.288789 0.332979
Si Si5 0.058155 0.389409 0.829671
Si Si6 0.647194 0.192900 0.171032
O O1 0.790786 0.845705 0.234752
O O2 0.690471 0.853973 0.209028
O O3 0.745909 0.944577 0.259262
O O4 0.752048 0.894858 0.000000
O O5 0.721164 0.000000 0.500000
O O6 0.658747 0.000000 0.731923
O O7 0.098867 0.500000 0.500000
O O8 0.071191 0.555899 0.269073
O O9 0.686065 0.307027 0.500000
O O10 0.750000 0.250000 0.328031
O O11 0.653689 0.251278 0.265555
O O12 0.093020 0.334879 0.785501
O O13 0.000000 0.370712 0.802213
O O14 0.068218 0.406685 0.000000
O O15 0.650388 0.210702 0.000000
#
# Coordination Sequence:
#
# PCOD8265957 Si02
#       6
#    16   8   8  16  16  16
#     4  10  18  29  45  62  81 108 141 175 210 253
#     4  11  21  30  42  61  86 114 143 179 218 255
#     4  11  22  32  43  58  82 112 146 187 227 259
#     4   9  17  28  43  62  83 105 131 168 213 259
#     4  10  20  33  47  61  80 110 148 187 223 257
#     4   9  17  29  44  61  80 105 140 178 214 255
#
# _framework density 14.595494
#
# number of rings (size 3 to 8) (size 9 to 14) (size 15 to 20)
#    0.000    2.200    2.000    2.100    0.000    6.400 
#    0.000    0.000    0.000    0.000    0.000    0.000 
#    0.000    0.000    0.000    0.900    0.000   18.600 
#
# Total GULP energy -496080.850610 kJ/mol
# GULP energy per Si atom -12402.021265 kJ/mol
# Density = 1.456227 g / cm^3
# Si number density = 14.595494 Si / 1000 Ang^3
#
#
#
# Elastic Constant Matrix: (Units=GPa)
#
#
# Indices 1 2 3 4 5 6 
#
# 1 61.4921 52.1993 30.6474 0.0000 0.0000 0.0000
# 2 52.1993 95.0670 48.7587 0.0000 0.0000 0.0000
# 3 30.6474 48.7587 75.0062 0.0000 0.0000 0.0000
# 4 0.0000 0.0000 0.0000 24.1014 0.0000 0.0000
# 5 0.0000 0.0000 0.0000 0.0000 15.6980 0.0000
# 6 0.0000 0.0000 0.0000 0.0000 0.0000 4.7436
#
#
#
# Elastic Compliance Matrix: (Units=1/GPa)
#
#
# Indices 1 2 3 4 5 6 
#
# 1 0.030741 -0.015657 -0.002382 0.000000 0.000000 0.000000
# 2 -0.015657 0.023755 -0.009045 0.000000 0.000000 0.000000
# 3 -0.002382 -0.009045 0.020185 0.000000 0.000000 0.000000
# 4 0.000000 0.000000 0.000000 0.041491 0.000000 0.000000
# 5 0.000000 0.000000 0.000000 0.000000 0.063702 0.000000
# 6 0.000000 0.000000 0.000000 0.000000 0.000000 0.210812
#
#
# Mechanical properties :
#
#
# Convention : Reuss Voigt Hill
#
# Bulk Modulus (GPa) = 48.75127 54.97510 51.86318
# Shear Modulus (GPa) = 11.06948 15.57258 13.32103
#
# Velocity S-wave (km/s) = 2.75693 3.26996 3.02434
# Velocity P-wave (km/s) = 6.60366 7.21141 6.91421
#
# Compressibility (1/GPa) = 0.02051229
#
# Stress axis : x y z
#
# Youngs Moduli (GPa) = 32.53030 42.09692 49.54111
#
# Poissons Ratio (x) = 0.65911 0.11803
# Poissons Ratio (y) = 0.50933 0.44808
# Poissons Ratio (z) = 0.07750 0.38075
#
# Static dielectric constant tensor:
#      x y z
#    x 2.666850 0.000000 0.000000 
#    y 0.000000 2.803050 0.000000 
#    z 0.000000 0.000000 2.929100 
# 
# 
# High freq. dielectric constant tensor:
#      x y z
#    x 1.517200 0.000000 0.000000 
#    y 0.000000 1.546080 0.000000 
#    z 0.000000 0.000000 1.571120 
# 
# From -- ./inp_files/12086.got.cif
#   From: 2010.03.12/outbox.cif.g09.slc.cpg/sg65_7_cif.got.tgz:12086.got - 2010.04.10 20:52:16.
