data_PCOD8265470
_publ_section_title
;
Structure prediction by ZEFSAII (Michael W. Deem and Ramdas Pophale) SiO2 
 PCOD8265470
Probable space group: C M M M
;
_chemical_formula_sum "Si O2"
_cell_formula_units_Z 80
_cell_length_a 8.735477
_cell_length_b 23.831992
_cell_length_c 20.681021
_cell_angle_alpha 90.000000
_cell_angle_beta 90.000000
_cell_angle_gamma 90.000000
_cell_volume 4305.453912
_symmetry_space_group_name_H-M "C M M M"
_symmetry_group_IT_number 65
_symmetry_cell_setting 'orthorhombic'
loop_
_space_group_symop_operation_xyz
x,y,z
-x,-y,z
x,-y,-z
-x,y,-z
-x,-y,-z
x,y,-z
-x,y,z
x,-y,z
1/2+x,1/2+y,z
1/2-x,1/2-y,z
1/2+x,1/2-y,-z
1/2-x,1/2+y,-z
1/2-x,1/2-y,-z
1/2+x,1/2+y,-z
1/2-x,1/2+y,z
1/2+x,1/2-y,z
loop_
_atom_site_type_symbol
_atom_site_label
_atom_site_fract_x
_atom_site_fract_y
_atom_site_fract_z
Si Si1 0.823626 0.500000 0.239764
Si Si2 0.318212 0.886307 0.700819
Si Si3 0.677707 0.622648 0.069392
Si Si4 0.818430 0.563104 0.571086
Si Si5 0.317975 0.311002 0.193482
Si Si6 0.826077 0.000000 0.891476
O O1 0.751523 0.556431 0.268628
O O2 0.798794 0.500000 0.164096
O O3 0.000000 0.500000 0.258705
O O4 0.500000 0.879376 0.709315
O O5 0.268640 0.890841 0.625021
O O6 0.237293 0.835116 0.737497
O O7 0.500000 0.637168 0.071321
O O8 0.749268 0.651937 0.133243
O O9 0.703647 0.555753 0.067387
O O10 0.745357 0.644928 0.000000
O O11 0.756949 0.581558 0.500000
O O12 0.758416 0.500000 0.587887
O O13 0.000000 0.560424 0.570257
O O14 0.500000 0.308916 0.193858
O O15 0.250000 0.250000 0.184095
O O16 0.000000 0.000000 0.863461
#
# Coordination Sequence:
#
# PCOD8265470 Si02
#       6
#     8  16  16  16  16   8
#     4  10  18  27  46  77 110 137 162 200 252 300
#     4  10  18  31  52  78 108 139 169 206 250 297
#     4   9  18  32  52  77 102 129 163 205 254 306
#     4   8  13  23  44  77 112 141 168 198 238 294
#     4  11  23  38  55  74  97 130 175 221 261 302
#     4  10  17  30  52  77 103 132 166 202 243 304
#
# _framework density 18.581084000000001
#
# number of rings (size 3 to 8) (size 9 to 14) (size 15 to 20)
#    0.000    2.400    3.000    1.500    0.000    1.600 
#    0.000    0.000    0.000    6.600    0.000    1.400 
#    0.000    0.000    0.000    0.000    0.000    0.000 
#
# Total GULP energy -495528.266546 kJ/mol
# GULP energy per Si atom -12388.206664 kJ/mol
# Density = 1.853879 g / cm^3
# Si number density = 18.581084 Si / 1000 Ang^3
#
#
#
# Elastic Constant Matrix: (Units=GPa)
#
#
# Indices 1 2 3 4 5 6 
#
# 1 29.5533 22.7391 23.6728 0.0000 0.0000 0.0000
# 2 22.7391 103.8202 59.5091 0.0000 0.0000 0.0000
# 3 23.6728 59.5091 165.1137 0.0000 0.0000 0.0000
# 4 0.0000 0.0000 0.0000 13.1336 0.0000 0.0000
# 5 0.0000 0.0000 0.0000 0.0000 18.1793 0.0000
# 6 0.0000 0.0000 0.0000 0.0000 0.0000 11.0376
#
#
#
# Elastic Compliance Matrix: (Units=1/GPa)
#
#
# Indices 1 2 3 4 5 6 
#
# 1 0.042178 -0.007275 -0.003425 0.000000 0.000000 0.000000
# 2 -0.007275 0.013395 -0.003785 0.000000 0.000000 0.000000
# 3 -0.003425 -0.003785 0.007912 0.000000 0.000000 0.000000
# 4 0.000000 0.000000 0.000000 0.076141 0.000000 0.000000
# 5 0.000000 0.000000 0.000000 0.000000 0.055008 0.000000
# 6 0.000000 0.000000 0.000000 0.000000 0.000000 0.090600
#
#
# Mechanical properties :
#
#
# Convention : Reuss Voigt Hill
#
# Bulk Modulus (GPa) = 28.97266 56.70323 42.83794
# Shear Modulus (GPa) = 15.35124 21.30784 18.32954
#
# Velocity S-wave (km/s) = 2.87745 3.39004 3.14421
# Velocity P-wave (km/s) = 5.16391 6.77540 6.02379
#
# Compressibility (1/GPa) = 0.03451530
#
# Stress axis : x y z
#
# Youngs Moduli (GPa) = 23.70886 74.65638 126.39730
#
# Poissons Ratio (x) = 0.54310 0.43295
# Poissons Ratio (y) = 0.17247 0.47837
# Poissons Ratio (z) = 0.08121 0.28255
#
# Static dielectric constant tensor:
#      x y z
#    x 2.965280 0.000000 0.000000 
#    y 0.000000 3.291810 0.000000 
#    z 0.000000 0.000000 3.881000 
# 
# 
# High freq. dielectric constant tensor:
#      x y z
#    x 1.672260 0.000000 0.000000 
#    y 0.000000 1.696930 0.000000 
#    z 0.000000 0.000000 1.737640 
# 
# From -- ./inp_files/51589.got.cif
#   From: 2010.03.12/outbox.cif.g09.slc.cpg/sg65_26_cif.got.tgz:51589.got - 2010.04.10 20:52:16.
