data_PCOD8265433
_publ_section_title
;
Structure prediction by ZEFSAII (Michael W. Deem and Ramdas Pophale) SiO2 
 PCOD8265433
Probable space group: C M M M
;
_chemical_formula_sum "Si O2"
_cell_formula_units_Z 56
_cell_length_a 10.397268
_cell_length_b 36.916333
_cell_length_c 7.713163
_cell_angle_alpha 90.000000
_cell_angle_beta 90.000000
_cell_angle_gamma 90.000000
_cell_volume 2960.535701
_symmetry_space_group_name_H-M "C M M M"
_symmetry_group_IT_number 65
_symmetry_cell_setting 'orthorhombic'
loop_
_space_group_symop_operation_xyz
x,y,z
-x,-y,z
x,-y,-z
-x,y,-z
-x,-y,-z
x,y,-z
-x,y,z
x,-y,z
1/2+x,1/2+y,z
1/2-x,1/2-y,z
1/2+x,1/2-y,-z
1/2-x,1/2+y,-z
1/2-x,1/2-y,-z
1/2+x,1/2+y,-z
1/2-x,1/2+y,z
1/2+x,1/2-y,z
loop_
_atom_site_type_symbol
_atom_site_label
_atom_site_fract_x
_atom_site_fract_y
_atom_site_fract_z
Si Si1 0.347411 0.040321 0.500000
Si Si2 0.500000 0.786875 0.293800
Si Si3 0.851907 0.591464 0.805134
Si Si4 0.500000 0.294487 0.706131
Si Si5 0.758199 0.332649 0.293964
O O1 0.500000 0.037469 0.500000
O O2 0.299600 0.061244 0.672078
O O3 0.286954 0.000000 0.500000
O O4 0.500000 0.785612 0.500000
O O5 0.500000 0.746207 0.218165
O O6 0.373864 0.807505 0.225210
O O7 0.768650 0.627653 0.787316
O O8 0.000000 0.601038 0.761056
O O9 0.837980 0.576050 0.000000
O O10 0.500000 0.292911 0.500000
O O11 0.374273 0.315373 0.773540
O O12 0.762752 0.336031 0.500000
#
# Coordination Sequence:
#
# PCOD8265433 Si02
#       5
#     8   8  16   8  16
#     4   9  18  32  52  79 110 138 167 206 257 311
#     4   9  16  26  47  71  99 139 179 222 269 312
#     4  10  19  31  51  77 105 138 175 211 253 307
#     4   9  18  28  43  75 105 133 179 228 267 304
#     4  10  17  29  49  71 102 139 178 219 262 309
#
# _framework density 18.915493999999999
#
# number of rings (size 3 to 8) (size 9 to 14) (size 15 to 20)
#    0.000    2.429    2.857    0.857    0.000    4.000 
#    0.000    3.571    0.000    5.143    0.000    2.000 
#    0.000    2.286    0.000    0.000    0.000    0.000 
#
# Total GULP energy -347212.501977 kJ/mol
# GULP energy per Si atom -12400.446499 kJ/mol
# Density = 1.887244 g / cm^3
# Si number density = 18.915494 Si / 1000 Ang^3
#
#
#
# Elastic Constant Matrix: (Units=GPa)
#
#
# Indices 1 2 3 4 5 6 
#
# 1 111.6386 56.1342 23.2270 0.0000 0.0000 0.0000
# 2 56.1342 175.8761 53.8520 0.0000 0.0000 0.0000
# 3 23.2270 53.8520 81.7373 0.0000 0.0000 0.0000
# 4 0.0000 0.0000 0.0000 1.1172 0.0000 0.0000
# 5 0.0000 0.0000 0.0000 0.0000 6.0169 0.0000
# 6 0.0000 0.0000 0.0000 0.0000 0.0000 9.7816
#
#
#
# Elastic Compliance Matrix: (Units=1/GPa)
#
#
# Indices 1 2 3 4 5 6 
#
# 1 0.010734 -0.003122 -0.000993 0.000000 0.000000 0.000000
# 2 -0.003122 0.008031 -0.004404 0.000000 0.000000 0.000000
# 3 -0.000993 -0.004404 0.015418 0.000000 0.000000 0.000000
# 4 0.000000 0.000000 0.000000 0.895083 0.000000 0.000000
# 5 0.000000 0.000000 0.000000 0.000000 0.166197 0.000000
# 6 0.000000 0.000000 0.000000 0.000000 0.000000 0.102232
#
#
# Mechanical properties :
#
#
# Convention : Reuss Voigt Hill
#
# Bulk Modulus (GPa) = 58.32786 70.63093 64.47939
# Shear Modulus (GPa) = 4.09685 19.11908 11.60797
#
# Velocity S-wave (km/s) = 1.47329 3.18270 2.47993
# Velocity P-wave (km/s) = 5.81352 7.13634 6.50863
#
# Compressibility (1/GPa) = 0.01714447
#
# Stress axis : x y z
#
# Youngs Moduli (GPa) = 93.16339 124.52393 64.85912
#
# Poissons Ratio (x) = 0.38873 0.06444
# Poissons Ratio (y) = 0.29083 0.28563
# Poissons Ratio (z) = 0.09256 0.54838
#
# Static dielectric constant tensor:
#      x y z
#    x 3.285840 0.000000 0.000000 
#    y 0.000000 3.530710 0.000000 
#    z 0.000000 0.000000 3.254590 
# 
# 
# High freq. dielectric constant tensor:
#      x y z
#    x 1.699030 0.000000 0.000000 
#    y 0.000000 1.731690 0.000000 
#    z 0.000000 0.000000 1.722820 
# 
# From -- ./inp_files/4751.got.cif
#   From: 2010.03.12/outbox.cif.g09.slc.cpg/sg65_3_cif.got.tgz:4751.got - 2010.04.10 20:52:16.
