data_PCOD8265104
_publ_section_title
;
Structure prediction by ZEFSAII (Michael W. Deem and Ramdas Pophale) SiO2 
 PCOD8265104
Probable space group: C M M M
;
_chemical_formula_sum "Si O2"
_cell_formula_units_Z 72
_cell_length_a 18.791542
_cell_length_b 8.973901
_cell_length_c 23.555373
_cell_angle_alpha 90.000000
_cell_angle_beta 90.000000
_cell_angle_gamma 90.000000
_cell_volume 3972.223522
_symmetry_space_group_name_H-M "C M M M"
_symmetry_group_IT_number 65
_symmetry_cell_setting 'orthorhombic'
loop_
_space_group_symop_operation_xyz
x,y,z
-x,-y,z
x,-y,-z
-x,y,-z
-x,-y,-z
x,y,-z
-x,y,z
x,-y,z
1/2+x,1/2+y,z
1/2-x,1/2-y,z
1/2+x,1/2-y,-z
1/2-x,1/2+y,-z
1/2-x,1/2-y,-z
1/2+x,1/2+y,-z
1/2-x,1/2+y,z
1/2+x,1/2-y,z
loop_
_atom_site_type_symbol
_atom_site_label
_atom_site_fract_x
_atom_site_fract_y
_atom_site_fract_z
Si Si1 0.674314 0.326746 0.608202
Si Si2 0.584245 0.830315 0.827269
Si Si3 0.825784 0.827657 0.266295
Si Si4 0.828946 0.322065 0.500000
Si Si5 0.915436 0.832315 0.062259
O O1 0.682236 0.500000 0.591936
O O2 0.750000 0.250000 0.613373
O O3 0.639778 0.306353 0.670534
O O4 0.632007 0.240682 0.557221
O O5 0.500000 0.810572 0.824081
O O6 0.617015 0.735817 0.776786
O O7 0.614257 0.773353 0.887985
O O8 0.608034 0.000000 0.820329
O O9 0.750000 0.750000 0.258917
O O10 0.813075 0.000000 0.253356
O O11 0.827843 0.500000 0.500000
O O12 0.750000 0.250000 0.500000
O O13 0.000000 0.829696 0.062933
O O14 0.888121 0.000000 0.073351
O O15 0.888690 0.776799 0.000000
#
# Coordination Sequence:
#
# PCOD8265104 Si02
#       5
#    16  16  16   8  16
#     4   9  16  26  40  60  86 116 150 188 230 274
#     4  10  20  32  48  72 100 128 159 196 235 278
#     4  10  20  33  50  70  95 128 162 197 237 283
#     4  10  16  22  36  58  85 116 147 184 229 273
#     4   8  14  26  45  68  93 121 154 193 235 277
#
# _framework density 18.125869000000002
#
# number of rings (size 3 to 8) (size 9 to 14) (size 15 to 20)
#    0.000    2.667    0.000    5.000    0.000    4.444 
#    0.000    2.222    0.000    0.667    0.000    0.778 
#    0.000    6.222    0.000    0.000    0.000    0.000 
#
# Total GULP energy -446026.921269 kJ/mol
# GULP energy per Si atom -12389.636702 kJ/mol
# Density = 1.808461 g / cm^3
# Si number density = 18.125869 Si / 1000 Ang^3
#
#
#
# Elastic Constant Matrix: (Units=GPa)
#
#
# Indices 1 2 3 4 5 6 
#
# 1 14.1503 21.9319 24.6567 0.0000 0.0000 0.0000
# 2 21.9319 150.4009 91.5650 0.0000 0.0000 0.0000
# 3 24.6567 91.5650 177.2684 0.0000 0.0000 0.0000
# 4 0.0000 0.0000 0.0000 34.9152 0.0000 0.0000
# 5 0.0000 0.0000 0.0000 0.0000 26.5608 0.0000
# 6 0.0000 0.0000 0.0000 0.0000 0.0000 18.4767
#
#
#
# Elastic Compliance Matrix: (Units=1/GPa)
#
#
# Indices 1 2 3 4 5 6 
#
# 1 0.101004 -0.009009 -0.009396 0.000000 0.000000 0.000000
# 2 -0.009009 0.010502 -0.004172 0.000000 0.000000 0.000000
# 3 -0.009396 -0.004172 0.009103 0.000000 0.000000 0.000000
# 4 0.000000 0.000000 0.000000 0.028641 0.000000 0.000000
# 5 0.000000 0.000000 0.000000 0.000000 0.037649 0.000000
# 6 0.000000 0.000000 0.000000 0.000000 0.000000 0.054122
#
#
# Mechanical properties :
#
#
# Convention : Reuss Voigt Hill
#
# Bulk Modulus (GPa) = 13.25249 68.68074 40.96662
# Shear Modulus (GPa) = 16.06030 29.56829 22.81429
#
# Velocity S-wave (km/s) = 2.97988 4.04329 3.55161
# Velocity P-wave (km/s) = 4.37799 7.73116 6.28242
#
# Compressibility (1/GPa) = 0.07545752
#
# Stress axis : x y z
#
# Youngs Moduli (GPa) = 9.90056 95.21672 109.85493
#
# Poissons Ratio (x) = 0.85776 1.03217
# Poissons Ratio (y) = 0.08919 0.45829
# Poissons Ratio (z) = 0.09302 0.39722
#
# Static dielectric constant tensor:
#      x y z
#    x 2.622720 0.000000 0.000000 
#    y 0.000000 3.523500 0.000000 
#    z 0.000000 0.000000 4.539440 
# 
# 
# High freq. dielectric constant tensor:
#      x y z
#    x 1.616520 0.000000 0.000000 
#    y 0.000000 1.717160 0.000000 
#    z 0.000000 0.000000 1.735330 
# 
# From -- ./inp_files/64351.got.cif
#   From: 2010.03.12/outbox.cif.g09.slc.cpg/sg65_33_cif.got.tgz:64351.got - 2010.04.10 20:52:16.
