data_PCOD8265273
_publ_section_title
;
Structure prediction by ZEFSAII (Michael W. Deem and Ramdas Pophale) SiO2 
 PCOD8265273
Probable space group: C M M M
;
_chemical_formula_sum "Si O2"
_cell_formula_units_Z 72
_cell_length_a 18.464465
_cell_length_b 8.685436
_cell_length_c 23.720060
_cell_angle_alpha 90.000000
_cell_angle_beta 90.000000
_cell_angle_gamma 90.000000
_cell_volume 3804.031779
_symmetry_space_group_name_H-M "C M M M"
_symmetry_group_IT_number 65
_symmetry_cell_setting 'orthorhombic'
loop_
_space_group_symop_operation_xyz
x,y,z
-x,-y,z
x,-y,-z
-x,y,-z
-x,-y,-z
x,y,-z
-x,y,z
x,-y,z
1/2+x,1/2+y,z
1/2-x,1/2-y,z
1/2+x,1/2-y,-z
1/2-x,1/2+y,-z
1/2-x,1/2-y,-z
1/2+x,1/2+y,-z
1/2-x,1/2+y,z
1/2+x,1/2-y,z
loop_
_atom_site_type_symbol
_atom_site_label
_atom_site_fract_x
_atom_site_fract_y
_atom_site_fract_z
Si Si1 0.669544 0.317972 0.671403
Si Si2 0.086101 0.673644 0.000000
Si Si3 0.170935 0.680884 0.215009
Si Si4 0.829246 0.320417 0.438901
Si Si5 0.914196 0.175866 0.115030
O O1 0.669596 0.500000 0.673739
O O2 0.750000 0.250000 0.669589
O O3 0.633614 0.252239 0.728532
O O4 0.628959 0.260438 0.613882
O O5 0.114693 0.763083 0.945021
O O6 0.116873 0.500000 0.000000
O O7 0.000000 0.671596 0.000000
O O8 0.178410 0.500000 0.222786
O O9 0.250000 0.750000 0.203896
O O10 0.119447 0.718506 0.163102
O O11 0.868304 0.292560 0.500000
O O12 0.822800 0.500000 0.425732
O O13 0.750000 0.250000 0.443111
O O14 0.000000 0.191211 0.118810
O O15 0.888893 0.000000 0.122560
#
# Coordination Sequence:
#
# PCOD8265273 Si02
#       5
#    16   8  16  16  16
#     4  10  17  26  40  58  84 118 156 194 237 287
#     4   9  17  31  52  77 102 129 162 197 237 285
#     4  11  21  34  51  71  99 132 167 203 244 293
#     4   9  15  22  33  51  77 110 149 191 234 280
#     4  10  20  35  55  78 103 130 162 200 242 287
#
# _framework density 18.927285999999999
#
# number of rings (size 3 to 8) (size 9 to 14) (size 15 to 20)
#    0.000    2.111    0.000    8.333    0.000    4.000 
#    0.000    0.556    0.000    0.000    0.000    0.000 
#    0.000    0.889    0.000    9.333    0.000    7.778 
#
# Total GULP energy -446152.059758 kJ/mol
# GULP energy per Si atom -12393.112771 kJ/mol
# Density = 1.888421 g / cm^3
# Si number density = 18.927286 Si / 1000 Ang^3
#
#
#
# Elastic Constant Matrix: (Units=GPa)
#
#
# Indices 1 2 3 4 5 6 
#
# 1 13.0857 17.2172 21.8254 0.0000 0.0000 0.0000
# 2 17.2172 172.5327 73.4398 0.0000 0.0000 0.0000
# 3 21.8254 73.4398 195.0970 0.0000 0.0000 0.0000
# 4 0.0000 0.0000 0.0000 40.9030 0.0000 0.0000
# 5 0.0000 0.0000 0.0000 0.0000 -11.0136 0.0000
# 6 0.0000 0.0000 0.0000 0.0000 0.0000 16.2546
#
#
#
# Elastic Compliance Matrix: (Units=1/GPa)
#
#
# Indices 1 2 3 4 5 6 
#
# 1 0.099158 -0.006160 -0.008774 0.000000 0.000000 0.000000
# 2 -0.006160 0.007285 -0.002053 0.000000 0.000000 0.000000
# 3 -0.008774 -0.002053 0.006880 0.000000 0.000000 0.000000
# 4 0.000000 0.000000 0.000000 0.024448 0.000000 0.000000
# 5 0.000000 0.000000 0.000000 0.000000 -0.090797 0.000000
# 6 0.000000 0.000000 0.000000 0.000000 0.000000 0.061521
#
#
# Mechanical properties :
#
#
# Convention : Reuss Voigt Hill
#
# Bulk Modulus (GPa) = 12.60265 67.29780 39.95022
# Shear Modulus (GPa) = 29.59996 27.11100 28.35548
#
# Velocity S-wave (km/s) = 3.95888 3.78878 3.87476
# Velocity P-wave (km/s) = 5.25070 7.40088 6.41650
#
# Compressibility (1/GPa) = 0.07934839
#
# Stress axis : x y z
#
# Youngs Moduli (GPa) = 10.08489 137.27563 145.34956
#
# Poissons Ratio (x) = 0.84568 1.27527
# Poissons Ratio (y) = 0.06213 0.29840
# Poissons Ratio (z) = 0.08848 0.28182
#
# Static dielectric constant tensor:
#      x y z
#    x 2.677960 0.000000 0.000000 
#    y 0.000000 3.729510 0.000000 
#    z 0.000000 0.000000 4.750200 
# 
# 
# High freq. dielectric constant tensor:
#      x y z
#    x 1.643410 0.000000 0.000000 
#    y 0.000000 1.758770 0.000000 
#    z 0.000000 0.000000 1.773720 
# 
# From -- ./inp_files/70750.got.cif
#   From: 2010.03.12/outbox.cif.g09.slc.cpg/sg65_36_cif.got.tgz:70750.got - 2010.04.10 20:52:16.
