data_PCOD8265732
_publ_section_title
;
Structure prediction by ZEFSAII (Michael W. Deem and Ramdas Pophale) SiO2 
 PCOD8265732
Probable space group: C M M M
;
_chemical_formula_sum "Si O2"
_cell_formula_units_Z 104
_cell_length_a 26.878535
_cell_length_b 9.023942
_cell_length_c 22.892345
_cell_angle_alpha 90.000000
_cell_angle_beta 90.000000
_cell_angle_gamma 90.000000
_cell_volume 5552.546083
_symmetry_space_group_name_H-M "C M M M"
_symmetry_group_IT_number 65
_symmetry_cell_setting 'orthorhombic'
loop_
_space_group_symop_operation_xyz
x,y,z
-x,-y,z
x,-y,-z
-x,y,-z
-x,-y,-z
x,y,-z
-x,y,z
x,-y,z
1/2+x,1/2+y,z
1/2-x,1/2-y,z
1/2+x,1/2-y,-z
1/2-x,1/2+y,-z
1/2-x,1/2-y,-z
1/2+x,1/2+y,-z
1/2-x,1/2+y,z
1/2+x,1/2-y,z
loop_
_atom_site_type_symbol
_atom_site_label
_atom_site_fract_x
_atom_site_fract_y
_atom_site_fract_z
Si Si1 0.634583 0.670124 0.160275
Si Si2 0.801569 0.674262 0.066828
Si Si3 0.443794 0.671409 0.752574
Si Si4 0.405929 0.822977 0.360663
Si Si5 0.797566 0.336925 0.622951
Si Si6 0.000000 0.676239 0.565647
Si Si7 0.796698 0.334643 0.239282
O O1 0.648503 0.500000 0.147711
O O2 0.651881 0.766280 0.104790
O O3 0.576975 0.688639 0.180409
O O4 0.658413 0.730996 0.219994
O O5 0.796053 0.500000 0.075847
O O6 0.750000 0.750000 0.086857
O O7 0.813569 0.715351 0.000000
O O8 0.500000 0.731074 0.753520
O O9 0.440950 0.500000 0.733721
O O10 0.413072 0.763873 0.704649
O O11 0.352790 0.767297 0.388354
O O12 0.450639 0.765247 0.401710
O O13 0.404041 0.000000 0.356278
O O14 0.794860 0.500000 0.594816
O O15 0.750000 0.250000 0.596113
O O16 0.791901 0.346563 0.692028
O O17 0.000000 0.500000 0.565214
O O18 0.000000 0.739789 0.500000
O O19 0.800869 0.500000 0.211958
O O20 0.750000 0.250000 0.211412
#
# Coordination Sequence:
#
# PCOD8265732 Si02
#       7
#    16  16  16  16  16   8  16
#     4  11  21  32  49  72 100 134 170 210 258 312
#     4  10  21  37  56  77 103 136 175 218 261 309
#     4  10  21  35  51  75 106 138 172 212 267 324
#     4  10  18  32  54  78 106 140 180 222 268 321
#     4   9  18  29  44  69 100 137 174 209 253 312
#     4   9  18  32  55  85 111 137 176 229 278 317
#     4  10  18  28  42  64  98 131 164 202 243 298
#
# _framework density 18.730146000000001
#
# number of rings (size 3 to 8) (size 9 to 14) (size 15 to 20)
#    0.000    2.077    2.308    1.846    0.000    2.769 
#    0.000    0.000    0.000    1.846    0.000    3.231 
#    0.000    0.000    0.000    0.000    0.000    0.000 
#
# Total GULP energy -644259.700614 kJ/mol
# GULP energy per Si atom -12389.609627 kJ/mol
# Density = 1.868752 g / cm^3
# Si number density = 18.730146 Si / 1000 Ang^3
#
#
#
# Elastic Constant Matrix: (Units=GPa)
#
#
# Indices 1 2 3 4 5 6 
#
# 1 147.0760 35.7578 35.1962 0.0000 0.0000 0.0000
# 2 35.7578 63.1931 16.9746 0.0000 0.0000 0.0000
# 3 35.1962 16.9746 73.6657 0.0000 0.0000 0.0000
# 4 0.0000 0.0000 0.0000 13.0098 0.0000 0.0000
# 5 0.0000 0.0000 0.0000 0.0000 19.3168 0.0000
# 6 0.0000 0.0000 0.0000 0.0000 0.0000 23.6402
#
#
#
# Elastic Compliance Matrix: (Units=1/GPa)
#
#
# Indices 1 2 3 4 5 6 
#
# 1 0.008520 -0.003974 -0.003155 0.000000 0.000000 0.000000
# 2 -0.003974 0.018722 -0.002415 0.000000 0.000000 0.000000
# 3 -0.003155 -0.002415 0.015639 0.000000 0.000000 0.000000
# 4 0.000000 0.000000 0.000000 0.076865 0.000000 0.000000
# 5 0.000000 0.000000 0.000000 0.000000 0.051768 0.000000
# 6 0.000000 0.000000 0.000000 0.000000 0.000000 0.042301
#
#
# Mechanical properties :
#
#
# Convention : Reuss Voigt Hill
#
# Bulk Modulus (GPa) = 42.03028 51.08800 46.55914
# Shear Modulus (GPa) = 20.76111 24.26045 22.51078
#
# Velocity S-wave (km/s) = 3.33293 3.60288 3.47053
# Velocity P-wave (km/s) = 6.10736 6.68152 6.40088
#
# Compressibility (1/GPa) = 0.02379237
#
# Stress axis : x y z
#
# Youngs Moduli (GPa) = 117.36566 53.41344 63.94292
#
# Poissons Ratio (x) = 0.21225 0.20176
# Poissons Ratio (y) = 0.46638 0.15445
# Poissons Ratio (z) = 0.37032 0.12902
#
# Static dielectric constant tensor:
#      x y z
#    x 3.823360 0.000000 0.000000 
#    y 0.000000 3.497060 0.000000 
#    z 0.000000 0.000000 3.168930 
# 
# 
# High freq. dielectric constant tensor:
#      x y z
#    x 1.731540 0.000000 0.000000 
#    y 0.000000 1.720790 0.000000 
#    z 0.000000 0.000000 1.696030 
# 
# From -- ./inp_files/71807.got.cif
#   From: 2010.03.12/outbox.cif.g09.slc.cpg/sg65_36_cif.got.tgz:71807.got - 2010.04.10 20:52:16.
