data_PCOD8265203
_publ_section_title
;
Structure prediction by ZEFSAII (Michael W. Deem and Ramdas Pophale) SiO2 
 PCOD8265203
Probable space group: C M M M
;
_chemical_formula_sum "Si O2"
_cell_formula_units_Z 88
_cell_length_a 29.459086
_cell_length_b 18.360646
_cell_length_c 11.821222
_cell_angle_alpha 90.000000
_cell_angle_beta 90.000000
_cell_angle_gamma 90.000000
_cell_volume 6393.955346
_symmetry_space_group_name_H-M "C M M M"
_symmetry_group_IT_number 65
_symmetry_cell_setting 'orthorhombic'
loop_
_space_group_symop_operation_xyz
x,y,z
-x,-y,z
x,-y,-z
-x,y,-z
-x,-y,-z
x,y,-z
-x,y,z
x,-y,z
1/2+x,1/2+y,z
1/2-x,1/2-y,z
1/2+x,1/2-y,-z
1/2-x,1/2+y,-z
1/2-x,1/2-y,-z
1/2+x,1/2+y,-z
1/2-x,1/2+y,z
1/2+x,1/2-y,z
loop_
_atom_site_type_symbol
_atom_site_label
_atom_site_fract_x
_atom_site_fract_y
_atom_site_fract_z
Si Si1 0.718884 0.818949 0.500000
Si Si2 0.840669 0.171655 0.870412
Si Si3 0.194979 0.085575 0.500000
Si Si4 0.751438 0.417976 0.128306
Si Si5 0.377928 0.586030 0.681273
Si Si6 0.449595 0.413725 0.500000
Si Si7 0.203935 0.704006 0.742420
O O1 0.750000 0.750000 0.500000
O O2 0.753430 0.887133 0.500000
O O3 0.688141 0.815314 0.386358
O O4 0.796584 0.121431 0.863952
O O5 0.879330 0.128756 0.800349
O O6 0.833311 0.250417 0.812068
O O7 0.856282 0.183253 0.000000
O O8 0.167411 0.110868 0.387940
O O9 0.196456 0.000000 0.500000
O O10 0.746903 0.500000 0.177508
O O11 0.788937 0.373602 0.197716
O O12 0.768448 0.420264 0.000000
O O13 0.378035 0.500000 0.703210
O O14 0.422357 0.610816 0.611731
O O15 0.452574 0.500000 0.500000
O O16 0.500000 0.378836 0.500000
O O17 0.250000 0.750000 0.741125
#
# Coordination Sequence:
#
# PCOD8265203 Si02
#       7
#     8  16   8  16  16   8  16
#     4  10  17  23  33  46  62  87 115 148 189 225
#     4  10  18  26  36  50  70  94 121 157 193 217
#     4   9  16  25  36  51  69  88 114 154 196 219
#     4   9  16  25  36  48  65  94 130 162 189 218
#     4   9  16  25  39  57  73  90 116 147 178 216
#     4   8  15  28  44  60  77  96 115 138 172 214
#     4   9  17  26  34  46  66  91 121 156 194 227
#
# _framework density 13.762999000000001
#
# number of rings (size 3 to 8) (size 9 to 14) (size 15 to 20)
#    0.000    2.818    0.000    5.455    0.000    6.182 
#    0.000    0.000    0.000    0.545    0.000    2.545 
#    0.000    0.000    0.000    0.000    0.000    1.818 
#
# Total GULP energy -545278.100017 kJ/mol
# GULP energy per Si atom -12392.684091 kJ/mol
# Density = 1.373167 g / cm^3
# Si number density = 13.762999 Si / 1000 Ang^3
#
#
#
# Elastic Constant Matrix: (Units=GPa)
#
#
# Indices 1 2 3 4 5 6 
#
# 1 35.7456 16.5757 37.0175 0.0000 0.0000 0.0000
# 2 16.5757 53.1812 35.3607 0.0000 0.0000 0.0000
# 3 37.0175 35.3607 123.5942 0.0000 0.0000 0.0000
# 4 0.0000 0.0000 0.0000 22.2373 0.0000 0.0000
# 5 0.0000 0.0000 0.0000 0.0000 9.6400 0.0000
# 6 0.0000 0.0000 0.0000 0.0000 0.0000 7.9580
#
#
#
# Elastic Compliance Matrix: (Units=1/GPa)
#
#
# Indices 1 2 3 4 5 6 
#
# 1 0.041970 -0.005833 -0.010902 0.000000 0.000000 0.000000
# 2 -0.005833 0.024032 -0.005129 0.000000 0.000000 0.000000
# 3 -0.010902 -0.005129 0.012823 0.000000 0.000000 0.000000
# 4 0.000000 0.000000 0.000000 0.044969 0.000000 0.000000
# 5 0.000000 0.000000 0.000000 0.000000 0.103735 0.000000
# 6 0.000000 0.000000 0.000000 0.000000 0.000000 0.125659
#
#
# Mechanical properties :
#
#
# Convention : Reuss Voigt Hill
#
# Bulk Modulus (GPa) = 28.49081 43.38097 35.93589
# Shear Modulus (GPa) = 12.23651 16.20487 14.22069
#
# Velocity S-wave (km/s) = 2.98499 3.43508 3.21792
# Velocity P-wave (km/s) = 5.71193 6.87906 6.32249
#
# Compressibility (1/GPa) = 0.03509904
#
# Stress axis : x y z
#
# Youngs Moduli (GPa) = 23.82676 41.61185 77.98249
#
# Poissons Ratio (x) = 0.24271 0.85013
# Poissons Ratio (y) = 0.13897 0.39994
# Poissons Ratio (z) = 0.25975 0.21341
#
# Static dielectric constant tensor:
#      x y z
#    x 2.279330 0.000000 0.000000 
#    y 0.000000 2.675870 0.000000 
#    z 0.000000 0.000000 3.185410 
# 
# 
# High freq. dielectric constant tensor:
#      x y z
#    x 1.445240 0.000000 0.000000 
#    y 0.000000 1.514920 0.000000 
#    z 0.000000 0.000000 1.544790 
# 
# From -- ./inp_files/27670.got.cif
#   From: 2010.03.12/outbox.cif.g09.slc.cpg/sg65_14_cif.got.tgz:27670.got - 2010.04.10 20:52:16.
