data_PCOD8265565
_publ_section_title
;
Structure prediction by ZEFSAII (Michael W. Deem and Ramdas Pophale) SiO2 
 PCOD8265565
Probable space group: C M M M
;
_chemical_formula_sum "Si O2"
_cell_formula_units_Z 104
_cell_length_a 27.237115
_cell_length_b 9.011536
_cell_length_c 27.109868
_cell_angle_alpha 90.000000
_cell_angle_beta 90.000000
_cell_angle_gamma 90.000000
_cell_volume 6654.069451
_symmetry_space_group_name_H-M "C M M M"
_symmetry_group_IT_number 65
_symmetry_cell_setting 'orthorhombic'
loop_
_space_group_symop_operation_xyz
x,y,z
-x,-y,z
x,-y,-z
-x,y,-z
-x,-y,-z
x,y,-z
-x,y,z
x,-y,z
1/2+x,1/2+y,z
1/2-x,1/2-y,z
1/2+x,1/2-y,-z
1/2-x,1/2+y,-z
1/2-x,1/2-y,-z
1/2+x,1/2+y,-z
1/2-x,1/2+y,z
1/2+x,1/2-y,z
loop_
_atom_site_type_symbol
_atom_site_label
_atom_site_fract_x
_atom_site_fract_y
_atom_site_fract_z
Si Si1 0.602979 0.174350 0.444559
Si Si2 0.554375 0.327088 0.643301
Si Si3 0.150713 0.172530 0.302678
Si Si4 0.700898 0.826075 0.389733
Si Si5 0.302669 0.674489 0.799521
Si Si6 0.196848 0.324703 0.105564
Si Si7 0.301473 0.171516 0.000000
O O1 0.595150 0.233850 0.500000
O O2 0.563353 0.247957 0.408827
O O3 0.657818 0.216695 0.427512
O O4 0.594890 0.000000 0.441807
O O5 0.500000 0.283361 0.662709
O O6 0.558143 0.500000 0.632602
O O7 0.594679 0.279705 0.684281
O O8 0.188582 0.265756 0.335350
O O9 0.160914 0.208602 0.245689
O O10 0.159651 0.000000 0.314278
O O11 0.750000 0.750000 0.410131
O O12 0.709466 0.000000 0.385938
O O13 0.294745 0.500000 0.807243
O O14 0.250000 0.750000 0.789801
O O15 0.329653 0.745655 0.847941
O O16 0.200718 0.500000 0.115454
O O17 0.250000 0.250000 0.103740
O O18 0.170375 0.291742 0.051993
O O19 0.250000 0.250000 0.000000
O O20 0.288095 0.000000 0.000000
#
# Coordination Sequence:
#
# PCOD8265565 Si02
#       7
#    16  16  16  16  16  16   8
#     4   9  19  34  48  64  87 111 134 161 195 237
#     4   9  18  33  51  68  84 103 130 164 202 243
#     4   9  18  31  45  61  82 107 134 166 202 241
#     4  10  19  30  45  63  83 109 139 167 196 233
#     4  10  18  26  37  55  79 106 136 166 197 232
#     4   9  15  23  34  49  71 100 135 170 201 230
#     4   8  14  22  32  46  66  96 133 170 201 229
#
# _framework density 15.629533
#
# number of rings (size 3 to 8) (size 9 to 14) (size 15 to 20)
#    0.000    2.769    0.000    2.769    0.000    4.923 
#    0.000    1.538    0.000    0.000    0.000    0.000 
#    0.000    0.000    0.000    0.692    0.000   16.077 
#
# Total GULP energy -644325.112496 kJ/mol
# GULP energy per Si atom -12390.867548 kJ/mol
# Density = 1.559396 g / cm^3
# Si number density = 15.629533 Si / 1000 Ang^3
#
#
#
# Elastic Constant Matrix: (Units=GPa)
#
#
# Indices 1 2 3 4 5 6 
#
# 1 65.2405 20.9308 35.0206 0.0000 0.0000 0.0000
# 2 20.9308 52.5693 37.1829 0.0000 0.0000 0.0000
# 3 35.0206 37.1829 137.1521 0.0000 0.0000 0.0000
# 4 0.0000 0.0000 0.0000 24.3400 0.0000 0.0000
# 5 0.0000 0.0000 0.0000 0.0000 6.7533 0.0000
# 6 0.0000 0.0000 0.0000 0.0000 0.0000 15.8614
#
#
#
# Elastic Compliance Matrix: (Units=1/GPa)
#
#
# Indices 1 2 3 4 5 6 
#
# 1 0.018790 -0.005058 -0.003427 0.000000 0.000000 0.000000
# 2 -0.005058 0.024897 -0.005458 0.000000 0.000000 0.000000
# 3 -0.003427 -0.005458 0.009646 0.000000 0.000000 0.000000
# 4 0.000000 0.000000 0.000000 0.041085 0.000000 0.000000
# 5 0.000000 0.000000 0.000000 0.000000 0.148075 0.000000
# 6 0.000000 0.000000 0.000000 0.000000 0.000000 0.063046
#
#
# Mechanical properties :
#
#
# Convention : Reuss Voigt Hill
#
# Bulk Modulus (GPa) = 39.29643 49.02562 44.16103
# Shear Modulus (GPa) = 14.62389 20.17945 17.40167
#
# Velocity S-wave (km/s) = 3.06217 3.59710 3.34036
# Velocity P-wave (km/s) = 6.13999 6.97765 6.57218
#
# Compressibility (1/GPa) = 0.02544760
#
# Stress axis : x y z
#
# Youngs Moduli (GPa) = 53.21997 40.16557 103.67050
#
# Poissons Ratio (x) = 0.20314 0.35525
# Poissons Ratio (y) = 0.26916 0.56587
# Poissons Ratio (z) = 0.18237 0.21924
#
# Static dielectric constant tensor:
#      x y z
#    x 2.453370 0.000000 0.000000 
#    y 0.000000 2.644220 0.000000 
#    z 0.000000 0.000000 3.595370 
# 
# 
# High freq. dielectric constant tensor:
#      x y z
#    x 1.550310 0.000000 0.000000 
#    y 0.000000 1.609730 0.000000 
#    z 0.000000 0.000000 1.607400 
# 
# From -- ./inp_files/76216.got.cif
#   From: 2010.03.12/outbox.cif.g09.slc.cpg/sg65_39_cif.got.tgz:76216.got - 2010.04.10 20:52:16.
