data_PCOD8265823
_publ_section_title
;
Structure prediction by ZEFSAII (Michael W. Deem and Ramdas Pophale) SiO2 
 PCOD8265823
Probable space group: C M M M
;
_chemical_formula_sum "Si O2"
_cell_formula_units_Z 104
_cell_length_a 18.475967
_cell_length_b 17.609040
_cell_length_c 17.146769
_cell_angle_alpha 90.000000
_cell_angle_beta 90.000000
_cell_angle_gamma 90.000000
_cell_volume 5578.599133
_symmetry_space_group_name_H-M "C M M M"
_symmetry_group_IT_number 65
_symmetry_cell_setting 'orthorhombic'
loop_
_space_group_symop_operation_xyz
x,y,z
-x,-y,z
x,-y,-z
-x,y,-z
-x,-y,-z
x,y,-z
-x,y,z
x,-y,z
1/2+x,1/2+y,z
1/2-x,1/2-y,z
1/2+x,1/2-y,-z
1/2-x,1/2+y,-z
1/2-x,1/2-y,-z
1/2+x,1/2+y,-z
1/2-x,1/2+y,z
1/2+x,1/2-y,z
loop_
_atom_site_type_symbol
_atom_site_label
_atom_site_fract_x
_atom_site_fract_y
_atom_site_fract_z
Si Si1 0.085733 0.145897 0.177472
Si Si2 0.814347 0.587386 0.647295
Si Si3 0.086319 0.000000 0.087375
Si Si4 0.141827 0.912261 0.500000
Si Si5 0.354687 0.588129 0.668532
Si Si6 0.713248 0.833456 0.500000
Si Si7 0.585564 0.791673 0.912809
Si Si8 0.416793 0.912583 0.788648
O O1 0.110914 0.142311 0.266910
O O2 0.117469 0.220114 0.135002
O O3 0.000000 0.146691 0.176097
O O4 0.116872 0.073523 0.131409
O O5 0.830613 0.500000 0.622707
O O6 0.731500 0.596435 0.673767
O O7 0.832774 0.647904 0.577914
O O8 0.866427 0.612635 0.717323
O O9 0.000000 0.000000 0.086718
O O10 0.117084 0.000000 0.000000
O O11 0.113825 0.880833 0.583946
O O12 0.227531 0.900254 0.500000
O O13 0.125216 0.000000 0.500000
O O14 0.377478 0.500000 0.680982
O O15 0.750000 0.750000 0.500000
O O16 0.500000 0.782875 0.919722
O O17 0.606753 0.867342 0.866028
O O18 0.619239 0.794811 0.000000
O O19 0.500000 0.894788 0.765851
O O20 0.405291 0.000000 0.809752
#
# Coordination Sequence:
#
# PCOD8265823 Si02
#       8
#    16  16   8   8  16   8  16  16
#     4  10  18  28  45  70  99 126 162 207 246 290
#     4   9  18  33  52  72  99 133 164 204 251 294
#     4   9  16  26  42  63  89 123 162 201 238 287
#     4   8  16  30  45  61  89 126 165 199 229 269
#     4   9  16  29  48  69  93 129 168 201 239 289
#     4  10  18  28  47  75 101 127 167 201 226 277
#     4   9  18  32  50  72  97 126 159 199 250 301
#     4   9  18  33  53  76  97 121 161 210 256 306
#
# _framework density 18.642672999999998
#
# number of rings (size 3 to 8) (size 9 to 14) (size 15 to 20)
#    0.000    2.846    0.769    2.077    0.000    4.615 
#    0.000    2.308    0.000    6.000    0.000    7.538 
#    0.000    0.000    0.000    0.000    0.000    0.000 
#
# Total GULP energy -644337.042929 kJ/mol
# GULP energy per Si atom -12391.096979 kJ/mol
# Density = 1.860024 g / cm^3
# Si number density = 18.642673 Si / 1000 Ang^3
#
#
#
# Elastic Constant Matrix: (Units=GPa)
#
#
# Indices 1 2 3 4 5 6 
#
# 1 18.4151 24.1638 29.9583 0.0000 0.0000 0.0000
# 2 24.1638 94.2974 84.5879 0.0000 0.0000 0.0000
# 3 29.9583 84.5879 201.1241 0.0000 0.0000 0.0000
# 4 0.0000 0.0000 0.0000 33.3492 0.0000 0.0000
# 5 0.0000 0.0000 0.0000 0.0000 1.9940 0.0000
# 6 0.0000 0.0000 0.0000 0.0000 0.0000 14.5415
#
#
#
# Elastic Compliance Matrix: (Units=1/GPa)
#
#
# Indices 1 2 3 4 5 6 
#
# 1 0.085650 -0.016867 -0.005664 0.000000 0.000000 0.000000
# 2 -0.016867 0.020351 -0.006047 0.000000 0.000000 0.000000
# 3 -0.005664 -0.006047 0.008359 0.000000 0.000000 0.000000
# 4 0.000000 0.000000 0.000000 0.029986 0.000000 0.000000
# 5 0.000000 0.000000 0.000000 0.000000 0.501502 0.000000
# 6 0.000000 0.000000 0.000000 0.000000 0.000000 0.068769
#
#
# Mechanical properties :
#
#
# Convention : Reuss Voigt Hill
#
# Bulk Modulus (GPa) = 17.48113 65.69517 41.58815
# Shear Modulus (GPa) = 6.32239 21.65204 13.98721
#
# Velocity S-wave (km/s) = 1.84356 3.41166 2.74209
# Velocity P-wave (km/s) = 3.73215 7.12986 5.69051
#
# Compressibility (1/GPa) = 0.05720453
#
# Stress axis : x y z
#
# Youngs Moduli (GPa) = 11.67536 49.13754 119.63349
#
# Poissons Ratio (x) = 0.82880 0.67762
# Poissons Ratio (y) = 0.19693 0.72339
# Poissons Ratio (z) = 0.06613 0.29712
#
# Static dielectric constant tensor:
#      x y z
#    x 2.949430 0.000000 0.000000 
#    y 0.000000 3.412390 0.000000 
#    z 0.000000 0.000000 3.849980 
# 
# 
# High freq. dielectric constant tensor:
#      x y z
#    x 1.666140 0.000000 0.000000 
#    y 0.000000 1.717200 0.000000 
#    z 0.000000 0.000000 1.742170 
# 
# From -- ./inp_files/54660.got.cif
#   From: 2010.03.12/outbox.cif.g09.slc.cpg/sg65_28_cif.got.tgz:54660.got - 2010.04.10 20:52:16.
