data_PCOD8265820
_publ_section_title
;
Structure prediction by ZEFSAII (Michael W. Deem and Ramdas Pophale) SiO2 
 PCOD8265820
Probable space group: C M M M
;
_chemical_formula_sum "Si O2"
_cell_formula_units_Z 96
_cell_length_a 25.556036
_cell_length_b 23.830012
_cell_length_c 9.183014
_cell_angle_alpha 90.000000
_cell_angle_beta 90.000000
_cell_angle_gamma 90.000000
_cell_volume 5592.461445
_symmetry_space_group_name_H-M "C M M M"
_symmetry_group_IT_number 65
_symmetry_cell_setting 'orthorhombic'
loop_
_space_group_symop_operation_xyz
x,y,z
-x,-y,z
x,-y,-z
-x,y,-z
-x,-y,-z
x,y,-z
-x,y,z
x,-y,z
1/2+x,1/2+y,z
1/2-x,1/2-y,z
1/2+x,1/2-y,-z
1/2-x,1/2+y,-z
1/2-x,1/2-y,-z
1/2+x,1/2+y,-z
1/2-x,1/2+y,z
1/2+x,1/2-y,z
loop_
_atom_site_type_symbol
_atom_site_label
_atom_site_fract_x
_atom_site_fract_y
_atom_site_fract_z
Si Si1 0.060361 0.936327 0.669592
Si Si2 0.147641 0.870131 0.827276
Si Si3 0.557958 0.936972 0.826733
Si Si4 0.309159 0.252306 0.173135
Si Si5 0.748386 0.562816 0.173300
Si Si6 0.346041 0.866488 0.173621
O O1 0.072266 0.928899 0.500000
O O2 0.093962 0.891534 0.758541
O O3 0.000000 0.923403 0.703641
O O4 0.073970 0.000000 0.718281
O O5 0.160093 0.807205 0.771318
O O6 0.194605 0.909708 0.772459
O O7 0.141727 0.871842 0.000000
O O8 0.500000 0.919521 0.771518
O O9 0.600488 0.893387 0.763130
O O10 0.571527 0.000000 0.773191
O O11 0.559306 0.935893 0.000000
O O12 0.250000 0.250000 0.235831
O O13 0.340971 0.197639 0.227621
O O14 0.305594 0.253740 0.000000
O O15 0.751849 0.500000 0.236019
O O16 0.797069 0.598213 0.235002
O O17 0.750082 0.562676 0.000000
O O18 0.345922 0.868943 0.000000
#
# Coordination Sequence:
#
# PCOD8265820 Si02
#       6
#    16  16  16  16  16  16
#     4   9  19  36  54  69  89 121 156 187 228 285
#     4  10  18  28  45  70  96 119 149 190 232 268
#     4   8  13  20  29  42  63  95 136 179 217 250
#     4   9  15  25  38  56  85 123 153 174 213 269
#     4   9  15  21  33  57  85 109 140 185 229 266
#     4   9  14  21  33  49  73 109 147 176 211 262
#
# _framework density 17.165965
#
# number of rings (size 3 to 8) (size 9 to 14) (size 15 to 20)
#    0.000    3.000    1.667    2.000    0.000    3.333 
#    0.000    1.667    0.000    3.500    0.000    0.000 
#    0.000    0.000    0.000    0.000    0.000    0.167 
#
# Total GULP energy -594962.970717 kJ/mol
# GULP energy per Si atom -12395.061890 kJ/mol
# Density = 1.712689 g / cm^3
# Si number density = 17.165965 Si / 1000 Ang^3
#
#
#
# Elastic Constant Matrix: (Units=GPa)
#
#
# Indices 1 2 3 4 5 6 
#
# 1 136.2796 89.6426 21.6607 0.0000 0.0000 0.0000
# 2 89.6426 168.2209 19.8873 0.0000 0.0000 0.0000
# 3 21.6607 19.8873 11.6932 0.0000 0.0000 0.0000
# 4 0.0000 0.0000 0.0000 8.3837 0.0000 0.0000
# 5 0.0000 0.0000 0.0000 0.0000 6.0207 0.0000
# 6 0.0000 0.0000 0.0000 0.0000 0.0000 32.7735
#
#
#
# Elastic Compliance Matrix: (Units=1/GPa)
#
#
# Indices 1 2 3 4 5 6 
#
# 1 0.013261 -0.005210 -0.015704 0.000000 0.000000 0.000000
# 2 -0.005210 0.009488 -0.006485 0.000000 0.000000 0.000000
# 3 -0.015704 -0.006485 0.125639 0.000000 0.000000 0.000000
# 4 0.000000 0.000000 0.000000 0.119279 0.000000 0.000000
# 5 0.000000 0.000000 0.000000 0.000000 0.166093 0.000000
# 6 0.000000 0.000000 0.000000 0.000000 0.000000 0.030512
#
#
# Mechanical properties :
#
#
# Convention : Reuss Voigt Hill
#
# Bulk Modulus (GPa) = 10.68488 64.28609 37.48548
# Shear Modulus (GPa) = 9.08650 21.76911 15.42781
#
# Velocity S-wave (km/s) = 2.30322 3.56498 3.00116
# Velocity P-wave (km/s) = 3.64843 7.38082 5.82184
#
# Compressibility (1/GPa) = 0.09359023
#
# Stress axis : x y z
#
# Youngs Moduli (GPa) = 75.40927 105.40098 7.95930
#
# Poissons Ratio (x) = 0.54915 0.12499
# Poissons Ratio (y) = 0.39289 0.05161
# Poissons Ratio (z) = 1.18421 0.68351
#
# Static dielectric constant tensor:
#      x y z
#    x 3.367850 0.000000 0.000000 
#    y 0.000000 3.461360 0.000000 
#    z 0.000000 0.000000 2.444760 
# 
# 
# High freq. dielectric constant tensor:
#      x y z
#    x 1.669070 0.000000 0.000000 
#    y 0.000000 1.671380 0.000000 
#    z 0.000000 0.000000 1.581610 
# 
# From -- ./inp_files/16652.got.cif
#   From: 2010.03.12/outbox.cif.g09.slc.cpg/sg65_9_cif.got.tgz:16652.got - 2010.04.10 20:52:16.
