data_PCOD8265370
_publ_section_title
;
Structure prediction by ZEFSAII (Michael W. Deem and Ramdas Pophale) SiO2 
 PCOD8265370
Probable space group: C M M M
;
_chemical_formula_sum "Si O2"
_cell_formula_units_Z 72
_cell_length_a 18.821663
_cell_length_b 27.876427
_cell_length_c 9.257731
_cell_angle_alpha 90.000000
_cell_angle_beta 90.000000
_cell_angle_gamma 90.000000
_cell_volume 4857.352917
_symmetry_space_group_name_H-M "C M M M"
_symmetry_group_IT_number 65
_symmetry_cell_setting 'orthorhombic'
loop_
_space_group_symop_operation_xyz
x,y,z
-x,-y,z
x,-y,-z
-x,y,-z
-x,-y,-z
x,y,-z
-x,y,z
x,-y,z
1/2+x,1/2+y,z
1/2-x,1/2-y,z
1/2+x,1/2-y,-z
1/2-x,1/2+y,-z
1/2-x,1/2-y,-z
1/2+x,1/2+y,-z
1/2-x,1/2+y,z
1/2+x,1/2-y,z
loop_
_atom_site_type_symbol
_atom_site_label
_atom_site_fract_x
_atom_site_fract_y
_atom_site_fract_z
Si Si1 0.000000 0.343529 0.829445
Si Si2 0.919221 0.500000 0.828635
Si Si3 0.360997 0.271057 0.331982
Si Si4 0.136673 0.398923 0.828894
Si Si5 0.281158 0.824570 0.332571
Si Si6 0.000000 0.765687 0.171232
O O1 0.931046 0.370040 0.768983
O O2 0.000000 0.289237 0.777408
O O3 0.000000 0.347655 0.000000
O O4 0.874151 0.546225 0.777568
O O5 0.000000 0.500000 0.765034
O O6 0.926670 0.500000 0.000000
O O7 0.381797 0.269338 0.500000
O O8 0.332457 0.218904 0.280842
O O9 0.300214 0.310329 0.303902
O O10 0.428663 0.288315 0.238554
O O11 0.204434 0.373605 0.755363
O O12 0.145859 0.395553 0.000000
O O13 0.294232 0.834685 0.500000
O O14 0.000000 0.773033 0.000000
#
# Coordination Sequence:
#
# PCOD8265370 Si02
#       6
#     8   8  16  16  16   8
#     4   9  16  24  37  60  85 111 142 178 213 246
#     4   9  16  26  43  63  85 116 149 180 215 255
#     4   9  18  31  44  59  83 115 146 174 213 262
#     4  10  17  28  44  61  84 114 150 185 216 250
#     4   9  18  31  44  59  82 114 148 179 213 255
#     4  11  19  27  42  67  89 107 143 186 217 248
#
# _framework density 14.822888000000001
#
# number of rings (size 3 to 8) (size 9 to 14) (size 15 to 20)
#    0.000    2.556    3.333    1.667    0.000    0.889 
#    0.000    3.333    0.000    0.667    0.000    0.000 
#    0.000    0.889    0.000   10.000    0.000    4.444 
#
# Total GULP energy -446260.805268 kJ/mol
# GULP energy per Si atom -12396.133480 kJ/mol
# Density = 1.478915 g / cm^3
# Si number density = 14.822888 Si / 1000 Ang^3
#
#
#
# Elastic Constant Matrix: (Units=GPa)
#
#
# Indices 1 2 3 4 5 6 
#
# 1 94.4007 40.0939 43.7906 0.0000 0.0000 0.0000
# 2 40.0939 89.3175 30.8983 0.0000 0.0000 0.0000
# 3 43.7906 30.8983 47.4580 0.0000 0.0000 0.0000
# 4 0.0000 0.0000 0.0000 17.7427 0.0000 0.0000
# 5 0.0000 0.0000 0.0000 0.0000 24.0378 0.0000
# 6 0.0000 0.0000 0.0000 0.0000 0.0000 23.0986
#
#
#
# Elastic Compliance Matrix: (Units=1/GPa)
#
#
# Indices 1 2 3 4 5 6 
#
# 1 0.019210 -0.003216 -0.015632 0.000000 0.000000 0.000000
# 2 -0.003216 0.014989 -0.006792 0.000000 0.000000 0.000000
# 3 -0.015632 -0.006792 0.039918 0.000000 0.000000 0.000000
# 4 0.000000 0.000000 0.000000 0.056361 0.000000 0.000000
# 5 0.000000 0.000000 0.000000 0.000000 0.041601 0.000000
# 6 0.000000 0.000000 0.000000 0.000000 0.000000 0.043293
#
#
# Mechanical properties :
#
#
# Convention : Reuss Voigt Hill
#
# Bulk Modulus (GPa) = 43.78753 51.19353 47.49053
# Shear Modulus (GPa) = 18.23062 20.73538 19.48300
#
# Velocity S-wave (km/s) = 3.51079 3.74421 3.62938
# Velocity P-wave (km/s) = 6.78519 7.30096 7.04779
#
# Compressibility (1/GPa) = 0.02283755
#
# Stress axis : x y z
#
# Youngs Moduli (GPa) = 52.05515 66.71568 25.05165
#
# Poissons Ratio (x) = 0.21453 0.39162
# Poissons Ratio (y) = 0.16739 0.17014
# Poissons Ratio (z) = 0.81374 0.45312
#
# Static dielectric constant tensor:
#      x y z
#    x 2.811520 0.000000 0.000000 
#    y 0.000000 2.781610 0.000000 
#    z 0.000000 0.000000 2.614880 
# 
# 
# High freq. dielectric constant tensor:
#      x y z
#    x 1.556670 0.000000 0.000000 
#    y 0.000000 1.539240 0.000000 
#    z 0.000000 0.000000 1.551270 
# 
# From -- ./inp_files/12046.got.cif
#   From: 2010.03.12/outbox.cif.g09.slc.cpg/sg65_7_cif.got.tgz:12046.got - 2010.04.10 20:52:16.
