data_PCOD8265233
_publ_section_title
;
Structure prediction by ZEFSAII (Michael W. Deem and Ramdas Pophale) SiO2 
 PCOD8265233
Probable space group: C M M M
;
_chemical_formula_sum "Si O2"
_cell_formula_units_Z 72
_cell_length_a 18.796068
_cell_length_b 8.036779
_cell_length_c 25.147095
_cell_angle_alpha 90.000000
_cell_angle_beta 90.000000
_cell_angle_gamma 90.000000
_cell_volume 3798.716262
_symmetry_space_group_name_H-M "C M M M"
_symmetry_group_IT_number 65
_symmetry_cell_setting 'orthorhombic'
loop_
_space_group_symop_operation_xyz
x,y,z
-x,-y,z
x,-y,-z
-x,y,-z
-x,-y,-z
x,y,-z
-x,y,z
x,-y,z
1/2+x,1/2+y,z
1/2-x,1/2-y,z
1/2+x,1/2-y,-z
1/2-x,1/2+y,-z
1/2-x,1/2-y,-z
1/2+x,1/2+y,-z
1/2-x,1/2+y,z
1/2+x,1/2-y,z
loop_
_atom_site_type_symbol
_atom_site_label
_atom_site_fract_x
_atom_site_fract_y
_atom_site_fract_z
Si Si1 0.917284 0.812847 0.371812
Si Si2 0.331047 0.809750 0.276062
Si Si3 0.584501 0.000000 0.440483
Si Si4 0.670158 0.690628 0.834233
Si Si5 0.169143 0.305484 0.057237
O O1 0.876263 0.801187 0.316293
O O2 0.888581 0.669728 0.411850
O O3 0.000000 0.782336 0.360122
O O4 0.904908 0.000000 0.395333
O O5 0.250000 0.750000 0.276735
O O6 0.362671 0.788978 0.216211
O O7 0.336985 0.000000 0.294036
O O8 0.500000 0.000000 0.442614
O O9 0.616336 0.000000 0.500000
O O10 0.667592 0.500000 0.818026
O O11 0.750000 0.750000 0.843917
O O12 0.630404 0.722347 0.891055
O O13 0.165529 0.500000 0.066756
O O14 0.250000 0.250000 0.053599
O O15 0.132643 0.257797 0.000000
#
# Coordination Sequence:
#
# PCOD8265233 Si02
#       5
#    16  16   8  16  16
#     4  10  20  35  55  81 109 136 170 210 251 297
#     4  11  20  32  50  73 101 135 172 209 254 304
#     4   9  18  34  56  82 108 136 170 206 248 294
#     4  10  17  25  37  56  84 115 156 199 242 295
#     4   9  15  22  32  47  71 107 148 191 240 290
#
# _framework density 18.953771
#
# number of rings (size 3 to 8) (size 9 to 14) (size 15 to 20)
#    0.000    2.111    1.111    7.333    0.000    1.778 
#    0.000    2.222    0.000    0.667    0.000    0.000 
#    0.000    0.889    0.000    9.333    0.000    7.778 
#
# Total GULP energy -446006.292022 kJ/mol
# GULP energy per Si atom -12389.063667 kJ/mol
# Density = 1.891063 g / cm^3
# Si number density = 18.953771 Si / 1000 Ang^3
#
#
#
# Elastic Constant Matrix: (Units=GPa)
#
#
# Indices 1 2 3 4 5 6 
#
# 1 19.1473 15.0153 25.0743 0.0000 0.0000 0.0000
# 2 15.0153 125.3830 48.3945 0.0000 0.0000 0.0000
# 3 25.0743 48.3945 164.2546 0.0000 0.0000 0.0000
# 4 0.0000 0.0000 0.0000 29.7982 0.0000 0.0000
# 5 0.0000 0.0000 0.0000 0.0000 -1.6204 0.0000
# 6 0.0000 0.0000 0.0000 0.0000 0.0000 14.8654
#
#
#
# Elastic Compliance Matrix: (Units=1/GPa)
#
#
# Indices 1 2 3 4 5 6 
#
# 1 0.067586 -0.004639 -0.008950 0.000000 0.000000 0.000000
# 2 -0.004639 0.009317 -0.002037 0.000000 0.000000 0.000000
# 3 -0.008950 -0.002037 0.008055 0.000000 0.000000 0.000000
# 4 0.000000 0.000000 0.000000 0.033559 0.000000 0.000000
# 5 0.000000 0.000000 0.000000 0.000000 -0.617120 0.000000
# 6 0.000000 0.000000 0.000000 0.000000 0.000000 0.067270
#
#
# Mechanical properties :
#
#
# Convention : Reuss Voigt Hill
#
# Bulk Modulus (GPa) = 18.62043 53.97259 36.29651
# Shear Modulus (GPa) = -13.08289 23.29535 5.10623
#
# Velocity S-wave (km/s) = -2.63012 3.50960 1.64314
# Velocity P-wave (km/s) = 0.78874 6.70528 4.77404
#
# Compressibility (1/GPa) = 0.05370445
#
# Stress axis : x y z
#
# Youngs Moduli (GPa) = 14.79603 107.32667 124.15250
#
# Poissons Ratio (x) = 0.49790 1.11122
# Poissons Ratio (y) = 0.06864 0.25290
# Poissons Ratio (z) = 0.13243 0.21862
#
# Static dielectric constant tensor:
#      x y z
#    x 2.732980 0.000000 0.000000 
#    y 0.000000 3.671210 0.000000 
#    z 0.000000 0.000000 4.205190 
# 
# 
# High freq. dielectric constant tensor:
#      x y z
#    x 1.643310 0.000000 0.000000 
#    y 0.000000 1.757450 0.000000 
#    z 0.000000 0.000000 1.758680 
# 
# From -- ./inp_files/74596.got.cif
#   From: 2010.03.12/outbox.cif.g09.slc.cpg/sg65_38_cif.got.tgz:74596.got - 2010.04.10 20:52:16.
