data_PCOD8265951
_publ_section_title
;
Structure prediction by ZEFSAII (Michael W. Deem and Ramdas Pophale) SiO2 
 PCOD8265951
Probable space group: C M M M
;
_chemical_formula_sum "Si O2"
_cell_formula_units_Z 104
_cell_length_a 26.869801
_cell_length_b 8.925475
_cell_length_c 22.960076
_cell_angle_alpha 90.000000
_cell_angle_beta 90.000000
_cell_angle_gamma 90.000000
_cell_volume 5506.417150
_symmetry_space_group_name_H-M "C M M M"
_symmetry_group_IT_number 65
_symmetry_cell_setting 'orthorhombic'
loop_
_space_group_symop_operation_xyz
x,y,z
-x,-y,z
x,-y,-z
-x,y,-z
-x,-y,-z
x,y,-z
-x,y,z
x,-y,z
1/2+x,1/2+y,z
1/2-x,1/2-y,z
1/2+x,1/2-y,-z
1/2-x,1/2+y,-z
1/2-x,1/2-y,-z
1/2+x,1/2+y,-z
1/2-x,1/2+y,z
1/2+x,1/2-y,z
loop_
_atom_site_type_symbol
_atom_site_label
_atom_site_fract_x
_atom_site_fract_y
_atom_site_fract_z
Si Si1 0.593408 0.679262 0.360821
Si Si2 0.500000 0.678615 0.434132
Si Si3 0.701994 0.664927 0.374115
Si Si4 0.796981 0.833510 0.236936
Si Si5 0.129305 0.676537 0.160315
Si Si6 0.302094 0.676260 0.933119
Si Si7 0.941712 0.827963 0.235114
O O1 0.595019 0.500000 0.361018
O O2 0.549568 0.740390 0.402426
O O3 0.647291 0.739509 0.384921
O O4 0.583655 0.732937 0.294767
O O5 0.500000 0.500000 0.431868
O O6 0.500000 0.738650 0.500000
O O7 0.703278 0.500000 0.402247
O O8 0.750000 0.750000 0.401163
O O9 0.708408 0.653918 0.305324
O O10 0.750000 0.750000 0.208741
O O11 0.843172 0.731778 0.218877
O O12 0.801225 0.000000 0.209435
O O13 0.131336 0.500000 0.151067
O O14 0.152297 0.756059 0.103743
O O15 0.073724 0.732168 0.177290
O O16 0.298222 0.500000 0.922507
O O17 0.250000 0.750000 0.913710
O O18 0.313781 0.714960 0.000000
O O19 0.000000 0.811725 0.243831
O O20 0.925933 0.000000 0.224620
#
# Coordination Sequence:
#
# PCOD8265951 Si02
#       7
#    16   8  16  16  16  16  16
#     4   9  15  28  48  72 105 141 174 218 276 329
#     4   9  16  26  48  82 111 135 174 229 282 327
#     4   9  17  28  44  66  98 137 173 210 255 315
#     4  10  18  29  44  66  98 134 171 209 251 306
#     4  12  23  33  49  74 107 140 173 217 266 321
#     4  10  21  38  59  81 107 141 183 226 267 317
#     4  10  19  34  55  75 100 139 178 218 274 336
#
# _framework density 18.887053999999999
#
# number of rings (size 3 to 8) (size 9 to 14) (size 15 to 20)
#    0.000    2.077    2.308    2.769    0.000    1.846 
#    0.000    0.000    0.000    0.923    0.000    3.231 
#    0.000    4.308    0.000    0.000    0.000    0.000 
#
# Total GULP energy -644333.334375 kJ/mol
# GULP energy per Si atom -12391.025661 kJ/mol
# Density = 1.884407 g / cm^3
# Si number density = 18.887054 Si / 1000 Ang^3
#
#
#
# Elastic Constant Matrix: (Units=GPa)
#
#
# Indices 1 2 3 4 5 6 
#
# 1 139.4021 38.5800 44.3281 0.0000 0.0000 0.0000
# 2 38.5800 79.5625 22.4831 0.0000 0.0000 0.0000
# 3 44.3281 22.4831 77.1529 0.0000 0.0000 0.0000
# 4 0.0000 0.0000 0.0000 10.3659 0.0000 0.0000
# 5 0.0000 0.0000 0.0000 0.0000 24.1842 0.0000
# 6 0.0000 0.0000 0.0000 0.0000 0.0000 27.4244
#
#
#
# Elastic Compliance Matrix: (Units=1/GPa)
#
#
# Indices 1 2 3 4 5 6 
#
# 1 0.009532 -0.003350 -0.004500 0.000000 0.000000 0.000000
# 2 -0.003350 0.014874 -0.002410 0.000000 0.000000 0.000000
# 3 -0.004500 -0.002410 0.016249 0.000000 0.000000 0.000000
# 4 0.000000 0.000000 0.000000 0.096470 0.000000 0.000000
# 5 0.000000 0.000000 0.000000 0.000000 0.041349 0.000000
# 6 0.000000 0.000000 0.000000 0.000000 0.000000 0.036464
#
#
# Mechanical properties :
#
#
# Convention : Reuss Voigt Hill
#
# Bulk Modulus (GPa) = 49.66495 56.32220 52.99358
# Shear Modulus (GPa) = 20.64669 25.11000 22.87834
#
# Velocity S-wave (km/s) = 3.30989 3.65016 3.48418
# Velocity P-wave (km/s) = 6.40000 6.90291 6.65621
#
# Compressibility (1/GPa) = 0.02013493
#
# Stress axis : x y z
#
# Youngs Moduli (GPa) = 104.91347 67.23050 61.54228
#
# Poissons Ratio (x) = 0.22524 0.27695
# Poissons Ratio (y) = 0.35149 0.14829
# Poissons Ratio (z) = 0.47212 0.16200
#
# Static dielectric constant tensor:
#      x y z
#    x 3.929810 0.000000 0.000000 
#    y 0.000000 3.589020 0.000000 
#    z 0.000000 0.000000 3.224420 
# 
# 
# High freq. dielectric constant tensor:
#      x y z
#    x 1.742530 0.000000 0.000000 
#    y 0.000000 1.705850 0.000000 
#    z 0.000000 0.000000 1.704980 
# 
# From -- ./inp_files/71832.got.cif
#   From: 2010.03.12/outbox.cif.g09.slc.cpg/sg65_36_cif.got.tgz:71832.got - 2010.04.10 20:52:16.
