data_PCOD8265180
_publ_section_title
;
Structure prediction by ZEFSAII (Michael W. Deem and Ramdas Pophale) SiO2 
 PCOD8265180
Probable space group: C M M M
;
_chemical_formula_sum "Si O2"
_cell_formula_units_Z 88
_cell_length_a 16.174339
_cell_length_b 25.111258
_cell_length_c 12.681031
_cell_angle_alpha 90.000000
_cell_angle_beta 90.000000
_cell_angle_gamma 90.000000
_cell_volume 5150.502184
_symmetry_space_group_name_H-M "C M M M"
_symmetry_group_IT_number 65
_symmetry_cell_setting 'orthorhombic'
loop_
_space_group_symop_operation_xyz
x,y,z
-x,-y,z
x,-y,-z
-x,y,-z
-x,-y,-z
x,y,-z
-x,y,z
x,-y,z
1/2+x,1/2+y,z
1/2-x,1/2-y,z
1/2+x,1/2-y,-z
1/2-x,1/2+y,-z
1/2-x,1/2-y,-z
1/2+x,1/2+y,-z
1/2-x,1/2+y,z
1/2+x,1/2-y,z
loop_
_atom_site_type_symbol
_atom_site_label
_atom_site_fract_x
_atom_site_fract_y
_atom_site_fract_z
Si Si1 0.224966 0.582196 0.188997
Si Si2 0.407368 0.668691 0.000000
Si Si3 0.669684 0.558285 0.381845
Si Si4 0.405310 0.000000 0.875021
Si Si5 0.793889 0.805447 0.193157
Si Si6 0.155617 0.057399 0.000000
Si Si7 0.093175 0.166634 0.378828
O O1 0.252670 0.564578 0.304937
O O2 0.136371 0.554709 0.168195
O O3 0.225704 0.646994 0.184171
O O4 0.288216 0.560028 0.103407
O O5 0.362371 0.689194 0.103647
O O6 0.411122 0.604346 0.000000
O O7 0.500000 0.691109 0.000000
O O8 0.705226 0.564755 0.500000
O O9 0.628431 0.500000 0.366749
O O10 0.600475 0.602993 0.359677
O O11 0.500000 0.000000 0.836779
O O12 0.398548 0.000000 0.000000
O O13 0.750000 0.750000 0.175570
O O14 0.840227 0.803887 0.305763
O O15 0.110135 0.000000 0.000000
O O16 0.112332 0.181839 0.500000
O O17 0.000000 0.183442 0.348443
#
# Coordination Sequence:
#
# PCOD8265180 Si02
#       7
#    16   8  16   8  16   8  16
#     4  10  17  32  51  70 100 127 162 209 248 293
#     4  10  21  34  50  75 106 132 162 204 250 299
#     4   9  16  26  46  74 101 135 163 184 232 299
#     4  11  20  32  53  77  99 126 164 215 267 300
#     4  10  21  35  54  73  96 137 176 205 247 305
#     4  10  16  28  52  75  98 135 159 186 241 296
#     4   9  18  32  50  75 104 130 162 207 251 288
#
# _framework density 17.085712999999998
#
# number of rings (size 3 to 8) (size 9 to 14) (size 15 to 20)
#    0.000    2.273    2.727    0.818    0.000    0.909 
#    0.000    3.636    0.000    7.636    0.000    0.000 
#    0.000    0.000    0.000    0.000    0.000    0.000 
#
# Total GULP energy -545348.050795 kJ/mol
# GULP energy per Si atom -12394.273882 kJ/mol
# Density = 1.704683 g / cm^3
# Si number density = 17.085713 Si / 1000 Ang^3
#
#
#
# Elastic Constant Matrix: (Units=GPa)
#
#
# Indices 1 2 3 4 5 6 
#
# 1 98.5434 45.3192 37.1084 0.0000 0.0000 0.0000
# 2 45.3192 119.2247 29.2458 0.0000 0.0000 0.0000
# 3 37.1084 29.2458 90.6490 0.0000 0.0000 0.0000
# 4 0.0000 0.0000 0.0000 9.5410 0.0000 0.0000
# 5 0.0000 0.0000 0.0000 0.0000 16.2217 0.0000
# 6 0.0000 0.0000 0.0000 0.0000 0.0000 14.2714
#
#
#
# Elastic Compliance Matrix: (Units=1/GPa)
#
#
# Indices 1 2 3 4 5 6 
#
# 1 0.013657 -0.004148 -0.004252 0.000000 0.000000 0.000000
# 2 -0.004148 0.010368 -0.001647 0.000000 0.000000 0.000000
# 3 -0.004252 -0.001647 0.013304 0.000000 0.000000 0.000000
# 4 0.000000 0.000000 0.000000 0.104810 0.000000 0.000000
# 5 0.000000 0.000000 0.000000 0.000000 0.061646 0.000000
# 6 0.000000 0.000000 0.000000 0.000000 0.000000 0.070070
#
#
# Mechanical properties :
#
#
# Convention : Reuss Voigt Hill
#
# Bulk Modulus (GPa) = 58.02504 59.08488 58.55496
# Shear Modulus (GPa) = 16.68366 21.12308 18.90337
#
# Velocity S-wave (km/s) = 3.12824 3.51992 3.32984
# Velocity P-wave (km/s) = 6.86168 7.15376 7.00925
#
# Compressibility (1/GPa) = 0.01723394
#
# Stress axis : x y z
#
# Youngs Moduli (GPa) = 73.22388 96.44796 75.16723
#
# Poissons Ratio (x) = 0.40007 0.31963
# Poissons Ratio (y) = 0.30374 0.12380
# Poissons Ratio (z) = 0.31137 0.15885
#
# Static dielectric constant tensor:
#      x y z
#    x 2.879140 0.000000 0.000000 
#    y 0.000000 3.230850 0.000000 
#    z 0.000000 0.000000 3.444950 
# 
# 
# High freq. dielectric constant tensor:
#      x y z
#    x 1.619680 0.000000 0.000000 
#    y 0.000000 1.652440 0.000000 
#    z 0.000000 0.000000 1.677950 
# 
# From -- ./inp_files/40626.got.cif
#   From: 2010.03.12/outbox.cif.g09.slc.cpg/sg65_21_cif.got.tgz:40626.got - 2010.04.10 20:52:16.
