data_PCOD8265724
_publ_section_title
;
Structure prediction by ZEFSAII (Michael W. Deem and Ramdas Pophale) SiO2 
 PCOD8265724
Probable space group: C M M M
;
_chemical_formula_sum "Si O2"
_cell_formula_units_Z 96
_cell_length_a 27.386126
_cell_length_b 8.810582
_cell_length_c 23.886214
_cell_angle_alpha 90.000000
_cell_angle_beta 90.000000
_cell_angle_gamma 90.000000
_cell_volume 5763.449848
_symmetry_space_group_name_H-M "C M M M"
_symmetry_group_IT_number 65
_symmetry_cell_setting 'orthorhombic'
loop_
_space_group_symop_operation_xyz
x,y,z
-x,-y,z
x,-y,-z
-x,y,-z
-x,-y,-z
x,y,-z
-x,y,z
x,-y,z
1/2+x,1/2+y,z
1/2-x,1/2-y,z
1/2+x,1/2-y,-z
1/2-x,1/2+y,-z
1/2-x,1/2-y,-z
1/2+x,1/2+y,-z
1/2-x,1/2+y,z
1/2+x,1/2-y,z
loop_
_atom_site_type_symbol
_atom_site_label
_atom_site_fract_x
_atom_site_fract_y
_atom_site_fract_z
Si Si1 0.609002 0.178976 0.111027
Si Si2 0.857395 0.178162 0.276410
Si Si3 0.302313 0.320714 0.833993
Si Si4 0.303154 0.680355 0.388283
Si Si5 0.055030 0.680538 0.000000
Si Si6 0.196001 0.318641 0.500000
Si Si7 0.554530 0.178566 0.223057
O O1 0.660765 0.262530 0.118212
O O2 0.573179 0.224780 0.161584
O O3 0.618585 0.000000 0.109199
O O4 0.583801 0.238901 0.054502
O O5 0.821617 0.234921 0.226807
O O6 0.835754 0.228980 0.335691
O O7 0.910730 0.251430 0.270495
O O8 0.863780 0.000000 0.272596
O O9 0.297985 0.500000 0.837060
O O10 0.250000 0.250000 0.845811
O O11 0.298787 0.500000 0.395084
O O12 0.250000 0.750000 0.378626
O O13 0.328956 0.753586 0.443450
O O14 0.052325 0.500000 0.000000
O O15 0.000000 0.746955 0.000000
O O16 0.196182 0.500000 0.500000
O O17 0.250000 0.250000 0.500000
O O18 0.500000 0.243840 0.230862
O O19 0.554864 0.000000 0.230549
#
# Coordination Sequence:
#
# PCOD8265724 Si02
#       7
#    16  16  16  16   8   8  16
#     4   9  17  30  48  70  94 119 149 184 224 269
#     4   9  19  31  45  67  92 119 151 186 224 268
#     4  10  19  32  48  67  92 121 153 187 225 267
#     4  10  18  29  44  64  91 121 153 186 221 261
#     4   9  16  28  50  75  94 115 148 189 228 269
#     4  10  18  28  42  62  89 122 155 184 220 261
#     4   9  17  29  46  68  93 119 147 182 224 269
#
# _framework density 16.656690999999999
#
# number of rings (size 3 to 8) (size 9 to 14) (size 15 to 20)
#    0.000    2.583    0.000    3.750    0.000    4.333 
#    0.000    0.833    0.000    2.000    0.000    0.583 
#    0.000    4.667    0.000    0.000    0.000    0.000 
#
# Total GULP energy -595155.649500 kJ/mol
# GULP energy per Si atom -12399.076031 kJ/mol
# Density = 1.661878 g / cm^3
# Si number density = 16.656691 Si / 1000 Ang^3
#
#
#
# Elastic Constant Matrix: (Units=GPa)
#
#
# Indices 1 2 3 4 5 6 
#
# 1 141.5535 38.0243 73.9402 0.0000 0.0000 0.0000
# 2 38.0243 50.7733 39.1741 0.0000 0.0000 0.0000
# 3 73.9402 39.1741 138.3284 0.0000 0.0000 0.0000
# 4 0.0000 0.0000 0.0000 22.0051 0.0000 0.0000
# 5 0.0000 0.0000 0.0000 0.0000 21.4980 0.0000
# 6 0.0000 0.0000 0.0000 0.0000 0.0000 25.3142
#
#
#
# Elastic Compliance Matrix: (Units=1/GPa)
#
#
# Indices 1 2 3 4 5 6 
#
# 1 0.010563 -0.004548 -0.004358 0.000000 0.000000 0.000000
# 2 -0.004548 0.027160 -0.005261 0.000000 0.000000 0.000000
# 3 -0.004358 -0.005261 0.011048 0.000000 0.000000 0.000000
# 4 0.000000 0.000000 0.000000 0.045444 0.000000 0.000000
# 5 0.000000 0.000000 0.000000 0.000000 0.046516 0.000000
# 6 0.000000 0.000000 0.000000 0.000000 0.000000 0.039504
#
#
# Mechanical properties :
#
#
# Convention : Reuss Voigt Hill
#
# Bulk Modulus (GPa) = 48.92850 70.32582 59.62716
# Shear Modulus (GPa) = 23.21474 25.73125 24.47300
#
# Velocity S-wave (km/s) = 3.73730 3.93466 3.83725
# Velocity P-wave (km/s) = 6.93266 7.93438 7.45037
#
# Compressibility (1/GPa) = 0.02043799
#
# Stress axis : x y z
#
# Youngs Moduli (GPa) = 94.67438 36.81858 90.51045
#
# Poissons Ratio (x) = 0.16745 0.39444
# Poissons Ratio (y) = 0.43057 0.47615
# Poissons Ratio (z) = 0.41259 0.19369
#
# Static dielectric constant tensor:
#      x y z
#    x 3.114660 0.000000 0.000000 
#    y 0.000000 3.025070 0.000000 
#    z 0.000000 0.000000 3.483360 
# 
# 
# High freq. dielectric constant tensor:
#      x y z
#    x 1.625010 0.000000 0.000000 
#    y 0.000000 1.637610 0.000000 
#    z 0.000000 0.000000 1.638720 
# 
# From -- ./inp_files/71720.got.cif
#   From: 2010.03.12/outbox.cif.g09.slc.cpg/sg65_36_cif.got.tgz:71720.got - 2010.04.10 20:52:16.
