data_PCOD8265665
_publ_section_title
;
Structure prediction by ZEFSAII (Michael W. Deem and Ramdas Pophale) SiO2 
 PCOD8265665
Probable space group: C M M M
;
_chemical_formula_sum "Si O2"
_cell_formula_units_Z 112
_cell_length_a 22.947493
_cell_length_b 29.424602
_cell_length_c 9.801418
_cell_angle_alpha 90.000000
_cell_angle_beta 90.000000
_cell_angle_gamma 90.000000
_cell_volume 6618.121778
_symmetry_space_group_name_H-M "C M M M"
_symmetry_group_IT_number 65
_symmetry_cell_setting 'orthorhombic'
loop_
_space_group_symop_operation_xyz
x,y,z
-x,-y,z
x,-y,-z
-x,y,-z
-x,-y,-z
x,y,-z
-x,y,z
x,-y,z
1/2+x,1/2+y,z
1/2-x,1/2-y,z
1/2+x,1/2-y,-z
1/2-x,1/2+y,-z
1/2-x,1/2-y,-z
1/2+x,1/2+y,-z
1/2-x,1/2+y,z
1/2+x,1/2-y,z
loop_
_atom_site_type_symbol
_atom_site_label
_atom_site_fract_x
_atom_site_fract_y
_atom_site_fract_z
Si Si1 0.564477 0.644814 0.160917
Si Si2 0.117933 0.050931 0.842141
Si Si3 0.802070 0.693217 0.160261
Si Si4 0.935748 0.550119 0.661453
Si Si5 0.328937 0.705083 0.159059
Si Si6 0.772923 0.051242 0.654051
Si Si7 0.164465 0.386190 0.340284
O O1 0.500000 0.658429 0.218782
O O2 0.572979 0.591125 0.195182
O O3 0.616674 0.676412 0.224989
O O4 0.564319 0.652247 0.000000
O O5 0.175263 0.060945 0.756735
O O6 0.092630 0.000000 0.809303
O O7 0.135707 0.053982 0.000000
O O8 0.734925 0.690226 0.212752
O O9 0.833392 0.741374 0.189009
O O10 0.838360 0.659016 0.251854
O O11 0.805473 0.681590 0.000000
O O12 0.928924 0.547050 0.500000
O O13 0.924616 0.500000 0.723336
O O14 0.889139 0.585086 0.719304
O O15 0.000000 0.567403 0.702307
O O16 0.329965 0.695307 0.000000
O O17 0.795560 0.059049 0.500000
O O18 0.722352 0.085829 0.691165
O O19 0.748795 0.000000 0.670488
O O20 0.158373 0.374425 0.500000
#
# Coordination Sequence:
#
# PCOD8265665 Si02
#       7
#    16  16  16  16  16  16  16
#     4   9  16  26  43  66  89 114 146 183 217 249
#     4   9  17  28  43  66  93 116 141 176 216 256
#     4   9  17  30  48  66  86 113 143 178 220 263
#     4   8  14  26  44  63  84 115 152 181 205 246
#     4   8  15  29  46  62  82 114 153 181 206 254
#     4   9  17  28  42  62  90 121 147 174 212 256
#     4  10  18  27  43  69  93 110 138 182 224 258
#
# _framework density 16.923231000000001
#
# number of rings (size 3 to 8) (size 9 to 14) (size 15 to 20)
#    0.000    3.143    0.000    2.571    0.000    3.714 
#    0.000    3.571    0.000    3.857    0.000    3.000 
#    0.000    0.000    0.000    0.000    0.000    0.000 
#
# Total GULP energy -693845.926864 kJ/mol
# GULP energy per Si atom -12390.105837 kJ/mol
# Density = 1.688471 g / cm^3
# Si number density = 16.923231 Si / 1000 Ang^3
#
#
#
# Elastic Constant Matrix: (Units=GPa)
#
#
# Indices 1 2 3 4 5 6 
#
# 1 105.2252 67.2013 22.0854 0.0000 0.0000 0.0000
# 2 67.2013 106.9455 29.3925 0.0000 0.0000 0.0000
# 3 22.0854 29.3925 27.8257 0.0000 0.0000 0.0000
# 4 0.0000 0.0000 0.0000 24.6968 0.0000 0.0000
# 5 0.0000 0.0000 0.0000 0.0000 10.5309 0.0000
# 6 0.0000 0.0000 0.0000 0.0000 0.0000 27.9911
#
#
#
# Elastic Compliance Matrix: (Units=1/GPa)
#
#
# Indices 1 2 3 4 5 6 
#
# 1 0.016042 -0.009273 -0.002938 0.000000 0.000000 0.000000
# 2 -0.009273 0.018536 -0.012219 0.000000 0.000000 0.000000
# 3 -0.002938 -0.012219 0.051177 0.000000 0.000000 0.000000
# 4 0.000000 0.000000 0.000000 0.040491 0.000000 0.000000
# 5 0.000000 0.000000 0.000000 0.000000 0.094959 0.000000
# 6 0.000000 0.000000 0.000000 0.000000 0.000000 0.035726
#
#
# Mechanical properties :
#
#
# Convention : Reuss Voigt Hill
#
# Bulk Modulus (GPa) = 27.10397 53.03940 40.07168
# Shear Modulus (GPa) = 15.71886 20.73156 18.22521
#
# Velocity S-wave (km/s) = 3.05098 3.50385 3.28523
# Velocity P-wave (km/s) = 5.33497 6.91220 6.17416
#
# Compressibility (1/GPa) = 0.03689497
#
# Stress axis : x y z
#
# Youngs Moduli (GPa) = 62.33587 53.94965 19.53998
#
# Poissons Ratio (x) = 0.50028 0.05740
# Poissons Ratio (y) = 0.57804 0.23877
# Poissons Ratio (z) = 0.18311 0.65924
#
# Static dielectric constant tensor:
#      x y z
#    x 3.349150 0.000000 0.000000 
#    y 0.000000 3.344260 0.000000 
#    z 0.000000 0.000000 2.743270 
# 
# 
# High freq. dielectric constant tensor:
#      x y z
#    x 1.646390 0.000000 0.000000 
#    y 0.000000 1.658980 0.000000 
#    z 0.000000 0.000000 1.603820 
# 
# From -- ./inp_files/29594.got.cif
#   From: 2010.03.12/outbox.cif.g09.slc.cpg/sg65_15_cif.got.tgz:29594.got - 2010.04.10 20:52:16.
