data_PCOD8265327
_publ_section_title
;
Structure prediction by ZEFSAII (Michael W. Deem and Ramdas Pophale) SiO2 
 PCOD8265327
Probable space group: C M M M
;
_chemical_formula_sum "Si O2"
_cell_formula_units_Z 96
_cell_length_a 28.420419
_cell_length_b 26.777563
_cell_length_c 9.083482
_cell_angle_alpha 90.000000
_cell_angle_beta 90.000000
_cell_angle_gamma 90.000000
_cell_volume 6912.798312
_symmetry_space_group_name_H-M "C M M M"
_symmetry_group_IT_number 65
_symmetry_cell_setting 'orthorhombic'
loop_
_space_group_symop_operation_xyz
x,y,z
-x,-y,z
x,-y,-z
-x,y,-z
-x,-y,-z
x,y,-z
-x,y,z
x,-y,z
1/2+x,1/2+y,z
1/2-x,1/2-y,z
1/2+x,1/2-y,-z
1/2-x,1/2+y,-z
1/2-x,1/2-y,-z
1/2+x,1/2+y,-z
1/2-x,1/2+y,z
1/2+x,1/2-y,z
loop_
_atom_site_type_symbol
_atom_site_label
_atom_site_fract_x
_atom_site_fract_y
_atom_site_fract_z
Si Si1 0.143418 0.554791 0.326004
Si Si2 0.552364 0.110482 0.668299
Si Si3 0.358711 0.246431 0.328187
Si Si4 0.219649 0.200156 0.834045
Si Si5 0.201309 0.351448 0.327707
Si Si6 0.553126 0.786414 0.171042
O O1 0.148257 0.552700 0.500000
O O2 0.154957 0.500000 0.258422
O O3 0.089828 0.568743 0.283149
O O4 0.179351 0.596809 0.266731
O O5 0.562258 0.128252 0.500000
O O6 0.500000 0.087411 0.682356
O O7 0.558174 0.157286 0.773958
O O8 0.361755 0.257483 0.500000
O O9 0.328318 0.290600 0.254979
O O10 0.335932 0.192457 0.294533
O O11 0.410788 0.248730 0.259097
O O12 0.250000 0.250000 0.830957
O O13 0.249712 0.156530 0.757042
O O14 0.207410 0.183935 0.000000
O O15 0.212705 0.353457 0.500000
O O16 0.500000 0.766826 0.198826
O O17 0.566310 0.785096 0.000000
#
# Coordination Sequence:
#
# PCOD8265327 Si02
#       6
#    16  16  16  16  16  16
#     4   9  16  26  40  58  77  98 128 167 208 243
#     4   9  16  27  41  55  71  95 130 169 208 245
#     4  10  17  27  43  60  77  98 125 159 194 233
#     4   9  17  27  40  59  78  97 120 151 192 237
#     4   9  16  27  40  56  76  99 125 159 198 237
#     4  10  19  28  39  56  78 104 131 160 196 236
#
# _framework density 13.887285
#
# number of rings (size 3 to 8) (size 9 to 14) (size 15 to 20)
#    0.000    2.667    1.667    1.500    0.000    4.000 
#    0.000    1.667    0.000    2.000    0.000    2.333 
#    0.000    0.000    0.000    0.000    0.000    0.833 
#
# Total GULP energy -595046.360125 kJ/mol
# GULP energy per Si atom -12396.799169 kJ/mol
# Density = 1.385568 g / cm^3
# Si number density = 13.887285 Si / 1000 Ang^3
#
#
#
# Elastic Constant Matrix: (Units=GPa)
#
#
# Indices 1 2 3 4 5 6 
#
# 1 100.8967 54.9698 50.6171 0.0000 0.0000 0.0000
# 2 54.9698 56.7773 25.3584 0.0000 0.0000 0.0000
# 3 50.6171 25.3584 72.7624 0.0000 0.0000 0.0000
# 4 0.0000 0.0000 0.0000 7.7019 0.0000 0.0000
# 5 0.0000 0.0000 0.0000 0.0000 22.8179 0.0000
# 6 0.0000 0.0000 0.0000 0.0000 0.0000 19.2932
#
#
#
# Elastic Compliance Matrix: (Units=1/GPa)
#
#
# Indices 1 2 3 4 5 6 
#
# 1 0.027309 -0.021265 -0.011587 0.000000 0.000000 0.000000
# 2 -0.021265 0.037418 0.001752 0.000000 0.000000 0.000000
# 3 -0.011587 0.001752 0.021193 0.000000 0.000000 0.000000
# 4 0.000000 0.000000 0.000000 0.129837 0.000000 0.000000
# 5 0.000000 0.000000 0.000000 0.000000 0.043825 0.000000
# 6 0.000000 0.000000 0.000000 0.000000 0.000000 0.051832
#
#
# Mechanical properties :
#
#
# Convention : Reuss Voigt Hill
#
# Bulk Modulus (GPa) = 42.15537 54.70300 48.42918
# Shear Modulus (GPa) = 13.10549 16.59535 14.85042
#
# Velocity S-wave (km/s) = 3.07531 3.46063 3.27365
# Velocity P-wave (km/s) = 6.55983 7.44609 7.01696
#
# Compressibility (1/GPa) = 0.02372177
#
# Stress axis : x y z
#
# Youngs Moduli (GPa) = 36.61781 26.72520 47.18579
#
# Poissons Ratio (x) = 0.56831 0.54672
# Poissons Ratio (y) = 0.77867 -0.08269
# Poissons Ratio (z) = 0.42427 -0.04683
#
# Static dielectric constant tensor:
#      x y z
#    x 2.870790 0.000000 0.000000 
#    y 0.000000 2.551590 0.000000 
#    z 0.000000 0.000000 2.728310 
# 
# 
# High freq. dielectric constant tensor:
#      x y z
#    x 1.526660 0.000000 0.000000 
#    y 0.000000 1.476500 0.000000 
#    z 0.000000 0.000000 1.528210 
# 
# From -- ./inp_files/16915.got.cif
#   From: 2010.03.12/outbox.cif.g09.slc.cpg/sg65_9_cif.got.tgz:16915.got - 2010.04.10 20:52:16.
