data_PCOD8265409
_publ_section_title
;
Structure prediction by ZEFSAII (Michael W. Deem and Ramdas Pophale) SiO2 
 PCOD8265409
Probable space group: C M M M
;
_chemical_formula_sum "Si O2"
_cell_formula_units_Z 64
_cell_length_a 24.651742
_cell_length_b 17.826822
_cell_length_c 7.693320
_cell_angle_alpha 90.000000
_cell_angle_beta 90.000000
_cell_angle_gamma 90.000000
_cell_volume 3380.923460
_symmetry_space_group_name_H-M "C M M M"
_symmetry_group_IT_number 65
_symmetry_cell_setting 'orthorhombic'
loop_
_space_group_symop_operation_xyz
x,y,z
-x,-y,z
x,-y,-z
-x,y,-z
-x,-y,-z
x,y,-z
-x,y,z
x,-y,z
1/2+x,1/2+y,z
1/2-x,1/2-y,z
1/2+x,1/2-y,-z
1/2-x,1/2+y,-z
1/2-x,1/2-y,-z
1/2+x,1/2+y,-z
1/2-x,1/2+y,z
1/2+x,1/2-y,z
loop_
_atom_site_type_symbol
_atom_site_label
_atom_site_fract_x
_atom_site_fract_y
_atom_site_fract_z
Si Si1 0.144204 0.416493 0.206969
Si Si2 0.254208 0.830926 0.808027
Si Si3 0.063374 0.819157 0.000000
Si Si4 0.438214 0.792496 0.695331
Si Si5 0.666606 0.589009 0.000000
O O1 0.137790 0.500000 0.282665
O O2 0.200731 0.382884 0.283501
O O3 0.094960 0.367906 0.277617
O O4 0.144237 0.418898 0.000000
O O5 0.250000 0.750000 0.709379
O O6 0.196797 0.875699 0.828737
O O7 0.278149 0.812269 0.000000
O O8 0.079146 0.771973 0.170568
O O9 0.102682 0.891487 0.000000
O O10 0.000000 0.844224 0.000000
O O11 0.429878 0.761279 0.500000
O O12 0.500000 0.815123 0.731144
O O13 0.673750 0.500000 0.000000
#
# Coordination Sequence:
#
# PCOD8265409 Si02
#       5
#    16  16   8  16   8
#     4  10  18  29  49  77 107 136 172 216 260 310
#     4   8  15  26  46  76 104 135 178 210 251 311
#     4  10  20  36  57  79 106 137 177 220 259 313
#     4  10  21  36  54  76 104 141 182 221 261 307
#     4  10  17  28  52  84 110 137 172 215 266 317
#
# _framework density 18.929739999999999
#
# number of rings (size 3 to 8) (size 9 to 14) (size 15 to 20)
#    0.750    1.750    1.250    2.250    0.000    1.250 
#    0.000    2.500    0.000    7.500    0.000    3.500 
#    0.000    0.000    0.000    0.000    0.000    0.000 
#
# Total GULP energy -396484.801132 kJ/mol
# GULP energy per Si atom -12390.150035 kJ/mol
# Density = 1.888666 g / cm^3
# Si number density = 18.929740 Si / 1000 Ang^3
#
#
#
# Elastic Constant Matrix: (Units=GPa)
#
#
# Indices 1 2 3 4 5 6 
#
# 1 113.6844 65.2754 17.6282 0.0000 0.0000 0.0000
# 2 65.2754 134.9391 25.5381 0.0000 0.0000 0.0000
# 3 17.6282 25.5381 55.7147 0.0000 0.0000 0.0000
# 4 0.0000 0.0000 0.0000 0.2416 0.0000 0.0000
# 5 0.0000 0.0000 0.0000 0.0000 4.8658 0.0000
# 6 0.0000 0.0000 0.0000 0.0000 0.0000 32.1600
#
#
#
# Elastic Compliance Matrix: (Units=1/GPa)
#
#
# Indices 1 2 3 4 5 6 
#
# 1 0.012261 -0.005690 -0.001271 0.000000 0.000000 0.000000
# 2 -0.005690 0.010756 -0.003130 0.000000 0.000000 0.000000
# 3 -0.001271 -0.003130 0.019785 0.000000 0.000000 0.000000
# 4 0.000000 0.000000 0.000000 4.139054 0.000000 0.000000
# 5 0.000000 0.000000 0.000000 0.000000 0.205518 0.000000
# 6 0.000000 0.000000 0.000000 0.000000 0.000000 0.031095
#
#
# Mechanical properties :
#
#
# Convention : Reuss Voigt Hill
#
# Bulk Modulus (GPa) = 44.20955 57.91354 51.06154
# Shear Modulus (GPa) = 1.12456 20.51323 10.81889
#
# Velocity S-wave (km/s) = 0.77160 3.29546 2.39326
# Velocity P-wave (km/s) = 4.91925 6.71866 5.88810
#
# Compressibility (1/GPa) = 0.02261955
#
# Stress axis : x y z
#
# Youngs Moduli (GPa) = 81.56130 92.97335 50.54266
#
# Poissons Ratio (x) = 0.52906 0.06424
# Poissons Ratio (y) = 0.46412 0.15818
# Poissons Ratio (z) = 0.10366 0.29098
#
# Static dielectric constant tensor:
#      x y z
#    x 3.475540 0.000000 0.000000 
#    y 0.000000 3.483610 0.000000 
#    z 0.000000 0.000000 3.197410 
# 
# 
# High freq. dielectric constant tensor:
#      x y z
#    x 1.740530 0.000000 0.000000 
#    y 0.000000 1.726110 0.000000 
#    z 0.000000 0.000000 1.694560 
# 
# From -- ./inp_files/15627.got.cif
#   From: 2010.03.12/outbox.cif.g09.slc.cpg/sg65_8_cif.got.tgz:15627.got - 2010.04.10 20:52:16.
