data_PCOD8265308
_publ_section_title
;
Structure prediction by ZEFSAII (Michael W. Deem and Ramdas Pophale) SiO2 
 PCOD8265308
Probable space group: C M M M
;
_chemical_formula_sum "Si O2"
_cell_formula_units_Z 104
_cell_length_a 26.947921
_cell_length_b 8.899541
_cell_length_c 24.500873
_cell_angle_alpha 90.000000
_cell_angle_beta 90.000000
_cell_angle_gamma 90.000000
_cell_volume 5875.900498
_symmetry_space_group_name_H-M "C M M M"
_symmetry_group_IT_number 65
_symmetry_cell_setting 'orthorhombic'
loop_
_space_group_symop_operation_xyz
x,y,z
-x,-y,z
x,-y,-z
-x,y,-z
-x,-y,-z
x,y,-z
-x,y,z
x,-y,z
1/2+x,1/2+y,z
1/2-x,1/2-y,z
1/2+x,1/2-y,-z
1/2-x,1/2+y,-z
1/2-x,1/2-y,-z
1/2+x,1/2+y,-z
1/2-x,1/2+y,z
1/2+x,1/2-y,z
loop_
_atom_site_type_symbol
_atom_site_label
_atom_site_fract_x
_atom_site_fract_y
_atom_site_fract_z
Si Si1 0.699792 0.675972 0.227865
Si Si2 0.555483 0.821622 0.060611
Si Si3 0.599383 0.821875 0.624329
Si Si4 0.000000 0.321792 0.438122
Si Si5 0.553350 0.824692 0.266804
Si Si6 0.114624 0.324277 0.836625
Si Si7 0.697729 0.321960 0.352982
O O1 0.705227 0.500000 0.224737
O O2 0.750000 0.750000 0.207873
O O3 0.660964 0.729264 0.182851
O O4 0.687634 0.725990 0.289941
O O5 0.500000 0.758321 0.072060
O O6 0.594922 0.762326 0.105149
O O7 0.553183 0.000000 0.065022
O O8 0.573046 0.771891 0.000000
O O9 0.551492 0.764371 0.589587
O O10 0.590148 0.766513 0.686459
O O11 0.652043 0.742105 0.609822
O O12 0.606506 0.000000 0.617225
O O13 0.000000 0.500000 0.434392
O O14 0.000000 0.263050 0.500000
O O15 0.500000 0.745449 0.273677
O O16 0.571362 0.791087 0.206326
O O17 0.547126 0.000000 0.277233
O O18 0.128671 0.500000 0.838510
O O19 0.701114 0.500000 0.360518
O O20 0.750000 0.250000 0.372618
#
# Coordination Sequence:
#
# PCOD8265308 Si02
#       7
#    16  16  16   8  16  16  16
#     4  10  20  32  46  66  95 126 156 194 241 295
#     4   8  14  25  42  67  96 124 157 196 234 274
#     4  10  17  29  50  74 103 136 168 206 244 287
#     4   9  18  32  53  81 109 141 178 210 243 286
#     4   9  15  23  39  67  97 125 158 193 233 280
#     4  10  17  26  45  69  94 124 158 196 238 286
#     4  10  20  33  50  73 102 134 168 206 254 307
#
# _framework density 17.699414999999998
#
# number of rings (size 3 to 8) (size 9 to 14) (size 15 to 20)
#    0.000    2.538    2.308    1.846    0.000    3.077 
#    0.000    0.385    0.000    5.077    0.000    1.077 
#    0.000    0.000    0.000    0.000    0.000    0.000 
#
# Total GULP energy -644313.575740 kJ/mol
# GULP energy per Si atom -12390.645687 kJ/mol
# Density = 1.765913 g / cm^3
# Si number density = 17.699415 Si / 1000 Ang^3
#
#
#
# Elastic Constant Matrix: (Units=GPa)
#
#
# Indices 1 2 3 4 5 6 
#
# 1 143.7393 41.4075 33.0832 0.0000 0.0000 0.0000
# 2 41.4075 38.6098 19.7003 0.0000 0.0000 0.0000
# 3 33.0832 19.7003 62.9904 0.0000 0.0000 0.0000
# 4 0.0000 0.0000 0.0000 9.4391 0.0000 0.0000
# 5 0.0000 0.0000 0.0000 0.0000 17.2977 0.0000
# 6 0.0000 0.0000 0.0000 0.0000 0.0000 24.9840
#
#
#
# Elastic Compliance Matrix: (Units=1/GPa)
#
#
# Indices 1 2 3 4 5 6 
#
# 1 0.010349 -0.009906 -0.002337 0.000000 0.000000 0.000000
# 2 -0.009906 0.040300 -0.007401 0.000000 0.000000 0.000000
# 3 -0.002337 -0.007401 0.019418 0.000000 0.000000 0.000000
# 4 0.000000 0.000000 0.000000 0.105942 0.000000 0.000000
# 5 0.000000 0.000000 0.000000 0.000000 0.057811 0.000000
# 6 0.000000 0.000000 0.000000 0.000000 0.000000 0.040026
#
#
# Mechanical properties :
#
#
# Convention : Reuss Voigt Hill
#
# Bulk Modulus (GPa) = 32.49079 48.19128 40.34104
# Shear Modulus (GPa) = 15.46104 20.42073 17.94088
#
# Velocity S-wave (km/s) = 2.95877 3.40038 3.18723
# Velocity P-wave (km/s) = 5.48354 6.53479 6.03211
#
# Compressibility (1/GPa) = 0.03077795
#
# Stress axis : x y z
#
# Youngs Moduli (GPa) = 96.63151 24.81367 51.49954
#
# Poissons Ratio (x) = 0.24580 0.12036
# Poissons Ratio (y) = 0.95723 0.38116
# Poissons Ratio (z) = 0.22584 0.18365
#
# Static dielectric constant tensor:
#      x y z
#    x 3.387010 0.000000 0.000000 
#    y 0.000000 2.864060 0.000000 
#    z 0.000000 0.000000 3.307450 
# 
# 
# High freq. dielectric constant tensor:
#      x y z
#    x 1.694510 0.000000 0.000000 
#    y 0.000000 1.642640 0.000000 
#    z 0.000000 0.000000 1.659940 
# 
# From -- ./inp_files/68273.got.cif
#   From: 2010.03.12/outbox.cif.g09.slc.cpg/sg65_35_cif.got.tgz:68273.got - 2010.04.10 20:52:16.
