data_PCOD8265117
_publ_section_title
;
Structure prediction by ZEFSAII (Michael W. Deem and Ramdas Pophale) SiO2 
 PCOD8265117
Probable space group: C M M M
;
_chemical_formula_sum "Si O2"
_cell_formula_units_Z 112
_cell_length_a 27.884059
_cell_length_b 27.953884
_cell_length_c 9.627842
_cell_angle_alpha 90.000000
_cell_angle_beta 90.000000
_cell_angle_gamma 90.000000
_cell_volume 7504.592348
_symmetry_space_group_name_H-M "C M M M"
_symmetry_group_IT_number 65
_symmetry_cell_setting 'orthorhombic'
loop_
_space_group_symop_operation_xyz
x,y,z
-x,-y,z
x,-y,-z
-x,y,-z
-x,-y,-z
x,y,-z
-x,y,z
x,-y,z
1/2+x,1/2+y,z
1/2-x,1/2-y,z
1/2+x,1/2-y,-z
1/2-x,1/2+y,-z
1/2-x,1/2-y,-z
1/2+x,1/2+y,-z
1/2-x,1/2+y,z
1/2+x,1/2-y,z
loop_
_atom_site_type_symbol
_atom_site_label
_atom_site_fract_x
_atom_site_fract_y
_atom_site_fract_z
Si Si1 0.209043 0.363194 0.164292
Si Si2 0.254134 0.054884 0.660593
Si Si3 0.856133 0.280107 0.164221
Si Si4 0.643875 0.445251 0.660243
Si Si5 0.701386 0.306882 0.155391
Si Si6 0.446987 0.726663 0.165517
Si Si7 0.893423 0.866440 0.155764
O O1 0.210095 0.413223 0.245847
O O2 0.159444 0.334570 0.197739
O O3 0.251938 0.330177 0.226657
O O4 0.214363 0.373447 0.000000
O O5 0.261024 0.068706 0.500000
O O6 0.199018 0.063032 0.706156
O O7 0.268770 0.000000 0.685623
O O8 0.817161 0.242315 0.227605
O O9 0.909523 0.267227 0.221184
O O10 0.856690 0.270632 0.000000
O O11 0.638108 0.431501 0.500000
O O12 0.629386 0.500000 0.686567
O O13 0.606706 0.413015 0.746948
O O14 0.659664 0.345575 0.156910
O O15 0.717852 0.294489 0.000000
O O16 0.500000 0.737392 0.226450
O O17 0.430136 0.673754 0.213475
O O18 0.447951 0.727568 0.000000
O O19 0.908005 0.882057 0.000000
#
# Coordination Sequence:
#
# PCOD8265117 Si02
#       7
#    16  16  16  16  16  16  16
#     4  10  16  23  39  60  81 105 133 165 193 221
#     4   9  18  30  40  52  77 113 142 161 192 237
#     4   8  14  22  35  57  82 107 132 155 190 237
#     4   9  17  28  40  54  75 104 135 166 200 238
#     4   8  13  21  33  54  81 104 126 155 188 224
#     4   8  14  25  41  61  84 105 127 160 198 237
#     4   9  15  24  40  61  78  98 133 168 197 229
#
# _framework density 14.924194999999999
#
# number of rings (size 3 to 8) (size 9 to 14) (size 15 to 20)
#    0.000    3.286    1.429    3.000    0.000    2.286 
#    0.000    1.429    0.000    6.000    0.000    3.000 
#    0.000    0.571    0.000    7.143    0.000    1.143 
#
# Total GULP energy -693773.656770 kJ/mol
# GULP energy per Si atom -12388.815299 kJ/mol
# Density = 1.489023 g / cm^3
# Si number density = 14.924195 Si / 1000 Ang^3
#
#
#
# Elastic Constant Matrix: (Units=GPa)
#
#
# Indices 1 2 3 4 5 6 
#
# 1 76.3936 47.9651 21.1754 0.0000 0.0000 0.0000
# 2 47.9651 80.9030 31.8585 0.0000 0.0000 0.0000
# 3 21.1754 31.8585 31.4384 0.0000 0.0000 0.0000
# 4 0.0000 0.0000 0.0000 5.5041 0.0000 0.0000
# 5 0.0000 0.0000 0.0000 0.0000 8.4577 0.0000
# 6 0.0000 0.0000 0.0000 0.0000 0.0000 16.4124
#
#
#
# Elastic Compliance Matrix: (Units=1/GPa)
#
#
# Indices 1 2 3 4 5 6 
#
# 1 0.020973 -0.011435 -0.002539 0.000000 0.000000 0.000000
# 2 -0.011435 0.026802 -0.019459 0.000000 0.000000 0.000000
# 3 -0.002539 -0.019459 0.053237 0.000000 0.000000 0.000000
# 4 0.000000 0.000000 0.000000 0.181684 0.000000 0.000000
# 5 0.000000 0.000000 0.000000 0.000000 0.118236 0.000000
# 6 0.000000 0.000000 0.000000 0.000000 0.000000 0.060930
#
#
# Mechanical properties :
#
#
# Convention : Reuss Voigt Hill
#
# Bulk Modulus (GPa) = 29.28443 43.41478 36.34961
# Shear Modulus (GPa) = 9.25737 11.92389 10.59063
#
# Velocity S-wave (km/s) = 2.49327 2.82966 2.66677
# Velocity P-wave (km/s) = 5.28708 6.31105 5.82162
#
# Compressibility (1/GPa) = 0.03414784
#
# Stress axis : x y z
#
# Youngs Moduli (GPa) = 47.67956 37.31029 18.78387
#
# Poissons Ratio (x) = 0.42663 0.04770
# Poissons Ratio (y) = 0.54519 0.36551
# Poissons Ratio (z) = 0.12107 0.72601
#
# Static dielectric constant tensor:
#      x y z
#    x 2.876820 0.000000 0.000000 
#    y 0.000000 2.845560 0.000000 
#    z 0.000000 0.000000 2.512530 
# 
# 
# High freq. dielectric constant tensor:
#      x y z
#    x 1.540510 0.000000 0.000000 
#    y 0.000000 1.565110 0.000000 
#    z 0.000000 0.000000 1.527030 
# 
# From -- ./inp_files/31399.got.cif
#   From: 2010.03.12/outbox.cif.g09.slc.cpg/sg65_16_cif.got.tgz:31399.got - 2010.04.10 20:52:16.
