data_PCOD8265991
_publ_section_title
;
Structure prediction by ZEFSAII (Michael W. Deem and Ramdas Pophale) SiO2 
 PCOD8265991
Probable space group: C M M M
;
_chemical_formula_sum "Si O2"
_cell_formula_units_Z 88
_cell_length_a 19.327281
_cell_length_b 14.086344
_cell_length_c 18.053876
_cell_angle_alpha 90.000000
_cell_angle_beta 90.000000
_cell_angle_gamma 90.000000
_cell_volume 4915.180898
_symmetry_space_group_name_H-M "C M M M"
_symmetry_group_IT_number 65
_symmetry_cell_setting 'orthorhombic'
loop_
_space_group_symop_operation_xyz
x,y,z
-x,-y,z
x,-y,-z
-x,y,-z
-x,-y,-z
x,y,-z
-x,y,z
x,-y,z
1/2+x,1/2+y,z
1/2-x,1/2-y,z
1/2+x,1/2-y,-z
1/2-x,1/2+y,-z
1/2-x,1/2-y,-z
1/2+x,1/2+y,-z
1/2-x,1/2+y,z
1/2+x,1/2-y,z
loop_
_atom_site_type_symbol
_atom_site_label
_atom_site_fract_x
_atom_site_fract_y
_atom_site_fract_z
Si Si1 0.196191 0.612362 0.082778
Si Si2 0.841342 0.887597 0.142466
Si Si3 0.077198 0.886894 0.000000
Si Si4 0.418047 0.393578 0.418704
Si Si5 0.921526 0.392937 0.193294
Si Si6 0.920046 0.208987 0.725786
O O1 0.200432 0.500000 0.075510
O O2 0.263090 0.648421 0.128346
O O3 0.127483 0.643186 0.126909
O O4 0.194172 0.656598 0.000000
O O5 0.871146 0.844472 0.217055
O O6 0.845514 0.000000 0.149519
O O7 0.885286 0.848889 0.073244
O O8 0.000000 0.846118 0.000000
O O9 0.078459 0.000000 0.000000
O O10 0.389075 0.363287 0.500000
O O11 0.500000 0.393776 0.422076
O O12 0.391911 0.500000 0.398862
O O13 0.393214 0.319088 0.356196
O O14 0.902075 0.500000 0.218953
O O15 0.912679 0.322660 0.263445
O O16 0.000000 0.389153 0.163073
O O17 0.000000 0.176939 0.737667
#
# Coordination Sequence:
#
# PCOD8265991 Si02
#       6
#    16  16   8  16  16  16
#     4   9  17  32  51  67  89 123 162 207 253 292
#     4  10  18  29  45  69  98 127 156 188 233 292
#     4   9  16  26  40  59  92 134 160 179 218 273
#     4   8  14  26  46  73 104 133 156 183 226 282
#     4   9  19  35  51  66  86 118 164 215 258 286
#     4  10  19  30  46  71  99 128 162 197 234 280
#
# _framework density 17.903715999999999
#
# number of rings (size 3 to 8) (size 9 to 14) (size 15 to 20)
#    0.000    2.818    0.909    1.636    0.000    2.909 
#    1.636    2.727    0.000    0.545    0.000    6.364 
#    0.000    4.364    0.000    0.182    0.000    0.000 
#
# Total GULP energy -545363.579958 kJ/mol
# GULP energy per Si atom -12394.626817 kJ/mol
# Density = 1.786297 g / cm^3
# Si number density = 17.903716 Si / 1000 Ang^3
#
#
#
# Elastic Constant Matrix: (Units=GPa)
#
#
# Indices 1 2 3 4 5 6 
#
# 1 89.2712 33.8601 54.6100 0.0000 0.0000 0.0000
# 2 33.8601 65.2582 62.3676 0.0000 0.0000 0.0000
# 3 54.6100 62.3676 156.5147 0.0000 0.0000 0.0000
# 4 0.0000 0.0000 0.0000 23.0692 0.0000 0.0000
# 5 0.0000 0.0000 0.0000 0.0000 12.0310 0.0000
# 6 0.0000 0.0000 0.0000 0.0000 0.0000 12.0403
#
#
#
# Elastic Compliance Matrix: (Units=1/GPa)
#
#
# Indices 1 2 3 4 5 6 
#
# 1 0.015016 -0.004497 -0.003448 0.000000 0.000000 0.000000
# 2 -0.004497 0.026095 -0.008829 0.000000 0.000000 0.000000
# 3 -0.003448 -0.008829 0.011110 0.000000 0.000000 0.000000
# 4 0.000000 0.000000 0.000000 0.043348 0.000000 0.000000
# 5 0.000000 0.000000 0.000000 0.000000 0.083119 0.000000
# 6 0.000000 0.000000 0.000000 0.000000 0.000000 0.083054
#
#
# Mechanical properties :
#
#
# Convention : Reuss Voigt Hill
#
# Bulk Modulus (GPa) = 53.54817 68.07995 60.81406
# Shear Modulus (GPa) = 16.58292 20.10852 18.34572
#
# Velocity S-wave (km/s) = 3.04670 3.35498 3.20455
# Velocity P-wave (km/s) = 6.50772 7.28807 6.90892
#
# Compressibility (1/GPa) = 0.01867477
#
# Stress axis : x y z
#
# Youngs Moduli (GPa) = 66.59407 38.32124 90.00539
#
# Poissons Ratio (x) = 0.17231 0.31031
# Poissons Ratio (y) = 0.29944 0.79470
# Poissons Ratio (z) = 0.22959 0.33836
#
# Static dielectric constant tensor:
#      x y z
#    x 3.282960 0.000000 0.000000 
#    y 0.000000 3.339510 0.000000 
#    z 0.000000 0.000000 3.465140 
# 
# 
# High freq. dielectric constant tensor:
#      x y z
#    x 1.675280 0.000000 0.000000 
#    y 0.000000 1.690490 0.000000 
#    z 0.000000 0.000000 1.670730 
# 
# From -- ./inp_files/40220.got.cif
#   From: 2010.03.12/outbox.cif.g09.slc.cpg/sg65_21_cif.got.tgz:40220.got - 2010.04.10 20:52:16.
