data_PCOD8265400
_publ_section_title
;
Structure prediction by ZEFSAII (Michael W. Deem and Ramdas Pophale) SiO2 
 PCOD8265400
Probable space group: C M M M
;
_chemical_formula_sum "Si O2"
_cell_formula_units_Z 104
_cell_length_a 8.877918
_cell_length_b 29.890116
_cell_length_c 22.841461
_cell_angle_alpha 90.000000
_cell_angle_beta 90.000000
_cell_angle_gamma 90.000000
_cell_volume 6061.255748
_symmetry_space_group_name_H-M "C M M M"
_symmetry_group_IT_number 65
_symmetry_cell_setting 'orthorhombic'
loop_
_space_group_symop_operation_xyz
x,y,z
-x,-y,z
x,-y,-z
-x,y,-z
-x,-y,-z
x,y,-z
-x,y,z
x,-y,z
1/2+x,1/2+y,z
1/2-x,1/2-y,z
1/2+x,1/2-y,-z
1/2-x,1/2+y,-z
1/2-x,1/2-y,-z
1/2+x,1/2+y,-z
1/2-x,1/2+y,z
1/2+x,1/2-y,z
loop_
_atom_site_type_symbol
_atom_site_label
_atom_site_fract_x
_atom_site_fract_y
_atom_site_fract_z
Si Si1 0.823767 0.050281 0.821401
Si Si2 0.823281 0.052497 0.500000
Si Si3 0.670526 0.889947 0.271181
Si Si4 0.322361 0.885530 0.407623
Si Si5 0.321348 0.294509 0.404633
Si Si6 0.329084 0.946886 0.063557
Si Si7 0.325326 0.208603 0.279245
O O1 0.779523 0.078507 0.764953
O O2 0.763008 0.072778 0.881518
O O3 0.000000 0.049399 0.826478
O O4 0.759414 0.000000 0.813612
O O5 0.747807 0.072895 0.442029
O O6 0.000000 0.062896 0.500000
O O7 0.789849 0.000000 0.500000
O O8 0.500000 0.906507 0.262016
O O9 0.714925 0.892525 0.339259
O O10 0.688303 0.839041 0.246800
O O11 0.500000 0.882728 0.418490
O O12 0.248030 0.839771 0.432233
O O13 0.500000 0.294544 0.413533
O O14 0.250000 0.250000 0.434950
O O15 0.276283 0.294070 0.336899
O O16 0.500000 0.931059 0.071312
O O17 0.316588 0.000000 0.064130
O O18 0.267942 0.929592 0.000000
O O19 0.500000 0.218004 0.295204
O O20 0.250000 0.250000 0.242258
#
# Coordination Sequence:
#
# PCOD8265400 Si02
#       7
#    16   8  16  16  16  16  16
#     4  10  20  30  42  65  96 128 161 198 239 279
#     4  11  25  43  60  77  96 121 157 201 247 293
#     4   9  19  33  49  70  96 126 159 194 233 281
#     4  10  21  38  57  76  97 124 161 201 242 287
#     4  10  17  28  49  76 104 130 154 184 229 284
#     4   8  14  26  44  63  85 119 160 196 232 277
#     4   9  16  27  44  68  95 124 158 193 233 282
#
# _framework density 17.158159999999999
#
# number of rings (size 3 to 8) (size 9 to 14) (size 15 to 20)
#    0.000    2.538    0.000    5.308    0.000    6.154 
#    0.000    5.000    0.000    0.000    0.000    0.000 
#    0.000    0.615    0.000    2.000    0.000    2.615 
#
# Total GULP energy -644395.366311 kJ/mol
# GULP energy per Si atom -12392.218583 kJ/mol
# Density = 1.711911 g / cm^3
# Si number density = 17.158160 Si / 1000 Ang^3
#
#
#
# Elastic Constant Matrix: (Units=GPa)
#
#
# Indices 1 2 3 4 5 6 
#
# 1 106.3435 54.5991 41.0566 0.0000 0.0000 0.0000
# 2 54.5991 101.9544 46.9162 0.0000 0.0000 0.0000
# 3 41.0566 46.9162 80.6408 0.0000 0.0000 0.0000
# 4 0.0000 0.0000 0.0000 -3.0168 0.0000 0.0000
# 5 0.0000 0.0000 0.0000 0.0000 21.7948 0.0000
# 6 0.0000 0.0000 0.0000 0.0000 0.0000 29.9219
#
#
#
# Elastic Compliance Matrix: (Units=1/GPa)
#
#
# Indices 1 2 3 4 5 6 
#
# 1 0.013735 -0.005650 -0.003706 0.000000 0.000000 0.000000
# 2 -0.005650 0.015719 -0.006268 0.000000 0.000000 0.000000
# 3 -0.003706 -0.006268 0.017934 0.000000 0.000000 0.000000
# 4 0.000000 0.000000 0.000000 -0.331473 0.000000 0.000000
# 5 0.000000 0.000000 0.000000 0.000000 0.045882 0.000000
# 6 0.000000 0.000000 0.000000 0.000000 0.000000 0.033420
#
#
# Mechanical properties :
#
#
# Convention : Reuss Voigt Hill
#
# Bulk Modulus (GPa) = 61.95974 63.78695 62.87335
# Shear Modulus (GPa) = -29.73464 19.49777 -5.11844
#
# Velocity S-wave (km/s) = -4.16742 3.37464 -1.72904
# Velocity P-wave (km/s) = 3.61011 7.24161 5.72161
#
# Compressibility (1/GPa) = 0.01613951
#
# Stress axis : x y z
#
# Youngs Moduli (GPa) = 72.80601 63.61888 55.75956
#
# Poissons Ratio (x) = 0.35946 0.20663
# Poissons Ratio (y) = 0.41137 0.34951
# Poissons Ratio (z) = 0.26980 0.39878
#
# Static dielectric constant tensor:
#      x y z
#    x 3.261490 0.000000 0.000000 
#    y 0.000000 3.508020 0.000000 
#    z 0.000000 0.000000 3.161260 
# 
# 
# High freq. dielectric constant tensor:
#      x y z
#    x 1.673090 0.000000 0.000000 
#    y 0.000000 1.649240 0.000000 
#    z 0.000000 0.000000 1.630060 
# 
# From -- ./inp_files/68547.got.cif
#   From: 2010.03.12/outbox.cif.g09.slc.cpg/sg65_35_cif.got.tgz:68547.got - 2010.04.10 20:52:16.
