data_PCOD8265939
_publ_section_title
;
Structure prediction by ZEFSAII (Michael W. Deem and Ramdas Pophale) SiO2 
 PCOD8265939
Probable space group: C M M M
;
_chemical_formula_sum "Si O2"
_cell_formula_units_Z 80
_cell_length_a 10.347957
_cell_length_b 27.837252
_cell_length_c 19.620450
_cell_angle_alpha 90.000000
_cell_angle_beta 90.000000
_cell_angle_gamma 90.000000
_cell_volume 5651.841059
_symmetry_space_group_name_H-M "C M M M"
_symmetry_group_IT_number 65
_symmetry_cell_setting 'orthorhombic'
loop_
_space_group_symop_operation_xyz
x,y,z
-x,-y,z
x,-y,-z
-x,y,-z
-x,-y,-z
x,y,-z
-x,y,z
x,-y,z
1/2+x,1/2+y,z
1/2-x,1/2-y,z
1/2+x,1/2-y,-z
1/2-x,1/2+y,-z
1/2-x,1/2-y,-z
1/2+x,1/2+y,-z
1/2-x,1/2+y,z
1/2+x,1/2-y,z
loop_
_atom_site_type_symbol
_atom_site_label
_atom_site_fract_x
_atom_site_fract_y
_atom_site_fract_z
Si Si1 0.355771 0.942850 0.423503
Si Si2 0.150732 0.945257 0.833508
Si Si3 0.500000 0.299663 0.080863
Si Si4 0.243408 0.139005 0.919187
Si Si5 0.000000 0.692104 0.919117
Si Si6 0.356813 0.557156 0.320446
O O1 0.322808 0.925231 0.500000
O O2 0.500000 0.925410 0.402727
O O3 0.250067 0.920728 0.371664
O O4 0.350775 0.000000 0.420821
O O5 0.233738 0.913055 0.884821
O O6 0.176642 0.927204 0.756507
O O7 0.000000 0.940952 0.851665
O O8 0.197652 0.000000 0.842824
O O9 0.626418 0.327566 0.106558
O O10 0.500000 0.245927 0.111719
O O11 0.500000 0.296798 0.000000
O O12 0.374262 0.163898 0.893560
O O13 0.240847 0.131688 0.000000
O O14 0.000000 0.695618 0.000000
O O15 0.500000 0.576146 0.340916
O O16 0.357349 0.500000 0.324176
#
# Coordination Sequence:
#
# PCOD8265939 Si02
#       6
#    16  16   8  16   8  16
#     4   8  13  21  33  50  71  92 119 158 195 226
#     4   9  17  29  42  56  77 106 142 177 199 225
#     4   9  16  28  47  65  77  97 127 158 202 256
#     4  10  18  29  44  62  80 102 133 167 205 244
#     4   9  18  30  43  61  85  99 115 162 214 254
#     4   8  14  24  36  49  68  96 129 163 194 223
#
# _framework density 14.154680000000001
#
# number of rings (size 3 to 8) (size 9 to 14) (size 15 to 20)
#    0.000    3.200    1.000    2.400    0.000    3.200 
#    1.800    3.500    0.000    1.800    0.000    0.000 
#    0.000    0.000    0.000    0.000    0.000    6.000 
#
# Total GULP energy -495800.633009 kJ/mol
# GULP energy per Si atom -12395.015825 kJ/mol
# Density = 1.412246 g / cm^3
# Si number density = 14.154680 Si / 1000 Ang^3
#
#
#
# Elastic Constant Matrix: (Units=GPa)
#
#
# Indices 1 2 3 4 5 6 
#
# 1 113.5711 42.1299 45.4332 0.0000 0.0000 0.0000
# 2 42.1299 61.5657 29.1443 0.0000 0.0000 0.0000
# 3 45.4332 29.1443 55.1331 0.0000 0.0000 0.0000
# 4 0.0000 0.0000 0.0000 0.9024 0.0000 0.0000
# 5 0.0000 0.0000 0.0000 0.0000 19.5496 0.0000
# 6 0.0000 0.0000 0.0000 0.0000 0.0000 13.9883
#
#
#
# Elastic Compliance Matrix: (Units=1/GPa)
#
#
# Indices 1 2 3 4 5 6 
#
# 1 0.014488 -0.005685 -0.008934 0.000000 0.000000 0.000000
# 2 -0.005685 0.023895 -0.007946 0.000000 0.000000 0.000000
# 3 -0.008934 -0.007946 0.029700 0.000000 0.000000 0.000000
# 4 0.000000 0.000000 0.000000 1.108205 0.000000 0.000000
# 5 0.000000 0.000000 0.000000 0.000000 0.051152 0.000000
# 6 0.000000 0.000000 0.000000 0.000000 0.000000 0.071488
#
#
# Mechanical properties :
#
#
# Convention : Reuss Voigt Hill
#
# Bulk Modulus (GPa) = 43.56749 51.52051 47.54400
# Shear Modulus (GPa) = 3.69902 14.45889 9.07896
#
# Velocity S-wave (km/s) = 1.61832 3.19955 2.53536
# Velocity P-wave (km/s) = 5.85989 7.08002 6.49865
#
# Compressibility (1/GPa) = 0.02295289
#
# Stress axis : x y z
#
# Youngs Moduli (GPa) = 69.02354 41.85004 33.66959
#
# Poissons Ratio (x) = 0.23792 0.30079
# Poissons Ratio (y) = 0.39240 0.26755
# Poissons Ratio (z) = 0.61663 0.33256
#
# Static dielectric constant tensor:
#      x y z
#    x 3.030040 0.000000 0.000000 
#    y 0.000000 2.470610 0.000000 
#    z 0.000000 0.000000 2.690500 
# 
# 
# High freq. dielectric constant tensor:
#      x y z
#    x 1.548610 0.000000 0.000000 
#    y 0.000000 1.493940 0.000000 
#    z 0.000000 0.000000 1.515990 
# 
# From -- ./inp_files/60088.got.cif
#   From: 2010.03.12/outbox.cif.g09.slc.cpg/sg65_31_cif.got.tgz:60088.got - 2010.04.10 20:52:16.
