data_PCOD8265818
_publ_section_title
;
Structure prediction by ZEFSAII (Michael W. Deem and Ramdas Pophale) SiO2 
 PCOD8265818
Probable space group: C M M M
;
_chemical_formula_sum "Si O2"
_cell_formula_units_Z 80
_cell_length_a 8.885470
_cell_length_b 26.108189
_cell_length_c 19.562286
_cell_angle_alpha 90.000000
_cell_angle_beta 90.000000
_cell_angle_gamma 90.000000
_cell_volume 4538.128163
_symmetry_space_group_name_H-M "C M M M"
_symmetry_group_IT_number 65
_symmetry_cell_setting 'orthorhombic'
loop_
_space_group_symop_operation_xyz
x,y,z
-x,-y,z
x,-y,-z
-x,y,-z
-x,-y,-z
x,y,-z
-x,y,z
x,-y,z
1/2+x,1/2+y,z
1/2-x,1/2-y,z
1/2+x,1/2-y,-z
1/2-x,1/2+y,-z
1/2-x,1/2-y,-z
1/2+x,1/2+y,-z
1/2-x,1/2+y,z
1/2+x,1/2-y,z
loop_
_atom_site_type_symbol
_atom_site_label
_atom_site_fract_x
_atom_site_fract_y
_atom_site_fract_z
Si Si1 0.821354 0.802773 0.077686
Si Si2 0.178817 0.103644 0.330669
Si Si3 0.822794 0.802278 0.577985
Si Si4 0.826916 0.000000 0.187184
Si Si5 0.674161 0.389521 0.175549
Si Si6 0.176351 0.500000 0.670673
O O1 0.750000 0.750000 0.104045
O O2 0.751355 0.848010 0.124991
O O3 0.000000 0.798717 0.083117
O O4 0.771183 0.814220 0.000000
O O5 0.236314 0.150698 0.376513
O O6 0.236748 0.113560 0.253004
O O7 0.000000 0.097507 0.333297
O O8 0.251279 0.051608 0.361224
O O9 0.772906 0.812508 0.500000
O O10 0.750000 0.750000 0.605907
O O11 0.000000 0.796446 0.584657
O O12 0.799864 0.947343 0.145001
O O13 0.711278 0.000000 0.249162
O O14 0.000000 0.000000 0.215731
O O15 0.500000 0.375915 0.177876
O O16 0.000000 0.500000 0.656434
#
# Coordination Sequence:
#
# PCOD8265818 Si02
#       6
#    16  16  16   8  16   8
#     4   9  17  29  43  60  85 115 145 177 213 254
#     4   9  17  31  49  66  89 121 151 179 217 268
#     4   9  18  32  49  68  90 118 150 183 222 266
#     4   8  14  28  47  63  85 116 143 171 218 272
#     4   8  14  26  45  65  83 109 144 177 210 252
#     4  10  18  28  45  70  95 116 145 186 226 260
#
# _framework density 17.628415
#
# number of rings (size 3 to 8) (size 9 to 14) (size 15 to 20)
#    0.000    3.200    0.000    2.100    0.000    1.600 
#    0.000    5.000    0.000    6.000    0.000    0.000 
#    0.000   16.000    0.000    0.000    0.000    0.000 
#
# Total GULP energy -495667.527335 kJ/mol
# GULP energy per Si atom -12391.688183 kJ/mol
# Density = 1.758829 g / cm^3
# Si number density = 17.628415 Si / 1000 Ang^3
#
#
#
# Elastic Constant Matrix: (Units=GPa)
#
#
# Indices 1 2 3 4 5 6 
#
# 1 29.2276 33.1050 15.9262 0.0000 0.0000 0.0000
# 2 33.1050 208.9880 83.7764 0.0000 0.0000 0.0000
# 3 15.9262 83.7764 69.0156 0.0000 0.0000 0.0000
# 4 0.0000 0.0000 0.0000 20.5956 0.0000 0.0000
# 5 0.0000 0.0000 0.0000 0.0000 12.3145 0.0000
# 6 0.0000 0.0000 0.0000 0.0000 0.0000 28.5429
#
#
#
# Elastic Compliance Matrix: (Units=1/GPa)
#
#
# Indices 1 2 3 4 5 6 
#
# 1 0.042044 -0.005397 -0.003151 0.000000 0.000000 0.000000
# 2 -0.005397 0.010013 -0.010909 0.000000 0.000000 0.000000
# 3 -0.003151 -0.010909 0.028459 0.000000 0.000000 0.000000
# 4 0.000000 0.000000 0.000000 0.048554 0.000000 0.000000
# 5 0.000000 0.000000 0.000000 0.000000 0.081205 0.000000
# 6 0.000000 0.000000 0.000000 0.000000 0.000000 0.035035
#
#
# Mechanical properties :
#
#
# Convention : Reuss Voigt Hill
#
# Bulk Modulus (GPa) = 24.03740 63.64960 43.84350
# Shear Modulus (GPa) = 16.77340 23.91886 20.34613
#
# Velocity S-wave (km/s) = 3.08798 3.68752 3.40099
# Velocity P-wave (km/s) = 5.13609 7.36987 6.35195
#
# Compressibility (1/GPa) = 0.04160184
#
# Stress axis : x y z
#
# Youngs Moduli (GPa) = 23.78459 99.87055 35.13836
#
# Poissons Ratio (x) = 0.53899 0.11072
# Poissons Ratio (y) = 0.12836 0.38333
# Poissons Ratio (z) = 0.07495 1.08950
#
# Static dielectric constant tensor:
#      x y z
#    x 2.913620 0.000000 0.000000 
#    y 0.000000 3.713010 0.000000 
#    z 0.000000 0.000000 3.219640 
# 
# 
# High freq. dielectric constant tensor:
#      x y z
#    x 1.648870 0.000000 0.000000 
#    y 0.000000 1.703010 0.000000 
#    z 0.000000 0.000000 1.648750 
# 
# From -- ./inp_files/49945.got.cif
#   From: 2010.03.12/outbox.cif.g09.slc.cpg/sg65_25_cif.got.tgz:49945.got - 2010.04.10 20:52:16.
