data_PCOD8265449
_publ_section_title
;
Structure prediction by ZEFSAII (Michael W. Deem and Ramdas Pophale) SiO2 
 PCOD8265449
Probable space group: C M M M
;
_chemical_formula_sum "Si O2"
_cell_formula_units_Z 104
_cell_length_a 19.178949
_cell_length_b 17.993923
_cell_length_c 16.231617
_cell_angle_alpha 90.000000
_cell_angle_beta 90.000000
_cell_angle_gamma 90.000000
_cell_volume 5601.604581
_symmetry_space_group_name_H-M "C M M M"
_symmetry_group_IT_number 65
_symmetry_cell_setting 'orthorhombic'
loop_
_space_group_symop_operation_xyz
x,y,z
-x,-y,z
x,-y,-z
-x,y,-z
-x,-y,-z
x,y,-z
-x,y,z
x,-y,z
1/2+x,1/2+y,z
1/2-x,1/2-y,z
1/2+x,1/2-y,-z
1/2-x,1/2+y,-z
1/2-x,1/2-y,-z
1/2+x,1/2+y,-z
1/2-x,1/2+y,z
1/2+x,1/2-y,z
loop_
_atom_site_type_symbol
_atom_site_label
_atom_site_fract_x
_atom_site_fract_y
_atom_site_fract_z
Si Si1 0.668277 0.583227 0.000000
Si Si2 0.659233 0.588173 0.664529
Si Si3 0.173759 0.841150 0.167599
Si Si4 0.920153 0.414498 0.294888
Si Si5 0.700404 0.086517 0.589007
Si Si6 0.333900 0.915706 0.000000
Si Si7 0.665402 0.166555 0.160749
Si Si8 0.921224 0.088146 0.500000
O O1 0.642170 0.622235 0.915609
O O2 0.638549 0.500000 0.000000
O O3 0.751054 0.584729 0.000000
O O4 0.651829 0.500000 0.677274
O O5 0.635227 0.627581 0.750006
O O6 0.738846 0.615653 0.649285
O O7 0.615345 0.615980 0.584691
O O8 0.255691 0.860179 0.177601
O O9 0.160722 0.754595 0.156699
O O10 0.911368 0.500000 0.266455
O O11 0.876933 0.398754 0.377712
O O12 0.888860 0.360452 0.227816
O O13 0.000000 0.394309 0.312762
O O14 0.706011 0.125987 0.500000
O O15 0.715092 0.000000 0.577681
O O16 0.362625 0.870591 0.922438
O O17 0.362838 0.000000 0.000000
O O18 0.000000 0.118416 0.500000
O O19 0.918453 0.000000 0.500000
#
# Coordination Sequence:
#
# PCOD8265449 Si02
#       8
#     8  16  16  16  16   8  16   8
#     4   9  17  29  47  79 112 133 169 222 270 321
#     4  10  17  29  52  80 106 139 181 222 269 325
#     4  10  19  30  50  76 107 145 177 218 274 327
#     4  10  20  33  51  74 103 140 181 227 271 315
#     4   9  16  28  49  76 102 132 176 225 270 319
#     4   9  17  29  50  74 100 138 176 221 277 324
#     4  10  19  32  48  72 106 138 179 223 267 324
#     4   9  18  32  52  81 111 135 172 229 279 320
#
# _framework density 18.566109000000001
#
# number of rings (size 3 to 8) (size 9 to 14) (size 15 to 20)
#    0.000    2.385    2.308    1.385    0.000    3.385 
#    0.000    2.692    1.692    3.231    0.000    1.615 
#    0.000    4.923    0.000    0.000    0.000    0.000 
#
# Total GULP energy -644485.866432 kJ/mol
# GULP energy per Si atom -12393.958970 kJ/mol
# Density = 1.852385 g / cm^3
# Si number density = 18.566109 Si / 1000 Ang^3
#
#
#
# Elastic Constant Matrix: (Units=GPa)
#
#
# Indices 1 2 3 4 5 6 
#
# 1 75.0997 21.5937 32.4485 0.0000 0.0000 0.0000
# 2 21.5937 67.8536 55.7377 0.0000 0.0000 0.0000
# 3 32.4485 55.7377 166.9074 0.0000 0.0000 0.0000
# 4 0.0000 0.0000 0.0000 -37.2564 0.0000 0.0000
# 5 0.0000 0.0000 0.0000 0.0000 19.4533 0.0000
# 6 0.0000 0.0000 0.0000 0.0000 0.0000 10.1510
#
#
#
# Elastic Compliance Matrix: (Units=1/GPa)
#
#
# Indices 1 2 3 4 5 6 
#
# 1 0.015051 -0.003288 -0.001828 0.000000 0.000000 0.000000
# 2 -0.003288 0.021027 -0.006383 0.000000 0.000000 0.000000
# 3 -0.001828 -0.006383 0.008478 0.000000 0.000000 0.000000
# 4 0.000000 0.000000 0.000000 -0.026841 0.000000 0.000000
# 5 0.000000 0.000000 0.000000 0.000000 0.051405 0.000000
# 6 0.000000 0.000000 0.000000 0.000000 0.000000 0.098513
#
#
# Mechanical properties :
#
#
# Convention : Reuss Voigt Hill
#
# Bulk Modulus (GPa) = 46.38544 58.82451 52.60497
# Shear Modulus (GPa) = 25.27593 11.80829 18.54211
#
# Velocity S-wave (km/s) = 3.69372 2.52467 3.16366
# Velocity P-wave (km/s) = 6.57492 6.34438 6.46068
#
# Compressibility (1/GPa) = 0.02155849
#
# Stress axis : x y z
#
# Youngs Moduli (GPa) = 66.44112 47.55803 117.95044
#
# Poissons Ratio (x) = 0.15638 0.21561
# Poissons Ratio (y) = 0.21847 0.75283
# Poissons Ratio (z) = 0.12145 0.30354
#
# Static dielectric constant tensor:
#      x y z
#    x 3.149540 0.000000 0.000000 
#    y 0.000000 3.162390 0.000000 
#    z 0.000000 0.000000 3.946050 
# 
# 
# High freq. dielectric constant tensor:
#      x y z
#    x 1.678630 0.000000 0.000000 
#    y 0.000000 1.694930 0.000000 
#    z 0.000000 0.000000 1.739320 
# 
# From -- ./inp_files/44459.got.cif
#   From: 2010.03.12/outbox.cif.g09.slc.cpg/sg65_23_cif.got.tgz:44459.got - 2010.04.10 20:52:16.
