data_PCOD8265837
_publ_section_title
;
Structure prediction by ZEFSAII (Michael W. Deem and Ramdas Pophale) SiO2 
 PCOD8265837
Probable space group: C M M M
;
_chemical_formula_sum "Si O2"
_cell_formula_units_Z 80
_cell_length_a 18.880914
_cell_length_b 27.367730
_cell_length_c 8.853382
_cell_angle_alpha 90.000000
_cell_angle_beta 90.000000
_cell_angle_gamma 90.000000
_cell_volume 4574.788218
_symmetry_space_group_name_H-M "C M M M"
_symmetry_group_IT_number 65
_symmetry_cell_setting 'orthorhombic'
loop_
_space_group_symop_operation_xyz
x,y,z
-x,-y,z
x,-y,-z
-x,y,-z
-x,-y,-z
x,y,-z
-x,y,z
x,-y,z
1/2+x,1/2+y,z
1/2-x,1/2-y,z
1/2+x,1/2-y,-z
1/2-x,1/2+y,-z
1/2-x,1/2-y,-z
1/2+x,1/2+y,-z
1/2-x,1/2+y,z
1/2+x,1/2-y,z
loop_
_atom_site_type_symbol
_atom_site_label
_atom_site_fract_x
_atom_site_fract_y
_atom_site_fract_z
Si Si1 0.922190 0.150121 0.178183
Si Si2 0.780793 0.801066 0.820490
Si Si3 0.784398 0.393611 0.321360
Si Si4 0.841502 0.944983 0.175666
Si Si5 0.422569 0.054444 0.679175
O O1 0.861682 0.188093 0.236608
O O2 0.901310 0.094439 0.222636
O O3 0.000000 0.161894 0.249267
O O4 0.927570 0.154746 0.000000
O O5 0.750000 0.750000 0.758285
O O6 0.729544 0.842319 0.757602
O O7 0.778494 0.802699 0.000000
O O8 0.781139 0.387038 0.500000
O O9 0.728661 0.434988 0.272354
O O10 0.861565 0.409781 0.261323
O O11 0.868928 0.000000 0.209215
O O12 0.822098 0.938280 0.000000
O O13 0.418515 0.051695 0.500000
O O14 0.500000 0.074204 0.730404
O O15 0.410730 0.000000 0.744924
#
# Coordination Sequence:
#
# PCOD8265837 Si02
#       5
#    16  16  16  16  16
#     4   8  14  26  45  67  88 113 149 186 215 252
#     4   9  18  33  50  66  87 115 146 183 228 272
#     4  10  18  28  46  69  90 114 149 189 223 261
#     4   9  17  28  43  65  93 123 151 180 216 257
#     4   8  14  25  41  62  89 120 151 180 211 252
#
# _framework density 17.487148999999999
#
# number of rings (size 3 to 8) (size 9 to 14) (size 15 to 20)
#    0.000    3.200    0.000    3.000    0.000    2.000 
#    0.000    3.000    0.000   13.200    0.000   12.600 
#    0.000    0.000    0.000    0.000    0.000    0.000 
#
# Total GULP energy -495643.487269 kJ/mol
# GULP energy per Si atom -12391.087182 kJ/mol
# Density = 1.744735 g / cm^3
# Si number density = 17.487149 Si / 1000 Ang^3
#
#
#
# Elastic Constant Matrix: (Units=GPa)
#
#
# Indices 1 2 3 4 5 6 
#
# 1 171.8341 81.0196 10.5656 0.0000 0.0000 0.0000
# 2 81.0196 126.2740 10.3202 0.0000 0.0000 0.0000
# 3 10.5656 10.3202 5.5386 0.0000 0.0000 0.0000
# 4 0.0000 0.0000 0.0000 18.6047 0.0000 0.0000
# 5 0.0000 0.0000 0.0000 0.0000 18.2393 0.0000
# 6 0.0000 0.0000 0.0000 0.0000 0.0000 20.3844
#
#
#
# Elastic Compliance Matrix: (Units=1/GPa)
#
#
# Indices 1 2 3 4 5 6 
#
# 1 0.008581 -0.004917 -0.007208 0.000000 0.000000 0.000000
# 2 -0.004917 0.012159 -0.013277 0.000000 0.000000 0.000000
# 3 -0.007208 -0.013277 0.219042 0.000000 0.000000 0.000000
# 4 0.000000 0.000000 0.000000 0.053750 0.000000 0.000000
# 5 0.000000 0.000000 0.000000 0.000000 0.054827 0.000000
# 6 0.000000 0.000000 0.000000 0.000000 0.000000 0.049057
#
#
# Mechanical properties :
#
#
# Convention : Reuss Voigt Hill
#
# Bulk Modulus (GPa) = 5.29161 56.38416 30.83788
# Shear Modulus (GPa) = 9.78068 24.89511 17.33789
#
# Velocity S-wave (km/s) = 2.36753 3.77719 3.15217
# Velocity P-wave (km/s) = 3.24132 7.16492 5.56068
#
# Compressibility (1/GPa) = 0.18897834
#
# Stress axis : x y z
#
# Youngs Moduli (GPa) = 116.53750 82.24387 4.56533
#
# Poissons Ratio (x) = 0.40436 0.03291
# Poissons Ratio (y) = 0.57296 0.06061
# Poissons Ratio (z) = 0.84001 1.09196
#
# Static dielectric constant tensor:
#      x y z
#    x 3.706420 0.000000 0.000000 
#    y 0.000000 3.316210 0.000000 
#    z 0.000000 0.000000 2.861850 
# 
# 
# High freq. dielectric constant tensor:
#      x y z
#    x 1.681070 0.000000 0.000000 
#    y 0.000000 1.664870 0.000000 
#    z 0.000000 0.000000 1.635700 
# 
# From -- ./inp_files/9621.got.cif
#   From: 2010.03.12/outbox.cif.g09.slc.cpg/sg65_5_cif.got.tgz:9621.got - 2010.04.10 20:52:16.
