data_PCOD8265272
_publ_section_title
;
Structure prediction by ZEFSAII (Michael W. Deem and Ramdas Pophale) SiO2 
 PCOD8265272
Probable space group: C M M M
;
_chemical_formula_sum "Si O2"
_cell_formula_units_Z 96
_cell_length_a 27.102754
_cell_length_b 10.284338
_cell_length_c 22.793483
_cell_angle_alpha 90.000000
_cell_angle_beta 90.000000
_cell_angle_gamma 90.000000
_cell_volume 6353.316021
_symmetry_space_group_name_H-M "C M M M"
_symmetry_group_IT_number 65
_symmetry_cell_setting 'orthorhombic'
loop_
_space_group_symop_operation_xyz
x,y,z
-x,-y,z
x,-y,-z
-x,y,-z
-x,-y,-z
x,y,-z
-x,y,z
x,-y,z
1/2+x,1/2+y,z
1/2-x,1/2-y,z
1/2+x,1/2-y,-z
1/2-x,1/2+y,-z
1/2-x,1/2-y,-z
1/2+x,1/2+y,-z
1/2-x,1/2+y,z
1/2+x,1/2-y,z
loop_
_atom_site_type_symbol
_atom_site_label
_atom_site_fract_x
_atom_site_fract_y
_atom_site_fract_z
Si Si1 0.292905 0.851853 0.369095
Si Si2 0.390662 0.847289 0.435607
Si Si3 0.309835 0.500000 0.933924
Si Si4 0.192833 0.500000 0.065137
Si Si5 0.808608 0.251213 0.863285
Si Si6 0.554880 0.154882 0.676556
Si Si7 0.147262 0.350021 0.748360
O O1 0.250000 0.750000 0.380561
O O2 0.334594 0.819828 0.416850
O O3 0.314283 0.833621 0.304177
O O4 0.273549 0.000000 0.376693
O O5 0.400482 0.784713 0.500000
O O6 0.427937 0.788292 0.386782
O O7 0.399710 0.000000 0.438996
O O8 0.251404 0.500000 0.938745
O O9 0.327709 0.625416 0.898021
O O10 0.332233 0.500000 0.000000
O O11 0.174030 0.373253 0.098524
O O12 0.170036 0.500000 0.000000
O O13 0.750000 0.250000 0.852920
O O14 0.835640 0.256704 0.800775
O O15 0.500000 0.206670 0.691296
O O16 0.592986 0.197654 0.727420
O O17 0.556352 0.000000 0.672769
O O18 0.146343 0.500000 0.769371
#
# Coordination Sequence:
#
# PCOD8265272 Si02
#       7
#    16  16   8   8  16  16  16
#     4   9  17  28  40  56  83 116 144 173 206 238
#     4   8  14  24  38  57  82 111 140 170 207 251
#     4   9  18  28  38  58  87 113 140 175 203 227
#     4   9  16  26  40  56  79 115 148 167 195 237
#     4  10  17  26  40  58  83 115 144 170 199 238
#     4   8  14  24  39  59  83 107 131 170 219 258
#     4   9  16  27  40  57  82 109 140 172 208 252
#
# _framework density 15.11022
#
# number of rings (size 3 to 8) (size 9 to 14) (size 15 to 20)
#    0.000    3.167    0.833    3.000    0.000    2.667 
#    1.500    1.667    0.000    0.000    0.000    0.583 
#    0.000    4.000    0.000    4.333    0.000    5.000 
#
# Total GULP energy -594892.025483 kJ/mol
# GULP energy per Si atom -12393.583864 kJ/mol
# Density = 1.507583 g / cm^3
# Si number density = 15.110220 Si / 1000 Ang^3
#
#
#
# Elastic Constant Matrix: (Units=GPa)
#
#
# Indices 1 2 3 4 5 6 
#
# 1 69.6858 24.3781 35.4378 0.0000 0.0000 0.0000
# 2 24.3781 64.2286 34.5844 0.0000 0.0000 0.0000
# 3 35.4378 34.5844 115.6368 0.0000 0.0000 0.0000
# 4 0.0000 0.0000 0.0000 17.2412 0.0000 0.0000
# 5 0.0000 0.0000 0.0000 0.0000 13.9226 0.0000
# 6 0.0000 0.0000 0.0000 0.0000 0.0000 10.7980
#
#
#
# Elastic Compliance Matrix: (Units=1/GPa)
#
#
# Indices 1 2 3 4 5 6 
#
# 1 0.018083 -0.004624 -0.004159 0.000000 0.000000 0.000000
# 2 -0.004624 0.019740 -0.004487 0.000000 0.000000 0.000000
# 3 -0.004159 -0.004487 0.011264 0.000000 0.000000 0.000000
# 4 0.000000 0.000000 0.000000 0.058000 0.000000 0.000000
# 5 0.000000 0.000000 0.000000 0.000000 0.071826 0.000000
# 6 0.000000 0.000000 0.000000 0.000000 0.000000 0.092610
#
#
# Mechanical properties :
#
#
# Convention : Reuss Voigt Hill
#
# Bulk Modulus (GPa) = 44.34961 48.70578 46.52770
# Shear Modulus (GPa) = 16.36242 18.73575 17.54908
#
# Velocity S-wave (km/s) = 3.29427 3.52510 3.41164
# Velocity P-wave (km/s) = 6.62451 6.99085 6.81014
#
# Compressibility (1/GPa) = 0.02254811
#
# Stress axis : x y z
#
# Youngs Moduli (GPa) = 55.30193 50.65747 88.77745
#
# Poissons Ratio (x) = 0.23424 0.36919
# Poissons Ratio (y) = 0.25572 0.39833
# Poissons Ratio (z) = 0.22998 0.22729
#
# Static dielectric constant tensor:
#      x y z
#    x 2.757290 0.000000 0.000000 
#    y 0.000000 2.637210 0.000000 
#    z 0.000000 0.000000 3.087370 
# 
# 
# High freq. dielectric constant tensor:
#      x y z
#    x 1.543520 0.000000 0.000000 
#    y 0.000000 1.542680 0.000000 
#    z 0.000000 0.000000 1.589220 
# 
# From -- ./inp_files/71548.got.cif
#   From: 2010.03.12/outbox.cif.g09.slc.cpg/sg65_36_cif.got.tgz:71548.got - 2010.04.10 20:52:16.
