data_PCOD8265328
_publ_section_title
;
Structure prediction by ZEFSAII (Michael W. Deem and Ramdas Pophale) SiO2 
 PCOD8265328
Probable space group: C M M M
;
_chemical_formula_sum "Si O2"
_cell_formula_units_Z 96
_cell_length_a 34.496208
_cell_length_b 13.452373
_cell_length_c 14.160540
_cell_angle_alpha 90.000000
_cell_angle_beta 90.000000
_cell_angle_gamma 90.000000
_cell_volume 6571.281527
_symmetry_space_group_name_H-M "C M M M"
_symmetry_group_IT_number 65
_symmetry_cell_setting 'orthorhombic'
loop_
_space_group_symop_operation_xyz
x,y,z
-x,-y,z
x,-y,-z
-x,y,-z
-x,-y,-z
x,y,-z
-x,y,z
x,-y,z
1/2+x,1/2+y,z
1/2-x,1/2-y,z
1/2+x,1/2-y,-z
1/2-x,1/2+y,-z
1/2-x,1/2-y,-z
1/2+x,1/2+y,-z
1/2-x,1/2+y,z
1/2+x,1/2-y,z
loop_
_atom_site_type_symbol
_atom_site_label
_atom_site_fract_x
_atom_site_fract_y
_atom_site_fract_z
Si Si1 0.042441 0.118046 0.393915
Si Si2 0.881007 0.118467 0.296101
Si Si3 0.737650 0.616852 0.896949
Si Si4 0.306264 0.295327 0.388459
Si Si5 0.732111 0.115140 0.298824
Si Si6 0.151146 0.117996 0.897638
O O1 0.049303 0.157719 0.500000
O O2 0.076787 0.158504 0.327429
O O3 0.000000 0.154375 0.357187
O O4 0.043377 0.000000 0.394403
O O5 0.848884 0.167625 0.362708
O O6 0.875829 0.155135 0.188004
O O7 0.877402 0.000000 0.306443
O O8 0.733828 0.500000 0.893665
O O9 0.765502 0.650491 0.811440
O O10 0.694474 0.660759 0.882348
O O11 0.754239 0.651029 0.000000
O O12 0.301234 0.293979 0.500000
O O13 0.299798 0.183339 0.349561
O O14 0.274383 0.369784 0.345151
O O15 0.719913 0.000000 0.308672
O O16 0.152559 0.000000 0.896577
O O17 0.134957 0.154536 0.000000
#
# Coordination Sequence:
#
# PCOD8265328 Si02
#       6
#    16  16  16  16  16  16
#     4   8  14  24  38  57  79 102 127 154 189 232
#     4  10  17  27  43  60  80 104 128 160 199 234
#     4   8  13  24  42  58  72  95 129 166 200 232
#     4  11  22  30  39  58  77 100 140 171 190 231
#     4  10  19  32  43  53  77 107 131 164 205 232
#     4   8  13  22  37  56  76  99 128 161 195 230
#
# _framework density 14.609022
#
# number of rings (size 3 to 8) (size 9 to 14) (size 15 to 20)
#    0.000    2.833    1.667    3.500    0.000    3.000 
#    0.000    2.500    0.000    0.500    0.000    3.500 
#    0.000    0.667    0.000    3.500    0.000    0.167 
#
# Total GULP energy -594681.132906 kJ/mol
# GULP energy per Si atom -12389.190269 kJ/mol
# Density = 1.457577 g / cm^3
# Si number density = 14.609022 Si / 1000 Ang^3
#
#
#
# Elastic Constant Matrix: (Units=GPa)
#
#
# Indices 1 2 3 4 5 6 
#
# 1 66.6896 20.4811 36.8887 0.0000 0.0000 0.0000
# 2 20.4811 41.9371 17.0484 0.0000 0.0000 0.0000
# 3 36.8887 17.0484 124.9837 0.0000 0.0000 0.0000
# 4 0.0000 0.0000 0.0000 -7.5852 0.0000 0.0000
# 5 0.0000 0.0000 0.0000 0.0000 19.8263 0.0000
# 6 0.0000 0.0000 0.0000 0.0000 0.0000 9.9643
#
#
#
# Elastic Compliance Matrix: (Units=1/GPa)
#
#
# Indices 1 2 3 4 5 6 
#
# 1 0.020090 -0.007835 -0.004861 0.000000 0.000000 0.000000
# 2 -0.007835 0.028301 -0.001548 0.000000 0.000000 0.000000
# 3 -0.004861 -0.001548 0.009647 0.000000 0.000000 0.000000
# 4 0.000000 0.000000 0.000000 -0.131837 0.000000 0.000000
# 5 0.000000 0.000000 0.000000 0.000000 0.050438 0.000000
# 6 0.000000 0.000000 0.000000 0.000000 0.000000 0.100358
#
#
# Mechanical properties :
#
#
# Convention : Reuss Voigt Hill
#
# Bulk Modulus (GPa) = 33.84105 42.49409 38.16757
# Shear Modulus (GPa) = 43.35189 15.05390 29.20289
#
# Velocity S-wave (km/s) = 5.45336 3.21355 4.47583
# Velocity P-wave (km/s) = 7.92887 6.55133 7.27279
#
# Compressibility (1/GPa) = 0.02954991
#
# Stress axis : x y z
#
# Youngs Moduli (GPa) = 49.77646 35.33432 103.66138
#
# Poissons Ratio (x) = 0.27686 0.50387
# Poissons Ratio (y) = 0.39002 0.16045
# Poissons Ratio (z) = 0.24195 0.05469
#
# Static dielectric constant tensor:
#      x y z
#    x 2.793080 0.000000 0.000000 
#    y 0.000000 2.498680 0.000000 
#    z 0.000000 0.000000 3.340170 
# 
# 
# High freq. dielectric constant tensor:
#      x y z
#    x 1.522610 0.000000 0.000000 
#    y 0.000000 1.515960 0.000000 
#    z 0.000000 0.000000 1.579360 
# 
# From -- ./inp_files/47881.got.cif
#   From: 2010.03.12/outbox.cif.g09.slc.cpg/sg65_24_cif.got.tgz:47881.got - 2010.04.10 20:52:16.
