data_PCOD8265435
_publ_section_title
;
Structure prediction by ZEFSAII (Michael W. Deem and Ramdas Pophale) SiO2 
 PCOD8265435
Probable space group: C M M M
;
_chemical_formula_sum "Si O2"
_cell_formula_units_Z 128
_cell_length_a 19.750461
_cell_length_b 17.736265
_cell_length_c 21.896668
_cell_angle_alpha 90.000000
_cell_angle_beta 90.000000
_cell_angle_gamma 90.000000
_cell_volume 7670.389885
_symmetry_space_group_name_H-M "C M M M"
_symmetry_group_IT_number 65
_symmetry_cell_setting 'orthorhombic'
loop_
_space_group_symop_operation_xyz
x,y,z
-x,-y,z
x,-y,-z
-x,y,-z
-x,-y,-z
x,y,-z
-x,y,z
x,-y,z
1/2+x,1/2+y,z
1/2-x,1/2-y,z
1/2+x,1/2-y,-z
1/2-x,1/2+y,-z
1/2-x,1/2-y,-z
1/2+x,1/2+y,-z
1/2-x,1/2+y,z
1/2+x,1/2-y,z
loop_
_atom_site_type_symbol
_atom_site_label
_atom_site_fract_x
_atom_site_fract_y
_atom_site_fract_z
Si Si1 0.306994 0.589836 0.296989
Si Si2 0.922507 0.801122 0.678337
Si Si3 0.611271 0.158330 0.245561
Si Si4 0.706913 0.089206 0.068190
Si Si5 0.572237 0.914562 0.131461
Si Si6 0.164896 0.586867 0.357730
Si Si7 0.249178 0.161123 0.816375
Si Si8 0.576303 0.809717 0.430702
O O1 0.313764 0.500000 0.293716
O O2 0.374497 0.625656 0.326094
O O3 0.240390 0.613715 0.336636
O O4 0.306299 0.625231 0.228729
O O5 0.899103 0.744546 0.732884
O O6 0.914999 0.761964 0.612892
O O7 0.000000 0.826113 0.690476
O O8 0.559029 0.134472 0.193218
O O9 0.609495 0.104829 0.305074
O O10 0.680630 0.136870 0.212447
O O11 0.630749 0.115362 0.086352
O O12 0.759709 0.126488 0.115707
O O13 0.715023 0.000000 0.070831
O O14 0.722323 0.119085 0.000000
O O15 0.500000 0.910910 0.096228
O O16 0.589898 0.000000 0.151181
O O17 0.166233 0.500000 0.374454
O O18 0.136336 0.630440 0.416846
O O19 0.250000 0.250000 0.820554
O O20 0.586362 0.782209 0.500000
O O21 0.500000 0.843834 0.421854
#
# Coordination Sequence:
#
# PCOD8265435 Si02
#       8
#    16  16  16  16  16  16  16  16
#     4  10  20  34  51  74 100 125 156 198 247 297
#     4  10  19  32  51  72  95 125 160 201 246 291
#     4   9  16  27  44  67  94 118 152 195 243 288
#     4   9  18  30  42  61  92 127 160 192 226 270
#     4   9  16  25  39  60  88 123 158 191 228 272
#     4   9  18  30  47  69  98 133 164 196 237 286
#     4  10  17  29  50  71  92 120 152 193 241 288
#     4   9  19  34  51  73 101 132 166 199 233 279
#
# _framework density 16.687549000000001
#
# number of rings (size 3 to 8) (size 9 to 14) (size 15 to 20)
#    0.000    2.625    1.250    1.125    0.000    4.750 
#    0.000    3.125    0.000    1.125    0.000    1.750 
#    0.000    0.500    0.000    2.625    0.000    0.000 
#
# Total GULP energy -792905.788134 kJ/mol
# GULP energy per Si atom -12389.152940 kJ/mol
# Density = 1.664957 g / cm^3
# Si number density = 16.687549 Si / 1000 Ang^3
#
#
#
# Elastic Constant Matrix: (Units=GPa)
#
#
# Indices 1 2 3 4 5 6 
#
# 1 69.8919 32.9049 29.4660 0.0000 0.0000 0.0000
# 2 32.9049 73.7717 38.8097 0.0000 0.0000 0.0000
# 3 29.4660 38.8097 101.4204 0.0000 0.0000 0.0000
# 4 0.0000 0.0000 0.0000 -54.8661 0.0000 0.0000
# 5 0.0000 0.0000 0.0000 0.0000 14.7030 0.0000
# 6 0.0000 0.0000 0.0000 0.0000 0.0000 23.6073
#
#
#
# Elastic Compliance Matrix: (Units=1/GPa)
#
#
# Indices 1 2 3 4 5 6 
#
# 1 0.018730 -0.006876 -0.002811 0.000000 0.000000 0.000000
# 2 -0.006876 0.019496 -0.005463 0.000000 0.000000 0.000000
# 3 -0.002811 -0.005463 0.012767 0.000000 0.000000 0.000000
# 4 0.000000 0.000000 0.000000 -0.018226 0.000000 0.000000
# 5 0.000000 0.000000 0.000000 0.000000 0.068013 0.000000
# 6 0.000000 0.000000 0.000000 0.000000 0.000000 0.042360
#
#
# Mechanical properties :
#
#
# Convention : Reuss Voigt Hill
#
# Bulk Modulus (GPa) = 48.32147 49.71613 49.01880
# Shear Modulus (GPa) = 27.72609 6.28240 17.00424
#
# Velocity S-wave (km/s) = 4.08055 1.94239 3.19561
# Velocity P-wave (km/s) = 7.15686 5.90657 6.56156
#
# Compressibility (1/GPa) = 0.02069473
#
# Stress axis : x y z
#
# Youngs Moduli (GPa) = 53.39108 51.29277 78.32752
#
# Poissons Ratio (x) = 0.35267 0.22015
# Poissons Ratio (y) = 0.36709 0.42788
# Poissons Ratio (z) = 0.15006 0.28020
#
# Static dielectric constant tensor:
#      x y z
#    x 3.149200 0.000000 0.000000 
#    y 0.000000 2.899080 0.000000 
#    z 0.000000 0.000000 3.241530 
# 
# 
# High freq. dielectric constant tensor:
#      x y z
#    x 1.630010 0.000000 0.000000 
#    y 0.000000 1.622740 0.000000 
#    z 0.000000 0.000000 1.635390 
# 
# From -- ./inp_files/64854.got.cif
#   From: 2010.03.12/outbox.cif.g09.slc.cpg/sg65_33_cif.got.tgz:64854.got - 2010.04.10 20:52:16.
