data_PCOD8265933
_publ_section_title
;
Structure prediction by ZEFSAII (Michael W. Deem and Ramdas Pophale) SiO2 
 PCOD8265933
Probable space group: C M M M
;
_chemical_formula_sum "Si O2"
_cell_formula_units_Z 104
_cell_length_a 9.583019
_cell_length_b 28.413442
_cell_length_c 28.219613
_cell_angle_alpha 90.000000
_cell_angle_beta 90.000000
_cell_angle_gamma 90.000000
_cell_volume 7683.821194
_symmetry_space_group_name_H-M "C M M M"
_symmetry_group_IT_number 65
_symmetry_cell_setting 'orthorhombic'
loop_
_space_group_symop_operation_xyz
x,y,z
-x,-y,z
x,-y,-z
-x,y,-z
-x,-y,-z
x,y,-z
-x,y,z
x,-y,z
1/2+x,1/2+y,z
1/2-x,1/2-y,z
1/2+x,1/2-y,-z
1/2-x,1/2+y,-z
1/2-x,1/2-y,-z
1/2+x,1/2+y,-z
1/2-x,1/2+y,z
1/2+x,1/2-y,z
loop_
_atom_site_type_symbol
_atom_site_label
_atom_site_fract_x
_atom_site_fract_y
_atom_site_fract_z
Si Si1 0.836565 0.054166 0.829266
Si Si2 0.657107 0.943763 0.637852
Si Si3 0.663602 0.894060 0.092905
Si Si4 0.839655 0.706366 0.054415
Si Si5 0.343518 0.444052 0.447389
Si Si6 0.665850 0.946988 0.000000
Si Si7 0.845701 0.055735 0.722392
O O1 0.747013 0.088334 0.861824
O O2 0.799581 0.069125 0.775525
O O3 0.000000 0.061214 0.839331
O O4 0.793956 0.000000 0.838654
O O5 0.500000 0.923949 0.637736
O O6 0.736056 0.923842 0.591368
O O7 0.735125 0.924044 0.684604
O O8 0.656710 0.000000 0.637775
O O9 0.500000 0.904130 0.100307
O O10 0.693365 0.838808 0.086509
O O11 0.721800 0.921192 0.046811
O O12 0.750000 0.750000 0.073630
O O13 0.000000 0.721033 0.058711
O O14 0.801760 0.694219 0.000000
O O15 0.298346 0.426922 0.500000
O O16 0.500000 0.426136 0.435703
O O17 0.342232 0.500000 0.445634
O O18 0.500000 0.945026 0.000000
O O19 0.723293 0.000000 0.000000
O O20 0.000000 0.076354 0.711330
O O21 0.853670 0.000000 0.718007
#
# Coordination Sequence:
#
# PCOD8265933 Si02
#       7
#    16  16  16  16  16   8  16
#     4   9  18  30  41  55  76  99 123 152 184 218
#     4   9  15  20  28  43  59  74  98 136 176 210
#     4  10  18  29  44  61  78  98 124 151 178 215
#     4   9  17  30  46  63  81  98 120 149 179 214
#     4   8  13  20  28  37  51  74 102 129 163 212
#     4   9  16  26  40  57  77 101 125 145 170 209
#     4   8  14  25  37  45  58  84 113 139 170 209
#
# _framework density 13.534932
#
# number of rings (size 3 to 8) (size 9 to 14) (size 15 to 20)
#    0.000    3.154    0.769    2.308    0.000    4.308 
#    0.000    3.462    0.000    1.385    0.000    0.000 
#    0.000    0.000    0.000    0.000    0.000    0.000 
#
# Total GULP energy -644553.680850 kJ/mol
# GULP energy per Si atom -12395.263093 kJ/mol
# Density = 1.350413 g / cm^3
# Si number density = 13.534932 Si / 1000 Ang^3
#
#
#
# Elastic Constant Matrix: (Units=GPa)
#
#
# Indices 1 2 3 4 5 6 
#
# 1 84.2820 31.6552 67.9095 0.0000 0.0000 0.0000
# 2 31.6552 45.3925 31.4394 0.0000 0.0000 0.0000
# 3 67.9095 31.4394 114.4575 0.0000 0.0000 0.0000
# 4 0.0000 0.0000 0.0000 2.3023 0.0000 0.0000
# 5 0.0000 0.0000 0.0000 0.0000 24.1937 0.0000
# 6 0.0000 0.0000 0.0000 0.0000 0.0000 14.3229
#
#
#
# Elastic Compliance Matrix: (Units=1/GPa)
#
#
# Indices 1 2 3 4 5 6 
#
# 1 0.025386 -0.008980 -0.012596 0.000000 0.000000 0.000000
# 2 -0.008980 0.030382 -0.003018 0.000000 0.000000 0.000000
# 3 -0.012596 -0.003018 0.017039 0.000000 0.000000 0.000000
# 4 0.000000 0.000000 0.000000 0.434344 0.000000 0.000000
# 5 0.000000 0.000000 0.000000 0.000000 0.041333 0.000000
# 6 0.000000 0.000000 0.000000 0.000000 0.000000 0.069818
#
#
# Mechanical properties :
#
#
# Convention : Reuss Voigt Hill
#
# Bulk Modulus (GPa) = 42.33404 56.23781 49.28592
# Shear Modulus (GPa) = 7.40343 15.70564 11.55454
#
# Velocity S-wave (km/s) = 2.34131 3.41013 2.92495
# Velocity P-wave (km/s) = 6.21727 7.55947 6.92099
#
# Compressibility (1/GPa) = 0.02362166
#
# Stress axis : x y z
#
# Youngs Moduli (GPa) = 39.39125 32.91390 58.68920
#
# Poissons Ratio (x) = 0.29556 0.73922
# Poissons Ratio (y) = 0.35372 0.17710
# Poissons Ratio (z) = 0.49615 0.09932
#
# Static dielectric constant tensor:
#      x y z
#    x 2.768470 0.000000 0.000000 
#    y 0.000000 2.243910 0.000000 
#    z 0.000000 0.000000 2.834020 
# 
# 
# High freq. dielectric constant tensor:
#      x y z
#    x 1.516760 0.000000 0.000000 
#    y 0.000000 1.447610 0.000000 
#    z 0.000000 0.000000 1.518050 
# 
# From -- ./inp_files/74056.got.cif
#   From: 2010.03.12/outbox.cif.g09.slc.cpg/sg65_38_cif.got.tgz:74056.got - 2010.04.10 20:52:16.
