data_PCOD8265824
_publ_section_title
;
Structure prediction by ZEFSAII (Michael W. Deem and Ramdas Pophale) SiO2 
 PCOD8265824
Probable space group: C M M M
;
_chemical_formula_sum "Si O2"
_cell_formula_units_Z 120
_cell_length_a 17.506454
_cell_length_b 23.388685
_cell_length_c 17.671935
_cell_angle_alpha 90.000000
_cell_angle_beta 90.000000
_cell_angle_gamma 90.000000
_cell_volume 7235.825707
_symmetry_space_group_name_H-M "C M M M"
_symmetry_group_IT_number 65
_symmetry_cell_setting 'orthorhombic'
loop_
_space_group_symop_operation_xyz
x,y,z
-x,-y,z
x,-y,-z
-x,y,-z
-x,-y,-z
x,y,-z
-x,y,z
x,-y,z
1/2+x,1/2+y,z
1/2-x,1/2-y,z
1/2+x,1/2-y,-z
1/2-x,1/2+y,-z
1/2-x,1/2-y,-z
1/2+x,1/2+y,-z
1/2-x,1/2+y,z
1/2+x,1/2-y,z
loop_
_atom_site_type_symbol
_atom_site_label
_atom_site_fract_x
_atom_site_fract_y
_atom_site_fract_z
Si Si1 0.287810 0.188650 0.582974
Si Si2 0.352656 0.389083 0.855574
Si Si3 0.086538 0.228301 0.911362
Si Si4 0.652136 0.171950 0.179885
Si Si5 0.300696 0.329439 0.275563
Si Si6 0.587093 0.774690 0.686273
Si Si7 0.000000 0.935911 0.918557
Si Si8 0.802707 0.434029 0.912294
O O1 0.288481 0.158682 0.500000
O O2 0.250000 0.250000 0.576387
O O3 0.237098 0.152980 0.643688
O O4 0.374679 0.197353 0.611735
O O5 0.362628 0.324938 0.885812
O O6 0.337999 0.385049 0.764533
O O7 0.428312 0.424426 0.866681
O O8 0.286712 0.421230 0.901409
O O9 0.131091 0.284825 0.886664
O O10 0.000000 0.224460 0.876841
O O11 0.080659 0.230064 0.000000
O O12 0.733407 0.189383 0.217500
O O13 0.588950 0.178136 0.246500
O O14 0.650584 0.108168 0.143767
O O15 0.364195 0.280109 0.285223
O O16 0.500000 0.757269 0.667594
O O17 0.000000 0.000000 0.943580
O O18 0.000000 0.901018 0.000000
O O19 0.820207 0.500000 0.890425
O O20 0.824501 0.423091 0.000000
#
# Coordination Sequence:
#
# PCOD8265824 Si02
#       8
#    16  16  16  16  16  16   8  16
#     4   8  15  29  46  66  97 132 160 186 226 288
#     4  11  20  31  47  68  95 125 164 206 247 298
#     4  11  21  30  45  72  99 124 158 204 255 298
#     4  10  19  32  48  67  95 126 162 202 248 296
#     4   9  19  30  46  70  96 128 161 197 245 288
#     4  10  18  28  45  70  99 128 157 190 236 290
#     4  11  22  34  46  64  99 143 176 208 251 291
#     4  10  21  35  49  64  85 120 168 216 254 288
#
# _framework density 16.584147999999999
#
# number of rings (size 3 to 8) (size 9 to 14) (size 15 to 20)
#    0.000    2.067    2.000    3.600    2.800    1.333 
#    0.000    2.000    0.000    1.600    0.000    4.667 
#    0.000   53.867    0.000   10.800    0.000    0.000 
#
# Total GULP energy -743340.764591 kJ/mol
# GULP energy per Si atom -12389.012743 kJ/mol
# Density = 1.654640 g / cm^3
# Si number density = 16.584148 Si / 1000 Ang^3
#
#
#
# Elastic Constant Matrix: (Units=GPa)
#
#
# Indices 1 2 3 4 5 6 
#
# 1 74.0497 17.4704 35.6858 0.0000 0.0000 0.0000
# 2 17.4704 69.1366 31.6658 0.0000 0.0000 0.0000
# 3 35.6858 31.6658 112.9053 0.0000 0.0000 0.0000
# 4 0.0000 0.0000 0.0000 12.2330 0.0000 0.0000
# 5 0.0000 0.0000 0.0000 0.0000 17.2117 0.0000
# 6 0.0000 0.0000 0.0000 0.0000 0.0000 -0.6949
#
#
#
# Elastic Compliance Matrix: (Units=1/GPa)
#
#
# Indices 1 2 3 4 5 6 
#
# 1 0.016169 -0.002002 -0.004549 0.000000 0.000000 0.000000
# 2 -0.002002 0.016844 -0.004091 0.000000 0.000000 0.000000
# 3 -0.004549 -0.004091 0.011442 0.000000 0.000000 0.000000
# 4 0.000000 0.000000 0.000000 0.081746 0.000000 0.000000
# 5 0.000000 0.000000 0.000000 0.000000 0.058100 0.000000
# 6 0.000000 0.000000 0.000000 0.000000 0.000000 -1.438960
#
#
# Mechanical properties :
#
#
# Convention : Reuss Voigt Hill
#
# Bulk Modulus (GPa) = 43.15889 47.30395 45.23142
# Shear Modulus (GPa) = -4.07947 17.16792 6.54423
#
# Velocity S-wave (km/s) = -1.57010 3.22094 1.98863
# Velocity P-wave (km/s) = 4.77428 6.51292 5.71016
#
# Compressibility (1/GPa) = 0.02317020
#
# Stress axis : x y z
#
# Youngs Moduli (GPa) = 61.84648 59.36852 87.39572
#
# Poissons Ratio (x) = 0.11887 0.39756
# Poissons Ratio (y) = 0.12384 0.35756
# Poissons Ratio (z) = 0.28134 0.24289
#
# Static dielectric constant tensor:
#      x y z
#    x 3.297280 0.000000 0.000000 
#    y 0.000000 2.907850 0.000000 
#    z 0.000000 0.000000 3.546960 
# 
# 
# High freq. dielectric constant tensor:
#      x y z
#    x 1.639390 0.000000 0.000000 
#    y 0.000000 1.597460 0.000000 
#    z 0.000000 0.000000 1.635450 
# 
# From -- ./inp_files/54964.got.cif
#   From: 2010.03.12/outbox.cif.g09.slc.cpg/sg65_28_cif.got.tgz:54964.got - 2010.04.10 20:52:16.
