data_PCOD8265795
_publ_section_title
;
Structure prediction by ZEFSAII (Michael W. Deem and Ramdas Pophale) SiO2 
 PCOD8265795
Probable space group: C M M M
;
_chemical_formula_sum "Si O2"
_cell_formula_units_Z 128
_cell_length_a 22.060643
_cell_length_b 27.146690
_cell_length_c 12.563372
_cell_angle_alpha 90.000000
_cell_angle_beta 90.000000
_cell_angle_gamma 90.000000
_cell_volume 7523.869766
_symmetry_space_group_name_H-M "C M M M"
_symmetry_group_IT_number 65
_symmetry_cell_setting 'orthorhombic'
loop_
_space_group_symop_operation_xyz
x,y,z
-x,-y,z
x,-y,-z
-x,y,-z
-x,-y,-z
x,y,-z
-x,y,z
x,-y,z
1/2+x,1/2+y,z
1/2-x,1/2-y,z
1/2+x,1/2-y,-z
1/2-x,1/2+y,-z
1/2-x,1/2-y,-z
1/2+x,1/2+y,-z
1/2-x,1/2+y,z
1/2+x,1/2-y,z
loop_
_atom_site_type_symbol
_atom_site_label
_atom_site_fract_x
_atom_site_fract_y
_atom_site_fract_z
Si Si1 0.381950 0.206368 0.263200
Si Si2 0.568385 0.122315 0.879270
Si Si3 0.930758 0.797955 0.376541
Si Si4 0.801765 0.056517 0.121242
Si Si5 0.795107 0.633599 0.623608
Si Si6 0.670355 0.056787 0.209346
Si Si7 0.687584 0.723276 0.115192
Si Si8 0.171718 0.139377 0.729886
O O1 0.423375 0.165422 0.207490
O O2 0.419399 0.241312 0.342957
O O3 0.325905 0.182421 0.327133
O O4 0.359776 0.240980 0.169429
O O5 0.500000 0.102420 0.867513
O O6 0.613557 0.077319 0.856473
O O7 0.579928 0.141597 0.000000
O O8 0.915389 0.802354 0.500000
O O9 0.890273 0.838481 0.315764
O O10 0.000000 0.811750 0.351766
O O11 0.730109 0.064960 0.138311
O O12 0.839897 0.087747 0.208560
O O13 0.819431 0.000000 0.141497
O O14 0.817620 0.071965 0.000000
O O15 0.810968 0.630730 0.500000
O O16 0.822570 0.585179 0.679021
O O17 0.722278 0.635056 0.637706
O O18 0.658786 0.000000 0.235953
O O19 0.750000 0.750000 0.099888
O O20 0.700382 0.674482 0.181410
O O21 0.660900 0.708532 0.000000
#
# Coordination Sequence:
#
# PCOD8265795 Si02
#       8
#    16  16  16  16  16  16  16  16
#     4  10  19  33  48  70  99 130 163 207 239 287
#     4  10  20  32  48  70  97 132 169 203 240 283
#     4  10  21  35  52  71  95 132 170 202 238 282
#     4   9  17  31  53  78 102 127 155 192 244 301
#     4  10  19  31  49  72  95 125 159 203 255 294
#     4   9  19  33  48  70  98 127 161 203 248 293
#     4  10  18  28  44  70 101 132 160 189 236 294
#     4  10  19  32  49  75 103 128 160 203 243 289
#
# _framework density 17.012522000000001
#
# number of rings (size 3 to 8) (size 9 to 14) (size 15 to 20)
#    0.000    2.250    1.250    2.250    0.000    1.250 
#    0.000    2.500    0.000   12.375    0.000    5.250 
#    0.000    0.000    0.000    0.000    0.000    0.000 
#
# Total GULP energy -793481.033654 kJ/mol
# GULP energy per Si atom -12398.141151 kJ/mol
# Density = 1.697380 g / cm^3
# Si number density = 17.012522 Si / 1000 Ang^3
#
#
#
# Elastic Constant Matrix: (Units=GPa)
#
#
# Indices 1 2 3 4 5 6 
#
# 1 75.8709 39.3747 38.8549 0.0000 0.0000 0.0000
# 2 39.3747 96.2903 43.2390 0.0000 0.0000 0.0000
# 3 38.8549 43.2390 107.2360 0.0000 0.0000 0.0000
# 4 0.0000 0.0000 0.0000 20.0904 0.0000 0.0000
# 5 0.0000 0.0000 0.0000 0.0000 20.8688 0.0000
# 6 0.0000 0.0000 0.0000 0.0000 0.0000 19.4081
#
#
#
# Elastic Compliance Matrix: (Units=1/GPa)
#
#
# Indices 1 2 3 4 5 6 
#
# 1 0.018293 -0.005500 -0.004411 0.000000 0.000000 0.000000
# 2 -0.005500 0.014335 -0.003787 0.000000 0.000000 0.000000
# 3 -0.004411 -0.003787 0.012450 0.000000 0.000000 0.000000
# 4 0.000000 0.000000 0.000000 0.049775 0.000000 0.000000
# 5 0.000000 0.000000 0.000000 0.000000 0.047919 0.000000
# 6 0.000000 0.000000 0.000000 0.000000 0.000000 0.051525
#
#
# Mechanical properties :
#
#
# Convention : Reuss Voigt Hill
#
# Bulk Modulus (GPa) = 56.55099 58.03715 57.29407
# Shear Modulus (GPa) = 21.96964 22.60203 22.28583
#
# Velocity S-wave (km/s) = 3.59748 3.64889 3.62327
# Velocity P-wave (km/s) = 7.11117 7.20701 7.15925
#
# Compressibility (1/GPa) = 0.01768315
#
# Stress axis : x y z
#
# Youngs Moduli (GPa) = 54.66482 69.75987 80.31867
#
# Poissons Ratio (x) = 0.38367 0.35426
# Poissons Ratio (y) = 0.30065 0.30419
# Poissons Ratio (z) = 0.24111 0.26420
#
# Static dielectric constant tensor:
#      x y z
#    x 2.839020 0.000000 0.000000 
#    y 0.000000 3.224350 0.000000 
#    z 0.000000 0.000000 3.295380 
# 
# 
# High freq. dielectric constant tensor:
#      x y z
#    x 1.634870 0.000000 0.000000 
#    y 0.000000 1.653400 0.000000 
#    z 0.000000 0.000000 1.663900 
# 
# From -- ./inp_files/31296.got.cif
#   From: 2010.03.12/outbox.cif.g09.slc.cpg/sg65_16_cif.got.tgz:31296.got - 2010.04.10 20:52:16.
