data_PCOD8265159
_publ_section_title
;
Structure prediction by ZEFSAII (Michael W. Deem and Ramdas Pophale) SiO2 
 PCOD8265159
Probable space group: C M M M
;
_chemical_formula_sum "Si O2"
_cell_formula_units_Z 80
_cell_length_a 19.378311
_cell_length_b 32.647039
_cell_length_c 9.176645
_cell_angle_alpha 90.000000
_cell_angle_beta 90.000000
_cell_angle_gamma 90.000000
_cell_volume 5805.553758
_symmetry_space_group_name_H-M "C M M M"
_symmetry_group_IT_number 65
_symmetry_cell_setting 'orthorhombic'
loop_
_space_group_symop_operation_xyz
x,y,z
-x,-y,z
x,-y,-z
-x,y,-z
-x,-y,-z
x,y,-z
-x,y,z
x,-y,z
1/2+x,1/2+y,z
1/2-x,1/2-y,z
1/2+x,1/2-y,-z
1/2-x,1/2+y,-z
1/2-x,1/2-y,-z
1/2+x,1/2+y,-z
1/2-x,1/2+y,z
1/2+x,1/2-y,z
loop_
_atom_site_type_symbol
_atom_site_label
_atom_site_fract_x
_atom_site_fract_y
_atom_site_fract_z
Si Si1 0.500000 0.253734 0.827231
Si Si2 0.420974 0.046799 0.831437
Si Si3 0.648422 0.732374 0.172384
Si Si4 0.862725 0.619792 0.330793
Si Si5 0.000000 0.329989 0.334034
Si Si6 0.779001 0.314650 0.172746
O O1 0.570056 0.276295 0.771207
O O2 0.500000 0.207410 0.775325
O O3 0.500000 0.252427 0.000000
O O4 0.500000 0.052835 0.779954
O O5 0.369475 0.074656 0.737204
O O6 0.398243 0.000000 0.806564
O O7 0.413994 0.059035 0.000000
O O8 0.700494 0.696530 0.222643
O O9 0.672736 0.777144 0.227481
O O10 0.651452 0.734274 0.000000
O O11 0.845453 0.615606 0.500000
O O12 0.800260 0.643968 0.254193
O O13 0.933666 0.642978 0.299948
O O14 0.000000 0.313987 0.500000
O O15 0.784604 0.321508 0.000000
#
# Coordination Sequence:
#
# PCOD8265159 Si02
#       6
#     8  16  16  16   8  16
#     4  10  16  26  44  59  71 100 139 172 202 236
#     4   9  18  31  45  60  77 100 132 166 199 236
#     4   8  15  25  40  59  77  97 131 171 204 234
#     4  11  20  29  40  57  80 106 134 166 201 237
#     4  10  20  28  33  53  82 103 130 167 201 234
#     4   9  16  28  41  56  77 102 131 167 203 237
#
# _framework density 13.779908000000001
#
# number of rings (size 3 to 8) (size 9 to 14) (size 15 to 20)
#    0.000    2.600    3.000    2.400    0.000    1.200 
#    0.000    4.000    0.000    0.000    0.000    0.000 
#    0.000    0.000    0.000    0.900    0.000   20.600 
#
# Total GULP energy -495777.586462 kJ/mol
# GULP energy per Si atom -12394.439662 kJ/mol
# Density = 1.374854 g / cm^3
# Si number density = 13.779908 Si / 1000 Ang^3
#
#
#
# Elastic Constant Matrix: (Units=GPa)
#
#
# Indices 1 2 3 4 5 6 
#
# 1 99.9550 43.6865 29.4838 0.0000 0.0000 0.0000
# 2 43.6865 78.9083 36.4255 0.0000 0.0000 0.0000
# 3 29.4838 36.4255 44.9217 0.0000 0.0000 0.0000
# 4 0.0000 0.0000 0.0000 10.6334 0.0000 0.0000
# 5 0.0000 0.0000 0.0000 0.0000 12.0019 0.0000
# 6 0.0000 0.0000 0.0000 0.0000 0.0000 23.2180
#
#
#
# Elastic Compliance Matrix: (Units=1/GPa)
#
#
# Indices 1 2 3 4 5 6 
#
# 1 0.013759 -0.005512 -0.004561 0.000000 0.000000 0.000000
# 2 -0.005512 0.022463 -0.014596 0.000000 0.000000 0.000000
# 3 -0.004561 -0.014596 0.037090 0.000000 0.000000 0.000000
# 4 0.000000 0.000000 0.000000 0.094043 0.000000 0.000000
# 5 0.000000 0.000000 0.000000 0.000000 0.083320 0.000000
# 6 0.000000 0.000000 0.000000 0.000000 0.000000 0.043070
#
#
# Mechanical properties :
#
#
# Convention : Reuss Voigt Hill
#
# Bulk Modulus (GPa) = 41.71374 49.21963 45.46669
# Shear Modulus (GPa) = 14.24197 16.78327 15.51262
#
# Velocity S-wave (km/s) = 3.21835 3.49370 3.35885
# Velocity P-wave (km/s) = 6.64436 7.21599 6.93607
#
# Compressibility (1/GPa) = 0.02397291
#
# Stress axis : x y z
#
# Youngs Moduli (GPa) = 72.67995 44.51853 26.96128
#
# Poissons Ratio (x) = 0.24539 0.12297
# Poissons Ratio (y) = 0.40061 0.39354
# Poissons Ratio (z) = 0.33149 0.64981
#
# Static dielectric constant tensor:
#      x y z
#    x 3.011910 0.000000 0.000000 
#    y 0.000000 2.546960 0.000000 
#    z 0.000000 0.000000 2.561280 
# 
# 
# High freq. dielectric constant tensor:
#      x y z
#    x 1.508150 0.000000 0.000000 
#    y 0.000000 1.498020 0.000000 
#    z 0.000000 0.000000 1.514580 
# 
# From -- ./inp_files/12101.got.cif
#   From: 2010.03.12/outbox.cif.g09.slc.cpg/sg65_7_cif.got.tgz:12101.got - 2010.04.10 20:52:16.
