data_PCOD8265092
_publ_section_title
;
Structure prediction by ZEFSAII (Michael W. Deem and Ramdas Pophale) SiO2 
 PCOD8265092
Probable space group: C M M M
;
_chemical_formula_sum "Si O2"
_cell_formula_units_Z 72
_cell_length_a 8.884959
_cell_length_b 23.443106
_cell_length_c 20.900230
_cell_angle_alpha 90.000000
_cell_angle_beta 90.000000
_cell_angle_gamma 90.000000
_cell_volume 4353.330552
_symmetry_space_group_name_H-M "C M M M"
_symmetry_group_IT_number 65
_symmetry_cell_setting 'orthorhombic'
loop_
_space_group_symop_operation_xyz
x,y,z
-x,-y,z
x,-y,-z
-x,y,-z
-x,-y,-z
x,y,-z
-x,y,z
x,-y,z
1/2+x,1/2+y,z
1/2-x,1/2-y,z
1/2+x,1/2-y,-z
1/2-x,1/2+y,-z
1/2-x,1/2-y,-z
1/2+x,1/2+y,-z
1/2-x,1/2+y,z
1/2+x,1/2-y,z
loop_
_atom_site_type_symbol
_atom_site_label
_atom_site_fract_x
_atom_site_fract_y
_atom_site_fract_z
Si Si1 0.324348 0.811293 0.123121
Si Si2 0.821785 0.000000 0.573305
Si Si3 0.821082 0.186632 0.000000
Si Si4 0.325410 0.188898 0.735946
Si Si5 0.822068 0.613622 0.380991
Si Si6 0.676279 0.189075 0.500000
O O1 0.500000 0.806132 0.106624
O O2 0.250000 0.750000 0.127915
O O3 0.240726 0.844826 0.064640
O O4 0.297499 0.838719 0.193293
O O5 0.761995 0.054169 0.611761
O O6 0.761091 0.000000 0.500000
O O7 0.000000 0.000000 0.574037
O O8 0.750000 0.250000 0.000000
O O9 0.000000 0.187839 0.000000
O O10 0.500000 0.200680 0.724680
O O11 0.250000 0.250000 0.725748
O O12 0.266740 0.142781 0.684918
O O13 0.770104 0.654787 0.437969
O O14 0.000000 0.602424 0.382128
O O15 0.500000 0.198237 0.500000
O O16 0.750000 0.250000 0.500000
#
# Coordination Sequence:
#
# PCOD8265092 Si02
#       6
#    16   8   8  16  16   8
#     4   9  15  24  37  56  84 118 152 187 222 263
#     4  11  23  37  53  73  91 114 153 200 243 277
#     4  10  16  22  34  54  80 115 156 191 220 260
#     4   9  18  30  46  68  95 125 157 189 230 279
#     4  10  20  35  52  70  92 123 156 189 232 283
#     4  10  20  31  48  71  95 122 152 184 225 272
#
# _framework density 16.539062000000001
#
# number of rings (size 3 to 8) (size 9 to 14) (size 15 to 20)
#    0.000    2.333    1.111    4.000    0.000    3.111 
#    0.000    0.000    0.000    0.000    0.000    0.000 
#    0.000    0.889    0.000   10.222    0.000    4.667 
#
# Total GULP energy -446149.579833 kJ/mol
# GULP energy per Si atom -12393.043884 kJ/mol
# Density = 1.650142 g / cm^3
# Si number density = 16.539062 Si / 1000 Ang^3
#
#
#
# Elastic Constant Matrix: (Units=GPa)
#
#
# Indices 1 2 3 4 5 6 
#
# 1 74.4856 34.2099 55.2243 0.0000 0.0000 0.0000
# 2 34.2099 90.7357 58.8364 0.0000 0.0000 0.0000
# 3 55.2243 58.8364 173.5913 0.0000 0.0000 0.0000
# 4 0.0000 0.0000 0.0000 -34.1570 0.0000 0.0000
# 5 0.0000 0.0000 0.0000 0.0000 21.0243 0.0000
# 6 0.0000 0.0000 0.0000 0.0000 0.0000 22.2797
#
#
#
# Elastic Compliance Matrix: (Units=1/GPa)
#
#
# Indices 1 2 3 4 5 6 
#
# 1 0.018682 -0.004088 -0.004558 0.000000 0.000000 0.000000
# 2 -0.004088 0.015020 -0.003790 0.000000 0.000000 0.000000
# 3 -0.004558 -0.003790 0.008495 0.000000 0.000000 0.000000
# 4 0.000000 0.000000 0.000000 -0.029277 0.000000 0.000000
# 5 0.000000 0.000000 0.000000 0.000000 0.047564 0.000000
# 6 0.000000 0.000000 0.000000 0.000000 0.000000 0.044884
#
#
# Mechanical properties :
#
#
# Convention : Reuss Voigt Hill
#
# Bulk Modulus (GPa) = 57.71978 70.59487 64.15732
# Shear Modulus (GPa) = 36.76021 14.53218 25.64620
#
# Velocity S-wave (km/s) = 4.71959 2.96743 3.94209
# Velocity P-wave (km/s) = 8.04203 7.38358 7.71983
#
# Compressibility (1/GPa) = 0.01732508
#
# Stress axis : x y z
#
# Youngs Moduli (GPa) = 53.52691 66.57701 117.71302
#
# Poissons Ratio (x) = 0.27219 0.53649
# Poissons Ratio (y) = 0.21884 0.44616
# Poissons Ratio (z) = 0.24396 0.25235
#
# Static dielectric constant tensor:
#      x y z
#    x 3.137540 0.000000 0.000000 
#    y 0.000000 2.644730 0.000000 
#    z 0.000000 0.000000 4.410060 
# 
# 
# High freq. dielectric constant tensor:
#      x y z
#    x 1.642450 0.000000 0.000000 
#    y 0.000000 1.576320 0.000000 
#    z 0.000000 0.000000 1.662480 
# 
# From -- ./inp_files/59428.got.cif
#   From: 2010.03.12/outbox.cif.g09.slc.cpg/sg65_30_cif.got.tgz:59428.got - 2010.04.10 20:52:16.
