data_PCOD8265851
_publ_section_title
;
Structure prediction by ZEFSAII (Michael W. Deem and Ramdas Pophale) SiO2 
 PCOD8265851
Probable space group: C M M M
;
_chemical_formula_sum "Si O2"
_cell_formula_units_Z 104
_cell_length_a 23.950364
_cell_length_b 26.792485
_cell_length_c 9.012489
_cell_angle_alpha 90.000000
_cell_angle_beta 90.000000
_cell_angle_gamma 90.000000
_cell_volume 5783.221977
_symmetry_space_group_name_H-M "C M M M"
_symmetry_group_IT_number 65
_symmetry_cell_setting 'orthorhombic'
loop_
_space_group_symop_operation_xyz
x,y,z
-x,-y,z
x,-y,-z
-x,y,-z
-x,-y,-z
x,y,-z
-x,y,z
x,-y,z
1/2+x,1/2+y,z
1/2-x,1/2-y,z
1/2+x,1/2-y,-z
1/2-x,1/2+y,-z
1/2-x,1/2-y,-z
1/2+x,1/2+y,-z
1/2-x,1/2+y,z
1/2+x,1/2-y,z
loop_
_atom_site_type_symbol
_atom_site_label
_atom_site_fract_x
_atom_site_fract_y
_atom_site_fract_z
Si Si1 0.762394 0.140884 0.676234
Si Si2 0.066449 0.500000 0.332856
Si Si3 0.566057 0.098528 0.830173
Si Si4 0.142610 0.674411 0.323100
Si Si5 0.562207 0.371738 0.676485
Si Si6 0.342132 0.555750 0.323309
Si Si7 0.857092 0.786925 0.323891
O O1 0.762624 0.142595 0.500000
O O2 0.699616 0.148367 0.734760
O O3 0.788383 0.087987 0.730417
O O4 0.801004 0.186171 0.735739
O O5 0.090296 0.500000 0.500000
O O6 0.089106 0.451316 0.248680
O O7 0.000000 0.500000 0.333344
O O8 0.500000 0.102171 0.815969
O O9 0.590639 0.146318 0.748006
O O10 0.585465 0.097187 0.000000
O O11 0.137659 0.672404 0.500000
O O12 0.140035 0.730923 0.261518
O O13 0.559420 0.373005 0.500000
O O14 0.500000 0.376849 0.744704
O O15 0.600943 0.417492 0.732616
O O16 0.589110 0.319051 0.728271
O O17 0.342723 0.553378 0.500000
O O18 0.338584 0.500000 0.255408
O O19 0.854832 0.784960 0.500000
#
# Coordination Sequence:
#
# PCOD8265851 Si02
#       7
#    16   8  16  16  16  16  16
#     4   8  14  25  39  58  84 116 153 194 241 284
#     4   9  17  33  57  77  91 113 151 193 224 261
#     4  10  21  36  51  68  96 130 154 180 232 293
#     4  10  18  28  46  71  91 115 157 202 234 269
#     4   8  13  20  30  48  75 108 147 186 225 273
#     4   8  13  21  32  47  74 111 144 179 228 280
#     4   8  14  24  39  58  85 118 151 193 243 283
#
# _framework density 17.983056000000001
#
# number of rings (size 3 to 8) (size 9 to 14) (size 15 to 20)
#    0.000    3.308    0.000    3.000    0.000    4.615 
#    1.385    3.077    0.000    1.846    0.000    0.000 
#    0.000    0.000    0.000    0.000    0.000    0.308 
#
# Total GULP energy -644457.872695 kJ/mol
# GULP energy per Si atom -12393.420629 kJ/mol
# Density = 1.794213 g / cm^3
# Si number density = 17.983056 Si / 1000 Ang^3
#
#
#
# Elastic Constant Matrix: (Units=GPa)
#
#
# Indices 1 2 3 4 5 6 
#
# 1 66.4914 58.7440 16.4961 0.0000 0.0000 0.0000
# 2 58.7440 171.0915 29.4766 0.0000 0.0000 0.0000
# 3 16.4961 29.4766 33.2882 0.0000 0.0000 0.0000
# 4 0.0000 0.0000 0.0000 5.2523 0.0000 0.0000
# 5 0.0000 0.0000 0.0000 0.0000 7.5263 0.0000
# 6 0.0000 0.0000 0.0000 0.0000 0.0000 21.1560
#
#
#
# Elastic Compliance Matrix: (Units=1/GPa)
#
#
# Indices 1 2 3 4 5 6 
#
# 1 0.022281 -0.006783 -0.005036 0.000000 0.000000 0.000000
# 2 -0.006783 0.008962 -0.004574 0.000000 0.000000 0.000000
# 3 -0.005036 -0.004574 0.036587 0.000000 0.000000 0.000000
# 4 0.000000 0.000000 0.000000 0.190393 0.000000 0.000000
# 5 0.000000 0.000000 0.000000 0.000000 0.132868 0.000000
# 6 0.000000 0.000000 0.000000 0.000000 0.000000 0.047268
#
#
# Mechanical properties :
#
#
# Convention : Reuss Voigt Hill
#
# Bulk Modulus (GPa) = 28.53520 53.36717 40.95119
# Shear Modulus (GPa) = 10.35571 17.86387 14.10979
#
# Velocity S-wave (km/s) = 2.40231 3.15520 2.80414
# Velocity P-wave (km/s) = 4.85768 6.55854 5.77112
#
# Compressibility (1/GPa) = 0.03504443
#
# Stress axis : x y z
#
# Youngs Moduli (GPa) = 44.88095 111.58534 27.33232
#
# Poissons Ratio (x) = 0.75684 0.13763
# Poissons Ratio (y) = 0.30441 0.12503
# Poissons Ratio (z) = 0.22600 0.51044
#
# Static dielectric constant tensor:
#      x y z
#    x 3.453630 0.000000 0.000000 
#    y 0.000000 3.660080 0.000000 
#    z 0.000000 0.000000 2.690340 
# 
# 
# High freq. dielectric constant tensor:
#      x y z
#    x 1.691620 0.000000 0.000000 
#    y 0.000000 1.707670 0.000000 
#    z 0.000000 0.000000 1.625380 
# 
# From -- ./inp_files/16779.got.cif
#   From: 2010.03.12/outbox.cif.g09.slc.cpg/sg65_9_cif.got.tgz:16779.got - 2010.04.10 20:52:16.
