data_PCOD8265306
_publ_section_title
;
Structure prediction by ZEFSAII (Michael W. Deem and Ramdas Pophale) SiO2 
 PCOD8265306
Probable space group: C M M M
;
_chemical_formula_sum "Si O2"
_cell_formula_units_Z 120
_cell_length_a 24.662834
_cell_length_b 23.062321
_cell_length_c 14.066178
_cell_angle_alpha 90.000000
_cell_angle_beta 90.000000
_cell_angle_gamma 90.000000
_cell_volume 8000.591591
_symmetry_space_group_name_H-M "C M M M"
_symmetry_group_IT_number 65
_symmetry_cell_setting 'orthorhombic'
loop_
_space_group_symop_operation_xyz
x,y,z
-x,-y,z
x,-y,-z
-x,y,-z
-x,-y,-z
x,y,-z
-x,y,z
x,-y,z
1/2+x,1/2+y,z
1/2-x,1/2-y,z
1/2+x,1/2-y,-z
1/2-x,1/2+y,-z
1/2-x,1/2-y,-z
1/2+x,1/2+y,-z
1/2-x,1/2+y,z
1/2+x,1/2-y,z
loop_
_atom_site_type_symbol
_atom_site_label
_atom_site_fract_x
_atom_site_fract_y
_atom_site_fract_z
Si Si1 0.343712 0.568525 0.708219
Si Si2 0.830894 0.277496 0.611384
Si Si3 0.500000 0.435547 0.887219
Si Si4 0.439300 0.729626 0.102260
Si Si5 0.774541 0.160090 0.387614
Si Si6 0.938824 0.134590 0.610315
Si Si7 0.112008 0.887479 0.892476
Si Si8 0.440009 0.238675 0.694543
O O1 0.335584 0.500000 0.698511
O O2 0.292009 0.600575 0.662389
O O3 0.398084 0.587196 0.652676
O O4 0.343855 0.587253 0.819664
O O5 0.829699 0.282497 0.500000
O O6 0.816739 0.211308 0.640819
O O7 0.785186 0.321694 0.650497
O O8 0.890715 0.296438 0.646943
O O9 0.500000 0.500000 0.847807
O O10 0.554456 0.406882 0.848413
O O11 0.500000 0.431776 0.000000
O O12 0.500000 0.700761 0.105670
O O13 0.391496 0.682026 0.106847
O O14 0.433514 0.771972 0.192054
O O15 0.433096 0.762615 0.000000
O O16 0.774382 0.150399 0.500000
O O17 0.923900 0.147400 0.500000
O O18 0.933660 0.193772 0.669565
O O19 0.000000 0.110031 0.618441
O O20 0.123372 0.910969 0.000000
O O21 0.500000 0.216719 0.660937
#
# Coordination Sequence:
#
# PCOD8265306 Si02
#       8
#    16  16   8  16  16  16  16  16
#     4  12  23  31  43  60  82 113 147 181 217 256
#     4   9  16  29  49  65  81 107 141 180 215 254
#     4   9  16  24  34  48  67  95 135 183 220 238
#     4   9  15  24  39  58  83 114 145 175 207 247
#     4   9  18  32  47  62  79 107 148 183 213 248
#     4  10  20  31  40  55  83 113 140 170 206 250
#     4  10  18  29  41  54  75 106 147 188 216 244
#     4  10  17  26  44  68  90 111 135 171 221 264
#
# _framework density 14.998889999999999
#
# number of rings (size 3 to 8) (size 9 to 14) (size 15 to 20)
#    0.000    2.200    3.333    2.000    0.933    2.933 
#    0.000    0.667    0.000    0.800    0.000    3.733 
#    0.000    0.533    0.000    2.933    0.000    0.000 
#
# Total GULP energy -743436.766553 kJ/mol
# GULP energy per Si atom -12390.612776 kJ/mol
# Density = 1.496475 g / cm^3
# Si number density = 14.998890 Si / 1000 Ang^3
#
#
#
# Elastic Constant Matrix: (Units=GPa)
#
#
# Indices 1 2 3 4 5 6 
#
# 1 93.4646 26.6136 28.1276 0.0000 0.0000 0.0000
# 2 26.6136 30.0707 17.7516 0.0000 0.0000 0.0000
# 3 28.1276 17.7516 60.5484 0.0000 0.0000 0.0000
# 4 0.0000 0.0000 0.0000 11.2866 0.0000 0.0000
# 5 0.0000 0.0000 0.0000 0.0000 17.9899 0.0000
# 6 0.0000 0.0000 0.0000 0.0000 0.0000 17.4888
#
#
#
# Elastic Compliance Matrix: (Units=1/GPa)
#
#
# Indices 1 2 3 4 5 6 
#
# 1 0.014963 -0.011052 -0.003711 0.000000 0.000000 0.000000
# 2 -0.011052 0.048379 -0.009049 0.000000 0.000000 0.000000
# 3 -0.003711 -0.009049 0.020893 0.000000 0.000000 0.000000
# 4 0.000000 0.000000 0.000000 0.088601 0.000000 0.000000
# 5 0.000000 0.000000 0.000000 0.000000 0.055587 0.000000
# 6 0.000000 0.000000 0.000000 0.000000 0.000000 0.057179
#
#
# Mechanical properties :
#
#
# Convention : Reuss Voigt Hill
#
# Bulk Modulus (GPa) = 27.31521 36.56325 31.93923
# Shear Modulus (GPa) = 14.47474 16.79246 15.63360
#
# Velocity S-wave (km/s) = 3.10990 3.34964 3.23200
# Velocity P-wave (km/s) = 5.58089 6.27617 5.93872
#
# Compressibility (1/GPa) = 0.03660964
#
# Stress axis : x y z
#
# Youngs Moduli (GPa) = 66.83124 20.67022 47.86377
#
# Poissons Ratio (x) = 0.22845 0.17761
# Poissons Ratio (y) = 0.73864 0.43314
# Poissons Ratio (z) = 0.24799 0.18705
#
# Static dielectric constant tensor:
#      x y z
#    x 2.965330 0.000000 0.000000 
#    y 0.000000 2.404060 0.000000 
#    z 0.000000 0.000000 3.046500 
# 
# 
# High freq. dielectric constant tensor:
#      x y z
#    x 1.553420 0.000000 0.000000 
#    y 0.000000 1.505890 0.000000 
#    z 0.000000 0.000000 1.584910 
# 
# From -- ./inp_files/46090.got.cif
#   From: 2010.03.12/outbox.cif.g09.slc.cpg/sg65_24_cif.got.tgz:46090.got - 2010.04.10 20:52:16.
