data_PCOD8265445
_publ_section_title
;
Structure prediction by ZEFSAII (Michael W. Deem and Ramdas Pophale) SiO2 
 PCOD8265445
Probable space group: C M M M
;
_chemical_formula_sum "Si O2"
_cell_formula_units_Z 104
_cell_length_a 17.021407
_cell_length_b 28.110358
_cell_length_c 11.928406
_cell_angle_alpha 90.000000
_cell_angle_beta 90.000000
_cell_angle_gamma 90.000000
_cell_volume 5707.477990
_symmetry_space_group_name_H-M "C M M M"
_symmetry_group_IT_number 65
_symmetry_cell_setting 'orthorhombic'
loop_
_space_group_symop_operation_xyz
x,y,z
-x,-y,z
x,-y,-z
-x,y,-z
-x,-y,-z
x,y,-z
-x,y,z
x,-y,z
1/2+x,1/2+y,z
1/2-x,1/2-y,z
1/2+x,1/2-y,-z
1/2-x,1/2+y,-z
1/2-x,1/2-y,-z
1/2+x,1/2+y,-z
1/2-x,1/2+y,z
1/2+x,1/2-y,z
loop_
_atom_site_type_symbol
_atom_site_label
_atom_site_fract_x
_atom_site_fract_y
_atom_site_fract_z
Si Si1 0.500000 0.946398 0.633165
Si Si2 0.093453 0.691751 0.774672
Si Si3 0.909878 0.106705 0.868019
Si Si4 0.593086 0.712614 0.124089
Si Si5 0.348348 0.888584 0.367378
Si Si6 0.672441 0.052646 0.000000
Si Si7 0.230947 0.945387 0.224215
Si Si8 0.410381 0.145280 0.000000
O O1 0.500000 0.947402 0.500000
O O2 0.577401 0.919459 0.676977
O O3 0.500000 0.000000 0.681989
O O4 0.118185 0.747476 0.784324
O O5 0.138969 0.665913 0.673045
O O6 0.000000 0.685874 0.757658
O O7 0.126366 0.667240 0.887832
O O8 0.878845 0.160119 0.839542
O O9 0.859011 0.070333 0.794314
O O10 0.000000 0.099856 0.831226
O O11 0.900560 0.096481 0.000000
O O12 0.500000 0.711679 0.114081
O O13 0.626557 0.725545 0.000000
O O14 0.341650 0.888268 0.500000
O O15 0.270038 0.912462 0.318943
O O16 0.725524 0.061989 0.892601
O O17 0.599807 0.088589 0.000000
O O18 0.636180 0.000000 0.000000
O O19 0.232923 0.000000 0.264711
O O20 0.500000 0.160180 0.000000
#
# Coordination Sequence:
#
# PCOD8265445 Si02
#       8
#     8  16  16  16  16   8  16   8
#     4   9  18  34  52  71  97 131 185 240 264 289
#     4  10  17  29  51  77 108 143 178 221 264 313
#     4   9  18  34  58  86 112 135 170 219 271 336
#     4   8  14  27  50  81 110 138 171 213 267 326
#     4  11  22  35  53  77 105 146 194 233 264 303
#     4  10  20  33  46  69 105 144 174 210 269 325
#     4  11  22  36  54  76 110 145 173 217 278 331
#     4  10  18  29  47  72 102 145 184 212 254 316
#
# _framework density 18.221706999999999
#
# number of rings (size 3 to 8) (size 9 to 14) (size 15 to 20)
#    0.000    2.231    3.846    1.385    0.000    1.385 
#    0.000    1.538    0.000    5.077    0.000    3.231 
#    0.000    0.000    0.000    0.000    0.000    0.000 
#
# Total GULP energy -644596.581412 kJ/mol
# GULP energy per Si atom -12396.088104 kJ/mol
# Density = 1.818023 g / cm^3
# Si number density = 18.221707 Si / 1000 Ang^3
#
#
#
# Elastic Constant Matrix: (Units=GPa)
#
#
# Indices 1 2 3 4 5 6 
#
# 1 57.7467 23.3217 24.1736 0.0000 0.0000 0.0000
# 2 23.3217 68.9926 22.3193 0.0000 0.0000 0.0000
# 3 24.1736 22.3193 70.0846 0.0000 0.0000 0.0000
# 4 0.0000 0.0000 0.0000 16.1478 0.0000 0.0000
# 5 0.0000 0.0000 0.0000 0.0000 19.7871 0.0000
# 6 0.0000 0.0000 0.0000 0.0000 0.0000 26.2228
#
#
#
# Elastic Compliance Matrix: (Units=1/GPa)
#
#
# Indices 1 2 3 4 5 6 
#
# 1 0.021995 -0.005553 -0.005818 0.000000 0.000000 0.000000
# 2 -0.005553 0.017561 -0.003677 0.000000 0.000000 0.000000
# 3 -0.005818 -0.003677 0.017446 0.000000 0.000000 0.000000
# 4 0.000000 0.000000 0.000000 0.061928 0.000000 0.000000
# 5 0.000000 0.000000 0.000000 0.000000 0.050538 0.000000
# 6 0.000000 0.000000 0.000000 0.000000 0.000000 0.038135
#
#
# Mechanical properties :
#
#
# Convention : Reuss Voigt Hill
#
# Bulk Modulus (GPa) = 37.16654 37.38367 37.27511
# Shear Modulus (GPa) = 20.27013 20.89882 20.58447
#
# Velocity S-wave (km/s) = 3.33891 3.39029 3.36470
# Velocity P-wave (km/s) = 5.94185 5.99049 5.96622
#
# Compressibility (1/GPa) = 0.02690592
#
# Stress axis : x y z
#
# Youngs Moduli (GPa) = 45.46450 56.94460 57.31869
#
# Poissons Ratio (x) = 0.31621 0.33349
# Poissons Ratio (y) = 0.25246 0.21077
# Poissons Ratio (z) = 0.26452 0.20940
#
# Static dielectric constant tensor:
#      x y z
#    x 3.071560 0.000000 0.000000 
#    y 0.000000 3.605310 0.000000 
#    z 0.000000 0.000000 3.071080 
# 
# 
# High freq. dielectric constant tensor:
#      x y z
#    x 1.677310 0.000000 0.000000 
#    y 0.000000 1.716480 0.000000 
#    z 0.000000 0.000000 1.670760 
# 
# From -- ./inp_files/27526.got.cif
#   From: 2010.03.12/outbox.cif.g09.slc.cpg/sg65_14_cif.got.tgz:27526.got - 2010.04.10 20:52:16.
