data_PCOD8265523
_publ_section_title
;
Structure prediction by ZEFSAII (Michael W. Deem and Ramdas Pophale) SiO2 
 PCOD8265523
Probable space group: C M M M
;
_chemical_formula_sum "Si O2"
_cell_formula_units_Z 128
_cell_length_a 19.064875
_cell_length_b 21.082701
_cell_length_c 18.488790
_cell_angle_alpha 90.000000
_cell_angle_beta 90.000000
_cell_angle_gamma 90.000000
_cell_volume 7431.366859
_symmetry_space_group_name_H-M "C M M M"
_symmetry_group_IT_number 65
_symmetry_cell_setting 'orthorhombic'
loop_
_space_group_symop_operation_xyz
x,y,z
-x,-y,z
x,-y,-z
-x,y,-z
-x,-y,-z
x,y,-z
-x,y,z
x,-y,z
1/2+x,1/2+y,z
1/2-x,1/2-y,z
1/2+x,1/2-y,-z
1/2-x,1/2+y,-z
1/2-x,1/2-y,-z
1/2+x,1/2+y,-z
1/2-x,1/2+y,z
1/2+x,1/2-y,z
loop_
_atom_site_type_symbol
_atom_site_label
_atom_site_fract_x
_atom_site_fract_y
_atom_site_fract_z
Si Si1 0.653394 0.363421 0.582925
Si Si2 0.080261 0.742454 0.353444
Si Si3 0.716925 0.179834 0.820312
Si Si4 0.787474 0.927677 0.917068
Si Si5 0.923015 0.260620 0.185737
Si Si6 0.420066 0.377199 0.854218
Si Si7 0.077680 0.927458 0.296234
Si Si8 0.217457 0.680958 0.657749
O O1 0.644291 0.382687 0.500000
O O2 0.607237 0.301008 0.598928
O O3 0.625026 0.419529 0.633054
O O4 0.736568 0.357994 0.600109
O O5 0.085826 0.761446 0.269204
O O6 0.135059 0.683926 0.366406
O O7 0.000000 0.723827 0.374895
O O8 0.750000 0.250000 0.832454
O O9 0.746171 0.125519 0.872108
O O10 0.633945 0.187075 0.836634
O O11 0.726618 0.153805 0.738785
O O12 0.870631 0.913316 0.910924
O O13 0.771916 0.000000 0.890403
O O14 0.764754 0.920872 0.000000
O O15 0.914393 0.198518 0.135590
O O16 0.000000 0.290924 0.174106
O O17 0.500000 0.401154 0.864710
O O18 0.391444 0.391660 0.773505
O O19 0.000000 0.900301 0.313296
O O20 0.074322 0.000000 0.274714
O O21 0.250000 0.750000 0.659143
#
# Coordination Sequence:
#
# PCOD8265523 Si02
#       8
#    16  16  16  16  16  16  16  16
#     4  11  20  29  41  60  94 134 167 202 245 290
#     4   9  16  28  45  66  92 121 153 196 250 298
#     4  10  17  33  57  76  96 131 172 212 254 297
#     4  11  24  37  50  74 107 139 170 205 248 299
#     4   9  16  29  53  80 101 121 161 216 256 294
#     4  10  18  33  54  75 101 132 167 207 251 300
#     4  10  20  32  47  67  91 126 172 211 240 280
#     4   8  17  29  46  68  92 119 159 205 245 293
#
# _framework density 17.224287
#
# number of rings (size 3 to 8) (size 9 to 14) (size 15 to 20)
#    0.000    2.250    2.500    2.250    0.000    4.750 
#    0.000    1.250    0.000    0.750    0.000    0.875 
#    0.000    1.500    0.000    1.125    0.000    0.000 
#
# Total GULP energy -793093.922819 kJ/mol
# GULP energy per Si atom -12392.092544 kJ/mol
# Density = 1.718508 g / cm^3
# Si number density = 17.224287 Si / 1000 Ang^3
#
#
#
# Elastic Constant Matrix: (Units=GPa)
#
#
# Indices 1 2 3 4 5 6 
#
# 1 113.1425 25.1402 22.4434 0.0000 0.0000 0.0000
# 2 25.1402 46.7221 19.8345 0.0000 0.0000 0.0000
# 3 22.4434 19.8345 50.6972 0.0000 0.0000 0.0000
# 4 0.0000 0.0000 0.0000 16.5428 0.0000 0.0000
# 5 0.0000 0.0000 0.0000 0.0000 13.9567 0.0000
# 6 0.0000 0.0000 0.0000 0.0000 0.0000 20.3305
#
#
#
# Elastic Compliance Matrix: (Units=1/GPa)
#
#
# Indices 1 2 3 4 5 6 
#
# 1 0.010380 -0.004358 -0.002890 0.000000 0.000000 0.000000
# 2 -0.004358 0.027496 -0.008828 0.000000 0.000000 0.000000
# 3 -0.002890 -0.008828 0.024458 0.000000 0.000000 0.000000
# 4 0.000000 0.000000 0.000000 0.060449 0.000000 0.000000
# 5 0.000000 0.000000 0.000000 0.000000 0.071650 0.000000
# 6 0.000000 0.000000 0.000000 0.000000 0.000000 0.049187
#
#
# Mechanical properties :
#
#
# Convention : Reuss Voigt Hill
#
# Bulk Modulus (GPa) = 33.13297 38.37756 35.75527
# Shear Modulus (GPa) = 17.49265 19.70890 18.60078
#
# Velocity S-wave (km/s) = 3.19027 3.38635 3.28977
# Velocity P-wave (km/s) = 5.73135 6.13345 5.93581
#
# Compressibility (1/GPa) = 0.03018142
#
# Stress axis : x y z
#
# Youngs Moduli (GPa) = 96.33785 36.36900 40.88612
#
# Poissons Ratio (x) = 0.15851 0.11816
# Poissons Ratio (y) = 0.41988 0.36094
# Poissons Ratio (z) = 0.27842 0.32106
#
# Static dielectric constant tensor:
#      x y z
#    x 3.684720 0.000000 0.000000 
#    y 0.000000 2.873630 0.000000 
#    z 0.000000 0.000000 3.002740 
# 
# 
# High freq. dielectric constant tensor:
#      x y z
#    x 1.672310 0.000000 0.000000 
#    y 0.000000 1.621750 0.000000 
#    z 0.000000 0.000000 1.644610 
# 
# From -- ./inp_files/56261.got.cif
#   From: 2010.03.12/outbox.cif.g09.slc.cpg/sg65_29_cif.got.tgz:56261.got - 2010.04.10 20:52:16.
