data_PCOD8265678
_publ_section_title
;
Structure prediction by ZEFSAII (Michael W. Deem and Ramdas Pophale) SiO2 
 PCOD8265678
Probable space group: C M M M
;
_chemical_formula_sum "Si O2"
_cell_formula_units_Z 88
_cell_length_a 30.078802
_cell_length_b 19.923633
_cell_length_c 7.887592
_cell_angle_alpha 90.000000
_cell_angle_beta 90.000000
_cell_angle_gamma 90.000000
_cell_volume 4726.868342
_symmetry_space_group_name_H-M "C M M M"
_symmetry_group_IT_number 65
_symmetry_cell_setting 'orthorhombic'
loop_
_space_group_symop_operation_xyz
x,y,z
-x,-y,z
x,-y,-z
-x,y,-z
-x,-y,-z
x,y,-z
-x,y,z
x,-y,z
1/2+x,1/2+y,z
1/2-x,1/2-y,z
1/2+x,1/2-y,-z
1/2-x,1/2+y,-z
1/2-x,1/2-y,-z
1/2+x,1/2+y,-z
1/2-x,1/2+y,z
1/2+x,1/2-y,z
loop_
_atom_site_type_symbol
_atom_site_label
_atom_site_fract_x
_atom_site_fract_y
_atom_site_fract_z
Si Si1 0.420764 0.136960 0.806128
Si Si2 0.096806 0.883702 0.809171
Si Si3 0.203047 0.213281 0.500000
Si Si4 0.500000 0.226327 0.797122
Si Si5 0.951338 0.500000 0.691366
Si Si6 0.500000 0.625330 0.692317
Si Si7 0.341908 0.575262 0.500000
Si Si8 0.144306 0.749173 0.810506
O O1 0.458405 0.184225 0.728376
O O2 0.373897 0.174168 0.778861
O O3 0.420271 0.063761 0.725899
O O4 0.432543 0.126460 0.000000
O O5 0.127736 0.918537 0.668389
O O6 0.104109 0.803178 0.794408
O O7 0.044954 0.901818 0.781222
O O8 0.109860 0.908086 0.000000
O O9 0.250000 0.250000 0.500000
O O10 0.198044 0.131219 0.500000
O O11 0.181321 0.238800 0.328050
O O12 0.500000 0.295012 0.696330
O O13 0.500000 0.240259 0.000000
O O14 0.964669 0.500000 0.500000
O O15 0.000000 0.500000 0.788577
O O16 0.500000 0.599711 0.500000
O O17 0.321071 0.500000 0.500000
O O18 0.165131 0.754190 0.000000
#
# Coordination Sequence:
#
# PCOD8265678 Si02
#       8
#    16  16   8   8   8   8   8  16
#     4  10  19  32  48  68 100 145 191 236 280 324
#     4  10  19  34  54  82 117 154 195 235 276 318
#     4  10  22  40  67  93 113 141 173 220 290 354
#     4  10  18  27  45  70 100 142 191 241 282 319
#     4  11  23  31  39  65 105 151 201 243 275 321
#     4  12  20  28  47  79 116 154 195 243 279 312
#     4  10  22  41  62  88 117 144 186 231 272 336
#     4   9  19  34  57  86 112 140 183 235 283 335
#
# _framework density 18.616978
#
# number of rings (size 3 to 8) (size 9 to 14) (size 15 to 20)
#    0.000    1.909    3.636    1.091    1.273    1.818 
#    0.000    0.909    2.000    1.091    0.000    0.000 
#    0.000    0.000    0.000    0.000    0.000    0.000 
#
# Total GULP energy -545211.300192 kJ/mol
# GULP energy per Si atom -12391.165913 kJ/mol
# Density = 1.857460 g / cm^3
# Si number density = 18.616978 Si / 1000 Ang^3
#
#
#
# Elastic Constant Matrix: (Units=GPa)
#
#
# Indices 1 2 3 4 5 6 
#
# 1 85.8981 31.4685 43.9801 0.0000 0.0000 0.0000
# 2 31.4685 108.4250 35.7881 0.0000 0.0000 0.0000
# 3 43.9801 35.7881 112.9703 0.0000 0.0000 0.0000
# 4 0.0000 0.0000 0.0000 18.0395 0.0000 0.0000
# 5 0.0000 0.0000 0.0000 0.0000 17.9480 0.0000
# 6 0.0000 0.0000 0.0000 0.0000 0.0000 16.9285
#
#
#
# Elastic Compliance Matrix: (Units=1/GPa)
#
#
# Indices 1 2 3 4 5 6 
#
# 1 0.015242 -0.002753 -0.005062 0.000000 0.000000 0.000000
# 2 -0.002753 0.010797 -0.002349 0.000000 0.000000 0.000000
# 3 -0.005062 -0.002349 0.011566 0.000000 0.000000 0.000000
# 4 0.000000 0.000000 0.000000 0.055434 0.000000 0.000000
# 5 0.000000 0.000000 0.000000 0.000000 0.055717 0.000000
# 6 0.000000 0.000000 0.000000 0.000000 0.000000 0.059072
#
#
# Mechanical properties :
#
#
# Convention : Reuss Voigt Hill
#
# Bulk Modulus (GPa) = 57.87420 58.86300 58.36860
# Shear Modulus (GPa) = 21.37534 23.65364 22.51449
#
# Velocity S-wave (km/s) = 3.39213 3.56833 3.48135
# Velocity P-wave (km/s) = 6.81882 6.97595 6.89783
#
# Compressibility (1/GPa) = 0.01727886
#
# Stress axis : x y z
#
# Youngs Moduli (GPa) = 65.60904 92.61652 86.45684
#
# Poissons Ratio (x) = 0.25497 0.43761
# Poissons Ratio (y) = 0.18062 0.20306
# Poissons Ratio (z) = 0.33209 0.21753
#
# Static dielectric constant tensor:
#      x y z
#    x 2.958860 0.000000 0.000000 
#    y 0.000000 3.346780 0.000000 
#    z 0.000000 0.000000 3.559540 
# 
# 
# High freq. dielectric constant tensor:
#      x y z
#    x 1.669300 0.000000 0.000000 
#    y 0.000000 1.715770 0.000000 
#    z 0.000000 0.000000 1.736120 
# 
# From -- ./inp_files/14122.got.cif
#   From: 2010.03.12/outbox.cif.g09.slc.cpg/sg65_8_cif.got.tgz:14122.got - 2010.04.10 20:52:16.
