data_PCOD8265114
_publ_section_title
;
Structure prediction by ZEFSAII (Michael W. Deem and Ramdas Pophale) SiO2 
 PCOD8265114
Probable space group: C M M M
;
_chemical_formula_sum "Si O2"
_cell_formula_units_Z 80
_cell_length_a 18.100805
_cell_length_b 8.747860
_cell_length_c 25.974528
_cell_angle_alpha 90.000000
_cell_angle_beta 90.000000
_cell_angle_gamma 90.000000
_cell_volume 4112.892688
_symmetry_space_group_name_H-M "C M M M"
_symmetry_group_IT_number 65
_symmetry_cell_setting 'orthorhombic'
loop_
_space_group_symop_operation_xyz
x,y,z
-x,-y,z
x,-y,-z
-x,y,-z
-x,-y,-z
x,y,-z
-x,y,z
x,-y,z
1/2+x,1/2+y,z
1/2-x,1/2-y,z
1/2+x,1/2-y,-z
1/2-x,1/2+y,-z
1/2-x,1/2-y,-z
1/2+x,1/2+y,-z
1/2-x,1/2+y,z
1/2+x,1/2-y,z
loop_
_atom_site_type_symbol
_atom_site_label
_atom_site_fract_x
_atom_site_fract_y
_atom_site_fract_z
Si Si1 0.913741 0.322371 0.194373
Si Si2 0.917060 0.818072 0.000000
Si Si3 0.332432 0.819704 0.500000
Si Si4 0.170510 0.176301 0.599642
Si Si5 0.169064 0.178142 0.286362
Si Si6 0.169489 0.180616 0.900330
O O1 0.894588 0.500000 0.188418
O O2 0.887863 0.264180 0.249792
O O3 0.871753 0.228028 0.151162
O O4 0.000000 0.290014 0.188682
O O5 0.875460 0.756228 0.050536
O O6 0.000000 0.751297 0.000000
O O7 0.919103 0.000000 0.000000
O O8 0.250000 0.750000 0.500000
O O9 0.373045 0.759775 0.447601
O O10 0.331224 0.000000 0.500000
O O11 0.250000 0.250000 0.604435
O O12 0.134435 0.198231 0.656044
O O13 0.178255 0.000000 0.584956
O O14 0.250000 0.250000 0.280519
O O15 0.175017 0.000000 0.271795
O O16 0.250000 0.250000 0.901523
O O17 0.176205 0.000000 0.902084
#
# Coordination Sequence:
#
# PCOD8265114 Si02
#       6
#    16   8   8  16  16  16
#     4  11  24  40  57  79 108 141 179 224 273 325
#     4   9  19  36  59  87 116 149 188 227 268 314
#     4  10  16  22  36  60  93 132 169 208 257 311
#     4   9  16  26  41  64  95 130 168 211 259 311
#     4  10  20  34  54  78 105 139 178 221 269 322
#     4  11  22  38  61  86 115 148 184 226 269 319
#
# _framework density 19.451031
#
# number of rings (size 3 to 8) (size 9 to 14) (size 15 to 20)
#    0.000    1.900    0.000    6.000    0.000    4.800 
#    0.000    1.500    0.000    3.600    0.000    0.700 
#    0.000    5.600    0.000    0.000    0.000    0.000 
#
# Total GULP energy -495870.102468 kJ/mol
# GULP energy per Si atom -12396.752562 kJ/mol
# Density = 1.940676 g / cm^3
# Si number density = 19.451031 Si / 1000 Ang^3
#
#
#
# Elastic Constant Matrix: (Units=GPa)
#
#
# Indices 1 2 3 4 5 6 
#
# 1 87.2247 40.2946 54.0448 0.0000 0.0000 0.0000
# 2 40.2946 105.6628 49.2623 0.0000 0.0000 0.0000
# 3 54.0448 49.2623 157.2620 0.0000 0.0000 0.0000
# 4 0.0000 0.0000 0.0000 -62.4592 0.0000 0.0000
# 5 0.0000 0.0000 0.0000 0.0000 6.9715 0.0000
# 6 0.0000 0.0000 0.0000 0.0000 0.0000 -4.3659
#
#
#
# Elastic Compliance Matrix: (Units=1/GPa)
#
#
# Indices 1 2 3 4 5 6 
#
# 1 0.015974 -0.004136 -0.004194 0.000000 0.000000 0.000000
# 2 -0.004136 0.012154 -0.002386 0.000000 0.000000 0.000000
# 3 -0.004194 -0.002386 0.008547 0.000000 0.000000 0.000000
# 4 0.000000 0.000000 0.000000 -0.016010 0.000000 0.000000
# 5 0.000000 0.000000 0.000000 0.000000 0.143442 0.000000
# 6 0.000000 0.000000 0.000000 0.000000 0.000000 -0.229048
#
#
# Mechanical properties :
#
#
# Convention : Reuss Voigt Hill
#
# Bulk Modulus (GPa) = 65.60282 70.81700 68.20991
# Shear Modulus (GPa) = -130.11105 1.79914 -64.15596
#
# Velocity S-wave (km/s) = -8.18760 0.96279 -5.74934
# Velocity P-wave (km/s) = 7.45534 6.14189 2.98824
#
# Compressibility (1/GPa) = 0.01524325
#
# Stress axis : x y z
#
# Youngs Moduli (GPa) = 62.60132 82.27922 116.99464
#
# Poissons Ratio (x) = 0.34034 0.49067
# Poissons Ratio (y) = 0.25895 0.27911
# Poissons Ratio (z) = 0.26255 0.19629
#
# Static dielectric constant tensor:
#      x y z
#    x 3.218610 0.000000 0.000000 
#    y 0.000000 3.588610 0.000000 
#    z 0.000000 0.000000 4.532080 
# 
# 
# High freq. dielectric constant tensor:
#      x y z
#    x 1.713750 0.000000 0.000000 
#    y 0.000000 1.765880 0.000000 
#    z 0.000000 0.000000 1.788840 
# 
# From -- ./inp_files/70811.got.cif
#   From: 2010.03.12/outbox.cif.g09.slc.cpg/sg65_36_cif.got.tgz:70811.got - 2010.04.10 20:52:16.
