data_PCOD8265502
_publ_section_title
;
Structure prediction by ZEFSAII (Michael W. Deem and Ramdas Pophale) SiO2 
 PCOD8265502
Probable space group: C M M M
;
_chemical_formula_sum "Si O2"
_cell_formula_units_Z 104
_cell_length_a 17.816232
_cell_length_b 18.279570
_cell_length_c 17.837414
_cell_angle_alpha 90.000000
_cell_angle_beta 90.000000
_cell_angle_gamma 90.000000
_cell_volume 5809.165200
_symmetry_space_group_name_H-M "C M M M"
_symmetry_group_IT_number 65
_symmetry_cell_setting 'orthorhombic'
loop_
_space_group_symop_operation_xyz
x,y,z
-x,-y,z
x,-y,-z
-x,y,-z
-x,-y,-z
x,y,-z
-x,y,z
x,-y,z
1/2+x,1/2+y,z
1/2-x,1/2-y,z
1/2+x,1/2-y,-z
1/2-x,1/2+y,-z
1/2-x,1/2-y,-z
1/2+x,1/2+y,-z
1/2-x,1/2+y,z
1/2+x,1/2-y,z
loop_
_atom_site_type_symbol
_atom_site_label
_atom_site_fract_x
_atom_site_fract_y
_atom_site_fract_z
Si Si1 0.273650 0.834484 0.415503
Si Si2 0.187812 0.808427 0.176442
Si Si3 0.500000 0.417503 0.416899
Si Si4 0.292201 0.915761 0.911532
Si Si5 0.631512 0.649898 0.667902
Si Si6 0.086111 0.317166 0.154789
Si Si7 0.083991 0.687507 0.331532
O O1 0.278546 0.862404 0.500000
O O2 0.250000 0.750000 0.410283
O O3 0.207719 0.875853 0.372437
O O4 0.352544 0.856698 0.376683
O O5 0.250000 0.750000 0.208232
O O6 0.224384 0.867859 0.121963
O O7 0.147233 0.852444 0.243140
O O8 0.125646 0.759953 0.132009
O O9 0.500000 0.500000 0.440206
O O10 0.500000 0.376043 0.500000
O O11 0.570549 0.405259 0.362886
O O12 0.372542 0.885054 0.884562
O O13 0.284772 0.000000 0.885469
O O14 0.287140 0.909040 0.000000
O O15 0.598445 0.728830 0.646713
O O16 0.093360 0.327326 0.243758
O O17 0.000000 0.315771 0.127986
O O18 0.000000 0.665056 0.357625
#
# Coordination Sequence:
#
# PCOD8265502 Si02
#       7
#    16  16   8  16  16  16  16
#     4   9  16  24  39  65  93 123 161 200 249 308
#     4   9  18  33  57  80 101 136 180 220 261 308
#     4  11  24  36  46  68 103 143 182 217 261 317
#     4  10  21  36  53  77 110 141 169 210 265 323
#     4  10  17  32  49  66  94 132 173 217 261 299
#     4   9  18  32  53  78 103 135 174 216 264 311
#     4   9  16  29  47  71  99 129 163 209 262 308
#
# _framework density 17.902743999999998
#
# number of rings (size 3 to 8) (size 9 to 14) (size 15 to 20)
#    0.000    2.538    0.769    3.692    1.077    4.923 
#    0.000    0.769    0.000    0.000    0.000    1.077 
#    0.000    0.000    0.000   11.231    0.000    0.462 
#
# Total GULP energy -644388.219920 kJ/mol
# GULP energy per Si atom -12392.081152 kJ/mol
# Density = 1.786200 g / cm^3
# Si number density = 17.902744 Si / 1000 Ang^3
#
#
#
# Elastic Constant Matrix: (Units=GPa)
#
#
# Indices 1 2 3 4 5 6 
#
# 1 145.8771 46.4965 55.7610 0.0000 0.0000 0.0000
# 2 46.4965 73.2849 44.7386 0.0000 0.0000 0.0000
# 3 55.7610 44.7386 74.9394 0.0000 0.0000 0.0000
# 4 0.0000 0.0000 0.0000 16.2507 0.0000 0.0000
# 5 0.0000 0.0000 0.0000 0.0000 4.8932 0.0000
# 6 0.0000 0.0000 0.0000 0.0000 0.0000 12.7360
#
#
#
# Elastic Compliance Matrix: (Units=1/GPa)
#
#
# Indices 1 2 3 4 5 6 
#
# 1 0.009936 -0.002818 -0.005711 0.000000 0.000000 0.000000
# 2 -0.002818 0.022269 -0.011198 0.000000 0.000000 0.000000
# 3 -0.005711 -0.011198 0.024279 0.000000 0.000000 0.000000
# 4 0.000000 0.000000 0.000000 0.061536 0.000000 0.000000
# 5 0.000000 0.000000 0.000000 0.000000 0.204365 0.000000
# 6 0.000000 0.000000 0.000000 0.000000 0.000000 0.078517
#
#
# Mechanical properties :
#
#
# Convention : Reuss Voigt Hill
#
# Bulk Modulus (GPa) = 58.71829 65.34374 62.03102
# Shear Modulus (GPa) = 11.20991 16.58301 13.89646
#
# Velocity S-wave (km/s) = 2.50503 3.04679 2.78909
# Velocity P-wave (km/s) = 6.42157 6.99684 6.71537
#
# Compressibility (1/GPa) = 0.01703047
#
# Stress axis : x y z
#
# Youngs Moduli (GPa) = 100.64131 44.90497 41.18773
#
# Poissons Ratio (x) = 0.12652 0.23524
# Poissons Ratio (y) = 0.28356 0.46123
# Poissons Ratio (z) = 0.57479 0.50285
#
# Static dielectric constant tensor:
#      x y z
#    x 3.669010 0.000000 0.000000 
#    y 0.000000 2.990280 0.000000 
#    z 0.000000 0.000000 3.172360 
# 
# 
# High freq. dielectric constant tensor:
#      x y z
#    x 1.708380 0.000000 0.000000 
#    y 0.000000 1.644450 0.000000 
#    z 0.000000 0.000000 1.688070 
# 
# From -- ./inp_files/54622.got.cif
#   From: 2010.03.12/outbox.cif.g09.slc.cpg/sg65_28_cif.got.tgz:54622.got - 2010.04.10 20:52:16.
