data_PCOD8265252
_publ_section_title
;
Structure prediction by ZEFSAII (Michael W. Deem and Ramdas Pophale) SiO2 
 PCOD8265252
Probable space group: C M M M
;
_chemical_formula_sum "Si O2"
_cell_formula_units_Z 96
_cell_length_a 15.217648
_cell_length_b 29.942476
_cell_length_c 11.420374
_cell_angle_alpha 90.000000
_cell_angle_beta 90.000000
_cell_angle_gamma 90.000000
_cell_volume 5203.739780
_symmetry_space_group_name_H-M "C M M M"
_symmetry_group_IT_number 65
_symmetry_cell_setting 'orthorhombic'
loop_
_space_group_symop_operation_xyz
x,y,z
-x,-y,z
x,-y,-z
-x,y,-z
-x,-y,-z
x,y,-z
-x,y,z
x,-y,z
1/2+x,1/2+y,z
1/2-x,1/2-y,z
1/2+x,1/2-y,-z
1/2-x,1/2+y,-z
1/2-x,1/2-y,-z
1/2+x,1/2+y,-z
1/2-x,1/2+y,z
1/2+x,1/2-y,z
loop_
_atom_site_type_symbol
_atom_site_label
_atom_site_fract_x
_atom_site_fract_y
_atom_site_fract_z
Si Si1 0.138524 0.658146 0.000000
Si Si2 0.597826 0.600354 0.000000
Si Si3 0.722229 0.069893 0.000000
Si Si4 0.600076 0.048421 0.209851
Si Si5 0.599204 0.325625 0.807130
Si Si6 0.904868 0.643538 0.739826
Si Si7 0.897684 0.245358 0.000000
Si Si8 0.753228 0.802499 0.364170
O O1 0.221761 0.624700 0.000000
O O2 0.086342 0.647151 0.118970
O O3 0.164367 0.710616 0.000000
O O4 0.672185 0.561115 0.000000
O O5 0.608698 0.629864 0.883228
O O6 0.500000 0.578769 0.000000
O O7 0.673613 0.048669 0.109797
O O8 0.500000 0.052475 0.159424
O O9 0.617280 0.091513 0.293042
O O10 0.609935 0.000000 0.274810
O O11 0.500000 0.321258 0.759230
O O12 0.664776 0.326394 0.697923
O O13 0.623662 0.282729 0.884930
O O14 0.835946 0.677167 0.685890
O O15 0.000000 0.656513 0.687245
O O16 0.000000 0.260400 0.000000
O O17 0.761470 0.813785 0.500000
O O18 0.750000 0.750000 0.340566
#
# Coordination Sequence:
#
# PCOD8265252 Si02
#       8
#     8   8   8  16  16  16   8  16
#     4  10  17  26  45  73  98 122 162 205 245 299
#     4   9  18  32  50  73 100 130 166 208 253 300
#     4  10  17  25  41  68 105 142 161 186 241 302
#     4   9  17  29  48  76 106 135 169 206 247 301
#     4   9  18  33  50  68  93 126 165 211 257 295
#     4  10  20  34  52  74 104 138 169 208 255 301
#     4   9  16  26  44  70  97 125 159 202 253 305
#     4  11  24  37  49  70  99 133 174 212 250 307
#
# _framework density 18.448270999999998
#
# number of rings (size 3 to 8) (size 9 to 14) (size 15 to 20)
#    0.000    2.333    0.000    5.250    0.000    6.667 
#    0.000    4.583    0.000    1.500    0.000    2.333 
#    0.000    0.000    0.000    6.000    0.000    0.167 
#
# Total GULP energy -594689.061124 kJ/mol
# GULP energy per Si atom -12389.355440 kJ/mol
# Density = 1.840628 g / cm^3
# Si number density = 18.448271 Si / 1000 Ang^3
#
#
#
# Elastic Constant Matrix: (Units=GPa)
#
#
# Indices 1 2 3 4 5 6 
#
# 1 128.2434 42.5228 45.3493 0.0000 0.0000 0.0000
# 2 42.5228 100.1481 22.5171 0.0000 0.0000 0.0000
# 3 45.3493 22.5171 74.5144 0.0000 0.0000 0.0000
# 4 0.0000 0.0000 0.0000 6.6603 0.0000 0.0000
# 5 0.0000 0.0000 0.0000 0.0000 -9.9262 0.0000
# 6 0.0000 0.0000 0.0000 0.0000 0.0000 20.7968
#
#
#
# Elastic Compliance Matrix: (Units=1/GPa)
#
#
# Indices 1 2 3 4 5 6 
#
# 1 0.010900 -0.003365 -0.005617 0.000000 0.000000 0.000000
# 2 -0.003365 0.011752 -0.001503 0.000000 0.000000 0.000000
# 3 -0.005617 -0.001503 0.017293 0.000000 0.000000 0.000000
# 4 0.000000 0.000000 0.000000 0.150143 0.000000 0.000000
# 5 0.000000 0.000000 0.000000 0.000000 -0.100743 0.000000
# 6 0.000000 0.000000 0.000000 0.000000 0.000000 0.048084
#
#
# Mechanical properties :
#
#
# Convention : Reuss Voigt Hill
#
# Bulk Modulus (GPa) = 52.70263 58.18716 55.44489
# Shear Modulus (GPa) = 30.35398 16.34063 23.34731
#
# Velocity S-wave (km/s) = 4.06070 2.97939 3.56132
# Velocity P-wave (km/s) = 7.11446 6.59127 6.85786
#
# Compressibility (1/GPa) = 0.01897439
#
# Stress axis : x y z
#
# Youngs Moduli (GPa) = 91.74636 85.09159 57.82773
#
# Poissons Ratio (x) = 0.28635 0.32479
# Poissons Ratio (y) = 0.30874 0.08693
# Poissons Ratio (z) = 0.51530 0.12792
#
# Static dielectric constant tensor:
#      x y z
#    x 3.422740 0.000000 0.000000 
#    y 0.000000 3.495930 0.000000 
#    z 0.000000 0.000000 3.014380 
# 
# 
# High freq. dielectric constant tensor:
#      x y z
#    x 1.721690 0.000000 0.000000 
#    y 0.000000 1.710460 0.000000 
#    z 0.000000 0.000000 1.665820 
# 
# From -- ./inp_files/25531.got.cif
#   From: 2010.03.12/outbox.cif.g09.slc.cpg/sg65_13_cif.got.tgz:25531.got - 2010.04.10 20:52:16.
