data_PCOD8265446
_publ_section_title
;
Structure prediction by ZEFSAII (Michael W. Deem and Ramdas Pophale) SiO2 
 PCOD8265446
Probable space group: C M M M
;
_chemical_formula_sum "Si O2"
_cell_formula_units_Z 128
_cell_length_a 18.343278
_cell_length_b 20.690477
_cell_length_c 20.364869
_cell_angle_alpha 90.000000
_cell_angle_beta 90.000000
_cell_angle_gamma 90.000000
_cell_volume 7729.102590
_symmetry_space_group_name_H-M "C M M M"
_symmetry_group_IT_number 65
_symmetry_cell_setting 'orthorhombic'
loop_
_space_group_symop_operation_xyz
x,y,z
-x,-y,z
x,-y,-z
-x,y,-z
-x,-y,-z
x,y,-z
-x,y,z
x,-y,z
1/2+x,1/2+y,z
1/2-x,1/2-y,z
1/2+x,1/2-y,-z
1/2-x,1/2+y,-z
1/2-x,1/2-y,-z
1/2+x,1/2+y,-z
1/2-x,1/2+y,z
1/2+x,1/2-y,z
loop_
_atom_site_type_symbol
_atom_site_label
_atom_site_fract_x
_atom_site_fract_y
_atom_site_fract_z
Si Si1 0.917907 0.117448 0.671685
Si Si2 0.914944 0.129378 0.818120
Si Si3 0.292260 0.182224 0.071951
Si Si4 0.201691 0.927331 0.425338
Si Si5 0.698349 0.190799 0.576387
Si Si6 0.335084 0.238726 0.195234
Si Si7 0.324205 0.427445 0.926603
Si Si8 0.916047 0.730127 0.674899
O O1 0.898478 0.098229 0.746717
O O2 0.867240 0.079189 0.621868
O O3 0.908042 0.193814 0.663260
O O4 0.000000 0.096561 0.654798
O O5 0.870760 0.194852 0.827577
O O6 0.890091 0.080776 0.875111
O O7 0.000000 0.145408 0.824420
O O8 0.250000 0.250000 0.071301
O O9 0.346687 0.188368 0.134131
O O10 0.240635 0.121986 0.087735
O O11 0.330104 0.172695 0.000000
O O12 0.176152 0.912966 0.500000
O O13 0.264045 0.876941 0.404947
O O14 0.233061 0.000000 0.418940
O O15 0.679533 0.195756 0.500000
O O16 0.750000 0.250000 0.598491
O O17 0.622283 0.193456 0.614852
O O18 0.250000 0.250000 0.212698
O O19 0.376189 0.209221 0.257925
O O20 0.293105 0.500000 0.919661
O O21 0.355365 0.415593 0.000000
O O22 0.000000 0.708572 0.678104
#
# Coordination Sequence:
#
# PCOD8265446 Si02
#       8
#    16  16  16  16  16  16  16  16
#     4   9  19  33  49  71 103 138 168 200 241 291
#     4  10  20  33  47  70 103 136 169 203 239 286
#     4   9  16  29  50  73  93 123 169 213 248 283
#     4  10  21  35  51  74 103 132 165 207 249 289
#     4  10  19  33  54  77  99 128 169 210 244 287
#     4  10  17  29  52  75  95 130 166 206 252 291
#     4  10  20  33  48  70 101 135 169 204 244 292
#     4  10  20  32  50  78 107 130 160 205 254 298
#
# _framework density 16.560784000000002
#
# number of rings (size 3 to 8) (size 9 to 14) (size 15 to 20)
#    0.000    2.250    3.750    1.500    1.750    1.750 
#    0.000    3.750    0.000    1.500    0.000    1.750 
#    0.000    1.500    0.000   12.500    0.000    0.000 
#
# Total GULP energy -793345.846536 kJ/mol
# GULP energy per Si atom -12396.028852 kJ/mol
# Density = 1.652309 g / cm^3
# Si number density = 16.560784 Si / 1000 Ang^3
#
#
#
# Elastic Constant Matrix: (Units=GPa)
#
#
# Indices 1 2 3 4 5 6 
#
# 1 89.9519 40.3033 60.7485 0.0000 0.0000 0.0000
# 2 40.3033 83.1070 39.9943 0.0000 0.0000 0.0000
# 3 60.7485 39.9943 110.6748 0.0000 0.0000 0.0000
# 4 0.0000 0.0000 0.0000 15.9532 0.0000 0.0000
# 5 0.0000 0.0000 0.0000 0.0000 19.4109 0.0000
# 6 0.0000 0.0000 0.0000 0.0000 0.0000 19.1803
#
#
#
# Elastic Compliance Matrix: (Units=1/GPa)
#
#
# Indices 1 2 3 4 5 6 
#
# 1 0.019341 -0.005170 -0.008748 0.000000 0.000000 0.000000
# 2 -0.005170 0.015948 -0.002925 0.000000 0.000000 0.000000
# 3 -0.008748 -0.002925 0.014894 0.000000 0.000000 0.000000
# 4 0.000000 0.000000 0.000000 0.062683 0.000000 0.000000
# 5 0.000000 0.000000 0.000000 0.000000 0.051518 0.000000
# 6 0.000000 0.000000 0.000000 0.000000 0.000000 0.052137
#
#
# Mechanical properties :
#
#
# Convention : Reuss Voigt Hill
#
# Bulk Modulus (GPa) = 60.61743 62.86953 61.74348
# Shear Modulus (GPa) = 19.55366 20.42137 19.98751
#
# Velocity S-wave (km/s) = 3.43989 3.51538 3.47784
# Velocity P-wave (km/s) = 7.24290 7.38394 7.31376
#
# Compressibility (1/GPa) = 0.01649691
#
# Stress axis : x y z
#
# Youngs Moduli (GPa) = 51.70252 62.70545 67.13951
#
# Poissons Ratio (x) = 0.32418 0.58735
# Poissons Ratio (y) = 0.26729 0.19640
# Poissons Ratio (z) = 0.45230 0.18343
#
# Static dielectric constant tensor:
#      x y z
#    x 2.921900 0.000000 0.000000 
#    y 0.000000 3.023120 0.000000 
#    z 0.000000 0.000000 3.536250 
# 
# 
# High freq. dielectric constant tensor:
#      x y z
#    x 1.608470 0.000000 0.000000 
#    y 0.000000 1.618780 0.000000 
#    z 0.000000 0.000000 1.658930 
# 
# From -- ./inp_files/64145.got.cif
#   From: 2010.03.12/outbox.cif.g09.slc.cpg/sg65_33_cif.got.tgz:64145.got - 2010.04.10 20:52:16.
