data_PCOD8265822
_publ_section_title
;
Structure prediction by ZEFSAII (Michael W. Deem and Ramdas Pophale) SiO2 
 PCOD8265822
Probable space group: C M M M
;
_chemical_formula_sum "Si O2"
_cell_formula_units_Z 120
_cell_length_a 28.216165
_cell_length_b 19.884007
_cell_length_c 12.824690
_cell_angle_alpha 90.000000
_cell_angle_beta 90.000000
_cell_angle_gamma 90.000000
_cell_volume 7195.297741
_symmetry_space_group_name_H-M "C M M M"
_symmetry_group_IT_number 65
_symmetry_cell_setting 'orthorhombic'
loop_
_space_group_symop_operation_xyz
x,y,z
-x,-y,z
x,-y,-z
-x,y,-z
-x,-y,-z
x,y,-z
-x,y,z
x,-y,z
1/2+x,1/2+y,z
1/2-x,1/2-y,z
1/2+x,1/2-y,-z
1/2-x,1/2+y,-z
1/2-x,1/2-y,-z
1/2+x,1/2+y,-z
1/2-x,1/2+y,z
1/2+x,1/2-y,z
loop_
_atom_site_type_symbol
_atom_site_label
_atom_site_fract_x
_atom_site_fract_y
_atom_site_fract_z
Si Si1 0.784079 0.695271 0.381592
Si Si2 0.053043 0.579758 0.000000
Si Si3 0.552776 0.688300 0.623061
Si Si4 0.124799 0.923176 0.378094
Si Si5 0.109962 0.679296 0.623368
Si Si6 0.711018 0.078348 0.113956
Si Si7 0.388681 0.920414 0.799041
Si Si8 0.772566 0.077491 0.698623
O O1 0.788902 0.717861 0.500000
O O2 0.750000 0.750000 0.323531
O O3 0.837214 0.697951 0.337782
O O4 0.760941 0.621461 0.375639
O O5 0.079410 0.604545 0.895786
O O6 0.052634 0.500000 0.000000
O O7 0.000000 0.609417 0.000000
O O8 0.549505 0.681608 0.500000
O O9 0.500000 0.684484 0.672032
O O10 0.583801 0.625642 0.665290
O O11 0.576330 0.758789 0.653369
O O12 0.135124 0.910760 0.500000
O O13 0.172481 0.904838 0.315798
O O14 0.109063 0.000000 0.357607
O O15 0.107300 0.661147 0.500000
O O16 0.093643 0.615418 0.692510
O O17 0.664800 0.103779 0.175676
O O18 0.757997 0.093563 0.181732
O O19 0.704083 0.000000 0.096095
O O20 0.716007 0.113185 0.000000
O O21 0.392696 0.000000 0.780408
O O22 0.762597 0.000000 0.668977
#
# Coordination Sequence:
#
# PCOD8265822 Si02
#       8
#    16   8  16  16  16  16  16  16
#     4  10  19  29  42  63  94 131 165 193 225 271
#     4   9  18  32  52  74  91 114 159 219 265 288
#     4   9  18  33  50  67  92 128 166 201 244 296
#     4   9  17  29  47  74 103 125 153 198 243 286
#     4  10  20  31  45  69  99 132 169 201 235 289
#     4   9  16  28  46  68  94 127 161 196 238 283
#     4  10  18  31  49  70  99 129 164 208 247 285
#     4  10  18  28  45  70  97 127 159 191 233 280
#
# _framework density 16.677558999999999
#
# number of rings (size 3 to 8) (size 9 to 14) (size 15 to 20)
#    0.000    2.467    2.000    1.200    0.000    4.000 
#    0.000    2.667    0.000    0.400    5.200    3.733 
#    0.000    0.000    0.000    5.200    0.000    0.133 
#
# Total GULP energy -743659.938151 kJ/mol
# GULP energy per Si atom -12394.332303 kJ/mol
# Density = 1.663960 g / cm^3
# Si number density = 16.677559 Si / 1000 Ang^3
#
#
#
# Elastic Constant Matrix: (Units=GPa)
#
#
# Indices 1 2 3 4 5 6 
#
# 1 136.5766 58.5115 40.1023 0.0000 0.0000 0.0000
# 2 58.5115 72.8574 37.3055 0.0000 0.0000 0.0000
# 3 40.1023 37.3055 75.5801 0.0000 0.0000 0.0000
# 4 0.0000 0.0000 0.0000 10.5965 0.0000 0.0000
# 5 0.0000 0.0000 0.0000 0.0000 10.8465 0.0000
# 6 0.0000 0.0000 0.0000 0.0000 0.0000 22.7519
#
#
#
# Elastic Compliance Matrix: (Units=1/GPa)
#
#
# Indices 1 2 3 4 5 6 
#
# 1 0.011394 -0.008103 -0.002046 0.000000 0.000000 0.000000
# 2 -0.008103 0.024130 -0.007611 0.000000 0.000000 0.000000
# 3 -0.002046 -0.007611 0.018073 0.000000 0.000000 0.000000
# 4 0.000000 0.000000 0.000000 0.094371 0.000000 0.000000
# 5 0.000000 0.000000 0.000000 0.000000 0.092196 0.000000
# 6 0.000000 0.000000 0.000000 0.000000 0.000000 0.043952
#
#
# Mechanical properties :
#
#
# Convention : Reuss Voigt Hill
#
# Bulk Modulus (GPa) = 55.31754 61.87253 58.59503
# Shear Modulus (GPa) = 15.35332 18.77861 17.06597
#
# Velocity S-wave (km/s) = 3.03743 3.35920 3.20236
# Velocity P-wave (km/s) = 6.74849 7.22672 6.99170
#
# Compressibility (1/GPa) = 0.01807745
#
# Stress axis : x y z
#
# Youngs Moduli (GPa) = 87.76488 41.44240 55.33013
#
# Poissons Ratio (x) = 0.33580 0.11321
# Poissons Ratio (y) = 0.71114 0.42111
# Poissons Ratio (z) = 0.17958 0.31542
#
# Static dielectric constant tensor:
#      x y z
#    x 3.339000 0.000000 0.000000 
#    y 0.000000 3.057610 0.000000 
#    z 0.000000 0.000000 2.992660 
# 
# 
# High freq. dielectric constant tensor:
#      x y z
#    x 1.643380 0.000000 0.000000 
#    y 0.000000 1.627200 0.000000 
#    z 0.000000 0.000000 1.610780 
# 
# From -- ./inp_files/34285.got.cif
#   From: 2010.03.12/outbox.cif.g09.slc.cpg/sg65_18_cif.got.tgz:34285.got - 2010.04.10 20:52:16.
