data_PCOD8265392
_publ_section_title
;
Structure prediction by ZEFSAII (Michael W. Deem and Ramdas Pophale) SiO2 
 PCOD8265392
Probable space group: C M M M
;
_chemical_formula_sum "Si O2"
_cell_formula_units_Z 64
_cell_length_a 28.544133
_cell_length_b 13.487890
_cell_length_c 10.501503
_cell_angle_alpha 90.000000
_cell_angle_beta 90.000000
_cell_angle_gamma 90.000000
_cell_volume 4043.079979
_symmetry_space_group_name_H-M "C M M M"
_symmetry_group_IT_number 65
_symmetry_cell_setting 'orthorhombic'
loop_
_space_group_symop_operation_xyz
x,y,z
-x,-y,z
x,-y,-z
-x,y,-z
-x,-y,-z
x,y,-z
-x,y,z
x,-y,z
1/2+x,1/2+y,z
1/2-x,1/2-y,z
1/2+x,1/2-y,-z
1/2-x,1/2+y,-z
1/2-x,1/2-y,-z
1/2+x,1/2+y,-z
1/2-x,1/2+y,z
1/2+x,1/2-y,z
loop_
_atom_site_type_symbol
_atom_site_label
_atom_site_fract_x
_atom_site_fract_y
_atom_site_fract_z
Si Si1 0.645825 0.885711 0.859375
Si Si2 0.357843 0.382737 0.500000
Si Si3 0.947804 0.612097 0.268077
Si Si4 0.946576 0.755774 0.500000
Si Si5 0.803234 0.733832 0.640821
O O1 0.589902 0.871903 0.843205
O O2 0.673527 0.830539 0.749555
O O3 0.660092 0.000000 0.849375
O O4 0.658776 0.844420 0.000000
O O5 0.354636 0.500000 0.500000
O O6 0.412290 0.350061 0.500000
O O7 0.331263 0.338567 0.625487
O O8 0.944436 0.500000 0.322641
O O9 0.935595 0.688070 0.379270
O O10 0.000000 0.631984 0.213293
O O11 0.000000 0.794711 0.500000
O O12 0.805104 0.680627 0.500000
O O13 0.750000 0.750000 0.683019
#
# Coordination Sequence:
#
# PCOD8265392 Si02
#       5
#    16   8  16   8  16
#     4  10  20  32  49  76 107 133 159 194 242 302
#     4  10  19  33  51  73  98 123 165 214 250 284
#     4   9  16  27  46  72 102 131 161 196 239 298
#     4  10  17  28  48  74  97 126 164 204 253 294
#     4   9  19  36  53  76  94 130 166 206 251 290
#
# _framework density 15.829516
#
# number of rings (size 3 to 8) (size 9 to 14) (size 15 to 20)
#    0.750    1.750    2.500    0.375    0.000    4.250 
#    0.000    2.500    0.000    0.750    0.000    0.000 
#    0.000    4.000    0.000    0.000    0.000    0.000 
#
# Total GULP energy -396462.976507 kJ/mol
# GULP energy per Si atom -12389.468016 kJ/mol
# Density = 1.579349 g / cm^3
# Si number density = 15.829516 Si / 1000 Ang^3
#
#
#
# Elastic Constant Matrix: (Units=GPa)
#
#
# Indices 1 2 3 4 5 6 
#
# 1 114.7257 50.9910 51.7459 0.0000 0.0000 0.0000
# 2 50.9910 80.4952 48.3893 0.0000 0.0000 0.0000
# 3 51.7459 48.3893 104.7046 0.0000 0.0000 0.0000
# 4 0.0000 0.0000 0.0000 10.9497 0.0000 0.0000
# 5 0.0000 0.0000 0.0000 0.0000 15.6471 0.0000
# 6 0.0000 0.0000 0.0000 0.0000 0.0000 15.9849
#
#
#
# Elastic Compliance Matrix: (Units=1/GPa)
#
#
# Indices 1 2 3 4 5 6 
#
# 1 0.013065 -0.006085 -0.003644 0.000000 0.000000 0.000000
# 2 -0.006085 0.020037 -0.006253 0.000000 0.000000 0.000000
# 3 -0.003644 -0.006253 0.014241 0.000000 0.000000 0.000000
# 4 0.000000 0.000000 0.000000 0.091327 0.000000 0.000000
# 5 0.000000 0.000000 0.000000 0.000000 0.063909 0.000000
# 6 0.000000 0.000000 0.000000 0.000000 0.000000 0.062559
#
#
# Mechanical properties :
#
#
# Convention : Reuss Voigt Hill
#
# Bulk Modulus (GPa) = 65.02655 66.90866 65.96760
# Shear Modulus (GPa) = 16.54375 18.43630 17.49003
#
# Velocity S-wave (km/s) = 3.23634 3.41644 3.32761
# Velocity P-wave (km/s) = 7.42521 7.61070 7.51853
#
# Compressibility (1/GPa) = 0.01537833
#
# Stress axis : x y z
#
# Youngs Moduli (GPa) = 76.54077 49.90853 70.21778
#
# Poissons Ratio (x) = 0.30371 0.25590
# Poissons Ratio (y) = 0.46578 0.43904
# Poissons Ratio (z) = 0.27895 0.31205
#
# Static dielectric constant tensor:
#      x y z
#    x 3.229020 0.000000 0.000000 
#    y 0.000000 2.660710 0.000000 
#    z 0.000000 0.000000 2.881800 
# 
# 
# High freq. dielectric constant tensor:
#      x y z
#    x 1.625240 0.000000 0.000000 
#    y 0.000000 1.573040 0.000000 
#    z 0.000000 0.000000 1.590330 
# 
# From -- ./inp_files/31919.got.cif
#   From: 2010.03.12/outbox.cif.g09.slc.cpg/sg65_16_cif.got.tgz:31919.got - 2010.04.10 20:52:16.
