data_PCOD8265557
_publ_section_title
;
Structure prediction by ZEFSAII (Michael W. Deem and Ramdas Pophale) SiO2 
 PCOD8265557
Probable space group: C M M M
;
_chemical_formula_sum "Si O2"
_cell_formula_units_Z 112
_cell_length_a 27.073444
_cell_length_b 8.972520
_cell_length_c 29.636707
_cell_angle_alpha 90.000000
_cell_angle_beta 90.000000
_cell_angle_gamma 90.000000
_cell_volume 7199.260481
_symmetry_space_group_name_H-M "C M M M"
_symmetry_group_IT_number 65
_symmetry_cell_setting 'orthorhombic'
loop_
_space_group_symop_operation_xyz
x,y,z
-x,-y,z
x,-y,-z
-x,y,-z
-x,-y,-z
x,y,-z
-x,y,z
x,-y,z
1/2+x,1/2+y,z
1/2-x,1/2-y,z
1/2+x,1/2-y,-z
1/2-x,1/2+y,-z
1/2-x,1/2-y,-z
1/2+x,1/2+y,-z
1/2-x,1/2+y,z
1/2+x,1/2-y,z
loop_
_atom_site_type_symbol
_atom_site_label
_atom_site_fract_x
_atom_site_fract_y
_atom_site_fract_z
Si Si1 0.600421 0.824235 0.907149
Si Si2 0.443835 0.822471 0.000000
Si Si3 0.196352 0.324012 0.403444
Si Si4 0.445463 0.328000 0.824972
Si Si5 0.198002 0.327544 0.500000
Si Si6 0.699874 0.824176 0.860427
Si Si7 0.803124 0.824447 0.316497
Si Si8 0.652420 0.673199 0.777827
O O1 0.562153 0.762318 0.870793
O O2 0.656249 0.775286 0.894656
O O3 0.595441 0.000000 0.905934
O O4 0.585441 0.761607 0.956240
O O5 0.500000 0.761617 0.000000
O O6 0.444345 0.000000 0.000000
O O7 0.200167 0.500000 0.394577
O O8 0.250000 0.250000 0.404988
O O9 0.169805 0.289968 0.452426
O O10 0.169375 0.245626 0.360832
O O11 0.500000 0.291350 0.805535
O O12 0.440350 0.500000 0.837924
O O13 0.404740 0.284656 0.787450
O O14 0.210989 0.500000 0.500000
O O15 0.250000 0.250000 0.500000
O O16 0.750000 0.750000 0.878548
O O17 0.688141 0.767499 0.810071
O O18 0.706719 0.000000 0.858760
O O19 0.750000 0.750000 0.308999
O O20 0.837184 0.785139 0.273850
O O21 0.796458 0.000000 0.323018
O O22 0.663348 0.500000 0.787275
#
# Coordination Sequence:
#
# PCOD8265557 Si02
#       8
#    16   8  16  16   8  16  16  16
#     4   9  18  31  47  67  87 108 136 166 196 234
#     4   9  16  28  48  69  87 107 131 163 202 241
#     4   9  15  23  34  48  68  95 128 163 197 231
#     4   9  17  30  47  65  85 108 132 161 199 240
#     4   8  14  22  32  46  64  90 125 162 195 229
#     4  10  19  30  45  63  83 108 138 170 200 233
#     4  10  18  26  36  52  75 102 132 164 196 229
#     4   9  18  30  43  60  82 107 135 166 199 238
#
# _framework density 15.557154000000001
#
# number of rings (size 3 to 8) (size 9 to 14) (size 15 to 20)
#    0.000    2.786    0.000    3.000    0.000    4.286 
#    0.000    0.714    0.000    1.286    0.000    0.000 
#    0.000    0.000    0.000    0.643    0.000   14.929 
#
# Total GULP energy -693888.938767 kJ/mol
# GULP energy per Si atom -12390.873907 kJ/mol
# Density = 1.552174 g / cm^3
# Si number density = 15.557154 Si / 1000 Ang^3
#
#
#
# Elastic Constant Matrix: (Units=GPa)
#
#
# Indices 1 2 3 4 5 6 
#
# 1 82.5191 24.8324 52.8481 0.0000 0.0000 0.0000
# 2 24.8324 46.3571 38.6711 0.0000 0.0000 0.0000
# 3 52.8481 38.6711 154.7201 0.0000 0.0000 0.0000
# 4 0.0000 0.0000 0.0000 21.1914 0.0000 0.0000
# 5 0.0000 0.0000 0.0000 0.0000 -136.5540 0.0000
# 6 0.0000 0.0000 0.0000 0.0000 0.0000 15.0259
#
#
#
# Elastic Compliance Matrix: (Units=1/GPa)
#
#
# Indices 1 2 3 4 5 6 
#
# 1 0.016451 -0.005212 -0.004317 0.000000 0.000000 0.000000
# 2 -0.005212 0.028905 -0.005445 0.000000 0.000000 0.000000
# 3 -0.004317 -0.005445 0.009299 0.000000 0.000000 0.000000
# 4 0.000000 0.000000 0.000000 0.047189 0.000000 0.000000
# 5 0.000000 0.000000 0.000000 0.000000 -0.007323 0.000000
# 6 0.000000 0.000000 0.000000 0.000000 0.000000 0.066552
#
#
# Mechanical properties :
#
#
# Convention : Reuss Voigt Hill
#
# Bulk Modulus (GPa) = 40.47030 57.36662 48.91846
# Shear Modulus (GPa) = 25.09350 -8.91771 8.08790
#
# Velocity S-wave (km/s) = 4.02056 -2.39680 2.28257
# Velocity P-wave (km/s) = 6.90099 5.41251 6.20157
#
# Compressibility (1/GPa) = 0.02470948
#
# Stress axis : x y z
#
# Youngs Moduli (GPa) = 60.78544 34.59583 107.54341
#
# Poissons Ratio (x) = 0.18030 0.46423
# Poissons Ratio (y) = 0.31679 0.58552
# Poissons Ratio (z) = 0.26239 0.18836
#
# Static dielectric constant tensor:
#      x y z
#    x 2.832160 0.000000 0.000000 
#    y 0.000000 2.806060 0.000000 
#    z 0.000000 0.000000 3.590170 
# 
# 
# High freq. dielectric constant tensor:
#      x y z
#    x 1.555530 0.000000 0.000000 
#    y 0.000000 1.600090 0.000000 
#    z 0.000000 0.000000 1.602470 
# 
# From -- ./inp_files/78536.got.cif
#   From: 2010.03.12/outbox.cif.g09.slc.cpg/sg65_40_cif.got.tgz:78536.got - 2010.04.10 20:52:16.
