data_PCOD8265547
_publ_section_title
;
Structure prediction by ZEFSAII (Michael W. Deem and Ramdas Pophale) SiO2 
 PCOD8265547
Probable space group: C M M M
;
_chemical_formula_sum "Si O2"
_cell_formula_units_Z 88
_cell_length_a 34.267959
_cell_length_b 22.785771
_cell_length_c 9.424324
_cell_angle_alpha 90.000000
_cell_angle_beta 90.000000
_cell_angle_gamma 90.000000
_cell_volume 7358.718255
_symmetry_space_group_name_H-M "C M M M"
_symmetry_group_IT_number 65
_symmetry_cell_setting 'orthorhombic'
loop_
_space_group_symop_operation_xyz
x,y,z
-x,-y,z
x,-y,-z
-x,y,-z
-x,-y,-z
x,y,-z
-x,y,z
x,-y,z
1/2+x,1/2+y,z
1/2-x,1/2-y,z
1/2+x,1/2-y,-z
1/2-x,1/2+y,-z
1/2-x,1/2-y,-z
1/2+x,1/2+y,-z
1/2-x,1/2+y,z
1/2+x,1/2-y,z
loop_
_atom_site_type_symbol
_atom_site_label
_atom_site_fract_x
_atom_site_fract_y
_atom_site_fract_z
Si Si1 0.500000 0.930819 0.345746
Si Si2 0.584680 0.932051 0.668681
Si Si3 0.848907 0.365640 0.833413
Si Si4 0.268204 0.340833 0.341218
Si Si5 0.311838 0.229474 0.339924
Si Si6 0.230129 0.433567 0.834934
O O1 0.500000 0.900577 0.500000
O O2 0.458770 0.913943 0.272089
O O3 0.500000 0.000000 0.367757
O O4 0.588211 0.920542 0.500000
O O5 0.614078 0.892361 0.755632
O O6 0.593512 0.000000 0.702102
O O7 0.841778 0.300547 0.769690
O O8 0.812262 0.407345 0.800174
O O9 0.857082 0.360138 0.000000
O O10 0.276419 0.363414 0.500000
O O11 0.303172 0.296925 0.293015
O O12 0.228285 0.305432 0.336190
O O13 0.264829 0.397261 0.240055
O O14 0.329022 0.227839 0.500000
O O15 0.230863 0.500000 0.777914
O O16 0.239061 0.430602 0.000000
#
# Coordination Sequence:
#
# PCOD8265547 Si02
#       6
#     8  16  16  16  16  16
#     4   7  12  24  39  51  61  77 105 135 160 193
#     4   9  16  26  39  51  63  82 107 134 165 199
#     4  10  18  25  34  49  68  86 105 132 164 197
#     4   8  14  24  37  49  60  77 103 135 163 189
#     4   8  14  25  37  48  62  79 102 131 163 195
#     4   9  17  26  33  44  65  89 108 129 161 199
#
# _framework density 11.958603999999999
#
# number of rings (size 3 to 8) (size 9 to 14) (size 15 to 20)
#    0.000    3.364    0.000    3.273    0.000    2.909 
#    0.000    4.091    0.000    1.636    0.000    0.000 
#    0.000    0.000    0.000    0.000    0.000    0.000 
#
# Total GULP energy -545095.727361 kJ/mol
# GULP energy per Si atom -12388.539258 kJ/mol
# Density = 1.193139 g / cm^3
# Si number density = 11.958604 Si / 1000 Ang^3
#
#
#
# Elastic Constant Matrix: (Units=GPa)
#
#
# Indices 1 2 3 4 5 6 
#
# 1 62.1211 44.0278 39.5003 0.0000 0.0000 0.0000
# 2 44.0278 70.0687 39.9109 0.0000 0.0000 0.0000
# 3 39.5003 39.9109 53.6460 0.0000 0.0000 0.0000
# 4 0.0000 0.0000 0.0000 18.6134 0.0000 0.0000
# 5 0.0000 0.0000 0.0000 0.0000 9.7999 0.0000
# 6 0.0000 0.0000 0.0000 0.0000 0.0000 15.6092
#
#
#
# Elastic Compliance Matrix: (Units=1/GPa)
#
#
# Indices 1 2 3 4 5 6 
#
# 1 0.036065 -0.013078 -0.016826 0.000000 0.000000 0.000000
# 2 -0.013078 0.029509 -0.012325 0.000000 0.000000 0.000000
# 3 -0.016826 -0.012325 0.040199 0.000000 0.000000 0.000000
# 4 0.000000 0.000000 0.000000 0.053725 0.000000 0.000000
# 5 0.000000 0.000000 0.000000 0.000000 0.102042 0.000000
# 6 0.000000 0.000000 0.000000 0.000000 0.000000 0.064065
#
#
# Mechanical properties :
#
#
# Convention : Reuss Voigt Hill
#
# Bulk Modulus (GPa) = 46.91104 48.07931 47.49518
# Shear Modulus (GPa) = 11.98560 12.96428 12.47494
#
# Velocity S-wave (km/s) = 3.16928 3.29613 3.23333
# Velocity P-wave (km/s) = 7.25985 7.40122 7.33088
#
# Compressibility (1/GPa) = 0.02131694
#
# Stress axis : x y z
#
# Youngs Moduli (GPa) = 27.72747 33.88783 24.87622
#
# Poissons Ratio (x) = 0.44317 0.41857
# Poissons Ratio (y) = 0.36261 0.30659
# Poissons Ratio (z) = 0.46654 0.41765
#
# Static dielectric constant tensor:
#      x y z
#    x 2.399660 0.000000 0.000000 
#    y 0.000000 2.557590 0.000000 
#    z 0.000000 0.000000 2.483480 
# 
# 
# High freq. dielectric constant tensor:
#      x y z
#    x 1.418080 0.000000 0.000000 
#    y 0.000000 1.431650 0.000000 
#    z 0.000000 0.000000 1.452470 
# 
# From -- ./inp_files/18816.got.cif
#   From: 2010.03.12/outbox.cif.g09.slc.cpg/sg65_10_cif.got.tgz:18816.got - 2010.04.10 20:52:16.
