data_PCOD8265145
_publ_section_title
;
Structure prediction by ZEFSAII (Michael W. Deem and Ramdas Pophale) SiO2 
 PCOD8265145
Probable space group: C M M M
;
_chemical_formula_sum "Si O2"
_cell_formula_units_Z 64
_cell_length_a 8.671922
_cell_length_b 18.222133
_cell_length_c 20.894036
_cell_angle_alpha 90.000000
_cell_angle_beta 90.000000
_cell_angle_gamma 90.000000
_cell_volume 3301.694709
_symmetry_space_group_name_H-M "C M M M"
_symmetry_group_IT_number 65
_symmetry_cell_setting 'orthorhombic'
loop_
_space_group_symop_operation_xyz
x,y,z
-x,-y,z
x,-y,-z
-x,y,-z
-x,-y,-z
x,y,-z
-x,y,z
x,-y,z
1/2+x,1/2+y,z
1/2-x,1/2-y,z
1/2+x,1/2-y,-z
1/2-x,1/2+y,-z
1/2-x,1/2-y,-z
1/2+x,1/2+y,-z
1/2-x,1/2+y,z
1/2+x,1/2-y,z
loop_
_atom_site_type_symbol
_atom_site_label
_atom_site_fract_x
_atom_site_fract_y
_atom_site_fract_z
Si Si1 0.320518 0.329904 0.000000
Si Si2 0.320745 0.915587 0.116133
Si Si3 0.317034 0.668448 0.627652
Si Si4 0.316913 0.831925 0.500000
Si Si5 0.680981 0.829701 0.243676
O O1 0.250000 0.250000 0.000000
O O2 0.274562 0.373740 0.937092
O O3 0.500000 0.318690 0.000000
O O4 0.500000 0.906383 0.099858
O O5 0.280741 0.882657 0.185073
O O6 0.270367 0.000000 0.116129
O O7 0.500000 0.668362 0.623033
O O8 0.250000 0.750000 0.630280
O O9 0.246641 0.628211 0.564462
O O10 0.259345 0.631929 0.693860
O O11 0.500000 0.831084 0.500000
O O12 0.250000 0.750000 0.500000
O O13 0.500000 0.821208 0.256104
O O14 0.750000 0.750000 0.228348
#
# Coordination Sequence:
#
# PCOD8265145 Si02
#       5
#     8  16  16   8  16
#     4  12  25  40  61  87 113 143 179 220 265 316
#     4  10  22  40  60  82 111 145 179 219 267 318
#     4  10  17  26  41  64  96 132 170 213 263 314
#     4  10  16  24  38  60  93 130 169 212 261 315
#     4  10  19  32  51  75 103 137 177 218 263 314
#
# _framework density 19.383984000000002
#
# number of rings (size 3 to 8) (size 9 to 14) (size 15 to 20)
#    0.000    1.750    0.000    9.375    0.000    6.000 
#    0.000    0.000    0.000    0.000    0.000    0.875 
#    0.000    7.000    0.000    0.000    0.000    0.000 
#
# Total GULP energy -396725.895897 kJ/mol
# GULP energy per Si atom -12397.684247 kJ/mol
# Density = 1.933986 g / cm^3
# Si number density = 19.383984 Si / 1000 Ang^3
#
#
#
# Elastic Constant Matrix: (Units=GPa)
#
#
# Indices 1 2 3 4 5 6 
#
# 1 169.5636 48.2375 98.1014 0.0000 0.0000 0.0000
# 2 48.2375 90.1345 64.1759 0.0000 0.0000 0.0000
# 3 98.1014 64.1759 184.0699 0.0000 0.0000 0.0000
# 4 0.0000 0.0000 0.0000 68.6889 0.0000 0.0000
# 5 0.0000 0.0000 0.0000 0.0000 29.2261 0.0000
# 6 0.0000 0.0000 0.0000 0.0000 0.0000 17.6782
#
#
#
# Elastic Compliance Matrix: (Units=1/GPa)
#
#
# Indices 1 2 3 4 5 6 
#
# 1 0.008743 -0.001811 -0.004028 0.000000 0.000000 0.000000
# 2 -0.001811 0.015133 -0.004311 0.000000 0.000000 0.000000
# 3 -0.004028 -0.004311 0.009083 0.000000 0.000000 0.000000
# 4 0.000000 0.000000 0.000000 0.014558 0.000000 0.000000
# 5 0.000000 0.000000 0.000000 0.000000 0.034216 0.000000
# 6 0.000000 0.000000 0.000000 0.000000 0.000000 0.056567
#
#
# Mechanical properties :
#
#
# Convention : Reuss Voigt Hill
#
# Bulk Modulus (GPa) = 78.99868 96.08862 87.54365
# Shear Modulus (GPa) = 30.70861 38.66886 34.68873
#
# Velocity S-wave (km/s) = 3.98455 4.47126 4.23490
# Velocity P-wave (km/s) = 7.87477 8.73699 8.31706
#
# Compressibility (1/GPa) = 0.01265844
#
# Stress axis : x y z
#
# Youngs Moduli (GPa) = 114.37292 66.08014 110.09899
#
# Poissons Ratio (x) = 0.11967 0.44353
# Poissons Ratio (y) = 0.20712 0.47464
# Poissons Ratio (z) = 0.46074 0.28487
#
# Static dielectric constant tensor:
#      x y z
#    x 3.607420 0.000000 0.000000 
#    y 0.000000 3.775870 0.000000 
#    z 0.000000 0.000000 4.689100 
# 
# 
# High freq. dielectric constant tensor:
#      x y z
#    x 1.767920 0.000000 0.000000 
#    y 0.000000 1.697520 0.000000 
#    z 0.000000 0.000000 1.790200 
# 
# From -- ./inp_files/58895.got.cif
#   From: 2010.03.12/outbox.cif.g09.slc.cpg/sg65_30_cif.got.tgz:58895.got - 2010.04.10 20:52:16.
