data_PCOD8265017
_publ_section_title
;
Structure prediction by ZEFSAII (Michael W. Deem and Ramdas Pophale) SiO2 
 PCOD8265017
Probable space group: C M C A
;
_chemical_formula_sum "Si O2"
_cell_formula_units_Z 112
_cell_length_a 32.005727
_cell_length_b 11.441247
_cell_length_c 13.846362
_cell_angle_alpha 90.000000
_cell_angle_beta 90.000000
_cell_angle_gamma 90.000000
_cell_volume 5070.335996
_symmetry_space_group_name_H-M "C M C A"
_symmetry_group_IT_number 64
_symmetry_cell_setting 'orthorhombic'
loop_
_space_group_symop_operation_xyz
x,y,z
-x,1/2-y,1/2+z
x,-y,-z
-x,1/2+y,1/2-z
-x,-y,-z
x,1/2+y,1/2-z
-x,y,z
x,1/2-y,1/2+z
1/2+x,1/2+y,z
1/2-x,-y,1/2+z
1/2+x,1/2-y,-z
1/2-x,y,1/2-z
1/2-x,1/2-y,-z
1/2+x,y,1/2-z
1/2-x,1/2+y,z
1/2+x,-y,1/2+z
loop_
_atom_site_type_symbol
_atom_site_label
_atom_site_fract_x
_atom_site_fract_y
_atom_site_fract_z
Si Si1 0.724436 0.629486 0.015541
Si Si2 0.873020 0.085574 0.739391
Si Si3 0.046543 0.815105 0.989704
Si Si4 0.384266 0.128629 0.976423
Si Si5 0.952775 0.504769 0.661543
Si Si6 0.830838 0.754842 0.124576
Si Si7 0.795305 0.084978 0.228354
O O1 0.702840 0.634850 0.119980
O O2 0.746711 0.500000 0.000000
O O3 0.750000 0.750000 0.000000
O O4 0.689622 0.634783 0.931309
O O5 0.870400 0.140786 0.633831
O O6 0.917733 0.021815 0.755659
O O7 0.869179 0.193042 0.813918
O O8 0.833997 0.999697 0.752825
O O9 0.077266 0.709221 0.001475
O O10 0.000000 0.764155 0.993141
O O11 0.053904 0.878351 0.886816
O O12 0.053928 0.901999 0.077701
O O13 0.345714 0.160545 0.045828
O O14 0.399634 0.000000 0.000000
O O15 0.000000 0.514692 0.705173
O O16 0.797866 0.692169 0.195498
O O17 0.750000 0.024660 0.250000
#
# Coordination Sequence:
#
# PCOD8265017 Si02
#       7
#    16  16  16  16  16  16  16
#     4  12  27  49  77 106 142 193 251 311 370 443
#     4  12  26  44  74 102 148 190 251 297 379 445
#     4   9  20  41  71 102 138 185 243 305 366 437
#     4  12  26  43  68 103 149 190 233 301 375 446
#     4   9  20  42  74 106 135 181 249 310 358 438
#     4  12  26  47  70 105 141 192 246 306 366 446
#     4  12  27  49  74 105 144 196 246 307 373 439
#
# _framework density 22.089265999999999
#
# number of rings (size 3 to 8) (size 9 to 14) (size 15 to 20)
#    0.000    0.857    5.714    1.714    4.000    4.286 
#    0.000    0.000    0.000    0.000    0.000    0.000 
#    0.000    0.000    0.000    0.000    0.000    0.000 
#
# Total GULP energy -694222.241010 kJ/mol
# GULP energy per Si atom -12396.825732 kJ/mol
# Density = 2.203899 g / cm^3
# Si number density = 22.089266 Si / 1000 Ang^3
#
#
#
# Elastic Constant Matrix: (Units=GPa)
#
#
# Indices 1 2 3 4 5 6 
#
# 1 121.3363 39.0951 34.2737 0.0000 0.0000 0.0000
# 2 39.0951 112.3340 24.4057 0.0000 0.0000 0.0000
# 3 34.2737 24.4057 129.8240 0.0000 0.0000 0.0000
# 4 0.0000 0.0000 0.0000 31.8387 0.0000 0.0000
# 5 0.0000 0.0000 0.0000 0.0000 31.3928 0.0000
# 6 0.0000 0.0000 0.0000 0.0000 0.0000 40.5017
#
#
#
# Elastic Compliance Matrix: (Units=1/GPa)
#
#
# Indices 1 2 3 4 5 6 
#
# 1 0.009766 -0.002960 -0.002022 0.000000 0.000000 0.000000
# 2 -0.002960 0.010178 -0.001132 0.000000 0.000000 0.000000
# 3 -0.002022 -0.001132 0.008449 0.000000 0.000000 0.000000
# 4 0.000000 0.000000 0.000000 0.031408 0.000000 0.000000
# 5 0.000000 0.000000 0.000000 0.000000 0.031854 0.000000
# 6 0.000000 0.000000 0.000000 0.000000 0.000000 0.024690
#
#
# Mechanical properties :
#
#
# Convention : Reuss Voigt Hill
#
# Bulk Modulus (GPa) = 61.85649 62.11594 61.98622
# Shear Modulus (GPa) = 37.32383 38.46129 37.89256
#
# Velocity S-wave (km/s) = 4.11503 4.17727 4.14627
# Velocity P-wave (km/s) = 7.11630 7.17269 7.14455
#
# Compressibility (1/GPa) = 0.01616645
#
# Stress axis : x y z
#
# Youngs Moduli (GPa) = 102.39295 98.25112 118.35244
#
# Poissons Ratio (x) = 0.29079 0.23930
# Poissons Ratio (y) = 0.30305 0.13398
# Poissons Ratio (z) = 0.20703 0.11122
#
# Static dielectric constant tensor:
#      x y z
#    x 4.013110 0.000000 0.000000 
#    y 0.000000 4.242500 0.000000 
#    z 0.000000 0.000000 4.242050 
# 
# 
# High freq. dielectric constant tensor:
#      x y z
#    x 1.865060 0.000000 0.000000 
#    y 0.000000 1.866720 0.000000 
#    z 0.000000 0.000000 1.880590 
# 
# From -- ./inp_files/28400.got.cif
#   From: 2010.03.12/outbox.cif.g09.slc.cpg/sg64_15_cif.got.tgz:28400.got - 2010.04.10 20:19:32.
