data_PCOD8265944
_publ_section_title
;
Structure prediction by ZEFSAII (Michael W. Deem and Ramdas Pophale) SiO2 
 PCOD8265944
Probable space group: C M M M
;
_chemical_formula_sum "Si O2"
_cell_formula_units_Z 104
_cell_length_a 27.048162
_cell_length_b 9.018089
_cell_length_c 26.518636
_cell_angle_alpha 90.000000
_cell_angle_beta 90.000000
_cell_angle_gamma 90.000000
_cell_volume 6468.498147
_symmetry_space_group_name_H-M "C M M M"
_symmetry_group_IT_number 65
_symmetry_cell_setting 'orthorhombic'
loop_
_space_group_symop_operation_xyz
x,y,z
-x,-y,z
x,-y,-z
-x,y,-z
-x,-y,-z
x,y,-z
-x,y,z
x,-y,z
1/2+x,1/2+y,z
1/2-x,1/2-y,z
1/2+x,1/2-y,-z
1/2-x,1/2+y,-z
1/2-x,1/2-y,-z
1/2+x,1/2+y,-z
1/2-x,1/2+y,z
1/2+x,1/2-y,z
loop_
_atom_site_type_symbol
_atom_site_label
_atom_site_fract_x
_atom_site_fract_y
_atom_site_fract_z
Si Si1 0.300722 0.669006 0.500000
Si Si2 0.299419 0.674247 0.206287
Si Si3 0.102313 0.172038 0.851855
Si Si4 0.849587 0.325288 0.701556
Si Si5 0.555166 0.170185 0.761388
Si Si6 0.803655 0.824978 0.390580
Si Si7 0.943776 0.326158 0.057165
O O1 0.285371 0.500000 0.500000
O O2 0.250000 0.750000 0.500000
O O3 0.327629 0.705230 0.553344
O O4 0.291841 0.500000 0.215404
O O5 0.250000 0.750000 0.184647
O O6 0.341900 0.706372 0.165481
O O7 0.311879 0.751569 0.259249
O O8 0.063775 0.235147 0.811434
O O9 0.094231 0.244042 0.906269
O O10 0.091870 0.000000 0.856447
O O11 0.839095 0.500000 0.698967
O O12 0.905941 0.288919 0.717627
O O13 0.841870 0.250784 0.647447
O O14 0.500000 0.202028 0.740738
O O15 0.561826 0.000000 0.777532
O O16 0.750000 0.750000 0.384927
O O17 0.798751 0.000000 0.379305
O O18 0.938063 0.500000 0.065456
O O19 0.000000 0.277206 0.069042
O O20 0.929964 0.282571 0.000000
#
# Coordination Sequence:
#
# PCOD8265944 Si02
#       7
#     8  16  16  16  16  16  16
#     4   8  16  28  42  60  83 114 147 179 216 259
#     4  10  20  33  47  65  90 119 151 184 218 258
#     4  10  20  31  46  70  95 117 144 182 224 262
#     4  10  19  30  45  66  90 117 148 181 220 261
#     4   9  18  32  48  65  88 119 151 180 213 260
#     4  10  18  29  44  63  89 118 148 181 218 260
#     4   9  18  32  49  69  93 121 151 180 213 259
#
# _framework density 16.077919999999999
#
# number of rings (size 3 to 8) (size 9 to 14) (size 15 to 20)
#    0.000    2.462    0.000    3.231    0.000    5.846 
#    0.000    0.769    0.000    0.462    0.000    0.538 
#    0.000    4.308    0.000    0.000    0.000    0.000 
#
# Total GULP energy -644634.987288 kJ/mol
# GULP energy per Si atom -12396.826679 kJ/mol
# Density = 1.604133 g / cm^3
# Si number density = 16.077920 Si / 1000 Ang^3
#
#
#
# Elastic Constant Matrix: (Units=GPa)
#
#
# Indices 1 2 3 4 5 6 
#
# 1 89.6223 44.4927 56.2750 0.0000 0.0000 0.0000
# 2 44.4927 84.5721 62.3756 0.0000 0.0000 0.0000
# 3 56.2750 62.3756 135.6468 0.0000 0.0000 0.0000
# 4 0.0000 0.0000 0.0000 28.8490 0.0000 0.0000
# 5 0.0000 0.0000 0.0000 0.0000 20.5976 0.0000
# 6 0.0000 0.0000 0.0000 0.0000 0.0000 23.0896
#
#
#
# Elastic Compliance Matrix: (Units=1/GPa)
#
#
# Indices 1 2 3 4 5 6 
#
# 1 0.016646 -0.005544 -0.004356 0.000000 0.000000 0.000000
# 2 -0.005544 0.019739 -0.006777 0.000000 0.000000 0.000000
# 3 -0.004356 -0.006777 0.012296 0.000000 0.000000 0.000000
# 4 0.000000 0.000000 0.000000 0.034663 0.000000 0.000000
# 5 0.000000 0.000000 0.000000 0.000000 0.048549 0.000000
# 6 0.000000 0.000000 0.000000 0.000000 0.000000 0.043310
#
#
# Mechanical properties :
#
#
# Convention : Reuss Voigt Hill
#
# Bulk Modulus (GPa) = 65.24874 70.68086 67.96480
# Shear Modulus (GPa) = 23.40107 24.28711 23.84409
#
# Velocity S-wave (km/s) = 3.81921 3.89084 3.85519
# Velocity P-wave (km/s) = 7.75367 8.01510 7.88547
#
# Compressibility (1/GPa) = 0.01532597
#
# Stress axis : x y z
#
# Youngs Moduli (GPa) = 60.07552 50.66079 81.33040
#
# Poissons Ratio (x) = 0.28088 0.35430
# Poissons Ratio (y) = 0.33307 0.55115
# Poissons Ratio (z) = 0.26170 0.34331
#
# Static dielectric constant tensor:
#      x y z
#    x 2.927010 0.000000 0.000000 
#    y 0.000000 3.135980 0.000000 
#    z 0.000000 0.000000 3.323240 
# 
# 
# High freq. dielectric constant tensor:
#      x y z
#    x 1.593620 0.000000 0.000000 
#    y 0.000000 1.632110 0.000000 
#    z 0.000000 0.000000 1.614280 
# 
# From -- ./inp_files/76021.got.cif
#   From: 2010.03.12/outbox.cif.g09.slc.cpg/sg65_39_cif.got.tgz:76021.got - 2010.04.10 20:52:16.
