data_PCOD8265681
_publ_section_title
;
Structure prediction by ZEFSAII (Michael W. Deem and Ramdas Pophale) SiO2 
 PCOD8265681
Probable space group: C M M M
;
_chemical_formula_sum "Si O2"
_cell_formula_units_Z 88
_cell_length_a 9.099576
_cell_length_b 24.915664
_cell_length_c 22.012993
_cell_angle_alpha 90.000000
_cell_angle_beta 90.000000
_cell_angle_gamma 90.000000
_cell_volume 4990.829318
_symmetry_space_group_name_H-M "C M M M"
_symmetry_group_IT_number 65
_symmetry_cell_setting 'orthorhombic'
loop_
_space_group_symop_operation_xyz
x,y,z
-x,-y,z
x,-y,-z
-x,y,-z
-x,-y,-z
x,y,-z
-x,y,z
x,-y,z
1/2+x,1/2+y,z
1/2-x,1/2-y,z
1/2+x,1/2-y,-z
1/2-x,1/2+y,-z
1/2-x,1/2-y,-z
1/2+x,1/2+y,-z
1/2-x,1/2+y,z
1/2+x,1/2-y,z
loop_
_atom_site_type_symbol
_atom_site_label
_atom_site_fract_x
_atom_site_fract_y
_atom_site_fract_z
Si Si1 0.670994 0.886029 0.931063
Si Si2 0.824925 0.500000 0.751461
Si Si3 0.173091 0.081683 0.332867
Si Si4 0.172763 0.803834 0.154388
Si Si5 0.670477 0.302985 0.293998
Si Si6 0.326909 0.000000 0.111493
Si Si7 0.672751 0.500000 0.566853
O O1 0.500000 0.879823 0.913094
O O2 0.769521 0.852316 0.885607
O O3 0.725332 0.947401 0.924652
O O4 0.697830 0.867044 0.000000
O O5 0.761834 0.446369 0.720977
O O6 0.765654 0.500000 0.820077
O O7 0.000000 0.500000 0.746057
O O8 0.214071 0.144826 0.334006
O O9 0.000000 0.073642 0.320177
O O10 0.219787 0.053712 0.396440
O O11 0.250000 0.750000 0.130754
O O12 0.215676 0.814600 0.224412
O O13 0.000000 0.797735 0.145404
O O14 0.500000 0.290609 0.299165
O O15 0.750000 0.250000 0.319843
O O16 0.500000 0.000000 0.115049
O O17 0.500000 0.500000 0.558478
O O18 0.748127 0.500000 0.500000
#
# Coordination Sequence:
#
# PCOD8265681 Si02
#       7
#    16   8  16  16  16   8   8
#     4  10  20  34  51  68  88 118 154 189 227 275
#     4  10  18  27  45  72  96 119 150 189 232 277
#     4   9  17  30  47  69  98 126 155 191 230 270
#     4  10  20  34  51  70  92 117 149 189 234 281
#     4   9  18  31  48  70  94 122 152 187 233 279
#     4   9  18  32  49  69  93 120 150 185 228 280
#     4   8  14  26  47  72  95 125 164 197 220 253
#
# _framework density 17.632339999999999
#
# number of rings (size 3 to 8) (size 9 to 14) (size 15 to 20)
#    0.000    2.636    0.000    2.727    0.000    3.273 
#    0.000    1.364    0.000    6.000    0.000    0.000 
#    0.000    0.000    0.000    0.000    0.000    0.000 
#
# Total GULP energy -545511.551939 kJ/mol
# GULP energy per Si atom -12397.989817 kJ/mol
# Density = 1.759221 g / cm^3
# Si number density = 17.632340 Si / 1000 Ang^3
#
#
#
# Elastic Constant Matrix: (Units=GPa)
#
#
# Indices 1 2 3 4 5 6 
#
# 1 48.0234 38.8499 24.3853 0.0000 0.0000 0.0000
# 2 38.8499 144.9861 49.5403 0.0000 0.0000 0.0000
# 3 24.3853 49.5403 84.0483 0.0000 0.0000 0.0000
# 4 0.0000 0.0000 0.0000 8.3035 0.0000 0.0000
# 5 0.0000 0.0000 0.0000 0.0000 15.1234 0.0000
# 6 0.0000 0.0000 0.0000 0.0000 0.0000 28.7536
#
#
#
# Elastic Compliance Matrix: (Units=1/GPa)
#
#
# Indices 1 2 3 4 5 6 
#
# 1 0.027953 -0.005909 -0.004627 0.000000 0.000000 0.000000
# 2 -0.005909 0.009886 -0.004113 0.000000 0.000000 0.000000
# 3 -0.004627 -0.004113 0.015664 0.000000 0.000000 0.000000
# 4 0.000000 0.000000 0.000000 0.120430 0.000000 0.000000
# 5 0.000000 0.000000 0.000000 0.000000 0.066123 0.000000
# 6 0.000000 0.000000 0.000000 0.000000 0.000000 0.034778
#
#
# Mechanical properties :
#
#
# Convention : Reuss Voigt Hill
#
# Bulk Modulus (GPa) = 41.31247 55.84540 48.57893
# Shear Modulus (GPa) = 16.01533 21.38828 18.70180
#
# Velocity S-wave (km/s) = 3.01706 3.48661 3.26030
# Velocity P-wave (km/s) = 5.96805 6.92456 6.46402
#
# Compressibility (1/GPa) = 0.02420577
#
# Stress axis : x y z
#
# Youngs Moduli (GPa) = 35.77416 101.15513 63.83887
#
# Poissons Ratio (x) = 0.59774 0.29539
# Poissons Ratio (y) = 0.21140 0.26254
# Poissons Ratio (z) = 0.16553 0.41600
#
# Static dielectric constant tensor:
#      x y z
#    x 3.087360 0.000000 0.000000 
#    y 0.000000 3.483140 0.000000 
#    z 0.000000 0.000000 3.287710 
# 
# 
# High freq. dielectric constant tensor:
#      x y z
#    x 1.663560 0.000000 0.000000 
#    y 0.000000 1.691010 0.000000 
#    z 0.000000 0.000000 1.660420 
# 
# From -- ./inp_files/67641.got.cif
#   From: 2010.03.12/outbox.cif.g09.slc.cpg/sg65_34_cif.got.tgz:67641.got - 2010.04.10 20:52:16.
