data_PCOD8265067
_publ_section_title
;
Structure prediction by ZEFSAII (Michael W. Deem and Ramdas Pophale) SiO2 
 PCOD8265067
Probable space group: C M M M
;
_chemical_formula_sum "Si O2"
_cell_formula_units_Z 104
_cell_length_a 30.479224
_cell_length_b 8.599192
_cell_length_c 28.591426
_cell_angle_alpha 90.000000
_cell_angle_beta 90.000000
_cell_angle_gamma 90.000000
_cell_volume 7493.718380
_symmetry_space_group_name_H-M "C M M M"
_symmetry_group_IT_number 65
_symmetry_cell_setting 'orthorhombic'
loop_
_space_group_symop_operation_xyz
x,y,z
-x,-y,z
x,-y,-z
-x,y,-z
-x,-y,-z
x,y,-z
-x,y,z
x,-y,z
1/2+x,1/2+y,z
1/2-x,1/2-y,z
1/2+x,1/2-y,-z
1/2-x,1/2+y,-z
1/2-x,1/2-y,-z
1/2+x,1/2+y,-z
1/2-x,1/2+y,z
1/2+x,1/2-y,z
loop_
_atom_site_type_symbol
_atom_site_label
_atom_site_fract_x
_atom_site_fract_y
_atom_site_fract_z
Si Si1 0.200949 0.184214 0.687817
Si Si2 0.863714 0.677889 0.945137
Si Si3 0.702232 0.318256 0.875891
Si Si4 0.798833 0.316036 0.781460
Si Si5 0.700942 0.815574 0.406069
Si Si6 0.299067 0.684480 0.500000
Si Si7 0.547859 0.675062 0.944499
O O1 0.250000 0.250000 0.689815
O O2 0.177116 0.242650 0.735555
O O3 0.177161 0.253750 0.641318
O O4 0.201197 0.000000 0.685020
O O5 0.853020 0.500000 0.933468
O O6 0.828630 0.787253 0.920044
O O7 0.912813 0.715666 0.926408
O O8 0.860039 0.713330 0.000000
O O9 0.707043 0.500000 0.866605
O O10 0.750000 0.250000 0.887063
O O11 0.679275 0.238717 0.830165
O O12 0.799119 0.500000 0.776706
O O13 0.750000 0.250000 0.784472
O O14 0.750000 0.750000 0.405193
O O15 0.677131 0.748839 0.452896
O O16 0.701061 0.000000 0.407302
O O17 0.298970 0.500000 0.500000
O O18 0.250000 0.750000 0.500000
O O19 0.500000 0.734047 0.926086
O O20 0.556361 0.500000 0.926455
O O21 0.547066 0.676949 0.000000
#
# Coordination Sequence:
#
# PCOD8265067 Si02
#       7
#    16  16  16  16  16   8  16
#     4  10  16  23  33  46  60  75  97 126 160 197
#     4  10  20  32  45  62  82 102 125 151 179 214
#     4  11  21  33  46  58  74  97 124 153 185 220
#     4  10  17  27  40  53  67  83 106 137 172 208
#     4  10  16  22  29  39  53  71  93 119 152 191
#     4  10  16  22  28  36  50  70  92 116 148 190
#     4   8  14  26  44  64  84 104 124 146 174 208
#
# _framework density 13.87829
#
# number of rings (size 3 to 8) (size 9 to 14) (size 15 to 20)
#    0.000    2.154    0.000   10.846    0.000    1.538 
#    0.000    1.538    0.000    0.000    0.000    0.000 
#    0.000    0.000    0.000    0.000    0.000    0.000 
#
# Total GULP energy -644332.815130 kJ/mol
# GULP energy per Si atom -12391.015676 kJ/mol
# Density = 1.384670 g / cm^3
# Si number density = 13.878290 Si / 1000 Ang^3
#
#
#
# Elastic Constant Matrix: (Units=GPa)
#
#
# Indices 1 2 3 4 5 6 
#
# 1 37.3511 16.4620 25.6395 0.0000 0.0000 0.0000
# 2 16.4620 120.6762 38.3553 0.0000 0.0000 0.0000
# 3 25.6395 38.3553 85.7217 0.0000 0.0000 0.0000
# 4 0.0000 0.0000 0.0000 26.2434 0.0000 0.0000
# 5 0.0000 0.0000 0.0000 0.0000 0.2043 0.0000
# 6 0.0000 0.0000 0.0000 0.0000 0.0000 13.1515
#
#
#
# Elastic Compliance Matrix: (Units=1/GPa)
#
#
# Indices 1 2 3 4 5 6 
#
# 1 0.033965 -0.001637 -0.009426 0.000000 0.000000 0.000000
# 2 -0.001637 0.009739 -0.003868 0.000000 0.000000 0.000000
# 3 -0.009426 -0.003868 0.016216 0.000000 0.000000 0.000000
# 4 0.000000 0.000000 0.000000 0.038105 0.000000 0.000000
# 5 0.000000 0.000000 0.000000 0.000000 4.895229 0.000000
# 6 0.000000 0.000000 0.000000 0.000000 0.000000 0.076037
#
#
# Mechanical properties :
#
#
# Convention : Reuss Voigt Hill
#
# Bulk Modulus (GPa) = 33.27025 44.96252 39.11638
# Shear Modulus (GPa) = 0.97863 18.80598 9.89231
#
# Velocity S-wave (km/s) = 0.84064 3.68511 2.67271
# Velocity P-wave (km/s) = 4.99671 7.11160 6.14581
#
# Compressibility (1/GPa) = 0.03005689
#
# Stress axis : x y z
#
# Youngs Moduli (GPa) = 29.44178 102.67572 61.66801
#
# Poissons Ratio (x) = 0.16811 0.58131
# Poissons Ratio (y) = 0.04820 0.23854
# Poissons Ratio (z) = 0.27753 0.39716
#
# Static dielectric constant tensor:
#      x y z
#    x 2.321560 0.000000 0.000000 
#    y 0.000000 2.853360 0.000000 
#    z 0.000000 0.000000 4.067620 
# 
# 
# High freq. dielectric constant tensor:
#      x y z
#    x 1.443060 0.000000 0.000000 
#    y 0.000000 1.551880 0.000000 
#    z 0.000000 0.000000 1.537540 
# 
# From -- ./inp_files/78367.got.cif
#   From: 2010.03.12/outbox.cif.g09.slc.cpg/sg65_40_cif.got.tgz:78367.got - 2010.04.10 20:52:16.
