data_PCOD8265073
_publ_section_title
;
Structure prediction by ZEFSAII (Michael W. Deem and Ramdas Pophale) SiO2 
 PCOD8265073
Probable space group: C M M M
;
_chemical_formula_sum "Si O2"
_cell_formula_units_Z 88
_cell_length_a 19.078263
_cell_length_b 8.724352
_cell_length_c 28.581270
_cell_angle_alpha 90.000000
_cell_angle_beta 90.000000
_cell_angle_gamma 90.000000
_cell_volume 4757.223260
_symmetry_space_group_name_H-M "C M M M"
_symmetry_group_IT_number 65
_symmetry_cell_setting 'orthorhombic'
loop_
_space_group_symop_operation_xyz
x,y,z
-x,-y,z
x,-y,-z
-x,y,-z
-x,-y,-z
x,y,-z
-x,y,z
x,-y,z
1/2+x,1/2+y,z
1/2-x,1/2-y,z
1/2+x,1/2-y,-z
1/2-x,1/2+y,-z
1/2-x,1/2-y,-z
1/2+x,1/2+y,-z
1/2-x,1/2+y,z
1/2+x,1/2-y,z
loop_
_atom_site_type_symbol
_atom_site_label
_atom_site_fract_x
_atom_site_fract_y
_atom_site_fract_z
Si Si1 0.677250 0.179840 0.446087
Si Si2 0.171975 0.817560 0.000000
Si Si3 0.420473 0.681918 0.628734
Si Si4 0.673767 0.679163 0.184498
Si Si5 0.673979 0.321211 0.287135
Si Si6 0.171946 0.681767 0.906912
O O1 0.665593 0.224849 0.500000
O O2 0.750000 0.250000 0.427232
O O3 0.612544 0.249130 0.418005
O O4 0.680542 0.000000 0.438383
O O5 0.250000 0.750000 0.000000
O O6 0.133983 0.753479 0.047029
O O7 0.172783 0.000000 0.000000
O O8 0.500000 0.740272 0.632463
O O9 0.416976 0.500000 0.625870
O O10 0.379245 0.744859 0.674257
O O11 0.678206 0.500000 0.172758
O O12 0.750000 0.750000 0.188659
O O13 0.639620 0.710225 0.235561
O O14 0.633270 0.763595 0.141251
O O15 0.684884 0.500000 0.294252
O O16 0.750000 0.250000 0.294087
O O17 0.172897 0.500000 0.910970
O O18 0.250000 0.750000 0.904361
#
# Coordination Sequence:
#
# PCOD8265073 Si02
#       6
#    16   8  16  16  16  16
#     4  10  21  37  57  80 105 133 167 206 246 290
#     4  10  16  22  30  42  64  98 137 174 217 268
#     4  10  21  36  53  75 104 136 168 203 246 294
#     4   9  15  24  37  54  76 103 139 182 227 272
#     4   9  18  31  48  69  92 121 158 200 242 286
#     4  10  16  22  31  46  69  98 135 177 221 268
#
# _framework density 18.498184999999999
#
# number of rings (size 3 to 8) (size 9 to 14) (size 15 to 20)
#    0.000    2.364    0.000    6.273    0.000    4.727 
#    0.000    1.818    0.000    0.000    0.000    0.000 
#    0.000    0.000    0.000    0.818    0.000   20.182 
#
# Total GULP energy -545266.006416 kJ/mol
# GULP energy per Si atom -12392.409237 kJ/mol
# Density = 1.845608 g / cm^3
# Si number density = 18.498185 Si / 1000 Ang^3
#
#
#
# Elastic Constant Matrix: (Units=GPa)
#
#
# Indices 1 2 3 4 5 6 
#
# 1 77.2009 27.9766 61.3956 0.0000 0.0000 0.0000
# 2 27.9766 95.3818 50.4910 0.0000 0.0000 0.0000
# 3 61.3956 50.4910 153.4608 0.0000 0.0000 0.0000
# 4 0.0000 0.0000 0.0000 31.6786 0.0000 0.0000
# 5 0.0000 0.0000 0.0000 0.0000 3.4501 0.0000
# 6 0.0000 0.0000 0.0000 0.0000 0.0000 14.9785
#
#
#
# Elastic Compliance Matrix: (Units=1/GPa)
#
#
# Indices 1 2 3 4 5 6 
#
# 1 0.019279 -0.001903 -0.007087 0.000000 0.000000 0.000000
# 2 -0.001903 0.012883 -0.003477 0.000000 0.000000 0.000000
# 3 -0.007087 -0.003477 0.010496 0.000000 0.000000 0.000000
# 4 0.000000 0.000000 0.000000 0.031567 0.000000 0.000000
# 5 0.000000 0.000000 0.000000 0.000000 0.289843 0.000000
# 6 0.000000 0.000000 0.000000 0.000000 0.000000 0.066762
#
#
# Mechanical properties :
#
#
# Convention : Reuss Voigt Hill
#
# Bulk Modulus (GPa) = 56.42405 67.30778 61.86591
# Shear Modulus (GPa) = 10.83018 22.43346 16.63182
#
# Velocity S-wave (km/s) = 2.42228 3.48622 3.00176
# Velocity P-wave (km/s) = 6.19612 7.25742 6.74767
#
# Compressibility (1/GPa) = 0.01772294
#
# Stress axis : x y z
#
# Youngs Moduli (GPa) = 51.87041 77.62061 95.27776
#
# Poissons Ratio (x) = 0.14774 0.67521
# Poissons Ratio (y) = 0.09872 0.33131
# Poissons Ratio (z) = 0.36759 0.26991
#
# Static dielectric constant tensor:
#      x y z
#    x 2.897010 0.000000 0.000000 
#    y 0.000000 3.393020 0.000000 
#    z 0.000000 0.000000 4.879450 
# 
# 
# High freq. dielectric constant tensor:
#      x y z
#    x 1.639080 0.000000 0.000000 
#    y 0.000000 1.725210 0.000000 
#    z 0.000000 0.000000 1.753670 
# 
# From -- ./inp_files/77937.got.cif
#   From: 2010.03.12/outbox.cif.g09.slc.cpg/sg65_39_cif.got.tgz:77937.got - 2010.04.10 20:52:16.
