data_PCOD8265872
_publ_section_title
;
Structure prediction by ZEFSAII (Michael W. Deem and Ramdas Pophale) SiO2 
 PCOD8265872
Probable space group: C M M M
;
_chemical_formula_sum "Si O2"
_cell_formula_units_Z 72
_cell_length_a 16.017382
_cell_length_b 8.711609
_cell_length_c 25.010015
_cell_angle_alpha 90.000000
_cell_angle_beta 90.000000
_cell_angle_gamma 90.000000
_cell_volume 3489.826694
_symmetry_space_group_name_H-M "C M M M"
_symmetry_group_IT_number 65
_symmetry_cell_setting 'orthorhombic'
loop_
_space_group_symop_operation_xyz
x,y,z
-x,-y,z
x,-y,-z
-x,y,-z
-x,-y,-z
x,y,-z
-x,y,z
x,-y,z
1/2+x,1/2+y,z
1/2-x,1/2-y,z
1/2+x,1/2-y,-z
1/2-x,1/2+y,-z
1/2-x,1/2-y,-z
1/2+x,1/2+y,-z
1/2-x,1/2+y,z
1/2+x,1/2-y,z
loop_
_atom_site_type_symbol
_atom_site_label
_atom_site_fract_x
_atom_site_fract_y
_atom_site_fract_z
Si Si1 0.500000 0.324239 0.936823
Si Si2 0.591894 0.818174 0.773599
Si Si3 0.837449 0.681794 0.116379
Si Si4 0.841235 0.179155 0.557889
Si Si5 0.158612 0.681959 0.662084
O O1 0.500000 0.500000 0.917452
O O2 0.583954 0.243246 0.916477
O O3 0.500000 0.311233 0.000000
O O4 0.500000 0.755450 0.787808
O O5 0.653124 0.766962 0.821414
O O6 0.617977 0.749974 0.716111
O O7 0.590612 0.000000 0.769479
O O8 0.835445 0.500000 0.109789
O O9 0.750000 0.750000 0.094665
O O10 0.886510 0.206569 0.500000
O O11 0.750000 0.250000 0.553708
O O12 0.889371 0.259323 0.608136
O O13 0.833787 0.000000 0.570287
O O14 0.159145 0.500000 0.663018
O O15 0.250000 0.750000 0.659244
#
# Coordination Sequence:
#
# PCOD8265872 Si02
#       5
#     8  16  16  16  16
#     4  11  25  45  67  95 131 167 210 259 302 353
#     4   9  18  34  55  80 111 148 188 234 291 349
#     4  11  22  40  67  95 128 167 208 254 306 364
#     4   9  16  26  41  62  92 128 168 218 274 333
#     4  10  18  28  47  72 101 133 171 222 276 339
#
# _framework density 20.631397
#
# number of rings (size 3 to 8) (size 9 to 14) (size 15 to 20)
#    0.000    2.111    1.111    4.333    0.000    2.667 
#    0.000    3.333    0.000    0.667    0.000    4.667 
#    0.000    0.000    0.000    0.000    0.000    0.000 
#
# Total GULP energy -446054.769361 kJ/mol
# GULP energy per Si atom -12390.410260 kJ/mol
# Density = 2.058444 g / cm^3
# Si number density = 20.631397 Si / 1000 Ang^3
#
#
#
# Elastic Constant Matrix: (Units=GPa)
#
#
# Indices 1 2 3 4 5 6 
#
# 1 110.1746 36.7053 42.2704 0.0000 0.0000 0.0000
# 2 36.7053 98.8101 46.7085 0.0000 0.0000 0.0000
# 3 42.2704 46.7085 119.6569 0.0000 0.0000 0.0000
# 4 0.0000 0.0000 0.0000 28.9129 0.0000 0.0000
# 5 0.0000 0.0000 0.0000 0.0000 20.3128 0.0000
# 6 0.0000 0.0000 0.0000 0.0000 0.0000 20.8391
#
#
#
# Elastic Compliance Matrix: (Units=1/GPa)
#
#
# Indices 1 2 3 4 5 6 
#
# 1 0.011089 -0.002781 -0.002832 0.000000 0.000000 0.000000
# 2 -0.002781 0.013108 -0.004134 0.000000 0.000000 0.000000
# 3 -0.002832 -0.004134 0.010972 0.000000 0.000000 0.000000
# 4 0.000000 0.000000 0.000000 0.034587 0.000000 0.000000
# 5 0.000000 0.000000 0.000000 0.000000 0.049230 0.000000
# 6 0.000000 0.000000 0.000000 0.000000 0.000000 0.047987
#
#
# Mechanical properties :
#
#
# Convention : Reuss Voigt Hill
#
# Bulk Modulus (GPa) = 63.79757 64.44555 64.12156
# Shear Modulus (GPa) = 26.08363 27.54346 26.81354
#
# Velocity S-wave (km/s) = 3.55951 3.65777 3.60897
# Velocity P-wave (km/s) = 6.91977 7.01024 6.96515
#
# Compressibility (1/GPa) = 0.01567458
#
# Stress axis : x y z
#
# Youngs Moduli (GPa) = 90.17566 76.29095 91.14497
#
# Poissons Ratio (x) = 0.21214 0.25813
# Poissons Ratio (y) = 0.25075 0.37682
# Poissons Ratio (z) = 0.25538 0.31541
#
# Static dielectric constant tensor:
#      x y z
#    x 3.523210 0.000000 0.000000 
#    y 0.000000 3.695260 0.000000 
#    z 0.000000 0.000000 4.741910 
# 
# 
# High freq. dielectric constant tensor:
#      x y z
#    x 1.776310 0.000000 0.000000 
#    y 0.000000 1.795160 0.000000 
#    z 0.000000 0.000000 1.832380 
# 
# From -- ./inp_files/74603.got.cif
#   From: 2010.03.12/outbox.cif.g09.slc.cpg/sg65_38_cif.got.tgz:74603.got - 2010.04.10 20:52:16.
