data_PCOD8265560
_publ_section_title
;
Structure prediction by ZEFSAII (Michael W. Deem and Ramdas Pophale) SiO2 
 PCOD8265560
Probable space group: C M M M
;
_chemical_formula_sum "Si O2"
_cell_formula_units_Z 120
_cell_length_a 26.494095
_cell_length_b 22.899665
_cell_length_c 13.786119
_cell_angle_alpha 90.000000
_cell_angle_beta 90.000000
_cell_angle_gamma 90.000000
_cell_volume 8364.119735
_symmetry_space_group_name_H-M "C M M M"
_symmetry_group_IT_number 65
_symmetry_cell_setting 'orthorhombic'
loop_
_space_group_symop_operation_xyz
x,y,z
-x,-y,z
x,-y,-z
-x,y,-z
-x,-y,-z
x,y,-z
-x,y,z
x,-y,z
1/2+x,1/2+y,z
1/2-x,1/2-y,z
1/2+x,1/2-y,-z
1/2-x,1/2+y,-z
1/2-x,1/2-y,-z
1/2+x,1/2+y,-z
1/2-x,1/2+y,z
1/2+x,1/2-y,z
loop_
_atom_site_type_symbol
_atom_site_label
_atom_site_fract_x
_atom_site_fract_y
_atom_site_fract_z
Si Si1 0.554864 0.432053 0.712945
Si Si2 0.848499 0.069007 0.393630
Si Si3 0.191487 0.567277 0.113130
Si Si4 0.000000 0.434834 0.884275
Si Si5 0.894099 0.880648 0.887556
Si Si6 0.905178 0.363255 0.884572
Si Si7 0.797882 0.931557 0.799759
Si Si8 0.557176 0.740166 0.114573
O O1 0.500000 0.402814 0.693209
O O2 0.550630 0.500000 0.692913
O O3 0.597513 0.404771 0.642120
O O4 0.571065 0.423654 0.824785
O O5 0.834833 0.095171 0.500000
O O6 0.805949 0.084633 0.313888
O O7 0.853627 0.000000 0.401293
O O8 0.175957 0.500000 0.131554
O O9 0.147430 0.609485 0.152867
O O10 0.241102 0.584698 0.172947
O O11 0.202666 0.577530 0.000000
O O12 0.049349 0.402514 0.843888
O O13 0.000000 0.500000 0.842502
O O14 0.000000 0.434824 0.000000
O O15 0.835300 0.893156 0.866166
O O16 0.908673 0.814882 0.855740
O O17 0.906116 0.891701 0.000000
O O18 0.913833 0.297556 0.845325
O O19 0.905030 0.365210 0.000000
O O20 0.809248 0.000000 0.819112
O O21 0.500000 0.735496 0.157348
O O22 0.552643 0.745489 0.000000
#
# Coordination Sequence:
#
# PCOD8265560 Si02
#       8
#    16  16  16   8  16  16  16  16
#     4   9  17  26  35  52  76  97 123 164 204 232
#     4   8  14  25  40  55  71  94 121 149 192 245
#     4   9  16  25  38  56  79 106 130 153 188 228
#     4   9  14  20  34  54  74  96 126 162 192 223
#     4  10  18  26  37  51  70 103 141 165 186 219
#     4   9  15  24  36  52  74 100 131 162 189 222
#     4   9  17  28  40  55  76 100 128 164 197 224
#     4   9  16  26  37  49  69 100 134 167 197 220
#
# _framework density 14.346997
#
# number of rings (size 3 to 8) (size 9 to 14) (size 15 to 20)
#    0.000    3.000    0.667    2.400    0.000    4.267 
#    0.000    2.667    0.000    3.200    0.000    0.000 
#    0.000    8.533    0.000    1.667    0.000   13.533 
#
# Total GULP energy -743540.511819 kJ/mol
# GULP energy per Si atom -12392.341864 kJ/mol
# Density = 1.431434 g / cm^3
# Si number density = 14.346997 Si / 1000 Ang^3
#
#
#
# Elastic Constant Matrix: (Units=GPa)
#
#
# Indices 1 2 3 4 5 6 
#
# 1 125.1246 42.2204 31.2187 0.0000 0.0000 0.0000
# 2 42.2204 52.8354 9.5713 0.0000 0.0000 0.0000
# 3 31.2187 9.5713 56.0372 0.0000 0.0000 0.0000
# 4 0.0000 0.0000 0.0000 3.7651 0.0000 0.0000
# 5 0.0000 0.0000 0.0000 0.0000 9.2136 0.0000
# 6 0.0000 0.0000 0.0000 0.0000 0.0000 21.6509
#
#
#
# Elastic Compliance Matrix: (Units=1/GPa)
#
#
# Indices 1 2 3 4 5 6 
#
# 1 0.012322 -0.008878 -0.005348 0.000000 0.000000 0.000000
# 2 -0.008878 0.025927 0.000517 0.000000 0.000000 0.000000
# 3 -0.005348 0.000517 0.020737 0.000000 0.000000 0.000000
# 4 0.000000 0.000000 0.000000 0.265595 0.000000 0.000000
# 5 0.000000 0.000000 0.000000 0.000000 0.108536 0.000000
# 6 0.000000 0.000000 0.000000 0.000000 0.000000 0.046187
#
#
# Mechanical properties :
#
#
# Convention : Reuss Voigt Hill
#
# Bulk Modulus (GPa) = 31.67724 44.44643 38.06184
# Shear Modulus (GPa) = 9.66662 16.99171 13.32917
#
# Velocity S-wave (km/s) = 2.59853 3.44516 3.05135
# Velocity P-wave (km/s) = 5.57947 6.84634 6.24511
#
# Compressibility (1/GPa) = 0.03156840
#
# Stress axis : x y z
#
# Youngs Moduli (GPa) = 81.15582 38.56985 48.22409
#
# Poissons Ratio (x) = 0.34241 0.25792
# Poissons Ratio (y) = 0.72046 -0.02495
# Poissons Ratio (z) = 0.43405 -0.01995
#
# Static dielectric constant tensor:
#      x y z
#    x 2.949820 0.000000 0.000000 
#    y 0.000000 2.766400 0.000000 
#    z 0.000000 0.000000 2.604510 
# 
# 
# High freq. dielectric constant tensor:
#      x y z
#    x 1.553800 0.000000 0.000000 
#    y 0.000000 1.525970 0.000000 
#    z 0.000000 0.000000 1.499070 
# 
# From -- ./inp_files/47261.got.cif
#   From: 2010.03.12/outbox.cif.g09.slc.cpg/sg65_24_cif.got.tgz:47261.got - 2010.04.10 20:52:16.
