data_PCOD8265736
_publ_section_title
;
Structure prediction by ZEFSAII (Michael W. Deem and Ramdas Pophale) SiO2 
 PCOD8265736
Probable space group: C M M M
;
_chemical_formula_sum "Si O2"
_cell_formula_units_Z 96
_cell_length_a 31.017215
_cell_length_b 13.490900
_cell_length_c 14.271012
_cell_angle_alpha 90.000000
_cell_angle_beta 90.000000
_cell_angle_gamma 90.000000
_cell_volume 5971.707053
_symmetry_space_group_name_H-M "C M M M"
_symmetry_group_IT_number 65
_symmetry_cell_setting 'orthorhombic'
loop_
_space_group_symop_operation_xyz
x,y,z
-x,-y,z
x,-y,-z
-x,y,-z
-x,-y,-z
x,y,-z
-x,y,z
x,-y,z
1/2+x,1/2+y,z
1/2-x,1/2-y,z
1/2+x,1/2-y,-z
1/2-x,1/2+y,-z
1/2-x,1/2-y,-z
1/2+x,1/2+y,-z
1/2-x,1/2+y,z
1/2+x,1/2-y,z
loop_
_atom_site_type_symbol
_atom_site_label
_atom_site_fract_x
_atom_site_fract_y
_atom_site_fract_z
Si Si1 0.952821 0.615903 0.276512
Si Si2 0.101052 0.613681 0.104734
Si Si3 0.220004 0.382532 0.395903
Si Si4 0.235853 0.885152 0.207229
Si Si5 0.188092 0.718413 0.110964
Si Si6 0.874865 0.387354 0.608190
O O1 0.956076 0.500000 0.300065
O O2 0.940611 0.633828 0.168164
O O3 0.914614 0.666253 0.338144
O O4 0.000000 0.664541 0.295586
O O5 0.116479 0.500000 0.111997
O O6 0.140909 0.680706 0.138499
O O7 0.087081 0.641498 0.000000
O O8 0.235441 0.346452 0.500000
O O9 0.214600 0.500000 0.398176
O O10 0.253945 0.351960 0.315251
O O11 0.172173 0.338099 0.372625
O O12 0.196246 0.820589 0.167691
O O13 0.277402 0.864118 0.142803
O O14 0.223193 0.000000 0.201444
O O15 0.192799 0.736075 0.000000
O O16 0.886377 0.382206 0.500000
O O17 0.873133 0.500000 0.645122
#
# Coordination Sequence:
#
# PCOD8265736 Si02
#       6
#    16  16  16  16  16  16
#     4   9  16  24  36  56  78  99 126 159 194 234
#     4   9  17  29  43  56  75 106 137 165 199 237
#     4   8  14  25  41  59  78 104 138 170 199 235
#     4  10  18  28  43  60  80 105 133 171 211 237
#     4  10  20  30  40  58  81 106 139 171 200 243
#     4   8  13  21  33  50  73 100 129 159 189 225
#
# _framework density 16.075804999999999
#
# number of rings (size 3 to 8) (size 9 to 14) (size 15 to 20)
#    0.000    3.000    0.000    3.500    0.000    5.333 
#    0.000    5.000    0.000    1.000    0.000    0.000 
#    0.000    0.667    0.000    3.667    0.000    0.167 
#
# Total GULP energy -594697.603058 kJ/mol
# GULP energy per Si atom -12389.533397 kJ/mol
# Density = 1.603922 g / cm^3
# Si number density = 16.075805 Si / 1000 Ang^3
#
#
#
# Elastic Constant Matrix: (Units=GPa)
#
#
# Indices 1 2 3 4 5 6 
#
# 1 58.2526 17.0365 29.3421 0.0000 0.0000 0.0000
# 2 17.0365 42.8101 13.7294 0.0000 0.0000 0.0000
# 3 29.3421 13.7294 76.0791 0.0000 0.0000 0.0000
# 4 0.0000 0.0000 0.0000 5.8446 0.0000 0.0000
# 5 0.0000 0.0000 0.0000 0.0000 19.7971 0.0000
# 6 0.0000 0.0000 0.0000 0.0000 0.0000 12.9625
#
#
#
# Elastic Compliance Matrix: (Units=1/GPa)
#
#
# Indices 1 2 3 4 5 6 
#
# 1 0.022979 -0.006690 -0.007655 0.000000 0.000000 0.000000
# 2 -0.006690 0.026741 -0.002246 0.000000 0.000000 0.000000
# 3 -0.007655 -0.002246 0.016502 0.000000 0.000000 0.000000
# 4 0.000000 0.000000 0.000000 0.171099 0.000000 0.000000
# 5 0.000000 0.000000 0.000000 0.000000 0.050512 0.000000
# 6 0.000000 0.000000 0.000000 0.000000 0.000000 0.077146
#
#
# Mechanical properties :
#
#
# Convention : Reuss Voigt Hill
#
# Bulk Modulus (GPa) = 30.26535 33.03977 31.65256
# Shear Modulus (GPa) = 12.21973 15.52308 13.87140
#
# Velocity S-wave (km/s) = 2.76004 3.11081 2.94066
# Velocity P-wave (km/s) = 5.38745 5.78791 5.59127
#
# Compressibility (1/GPa) = 0.03304109
#
# Stress axis : x y z
#
# Youngs Moduli (GPa) = 43.51790 37.39526 60.59870
#
# Poissons Ratio (x) = 0.25016 0.46390
# Poissons Ratio (y) = 0.29111 0.13609
# Poissons Ratio (z) = 0.33314 0.08398
#
# Static dielectric constant tensor:
#      x y z
#    x 3.092810 0.000000 0.000000 
#    y 0.000000 2.585290 0.000000 
#    z 0.000000 0.000000 3.355810 
# 
# 
# High freq. dielectric constant tensor:
#      x y z
#    x 1.601140 0.000000 0.000000 
#    y 0.000000 1.551780 0.000000 
#    z 0.000000 0.000000 1.640560 
# 
# From -- ./inp_files/41260.got.cif
#   From: 2010.03.12/outbox.cif.g09.slc.cpg/sg65_21_cif.got.tgz:41260.got - 2010.04.10 20:52:16.
