data_PCOD8265989
_publ_section_title
;
Structure prediction by ZEFSAII (Michael W. Deem and Ramdas Pophale) SiO2 
 PCOD8265989
Probable space group: C M M M
;
_chemical_formula_sum "Si O2"
_cell_formula_units_Z 72
_cell_length_a 24.803595
_cell_length_b 9.640948
_cell_length_c 18.361182
_cell_angle_alpha 90.000000
_cell_angle_beta 90.000000
_cell_angle_gamma 90.000000
_cell_volume 4390.712566
_symmetry_space_group_name_H-M "C M M M"
_symmetry_group_IT_number 65
_symmetry_cell_setting 'orthorhombic'
loop_
_space_group_symop_operation_xyz
x,y,z
-x,-y,z
x,-y,-z
-x,y,-z
-x,-y,-z
x,y,-z
-x,y,z
x,-y,z
1/2+x,1/2+y,z
1/2-x,1/2-y,z
1/2+x,1/2-y,-z
1/2-x,1/2+y,-z
1/2-x,1/2-y,-z
1/2+x,1/2+y,-z
1/2-x,1/2+y,z
1/2+x,1/2-y,z
loop_
_atom_site_type_symbol
_atom_site_label
_atom_site_fract_x
_atom_site_fract_y
_atom_site_fract_z
Si Si1 0.195760 0.336685 0.416255
Si Si2 0.000000 0.836551 0.419611
Si Si3 0.936118 0.244775 0.178699
Si Si4 0.936342 0.000000 0.079123
Si Si5 0.894509 0.832930 0.333011
Si Si6 0.436270 0.000000 0.917275
O O1 0.176833 0.327976 0.500000
O O2 0.202344 0.500000 0.393718
O O3 0.250000 0.250000 0.405186
O O4 0.153609 0.255702 0.366327
O O5 0.052765 0.788006 0.377328
O O6 0.000000 0.768742 0.500000
O O7 0.000000 0.000000 0.426184
O O8 0.902454 0.222754 0.251700
O O9 0.916879 0.376010 0.133361
O O10 0.000000 0.241490 0.196517
O O11 0.916671 0.129423 0.123699
O O12 0.000000 0.000000 0.069756
O O13 0.908577 0.000000 0.000000
O O14 0.884288 0.000000 0.335592
O O15 0.500000 0.000000 0.926793
O O16 0.411437 0.000000 0.000000
#
# Coordination Sequence:
#
# PCOD8265989 Si02
#       6
#    16   8  16   8  16   8
#     4  10  22  40  60  80 102 132 174 224 274 317
#     4   9  18  30  47  71 102 143 181 209 245 307
#     4  10  18  29  45  69 104 142 179 216 260 306
#     4   9  16  26  44  66  95 136 181 219 250 296
#     4  11  20  32  52  77 109 142 178 218 261 313
#     4   9  18  30  44  64  97 142 185 219 258 312
#
# _framework density 16.398250999999998
#
# number of rings (size 3 to 8) (size 9 to 14) (size 15 to 20)
#    0.000    2.111    2.222    2.000    1.556    4.889 
#    0.000    0.556    0.000    2.000    0.000    0.000 
#    0.000    5.333    0.000    0.000    0.000    0.000 
#
# Total GULP energy -446021.351032 kJ/mol
# GULP energy per Si atom -12389.481973 kJ/mol
# Density = 1.636093 g / cm^3
# Si number density = 16.398251 Si / 1000 Ang^3
#
#
#
# Elastic Constant Matrix: (Units=GPa)
#
#
# Indices 1 2 3 4 5 6 
#
# 1 65.5827 45.9818 58.2142 0.0000 0.0000 0.0000
# 2 45.9818 145.2410 77.3225 0.0000 0.0000 0.0000
# 3 58.2142 77.3225 164.4517 0.0000 0.0000 0.0000
# 4 0.0000 0.0000 0.0000 29.0317 0.0000 0.0000
# 5 0.0000 0.0000 0.0000 0.0000 -108.0326 0.0000
# 6 0.0000 0.0000 0.0000 0.0000 0.0000 25.5513
#
#
#
# Elastic Compliance Matrix: (Units=1/GPa)
#
#
# Indices 1 2 3 4 5 6 
#
# 1 0.023926 -0.004089 -0.006547 0.000000 0.000000 0.000000
# 2 -0.004089 0.009883 -0.003199 0.000000 0.000000 0.000000
# 3 -0.006547 -0.003199 0.009903 0.000000 0.000000 0.000000
# 4 0.000000 0.000000 0.000000 0.034445 0.000000 0.000000
# 5 0.000000 0.000000 0.000000 0.000000 -0.009256 0.000000
# 6 0.000000 0.000000 0.000000 0.000000 0.000000 0.039137
#
#
# Mechanical properties :
#
#
# Convention : Reuss Voigt Hill
#
# Bulk Modulus (GPa) = 62.34078 82.03470 72.18774
# Shear Modulus (GPa) = 35.44699 2.22720 18.83710
#
# Velocity S-wave (km/s) = 4.65438 1.16668 3.39296
# Velocity P-wave (km/s) = 8.18435 7.20763 7.71147
#
# Compressibility (1/GPa) = 0.01604086
#
# Stress axis : x y z
#
# Youngs Moduli (GPa) = 41.79466 101.18440 100.98403
#
# Poissons Ratio (x) = 0.41379 0.66114
# Poissons Ratio (y) = 0.17092 0.32307
# Poissons Ratio (z) = 0.27363 0.32371
#
# Static dielectric constant tensor:
#      x y z
#    x 2.728400 0.000000 0.000000 
#    y 0.000000 2.195010 0.000000 
#    z 0.000000 0.000000 3.441400 
# 
# 
# High freq. dielectric constant tensor:
#      x y z
#    x 1.580210 0.000000 0.000000 
#    y 0.000000 1.641400 0.000000 
#    z 0.000000 0.000000 1.647970 
# 
# From -- ./inp_files/49537.got.cif
#   From: 2010.03.12/outbox.cif.g09.slc.cpg/sg65_25_cif.got.tgz:49537.got - 2010.04.10 20:52:16.
