data_PCOD8265625
_publ_section_title
;
Structure prediction by ZEFSAII (Michael W. Deem and Ramdas Pophale) SiO2 
 PCOD8265625
Probable space group: C M M M
;
_chemical_formula_sum "Si O2"
_cell_formula_units_Z 104
_cell_length_a 9.571498
_cell_length_b 26.773298
_cell_length_c 22.976140
_cell_angle_alpha 90.000000
_cell_angle_beta 90.000000
_cell_angle_gamma 90.000000
_cell_volume 5887.878693
_symmetry_space_group_name_H-M "C M M M"
_symmetry_group_IT_number 65
_symmetry_cell_setting 'orthorhombic'
loop_
_space_group_symop_operation_xyz
x,y,z
-x,-y,z
x,-y,-z
-x,y,-z
-x,-y,-z
x,y,-z
-x,y,z
x,-y,z
1/2+x,1/2+y,z
1/2-x,1/2-y,z
1/2+x,1/2-y,-z
1/2-x,1/2+y,-z
1/2-x,1/2-y,-z
1/2+x,1/2+y,-z
1/2-x,1/2+y,z
1/2+x,1/2-y,z
loop_
_atom_site_type_symbol
_atom_site_label
_atom_site_fract_x
_atom_site_fract_y
_atom_site_fract_z
Si Si1 0.161921 0.798036 0.565578
Si Si2 0.345489 0.207000 0.263186
Si Si3 0.159527 0.944003 0.754315
Si Si4 0.154249 0.294644 0.125701
Si Si5 0.656796 0.362146 0.327401
Si Si6 0.834699 0.500000 0.064899
Si Si7 0.666363 0.905598 0.140614
O O1 0.204187 0.813691 0.500000
O O2 0.250000 0.750000 0.586234
O O3 0.196196 0.845982 0.606731
O O4 0.000000 0.783122 0.568926
O O5 0.500000 0.209817 0.290656
O O6 0.250000 0.250000 0.291310
O O7 0.354311 0.211725 0.194504
O O8 0.269430 0.156812 0.281198
O O9 0.164085 0.921116 0.688202
O O10 0.254758 0.912731 0.798675
O O11 0.000000 0.942813 0.777430
O O12 0.217738 0.000000 0.750190
O O13 0.250000 0.250000 0.099178
O O14 0.208142 0.351364 0.112800
O O15 0.000000 0.287643 0.098402
O O16 0.500000 0.341987 0.313487
O O17 0.784461 0.550196 0.097497
O O18 0.000000 0.500000 0.061630
O O19 0.770230 0.500000 0.000000
O O20 0.500000 0.906526 0.152646
#
# Coordination Sequence:
#
# PCOD8265625 Si02
#       7
#    16  16  16  16  16   8  16
#     4   9  18  32  48  66  90 122 160 200 243 289
#     4  10  18  27  40  62  94 124 154 188 229 282
#     4  10  20  32  47  70  99 129 160 196 250 306
#     4   9  18  29  43  67  97 132 164 194 236 291
#     4  10  19  30  45  65  91 124 159 197 241 290
#     4   9  18  32  55  83 105 129 166 215 258 288
#     4  10  18  32  53  75 102 133 169 208 248 296
#
# _framework density 17.663408
#
# number of rings (size 3 to 8) (size 9 to 14) (size 15 to 20)
#    0.000    2.385    2.308    0.923    0.000    3.077 
#    0.000    0.000    0.000    1.846    0.000    3.231 
#    0.000    0.000    0.000    6.615    0.000    7.077 
#
# Total GULP energy -644204.623241 kJ/mol
# GULP energy per Si atom -12388.550447 kJ/mol
# Density = 1.762321 g / cm^3
# Si number density = 17.663408 Si / 1000 Ang^3
#
#
#
# Elastic Constant Matrix: (Units=GPa)
#
#
# Indices 1 2 3 4 5 6 
#
# 1 63.2404 39.4978 18.5810 0.0000 0.0000 0.0000
# 2 39.4978 140.3466 41.0151 0.0000 0.0000 0.0000
# 3 18.5810 41.0151 69.0348 0.0000 0.0000 0.0000
# 4 0.0000 0.0000 0.0000 22.6704 0.0000 0.0000
# 5 0.0000 0.0000 0.0000 0.0000 11.5090 0.0000
# 6 0.0000 0.0000 0.0000 0.0000 0.0000 23.1288
#
#
#
# Elastic Compliance Matrix: (Units=1/GPa)
#
#
# Indices 1 2 3 4 5 6 
#
# 1 0.019510 -0.004787 -0.002407 0.000000 0.000000 0.000000
# 2 -0.004787 0.009797 -0.004532 0.000000 0.000000 0.000000
# 3 -0.002407 -0.004532 0.017826 0.000000 0.000000 0.000000
# 4 0.000000 0.000000 0.000000 0.044110 0.000000 0.000000
# 5 0.000000 0.000000 0.000000 0.000000 0.086889 0.000000
# 6 0.000000 0.000000 0.000000 0.000000 0.000000 0.043236
#
#
# Mechanical properties :
#
#
# Convention : Reuss Voigt Hill
#
# Bulk Modulus (GPa) = 42.22949 52.31218 47.27084
# Shear Modulus (GPa) = 19.78523 23.03016 21.40770
#
# Velocity S-wave (km/s) = 3.35046 3.61478 3.48513
# Velocity P-wave (km/s) = 6.23917 6.86314 6.55858
#
# Compressibility (1/GPa) = 0.02368013
#
# Stress axis : x y z
#
# Youngs Moduli (GPa) = 51.25624 102.07260 56.09814
#
# Poissons Ratio (x) = 0.48865 0.13503
# Poissons Ratio (y) = 0.24538 0.25424
# Poissons Ratio (z) = 0.12337 0.46260
#
# Static dielectric constant tensor:
#      x y z
#    x 3.407910 0.000000 0.000000 
#    y 0.000000 3.476800 0.000000 
#    z 0.000000 0.000000 3.088720 
# 
# 
# High freq. dielectric constant tensor:
#      x y z
#    x 1.678830 0.000000 0.000000 
#    y 0.000000 1.681720 0.000000 
#    z 0.000000 0.000000 1.648660 
# 
# From -- ./inp_files/68215.got.cif
#   From: 2010.03.12/outbox.cif.g09.slc.cpg/sg65_35_cif.got.tgz:68215.got - 2010.04.10 20:52:16.
