data_PCOD8265780
_publ_section_title
;
Structure prediction by ZEFSAII (Michael W. Deem and Ramdas Pophale) SiO2 
 PCOD8265780
Probable space group: C M M M
;
_chemical_formula_sum "Si O2"
_cell_formula_units_Z 88
_cell_length_a 27.638016
_cell_length_b 8.723872
_cell_length_c 21.846958
_cell_angle_alpha 90.000000
_cell_angle_beta 90.000000
_cell_angle_gamma 90.000000
_cell_volume 5267.531271
_symmetry_space_group_name_H-M "C M M M"
_symmetry_group_IT_number 65
_symmetry_cell_setting 'orthorhombic'
loop_
_space_group_symop_operation_xyz
x,y,z
-x,-y,z
x,-y,-z
-x,y,-z
-x,-y,-z
x,y,-z
-x,y,z
x,-y,z
1/2+x,1/2+y,z
1/2-x,1/2-y,z
1/2+x,1/2-y,-z
1/2-x,1/2+y,-z
1/2-x,1/2-y,-z
1/2+x,1/2+y,-z
1/2-x,1/2+y,z
1/2+x,1/2-y,z
loop_
_atom_site_type_symbol
_atom_site_label
_atom_site_fract_x
_atom_site_fract_y
_atom_site_fract_z
Si Si1 0.644363 0.180339 0.067009
Si Si2 0.610137 0.680325 0.749163
Si Si3 0.301554 0.181487 0.814582
Si Si4 0.945277 0.322193 0.856323
Si Si5 0.057409 0.167808 0.500000
Si Si6 0.554259 0.316629 0.368823
O O1 0.681445 0.243709 0.118426
O O2 0.589477 0.220367 0.086879
O O3 0.651039 0.000000 0.062101
O O4 0.654567 0.255011 0.000000
O O5 0.619527 0.500000 0.749849
O O6 0.660194 0.765882 0.763579
O O7 0.568703 0.720736 0.798039
O O8 0.591431 0.738879 0.683167
O O9 0.250000 0.250000 0.797674
O O10 0.298731 0.000000 0.814151
O O11 0.938237 0.500000 0.838282
O O12 0.000000 0.285533 0.876236
O O13 0.071909 0.250237 0.564460
O O14 0.000000 0.149975 0.500000
O O15 0.081803 0.000000 0.500000
O O16 0.500000 0.257032 0.353419
O O17 0.553183 0.500000 0.372166
#
# Coordination Sequence:
#
# PCOD8265780 Si02
#       6
#    16  16  16  16   8  16
#     4   8  15  28  45  65  87 110 139 175 214 260
#     4  10  18  28  44  66  90 116 147 181 217 257
#     4  10  20  34  50  67  86 108 137 176 223 269
#     4   9  17  28  42  62  89 120 151 181 213 249
#     4   7  10  18  32  54  88 123 150 177 206 237
#     4   8  13  21  36  61  92 123 151 177 206 242
#
# _framework density 16.706116999999999
#
# number of rings (size 3 to 8) (size 9 to 14) (size 15 to 20)
#    0.000    3.182    0.000    3.818    0.000    1.818 
#    0.000    1.818    0.000   13.091    0.000    8.273 
#    0.000   10.182    0.000    0.000    0.000    0.000 
#
# Total GULP energy -545167.025095 kJ/mol
# GULP energy per Si atom -12390.159661 kJ/mol
# Density = 1.666809 g / cm^3
# Si number density = 16.706117 Si / 1000 Ang^3
#
#
#
# Elastic Constant Matrix: (Units=GPa)
#
#
# Indices 1 2 3 4 5 6 
#
# 1 107.9992 21.2107 56.1199 0.0000 0.0000 0.0000
# 2 21.2107 32.4456 19.9451 0.0000 0.0000 0.0000
# 3 56.1199 19.9451 146.0882 0.0000 0.0000 0.0000
# 4 0.0000 0.0000 0.0000 12.5468 0.0000 0.0000
# 5 0.0000 0.0000 0.0000 0.0000 15.6187 0.0000
# 6 0.0000 0.0000 0.0000 0.0000 0.0000 19.6887
#
#
#
# Elastic Compliance Matrix: (Units=1/GPa)
#
#
# Indices 1 2 3 4 5 6 
#
# 1 0.012459 -0.005679 -0.004011 0.000000 0.000000 0.000000
# 2 -0.005679 0.036233 -0.002765 0.000000 0.000000 0.000000
# 3 -0.004011 -0.002765 0.008763 0.000000 0.000000 0.000000
# 4 0.000000 0.000000 0.000000 0.079701 0.000000 0.000000
# 5 0.000000 0.000000 0.000000 0.000000 0.064026 0.000000
# 6 0.000000 0.000000 0.000000 0.000000 0.000000 0.050790
#
#
# Mechanical properties :
#
#
# Convention : Reuss Voigt Hill
#
# Bulk Modulus (GPa) = 30.72638 53.45381 42.09009
# Shear Modulus (GPa) = 17.37730 22.18802 19.78266
#
# Velocity S-wave (km/s) = 3.22867 3.64832 3.44489
# Velocity P-wave (km/s) = 5.68607 7.05783 6.40876
#
# Compressibility (1/GPa) = 0.03254533
#
# Stress axis : x y z
#
# Youngs Moduli (GPa) = 80.26469 27.59895 114.11089
#
# Poissons Ratio (x) = 0.15674 0.45766
# Poissons Ratio (y) = 0.45584 0.31554
# Poissons Ratio (z) = 0.32192 0.07632
#
# Static dielectric constant tensor:
#      x y z
#    x 3.060760 0.000000 0.000000 
#    y 0.000000 2.786110 0.000000 
#    z 0.000000 0.000000 3.593100 
# 
# 
# High freq. dielectric constant tensor:
#      x y z
#    x 1.622870 0.000000 0.000000 
#    y 0.000000 1.608080 0.000000 
#    z 0.000000 0.000000 1.645500 
# 
# From -- ./inp_files/66189.got.cif
#   From: 2010.03.12/outbox.cif.g09.slc.cpg/sg65_34_cif.got.tgz:66189.got - 2010.04.10 20:52:16.
