data_PCOD8265124
_publ_section_title
;
Structure prediction by ZEFSAII (Michael W. Deem and Ramdas Pophale) SiO2 
 PCOD8265124
Probable space group: C M M M
;
_chemical_formula_sum "Si O2"
_cell_formula_units_Z 64
_cell_length_a 8.614388
_cell_length_b 25.525859
_cell_length_c 17.799692
_cell_angle_alpha 90.000000
_cell_angle_beta 90.000000
_cell_angle_gamma 90.000000
_cell_volume 3913.968106
_symmetry_space_group_name_H-M "C M M M"
_symmetry_group_IT_number 65
_symmetry_cell_setting 'orthorhombic'
loop_
_space_group_symop_operation_xyz
x,y,z
-x,-y,z
x,-y,-z
-x,y,-z
-x,-y,-z
x,y,-z
-x,y,z
x,-y,z
1/2+x,1/2+y,z
1/2-x,1/2-y,z
1/2+x,1/2-y,-z
1/2-x,1/2+y,-z
1/2-x,1/2-y,-z
1/2+x,1/2+y,-z
1/2-x,1/2+y,z
1/2+x,1/2-y,z
loop_
_atom_site_type_symbol
_atom_site_label
_atom_site_fract_x
_atom_site_fract_y
_atom_site_fract_z
Si Si1 0.321387 0.613243 0.589274
Si Si2 0.183391 0.000000 0.418060
Si Si3 0.318783 0.193039 0.301876
Si Si4 0.683680 0.191431 0.000000
Si Si5 0.816360 0.808304 0.150254
O O1 0.296702 0.615396 0.500000
O O2 0.500000 0.625414 0.609710
O O3 0.271228 0.555242 0.621476
O O4 0.212015 0.656093 0.627157
O O5 0.262493 0.000000 0.500000
O O6 0.000000 0.000000 0.429094
O O7 0.500000 0.199227 0.287283
O O8 0.250000 0.250000 0.319660
O O9 0.240564 0.165686 0.228181
O O10 0.750000 0.250000 0.000000
O O11 0.746511 0.162970 0.075880
O O12 0.500000 0.192106 0.000000
O O13 0.750000 0.750000 0.153307
O O14 0.000000 0.808544 0.144710
#
# Coordination Sequence:
#
# PCOD8265124 Si02
#       5
#    16   8  16   8  16
#     4   9  17  31  50  69  88 113 146 183 222 265
#     4   7  12  26  49  71  87 106 137 178 223 267
#     4  11  21  32  44  61  88 121 153 185 222 263
#     4  10  16  24  38  58  82 109 142 177 214 256
#     4  10  17  27  41  58  81 111 146 181 217 257
#
# _framework density 16.351692
#
# number of rings (size 3 to 8) (size 9 to 14) (size 15 to 20)
#    0.000    2.375    0.000   10.125    0.000    1.000 
#    0.000    0.625    0.000    2.250    0.000    0.000 
#    0.000    1.000    0.000   10.750    0.000    6.000 
#
# Total GULP energy -396434.628297 kJ/mol
# GULP energy per Si atom -12388.582134 kJ/mol
# Density = 1.631447 g / cm^3
# Si number density = 16.351692 Si / 1000 Ang^3
#
#
#
# Elastic Constant Matrix: (Units=GPa)
#
#
# Indices 1 2 3 4 5 6 
#
# 1 127.1885 27.4523 36.6207 0.0000 0.0000 0.0000
# 2 27.4523 69.9402 38.2925 0.0000 0.0000 0.0000
# 3 36.6207 38.2925 81.8140 0.0000 0.0000 0.0000
# 4 0.0000 0.0000 0.0000 1.2319 0.0000 0.0000
# 5 0.0000 0.0000 0.0000 0.0000 28.5243 0.0000
# 6 0.0000 0.0000 0.0000 0.0000 0.0000 14.1942
#
#
#
# Elastic Compliance Matrix: (Units=1/GPa)
#
#
# Indices 1 2 3 4 5 6 
#
# 1 0.009195 -0.001823 -0.003263 0.000000 0.000000 0.000000
# 2 -0.001823 0.019586 -0.008351 0.000000 0.000000 0.000000
# 3 -0.003263 -0.008351 0.017592 0.000000 0.000000 0.000000
# 4 0.000000 0.000000 0.000000 0.811744 0.000000 0.000000
# 5 0.000000 0.000000 0.000000 0.000000 0.035058 0.000000
# 6 0.000000 0.000000 0.000000 0.000000 0.000000 0.070451
#
#
# Mechanical properties :
#
#
# Convention : Reuss Voigt Hill
#
# Bulk Modulus (GPa) = 51.28303 53.74150 52.51227
# Shear Modulus (GPa) = 5.01505 20.56190 12.78847
#
# Velocity S-wave (km/s) = 1.75318 3.54994 2.79962
# Velocity P-wave (km/s) = 5.96061 7.05267 6.52951
#
# Compressibility (1/GPa) = 0.01949963
#
# Stress axis : x y z
#
# Youngs Moduli (GPa) = 108.75236 51.05786 56.84445
#
# Poissons Ratio (x) = 0.09307 0.18546
# Poissons Ratio (y) = 0.19824 0.47471
# Poissons Ratio (z) = 0.35482 0.42638
#
# Static dielectric constant tensor:
#      x y z
#    x 3.026040 0.000000 0.000000 
#    y 0.000000 2.889570 0.000000 
#    z 0.000000 0.000000 3.882720 
# 
# 
# High freq. dielectric constant tensor:
#      x y z
#    x 1.633740 0.000000 0.000000 
#    y 0.000000 1.573590 0.000000 
#    z 0.000000 0.000000 1.631600 
# 
# From -- ./inp_files/36885.got.cif
#   From: 2010.03.12/outbox.cif.g09.slc.cpg/sg65_19_cif.got.tgz:36885.got - 2010.04.10 20:52:16.
