data_PCOD8265661
_publ_section_title
;
Structure prediction by ZEFSAII (Michael W. Deem and Ramdas Pophale) SiO2 
 PCOD8265661
Probable space group: C M M M
;
_chemical_formula_sum "Si O2"
_cell_formula_units_Z 80
_cell_length_a 26.306225
_cell_length_b 7.985565
_cell_length_c 23.730765
_cell_angle_alpha 90.000000
_cell_angle_beta 90.000000
_cell_angle_gamma 90.000000
_cell_volume 4985.123456
_symmetry_space_group_name_H-M "C M M M"
_symmetry_group_IT_number 65
_symmetry_cell_setting 'orthorhombic'
loop_
_space_group_symop_operation_xyz
x,y,z
-x,-y,z
x,-y,-z
-x,y,-z
-x,-y,-z
x,y,-z
-x,y,z
x,-y,z
1/2+x,1/2+y,z
1/2-x,1/2-y,z
1/2+x,1/2-y,-z
1/2-x,1/2+y,-z
1/2-x,1/2-y,-z
1/2+x,1/2+y,-z
1/2-x,1/2+y,z
1/2+x,1/2-y,z
loop_
_atom_site_type_symbol
_atom_site_label
_atom_site_fract_x
_atom_site_fract_y
_atom_site_fract_z
Si Si1 0.500000 0.300031 0.063961
Si Si2 0.060631 0.000000 0.436202
Si Si3 0.401408 0.694460 0.873207
Si Si4 0.939462 0.686920 0.364725
Si Si5 0.556775 0.803979 0.238830
Si Si6 0.195586 0.802313 0.063406
O O1 0.500000 0.500000 0.066265
O O2 0.450347 0.226107 0.095436
O O3 0.500000 0.234997 0.000000
O O4 0.081685 0.169143 0.406384
O O5 0.080816 0.000000 0.500000
O O6 0.000000 0.000000 0.434030
O O7 0.400313 0.500000 0.886719
O O8 0.404933 0.723528 0.806205
O O9 0.349447 0.774704 0.897841
O O10 0.919323 0.500000 0.381898
O O11 0.921942 0.734211 0.301398
O O12 0.000000 0.682253 0.366023
O O13 0.500000 0.726816 0.231462
O O14 0.554177 0.000000 0.228677
O O15 0.250000 0.750000 0.089243
O O16 0.191738 0.000000 0.062221
O O17 0.189910 0.729481 0.000000
#
# Coordination Sequence:
#
# PCOD8265661 Si02
#       6
#     8   8  16  16  16  16
#     4   9  16  26  39  59  85 105 125 164 219 264
#     4   9  16  24  36  56  76 104 146 188 218 248
#     4  10  18  27  43  65  80 103 139 175 213 259
#     4   8  15  26  37  52  76 109 141 178 219 252
#     4   9  17  28  40  56  82 110 137 171 212 257
#     4   9  18  32  47  62  80 104 138 178 216 261
#
# _framework density 16.047747000000001
#
# number of rings (size 3 to 8) (size 9 to 14) (size 15 to 20)
#    0.000    3.000    1.000    1.800    1.400    3.600 
#    0.000    2.000    0.000    2.400    0.000    0.000 
#    0.000    0.000    0.000    0.000    0.000    1.000 
#
# Total GULP energy -495747.014988 kJ/mol
# GULP energy per Si atom -12393.675375 kJ/mol
# Density = 1.601122 g / cm^3
# Si number density = 16.047747 Si / 1000 Ang^3
#
#
#
# Elastic Constant Matrix: (Units=GPa)
#
#
# Indices 1 2 3 4 5 6 
#
# 1 87.8805 20.9948 48.2558 0.0000 0.0000 0.0000
# 2 20.9948 51.3204 43.7521 0.0000 0.0000 0.0000
# 3 48.2558 43.7521 121.0835 0.0000 0.0000 0.0000
# 4 0.0000 0.0000 0.0000 17.9624 0.0000 0.0000
# 5 0.0000 0.0000 0.0000 0.0000 10.4193 0.0000
# 6 0.0000 0.0000 0.0000 0.0000 0.0000 11.9742
#
#
#
# Elastic Compliance Matrix: (Units=1/GPa)
#
#
# Indices 1 2 3 4 5 6 
#
# 1 0.014643 -0.001467 -0.005306 0.000000 0.000000 0.000000
# 2 -0.001467 0.028307 -0.009644 0.000000 0.000000 0.000000
# 3 -0.005306 -0.009644 0.013858 0.000000 0.000000 0.000000
# 4 0.000000 0.000000 0.000000 0.055672 0.000000 0.000000
# 5 0.000000 0.000000 0.000000 0.000000 0.095976 0.000000
# 6 0.000000 0.000000 0.000000 0.000000 0.000000 0.083513
#
#
# Mechanical properties :
#
#
# Convention : Reuss Voigt Hill
#
# Bulk Modulus (GPa) = 41.71005 54.03218 47.87112
# Shear Modulus (GPa) = 15.02436 17.88997 16.45716
#
# Velocity S-wave (km/s) = 3.06310 3.34248 3.20584
# Velocity P-wave (km/s) = 6.20949 6.97416 6.60291
#
# Compressibility (1/GPa) = 0.02397503
#
# Stress axis : x y z
#
# Youngs Moduli (GPa) = 68.29242 35.32666 72.16126
#
# Poissons Ratio (x) = 0.05183 0.38285
# Poissons Ratio (y) = 0.10020 0.69591
# Poissons Ratio (z) = 0.36233 0.34068
#
# Static dielectric constant tensor:
#      x y z
#    x 2.867730 0.000000 0.000000 
#    y 0.000000 2.997340 0.000000 
#    z 0.000000 0.000000 3.146650 
# 
# 
# High freq. dielectric constant tensor:
#      x y z
#    x 1.557410 0.000000 0.000000 
#    y 0.000000 1.612010 0.000000 
#    z 0.000000 0.000000 1.609860 
# 
# From -- ./inp_files/65671.got.cif
#   From: 2010.03.12/outbox.cif.g09.slc.cpg/sg65_33_cif.got.tgz:65671.got - 2010.04.10 20:52:16.
