data_PCOD8265620
_publ_section_title
;
Structure prediction by ZEFSAII (Michael W. Deem and Ramdas Pophale) SiO2 
 PCOD8265620
Probable space group: C M M M
;
_chemical_formula_sum "Si O2"
_cell_formula_units_Z 104
_cell_length_a 8.599878
_cell_length_b 27.362415
_cell_length_c 26.955646
_cell_angle_alpha 90.000000
_cell_angle_beta 90.000000
_cell_angle_gamma 90.000000
_cell_volume 6343.025539
_symmetry_space_group_name_H-M "C M M M"
_symmetry_group_IT_number 65
_symmetry_cell_setting 'orthorhombic'
loop_
_space_group_symop_operation_xyz
x,y,z
-x,-y,z
x,-y,-z
-x,y,-z
-x,-y,-z
x,y,-z
-x,y,z
x,-y,z
1/2+x,1/2+y,z
1/2-x,1/2-y,z
1/2+x,1/2-y,-z
1/2-x,1/2+y,-z
1/2-x,1/2-y,-z
1/2+x,1/2+y,-z
1/2-x,1/2+y,z
1/2+x,1/2-y,z
loop_
_atom_site_type_symbol
_atom_site_label
_atom_site_fract_x
_atom_site_fract_y
_atom_site_fract_z
Si Si1 0.683595 0.446883 0.695387
Si Si2 0.815964 0.850453 0.255048
Si Si3 0.184212 0.697611 0.350547
Si Si4 0.684028 0.394151 0.403175
Si Si5 0.315806 0.195748 0.159767
Si Si6 0.317369 0.803454 0.947664
Si Si7 0.816045 0.444124 0.500000
O O1 0.500000 0.450827 0.697924
O O2 0.758260 0.500000 0.707764
O O3 0.740413 0.406012 0.734380
O O4 0.734049 0.431266 0.640283
O O5 0.738471 0.814205 0.294561
O O6 0.763111 0.839038 0.199678
O O7 0.000000 0.844967 0.260965
O O8 0.250000 0.750000 0.366292
O O9 0.248664 0.659120 0.390530
O O10 0.000000 0.698079 0.352331
O O11 0.500000 0.389658 0.408323
O O12 0.755477 0.414899 0.452940
O O13 0.500000 0.197086 0.167946
O O14 0.250000 0.250000 0.165930
O O15 0.269003 0.172780 0.105314
O O16 0.500000 0.798011 0.947318
O O17 0.250000 0.750000 0.948737
O O18 0.265788 0.830552 0.000000
O O19 0.752634 0.500000 0.500000
O O20 0.000000 0.444041 0.500000
#
# Coordination Sequence:
#
# PCOD8265620 Si02
#       7
#    16  16  16  16  16  16   8
#     4   8  15  29  49  70  90 114 146 183 222 267
#     4  10  19  30  45  67  93 120 153 189 225 270
#     4  11  21  35  53  72  97 127 159 193 230 272
#     4  10  20  35  55  78 100 125 158 192 231 279
#     4  10  18  27  40  59  86 118 151 187 226 266
#     4   8  14  24  37  53  75 107 146 184 222 265
#     4  11  23  37  54  79 108 133 159 195 237 275
#
# _framework density 16.395961
#
# number of rings (size 3 to 8) (size 9 to 14) (size 15 to 20)
#    0.000    2.385    0.000    4.846    0.000    1.846 
#    0.000    0.385    0.000    9.231    0.000    0.000 
#    0.000    0.615    0.000    7.692    0.000    0.000 
#
# Total GULP energy -644295.181261 kJ/mol
# GULP energy per Si atom -12390.291947 kJ/mol
# Density = 1.635864 g / cm^3
# Si number density = 16.395961 Si / 1000 Ang^3
#
#
#
# Elastic Constant Matrix: (Units=GPa)
#
#
# Indices 1 2 3 4 5 6 
#
# 1 63.8948 31.3621 33.0861 0.0000 0.0000 0.0000
# 2 31.3621 114.6952 65.9611 0.0000 0.0000 0.0000
# 3 33.0861 65.9611 151.9891 0.0000 0.0000 0.0000
# 4 0.0000 0.0000 0.0000 17.4478 0.0000 0.0000
# 5 0.0000 0.0000 0.0000 0.0000 19.2240 0.0000
# 6 0.0000 0.0000 0.0000 0.0000 0.0000 16.4013
#
#
#
# Elastic Compliance Matrix: (Units=1/GPa)
#
#
# Indices 1 2 3 4 5 6 
#
# 1 0.018750 -0.003704 -0.002474 0.000000 0.000000 0.000000
# 2 -0.003704 0.012350 -0.004554 0.000000 0.000000 0.000000
# 3 -0.002474 -0.004554 0.009094 0.000000 0.000000 0.000000
# 4 0.000000 0.000000 0.000000 0.057314 0.000000 0.000000
# 5 0.000000 0.000000 0.000000 0.000000 0.052018 0.000000
# 6 0.000000 0.000000 0.000000 0.000000 0.000000 0.060971
#
#
# Mechanical properties :
#
#
# Convention : Reuss Voigt Hill
#
# Bulk Modulus (GPa) = 53.38740 65.71083 59.54912
# Shear Modulus (GPa) = 20.99036 23.95928 22.47482
#
# Velocity S-wave (km/s) = 3.58189 3.82683 3.70639
# Velocity P-wave (km/s) = 7.05256 7.72597 7.39693
#
# Compressibility (1/GPa) = 0.01873101
#
# Stress axis : x y z
#
# Youngs Moduli (GPa) = 53.33332 80.96938 109.96063
#
# Poissons Ratio (x) = 0.29992 0.27205
# Poissons Ratio (y) = 0.19755 0.50071
# Poissons Ratio (z) = 0.13195 0.36870
#
# Static dielectric constant tensor:
#      x y z
#    x 3.037930 0.000000 0.000000 
#    y 0.000000 3.080510 0.000000 
#    z 0.000000 0.000000 3.505210 
# 
# 
# High freq. dielectric constant tensor:
#      x y z
#    x 1.635120 0.000000 0.000000 
#    y 0.000000 1.603120 0.000000 
#    z 0.000000 0.000000 1.636630 
# 
# From -- ./inp_files/71789.got.cif
#   From: 2010.03.12/outbox.cif.g09.slc.cpg/sg65_36_cif.got.tgz:71789.got - 2010.04.10 20:52:16.
