data_PCOD8265649
_publ_section_title
;
Structure prediction by ZEFSAII (Michael W. Deem and Ramdas Pophale) SiO2 
 PCOD8265649
Probable space group: C M M M
;
_chemical_formula_sum "Si O2"
_cell_formula_units_Z 104
_cell_length_a 18.112161
_cell_length_b 27.470845
_cell_length_c 13.376178
_cell_angle_alpha 90.000000
_cell_angle_beta 90.000000
_cell_angle_gamma 90.000000
_cell_volume 6655.402536
_symmetry_space_group_name_H-M "C M M M"
_symmetry_group_IT_number 65
_symmetry_cell_setting 'orthorhombic'
loop_
_space_group_symop_operation_xyz
x,y,z
-x,-y,z
x,-y,-z
-x,y,-z
-x,-y,-z
x,y,-z
-x,y,z
x,-y,z
1/2+x,1/2+y,z
1/2-x,1/2-y,z
1/2+x,1/2-y,-z
1/2-x,1/2+y,-z
1/2-x,1/2-y,-z
1/2+x,1/2+y,-z
1/2-x,1/2+y,z
1/2+x,1/2-y,z
loop_
_atom_site_type_symbol
_atom_site_label
_atom_site_fract_x
_atom_site_fract_y
_atom_site_fract_z
Si Si1 0.912651 0.000000 0.887558
Si Si2 0.419181 0.219190 0.192025
Si Si3 0.265381 0.806233 0.776012
Si Si4 0.916717 0.910087 0.245187
Si Si5 0.812850 0.859772 0.384151
Si Si6 0.379761 0.678339 0.886084
Si Si7 0.917959 0.769660 0.391650
O O1 0.886139 0.047332 0.826457
O O2 0.000000 0.000000 0.897046
O O3 0.878219 0.000000 0.000000
O O4 0.500000 0.194552 0.169847
O O5 0.346310 0.186716 0.170760
O O6 0.417204 0.269411 0.131563
O O7 0.409759 0.227605 0.310733
O O8 0.250000 0.750000 0.742083
O O9 0.258691 0.843880 0.681568
O O10 0.207044 0.820565 0.860975
O O11 0.858386 0.905337 0.337492
O O12 0.921111 0.860578 0.182073
O O13 0.000000 0.921640 0.284573
O O14 0.792349 0.870229 0.500000
O O15 0.865117 0.813836 0.368040
O O16 0.390612 0.662930 0.000000
O O17 0.899632 0.746535 0.500000
O O18 0.000000 0.791976 0.389590
#
# Coordination Sequence:
#
# PCOD8265649 Si02
#       7
#     8  16  16  16  16  16  16
#     4   9  18  30  45  63  83 109 137 170 210 246
#     4  10  18  28  39  57  80 104 139 176 209 242
#     4   9  17  29  39  56  78 104 137 176 210 243
#     4  10  18  30  44  62  84 105 137 175 207 244
#     4  10  18  27  42  59  78 107 137 167 206 245
#     4  10  19  29  42  57  77 106 139 176 214 249
#     4   9  15  23  36  54  75  98 126 162 200 233
#
# _framework density 15.626402000000001
#
# number of rings (size 3 to 8) (size 9 to 14) (size 15 to 20)
#    0.000    2.385    4.615    1.385    0.000    6.462 
#    0.000    0.385    0.000    1.385    0.000    0.000 
#    0.000    0.000    0.000   11.077    0.000   33.846 
#
# Total GULP energy -644234.942857 kJ/mol
# GULP energy per Si atom -12389.133516 kJ/mol
# Density = 1.559084 g / cm^3
# Si number density = 15.626402 Si / 1000 Ang^3
#
#
#
# Elastic Constant Matrix: (Units=GPa)
#
#
# Indices 1 2 3 4 5 6 
#
# 1 83.4866 9.6239 1.4520 0.0000 0.0000 0.0000
# 2 9.6239 29.4220 9.1041 0.0000 0.0000 0.0000
# 3 1.4520 9.1041 67.4547 0.0000 0.0000 0.0000
# 4 0.0000 0.0000 0.0000 14.8062 0.0000 0.0000
# 5 0.0000 0.0000 0.0000 0.0000 12.2350 0.0000
# 6 0.0000 0.0000 0.0000 0.0000 0.0000 8.6394
#
#
#
# Elastic Compliance Matrix: (Units=1/GPa)
#
#
# Indices 1 2 3 4 5 6 
#
# 1 0.012453 -0.004164 0.000294 0.000000 0.000000 0.000000
# 2 -0.004164 0.036862 -0.004885 0.000000 0.000000 0.000000
# 3 0.000294 -0.004885 0.015478 0.000000 0.000000 0.000000
# 4 0.000000 0.000000 0.000000 0.067539 0.000000 0.000000
# 5 0.000000 0.000000 0.000000 0.000000 0.081733 0.000000
# 6 0.000000 0.000000 0.000000 0.000000 0.000000 0.115749
#
#
# Mechanical properties :
#
#
# Convention : Reuss Voigt Hill
#
# Bulk Modulus (GPa) = 21.15008 24.52480 22.83744
# Shear Modulus (GPa) = 13.77085 17.81500 15.79293
#
# Velocity S-wave (km/s) = 2.97181 3.38014 3.18253
# Velocity P-wave (km/s) = 5.03387 5.56438 5.30576
#
# Compressibility (1/GPa) = 0.04728114
#
# Stress axis : x y z
#
# Youngs Moduli (GPa) = 80.30262 27.12823 64.60857
#
# Poissons Ratio (x) = 0.11297 -0.01899
# Poissons Ratio (y) = 0.33440 0.31564
# Poissons Ratio (z) = -0.02361 0.13253
#
# Static dielectric constant tensor:
#      x y z
#    x 3.228870 0.000000 0.000000 
#    y 0.000000 2.626400 0.000000 
#    z 0.000000 0.000000 3.152980 
# 
# 
# High freq. dielectric constant tensor:
#      x y z
#    x 1.589270 0.000000 0.000000 
#    y 0.000000 1.530040 0.000000 
#    z 0.000000 0.000000 1.607660 
# 
# From -- ./inp_files/43244.got.cif
#   From: 2010.03.12/outbox.cif.g09.slc.cpg/sg65_22_cif.got.tgz:43244.got - 2010.04.10 20:52:16.
