data_PCOD8265319
_publ_section_title
;
Structure prediction by ZEFSAII (Michael W. Deem and Ramdas Pophale) SiO2 
 PCOD8265319
Probable space group: C M M M
;
_chemical_formula_sum "Si O2"
_cell_formula_units_Z 104
_cell_length_a 26.742588
_cell_length_b 9.319015
_cell_length_c 25.046682
_cell_angle_alpha 90.000000
_cell_angle_beta 90.000000
_cell_angle_gamma 90.000000
_cell_volume 6241.998303
_symmetry_space_group_name_H-M "C M M M"
_symmetry_group_IT_number 65
_symmetry_cell_setting 'orthorhombic'
loop_
_space_group_symop_operation_xyz
x,y,z
-x,-y,z
x,-y,-z
-x,y,-z
-x,-y,-z
x,y,-z
-x,y,z
x,-y,z
1/2+x,1/2+y,z
1/2-x,1/2-y,z
1/2+x,1/2-y,-z
1/2-x,1/2+y,-z
1/2-x,1/2-y,-z
1/2+x,1/2+y,-z
1/2-x,1/2+y,z
1/2+x,1/2-y,z
loop_
_atom_site_type_symbol
_atom_site_label
_atom_site_fract_x
_atom_site_fract_y
_atom_site_fract_z
Si Si1 0.349132 0.337287 0.759545
Si Si2 0.808715 0.500000 0.059276
Si Si3 0.104239 0.325811 0.601702
Si Si4 0.198288 0.171715 0.646712
Si Si5 0.309124 0.248740 0.132882
Si Si6 0.056525 0.163323 0.695374
Si Si7 0.059512 0.831771 0.500000
Si Si8 0.810023 0.000000 0.940300
O O1 0.338056 0.500000 0.777037
O O2 0.315772 0.298571 0.708159
O O3 0.334743 0.237412 0.809183
O O4 0.407413 0.312726 0.745983
O O5 0.828622 0.626202 0.095044
O O6 0.749346 0.500000 0.053205
O O7 0.832648 0.500000 0.000000
O O8 0.108050 0.500000 0.597921
O O9 0.158253 0.251842 0.609219
O O10 0.068402 0.280646 0.650466
O O11 0.080254 0.256068 0.549827
O O12 0.250000 0.250000 0.633820
O O13 0.200201 0.000000 0.634787
O O14 0.250000 0.250000 0.142841
O O15 0.329310 0.373710 0.096106
O O16 0.000000 0.183979 0.715191
O O17 0.065279 0.000000 0.672993
O O18 0.000000 0.824136 0.500000
O O19 0.076569 0.000000 0.500000
O O20 0.833707 0.000000 0.000000
#
# Coordination Sequence:
#
# PCOD8265319 Si02
#       8
#    16   8  16  16  16  16   8   8
#     4   9  17  30  47  70  97 126 164 206 245 299
#     4   9  18  28  38  58  89 123 159 198 242 289
#     4  11  22  36  55  82 110 138 171 211 254 300
#     4  10  20  36  55  76 106 142 178 211 250 299
#     4  10  17  27  41  62  90 124 161 199 240 288
#     4   9  18  34  54  73  99 134 166 202 256 311
#     4  11  23  39  60  83 108 139 175 215 263 311
#     4   9  16  26  42  58  83 123 161 196 238 289
#
# _framework density 16.661331000000001
#
# number of rings (size 3 to 8) (size 9 to 14) (size 15 to 20)
#    0.000    2.231    0.769    4.385    0.000    4.615 
#    6.923    0.385    0.000    0.000    0.000    0.000 
#    0.000    3.692    0.000    0.000    0.000    0.000 
#
# Total GULP energy -644227.631763 kJ/mol
# GULP energy per Si atom -12388.992919 kJ/mol
# Density = 1.662341 g / cm^3
# Si number density = 16.661331 Si / 1000 Ang^3
#
#
#
# Elastic Constant Matrix: (Units=GPa)
#
#
# Indices 1 2 3 4 5 6 
#
# 1 95.3591 42.4192 41.6259 0.0000 0.0000 0.0000
# 2 42.4192 135.9940 58.0903 0.0000 0.0000 0.0000
# 3 41.6259 58.0903 113.4096 0.0000 0.0000 0.0000
# 4 0.0000 0.0000 0.0000 43.6566 0.0000 0.0000
# 5 0.0000 0.0000 0.0000 0.0000 16.0231 0.0000
# 6 0.0000 0.0000 0.0000 0.0000 0.0000 20.0416
#
#
#
# Elastic Compliance Matrix: (Units=1/GPa)
#
#
# Indices 1 2 3 4 5 6 
#
# 1 0.013177 -0.002617 -0.003496 0.000000 0.000000 0.000000
# 2 -0.002617 0.009932 -0.004127 0.000000 0.000000 0.000000
# 3 -0.003496 -0.004127 0.012215 0.000000 0.000000 0.000000
# 4 0.000000 0.000000 0.000000 0.022906 0.000000 0.000000
# 5 0.000000 0.000000 0.000000 0.000000 0.062410 0.000000
# 6 0.000000 0.000000 0.000000 0.000000 0.000000 0.049896
#
#
# Mechanical properties :
#
#
# Convention : Reuss Voigt Hill
#
# Bulk Modulus (GPa) = 67.36670 69.89262 68.62966
# Shear Modulus (GPa) = 25.51486 29.45272 27.48379
#
# Velocity S-wave (km/s) = 3.91753 4.20900 4.06588
# Velocity P-wave (km/s) = 7.80919 8.10315 7.95753
#
# Compressibility (1/GPa) = 0.01484413
#
# Stress axis : x y z
#
# Youngs Moduli (GPa) = 75.89096 100.68085 81.86822
#
# Poissons Ratio (x) = 0.26346 0.28622
# Poissons Ratio (y) = 0.19859 0.33788
# Poissons Ratio (z) = 0.26532 0.41552
#
# Static dielectric constant tensor:
#      x y z
#    x 2.974390 0.000000 0.000000 
#    y 0.000000 3.274000 0.000000 
#    z 0.000000 0.000000 3.183600 
# 
# 
# High freq. dielectric constant tensor:
#      x y z
#    x 1.612360 0.000000 0.000000 
#    y 0.000000 1.651840 0.000000 
#    z 0.000000 0.000000 1.640390 
# 
# From -- ./inp_files/71921.got.cif
#   From: 2010.03.12/outbox.cif.g09.slc.cpg/sg65_36_cif.got.tgz:71921.got - 2010.04.10 20:52:16.
