data_PCOD8265149
_publ_section_title
;
Structure prediction by ZEFSAII (Michael W. Deem and Ramdas Pophale) SiO2 
 PCOD8265149
Probable space group: C M M M
;
_chemical_formula_sum "Si O2"
_cell_formula_units_Z 96
_cell_length_a 26.696499
_cell_length_b 17.836211
_cell_length_c 14.568102
_cell_angle_alpha 90.000000
_cell_angle_beta 90.000000
_cell_angle_gamma 90.000000
_cell_volume 6936.811390
_symmetry_space_group_name_H-M "C M M M"
_symmetry_group_IT_number 65
_symmetry_cell_setting 'orthorhombic'
loop_
_space_group_symop_operation_xyz
x,y,z
-x,-y,z
x,-y,-z
-x,y,-z
-x,-y,-z
x,y,-z
-x,y,z
x,-y,z
1/2+x,1/2+y,z
1/2-x,1/2-y,z
1/2+x,1/2-y,-z
1/2-x,1/2+y,-z
1/2-x,1/2-y,-z
1/2+x,1/2+y,-z
1/2-x,1/2+y,z
1/2+x,1/2-y,z
loop_
_atom_site_type_symbol
_atom_site_label
_atom_site_fract_x
_atom_site_fract_y
_atom_site_fract_z
Si Si1 0.244181 0.087455 0.289710
Si Si2 0.205772 0.911114 0.099646
Si Si3 0.556214 0.588046 0.708285
Si Si4 0.149713 0.847925 0.391377
Si Si5 0.593276 0.410981 0.099447
Si Si6 0.299976 0.201595 0.399232
O O1 0.239411 0.116918 0.184507
O O2 0.192143 0.101739 0.342876
O O3 0.291727 0.132021 0.330911
O O4 0.256937 0.000000 0.295095
O O5 0.149592 0.879736 0.111746
O O6 0.203127 0.000000 0.103731
O O7 0.227621 0.885074 0.000000
O O8 0.500000 0.605890 0.674466
O O9 0.567871 0.500000 0.702978
O O10 0.594640 0.629892 0.641893
O O11 0.561049 0.617162 0.813758
O O12 0.154669 0.861386 0.500000
O O13 0.156738 0.759412 0.367129
O O14 0.593663 0.500000 0.098493
O O15 0.571806 0.382854 0.000000
O O16 0.312376 0.168707 0.500000
O O17 0.250000 0.250000 0.403830
#
# Coordination Sequence:
#
# PCOD8265149 Si02
#       6
#    16  16  16  16  16  16
#     4  10  16  24  42  62  76  95 126 162 193 219
#     4   8  13  21  35  55  77 100 125 152 184 224
#     4  10  19  28  39  58  78  96 128 167 193 218
#     4  10  19  30  40  50  74 109 131 149 191 237
#     4   8  13  23  37  52  73  99 126 157 191 223
#     4   8  16  28  39  53  73  99 129 156 186 229
#
# _framework density 13.839211000000001
#
# number of rings (size 3 to 8) (size 9 to 14) (size 15 to 20)
#    0.000    3.000    1.667    3.000    0.000    3.000 
#    0.000    2.500    0.000    5.500    0.000    0.000 
#    0.000    0.667    0.000    3.667    0.000    0.000 
#
# Total GULP energy -594647.303700 kJ/mol
# GULP energy per Si atom -12388.485494 kJ/mol
# Density = 1.380771 g / cm^3
# Si number density = 13.839211 Si / 1000 Ang^3
#
#
#
# Elastic Constant Matrix: (Units=GPa)
#
#
# Indices 1 2 3 4 5 6 
#
# 1 52.7078 30.5368 35.8703 0.0000 0.0000 0.0000
# 2 30.5368 47.4398 37.6019 0.0000 0.0000 0.0000
# 3 35.8703 37.6019 99.7075 0.0000 0.0000 0.0000
# 4 0.0000 0.0000 0.0000 2.2004 0.0000 0.0000
# 5 0.0000 0.0000 0.0000 0.0000 13.9982 0.0000
# 6 0.0000 0.0000 0.0000 0.0000 0.0000 17.5750
#
#
#
# Elastic Compliance Matrix: (Units=1/GPa)
#
#
# Indices 1 2 3 4 5 6 
#
# 1 0.032150 -0.016442 -0.005365 0.000000 0.000000 0.000000
# 2 -0.016442 0.038475 -0.008595 0.000000 0.000000 0.000000
# 3 -0.005365 -0.008595 0.015201 0.000000 0.000000 0.000000
# 4 0.000000 0.000000 0.000000 0.454473 0.000000 0.000000
# 5 0.000000 0.000000 0.000000 0.000000 0.071438 0.000000
# 6 0.000000 0.000000 0.000000 0.000000 0.000000 0.056899
#
#
# Mechanical properties :
#
#
# Convention : Reuss Voigt Hill
#
# Bulk Modulus (GPa) = 39.96538 45.31924 42.64231
# Shear Modulus (GPa) = 6.77709 13.14446 9.96078
#
# Velocity S-wave (km/s) = 2.21532 3.08522 2.68573
# Velocity P-wave (km/s) = 5.95689 6.74608 6.36373
#
# Compressibility (1/GPa) = 0.02502166
#
# Stress axis : x y z
#
# Youngs Moduli (GPa) = 31.10448 25.99069 65.78566
#
# Poissons Ratio (x) = 0.42733 0.35297
# Poissons Ratio (y) = 0.51141 0.56542
# Poissons Ratio (z) = 0.16689 0.22339
#
# Static dielectric constant tensor:
#      x y z
#    x 2.539900 0.000000 0.000000 
#    y 0.000000 2.505750 0.000000 
#    z 0.000000 0.000000 3.169210 
# 
# 
# High freq. dielectric constant tensor:
#      x y z
#    x 1.487670 0.000000 0.000000 
#    y 0.000000 1.478320 0.000000 
#    z 0.000000 0.000000 1.549090 
# 
# From -- ./inp_files/47863.got.cif
#   From: 2010.03.12/outbox.cif.g09.slc.cpg/sg65_24_cif.got.tgz:47863.got - 2010.04.10 20:52:16.
