data_PCOD8265320
_publ_section_title
;
Structure prediction by ZEFSAII (Michael W. Deem and Ramdas Pophale) SiO2 
 PCOD8265320
Probable space group: C M M M
;
_chemical_formula_sum "Si O2"
_cell_formula_units_Z 72
_cell_length_a 11.243869
_cell_length_b 24.245874
_cell_length_c 16.982586
_cell_angle_alpha 90.000000
_cell_angle_beta 90.000000
_cell_angle_gamma 90.000000
_cell_volume 4629.748968
_symmetry_space_group_name_H-M "C M M M"
_symmetry_group_IT_number 65
_symmetry_cell_setting 'orthorhombic'
loop_
_space_group_symop_operation_xyz
x,y,z
-x,-y,z
x,-y,-z
-x,y,-z
-x,-y,-z
x,y,-z
-x,y,z
x,-y,z
1/2+x,1/2+y,z
1/2-x,1/2-y,z
1/2+x,1/2-y,-z
1/2-x,1/2+y,-z
1/2-x,1/2-y,-z
1/2+x,1/2+y,-z
1/2-x,1/2+y,z
1/2+x,1/2-y,z
loop_
_atom_site_type_symbol
_atom_site_label
_atom_site_fract_x
_atom_site_fract_y
_atom_site_fract_z
Si Si1 0.141419 0.500000 0.912699
Si Si2 0.364177 0.211584 0.090728
Si Si3 0.500000 0.564596 0.588077
Si Si4 0.630743 0.934503 0.500000
Si Si5 0.863186 0.398393 0.188771
Si Si6 0.754893 0.934769 0.342757
O O1 0.187909 0.445870 0.867983
O O2 0.000000 0.500000 0.918185
O O3 0.197128 0.500000 0.000000
O O4 0.500000 0.236493 0.105054
O O5 0.250000 0.250000 0.110604
O O6 0.346467 0.159469 0.146336
O O7 0.355843 0.192764 0.000000
O O8 0.500000 0.500000 0.572388
O O9 0.500000 0.592086 0.500000
O O10 0.390540 0.581465 0.642592
O O11 0.500000 0.910167 0.500000
O O12 0.691032 0.912838 0.421049
O O13 0.635848 0.000000 0.500000
O O14 0.790283 0.399174 0.269594
O O15 0.000000 0.410453 0.209495
O O16 0.733544 0.000000 0.327772
#
# Coordination Sequence:
#
# PCOD8265320 Si02
#       6
#     8  16   8   8  16  16
#     4   9  16  26  42  66  97 128 152 178 225 289
#     4   9  18  34  54  73  94 123 161 204 245 282
#     4   9  16  28  42  56  84 132 174 196 216 263
#     4   9  16  23  37  59  88 122 153 184 230 278
#     4  10  18  28  45  71  99 123 152 192 237 283
#     4  10  17  27  41  62  93 128 158 193 230 272
#
# _framework density 15.551599
#
# number of rings (size 3 to 8) (size 9 to 14) (size 15 to 20)
#    0.000    2.556    2.222    1.333    0.000    3.556 
#    2.000    0.000    0.000    0.000    0.000    1.556 
#    0.000    0.000    0.000    0.000    0.000    0.000 
#
# Total GULP energy -446077.746925 kJ/mol
# GULP energy per Si atom -12391.048526 kJ/mol
# Density = 1.551620 g / cm^3
# Si number density = 15.551599 Si / 1000 Ang^3
#
#
#
# Elastic Constant Matrix: (Units=GPa)
#
#
# Indices 1 2 3 4 5 6 
#
# 1 120.1578 40.6616 62.8283 0.0000 0.0000 0.0000
# 2 40.6616 51.6029 42.3313 0.0000 0.0000 0.0000
# 3 62.8283 42.3313 131.2182 0.0000 0.0000 0.0000
# 4 0.0000 0.0000 0.0000 17.8635 0.0000 0.0000
# 5 0.0000 0.0000 0.0000 0.0000 34.6789 0.0000
# 6 0.0000 0.0000 0.0000 0.0000 0.0000 15.8188
#
#
#
# Elastic Compliance Matrix: (Units=1/GPa)
#
#
# Indices 1 2 3 4 5 6 
#
# 1 0.012640 -0.006793 -0.003861 0.000000 0.000000 0.000000
# 2 -0.006793 0.030003 -0.006427 0.000000 0.000000 0.000000
# 3 -0.003861 -0.006427 0.011543 0.000000 0.000000 0.000000
# 4 0.000000 0.000000 0.000000 0.055980 0.000000 0.000000
# 5 0.000000 0.000000 0.000000 0.000000 0.028836 0.000000
# 6 0.000000 0.000000 0.000000 0.000000 0.000000 0.063216
#
#
# Mechanical properties :
#
#
# Convention : Reuss Voigt Hill
#
# Bulk Modulus (GPa) = 49.93640 66.06902 58.00271
# Shear Modulus (GPa) = 20.57164 24.14942 22.36053
#
# Velocity S-wave (km/s) = 3.64098 3.94491 3.79598
# Velocity P-wave (km/s) = 7.06084 7.95774 7.52267
#
# Compressibility (1/GPa) = 0.02002547
#
# Stress axis : x y z
#
# Youngs Moduli (GPa) = 79.11568 33.32973 86.63515
#
# Poissons Ratio (x) = 0.22640 0.33447
# Poissons Ratio (y) = 0.53741 0.55678
# Poissons Ratio (z) = 0.30544 0.21420
#
# Static dielectric constant tensor:
#      x y z
#    x 4.697310 0.000000 0.000000 
#    y 0.000000 2.526960 0.000000 
#    z 0.000000 0.000000 3.059600 
# 
# 
# High freq. dielectric constant tensor:
#      x y z
#    x 1.595260 0.000000 0.000000 
#    y 0.000000 1.541210 0.000000 
#    z 0.000000 0.000000 1.609800 
# 
# From -- ./inp_files/51191.got.cif
#   From: 2010.03.12/outbox.cif.g09.slc.cpg/sg65_26_cif.got.tgz:51191.got - 2010.04.10 20:52:16.
