data_PCOD8265480
_publ_section_title
;
Structure prediction by ZEFSAII (Michael W. Deem and Ramdas Pophale) SiO2 
 PCOD8265480
Probable space group: C M M M
;
_chemical_formula_sum "Si O2"
_cell_formula_units_Z 72
_cell_length_a 21.170277
_cell_length_b 17.480320
_cell_length_c 11.907776
_cell_angle_alpha 90.000000
_cell_angle_beta 90.000000
_cell_angle_gamma 90.000000
_cell_volume 4406.629887
_symmetry_space_group_name_H-M "C M M M"
_symmetry_group_IT_number 65
_symmetry_cell_setting 'orthorhombic'
loop_
_space_group_symop_operation_xyz
x,y,z
-x,-y,z
x,-y,-z
-x,y,-z
-x,-y,-z
x,y,-z
-x,y,z
x,-y,z
1/2+x,1/2+y,z
1/2-x,1/2-y,z
1/2+x,1/2-y,-z
1/2-x,1/2+y,-z
1/2-x,1/2-y,-z
1/2+x,1/2+y,-z
1/2-x,1/2+y,z
1/2+x,1/2-y,z
loop_
_atom_site_type_symbol
_atom_site_label
_atom_site_fract_x
_atom_site_fract_y
_atom_site_fract_z
Si Si1 0.285553 0.589317 0.000000
Si Si2 0.146264 0.591543 0.000000
Si Si3 0.853532 0.627969 0.241986
Si Si4 0.322886 0.271297 0.374501
Si Si5 0.706254 0.587400 0.758000
Si Si6 0.072599 0.500000 0.367873
O O1 0.216585 0.627017 0.000000
O O2 0.320398 0.610508 0.883098
O O3 0.271805 0.500000 0.000000
O O4 0.116459 0.624343 0.884106
O O5 0.140569 0.500000 0.000000
O O6 0.858742 0.713771 0.290704
O O7 0.781886 0.596824 0.242837
O O8 0.894878 0.575792 0.322126
O O9 0.351851 0.266954 0.500000
O O10 0.250000 0.250000 0.377782
O O11 0.329306 0.358057 0.329754
O O12 0.689294 0.500000 0.727223
O O13 0.081149 0.500000 0.500000
O O14 0.000000 0.500000 0.330935
#
# Coordination Sequence:
#
# PCOD8265480 Si02
#       6
#     8   8  16  16  16   8
#     4   7  12  21  37  57  81 106 140 175 200 247
#     4   9  14  25  45  63  76 103 143 174 213 268
#     4  10  17  31  44  59  85 110 136 183 222 245
#     4   9  18  27  37  58  84 111 146 173 205 258
#     4   9  15  26  42  61  84 115 143 171 213 257
#     4  11  22  33  47  63  79 112 155 179 210 264
#
# _framework density 16.339016999999998
#
# number of rings (size 3 to 8) (size 9 to 14) (size 15 to 20)
#    0.000    2.778    2.222    2.000    0.000    2.222 
#    0.000    5.556    0.000    0.000    0.000    0.000 
#    0.000    0.889    0.000    4.667    0.000    9.111 
#
# Total GULP energy -446005.118337 kJ/mol
# GULP energy per Si atom -12389.031065 kJ/mol
# Density = 1.630183 g / cm^3
# Si number density = 16.339017 Si / 1000 Ang^3
#
#
#
# Elastic Constant Matrix: (Units=GPa)
#
#
# Indices 1 2 3 4 5 6 
#
# 1 22.9274 19.3139 20.7049 0.0000 0.0000 0.0000
# 2 19.3139 121.0677 70.3848 0.0000 0.0000 0.0000
# 3 20.7049 70.3848 133.2824 0.0000 0.0000 0.0000
# 4 0.0000 0.0000 0.0000 32.6138 0.0000 0.0000
# 5 0.0000 0.0000 0.0000 0.0000 8.5037 0.0000
# 6 0.0000 0.0000 0.0000 0.0000 0.0000 5.9867
#
#
#
# Elastic Compliance Matrix: (Units=1/GPa)
#
#
# Indices 1 2 3 4 5 6 
#
# 1 0.052983 -0.005292 -0.005436 0.000000 0.000000 0.000000
# 2 -0.005292 0.012448 -0.005751 0.000000 0.000000 0.000000
# 3 -0.005436 -0.005751 0.011385 0.000000 0.000000 0.000000
# 4 0.000000 0.000000 0.000000 0.030662 0.000000 0.000000
# 5 0.000000 0.000000 0.000000 0.000000 0.117595 0.000000
# 6 0.000000 0.000000 0.000000 0.000000 0.000000 0.167037
#
#
# Mechanical properties :
#
#
# Convention : Reuss Voigt Hill
#
# Bulk Modulus (GPa) = 22.80166 55.34274 39.07220
# Shear Modulus (GPa) = 11.37170 20.54576 15.95873
#
# Velocity S-wave (km/s) = 2.64101 3.54992 3.12865
# Velocity P-wave (km/s) = 4.82551 7.12374 6.08413
#
# Compressibility (1/GPa) = 0.04385646
#
# Stress axis : x y z
#
# Youngs Moduli (GPa) = 18.87391 80.33568 87.83809
#
# Poissons Ratio (x) = 0.42514 0.47749
# Poissons Ratio (y) = 0.09988 0.50519
# Poissons Ratio (z) = 0.10260 0.46204
#
# Static dielectric constant tensor:
#      x y z
#    x 2.403520 0.000000 0.000000 
#    y 0.000000 3.059990 0.000000 
#    z 0.000000 0.000000 3.568670 
# 
# 
# High freq. dielectric constant tensor:
#      x y z
#    x 1.534920 0.000000 0.000000 
#    y 0.000000 1.624820 0.000000 
#    z 0.000000 0.000000 1.655920 
# 
# From -- ./inp_files/26950.got.cif
#   From: 2010.03.12/outbox.cif.g09.slc.cpg/sg65_14_cif.got.tgz:26950.got - 2010.04.10 20:52:16.
