data_PCOD8265633
_publ_section_title
;
Structure prediction by ZEFSAII (Michael W. Deem and Ramdas Pophale) SiO2 
 PCOD8265633
Probable space group: C M M M
;
_chemical_formula_sum "Si O2"
_cell_formula_units_Z 104
_cell_length_a 27.127672
_cell_length_b 9.015689
_cell_length_c 26.730880
_cell_angle_alpha 90.000000
_cell_angle_beta 90.000000
_cell_angle_gamma 90.000000
_cell_volume 6537.695728
_symmetry_space_group_name_H-M "C M M M"
_symmetry_group_IT_number 65
_symmetry_cell_setting 'orthorhombic'
loop_
_space_group_symop_operation_xyz
x,y,z
-x,-y,z
x,-y,-z
-x,y,-z
-x,-y,-z
x,y,-z
-x,y,z
x,-y,z
1/2+x,1/2+y,z
1/2-x,1/2-y,z
1/2+x,1/2-y,-z
1/2-x,1/2+y,-z
1/2-x,1/2-y,-z
1/2+x,1/2+y,-z
1/2-x,1/2+y,z
1/2+x,1/2-y,z
loop_
_atom_site_type_symbol
_atom_site_label
_atom_site_fract_x
_atom_site_fract_y
_atom_site_fract_z
Si Si1 0.443542 0.670571 0.700520
Si Si2 0.198031 0.674170 0.351055
Si Si3 0.889900 0.171917 0.598896
Si Si4 0.803096 0.174973 0.838655
Si Si5 0.857038 0.326697 0.249964
Si Si6 0.944544 0.823550 0.500000
Si Si7 0.801755 0.827880 0.947216
O O1 0.500000 0.716485 0.707413
O O2 0.434310 0.500000 0.715496
O O3 0.428970 0.697284 0.643088
O O4 0.412043 0.774969 0.736824
O O5 0.203464 0.500000 0.358638
O O6 0.250000 0.750000 0.360526
O O7 0.159677 0.735602 0.391720
O O8 0.179598 0.714028 0.295341
O O9 0.915355 0.233045 0.548710
O O10 0.875146 0.000000 0.594010
O O11 0.750000 0.250000 0.831886
O O12 0.840856 0.239265 0.798964
O O13 0.826935 0.212457 0.893871
O O14 0.796801 0.000000 0.829965
O O15 0.857138 0.500000 0.238474
O O16 0.000000 0.757669 0.500000
O O17 0.947634 0.000000 0.500000
O O18 0.750000 0.750000 0.948774
O O19 0.790131 0.000000 0.946477
O O20 0.830725 0.787603 0.000000
#
# Coordination Sequence:
#
# PCOD8265633 Si02
#       7
#    16  16  16  16  16   8  16
#     4   9  17  30  48  68  90 116 144 175 214 259
#     4  10  20  33  48  65  87 117 151 184 218 256
#     4   9  17  30  49  72  95 117 143 175 211 255
#     4  10  18  27  41  61  87 118 150 184 219 256
#     4  10  20  31  44  64  89 116 147 183 220 260
#     4   9  16  28  50  77  98 115 140 175 214 257
#     4   8  14  24  37  54  78 110 146 180 214 252
#
# _framework density 15.907745999999999
#
# number of rings (size 3 to 8) (size 9 to 14) (size 15 to 20)
#    0.000    2.692    0.000    2.308    0.000    5.846 
#    0.000    0.769    0.000    1.846    0.000    0.000 
#    0.000    0.615    0.000    7.077    0.000    2.000 
#
# Total GULP energy -644440.860466 kJ/mol
# GULP energy per Si atom -12393.093471 kJ/mol
# Density = 1.587154 g / cm^3
# Si number density = 15.907746 Si / 1000 Ang^3
#
#
#
# Elastic Constant Matrix: (Units=GPa)
#
#
# Indices 1 2 3 4 5 6 
#
# 1 103.4938 41.3273 60.4884 0.0000 0.0000 0.0000
# 2 41.3273 58.0704 47.9624 0.0000 0.0000 0.0000
# 3 60.4884 47.9624 139.8103 0.0000 0.0000 0.0000
# 4 0.0000 0.0000 0.0000 17.9006 0.0000 0.0000
# 5 0.0000 0.0000 0.0000 0.0000 18.5288 0.0000
# 6 0.0000 0.0000 0.0000 0.0000 0.0000 22.9404
#
#
#
# Elastic Compliance Matrix: (Units=1/GPa)
#
#
# Indices 1 2 3 4 5 6 
#
# 1 0.014892 -0.007363 -0.003917 0.000000 0.000000 0.000000
# 2 -0.007363 0.027669 -0.006306 0.000000 0.000000 0.000000
# 3 -0.003917 -0.006306 0.011011 0.000000 0.000000 0.000000
# 4 0.000000 0.000000 0.000000 0.055864 0.000000 0.000000
# 5 0.000000 0.000000 0.000000 0.000000 0.053970 0.000000
# 6 0.000000 0.000000 0.000000 0.000000 0.000000 0.043591
#
#
# Mechanical properties :
#
#
# Convention : Reuss Voigt Hill
#
# Bulk Modulus (GPa) = 54.35106 66.77007 60.56056
# Shear Modulus (GPa) = 20.13666 21.98039 21.05852
#
# Velocity S-wave (km/s) = 3.56172 3.72121 3.64234
# Velocity P-wave (km/s) = 7.15228 7.77995 7.47271
#
# Compressibility (1/GPa) = 0.01839890
#
# Stress axis : x y z
#
# Youngs Moduli (GPa) = 67.15010 36.14111 90.82072
#
# Poissons Ratio (x) = 0.26611 0.35575
# Poissons Ratio (y) = 0.49443 0.57276
# Poissons Ratio (z) = 0.26303 0.22792
#
# Static dielectric constant tensor:
#      x y z
#    x 2.800240 0.000000 0.000000 
#    y 0.000000 2.995530 0.000000 
#    z 0.000000 0.000000 3.434730 
# 
# 
# High freq. dielectric constant tensor:
#      x y z
#    x 1.579560 0.000000 0.000000 
#    y 0.000000 1.612480 0.000000 
#    z 0.000000 0.000000 1.616320 
# 
# From -- ./inp_files/71854.got.cif
#   From: 2010.03.12/outbox.cif.g09.slc.cpg/sg65_36_cif.got.tgz:71854.got - 2010.04.10 20:52:16.
