data_PCOD8265228
_publ_section_title
;
Structure prediction by ZEFSAII (Michael W. Deem and Ramdas Pophale) SiO2 
 PCOD8265228
Probable space group: C M M M
;
_chemical_formula_sum "Si O2"
_cell_formula_units_Z 72
_cell_length_a 17.422700
_cell_length_b 17.410271
_cell_length_c 18.369352
_cell_angle_alpha 90.000000
_cell_angle_beta 90.000000
_cell_angle_gamma 90.000000
_cell_volume 5572.047707
_symmetry_space_group_name_H-M "C M M M"
_symmetry_group_IT_number 65
_symmetry_cell_setting 'orthorhombic'
loop_
_space_group_symop_operation_xyz
x,y,z
-x,-y,z
x,-y,-z
-x,y,-z
-x,-y,-z
x,y,-z
-x,y,z
x,-y,z
1/2+x,1/2+y,z
1/2-x,1/2-y,z
1/2+x,1/2-y,-z
1/2-x,1/2+y,-z
1/2-x,1/2-y,-z
1/2+x,1/2+y,-z
1/2-x,1/2+y,z
1/2+x,1/2-y,z
loop_
_atom_site_type_symbol
_atom_site_label
_atom_site_fract_x
_atom_site_fract_y
_atom_site_fract_z
Si Si1 0.710252 0.087422 0.917051
Si Si2 0.589805 0.500000 0.579376
Si Si3 0.412706 0.211207 0.916996
Si Si4 0.687378 0.313106 0.183801
Si Si5 0.587890 0.585766 0.714604
O O1 0.629921 0.130569 0.906119
O O2 0.774204 0.121448 0.864556
O O3 0.695373 0.000000 0.895352
O O4 0.739520 0.096018 0.000000
O O5 0.500000 0.500000 0.565838
O O6 0.631930 0.500000 0.500000
O O7 0.609353 0.575892 0.628249
O O8 0.500000 0.197206 0.894530
O O9 0.377860 0.275516 0.865340
O O10 0.404656 0.240236 0.000000
O O11 0.750000 0.250000 0.210101
O O12 0.647070 0.352879 0.252608
O O13 0.500000 0.614935 0.724319
O O14 0.595265 0.500000 0.750811
#
# Coordination Sequence:
#
# PCOD8265228 Si02
#       5
#    16   8  16  16  16
#     4   9  17  27  38  51  68  94 128 162 191 217
#     4   7  12  24  42  62  77  91 116 147 175 205
#     4   9  17  27  38  51  68  95 129 162 192 218
#     4  10  17  25  37  53  77 101 122 146 183 227
#     4   8  15  25  40  59  75  94 120 150 178 209
#
# _framework density 12.921640999999999
#
# number of rings (size 3 to 8) (size 9 to 14) (size 15 to 20)
#    0.667    2.556    0.000    2.000    0.000    3.111 
#    0.000    2.222    0.000    0.667    0.000    9.333 
#    0.000    0.000    0.000    0.000    0.000   15.778 
#
# Total GULP energy -445977.803501 kJ/mol
# GULP energy per Si atom -12388.272319 kJ/mol
# Density = 1.289223 g / cm^3
# Si number density = 12.921641 Si / 1000 Ang^3
#
#
#
# Elastic Constant Matrix: (Units=GPa)
#
#
# Indices 1 2 3 4 5 6 
#
# 1 77.3519 42.3646 50.0326 0.0000 0.0000 0.0000
# 2 42.3646 73.0920 49.9733 0.0000 0.0000 0.0000
# 3 50.0326 49.9733 85.8752 0.0000 0.0000 0.0000
# 4 0.0000 0.0000 0.0000 7.6347 0.0000 0.0000
# 5 0.0000 0.0000 0.0000 0.0000 12.6195 0.0000
# 6 0.0000 0.0000 0.0000 0.0000 0.0000 17.7124
#
#
#
# Elastic Compliance Matrix: (Units=1/GPa)
#
#
# Indices 1 2 3 4 5 6 
#
# 1 0.022618 -0.006809 -0.009215 0.000000 0.000000 0.000000
# 2 -0.006809 0.024771 -0.010448 0.000000 0.000000 0.000000
# 3 -0.009215 -0.010448 0.023094 0.000000 0.000000 0.000000
# 4 0.000000 0.000000 0.000000 0.130980 0.000000 0.000000
# 5 0.000000 0.000000 0.000000 0.000000 0.079243 0.000000
# 6 0.000000 0.000000 0.000000 0.000000 0.000000 0.056458
#
#
# Mechanical properties :
#
#
# Convention : Reuss Voigt Hill
#
# Bulk Modulus (GPa) = 57.01797 57.89555 57.45676
# Shear Modulus (GPa) = 12.62774 13.85657 13.24216
#
# Velocity S-wave (km/s) = 3.12950 3.27823 3.20473
# Velocity P-wave (km/s) = 7.56836 7.69620 7.63255
#
# Compressibility (1/GPa) = 0.01753833
#
# Stress axis : x y z
#
# Youngs Moduli (GPa) = 44.21341 40.36935 43.30157
#
# Poissons Ratio (x) = 0.27487 0.39903
# Poissons Ratio (y) = 0.30104 0.45242
# Poissons Ratio (z) = 0.40744 0.42179
#
# Static dielectric constant tensor:
#      x y z
#    x 2.545200 0.000000 0.000000 
#    y 0.000000 2.538380 0.000000 
#    z 0.000000 0.000000 2.605370 
# 
# 
# High freq. dielectric constant tensor:
#      x y z
#    x 1.485760 0.000000 0.000000 
#    y 0.000000 1.484010 0.000000 
#    z 0.000000 0.000000 1.466620 
# 
# From -- ./inp_files/54413.got.cif
#   From: 2010.03.12/outbox.cif.g09.slc.cpg/sg65_28_cif.got.tgz:54413.got - 2010.04.10 20:52:16.
