data_PCOD8265120
_publ_section_title
;
Structure prediction by ZEFSAII (Michael W. Deem and Ramdas Pophale) SiO2 
 PCOD8265120
Probable space group: C M M M
;
_chemical_formula_sum "Si O2"
_cell_formula_units_Z 64
_cell_length_a 8.596169
_cell_length_b 19.541381
_cell_length_c 22.450926
_cell_angle_alpha 90.000000
_cell_angle_beta 90.000000
_cell_angle_gamma 90.000000
_cell_volume 3771.329305
_symmetry_space_group_name_H-M "C M M M"
_symmetry_group_IT_number 65
_symmetry_cell_setting 'orthorhombic'
loop_
_space_group_symop_operation_xyz
x,y,z
-x,-y,z
x,-y,-z
-x,y,-z
-x,-y,-z
x,y,-z
-x,y,z
x,-y,z
1/2+x,1/2+y,z
1/2-x,1/2-y,z
1/2+x,1/2-y,-z
1/2-x,1/2+y,-z
1/2-x,1/2-y,-z
1/2+x,1/2+y,-z
1/2-x,1/2+y,z
1/2+x,1/2-y,z
loop_
_atom_site_type_symbol
_atom_site_label
_atom_site_fract_x
_atom_site_fract_y
_atom_site_fract_z
Si Si1 0.815509 0.500000 0.067791
Si Si2 0.317800 0.175228 0.739764
Si Si3 0.316061 0.673790 0.619228
Si Si4 0.823856 0.075755 0.832053
Si Si5 0.316065 0.173440 0.500000
O O1 0.747272 0.567726 0.101096
O O2 0.000000 0.500000 0.072066
O O3 0.757000 0.500000 0.000000
O O4 0.500000 0.181833 0.729116
O O5 0.250000 0.250000 0.752802
O O6 0.240601 0.139725 0.681018
O O7 0.283136 0.127400 0.795688
O O8 0.500000 0.673444 0.615082
O O9 0.250000 0.750000 0.621362
O O10 0.246618 0.636226 0.560191
O O11 0.000000 0.104061 0.835404
O O12 0.820859 0.000000 0.801673
O O13 0.500000 0.174219 0.500000
O O14 0.250000 0.250000 0.500000
#
# Coordination Sequence:
#
# PCOD8265120 Si02
#       5
#     8  16  16  16   8
#     4   9  17  31  53  79 103 128 161 198 235 277
#     4  11  20  31  48  70 100 131 164 201 247 294
#     4  10  17  26  39  58  86 119 157 196 243 289
#     4   9  19  33  51  74 101 129 164 200 238 283
#     4  10  16  24  36  54  81 114 155 196 241 286
#
# _framework density 16.970144999999999
#
# number of rings (size 3 to 8) (size 9 to 14) (size 15 to 20)
#    0.750    1.375    0.000    9.375    0.000    1.000 
#    0.000    0.000    0.000    0.750    0.000    0.875 
#    0.000    7.000    0.000    0.000    0.000    0.000 
#
# Total GULP energy -396494.077028 kJ/mol
# GULP energy per Si atom -12390.439907 kJ/mol
# Density = 1.693152 g / cm^3
# Si number density = 16.970145 Si / 1000 Ang^3
#
#
#
# Elastic Constant Matrix: (Units=GPa)
#
#
# Indices 1 2 3 4 5 6 
#
# 1 154.5756 21.0191 51.1202 0.0000 0.0000 0.0000
# 2 21.0191 34.8306 36.4585 0.0000 0.0000 0.0000
# 3 51.1202 36.4585 152.8869 0.0000 0.0000 0.0000
# 4 0.0000 0.0000 0.0000 -0.0681 0.0000 0.0000
# 5 0.0000 0.0000 0.0000 0.0000 32.6097 0.0000
# 6 0.0000 0.0000 0.0000 0.0000 0.0000 19.2192
#
#
#
# Elastic Compliance Matrix: (Units=1/GPa)
#
#
# Indices 1 2 3 4 5 6 
#
# 1 0.007435 -0.002511 -0.001887 0.000000 0.000000 0.000000
# 2 -0.002511 0.039109 -0.008486 0.000000 0.000000 0.000000
# 3 -0.001887 -0.008486 0.009196 0.000000 0.000000 0.000000
# 4 0.000000 0.000000 0.000000-14.680393 0.000000 0.000000
# 5 0.000000 0.000000 0.000000 0.000000 0.030666 0.000000
# 6 0.000000 0.000000 0.000000 0.000000 0.000000 0.052031
#
#
# Mechanical properties :
#
#
# Convention : Reuss Voigt Hill
#
# Bulk Modulus (GPa) = 33.36729 62.16542 47.76636
# Shear Modulus (GPa) = -0.34468 25.93185 12.79358
#
# Velocity S-wave (km/s) = -0.45117 3.91332 2.74868
# Velocity P-wave (km/s) = 4.40836 7.55847 6.18725
#
# Compressibility (1/GPa) = 0.02996947
#
# Stress axis : x y z
#
# Youngs Moduli (GPa) = 134.50054 25.56952 108.74883
#
# Poissons Ratio (x) = 0.06422 0.20522
# Poissons Ratio (y) = 0.33779 0.92289
# Poissons Ratio (z) = 0.25381 0.21700
#
# Static dielectric constant tensor:
#      x y z
#    x 3.261730 0.000000 0.000000 
#    y 0.000000 2.510980 0.000000 
#    z 0.000000 0.000000 3.830670 
# 
# 
# High freq. dielectric constant tensor:
#      x y z
#    x 1.680260 0.000000 0.000000 
#    y 0.000000 1.582630 0.000000 
#    z 0.000000 0.000000 1.664450 
# 
# From -- ./inp_files/67194.got.cif
#   From: 2010.03.12/outbox.cif.g09.slc.cpg/sg65_34_cif.got.tgz:67194.got - 2010.04.10 20:52:16.
