data_PCOD8265166
_publ_section_title
;
Structure prediction by ZEFSAII (Michael W. Deem and Ramdas Pophale) SiO2 
 PCOD8265166
Probable space group: C M M M
;
_chemical_formula_sum "Si O2"
_cell_formula_units_Z 88
_cell_length_a 31.005103
_cell_length_b 23.561942
_cell_length_c 8.909604
_cell_angle_alpha 90.000000
_cell_angle_beta 90.000000
_cell_angle_gamma 90.000000
_cell_volume 6508.826014
_symmetry_space_group_name_H-M "C M M M"
_symmetry_group_IT_number 65
_symmetry_cell_setting 'orthorhombic'
loop_
_space_group_symop_operation_xyz
x,y,z
-x,-y,z
x,-y,-z
-x,y,-z
-x,-y,-z
x,y,-z
-x,y,z
x,-y,z
1/2+x,1/2+y,z
1/2-x,1/2-y,z
1/2+x,1/2-y,-z
1/2-x,1/2+y,-z
1/2-x,1/2-y,-z
1/2+x,1/2+y,-z
1/2-x,1/2+y,z
1/2+x,1/2-y,z
loop_
_atom_site_type_symbol
_atom_site_label
_atom_site_fract_x
_atom_site_fract_y
_atom_site_fract_z
Si Si1 0.854606 0.500000 0.329267
Si Si2 0.410902 0.109362 0.673579
Si Si3 0.706528 0.714385 0.168819
Si Si4 0.000000 0.565308 0.680383
Si Si5 0.751721 0.383252 0.323376
Si Si6 0.336656 0.186733 0.677651
Si Si7 0.234010 0.500000 0.823663
O O1 0.835922 0.500000 0.500000
O O2 0.883841 0.446559 0.298885
O O3 0.816503 0.500000 0.210917
O O4 0.417860 0.121261 0.500000
O O5 0.458304 0.099455 0.745214
O O6 0.382475 0.161694 0.738088
O O7 0.750000 0.750000 0.170720
O O8 0.713558 0.657344 0.263985
O O9 0.669266 0.752548 0.243602
O O10 0.692802 0.698454 0.000000
O O11 0.000000 0.500000 0.738007
O O12 0.000000 0.563976 0.500000
O O13 0.746958 0.390161 0.500000
O O14 0.798562 0.357556 0.280113
O O15 0.744650 0.443994 0.246783
O O16 0.336666 0.196079 0.500000
O O17 0.242017 0.500000 0.000000
#
# Coordination Sequence:
#
# PCOD8265166 Si02
#       7
#     8  16  16   8  16  16   8
#     4  10  16  27  40  52  72 100 132 166 201 241
#     4   9  15  23  37  56  76  98 129 167 206 243
#     4   9  17  28  40  56  76  94 119 156 196 232
#     4   9  14  20  34  56  80 100 124 167 214 241
#     4  10  18  29  43  56  74  99 127 156 192 233
#     4   9  16  26  40  55  72  97 129 161 195 236
#     4  12  22  28  37  57  81 102 128 161 197 232
#
# _framework density 13.520103000000001
#
# number of rings (size 3 to 8) (size 9 to 14) (size 15 to 20)
#    0.000    2.455    2.727    1.909    0.000    2.909 
#    0.000    0.000    0.000    0.000    0.000    3.182 
#    0.000    0.000    0.000    0.000    0.000    0.909 
#
# Total GULP energy -545312.340855 kJ/mol
# GULP energy per Si atom -12393.462292 kJ/mol
# Density = 1.348933 g / cm^3
# Si number density = 13.520103 Si / 1000 Ang^3
#
#
#
# Elastic Constant Matrix: (Units=GPa)
#
#
# Indices 1 2 3 4 5 6 
#
# 1 73.4521 53.3008 20.4631 0.0000 0.0000 0.0000
# 2 53.3008 98.7981 41.1317 0.0000 0.0000 0.0000
# 3 20.4631 41.1317 56.3336 0.0000 0.0000 0.0000
# 4 0.0000 0.0000 0.0000 17.5485 0.0000 0.0000
# 5 0.0000 0.0000 0.0000 0.0000 6.9822 0.0000
# 6 0.0000 0.0000 0.0000 0.0000 0.0000 37.3623
#
#
#
# Elastic Compliance Matrix: (Units=1/GPa)
#
#
# Indices 1 2 3 4 5 6 
#
# 1 0.022411 -0.012502 0.000987 0.000000 0.000000 0.000000
# 2 -0.012502 0.021516 -0.011168 0.000000 0.000000 0.000000
# 3 0.000987 -0.011168 0.025547 0.000000 0.000000 0.000000
# 4 0.000000 0.000000 0.000000 0.056985 0.000000 0.000000
# 5 0.000000 0.000000 0.000000 0.000000 0.143220 0.000000
# 6 0.000000 0.000000 0.000000 0.000000 0.000000 0.026765
#
#
# Mechanical properties :
#
#
# Convention : Reuss Voigt Hill
#
# Bulk Modulus (GPa) = 41.47906 50.93054 46.20480
# Shear Modulus (GPa) = 14.29199 19.95784 17.12491
#
# Velocity S-wave (km/s) = 3.25482 3.84625 3.56283
# Velocity P-wave (km/s) = 6.69860 7.58135 7.15361
#
# Compressibility (1/GPa) = 0.02410855
#
# Stress axis : x y z
#
# Youngs Moduli (GPa) = 44.62075 46.47745 39.14293
#
# Poissons Ratio (x) = 0.58104 -0.03864
# Poissons Ratio (y) = 0.55783 0.43717
# Poissons Ratio (z) = -0.04405 0.51908
#
# Static dielectric constant tensor:
#      x y z
#    x 2.661050 0.000000 0.000000 
#    y 0.000000 2.732140 0.000000 
#    z 0.000000 0.000000 2.571700 
# 
# 
# High freq. dielectric constant tensor:
#      x y z
#    x 1.475250 0.000000 0.000000 
#    y 0.000000 1.504820 0.000000 
#    z 0.000000 0.000000 1.501950 
# 
# From -- ./inp_files/18835.got.cif
#   From: 2010.03.12/outbox.cif.g09.slc.cpg/sg65_10_cif.got.tgz:18835.got - 2010.04.10 20:52:16.
