data_PCOD8265962
_publ_section_title
;
Structure prediction by ZEFSAII (Michael W. Deem and Ramdas Pophale) SiO2 
 PCOD8265962
Probable space group: C M M M
;
_chemical_formula_sum "Si O2"
_cell_formula_units_Z 72
_cell_length_a 9.202652
_cell_length_b 28.251477
_cell_length_c 18.271819
_cell_angle_alpha 90.000000
_cell_angle_beta 90.000000
_cell_angle_gamma 90.000000
_cell_volume 4750.463021
_symmetry_space_group_name_H-M "C M M M"
_symmetry_group_IT_number 65
_symmetry_cell_setting 'orthorhombic'
loop_
_space_group_symop_operation_xyz
x,y,z
-x,-y,z
x,-y,-z
-x,y,-z
-x,-y,-z
x,y,-z
-x,y,z
x,-y,z
1/2+x,1/2+y,z
1/2-x,1/2-y,z
1/2+x,1/2-y,-z
1/2-x,1/2+y,-z
1/2-x,1/2-y,-z
1/2+x,1/2+y,-z
1/2-x,1/2+y,z
1/2+x,1/2-y,z
loop_
_atom_site_type_symbol
_atom_site_label
_atom_site_fract_x
_atom_site_fract_y
_atom_site_fract_z
Si Si1 0.672166 0.552612 0.500000
Si Si2 0.663862 0.056226 0.920029
Si Si3 0.670163 0.798257 0.584912
Si Si4 0.672147 0.612471 0.361570
Si Si5 0.170536 0.053855 0.219971
O O1 0.740207 0.500000 0.500000
O O2 0.500000 0.548970 0.500000
O O3 0.725916 0.579754 0.428121
O O4 0.500000 0.073877 0.907285
O O5 0.761653 0.076034 0.854007
O O6 0.670822 0.000000 0.919503
O O7 0.719369 0.074355 0.000000
O O8 0.697924 0.810594 0.500000
O O9 0.500000 0.793482 0.602298
O O10 0.750000 0.750000 0.606321
O O11 0.741347 0.838532 0.635037
O O12 0.500000 0.622232 0.365648
O O13 0.718689 0.586209 0.287500
O O14 0.000000 0.054641 0.209616
O O15 0.224260 0.000000 0.234322
#
# Coordination Sequence:
#
# PCOD8265962 Si02
#       5
#     8  16  16  16  16
#     4   9  16  26  42  61  82 115 154 183 206 241
#     4   8  14  25  40  57  79 111 149 183 217 258
#     4  10  20  33  49  66  84 106 139 182 228 271
#     4  10  18  29  45  64  87 115 148 182 217 257
#     4   9  17  27  40  62  90 118 149 183 216 252
#
# _framework density 15.156416999999999
#
# number of rings (size 3 to 8) (size 9 to 14) (size 15 to 20)
#    0.000    2.778    1.111    2.000    0.000    4.889 
#    0.000    2.222    0.000    2.667    0.000    0.000 
#    0.000    0.889    0.000    2.889    0.000    4.222 
#
# Total GULP energy -446289.339330 kJ/mol
# GULP energy per Si atom -12396.926093 kJ/mol
# Density = 1.512192 g / cm^3
# Si number density = 15.156417 Si / 1000 Ang^3
#
#
#
# Elastic Constant Matrix: (Units=GPa)
#
#
# Indices 1 2 3 4 5 6 
#
# 1 50.3786 41.2697 47.1765 0.0000 0.0000 0.0000
# 2 41.2697 90.0701 56.8679 0.0000 0.0000 0.0000
# 3 47.1765 56.8679 139.6950 0.0000 0.0000 0.0000
# 4 0.0000 0.0000 0.0000 6.3402 0.0000 0.0000
# 5 0.0000 0.0000 0.0000 0.0000 23.8920 0.0000
# 6 0.0000 0.0000 0.0000 0.0000 0.0000 21.0205
#
#
#
# Elastic Compliance Matrix: (Units=1/GPa)
#
#
# Indices 1 2 3 4 5 6 
#
# 1 0.036803 -0.012135 -0.007489 0.000000 0.000000 0.000000
# 2 -0.012135 0.018944 -0.003614 0.000000 0.000000 0.000000
# 3 -0.007489 -0.003614 0.011159 0.000000 0.000000 0.000000
# 4 0.000000 0.000000 0.000000 0.157723 0.000000 0.000000
# 5 0.000000 0.000000 0.000000 0.000000 0.041855 0.000000
# 6 0.000000 0.000000 0.000000 0.000000 0.000000 0.047573
#
#
# Mechanical properties :
#
#
# Convention : Reuss Voigt Hill
#
# Bulk Modulus (GPa) = 48.94517 63.41911 56.18214
# Shear Modulus (GPa) = 13.61128 19.23919 16.42523
#
# Velocity S-wave (km/s) = 3.00001 3.56670 3.29555
# Velocity P-wave (km/s) = 6.66059 7.67435 7.18537
#
# Compressibility (1/GPa) = 0.02043103
#
# Stress axis : x y z
#
# Youngs Moduli (GPa) = 27.17144 52.78629 89.61585
#
# Poissons Ratio (x) = 0.64055 0.67113
# Poissons Ratio (y) = 0.32972 0.32386
# Poissons Ratio (z) = 0.20349 0.19077
#
# Static dielectric constant tensor:
#      x y z
#    x 2.823720 0.000000 0.000000 
#    y 0.000000 2.718390 0.000000 
#    z 0.000000 0.000000 3.135370 
# 
# 
# High freq. dielectric constant tensor:
#      x y z
#    x 1.572140 0.000000 0.000000 
#    y 0.000000 1.547510 0.000000 
#    z 0.000000 0.000000 1.576770 
# 
# From -- ./inp_files/49748.got.cif
#   From: 2010.03.12/outbox.cif.g09.slc.cpg/sg65_25_cif.got.tgz:49748.got - 2010.04.10 20:52:16.
