data_PCOD8265350
_publ_section_title
;
Structure prediction by ZEFSAII (Michael W. Deem and Ramdas Pophale) SiO2 
 PCOD8265350
Probable space group: C M M M
;
_chemical_formula_sum "Si O2"
_cell_formula_units_Z 112
_cell_length_a 28.616571
_cell_length_b 14.775648
_cell_length_c 14.194756
_cell_angle_alpha 90.000000
_cell_angle_beta 90.000000
_cell_angle_gamma 90.000000
_cell_volume 6001.945685
_symmetry_space_group_name_H-M "C M M M"
_symmetry_group_IT_number 65
_symmetry_cell_setting 'orthorhombic'
loop_
_space_group_symop_operation_xyz
x,y,z
-x,-y,z
x,-y,-z
-x,y,-z
-x,-y,-z
x,y,-z
-x,y,z
x,-y,z
1/2+x,1/2+y,z
1/2-x,1/2-y,z
1/2+x,1/2-y,-z
1/2-x,1/2+y,-z
1/2-x,1/2-y,-z
1/2+x,1/2+y,-z
1/2-x,1/2+y,z
1/2+x,1/2-y,z
loop_
_atom_site_type_symbol
_atom_site_label
_atom_site_fract_x
_atom_site_fract_y
_atom_site_fract_z
Si Si1 0.211791 0.132536 0.395881
Si Si2 0.684154 0.839904 0.604415
Si Si3 0.406829 0.601894 0.891631
Si Si4 0.276870 0.107860 0.893419
Si Si5 0.867856 0.393221 0.785645
Si Si6 0.947183 0.712436 0.108276
Si Si7 0.815035 0.901259 0.199060
O O1 0.197007 0.096870 0.500000
O O2 0.266593 0.108832 0.379837
O O3 0.198381 0.236403 0.386389
O O4 0.184054 0.084771 0.311884
O O5 0.664344 0.860900 0.500000
O O6 0.644088 0.870663 0.676939
O O7 0.422226 0.500000 0.856687
O O8 0.446201 0.678259 0.875353
O O9 0.362683 0.644981 0.835251
O O10 0.392570 0.595586 0.000000
O O11 0.324178 0.144104 0.846121
O O12 0.231801 0.149342 0.838116
O O13 0.276829 0.000000 0.886278
O O14 0.275050 0.142693 0.000000
O O15 0.876127 0.500000 0.798461
O O16 0.914148 0.341815 0.819949
O O17 0.000000 0.680679 0.128209
O O18 0.932878 0.690110 0.000000
O O19 0.816210 0.000000 0.150726
#
# Coordination Sequence:
#
# PCOD8265350 Si02
#       7
#    16  16  16  16  16  16  16
#     4   9  17  29  45  67 101 143 180 214 252 296
#     4   9  18  32  49  70  99 136 177 219 258 299
#     4   9  18  33  54  79 106 137 172 211 258 313
#     4   9  17  28  42  65 100 139 174 206 241 290
#     4  11  21  34  53  76 104 140 179 219 261 309
#     4  10  22  39  57  78 103 131 170 221 272 322
#     4  10  17  27  45  71 105 140 169 205 249 296
#
# _framework density 18.660616000000001
#
# number of rings (size 3 to 8) (size 9 to 14) (size 15 to 20)
#    0.000    2.429    1.429    2.571    0.000    3.714 
#    0.000    3.571    0.000    3.857    0.000    1.000 
#    0.000    0.000    0.000   12.286    0.000    0.286 
#
# Total GULP energy -693873.959755 kJ/mol
# GULP energy per Si atom -12390.606424 kJ/mol
# Density = 1.861814 g / cm^3
# Si number density = 18.660616 Si / 1000 Ang^3
#
#
#
# Elastic Constant Matrix: (Units=GPa)
#
#
# Indices 1 2 3 4 5 6 
#
# 1 80.1043 22.7277 38.9666 0.0000 0.0000 0.0000
# 2 22.7277 55.5366 17.7528 0.0000 0.0000 0.0000
# 3 38.9666 17.7528 112.8322 0.0000 0.0000 0.0000
# 4 0.0000 0.0000 0.0000 21.1298 0.0000 0.0000
# 5 0.0000 0.0000 0.0000 0.0000 21.4014 0.0000
# 6 0.0000 0.0000 0.0000 0.0000 0.0000 17.1654
#
#
#
# Elastic Compliance Matrix: (Units=1/GPa)
#
#
# Indices 1 2 3 4 5 6 
#
# 1 0.016280 -0.005123 -0.004816 0.000000 0.000000 0.000000
# 2 -0.005123 0.020572 -0.001468 0.000000 0.000000 0.000000
# 3 -0.004816 -0.001468 0.010757 0.000000 0.000000 0.000000
# 4 0.000000 0.000000 0.000000 0.047327 0.000000 0.000000
# 5 0.000000 0.000000 0.000000 0.000000 0.046726 0.000000
# 6 0.000000 0.000000 0.000000 0.000000 0.000000 0.058257
#
#
# Mechanical properties :
#
#
# Convention : Reuss Voigt Hill
#
# Bulk Modulus (GPa) = 40.33012 45.26301 42.79657
# Shear Modulus (GPa) = 21.64537 23.20773 22.42655
#
# Velocity S-wave (km/s) = 3.40950 3.53040 3.47048
# Velocity P-wave (km/s) = 6.09581 6.39741 6.24843
#
# Compressibility (1/GPa) = 0.02479536
#
# Stress axis : x y z
#
# Youngs Moduli (GPa) = 61.42469 48.61039 92.96336
#
# Poissons Ratio (x) = 0.24902 0.44774
# Poissons Ratio (y) = 0.31467 0.13643
# Poissons Ratio (z) = 0.29584 0.07134
#
# Static dielectric constant tensor:
#      x y z
#    x 3.175020 0.000000 0.000000 
#    y 0.000000 3.321460 0.000000 
#    z 0.000000 0.000000 3.562110 
# 
# 
# High freq. dielectric constant tensor:
#      x y z
#    x 1.682960 0.000000 0.000000 
#    y 0.000000 1.724230 0.000000 
#    z 0.000000 0.000000 1.721720 
# 
# From -- ./inp_files/47084.got.cif
#   From: 2010.03.12/outbox.cif.g09.slc.cpg/sg65_24_cif.got.tgz:47084.got - 2010.04.10 20:52:16.
