data_PCOD8265980
_publ_section_title
;
Structure prediction by ZEFSAII (Michael W. Deem and Ramdas Pophale) SiO2 
 PCOD8265980
Probable space group: C M M M
;
_chemical_formula_sum "Si O2"
_cell_formula_units_Z 80
_cell_length_a 23.352338
_cell_length_b 9.964033
_cell_length_c 22.098126
_cell_angle_alpha 90.000000
_cell_angle_beta 90.000000
_cell_angle_gamma 90.000000
_cell_volume 5141.868560
_symmetry_space_group_name_H-M "C M M M"
_symmetry_group_IT_number 65
_symmetry_cell_setting 'orthorhombic'
loop_
_space_group_symop_operation_xyz
x,y,z
-x,-y,z
x,-y,-z
-x,y,-z
-x,-y,-z
x,y,-z
-x,y,z
x,-y,z
1/2+x,1/2+y,z
1/2-x,1/2-y,z
1/2+x,1/2-y,-z
1/2-x,1/2+y,-z
1/2-x,1/2-y,-z
1/2+x,1/2+y,-z
1/2-x,1/2+y,z
1/2+x,1/2-y,z
loop_
_atom_site_type_symbol
_atom_site_label
_atom_site_fract_x
_atom_site_fract_y
_atom_site_fract_z
Si Si1 0.315286 0.500000 0.933110
Si Si2 0.178478 0.500000 0.069741
Si Si3 0.681912 0.254829 0.858367
Si Si4 0.693177 0.337729 0.271963
Si Si5 0.305194 0.659337 0.500000
Si Si6 0.000000 0.160354 0.569305
Si Si7 0.380178 0.342447 0.386882
O O1 0.246728 0.500000 0.933253
O O2 0.341314 0.627176 0.899917
O O3 0.340059 0.500000 0.000000
O O4 0.155663 0.376388 0.109980
O O5 0.154948 0.500000 0.000000
O O6 0.750000 0.250000 0.858807
O O7 0.663131 0.284066 0.789456
O O8 0.706511 0.500000 0.268950
O O9 0.750000 0.250000 0.284807
O O10 0.647631 0.299705 0.323450
O O11 0.290710 0.500000 0.500000
O O12 0.250000 0.750000 0.500000
O O13 0.340179 0.705250 0.558667
O O14 0.943992 0.218088 0.604199
O O15 0.000000 0.211551 0.500000
O O16 0.000000 0.000000 0.569443
O O17 0.385840 0.500000 0.390340
#
# Coordination Sequence:
#
# PCOD8265980 Si02
#       7
#     8   8  16  16   8   8  16
#     4   9  14  22  34  50  72 106 145 178 208 248
#     4   9  16  24  36  54  76 106 147 188 216 246
#     4   9  16  24  35  51  77 110 146 180 213 254
#     4  10  19  29  41  60  89 121 152 181 217 266
#     4  10  18  29  45  67  95 118 147 182 216 256
#     4   9  14  26  48  70  90 112 143 186 236 270
#     4   9  17  28  44  67  90 115 146 188 225 262
#
# _framework density 15.558547000000001
#
# number of rings (size 3 to 8) (size 9 to 14) (size 15 to 20)
#    0.000    2.700    2.000    1.200    4.200    2.400 
#    0.000    0.000    0.000    0.000    0.000    3.500 
#    0.000    0.000    0.000    5.400    0.000    2.500 
#
# Total GULP energy -495555.312380 kJ/mol
# GULP energy per Si atom -12388.882810 kJ/mol
# Density = 1.552313 g / cm^3
# Si number density = 15.558547 Si / 1000 Ang^3
#
#
#
# Elastic Constant Matrix: (Units=GPa)
#
#
# Indices 1 2 3 4 5 6 
#
# 1 78.9042 28.9076 58.4225 0.0000 0.0000 0.0000
# 2 28.9076 85.6072 55.0290 0.0000 0.0000 0.0000
# 3 58.4225 55.0290 167.8119 0.0000 0.0000 0.0000
# 4 0.0000 0.0000 0.0000 27.5268 0.0000 0.0000
# 5 0.0000 0.0000 0.0000 0.0000 -2.6292 0.0000
# 6 0.0000 0.0000 0.0000 0.0000 0.0000 22.4635
#
#
#
# Elastic Compliance Matrix: (Units=1/GPa)
#
#
# Indices 1 2 3 4 5 6 
#
# 1 0.017495 -0.002525 -0.005263 0.000000 0.000000 0.000000
# 2 -0.002525 0.015166 -0.004094 0.000000 0.000000 0.000000
# 3 -0.005263 -0.004094 0.009134 0.000000 0.000000 0.000000
# 4 0.000000 0.000000 0.000000 0.036328 0.000000 0.000000
# 5 0.000000 0.000000 0.000000 0.000000 -0.380346 0.000000
# 6 0.000000 0.000000 0.000000 0.000000 0.000000 0.044517
#
#
# Mechanical properties :
#
#
# Convention : Reuss Voigt Hill
#
# Bulk Modulus (GPa) = 55.45959 68.56015 62.00987
# Shear Modulus (GPa) = -21.93630 22.13652 0.10011
#
# Velocity S-wave (km/s) = -3.75896 3.77608 0.25394
# Velocity P-wave (km/s) = 4.10894 7.94816 6.32679
#
# Compressibility (1/GPa) = 0.01803115
#
# Stress axis : x y z
#
# Youngs Moduli (GPa) = 57.15789 65.93904 109.48253
#
# Poissons Ratio (x) = 0.16648 0.57621
# Poissons Ratio (y) = 0.14431 0.44824
# Poissons Ratio (z) = 0.30082 0.26996
#
# Static dielectric constant tensor:
#      x y z
#    x 2.693640 0.000000 0.000000 
#    y 0.000000 2.529750 0.000000 
#    z 0.000000 0.000000 3.624570 
# 
# 
# High freq. dielectric constant tensor:
#      x y z
#    x 1.535460 0.000000 0.000000 
#    y 0.000000 1.581330 0.000000 
#    z 0.000000 0.000000 1.618000 
# 
# From -- ./inp_files/71379.got.cif
#   From: 2010.03.12/outbox.cif.g09.slc.cpg/sg65_36_cif.got.tgz:71379.got - 2010.04.10 20:52:16.
