data_PCOD8265612
_publ_section_title
;
Structure prediction by ZEFSAII (Michael W. Deem and Ramdas Pophale) SiO2 
 PCOD8265612
Probable space group: C M M M
;
_chemical_formula_sum "Si O2"
_cell_formula_units_Z 80
_cell_length_a 9.210178
_cell_length_b 36.202751
_cell_length_c 17.057128
_cell_angle_alpha 90.000000
_cell_angle_beta 90.000000
_cell_angle_gamma 90.000000
_cell_volume 5687.422679
_symmetry_space_group_name_H-M "C M M M"
_symmetry_group_IT_number 65
_symmetry_cell_setting 'orthorhombic'
loop_
_space_group_symop_operation_xyz
x,y,z
-x,-y,z
x,-y,-z
-x,y,-z
-x,-y,-z
x,y,-z
-x,y,z
x,-y,z
1/2+x,1/2+y,z
1/2-x,1/2-y,z
1/2+x,1/2-y,-z
1/2-x,1/2+y,-z
1/2-x,1/2-y,-z
1/2+x,1/2+y,-z
1/2-x,1/2+y,z
1/2+x,1/2-y,z
loop_
_atom_site_type_symbol
_atom_site_label
_atom_site_fract_x
_atom_site_fract_y
_atom_site_fract_z
Si Si1 0.836240 0.714765 0.406670
Si Si2 0.168753 0.857372 0.409634
Si Si3 0.671192 0.429911 0.684961
Si Si4 0.672519 0.500000 0.412440
Si Si5 0.173123 0.457622 0.169356
Si Si6 0.658451 0.956320 0.000000
O O1 0.834942 0.716209 0.500000
O O2 0.750000 0.750000 0.372514
O O3 0.758864 0.677442 0.377765
O O4 0.000000 0.715627 0.374046
O O5 0.205347 0.866366 0.500000
O O6 0.214937 0.892366 0.358325
O O7 0.000000 0.847815 0.399997
O O8 0.500000 0.432759 0.698924
O O9 0.728643 0.463685 0.632081
O O10 0.751322 0.430839 0.768326
O O11 0.500000 0.500000 0.416851
O O12 0.738212 0.500000 0.500000
O O13 0.217091 0.500000 0.187384
O O14 0.000000 0.453051 0.172358
O O15 0.234839 0.445495 0.082697
O O16 0.500000 0.937579 0.000000
O O17 0.637985 0.000000 0.000000
#
# Coordination Sequence:
#
# PCOD8265612 Si02
#       6
#    16  16  16   8  16   8
#     4   9  16  26  41  59  77  98 125 160 200 240
#     4   9  17  28  40  55  76 104 137 168 197 232
#     4  10  18  27  40  57  77 101 133 171 204 233
#     4   9  16  26  39  52  69 100 140 173 199 229
#     4   9  16  27  42  57  74  97 127 162 201 244
#     4   7  12  24  41  57  71  93 124 155 192 245
#
# _framework density 14.066125
#
# number of rings (size 3 to 8) (size 9 to 14) (size 15 to 20)
#    0.000    3.000    1.000    2.400    0.000    5.600 
#    0.000    0.500    0.000    4.200    0.000    0.000 
#    0.000    0.000    0.000    0.900    0.000   11.600 
#
# Total GULP energy -495753.144960 kJ/mol
# GULP energy per Si atom -12393.828624 kJ/mol
# Density = 1.403411 g / cm^3
# Si number density = 14.066125 Si / 1000 Ang^3
#
#
#
# Elastic Constant Matrix: (Units=GPa)
#
#
# Indices 1 2 3 4 5 6 
#
# 1 49.7313 46.4908 32.1323 0.0000 0.0000 0.0000
# 2 46.4908 109.5085 50.0162 0.0000 0.0000 0.0000
# 3 32.1323 50.0162 97.9350 0.0000 0.0000 0.0000
# 4 0.0000 0.0000 0.0000 6.0364 0.0000 0.0000
# 5 0.0000 0.0000 0.0000 0.0000 16.1368 0.0000
# 6 0.0000 0.0000 0.0000 0.0000 0.0000 21.3786
#
#
#
# Elastic Compliance Matrix: (Units=1/GPa)
#
#
# Indices 1 2 3 4 5 6 
#
# 1 0.035196 -0.012609 -0.005108 0.000000 0.000000 0.000000
# 2 -0.012609 0.016427 -0.004252 0.000000 0.000000 0.000000
# 3 -0.005108 -0.004252 0.014059 0.000000 0.000000 0.000000
# 4 0.000000 0.000000 0.000000 0.165663 0.000000 0.000000
# 5 0.000000 0.000000 0.000000 0.000000 0.061970 0.000000
# 6 0.000000 0.000000 0.000000 0.000000 0.000000 0.046776
#
#
# Mechanical properties :
#
#
# Convention : Reuss Voigt Hill
#
# Bulk Modulus (GPa) = 45.99332 57.16150 51.57741
# Shear Modulus (GPa) = 12.77867 17.27937 15.02902
#
# Velocity S-wave (km/s) = 3.01736 3.50871 3.27227
# Velocity P-wave (km/s) = 6.70135 7.55914 7.14314
#
# Compressibility (1/GPa) = 0.02174229
#
# Stress axis : x y z
#
# Youngs Moduli (GPa) = 28.41227 60.87546 71.13103
#
# Poissons Ratio (x) = 0.76758 0.36335
# Poissons Ratio (y) = 0.35825 0.30248
# Poissons Ratio (z) = 0.14514 0.25887
#
# Static dielectric constant tensor:
#      x y z
#    x 2.620460 0.000000 0.000000 
#    y 0.000000 2.666760 0.000000 
#    z 0.000000 0.000000 2.759410 
# 
# 
# High freq. dielectric constant tensor:
#      x y z
#    x 1.523870 0.000000 0.000000 
#    y 0.000000 1.516450 0.000000 
#    z 0.000000 0.000000 1.512820 
# 
# From -- ./inp_files/50188.got.cif
#   From: 2010.03.12/outbox.cif.g09.slc.cpg/sg65_26_cif.got.tgz:50188.got - 2010.04.10 20:52:16.
