data_PCOD8265942
_publ_section_title
;
Structure prediction by ZEFSAII (Michael W. Deem and Ramdas Pophale) SiO2 
 PCOD8265942
Probable space group: C M M M
;
_chemical_formula_sum "Si O2"
_cell_formula_units_Z 80
_cell_length_a 8.044076
_cell_length_b 25.592381
_cell_length_c 23.665215
_cell_angle_alpha 90.000000
_cell_angle_beta 90.000000
_cell_angle_gamma 90.000000
_cell_volume 4871.888184
_symmetry_space_group_name_H-M "C M M M"
_symmetry_group_IT_number 65
_symmetry_cell_setting 'orthorhombic'
loop_
_space_group_symop_operation_xyz
x,y,z
-x,-y,z
x,-y,-z
-x,y,-z
-x,-y,-z
x,y,-z
-x,y,z
x,-y,z
1/2+x,1/2+y,z
1/2-x,1/2-y,z
1/2+x,1/2-y,-z
1/2-x,1/2+y,-z
1/2-x,1/2-y,-z
1/2+x,1/2+y,-z
1/2-x,1/2+y,z
1/2+x,1/2-y,z
loop_
_atom_site_type_symbol
_atom_site_label
_atom_site_fract_x
_atom_site_fract_y
_atom_site_fract_z
Si Si1 0.000000 0.937643 0.564092
Si Si2 0.684067 0.937902 0.366984
Si Si3 0.804711 0.807288 0.935514
Si Si4 0.191489 0.596893 0.134639
Si Si5 0.190698 0.058971 0.248485
Si Si6 0.698150 0.000000 0.936879
O O1 0.168001 0.915221 0.593686
O O2 0.000000 0.917305 0.500000
O O3 0.000000 0.000000 0.566620
O O4 0.500000 0.919324 0.387785
O O5 0.707411 0.919368 0.302178
O O6 0.695618 0.000000 0.368581
O O7 0.750000 0.750000 0.915695
O O8 0.713095 0.847618 0.894961
O O9 0.000000 0.814230 0.929262
O O10 0.746414 0.817050 0.000000
O O11 0.282937 0.596531 0.194924
O O12 0.266337 0.551471 0.094719
O O13 0.000000 0.585688 0.146381
O O14 0.000000 0.059184 0.267112
O O15 0.248117 0.000000 0.232373
O O16 0.500000 0.000000 0.939433
O O17 0.772713 0.000000 0.000000
#
# Coordination Sequence:
#
# PCOD8265942 Si02
#       6
#     8  16  16  16  16   8
#     4   9  16  26  38  56  82 112 152 198 234 268
#     4   9  16  26  40  57  80 114 152 192 236 277
#     4  10  21  37  54  70  88 114 150 193 239 289
#     4  11  20  31  48  70  93 119 153 191 234 288
#     4  10  18  29  44  62  90 120 153 194 235 277
#     4   9  18  30  43  63  93 121 145 182 235 287
#
# _framework density 16.420739000000001
#
# number of rings (size 3 to 8) (size 9 to 14) (size 15 to 20)
#    0.000    2.200    2.000    2.400    0.000    3.200 
#    0.000    2.000    0.000    2.400    0.000    0.000 
#    0.000    0.000    0.000    0.000    0.000    1.000 
#
# Total GULP energy -495969.886875 kJ/mol
# GULP energy per Si atom -12399.247172 kJ/mol
# Density = 1.638336 g / cm^3
# Si number density = 16.420739 Si / 1000 Ang^3
#
#
#
# Elastic Constant Matrix: (Units=GPa)
#
#
# Indices 1 2 3 4 5 6 
#
# 1 86.7605 10.9843 44.8068 0.0000 0.0000 0.0000
# 2 10.9843 56.9114 30.2284 0.0000 0.0000 0.0000
# 3 44.8068 30.2284 114.1555 0.0000 0.0000 0.0000
# 4 0.0000 0.0000 0.0000 30.6265 0.0000 0.0000
# 5 0.0000 0.0000 0.0000 0.0000 23.2323 0.0000
# 6 0.0000 0.0000 0.0000 0.0000 0.0000 14.8527
#
#
#
# Elastic Compliance Matrix: (Units=1/GPa)
#
#
# Indices 1 2 3 4 5 6 
#
# 1 0.014460 0.000260 -0.005744 0.000000 0.000000 0.000000
# 2 0.000260 0.020452 -0.005518 0.000000 0.000000 0.000000
# 3 -0.005744 -0.005518 0.012476 0.000000 0.000000 0.000000
# 4 0.000000 0.000000 0.000000 0.032651 0.000000 0.000000
# 5 0.000000 0.000000 0.000000 0.000000 0.043043 0.000000
# 6 0.000000 0.000000 0.000000 0.000000 0.000000 0.067328
#
#
# Mechanical properties :
#
#
# Convention : Reuss Voigt Hill
#
# Bulk Modulus (GPa) = 39.39584 47.76293 43.57938
# Shear Modulus (GPa) = 22.63723 25.19616 23.91670
#
# Velocity S-wave (km/s) = 3.71695 3.92141 3.82054
# Velocity P-wave (km/s) = 6.51648 7.04651 6.78667
#
# Compressibility (1/GPa) = 0.02538339
#
# Stress axis : x y z
#
# Youngs Moduli (GPa) = 69.15768 48.89574 80.15490
#
# Poissons Ratio (x) = -0.01273 0.46045
# Poissons Ratio (y) = -0.01801 0.44228
# Poissons Ratio (z) = 0.39728 0.26980
#
# Static dielectric constant tensor:
#      x y z
#    x 3.205090 0.000000 0.000000 
#    y 0.000000 2.623100 0.000000 
#    z 0.000000 0.000000 3.090510 
# 
# 
# High freq. dielectric constant tensor:
#      x y z
#    x 1.645330 0.000000 0.000000 
#    y 0.000000 1.564980 0.000000 
#    z 0.000000 0.000000 1.628280 
# 
# From -- ./inp_files/67763.got.cif
#   From: 2010.03.12/outbox.cif.g09.slc.cpg/sg65_34_cif.got.tgz:67763.got - 2010.04.10 20:52:16.
