data_PCOD8265571
_publ_section_title
;
Structure prediction by ZEFSAII (Michael W. Deem and Ramdas Pophale) SiO2 
 PCOD8265571
Probable space group: C M M M
;
_chemical_formula_sum "Si O2"
_cell_formula_units_Z 104
_cell_length_a 27.312188
_cell_length_b 9.131755
_cell_length_c 26.775479
_cell_angle_alpha 90.000000
_cell_angle_beta 90.000000
_cell_angle_gamma 90.000000
_cell_volume 6678.024271
_symmetry_space_group_name_H-M "C M M M"
_symmetry_group_IT_number 65
_symmetry_cell_setting 'orthorhombic'
loop_
_space_group_symop_operation_xyz
x,y,z
-x,-y,z
x,-y,-z
-x,y,-z
-x,-y,-z
x,y,-z
-x,y,z
x,-y,z
1/2+x,1/2+y,z
1/2-x,1/2-y,z
1/2+x,1/2-y,-z
1/2-x,1/2+y,-z
1/2-x,1/2-y,-z
1/2+x,1/2+y,-z
1/2-x,1/2+y,z
1/2+x,1/2-y,z
loop_
_atom_site_type_symbol
_atom_site_label
_atom_site_fract_x
_atom_site_fract_y
_atom_site_fract_z
Si Si1 0.197806 0.327443 0.339026
Si Si2 0.943347 0.673705 0.000000
Si Si3 0.648297 0.327189 0.750275
Si Si4 0.053589 0.826333 0.804600
Si Si5 0.699242 0.169255 0.552729
Si Si6 0.101840 0.171985 0.905708
Si Si7 0.799527 0.170071 0.148314
O O1 0.204710 0.500000 0.329914
O O2 0.250000 0.250000 0.333257
O O3 0.161078 0.262554 0.298810
O O4 0.173570 0.293099 0.394104
O O5 0.914701 0.734615 0.952556
O O6 0.940033 0.500000 0.000000
O O7 0.000000 0.726108 0.000000
O O8 0.651473 0.500000 0.739690
O O9 0.593158 0.275952 0.763732
O O10 0.683655 0.282734 0.796082
O O11 0.068452 0.773660 0.859749
O O12 0.000000 0.762908 0.790741
O O13 0.053483 0.000000 0.805723
O O14 0.670223 0.206801 0.500000
O O15 0.750000 0.250000 0.551342
O O16 0.712364 0.000000 0.553488
O O17 0.158382 0.206344 0.892089
O O18 0.094724 0.000000 0.916795
O O19 0.750000 0.250000 0.132434
O O20 0.788053 0.000000 0.148290
#
# Coordination Sequence:
#
# PCOD8265571 Si02
#       7
#    16   8  16  16  16  16  16
#     4  10  18  26  38  57  82 112 144 175 208 246
#     4  11  23  35  48  71  98 115 132 167 216 261
#     4   9  17  28  42  63  89 112 138 173 209 248
#     4   8  14  27  48  69  86 108 140 174 206 244
#     4   8  14  24  36  50  71 102 139 175 208 242
#     4   9  18  33  52  71  88 111 146 177 201 241
#     4   9  18  31  47  67  89 115 146 176 205 241
#
# _framework density 15.573468
#
# number of rings (size 3 to 8) (size 9 to 14) (size 15 to 20)
#    0.000    3.000    0.000    3.462    0.000    4.308 
#    0.000    2.692    0.000    1.385    0.000    0.000 
#    0.000    0.615    0.000    7.692    0.000    0.000 
#
# Total GULP energy -644179.300153 kJ/mol
# GULP energy per Si atom -12388.063464 kJ/mol
# Density = 1.553802 g / cm^3
# Si number density = 15.573468 Si / 1000 Ang^3
#
#
#
# Elastic Constant Matrix: (Units=GPa)
#
#
# Indices 1 2 3 4 5 6 
#
# 1 107.1272 34.6624 62.4724 0.0000 0.0000 0.0000
# 2 34.6624 45.6391 47.1531 0.0000 0.0000 0.0000
# 3 62.4724 47.1531 146.5831 0.0000 0.0000 0.0000
# 4 0.0000 0.0000 0.0000 20.2885 0.0000 0.0000
# 5 0.0000 0.0000 0.0000 0.0000 1.4806 0.0000
# 6 0.0000 0.0000 0.0000 0.0000 0.0000 19.0474
#
#
#
# Elastic Compliance Matrix: (Units=1/GPa)
#
#
# Indices 1 2 3 4 5 6 
#
# 1 0.013598 -0.006500 -0.003704 0.000000 0.000000 0.000000
# 2 -0.006500 0.035926 -0.008786 0.000000 0.000000 0.000000
# 3 -0.003704 -0.008786 0.011227 0.000000 0.000000 0.000000
# 4 0.000000 0.000000 0.000000 0.049289 0.000000 0.000000
# 5 0.000000 0.000000 0.000000 0.000000 0.675404 0.000000
# 6 0.000000 0.000000 0.000000 0.000000 0.000000 0.052500
#
#
# Mechanical properties :
#
#
# Convention : Reuss Voigt Hill
#
# Bulk Modulus (GPa) = 43.91917 65.32501 54.62209
# Shear Modulus (GPa) = 5.65920 18.50074 12.07997
#
# Velocity S-wave (km/s) = 1.90834 3.45043 2.78812
# Velocity P-wave (km/s) = 5.75484 7.60995 6.74646
#
# Compressibility (1/GPa) = 0.02276910
#
# Stress axis : x y z
#
# Youngs Moduli (GPa) = 73.53888 27.83520 89.06929
#
# Poissons Ratio (x) = 0.18094 0.32995
# Poissons Ratio (y) = 0.47804 0.78258
# Poissons Ratio (z) = 0.27242 0.24457
#
# Static dielectric constant tensor:
#      x y z
#    x 3.020590 0.000000 0.000000 
#    y 0.000000 2.814990 0.000000 
#    z 0.000000 0.000000 3.321830 
# 
# 
# High freq. dielectric constant tensor:
#      x y z
#    x 1.569380 0.000000 0.000000 
#    y 0.000000 1.587650 0.000000 
#    z 0.000000 0.000000 1.603390 
# 
# From -- ./inp_files/76057.got.cif
#   From: 2010.03.12/outbox.cif.g09.slc.cpg/sg65_39_cif.got.tgz:76057.got - 2010.04.10 20:52:16.
