data_PCOD8265188
_publ_section_title
;
Structure prediction by ZEFSAII (Michael W. Deem and Ramdas Pophale) SiO2 
 PCOD8265188
Probable space group: C M M M
;
_chemical_formula_sum "Si O2"
_cell_formula_units_Z 72
_cell_length_a 20.839270
_cell_length_b 32.689094
_cell_length_c 8.002084
_cell_angle_alpha 90.000000
_cell_angle_beta 90.000000
_cell_angle_gamma 90.000000
_cell_volume 5451.154503
_symmetry_space_group_name_H-M "C M M M"
_symmetry_group_IT_number 65
_symmetry_cell_setting 'orthorhombic'
loop_
_space_group_symop_operation_xyz
x,y,z
-x,-y,z
x,-y,-z
-x,y,-z
-x,-y,-z
x,y,-z
-x,y,z
x,-y,z
1/2+x,1/2+y,z
1/2-x,1/2-y,z
1/2+x,1/2-y,-z
1/2-x,1/2+y,-z
1/2-x,1/2-y,-z
1/2+x,1/2+y,-z
1/2-x,1/2+y,z
1/2+x,1/2-y,z
loop_
_atom_site_type_symbol
_atom_site_label
_atom_site_fract_x
_atom_site_fract_y
_atom_site_fract_z
Si Si1 0.876148 0.832512 0.810954
Si Si2 0.738013 0.798034 0.180535
Si Si3 0.072111 0.214510 0.500000
Si Si4 0.076018 0.000000 0.189377
Si Si5 0.185321 0.277595 0.500000
Si Si6 0.926121 0.913578 0.692499
O O1 0.802800 0.821653 0.772322
O O2 0.920063 0.811646 0.669740
O O3 0.885263 0.881350 0.800027
O O4 0.894420 0.817898 0.000000
O O5 0.750000 0.750000 0.165749
O O6 0.687349 0.805549 0.331685
O O7 0.711437 0.813669 0.000000
O O8 0.120612 0.252109 0.500000
O O9 0.000000 0.231860 0.500000
O O10 0.102442 0.959035 0.278016
O O11 0.000000 0.000000 0.205609
O O12 0.099749 0.000000 0.000000
O O13 0.250000 0.250000 0.500000
O O14 0.919709 0.901801 0.500000
O O15 0.000000 0.911499 0.752303
#
# Coordination Sequence:
#
# PCOD8265188 Si02
#       6
#    16  16   8   8   8  16
#     4  11  20  30  43  59  78 100 127 164 205 240
#     4   9  16  27  44  59  71  95 130 157 187 234
#     4  12  22  30  40  61  83 100 126 164 204 240
#     4   9  17  29  41  51  67  97 131 156 191 242
#     4  10  16  30  46  54  72 104 128 151 193 236
#     4  10  19  29  40  54  74  98 126 161 200 239
#
# _framework density 13.208212
#
# number of rings (size 3 to 8) (size 9 to 14) (size 15 to 20)
#    0.000    1.889    5.556    1.667    0.000    4.000 
#    0.000    0.000    0.000    0.000    0.000    0.000 
#    0.000    0.000    0.000    0.000    0.000    0.000 
#
# Total GULP energy -446096.222719 kJ/mol
# GULP energy per Si atom -12391.561742 kJ/mol
# Density = 1.317815 g / cm^3
# Si number density = 13.208212 Si / 1000 Ang^3
#
#
#
# Elastic Constant Matrix: (Units=GPa)
#
#
# Indices 1 2 3 4 5 6 
#
# 1 54.1047 39.9711 33.2656 0.0000 0.0000 0.0000
# 2 39.9711 63.1087 23.2771 0.0000 0.0000 0.0000
# 3 33.2656 23.2771 105.9934 0.0000 0.0000 0.0000
# 4 0.0000 0.0000 0.0000 29.8404 0.0000 0.0000
# 5 0.0000 0.0000 0.0000 0.0000 -2.1396 0.0000
# 6 0.0000 0.0000 0.0000 0.0000 0.0000 16.4285
#
#
#
# Elastic Compliance Matrix: (Units=1/GPa)
#
#
# Indices 1 2 3 4 5 6 
#
# 1 0.039579 -0.022292 -0.007526 0.000000 0.000000 0.000000
# 2 -0.022292 0.029798 0.000452 0.000000 0.000000 0.000000
# 3 -0.007526 0.000452 0.011697 0.000000 0.000000 0.000000
# 4 0.000000 0.000000 0.000000 0.033512 0.000000 0.000000
# 5 0.000000 0.000000 0.000000 0.000000 -0.467372 0.000000
# 6 0.000000 0.000000 0.000000 0.000000 0.000000 0.060870
#
#
# Mechanical properties :
#
#
# Convention : Reuss Voigt Hill
#
# Bulk Modulus (GPa) = 44.75797 46.24828 45.50312
# Shear Modulus (GPa) = -22.14960 17.27206 -2.43877
#
# Velocity S-wave (km/s) = -4.09951 3.62010 -1.36030
# Velocity P-wave (km/s) = 3.39883 7.25013 5.66200
#
# Compressibility (1/GPa) = 0.02234239
#
# Stress axis : x y z
#
# Youngs Moduli (GPa) = 25.26601 33.55932 85.49031
#
# Poissons Ratio (x) = 0.74811 0.64341
# Poissons Ratio (y) = 0.56323 -0.03867
# Poissons Ratio (z) = 0.19015 -0.01518
#
# Static dielectric constant tensor:
#      x y z
#    x 2.053890 0.000000 0.000000 
#    y 0.000000 2.585100 0.000000 
#    z 0.000000 0.000000 3.606870 
# 
# 
# High freq. dielectric constant tensor:
#      x y z
#    x 1.449120 0.000000 0.000000 
#    y 0.000000 1.474580 0.000000 
#    z 0.000000 0.000000 1.536040 
# 
# From -- ./inp_files/12062.got.cif
#   From: 2010.03.12/outbox.cif.g09.slc.cpg/sg65_7_cif.got.tgz:12062.got - 2010.04.10 20:52:16.
