data_PCOD8265232
_publ_section_title
;
Structure prediction by ZEFSAII (Michael W. Deem and Ramdas Pophale) SiO2 
 PCOD8265232
Probable space group: C M M M
;
_chemical_formula_sum "Si O2"
_cell_formula_units_Z 104
_cell_length_a 8.805919
_cell_length_b 27.509947
_cell_length_c 27.109293
_cell_angle_alpha 90.000000
_cell_angle_beta 90.000000
_cell_angle_gamma 90.000000
_cell_volume 6567.236123
_symmetry_space_group_name_H-M "C M M M"
_symmetry_group_IT_number 65
_symmetry_cell_setting 'orthorhombic'
loop_
_space_group_symop_operation_xyz
x,y,z
-x,-y,z
x,-y,-z
-x,y,-z
-x,-y,-z
x,y,-z
-x,y,z
x,-y,z
1/2+x,1/2+y,z
1/2-x,1/2-y,z
1/2+x,1/2-y,-z
1/2-x,1/2+y,-z
1/2-x,1/2-y,-z
1/2+x,1/2+y,-z
1/2-x,1/2+y,z
1/2+x,1/2-y,z
loop_
_atom_site_type_symbol
_atom_site_label
_atom_site_fract_x
_atom_site_fract_y
_atom_site_fract_z
Si Si1 0.179332 0.196741 0.105431
Si Si2 0.179321 0.301164 0.601630
Si Si3 0.175252 0.891758 0.555971
Si Si4 0.178402 0.554584 0.642530
Si Si5 0.819096 0.696454 0.202780
Si Si6 0.179122 0.353253 0.300667
Si Si7 0.676367 0.697991 0.000000
O O1 0.250000 0.250000 0.102887
O O2 0.259438 0.170602 0.152156
O O3 0.000000 0.199490 0.115139
O O4 0.216645 0.170556 0.052063
O O5 0.250000 0.250000 0.586833
O O6 0.235811 0.341379 0.563236
O O7 0.233671 0.316340 0.656633
O O8 0.000000 0.297463 0.598141
O O9 0.198424 0.909491 0.500000
O O10 0.238909 0.933960 0.591196
O O11 0.000000 0.882601 0.568416
O O12 0.219082 0.500000 0.659585
O O13 0.233467 0.592055 0.685251
O O14 0.000000 0.561196 0.633033
O O15 0.750000 0.750000 0.208289
O O16 0.755397 0.663804 0.247983
O O17 0.000000 0.699833 0.202126
O O18 0.000000 0.352076 0.297122
O O19 0.750000 0.750000 0.000000
O O20 0.500000 0.709013 0.000000
#
# Coordination Sequence:
#
# PCOD8265232 Si02
#       7
#    16  16  16  16  16  16   8
#     4   9  15  23  33  48  70  99 137 173 205 236
#     4  10  19  32  49  67  88 115 146 176 206 243
#     4  10  21  35  49  67  91 115 139 169 205 245
#     4   9  18  34  54  71  86 107 136 169 207 252
#     4  10  17  25  37  55  81 109 137 168 201 236
#     4   8  16  29  44  63  85 108 135 168 204 244
#     4   8  14  22  32  44  64  96 133 174 207 233
#
# _framework density 15.83619
#
# number of rings (size 3 to 8) (size 9 to 14) (size 15 to 20)
#    0.000    2.769    0.000    4.154    0.000    2.769 
#    0.000    8.462    0.000    0.000    0.000    0.000 
#    0.000    0.000    0.000    0.692    0.000   16.077 
#
# Total GULP energy -644247.873620 kJ/mol
# GULP energy per Si atom -12389.382185 kJ/mol
# Density = 1.580015 g / cm^3
# Si number density = 15.836190 Si / 1000 Ang^3
#
#
#
# Elastic Constant Matrix: (Units=GPa)
#
#
# Indices 1 2 3 4 5 6 
#
# 1 60.2049 21.9877 34.3706 0.0000 0.0000 0.0000
# 2 21.9877 70.9255 35.2312 0.0000 0.0000 0.0000
# 3 34.3706 35.2312 133.5273 0.0000 0.0000 0.0000
# 4 0.0000 0.0000 0.0000 12.5683 0.0000 0.0000
# 5 0.0000 0.0000 0.0000 0.0000 21.5903 0.0000
# 6 0.0000 0.0000 0.0000 0.0000 0.0000 15.9859
#
#
#
# Elastic Compliance Matrix: (Units=1/GPa)
#
#
# Indices 1 2 3 4 5 6 
#
# 1 0.020555 -0.004309 -0.004154 0.000000 0.000000 0.000000
# 2 -0.004309 0.017129 -0.003410 0.000000 0.000000 0.000000
# 3 -0.004154 -0.003410 0.009458 0.000000 0.000000 0.000000
# 4 0.000000 0.000000 0.000000 0.079565 0.000000 0.000000
# 5 0.000000 0.000000 0.000000 0.000000 0.046317 0.000000
# 6 0.000000 0.000000 0.000000 0.000000 0.000000 0.062555
#
#
# Mechanical properties :
#
#
# Convention : Reuss Voigt Hill
#
# Bulk Modulus (GPa) = 42.74269 49.75964 46.25116
# Shear Modulus (GPa) = 18.71781 21.56679 20.14230
#
# Velocity S-wave (km/s) = 3.44170 3.69435 3.57026
# Velocity P-wave (km/s) = 6.54544 7.04892 6.80184
#
# Compressibility (1/GPa) = 0.02339581
#
# Stress axis : x y z
#
# Youngs Moduli (GPa) = 48.64957 58.38001 105.72806
#
# Poissons Ratio (x) = 0.25155 0.43921
# Poissons Ratio (y) = 0.20962 0.36058
# Poissons Ratio (z) = 0.20210 0.19910
#
# Static dielectric constant tensor:
#      x y z
#    x 2.869670 0.000000 0.000000 
#    y 0.000000 2.777370 0.000000 
#    z 0.000000 0.000000 3.795810 
# 
# 
# High freq. dielectric constant tensor:
#      x y z
#    x 1.610780 0.000000 0.000000 
#    y 0.000000 1.556930 0.000000 
#    z 0.000000 0.000000 1.618140 
# 
# From -- ./inp_files/73812.got.cif
#   From: 2010.03.12/outbox.cif.g09.slc.cpg/sg65_37_cif.got.tgz:73812.got - 2010.04.10 20:52:16.
