data_PCOD8265182
_publ_section_title
;
Structure prediction by ZEFSAII (Michael W. Deem and Ramdas Pophale) SiO2 
 PCOD8265182
Probable space group: C M M M
;
_chemical_formula_sum "Si O2"
_cell_formula_units_Z 76
_cell_length_a 29.299623
_cell_length_b 14.606254
_cell_length_c 11.112761
_cell_angle_alpha 90.000000
_cell_angle_beta 90.000000
_cell_angle_gamma 90.000000
_cell_volume 4755.792034
_symmetry_space_group_name_H-M "C M M M"
_symmetry_group_IT_number 65
_symmetry_cell_setting 'orthorhombic'
loop_
_space_group_symop_operation_xyz
x,y,z
-x,-y,z
x,-y,-z
-x,y,-z
-x,-y,-z
x,y,-z
-x,y,z
x,-y,z
1/2+x,1/2+y,z
1/2-x,1/2-y,z
1/2+x,1/2-y,-z
1/2-x,1/2+y,-z
1/2-x,1/2-y,-z
1/2+x,1/2+y,-z
1/2-x,1/2+y,z
1/2+x,1/2-y,z
loop_
_atom_site_type_symbol
_atom_site_label
_atom_site_fract_x
_atom_site_fract_y
_atom_site_fract_z
Si Si1 0.295887 0.697140 0.640665
Si Si2 0.948465 0.606712 0.140100
Si Si3 0.318443 0.000000 0.637989
Si Si4 0.221360 0.000000 0.263632
Si Si5 0.819703 0.601452 0.000000
Si Si6 0.266844 0.500000 0.000000
Si Si7 0.640411 0.831562 0.242586
O O1 0.300647 0.712471 0.500000
O O2 0.250000 0.750000 0.686341
O O3 0.296046 0.589848 0.669073
O O4 0.341347 0.736642 0.703652
O O5 0.940013 0.500000 0.167842
O O6 0.914160 0.668217 0.220142
O O7 0.000000 0.634612 0.174577
O O8 0.939142 0.626224 0.000000
O O9 0.276442 0.000000 0.731719
O O10 0.348261 0.089435 0.661469
O O11 0.300748 0.000000 0.500000
O O12 0.204165 0.000000 0.123935
O O13 0.764724 0.591382 0.000000
O O14 0.834479 0.655862 0.883381
O O15 0.843271 0.500000 0.000000
#
# Coordination Sequence:
#
# PCOD8265182 Si02
#       7
#    16  16   8   8   8   4  16
#     4  11  23  36  51  74 101 143 188 214 252 303
#     4   9  17  29  50  78 107 137 168 207 260 320
#     4  12  20  30  49  68  99 144 176 213 250 292
#     4  12  22  38  52  71 107 137 174 229 258 302
#     4  10  16  29  47  74 102 131 164 205 259 303
#     4  10  18  32  50  70  99 132 167 204 276 300
#     4  12  19  31  52  74 105 136 175 216 251 306
#
# _framework density 15.980513999999999
#
# number of rings (size 3 to 8) (size 9 to 14) (size 15 to 20)
#    0.316    0.842    7.368    2.211    0.000    0.842 
#    0.000    2.105    0.000    3.158    0.000    0.737 
#    0.000    3.368    0.000    0.000    0.000    0.000 
#
# Total GULP energy -471099.720386 kJ/mol
# GULP energy per Si atom -12397.361063 kJ/mol
# Density = 1.594414 g / cm^3
# Si number density = 15.980514 Si / 1000 Ang^3
#
#
#
# Elastic Constant Matrix: (Units=GPa)
#
#
# Indices 1 2 3 4 5 6 
#
# 1 99.9793 45.2177 27.0565 0.0000 0.0000 0.0000
# 2 45.2177 94.4386 24.7984 0.0000 0.0000 0.0000
# 3 27.0565 24.7984 78.5799 0.0000 0.0000 0.0000
# 4 0.0000 0.0000 0.0000 20.2087 0.0000 0.0000
# 5 0.0000 0.0000 0.0000 0.0000 18.4002 0.0000
# 6 0.0000 0.0000 0.0000 0.0000 0.0000 19.9647
#
#
#
# Elastic Compliance Matrix: (Units=1/GPa)
#
#
# Indices 1 2 3 4 5 6 
#
# 1 0.013310 -0.005637 -0.002804 0.000000 0.000000 0.000000
# 2 -0.005637 0.013933 -0.002456 0.000000 0.000000 0.000000
# 3 -0.002804 -0.002456 0.014467 0.000000 0.000000 0.000000
# 4 0.000000 0.000000 0.000000 0.049484 0.000000 0.000000
# 5 0.000000 0.000000 0.000000 0.000000 0.054347 0.000000
# 6 0.000000 0.000000 0.000000 0.000000 0.000000 0.050088
#
#
# Mechanical properties :
#
#
# Convention : Reuss Voigt Hill
#
# Bulk Modulus (GPa) = 50.21178 51.90478 51.05828
# Shear Modulus (GPa) = 22.31534 23.44306 22.87920
#
# Velocity S-wave (km/s) = 3.74091 3.83427 3.78788
# Velocity P-wave (km/s) = 7.08153 7.22168 7.15195
#
# Compressibility (1/GPa) = 0.01991565
#
# Stress axis : x y z
#
# Youngs Moduli (GPa) = 75.13027 71.77359 69.12514
#
# Poissons Ratio (x) = 0.40456 0.19383
# Poissons Ratio (y) = 0.42348 0.16978
# Poissons Ratio (z) = 0.21067 0.17628
#
# Static dielectric constant tensor:
#      x y z
#    x 2.901540 0.000000 0.000000 
#    y 0.000000 2.800960 0.000000 
#    z 0.000000 0.000000 3.032040 
# 
# 
# High freq. dielectric constant tensor:
#      x y z
#    x 1.579620 0.000000 0.000000 
#    y 0.000000 1.582400 0.000000 
#    z 0.000000 0.000000 1.622110 
# 
# From -- ./inp_files/32176.got.cif
#   From: 2010.03.12/outbox.cif.g09.slc.cpg/sg65_17_cif.got.tgz:32176.got - 2010.04.10 20:52:16.
