data_PCOD8265282
_publ_section_title
;
Structure prediction by ZEFSAII (Michael W. Deem and Ramdas Pophale) SiO2 
 PCOD8265282
Probable space group: C M M M
;
_chemical_formula_sum "Si O2"
_cell_formula_units_Z 104
_cell_length_a 27.212143
_cell_length_b 17.153522
_cell_length_c 14.408585
_cell_angle_alpha 90.000000
_cell_angle_beta 90.000000
_cell_angle_gamma 90.000000
_cell_volume 6725.698290
_symmetry_space_group_name_H-M "C M M M"
_symmetry_group_IT_number 65
_symmetry_cell_setting 'orthorhombic'
loop_
_space_group_symop_operation_xyz
x,y,z
-x,-y,z
x,-y,-z
-x,y,-z
-x,-y,-z
x,y,-z
-x,y,z
x,-y,z
1/2+x,1/2+y,z
1/2-x,1/2-y,z
1/2+x,1/2-y,-z
1/2-x,1/2+y,-z
1/2-x,1/2-y,-z
1/2+x,1/2+y,-z
1/2-x,1/2+y,z
1/2+x,1/2-y,z
loop_
_atom_site_type_symbol
_atom_site_label
_atom_site_fract_x
_atom_site_fract_y
_atom_site_fract_z
Si Si1 0.553839 0.087464 0.836543
Si Si2 0.558298 0.914430 0.500000
Si Si3 0.445050 0.194740 0.662235
Si Si4 0.714707 0.589219 0.394272
Si Si5 0.839743 0.410765 0.103281
Si Si6 0.285102 0.180094 0.265379
Si Si7 0.144221 0.224660 0.607754
O O1 0.500000 0.095600 0.887255
O O2 0.556966 0.154824 0.761122
O O3 0.600903 0.100526 0.901864
O O4 0.556723 0.000000 0.792415
O O5 0.500000 0.922324 0.500000
O O6 0.576078 0.868900 0.590672
O O7 0.582834 0.000000 0.500000
O O8 0.500000 0.222279 0.636927
O O9 0.410028 0.270457 0.654009
O O10 0.733845 0.603958 0.500000
O O11 0.700606 0.500000 0.378240
O O12 0.755135 0.613161 0.318799
O O13 0.664950 0.638033 0.376971
O O14 0.827034 0.500000 0.129084
O O15 0.813545 0.354817 0.177095
O O16 0.820146 0.390610 0.000000
O O17 0.250000 0.250000 0.229714
O O18 0.322483 0.211961 0.341198
O O19 0.142483 0.246788 0.500000
#
# Coordination Sequence:
#
# PCOD8265282 Si02
#       7
#    16   8  16  16  16  16  16
#     4   9  17  29  44  61  85 118 152 181 211 252
#     4   9  16  24  34  54  86 119 149 175 204 248
#     4  10  17  26  41  61  87 119 148 178 215 256
#     4   9  18  32  49  67  88 115 147 183 223 268
#     4  10  20  32  46  65  90 119 150 182 218 262
#     4  10  19  32  49  66  87 114 148 187 227 259
#     4  10  18  29  46  68  91 116 147 181 220 263
#
# _framework density 15.463077999999999
#
# number of rings (size 3 to 8) (size 9 to 14) (size 15 to 20)
#    0.000    2.385    2.308    1.385    0.000    4.308 
#    0.000    1.538    0.000    0.462    0.000    2.154 
#    0.000    0.000    0.000    0.000    0.000   15.077 
#
# Total GULP energy -644356.945424 kJ/mol
# GULP energy per Si atom -12391.479720 kJ/mol
# Density = 1.542788 g / cm^3
# Si number density = 15.463078 Si / 1000 Ang^3
#
#
#
# Elastic Constant Matrix: (Units=GPa)
#
#
# Indices 1 2 3 4 5 6 
#
# 1 94.7842 49.0140 33.6631 0.0000 0.0000 0.0000
# 2 49.0140 82.1783 36.9568 0.0000 0.0000 0.0000
# 3 33.6631 36.9568 62.6787 0.0000 0.0000 0.0000
# 4 0.0000 0.0000 0.0000 16.1317 0.0000 0.0000
# 5 0.0000 0.0000 0.0000 0.0000 15.7863 0.0000
# 6 0.0000 0.0000 0.0000 0.0000 0.0000 22.4659
#
#
#
# Elastic Compliance Matrix: (Units=1/GPa)
#
#
# Indices 1 2 3 4 5 6 
#
# 1 0.015970 -0.007713 -0.004029 0.000000 0.000000 0.000000
# 2 -0.007713 0.020285 -0.007818 0.000000 0.000000 0.000000
# 3 -0.004029 -0.007818 0.022728 0.000000 0.000000 0.000000
# 4 0.000000 0.000000 0.000000 0.061990 0.000000 0.000000
# 5 0.000000 0.000000 0.000000 0.000000 0.063346 0.000000
# 6 0.000000 0.000000 0.000000 0.000000 0.000000 0.044512
#
#
# Mechanical properties :
#
#
# Convention : Reuss Voigt Hill
#
# Bulk Modulus (GPa) = 50.34653 53.21210 51.77931
# Shear Modulus (GPa) = 18.21021 18.87726 18.54373
#
# Velocity S-wave (km/s) = 3.43542 3.49778 3.46674
# Velocity P-wave (km/s) = 6.95457 7.12739 7.04151
#
# Compressibility (1/GPa) = 0.01986234
#
# Stress axis : x y z
#
# Youngs Moduli (GPa) = 62.61857 49.29813 43.99858
#
# Poissons Ratio (x) = 0.38023 0.17728
# Poissons Ratio (y) = 0.48297 0.34398
# Poissons Ratio (z) = 0.25230 0.38541
#
# Static dielectric constant tensor:
#      x y z
#    x 3.121710 0.000000 0.000000 
#    y 0.000000 2.855990 0.000000 
#    z 0.000000 0.000000 2.802820 
# 
# 
# High freq. dielectric constant tensor:
#      x y z
#    x 1.592420 0.000000 0.000000 
#    y 0.000000 1.569900 0.000000 
#    z 0.000000 0.000000 1.582070 
# 
# From -- ./inp_files/45959.got.cif
#   From: 2010.03.12/outbox.cif.g09.slc.cpg/sg65_23_cif.got.tgz:45959.got - 2010.04.10 20:52:16.
