data_PCOD8265158
_publ_section_title
;
Structure prediction by ZEFSAII (Michael W. Deem and Ramdas Pophale) SiO2 
 PCOD8265158
Probable space group: C M M M
;
_chemical_formula_sum "Si O2"
_cell_formula_units_Z 72
_cell_length_a 27.667137
_cell_length_b 19.326274
_cell_length_c 9.477526
_cell_angle_alpha 90.000000
_cell_angle_beta 90.000000
_cell_angle_gamma 90.000000
_cell_volume 5067.658462
_symmetry_space_group_name_H-M "C M M M"
_symmetry_group_IT_number 65
_symmetry_cell_setting 'orthorhombic'
loop_
_space_group_symop_operation_xyz
x,y,z
-x,-y,z
x,-y,-z
-x,y,-z
-x,-y,-z
x,y,-z
-x,y,z
x,-y,z
1/2+x,1/2+y,z
1/2-x,1/2-y,z
1/2+x,1/2-y,-z
1/2-x,1/2+y,-z
1/2-x,1/2-y,-z
1/2+x,1/2+y,-z
1/2-x,1/2+y,z
1/2+x,1/2-y,z
loop_
_atom_site_type_symbol
_atom_site_label
_atom_site_fract_x
_atom_site_fract_y
_atom_site_fract_z
Si Si1 0.173952 0.218581 0.167232
Si Si2 0.727820 0.149208 0.833439
Si Si3 0.000000 0.078168 0.332168
Si Si4 0.242910 0.500000 0.833001
Si Si5 0.399274 0.363860 0.661891
Si Si6 0.162701 0.000000 0.657374
O O1 0.218683 0.170766 0.219936
O O2 0.186595 0.297301 0.217127
O O3 0.124968 0.196310 0.244901
O O4 0.165770 0.213338 0.000000
O O5 0.715624 0.070485 0.782947
O O6 0.729987 0.154596 0.000000
O O7 0.046716 0.121370 0.281461
O O8 0.000000 0.071442 0.500000
O O9 0.000000 0.000000 0.268725
O O10 0.296408 0.500000 0.773639
O O11 0.248312 0.500000 0.000000
O O12 0.399796 0.338973 0.500000
O O13 0.370317 0.434091 0.680794
O O14 0.185407 0.000000 0.500000
#
# Coordination Sequence:
#
# PCOD8265158 Si02
#       6
#    16  16   8   8  16   8
#     4   9  16  28  41  56  80 106 130 162 201 234
#     4   8  15  25  40  59  78 103 134 162 192 233
#     4   9  16  28  43  57  77 106 137 168 198 229
#     4  10  16  26  43  59  75 105 143 164 183 229
#     4  10  18  28  42  58  77 105 139 168 196 232
#     4  10  18  25  36  58  82 102 131 169 202 225
#
# _framework density 14.207744999999999
#
# number of rings (size 3 to 8) (size 9 to 14) (size 15 to 20)
#    0.000    2.778    3.333    1.333    0.000    0.000 
#    0.000    3.889    0.000    0.667    0.000    0.000 
#    0.000    0.889    0.000   11.111    0.000    0.889 
#
# Total GULP energy -446079.747086 kJ/mol
# GULP energy per Si atom -12391.104086 kJ/mol
# Density = 1.417541 g / cm^3
# Si number density = 14.207745 Si / 1000 Ang^3
#
#
#
# Elastic Constant Matrix: (Units=GPa)
#
#
# Indices 1 2 3 4 5 6 
#
# 1 89.6405 57.1743 27.1744 0.0000 0.0000 0.0000
# 2 57.1743 124.0232 29.2098 0.0000 0.0000 0.0000
# 3 27.1744 29.2098 26.7231 0.0000 0.0000 0.0000
# 4 0.0000 0.0000 0.0000 14.1600 0.0000 0.0000
# 5 0.0000 0.0000 0.0000 0.0000 17.5784 0.0000
# 6 0.0000 0.0000 0.0000 0.0000 0.0000 37.5677
#
#
#
# Elastic Compliance Matrix: (Units=1/GPa)
#
#
# Indices 1 2 3 4 5 6 
#
# 1 0.018583 -0.005543 -0.012838 0.000000 0.000000 0.000000
# 2 -0.005543 0.012512 -0.008039 0.000000 0.000000 0.000000
# 3 -0.012838 -0.008039 0.059263 0.000000 0.000000 0.000000
# 4 0.000000 0.000000 0.000000 0.070622 0.000000 0.000000
# 5 0.000000 0.000000 0.000000 0.000000 0.056888 0.000000
# 6 0.000000 0.000000 0.000000 0.000000 0.000000 0.026619
#
#
# Mechanical properties :
#
#
# Convention : Reuss Voigt Hill
#
# Bulk Modulus (GPa) = 26.65457 51.94487 39.29972
# Shear Modulus (GPa) = 16.13779 22.31645 19.22712
#
# Velocity S-wave (km/s) = 3.37389 3.96754 3.68269
# Velocity P-wave (km/s) = 5.82913 7.59136 6.76785
#
# Compressibility (1/GPa) = 0.03751701
#
# Stress axis : x y z
#
# Youngs Moduli (GPa) = 53.81279 79.92454 16.87399
#
# Poissons Ratio (x) = 0.44303 0.21662
# Poissons Ratio (y) = 0.29829 0.13566
# Poissons Ratio (z) = 0.69084 0.64254
#
# Static dielectric constant tensor:
#      x y z
#    x 2.689980 0.000000 0.000000 
#    y 0.000000 3.081240 0.000000 
#    z 0.000000 0.000000 2.554980 
# 
# 
# High freq. dielectric constant tensor:
#      x y z
#    x 1.511810 0.000000 0.000000 
#    y 0.000000 1.540870 0.000000 
#    z 0.000000 0.000000 1.516800 
# 
# From -- ./inp_files/11488.got.cif
#   From: 2010.03.12/outbox.cif.g09.slc.cpg/sg65_6_cif.got.tgz:11488.got - 2010.04.10 20:52:16.
