data_PCOD8265219
_publ_section_title
;
Structure prediction by ZEFSAII (Michael W. Deem and Ramdas Pophale) SiO2 
 PCOD8265219
Probable space group: C M M M
;
_chemical_formula_sum "Si O2"
_cell_formula_units_Z 88
_cell_length_a 30.588171
_cell_length_b 14.312453
_cell_length_c 12.421680
_cell_angle_alpha 90.000000
_cell_angle_beta 90.000000
_cell_angle_gamma 90.000000
_cell_volume 5438.109147
_symmetry_space_group_name_H-M "C M M M"
_symmetry_group_IT_number 65
_symmetry_cell_setting 'orthorhombic'
loop_
_space_group_symop_operation_xyz
x,y,z
-x,-y,z
x,-y,-z
-x,y,-z
-x,-y,-z
x,y,-z
-x,y,z
x,-y,z
1/2+x,1/2+y,z
1/2-x,1/2-y,z
1/2+x,1/2-y,-z
1/2-x,1/2+y,-z
1/2-x,1/2-y,-z
1/2+x,1/2+y,-z
1/2-x,1/2+y,z
1/2+x,1/2-y,z
loop_
_atom_site_type_symbol
_atom_site_label
_atom_site_fract_x
_atom_site_fract_y
_atom_site_fract_z
Si Si1 0.176551 0.398931 0.876404
Si Si2 0.137027 0.893509 0.127228
Si Si3 0.598877 0.790065 0.804024
Si Si4 0.949192 0.393836 0.624698
Si Si5 0.267368 0.353970 0.121814
Si Si6 0.551470 0.109600 0.000000
O O1 0.153524 0.500000 0.871521
O O2 0.148771 0.326267 0.807229
O O3 0.226023 0.410938 0.830193
O O4 0.178107 0.361254 0.000000
O O5 0.101966 0.822470 0.181790
O O6 0.185809 0.874560 0.177258
O O7 0.123009 0.000000 0.153669
O O8 0.136058 0.873832 0.000000
O O9 0.578160 0.816798 0.689766
O O10 0.570859 0.840477 0.895748
O O11 0.938664 0.377792 0.500000
O O12 0.936372 0.500000 0.658279
O O13 0.000000 0.377675 0.648872
O O14 0.250000 0.250000 0.132289
O O15 0.274807 0.386468 0.000000
O O16 0.500000 0.124589 0.000000
O O17 0.563618 0.000000 0.000000
#
# Coordination Sequence:
#
# PCOD8265219 Si02
#       6
#    16  16  16  16  16   8
#     4  10  17  24  38  64  98 129 156 192 237 284
#     4  10  19  31  45  65 100 144 179 203 231 275
#     4  12  19  30  48  72  99 128 162 200 239 291
#     4   9  19  36  56  76  97 122 154 195 248 308
#     4   9  15  25  39  59  93 135 172 199 229 273
#     4  11  22  32  45  70 101 127 147 181 247 319
#
# _framework density 16.182096000000001
#
# number of rings (size 3 to 8) (size 9 to 14) (size 15 to 20)
#    0.000    1.909    3.636    3.273    0.000    3.636 
#    0.000    0.000    0.000    3.273    0.000    3.818 
#    0.000    2.909    0.000    0.000    0.000    0.000 
#
# Total GULP energy -545151.787679 kJ/mol
# GULP energy per Si atom -12389.813356 kJ/mol
# Density = 1.614526 g / cm^3
# Si number density = 16.182096 Si / 1000 Ang^3
#
#
#
# Elastic Constant Matrix: (Units=GPa)
#
#
# Indices 1 2 3 4 5 6 
#
# 1 78.7897 53.8330 34.5605 0.0000 0.0000 0.0000
# 2 53.8330 121.2986 37.2692 0.0000 0.0000 0.0000
# 3 34.5605 37.2692 53.5622 0.0000 0.0000 0.0000
# 4 0.0000 0.0000 0.0000 18.5592 0.0000 0.0000
# 5 0.0000 0.0000 0.0000 0.0000 16.1088 0.0000
# 6 0.0000 0.0000 0.0000 0.0000 0.0000 7.9091
#
#
#
# Elastic Compliance Matrix: (Units=1/GPa)
#
#
# Indices 1 2 3 4 5 6 
#
# 1 0.021192 -0.006619 -0.009069 0.000000 0.000000 0.000000
# 2 -0.006619 0.012553 -0.004464 0.000000 0.000000 0.000000
# 3 -0.009069 -0.004464 0.027627 0.000000 0.000000 0.000000
# 4 0.000000 0.000000 0.000000 0.053882 0.000000 0.000000
# 5 0.000000 0.000000 0.000000 0.000000 0.062078 0.000000
# 6 0.000000 0.000000 0.000000 0.000000 0.000000 0.126436
#
#
# Mechanical properties :
#
#
# Convention : Reuss Voigt Hill
#
# Bulk Modulus (GPa) = 47.46075 56.10842 51.78459
# Shear Modulus (GPa) = 14.24118 17.04795 15.64456
#
# Velocity S-wave (km/s) = 2.96980 3.24930 3.11269
# Velocity P-wave (km/s) = 6.41502 6.98754 6.70739
#
# Compressibility (1/GPa) = 0.02107004
#
# Stress axis : x y z
#
# Youngs Moduli (GPa) = 47.18709 79.66124 36.19604
#
# Poissons Ratio (x) = 0.52727 0.32825
# Poissons Ratio (y) = 0.31233 0.16157
# Poissons Ratio (z) = 0.42792 0.35560
#
# Static dielectric constant tensor:
#      x y z
#    x 3.247660 0.000000 0.000000 
#    y 0.000000 3.330870 0.000000 
#    z 0.000000 0.000000 2.584830 
# 
# 
# High freq. dielectric constant tensor:
#      x y z
#    x 1.629050 0.000000 0.000000 
#    y 0.000000 1.627760 0.000000 
#    z 0.000000 0.000000 1.549190 
# 
# From -- ./inp_files/33815.got.cif
#   From: 2010.03.12/outbox.cif.g09.slc.cpg/sg65_17_cif.got.tgz:33815.got - 2010.04.10 20:52:16.
