data_PCOD8265349
_publ_section_title
;
Structure prediction by ZEFSAII (Michael W. Deem and Ramdas Pophale) SiO2 
 PCOD8265349
Probable space group: C M M M
;
_chemical_formula_sum "Si O2"
_cell_formula_units_Z 112
_cell_length_a 14.478498
_cell_length_b 28.793117
_cell_length_c 14.531929
_cell_angle_alpha 90.000000
_cell_angle_beta 90.000000
_cell_angle_gamma 90.000000
_cell_volume 6058.086356
_symmetry_space_group_name_H-M "C M M M"
_symmetry_group_IT_number 65
_symmetry_cell_setting 'orthorhombic'
loop_
_space_group_symop_operation_xyz
x,y,z
-x,-y,z
x,-y,-z
-x,y,-z
-x,-y,-z
x,y,-z
-x,y,z
x,-y,z
1/2+x,1/2+y,z
1/2-x,1/2-y,z
1/2+x,1/2-y,-z
1/2-x,1/2+y,-z
1/2-x,1/2-y,-z
1/2+x,1/2+y,-z
1/2-x,1/2+y,z
1/2+x,1/2-y,z
loop_
_atom_site_type_symbol
_atom_site_label
_atom_site_fract_x
_atom_site_fract_y
_atom_site_fract_z
Si Si1 0.605117 0.895623 0.105434
Si Si2 0.898320 0.310629 0.781033
Si Si3 0.389946 0.230029 0.399763
Si Si4 0.150010 0.227408 0.104056
Si Si5 0.284533 0.447371 0.106526
Si Si6 0.109960 0.133150 0.205113
Si Si7 0.109443 0.165974 0.599916
O O1 0.500000 0.910026 0.132932
O O2 0.649121 0.852127 0.161922
O O3 0.675111 0.938025 0.122755
O O4 0.606773 0.879250 0.000000
O O5 0.847098 0.301143 0.683039
O O6 0.911891 0.262950 0.837994
O O7 0.000000 0.329808 0.760456
O O8 0.363614 0.208926 0.500000
O O9 0.500000 0.231917 0.387403
O O10 0.349111 0.281979 0.391143
O O11 0.250000 0.250000 0.106047
O O12 0.151144 0.177014 0.150618
O O13 0.112420 0.222640 0.000000
O O14 0.304335 0.500000 0.137120
O O15 0.349501 0.414419 0.166205
O O16 0.309657 0.439530 0.000000
O O17 0.140928 0.135482 0.312658
O O18 0.000000 0.132878 0.193586
O O19 0.140959 0.144794 0.500000
O O20 0.000000 0.170283 0.600916
#
# Coordination Sequence:
#
# PCOD8265349 Si02
#       7
#    16  16  16  16  16  16  16
#     4   9  18  33  54  78 102 132 172 215 259 310
#     4  10  17  27  45  70  98 127 159 197 242 289
#     4   8  13  23  41  66  97 132 167 200 236 282
#     4  11  22  32  43  63  97 140 177 206 239 286
#     4  10  22  39  56  75 101 132 169 218 272 319
#     4  11  21  34  54  79 105 138 178 214 257 314
#     4   8  14  27  48  73 101 135 176 216 251 292
#
# _framework density 18.487687000000001
#
# number of rings (size 3 to 8) (size 9 to 14) (size 15 to 20)
#    0.000    2.429    1.429    3.000    0.000    5.429 
#    0.000    2.143    0.000    4.714    0.000    2.000 
#    0.000    0.000    0.000    6.857    0.000    0.286 
#
# Total GULP energy -693895.515036 kJ/mol
# GULP energy per Si atom -12390.991340 kJ/mol
# Density = 1.844561 g / cm^3
# Si number density = 18.487687 Si / 1000 Ang^3
#
#
#
# Elastic Constant Matrix: (Units=GPa)
#
#
# Indices 1 2 3 4 5 6 
#
# 1 43.9752 22.7024 26.1876 0.0000 0.0000 0.0000
# 2 22.7024 102.5922 59.8058 0.0000 0.0000 0.0000
# 3 26.1876 59.8058 151.6949 0.0000 0.0000 0.0000
# 4 0.0000 0.0000 0.0000 14.9296 0.0000 0.0000
# 5 0.0000 0.0000 0.0000 0.0000 8.2889 0.0000
# 6 0.0000 0.0000 0.0000 0.0000 0.0000 20.7966
#
#
#
# Elastic Compliance Matrix: (Units=1/GPa)
#
#
# Indices 1 2 3 4 5 6 
#
# 1 0.026656 -0.004176 -0.002955 0.000000 0.000000 0.000000
# 2 -0.004176 0.013310 -0.004527 0.000000 0.000000 0.000000
# 3 -0.002955 -0.004527 0.008887 0.000000 0.000000 0.000000
# 4 0.000000 0.000000 0.000000 0.066981 0.000000 0.000000
# 5 0.000000 0.000000 0.000000 0.000000 0.120644 0.000000
# 6 0.000000 0.000000 0.000000 0.000000 0.000000 0.048085
#
#
# Mechanical properties :
#
#
# Convention : Reuss Voigt Hill
#
# Bulk Modulus (GPa) = 39.15830 57.29488 48.22659
# Shear Modulus (GPa) = 15.80324 21.44077 18.62201
#
# Velocity S-wave (km/s) = 2.92687 3.40918 3.17719
# Velocity P-wave (km/s) = 5.71391 6.82311 6.29299
#
# Compressibility (1/GPa) = 0.02553737
#
# Stress axis : x y z
#
# Youngs Moduli (GPa) = 37.51526 75.13039 112.52364
#
# Poissons Ratio (x) = 0.31373 0.33255
# Poissons Ratio (y) = 0.15665 0.50936
# Poissons Ratio (z) = 0.11087 0.34009
#
# Static dielectric constant tensor:
#      x y z
#    x 3.250020 0.000000 0.000000 
#    y 0.000000 3.116580 0.000000 
#    z 0.000000 0.000000 3.851810 
# 
# 
# High freq. dielectric constant tensor:
#      x y z
#    x 1.713660 0.000000 0.000000 
#    y 0.000000 1.669570 0.000000 
#    z 0.000000 0.000000 1.724810 
# 
# From -- ./inp_files/41140.got.cif
#   From: 2010.03.12/outbox.cif.g09.slc.cpg/sg65_21_cif.got.tgz:41140.got - 2010.04.10 20:52:16.
