data_PCOD8265423
_publ_section_title
;
Structure prediction by ZEFSAII (Michael W. Deem and Ramdas Pophale) SiO2 
 PCOD8265423
Probable space group: C M M M
;
_chemical_formula_sum "Si O2"
_cell_formula_units_Z 72
_cell_length_a 19.197854
_cell_length_b 28.053837
_cell_length_c 8.487447
_cell_angle_alpha 90.000000
_cell_angle_beta 90.000000
_cell_angle_gamma 90.000000
_cell_volume 4571.113756
_symmetry_space_group_name_H-M "C M M M"
_symmetry_group_IT_number 65
_symmetry_cell_setting 'orthorhombic'
loop_
_space_group_symop_operation_xyz
x,y,z
-x,-y,z
x,-y,-z
-x,y,-z
-x,-y,-z
x,y,-z
-x,y,z
x,-y,z
1/2+x,1/2+y,z
1/2-x,1/2-y,z
1/2+x,1/2-y,-z
1/2-x,1/2+y,-z
1/2-x,1/2-y,-z
1/2+x,1/2+y,-z
1/2-x,1/2+y,z
1/2+x,1/2-y,z
loop_
_atom_site_type_symbol
_atom_site_label
_atom_site_fract_x
_atom_site_fract_y
_atom_site_fract_z
Si Si1 0.500000 0.239653 0.186284
Si Si2 0.634457 0.399897 0.813493
Si Si3 0.217020 0.181107 0.683033
Si Si4 0.848178 0.274131 0.184783
Si Si5 0.920331 0.000000 0.812634
Si Si6 0.000000 0.844674 0.187234
O O1 0.571910 0.213649 0.236923
O O2 0.500000 0.292212 0.261819
O O3 0.500000 0.245982 0.000000
O O4 0.700148 0.373290 0.733751
O O5 0.624250 0.454285 0.755330
O O6 0.567288 0.372011 0.750969
O O7 0.643881 0.397785 0.000000
O O8 0.203291 0.189060 0.500000
O O9 0.169576 0.218778 0.779188
O O10 0.298304 0.190414 0.719747
O O11 0.837312 0.282565 0.000000
O O12 0.000000 0.000000 0.745346
O O13 0.926798 0.000000 0.000000
O O14 0.000000 0.844415 0.000000
#
# Coordination Sequence:
#
# PCOD8265423 Si02
#       6
#     8  16  16  16   8   8
#     4   9  16  26  45  70  86 106 146 189 224 263
#     4  10  17  29  47  65  87 117 153 191 228 263
#     4  11  21  31  41  61  91 122 152 182 217 264
#     4  10  18  31  49  66  84 112 148 188 227 265
#     4   9  16  26  47  73  89 108 151 204 235 255
#     4   9  14  23  42  65  86 112 149 187 222 261
#
# _framework density 15.751085
#
# number of rings (size 3 to 8) (size 9 to 14) (size 15 to 20)
#    0.000    2.111    3.333    4.000    0.000    0.000 
#    0.000    4.444    0.000    0.667    0.000    0.000 
#    0.000    0.889    0.000   10.222    0.000    4.000 
#
# Total GULP energy -446174.350403 kJ/mol
# GULP energy per Si atom -12393.731956 kJ/mol
# Density = 1.571523 g / cm^3
# Si number density = 15.751085 Si / 1000 Ang^3
#
#
#
# Elastic Constant Matrix: (Units=GPa)
#
#
# Indices 1 2 3 4 5 6 
#
# 1 110.5296 48.7952 13.3554 0.0000 0.0000 0.0000
# 2 48.7952 98.9807 14.0516 0.0000 0.0000 0.0000
# 3 13.3554 14.0516 38.0359 0.0000 0.0000 0.0000
# 4 0.0000 0.0000 0.0000 8.8686 0.0000 0.0000
# 5 0.0000 0.0000 0.0000 0.0000 3.0891 0.0000
# 6 0.0000 0.0000 0.0000 0.0000 0.0000 24.8745
#
#
#
# Elastic Compliance Matrix: (Units=1/GPa)
#
#
# Indices 1 2 3 4 5 6 
#
# 1 0.011719 -0.005481 -0.002090 0.000000 0.000000 0.000000
# 2 -0.005481 0.013225 -0.002961 0.000000 0.000000 0.000000
# 3 -0.002090 -0.002961 0.028119 0.000000 0.000000 0.000000
# 4 0.000000 0.000000 0.000000 0.112757 0.000000 0.000000
# 5 0.000000 0.000000 0.000000 0.000000 0.323723 0.000000
# 6 0.000000 0.000000 0.000000 0.000000 0.000000 0.040202
#
#
# Mechanical properties :
#
#
# Convention : Reuss Voigt Hill
#
# Bulk Modulus (GPa) = 31.25103 44.43894 37.84498
# Shear Modulus (GPa) = 8.90509 18.78937 13.84723
#
# Velocity S-wave (km/s) = 2.38032 3.45758 2.96823
# Velocity P-wave (km/s) = 5.23815 6.64938 5.98550
#
# Compressibility (1/GPa) = 0.03199895
#
# Stress axis : x y z
#
# Youngs Moduli (GPa) = 85.32818 75.61299 35.56324
#
# Poissons Ratio (x) = 0.41441 0.07434
# Poissons Ratio (y) = 0.46766 0.10532
# Poissons Ratio (z) = 0.17836 0.22392
#
# Static dielectric constant tensor:
#      x y z
#    x 3.175050 0.000000 0.000000 
#    y 0.000000 2.943880 0.000000 
#    z 0.000000 0.000000 2.697550 
# 
# 
# High freq. dielectric constant tensor:
#      x y z
#    x 1.596430 0.000000 0.000000 
#    y 0.000000 1.571740 0.000000 
#    z 0.000000 0.000000 1.585010 
# 
# From -- ./inp_files/12054.got.cif
#   From: 2010.03.12/outbox.cif.g09.slc.cpg/sg65_7_cif.got.tgz:12054.got - 2010.04.10 20:52:16.
