data_PCOD8265134
_publ_section_title
;
Structure prediction by ZEFSAII (Michael W. Deem and Ramdas Pophale) SiO2 
 PCOD8265134
Probable space group: C M M M
;
_chemical_formula_sum "Si O2"
_cell_formula_units_Z 72
_cell_length_a 18.642523
_cell_length_b 8.652067
_cell_length_c 23.611871
_cell_angle_alpha 90.000000
_cell_angle_beta 90.000000
_cell_angle_gamma 90.000000
_cell_volume 3808.508799
_symmetry_space_group_name_H-M "C M M M"
_symmetry_group_IT_number 65
_symmetry_cell_setting 'orthorhombic'
loop_
_space_group_symop_operation_xyz
x,y,z
-x,-y,z
x,-y,-z
-x,y,-z
-x,-y,-z
x,y,-z
-x,y,z
x,-y,z
1/2+x,1/2+y,z
1/2-x,1/2-y,z
1/2+x,1/2-y,-z
1/2-x,1/2+y,-z
1/2-x,1/2-y,-z
1/2+x,1/2+y,-z
1/2-x,1/2+y,z
1/2+x,1/2-y,z
loop_
_atom_site_type_symbol
_atom_site_label
_atom_site_fract_x
_atom_site_fract_y
_atom_site_fract_z
Si Si1 0.830122 0.316693 0.000000
Si Si2 0.415300 0.675556 0.324726
Si Si3 0.828008 0.680836 0.227049
Si Si4 0.085178 0.673946 0.438134
Si Si5 0.170240 0.183232 0.886923
O O1 0.750000 0.250000 0.000000
O O2 0.869096 0.253358 0.942910
O O3 0.829272 0.500000 0.000000
O O4 0.500000 0.701093 0.320767
O O5 0.393468 0.500000 0.311285
O O6 0.378877 0.789072 0.280124
O O7 0.386491 0.716849 0.387711
O O8 0.820239 0.500000 0.215842
O O9 0.750000 0.750000 0.239864
O O10 0.865614 0.759669 0.171693
O O11 0.112740 0.732943 0.500000
O O12 0.112990 0.500000 0.427382
O O13 0.000000 0.675326 0.438342
O O14 0.250000 0.250000 0.884678
O O15 0.169926 0.000000 0.890986
#
# Coordination Sequence:
#
# PCOD8265134 Si02
#       5
#     8  16  16  16  16
#     4  10  16  24  38  60  89 120 155 194 239 284
#     4  10  20  33  50  74 102 130 163 202 242 286
#     4  11  21  34  51  71  98 131 166 202 244 293
#     4   8  14  26  45  69  96 125 158 197 240 284
#     4  10  17  27  42  63  91 122 157 196 241 287
#
# _framework density 18.905037
#
# number of rings (size 3 to 8) (size 9 to 14) (size 15 to 20)
#    0.000    2.222    0.000    9.000    0.000    1.778 
#    0.000    2.222    0.000    0.667    0.000    0.778 
#    0.000    6.222    0.000    0.000    0.000    0.000 
#
# Total GULP energy -446168.897383 kJ/mol
# GULP energy per Si atom -12393.580483 kJ/mol
# Density = 1.886201 g / cm^3
# Si number density = 18.905037 Si / 1000 Ang^3
#
#
#
# Elastic Constant Matrix: (Units=GPa)
#
#
# Indices 1 2 3 4 5 6 
#
# 1 17.1638 18.3824 25.2693 0.0000 0.0000 0.0000
# 2 18.3824 152.2387 59.6743 0.0000 0.0000 0.0000
# 3 25.2693 59.6743 172.8843 0.0000 0.0000 0.0000
# 4 0.0000 0.0000 0.0000 40.6211 0.0000 0.0000
# 5 0.0000 0.0000 0.0000 0.0000 34.7983 0.0000
# 6 0.0000 0.0000 0.0000 0.0000 0.0000 16.1475
#
#
#
# Elastic Compliance Matrix: (Units=1/GPa)
#
#
# Indices 1 2 3 4 5 6 
#
# 1 0.078361 -0.005750 -0.009469 0.000000 0.000000 0.000000
# 2 -0.005750 0.008018 -0.001927 0.000000 0.000000 0.000000
# 3 -0.009469 -0.001927 0.007833 0.000000 0.000000 0.000000
# 4 0.000000 0.000000 0.000000 0.024618 0.000000 0.000000
# 5 0.000000 0.000000 0.000000 0.000000 0.028737 0.000000
# 6 0.000000 0.000000 0.000000 0.000000 0.000000 0.061929
#
#
# Mechanical properties :
#
#
# Convention : Reuss Voigt Hill
#
# Bulk Modulus (GPa) = 16.68886 60.99321 38.84103
# Shear Modulus (GPa) = 18.95647 34.24410 26.60029
#
# Velocity S-wave (km/s) = 3.17001 4.26064 3.75513
# Velocity P-wave (km/s) = 4.71652 7.51911 6.27625
#
# Compressibility (1/GPa) = 0.05992021
#
# Stress axis : x y z
#
# Youngs Moduli (GPa) = 12.76148 124.71322 127.65863
#
# Poissons Ratio (x) = 0.71715 1.20875
# Poissons Ratio (y) = 0.07338 0.24602
# Poissons Ratio (z) = 0.12083 0.24035
#
# Static dielectric constant tensor:
#      x y z
#    x 2.751310 0.000000 0.000000 
#    y 0.000000 3.539600 0.000000 
#    z 0.000000 0.000000 4.730020 
# 
# 
# High freq. dielectric constant tensor:
#      x y z
#    x 1.646980 0.000000 0.000000 
#    y 0.000000 1.748000 0.000000 
#    z 0.000000 0.000000 1.769220 
# 
# From -- ./inp_files/64344.got.cif
#   From: 2010.03.12/outbox.cif.g09.slc.cpg/sg65_33_cif.got.tgz:64344.got - 2010.04.10 20:52:16.
