data_PCOD8265329
_publ_section_title
;
Structure prediction by ZEFSAII (Michael W. Deem and Ramdas Pophale) SiO2 
 PCOD8265329
Probable space group: C M M M
;
_chemical_formula_sum "Si O2"
_cell_formula_units_Z 128
_cell_length_a 27.096164
_cell_length_b 23.011553
_cell_length_c 13.476522
_cell_angle_alpha 90.000000
_cell_angle_beta 90.000000
_cell_angle_gamma 90.000000
_cell_volume 8402.945873
_symmetry_space_group_name_H-M "C M M M"
_symmetry_group_IT_number 65
_symmetry_cell_setting 'orthorhombic'
loop_
_space_group_symop_operation_xyz
x,y,z
-x,-y,z
x,-y,-z
-x,y,-z
-x,-y,-z
x,y,-z
-x,y,z
x,-y,z
1/2+x,1/2+y,z
1/2-x,1/2-y,z
1/2+x,1/2-y,-z
1/2-x,1/2+y,-z
1/2-x,1/2-y,-z
1/2+x,1/2+y,-z
1/2-x,1/2+y,z
1/2+x,1/2-y,z
loop_
_atom_site_type_symbol
_atom_site_label
_atom_site_fract_x
_atom_site_fract_y
_atom_site_fract_z
Si Si1 0.347326 0.268710 0.383843
Si Si2 0.053681 0.431150 0.889602
Si Si3 0.751741 0.567604 0.114761
Si Si4 0.852729 0.567328 0.220850
Si Si5 0.054389 0.827036 0.616066
Si Si6 0.884502 0.935242 0.616834
Si Si7 0.688620 0.859012 0.385927
Si Si8 0.205792 0.875156 0.297687
O O1 0.336354 0.283869 0.500000
O O2 0.406341 0.275060 0.362675
O O3 0.326600 0.206109 0.355533
O O4 0.319527 0.312541 0.309881
O O5 0.060016 0.500000 0.895576
O O6 0.097416 0.404791 0.823781
O O7 0.000000 0.414829 0.844081
O O8 0.057881 0.405099 0.000000
O O9 0.738161 0.500000 0.132911
O O10 0.808581 0.578803 0.143501
O O11 0.717697 0.609238 0.182907
O O12 0.743713 0.584799 0.000000
O O13 0.858881 0.500000 0.243817
O O14 0.845649 0.597603 0.325812
O O15 0.047040 0.834328 0.500000
O O16 0.076265 0.888080 0.658435
O O17 0.000000 0.814400 0.663947
O O18 0.878862 0.927555 0.500000
O O19 0.830417 0.924988 0.662295
O O20 0.902645 0.000000 0.645348
O O21 0.677333 0.870043 0.500000
O O22 0.745063 0.873569 0.363224
#
# Coordination Sequence:
#
# PCOD8265329 Si02
#       8
#    16  16  16  16  16  16  16  16
#     4   9  17  29  44  61  81 107 141 179 212 244
#     4   8  13  23  42  64  80  97 126 164 206 251
#     4   9  17  28  42  61  85 112 139 166 202 252
#     4   9  17  28  42  60  83 108 133 168 212 254
#     4   8  14  25  40  57  79 108 138 168 205 247
#     4   9  16  24  36  59  89 114 136 166 205 248
#     4  10  19  29  42  60  82 111 146 176 205 247
#     4  10  17  27  43  60  81 109 141 173 206 239
#
# _framework density 15.232753000000001
#
# number of rings (size 3 to 8) (size 9 to 14) (size 15 to 20)
#    0.000    3.000    0.000    3.375    0.000    3.500 
#    0.000    1.875    0.000    7.875    0.000    1.750 
#    0.000    8.000    0.000   27.500    0.000    0.500 
#
# Total GULP energy -793100.052202 kJ/mol
# GULP energy per Si atom -12392.188316 kJ/mol
# Density = 1.519808 g / cm^3
# Si number density = 15.232753 Si / 1000 Ang^3
#
#
#
# Elastic Constant Matrix: (Units=GPa)
#
#
# Indices 1 2 3 4 5 6 
#
# 1 102.4731 22.1532 40.5128 0.0000 0.0000 0.0000
# 2 22.1532 39.9444 33.9955 0.0000 0.0000 0.0000
# 3 40.5128 33.9955 70.8139 0.0000 0.0000 0.0000
# 4 0.0000 0.0000 0.0000 15.8947 0.0000 0.0000
# 5 0.0000 0.0000 0.0000 0.0000 19.3091 0.0000
# 6 0.0000 0.0000 0.0000 0.0000 0.0000 10.2377
#
#
#
# Elastic Compliance Matrix: (Units=1/GPa)
#
#
# Indices 1 2 3 4 5 6 
#
# 1 0.012660 -0.001449 -0.006547 0.000000 0.000000 0.000000
# 2 -0.001449 0.042495 -0.019572 0.000000 0.000000 0.000000
# 3 -0.006547 -0.019572 0.027263 0.000000 0.000000 0.000000
# 4 0.000000 0.000000 0.000000 0.062914 0.000000 0.000000
# 5 0.000000 0.000000 0.000000 0.000000 0.051789 0.000000
# 6 0.000000 0.000000 0.000000 0.000000 0.000000 0.097679
#
#
# Mechanical properties :
#
#
# Convention : Reuss Voigt Hill
#
# Bulk Modulus (GPa) = 36.65357 45.17272 40.91315
# Shear Modulus (GPa) = 13.92639 16.85963 15.39301
#
# Velocity S-wave (km/s) = 3.02692 3.33047 3.18232
# Velocity P-wave (km/s) = 6.02751 6.67149 6.35766
#
# Compressibility (1/GPa) = 0.02728247
#
# Stress axis : x y z
#
# Youngs Moduli (GPa) = 78.98605 23.53201 36.67985
#
# Poissons Ratio (x) = 0.03410 0.24016
# Poissons Ratio (y) = 0.11447 0.71788
# Poissons Ratio (z) = 0.51715 0.46056
#
# Static dielectric constant tensor:
#      x y z
#    x 3.204050 0.000000 0.000000 
#    y 0.000000 2.827300 0.000000 
#    z 0.000000 0.000000 2.716770 
# 
# 
# High freq. dielectric constant tensor:
#      x y z
#    x 1.589270 0.000000 0.000000 
#    y 0.000000 1.565920 0.000000 
#    z 0.000000 0.000000 1.549640 
# 
# From -- ./inp_files/31489.got.cif
#   From: 2010.03.12/outbox.cif.g09.slc.cpg/sg65_16_cif.got.tgz:31489.got - 2010.04.10 20:52:16.
