data_PCOD8265242
_publ_section_title
;
Structure prediction by ZEFSAII (Michael W. Deem and Ramdas Pophale) SiO2 
 PCOD8265242
Probable space group: C M M M
;
_chemical_formula_sum "Si O2"
_cell_formula_units_Z 96
_cell_length_a 15.909002
_cell_length_b 28.939950
_cell_length_c 14.600851
_cell_angle_alpha 90.000000
_cell_angle_beta 90.000000
_cell_angle_gamma 90.000000
_cell_volume 6722.315353
_symmetry_space_group_name_H-M "C M M M"
_symmetry_group_IT_number 65
_symmetry_cell_setting 'orthorhombic'
loop_
_space_group_symop_operation_xyz
x,y,z
-x,-y,z
x,-y,-z
-x,y,-z
-x,-y,-z
x,y,-z
-x,y,z
x,-y,z
1/2+x,1/2+y,z
1/2-x,1/2-y,z
1/2+x,1/2-y,-z
1/2-x,1/2+y,-z
1/2-x,1/2-y,-z
1/2+x,1/2+y,-z
1/2-x,1/2+y,z
1/2+x,1/2-y,z
loop_
_atom_site_type_symbol
_atom_site_label
_atom_site_fract_x
_atom_site_fract_y
_atom_site_fract_z
Si Si1 0.327741 0.051205 0.604068
Si Si2 0.906404 0.136533 0.606418
Si Si3 0.751988 0.197877 0.390704
Si Si4 0.408939 0.144105 0.607025
Si Si5 0.094158 0.945459 0.900700
Si Si6 0.658984 0.553104 0.710351
O O1 0.292996 0.057534 0.500000
O O2 0.398089 0.089311 0.624893
O O3 0.253168 0.059204 0.675227
O O4 0.366964 0.000000 0.616373
O O5 0.889730 0.128350 0.500000
O O6 0.836021 0.171988 0.645444
O O7 0.901617 0.086576 0.653700
O O8 0.000000 0.157135 0.623544
O O9 0.751527 0.197410 0.500000
O O10 0.750000 0.250000 0.352846
O O11 0.668901 0.172547 0.350201
O O12 0.410911 0.154822 0.500000
O O13 0.500000 0.158450 0.649498
O O14 0.155382 0.931195 0.817219
O O15 0.000000 0.926464 0.881191
O O16 0.090499 0.000000 0.906976
O O17 0.126358 0.926156 0.000000
O O18 0.628173 0.500000 0.697845
#
# Coordination Sequence:
#
# PCOD8265242 Si02
#       6
#    16  16  16  16  16  16
#     4   9  16  25  37  54  78 105 130 159 194 229
#     4  10  19  28  38  55  80 108 136 162 189 227
#     4   9  17  29  41  52  71  99 133 171 203 228
#     4   9  16  26  40  55  71  97 133 166 197 231
#     4   8  14  24  36  51  73 101 134 168 195 222
#     4  10  17  25  39  56  78 110 139 158 187 229
#
# _framework density 14.280794999999999
#
# number of rings (size 3 to 8) (size 9 to 14) (size 15 to 20)
#    0.000    2.833    1.667    1.500    0.000    3.000 
#    0.000    5.833    0.000    0.000    0.000    0.000 
#    0.000    1.333    0.000    6.500    0.000    0.167 
#
# Total GULP energy -594676.183142 kJ/mol
# GULP energy per Si atom -12389.087149 kJ/mol
# Density = 1.424829 g / cm^3
# Si number density = 14.280795 Si / 1000 Ang^3
#
#
#
# Elastic Constant Matrix: (Units=GPa)
#
#
# Indices 1 2 3 4 5 6 
#
# 1 104.5878 48.1612 26.7665 0.0000 0.0000 0.0000
# 2 48.1612 82.2203 17.3516 0.0000 0.0000 0.0000
# 3 26.7665 17.3516 48.8449 0.0000 0.0000 0.0000
# 4 0.0000 0.0000 0.0000 4.0758 0.0000 0.0000
# 5 0.0000 0.0000 0.0000 0.0000 6.2926 0.0000
# 6 0.0000 0.0000 0.0000 0.0000 0.0000 12.4567
#
#
#
# Elastic Compliance Matrix: (Units=1/GPa)
#
#
# Indices 1 2 3 4 5 6 
#
# 1 0.014230 -0.007232 -0.005229 0.000000 0.000000 0.000000
# 2 -0.007232 0.016823 -0.002013 0.000000 0.000000 0.000000
# 3 -0.005229 -0.002013 0.024053 0.000000 0.000000 0.000000
# 4 0.000000 0.000000 0.000000 0.245353 0.000000 0.000000
# 5 0.000000 0.000000 0.000000 0.000000 0.158918 0.000000
# 6 0.000000 0.000000 0.000000 0.000000 0.000000 0.080278
#
#
# Mechanical properties :
#
#
# Convention : Reuss Voigt Hill
#
# Bulk Modulus (GPa) = 38.22798 46.69018 42.45908
# Shear Modulus (GPa) = 8.66068 14.12325 11.39197
#
# Velocity S-wave (km/s) = 2.46531 3.14820 2.82744
# Velocity P-wave (km/s) = 5.91021 6.78087 6.36046
#
# Compressibility (1/GPa) = 0.02615885
#
# Stress axis : x y z
#
# Youngs Moduli (GPa) = 70.27638 59.44128 41.57400
#
# Poissons Ratio (x) = 0.42986 0.21738
# Poissons Ratio (y) = 0.50821 0.08371
# Poissons Ratio (z) = 0.36745 0.11968
#
# Static dielectric constant tensor:
#      x y z
#    x 2.884550 0.000000 0.000000 
#    y 0.000000 2.813930 0.000000 
#    z 0.000000 0.000000 2.704420 
# 
# 
# High freq. dielectric constant tensor:
#      x y z
#    x 1.541890 0.000000 0.000000 
#    y 0.000000 1.532360 0.000000 
#    z 0.000000 0.000000 1.490330 
# 
# From -- ./inp_files/41264.got.cif
#   From: 2010.03.12/outbox.cif.g09.slc.cpg/sg65_21_cif.got.tgz:41264.got - 2010.04.10 20:52:16.
