data_PCOD8265916
_publ_section_title
;
Structure prediction by ZEFSAII (Michael W. Deem and Ramdas Pophale) SiO2 
 PCOD8265916
Probable space group: C M M M
;
_chemical_formula_sum "Si O2"
_cell_formula_units_Z 96
_cell_length_a 25.934537
_cell_length_b 28.658962
_cell_length_c 9.297873
_cell_angle_alpha 90.000000
_cell_angle_beta 90.000000
_cell_angle_gamma 90.000000
_cell_volume 6910.708359
_symmetry_space_group_name_H-M "C M M M"
_symmetry_group_IT_number 65
_symmetry_cell_setting 'orthorhombic'
loop_
_space_group_symop_operation_xyz
x,y,z
-x,-y,z
x,-y,-z
-x,y,-z
-x,-y,-z
x,y,-z
-x,y,z
x,-y,z
1/2+x,1/2+y,z
1/2-x,1/2-y,z
1/2+x,1/2-y,-z
1/2-x,1/2+y,-z
1/2-x,1/2-y,-z
1/2+x,1/2+y,-z
1/2-x,1/2+y,z
1/2+x,1/2-y,z
loop_
_atom_site_type_symbol
_atom_site_label
_atom_site_fract_x
_atom_site_fract_y
_atom_site_fract_z
Si Si1 0.854183 0.199614 0.167924
Si Si2 0.210696 0.051562 0.166297
Si Si3 0.251634 0.147232 0.835008
Si Si4 0.107112 0.948653 0.334131
Si Si5 0.696719 0.222504 0.662657
Si Si6 0.441217 0.353738 0.333825
O O1 0.805904 0.165800 0.196559
O O2 0.845565 0.249120 0.246764
O O3 0.905381 0.176893 0.232115
O O4 0.862502 0.209165 0.000000
O O5 0.252569 0.091825 0.201507
O O6 0.158992 0.062578 0.250451
O O7 0.233009 0.000000 0.205194
O O8 0.195480 0.054604 0.000000
O O9 0.294023 0.172058 0.735172
O O10 0.266578 0.157344 0.000000
O O11 0.122519 0.947668 0.500000
O O12 0.065399 0.908846 0.298619
O O13 0.084935 0.000000 0.291655
O O14 0.676890 0.215451 0.500000
O O15 0.750000 0.250000 0.666180
O O16 0.426888 0.343803 0.500000
O O17 0.500000 0.340124 0.301166
#
# Coordination Sequence:
#
# PCOD8265916 Si02
#       6
#    16  16  16  16  16  16
#     4  10  18  29  43  58  76  98 124 161 200 238
#     4   9  16  26  40  57  78 104 131 159 195 235
#     4   9  16  26  40  59  79 100 126 158 193 231
#     4   9  17  28  41  55  71  95 129 168 207 243
#     4   9  17  27  41  60  78  98 121 151 192 237
#     4  10  20  31  42  56  75 100 130 166 207 247
#
# _framework density 13.891484999999999
#
# number of rings (size 3 to 8) (size 9 to 14) (size 15 to 20)
#    0.000    2.667    1.667    1.000    0.000    4.000 
#    0.000    1.667    0.000    0.000    0.000    3.500 
#    0.000    0.000    0.000    0.000    0.000    0.833 
#
# Total GULP energy -594996.904125 kJ/mol
# GULP energy per Si atom -12395.768836 kJ/mol
# Density = 1.385987 g / cm^3
# Si number density = 13.891485 Si / 1000 Ang^3
#
#
#
# Elastic Constant Matrix: (Units=GPa)
#
#
# Indices 1 2 3 4 5 6 
#
# 1 42.5055 40.6891 35.2066 0.0000 0.0000 0.0000
# 2 40.6891 89.9752 49.6598 0.0000 0.0000 0.0000
# 3 35.2066 49.6598 77.0906 0.0000 0.0000 0.0000
# 4 0.0000 0.0000 0.0000 21.5069 0.0000 0.0000
# 5 0.0000 0.0000 0.0000 0.0000 17.0591 0.0000
# 6 0.0000 0.0000 0.0000 0.0000 0.0000 19.6340
#
#
#
# Elastic Compliance Matrix: (Units=1/GPa)
#
#
# Indices 1 2 3 4 5 6 
#
# 1 0.048000 -0.014909 -0.012318 0.000000 0.000000 0.000000
# 2 -0.014909 0.021876 -0.007283 0.000000 0.000000 0.000000
# 3 -0.012318 -0.007283 0.023289 0.000000 0.000000 0.000000
# 4 0.000000 0.000000 0.000000 0.046497 0.000000 0.000000
# 5 0.000000 0.000000 0.000000 0.000000 0.058620 0.000000
# 6 0.000000 0.000000 0.000000 0.000000 0.000000 0.050932
#
#
# Mechanical properties :
#
#
# Convention : Reuss Voigt Hill
#
# Bulk Modulus (GPa) = 41.41446 51.18690 46.30068
# Shear Modulus (GPa) = 15.32417 17.24104 16.28261
#
# Velocity S-wave (km/s) = 3.32495 3.52678 3.42735
# Velocity P-wave (km/s) = 6.67967 7.31518 7.00464
#
# Compressibility (1/GPa) = 0.02414615
#
# Stress axis : x y z
#
# Youngs Moduli (GPa) = 20.83317 45.71193 42.93892
#
# Poissons Ratio (x) = 0.68150 0.52891
# Poissons Ratio (y) = 0.31059 0.31274
# Poissons Ratio (z) = 0.25662 0.33294
#
# Static dielectric constant tensor:
#      x y z
#    x 2.342870 0.000000 0.000000 
#    y 0.000000 2.948310 0.000000 
#    z 0.000000 0.000000 2.844530 
# 
# 
# High freq. dielectric constant tensor:
#      x y z
#    x 1.470860 0.000000 0.000000 
#    y 0.000000 1.529240 0.000000 
#    z 0.000000 0.000000 1.540760 
# 
# From -- ./inp_files/14585.got.cif
#   From: 2010.03.12/outbox.cif.g09.slc.cpg/sg65_8_cif.got.tgz:14585.got - 2010.04.10 20:52:16.
