data_PCOD8265041
_publ_section_title
;
Structure prediction by ZEFSAII (Michael W. Deem and Ramdas Pophale) SiO2 
 PCOD8265041
Probable space group: C M C A
;
_chemical_formula_sum "Si O2"
_cell_formula_units_Z 48
_cell_length_a 9.000000
_cell_length_b 24.000000
_cell_length_c 24.000000
_cell_angle_alpha 90.000000
_cell_angle_beta 90.000000
_cell_angle_gamma 90.000000
_cell_volume 5184.000000
_symmetry_space_group_name_H-M "C M C A"
_symmetry_group_IT_number 64
_symmetry_cell_setting 'orthorhombic'
loop_
_space_group_symop_operation_xyz
x,y,z
-x,1/2-y,1/2+z
x,-y,-z
-x,1/2+y,1/2-z
-x,-y,-z
x,1/2+y,1/2-z
-x,y,z
x,1/2-y,1/2+z
1/2+x,1/2+y,z
1/2-x,-y,1/2+z
1/2+x,1/2-y,-z
1/2-x,y,1/2-z
1/2-x,1/2-y,-z
1/2+x,y,1/2-z
1/2-x,1/2+y,z
1/2+x,-y,1/2+z
loop_
_atom_site_type_symbol
_atom_site_label
_atom_site_fract_x
_atom_site_fract_y
_atom_site_fract_z
Si Si1 0.828426 0.184484 0.966757
Si Si2 0.828237 0.330865 0.194938
Si Si3 0.170776 0.911904 0.121579
Si Si4 0.672325 0.637686 0.427138
Si Si5 0.172394 0.509915 0.063259
Si Si6 0.172143 0.734218 0.391251
O O1 0.801909 0.132605 0.926323
O O2 0.727538 0.237552 0.949344
O O3 0.000000 0.203166 0.967419
O O4 0.779855 0.159904 0.025146
O O5 0.750000 0.310547 0.250000
O O6 0.756965 0.389099 0.175352
O O7 0.794972 0.279555 0.154932
O O8 0.000000 0.341879 0.204276
O O9 0.000000 0.919948 0.137139
O O10 0.235389 0.971474 0.104525
O O11 0.500000 0.647189 0.441436
O O12 0.702454 0.572840 0.416210
O O13 0.729391 0.678346 0.377110
O O14 0.000000 0.493678 0.067545
O O15 0.227519 0.500000 0.000000
O O16 0.000000 0.718320 0.395793
#
# Coordination Sequence:
#
# PCOD8265041 Si02
#       6
#    16  16  16  16  16  16
#     4  10  19  31  48  72 104 140 177 216 256 307
#     4  10  21  38  61  83 105 133 169 218 274 323
#     4  10  20  33  53  80 108 139 179 223 264 310
#     4  11  21  32  49  72 104 145 181 215 257 308
#     4  10  20  34  51  73 107 148 185 220 262 313
#     4  10  21  35  51  74 104 136 171 215 265 316
#
# _framework density 9.2592590000000001
#
# number of rings (size 3 to 8) (size 9 to 14) (size 15 to 20)
#    0.000    1.833    1.667    3.000    0.000    5.000 
#    0.000    0.000    0.000    1.000    0.000    2.333 
#    0.000    0.000    0.000    0.000    0.000    0.000 
#
# Total GULP energy -595072.966974 kJ/mol
# GULP energy per Si atom -12397.353479 kJ/mol
# Density = 0.923818 g / cm^3
# Si number density = 9.259259 Si / 1000 Ang^3
#
#
#
# Elastic Constant Matrix: (Units=GPa)
#
#
# Indices 1 2 3 4 5 6 
#
# 1 69.5670 82.2168 28.9393 0.0000 0.0000 0.0000
# 2 82.2168 111.5370 26.7799 0.0000 0.0000 0.0000
# 3 28.9393 26.7799 51.8598 0.0000 0.0000 0.0000
# 4 0.0000 0.0000 0.0000 10.2694 0.0000 0.0000
# 5 0.0000 0.0000 0.0000 0.0000 25.2114 0.0000
# 6 0.0000 0.0000 0.0000 0.0000 0.0000 38.1512
#
#
#
# Elastic Compliance Matrix: (Units=1/GPa)
#
#
# Indices 1 2 3 4 5 6 
#
# 1 0.140842 -0.096971 -0.028519 0.000000 0.000000 0.000000
# 2 -0.096971 0.077000 0.014351 0.000000 0.000000 0.000000
# 3 -0.028519 0.014351 0.027787 0.000000 0.000000 0.000000
# 4 0.000000 0.000000 0.000000 0.097376 0.000000 0.000000
# 5 0.000000 0.000000 0.000000 0.000000 0.039665 0.000000
# 6 0.000000 0.000000 0.000000 0.000000 0.000000 0.026211
#
#
# Mechanical properties :
#
#
# Convention : Reuss Voigt Hill
#
# Bulk Modulus (GPa) = 42.82692 56.53730 49.68211
# Shear Modulus (GPa) = 7.82541 21.06160 14.44350
#
# Velocity S-wave (km/s) = 2.05789 3.37609 2.79579
# Velocity P-wave (km/s) = 5.36873 6.76710 6.10807
#
# Compressibility (1/GPa) = 0.02334980
#
# Stress axis : x y z
#
# Youngs Moduli (GPa) = 7.10013 12.98700 35.98844
#
# Poissons Ratio (x) = 1.25937 1.02636
# Poissons Ratio (y) = 0.68851 -0.51646
# Poissons Ratio (z) = 0.20249 -0.18637
#
# Static dielectric constant tensor:
#      x y z
#    x 3.504610 0.000000 0.000000 
#    y 0.000000 3.835080 0.000000 
#    z 0.000000 0.000000 3.193850 
# 
# 
# High freq. dielectric constant tensor:
#      x y z
#    x 1.730320 0.000000 0.000000 
#    y 0.000000 1.729000 0.000000 
#    z 0.000000 0.000000 1.673530 
# 
# From -- ./inp_files/43015.got.cif
#   From: 2010.03.12/outbox.ucp.g09.slc.cvg/sg64_22_cif.got.tgz:43015.got - 2010.05.04 19:41:48.
