data_PCOD8265491
_publ_section_title
;
Structure prediction by ZEFSAII (Michael W. Deem and Ramdas Pophale) SiO2 
 PCOD8265491
Probable space group: C M M M
;
_chemical_formula_sum "Si O2"
_cell_formula_units_Z 64
_cell_length_a 24.268014
_cell_length_b 15.563198
_cell_length_c 8.420986
_cell_angle_alpha 90.000000
_cell_angle_beta 90.000000
_cell_angle_gamma 90.000000
_cell_volume 3180.504577
_symmetry_space_group_name_H-M "C M M M"
_symmetry_group_IT_number 65
_symmetry_cell_setting 'orthorhombic'
loop_
_space_group_symop_operation_xyz
x,y,z
-x,-y,z
x,-y,-z
-x,y,-z
-x,-y,-z
x,y,-z
-x,y,z
x,-y,z
1/2+x,1/2+y,z
1/2-x,1/2-y,z
1/2+x,1/2-y,-z
1/2-x,1/2+y,-z
1/2-x,1/2-y,-z
1/2+x,1/2+y,-z
1/2-x,1/2+y,z
1/2+x,1/2-y,z
loop_
_atom_site_type_symbol
_atom_site_label
_atom_site_fract_x
_atom_site_fract_y
_atom_site_fract_z
Si Si1 0.000000 0.155362 0.815330
Si Si2 0.688298 0.248996 0.810916
Si Si3 0.500000 0.840411 0.317532
Si Si4 0.389459 0.096412 0.816108
Si Si5 0.615740 0.404893 0.189098
O O1 0.000000 0.256912 0.792018
O O2 0.945073 0.113785 0.739588
O O3 0.000000 0.134454 0.000000
O O4 0.750000 0.250000 0.740329
O O5 0.656029 0.163877 0.752155
O O6 0.657858 0.333868 0.743740
O O7 0.690411 0.250244 0.000000
O O8 0.500000 0.812422 0.500000
O O9 0.445947 0.896024 0.280917
O O10 0.366004 0.000000 0.792422
O O11 0.402554 0.115236 0.000000
O O12 0.634902 0.500000 0.243014
O O13 0.613889 0.397841 0.000000
#
# Coordination Sequence:
#
# PCOD8265491 Si02
#       5
#     8  16   8  16  16
#     4  10  17  31  53  75 102 133 168 207 259 315
#     4   9  17  29  47  75 109 138 167 207 252 300
#     4  12  23  34  53  79 106 136 174 218 266 310
#     4  10  20  35  55  78 106 141 174 208 258 314
#     4   9  16  26  46  75 102 128 163 208 253 297
#
# _framework density 20.122592000000001
#
# number of rings (size 3 to 8) (size 9 to 14) (size 15 to 20)
#    0.000    2.250    2.500    1.875    0.000    4.500 
#    0.000    5.000    0.000    2.250    0.000    0.000 
#    0.000    0.000    0.000    0.000    0.000    0.000 
#
# Total GULP energy -396739.206532 kJ/mol
# GULP energy per Si atom -12398.100204 kJ/mol
# Density = 2.007679 g / cm^3
# Si number density = 20.122592 Si / 1000 Ang^3
#
#
#
# Elastic Constant Matrix: (Units=GPa)
#
#
# Indices 1 2 3 4 5 6 
#
# 1 186.6281 93.4753 14.9955 0.0000 0.0000 0.0000
# 2 93.4753 184.4563 4.4169 0.0000 0.0000 0.0000
# 3 14.9955 4.4169 15.1030 0.0000 0.0000 0.0000
# 4 0.0000 0.0000 0.0000 3.1056 0.0000 0.0000
# 5 0.0000 0.0000 0.0000 0.0000 0.5977 0.0000
# 6 0.0000 0.0000 0.0000 0.0000 0.0000 20.5228
#
#
#
# Elastic Compliance Matrix: (Units=1/GPa)
#
#
# Indices 1 2 3 4 5 6 
#
# 1 0.007788 -0.003788 -0.006625 0.000000 0.000000 0.000000
# 2 -0.003788 0.007302 0.001625 0.000000 0.000000 0.000000
# 3 -0.006625 0.001625 0.072314 0.000000 0.000000 0.000000
# 4 0.000000 0.000000 0.000000 0.321999 0.000000 0.000000
# 5 0.000000 0.000000 0.000000 0.000000 1.673058 0.000000
# 6 0.000000 0.000000 0.000000 0.000000 0.000000 0.048726
#
#
# Mechanical properties :
#
#
# Convention : Reuss Voigt Hill
#
# Bulk Modulus (GPa) = 14.32056 67.99587 41.15822
# Shear Modulus (GPa) = 2.30199 23.06519 12.68359
#
# Velocity S-wave (km/s) = 1.07073 3.38928 2.51333
# Velocity P-wave (km/s) = 2.94291 7.01288 5.37779
#
# Compressibility (1/GPa) = 0.06982965
#
# Stress axis : x y z
#
# Youngs Moduli (GPa) = 128.40677 136.94918 13.82861
#
# Poissons Ratio (x) = 0.51875 0.09161
# Poissons Ratio (y) = 0.48639 -0.02248
# Poissons Ratio (z) = 0.85063 -0.22260
#
# Static dielectric constant tensor:
#      x y z
#    x 3.881340 0.000000 0.000000 
#    y 0.000000 3.801710 0.000000 
#    z 0.000000 0.000000 2.930180 
# 
# 
# High freq. dielectric constant tensor:
#      x y z
#    x 1.784430 0.000000 0.000000 
#    y 0.000000 1.800490 0.000000 
#    z 0.000000 0.000000 1.714730 
# 
# From -- ./inp_files/6747.got.cif
#   From: 2010.03.12/outbox.cif.g09.slc.cpg/sg65_4_cif.got.tgz:6747.got - 2010.04.10 20:52:16.
