data_PCOD8265125
_publ_section_title
;
Structure prediction by ZEFSAII (Michael W. Deem and Ramdas Pophale) SiO2 
 PCOD8265125
Probable space group: C M M M
;
_chemical_formula_sum "Si O2"
_cell_formula_units_Z 64
_cell_length_a 8.605821
_cell_length_b 25.134099
_cell_length_c 17.798149
_cell_angle_alpha 90.000000
_cell_angle_beta 90.000000
_cell_angle_gamma 90.000000
_cell_volume 3849.731744
_symmetry_space_group_name_H-M "C M M M"
_symmetry_group_IT_number 65
_symmetry_cell_setting 'orthorhombic'
loop_
_space_group_symop_operation_xyz
x,y,z
-x,-y,z
x,-y,-z
-x,y,-z
-x,-y,-z
x,y,-z
-x,y,z
x,-y,z
1/2+x,1/2+y,z
1/2-x,1/2-y,z
1/2+x,1/2-y,-z
1/2-x,1/2+y,-z
1/2-x,1/2-y,-z
1/2+x,1/2+y,-z
1/2-x,1/2+y,z
1/2+x,1/2-y,z
loop_
_atom_site_type_symbol
_atom_site_label
_atom_site_fract_x
_atom_site_fract_y
_atom_site_fract_z
Si Si1 0.816103 0.309505 0.000000
Si Si2 0.683935 0.309254 0.150423
Si Si3 0.182290 0.308167 0.302529
Si Si4 0.179188 0.890544 0.411549
Si Si5 0.674968 0.000000 0.410767
O O1 0.750000 0.250000 0.000000
O O2 0.753066 0.338415 0.075862
O O3 0.000000 0.308926 0.000000
O O4 0.500000 0.309492 0.145682
O O5 0.750000 0.250000 0.153048
O O6 0.741994 0.335780 0.228088
O O7 0.250000 0.250000 0.318927
O O8 0.218972 0.344954 0.373354
O O9 0.000000 0.302922 0.290184
O O10 0.206942 0.885415 0.500000
O O11 0.000000 0.883033 0.390001
O O12 0.235234 0.947927 0.381545
O O13 0.500000 0.000000 0.378565
O O14 0.673079 0.000000 0.500000
#
# Coordination Sequence:
#
# PCOD8265125 Si02
#       5
#     8  16  16  16   8
#     4  10  16  24  38  58  82 111 148 185 222 264
#     4  10  17  27  41  59  84 115 150 186 225 268
#     4  11  21  33  47  65  92 125 158 192 231 276
#     4  10  20  34  51  70  92 120 154 192 233 276
#     4   9  17  31  51  73  93 114 145 188 235 277
#
# _framework density 16.624535000000002
#
# number of rings (size 3 to 8) (size 9 to 14) (size 15 to 20)
#    0.000    1.875    0.000    9.750    0.000    3.500 
#    0.000    0.000    0.000    0.000    0.000    0.000 
#    0.000    1.000    0.000   10.000    0.000    6.750 
#
# Total GULP energy -396699.427677 kJ/mol
# GULP energy per Si atom -12396.857115 kJ/mol
# Density = 1.658670 g / cm^3
# Si number density = 16.624535 Si / 1000 Ang^3
#
#
#
# Elastic Constant Matrix: (Units=GPa)
#
#
# Indices 1 2 3 4 5 6 
#
# 1 153.2513 28.7402 43.0293 0.0000 0.0000 0.0000
# 2 28.7402 64.7334 36.2190 0.0000 0.0000 0.0000
# 3 43.0293 36.2190 75.8968 0.0000 0.0000 0.0000
# 4 0.0000 0.0000 0.0000 0.9603 0.0000 0.0000
# 5 0.0000 0.0000 0.0000 0.0000 31.1441 0.0000
# 6 0.0000 0.0000 0.0000 0.0000 0.0000 22.9502
#
#
#
# Elastic Compliance Matrix: (Units=1/GPa)
#
#
# Indices 1 2 3 4 5 6 
#
# 1 0.007847 -0.001357 -0.003801 0.000000 0.000000 0.000000
# 2 -0.001357 0.021310 -0.009400 0.000000 0.000000 0.000000
# 3 -0.003801 -0.009400 0.019817 0.000000 0.000000 0.000000
# 4 0.000000 0.000000 0.000000 1.041386 0.000000 0.000000
# 5 0.000000 0.000000 0.000000 0.000000 0.032109 0.000000
# 6 0.000000 0.000000 0.000000 0.000000 0.000000 0.043573
#
#
# Mechanical properties :
#
#
# Convention : Reuss Voigt Hill
#
# Bulk Modulus (GPa) = 50.36005 56.65097 53.50551
# Shear Modulus (GPa) = 4.16051 23.40380 13.78215
#
# Velocity S-wave (km/s) = 1.58369 3.75612 2.88240
# Velocity P-wave (km/s) = 5.80538 7.27750 6.58272
#
# Compressibility (1/GPa) = 0.01985701
#
# Stress axis : x y z
#
# Youngs Moduli (GPa) = 127.43686 46.92666 50.46267
#
# Poissons Ratio (x) = 0.06368 0.19182
# Poissons Ratio (y) = 0.17294 0.47435
# Poissons Ratio (z) = 0.48441 0.44111
#
# Static dielectric constant tensor:
#      x y z
#    x 3.296940 0.000000 0.000000 
#    y 0.000000 2.128360 0.000000 
#    z 0.000000 0.000000 4.006040 
# 
# 
# High freq. dielectric constant tensor:
#      x y z
#    x 1.667090 0.000000 0.000000 
#    y 0.000000 1.579330 0.000000 
#    z 0.000000 0.000000 1.644530 
# 
# From -- ./inp_files/36384.got.cif
#   From: 2010.03.12/outbox.cif.g09.slc.cpg/sg65_19_cif.got.tgz:36384.got - 2010.04.10 20:52:16.
