data_PCOD8265153
_publ_section_title
;
Structure prediction by ZEFSAII (Michael W. Deem and Ramdas Pophale) SiO2 
 PCOD8265153
Probable space group: C M M M
;
_chemical_formula_sum "Si O2"
_cell_formula_units_Z 96
_cell_length_a 23.733273
_cell_length_b 17.892018
_cell_length_c 15.571522
_cell_angle_alpha 90.000000
_cell_angle_beta 90.000000
_cell_angle_gamma 90.000000
_cell_volume 6612.231116
_symmetry_space_group_name_H-M "C M M M"
_symmetry_group_IT_number 65
_symmetry_cell_setting 'orthorhombic'
loop_
_space_group_symop_operation_xyz
x,y,z
-x,-y,z
x,-y,-z
-x,y,-z
-x,-y,-z
x,y,-z
-x,y,z
x,-y,z
1/2+x,1/2+y,z
1/2-x,1/2-y,z
1/2+x,1/2-y,-z
1/2-x,1/2+y,-z
1/2-x,1/2-y,-z
1/2+x,1/2+y,-z
1/2-x,1/2+y,z
1/2+x,1/2-y,z
loop_
_atom_site_type_symbol
_atom_site_label
_atom_site_fract_x
_atom_site_fract_y
_atom_site_fract_z
Si Si1 0.316013 0.263411 0.092324
Si Si2 0.240342 0.083580 0.679547
Si Si3 0.655560 0.582641 0.836761
Si Si4 0.148469 0.823217 0.402248
Si Si5 0.810530 0.710475 0.729034
Si Si6 0.563847 0.413505 0.701498
O O1 0.250000 0.250000 0.089297
O O2 0.330329 0.352027 0.096563
O O3 0.339891 0.219222 0.176301
O O4 0.341430 0.235388 0.000000
O O5 0.203084 0.083403 0.764509
O O6 0.205171 0.126856 0.606293
O O7 0.299706 0.124648 0.701483
O O8 0.254301 0.000000 0.648000
O O9 0.654492 0.500000 0.881051
O O10 0.595654 0.599789 0.791742
O O11 0.142785 0.796660 0.500000
O O12 0.150852 0.749932 0.342020
O O13 0.093242 0.869495 0.376179
O O14 0.750000 0.750000 0.733105
O O15 0.500000 0.385269 0.712436
O O16 0.566576 0.500000 0.675607
#
# Coordination Sequence:
#
# PCOD8265153 Si02
#       6
#    16  16  16  16  16  16
#     4  10  16  25  41  60  79 103 134 165 197 235
#     4   9  16  26  40  55  80 110 135 162 193 234
#     4   9  15  26  40  56  78 107 139 166 196 233
#     4  10  18  27  41  58  79 108 139 168 201 240
#     4   9  15  28  39  56  80 103 132 165 198 237
#     4   9  17  28  42  58  79 107 138 174 209 234
#
# _framework density 14.518547999999999
#
# number of rings (size 3 to 8) (size 9 to 14) (size 15 to 20)
#    0.000    2.667    6.667    1.500    0.000    5.000 
#    0.000    0.833    0.000    1.000    0.000    2.333 
#    0.000    0.667    0.000    1.500    0.000    1.667 
#
# Total GULP energy -594692.386690 kJ/mol
# GULP energy per Si atom -12389.424723 kJ/mol
# Density = 1.448550 g / cm^3
# Si number density = 14.518548 Si / 1000 Ang^3
#
#
#
# Elastic Constant Matrix: (Units=GPa)
#
#
# Indices 1 2 3 4 5 6 
#
# 1 48.9168 38.5960 32.5930 0.0000 0.0000 0.0000
# 2 38.5960 69.8386 29.8373 0.0000 0.0000 0.0000
# 3 32.5930 29.8373 95.0172 0.0000 0.0000 0.0000
# 4 0.0000 0.0000 0.0000 7.9996 0.0000 0.0000
# 5 0.0000 0.0000 0.0000 0.0000 22.7159 0.0000
# 6 0.0000 0.0000 0.0000 0.0000 0.0000 15.6319
#
#
#
# Elastic Compliance Matrix: (Units=1/GPa)
#
#
# Indices 1 2 3 4 5 6 
#
# 1 0.040925 -0.019195 -0.008011 0.000000 0.000000 0.000000
# 2 -0.019195 0.025540 -0.001436 0.000000 0.000000 0.000000
# 3 -0.008011 -0.001436 0.013723 0.000000 0.000000 0.000000
# 4 0.000000 0.000000 0.000000 0.125006 0.000000 0.000000
# 5 0.000000 0.000000 0.000000 0.000000 0.044022 0.000000
# 6 0.000000 0.000000 0.000000 0.000000 0.000000 0.063972
#
#
# Mechanical properties :
#
#
# Convention : Reuss Voigt Hill
#
# Bulk Modulus (GPa) = 43.65701 46.20277 44.92989
# Shear Modulus (GPa) = 13.22381 16.78591 15.00486
#
# Velocity S-wave (km/s) = 3.02126 3.40394 3.21829
# Velocity P-wave (km/s) = 6.50429 6.88051 6.69504
#
# Compressibility (1/GPa) = 0.02290583
#
# Stress axis : x y z
#
# Youngs Moduli (GPa) = 24.43479 39.15420 72.86947
#
# Poissons Ratio (x) = 0.75155 0.58374
# Poissons Ratio (y) = 0.46902 0.10463
# Poissons Ratio (z) = 0.19574 0.05622
#
# Static dielectric constant tensor:
#      x y z
#    x 2.610630 0.000000 0.000000 
#    y 0.000000 3.157210 0.000000 
#    z 0.000000 0.000000 2.936720 
# 
# 
# High freq. dielectric constant tensor:
#      x y z
#    x 1.503380 0.000000 0.000000 
#    y 0.000000 1.543620 0.000000 
#    z 0.000000 0.000000 1.550360 
# 
# From -- ./inp_files/44541.got.cif
#   From: 2010.03.12/outbox.cif.g09.slc.cpg/sg65_23_cif.got.tgz:44541.got - 2010.04.10 20:52:16.
