data_PCOD8265639
_publ_section_title
;
Structure prediction by ZEFSAII (Michael W. Deem and Ramdas Pophale) SiO2 
 PCOD8265639
Probable space group: C M M M
;
_chemical_formula_sum "Si O2"
_cell_formula_units_Z 96
_cell_length_a 27.205301
_cell_length_b 8.939079
_cell_length_c 24.497088
_cell_angle_alpha 90.000000
_cell_angle_beta 90.000000
_cell_angle_gamma 90.000000
_cell_volume 5957.455034
_symmetry_space_group_name_H-M "C M M M"
_symmetry_group_IT_number 65
_symmetry_cell_setting 'orthorhombic'
loop_
_space_group_symop_operation_xyz
x,y,z
-x,-y,z
x,-y,-z
-x,y,-z
-x,-y,-z
x,y,-z
-x,y,z
x,-y,z
1/2+x,1/2+y,z
1/2-x,1/2-y,z
1/2+x,1/2-y,-z
1/2-x,1/2+y,-z
1/2-x,1/2-y,-z
1/2+x,1/2+y,-z
1/2-x,1/2+y,z
1/2+x,1/2-y,z
loop_
_atom_site_type_symbol
_atom_site_label
_atom_site_fract_x
_atom_site_fract_y
_atom_site_fract_z
Si Si1 0.200617 0.823969 0.374799
Si Si2 0.301936 0.326199 0.942424
Si Si3 0.696299 0.322655 0.823721
Si Si4 0.945252 0.674043 0.341575
Si Si5 0.149003 0.677421 0.723698
Si Si6 0.396213 0.675072 0.438920
O O1 0.250000 0.750000 0.398413
O O2 0.188949 0.746094 0.317215
O O3 0.158506 0.786998 0.418455
O O4 0.207305 0.000000 0.365510
O O5 0.291115 0.500000 0.941424
O O6 0.250000 0.250000 0.944441
O O7 0.326660 0.284337 0.884213
O O8 0.330749 0.284700 0.000000
O O9 0.700508 0.500000 0.813432
O O10 0.750000 0.250000 0.815923
O O11 0.657394 0.249582 0.782677
O O12 0.939394 0.500000 0.352887
O O13 0.905762 0.724801 0.296047
O O14 0.936371 0.752648 0.399463
O O15 0.000000 0.714911 0.320600
O O16 0.155715 0.500000 0.726537
O O17 0.402363 0.739788 0.500000
O O18 0.405684 0.500000 0.438292
#
# Coordination Sequence:
#
# PCOD8265639 Si02
#       6
#    16  16  16  16  16  16
#     4  10  19  31  46  63  86 115 145 175 207 244
#     4   8  14  24  37  54  79 113 149 180 208 238
#     4  10  18  27  41  62  89 119 150 180 209 244
#     4   9  19  35  52  68  85 107 136 172 215 259
#     4  10  19  31  46  63  85 111 141 176 213 255
#     4   9  19  34  49  67  90 113 138 169 206 251
#
# _framework density 16.114263999999999
#
# number of rings (size 3 to 8) (size 9 to 14) (size 15 to 20)
#    0.000    2.667    0.000    2.000    0.000    3.333 
#    0.000    1.667    0.000    0.000    0.000    0.000 
#    0.000    0.667    0.000    8.333    0.000    0.000 
#
# Total GULP energy -594767.068709 kJ/mol
# GULP energy per Si atom -12390.980598 kJ/mol
# Density = 1.607759 g / cm^3
# Si number density = 16.114264 Si / 1000 Ang^3
#
#
#
# Elastic Constant Matrix: (Units=GPa)
#
#
# Indices 1 2 3 4 5 6 
#
# 1 74.9311 25.8596 40.9680 0.0000 0.0000 0.0000
# 2 25.8596 51.8898 38.2861 0.0000 0.0000 0.0000
# 3 40.9680 38.2861 144.2269 0.0000 0.0000 0.0000
# 4 0.0000 0.0000 0.0000 19.3860 0.0000 0.0000
# 5 0.0000 0.0000 0.0000 0.0000 14.9816 0.0000
# 6 0.0000 0.0000 0.0000 0.0000 0.0000 19.3091
#
#
#
# Elastic Compliance Matrix: (Units=1/GPa)
#
#
# Indices 1 2 3 4 5 6 
#
# 1 0.017267 -0.006201 -0.003259 0.000000 0.000000 0.000000
# 2 -0.006201 0.026192 -0.005192 0.000000 0.000000 0.000000
# 3 -0.003259 -0.005192 0.009237 0.000000 0.000000 0.000000
# 4 0.000000 0.000000 0.000000 0.051584 0.000000 0.000000
# 5 0.000000 0.000000 0.000000 0.000000 0.066748 0.000000
# 6 0.000000 0.000000 0.000000 0.000000 0.000000 0.051789
#
#
# Mechanical properties :
#
#
# Convention : Reuss Voigt Hill
#
# Bulk Modulus (GPa) = 42.74490 53.47501 48.10996
# Shear Modulus (GPa) = 19.23679 21.79762 20.51721
#
# Velocity S-wave (km/s) = 3.45885 3.68188 3.57211
# Velocity P-wave (km/s) = 6.52191 7.16463 6.85081
#
# Compressibility (1/GPa) = 0.02339460
#
# Stress axis : x y z
#
# Youngs Moduli (GPa) = 57.91300 38.17909 108.25646
#
# Poissons Ratio (x) = 0.23674 0.35278
# Poissons Ratio (y) = 0.35911 0.56202
# Poissons Ratio (z) = 0.18872 0.19821
#
# Static dielectric constant tensor:
#      x y z
#    x 2.880400 0.000000 0.000000 
#    y 0.000000 3.083700 0.000000 
#    z 0.000000 0.000000 3.580070 
# 
# 
# High freq. dielectric constant tensor:
#      x y z
#    x 1.580210 0.000000 0.000000 
#    y 0.000000 1.629550 0.000000 
#    z 0.000000 0.000000 1.626100 
# 
# From -- ./inp_files/68045.got.cif
#   From: 2010.03.12/outbox.cif.g09.slc.cpg/sg65_35_cif.got.tgz:68045.got - 2010.04.10 20:52:16.
