data_PCOD8265840
_publ_section_title
;
Structure prediction by ZEFSAII (Michael W. Deem and Ramdas Pophale) SiO2 
 PCOD8265840
Probable space group: C M M M
;
_chemical_formula_sum "Si O2"
_cell_formula_units_Z 104
_cell_length_a 19.560741
_cell_length_b 8.938917
_cell_length_c 33.922352
_cell_angle_alpha 90.000000
_cell_angle_beta 90.000000
_cell_angle_gamma 90.000000
_cell_volume 5931.385673
_symmetry_space_group_name_H-M "C M M M"
_symmetry_group_IT_number 65
_symmetry_cell_setting 'orthorhombic'
loop_
_space_group_symop_operation_xyz
x,y,z
-x,-y,z
x,-y,-z
-x,y,-z
-x,-y,-z
x,y,-z
-x,y,z
x,-y,z
1/2+x,1/2+y,z
1/2-x,1/2-y,z
1/2+x,1/2-y,-z
1/2-x,1/2+y,-z
1/2-x,1/2-y,-z
1/2+x,1/2+y,-z
1/2-x,1/2+y,z
1/2+x,1/2-y,z
loop_
_atom_site_type_symbol
_atom_site_label
_atom_site_fract_x
_atom_site_fract_y
_atom_site_fract_z
Si Si1 0.081370 0.831599 0.922440
Si Si2 0.923740 0.177589 0.456217
Si Si3 0.422180 0.823100 0.843327
Si Si4 0.677078 0.825783 0.775271
Si Si5 0.081600 0.331350 0.000000
Si Si6 0.675371 0.678619 0.388065
Si Si7 0.323220 0.824825 0.688521
O O1 0.107543 0.748256 0.883307
O O2 0.000000 0.827922 0.923693
O O3 0.109456 0.000000 0.922019
O O4 0.110804 0.750101 0.961163
O O5 0.901813 0.232476 0.500000
O O6 0.870213 0.238737 0.424269
O O7 0.000000 0.237258 0.446361
O O8 0.924311 0.000000 0.455001
O O9 0.500000 0.771200 0.835573
O O10 0.376783 0.763428 0.807016
O O11 0.418074 0.000000 0.847876
O O12 0.750000 0.750000 0.781218
O O13 0.643694 0.797728 0.731723
O O14 0.689968 0.000000 0.781625
O O15 0.109046 0.500000 0.000000
O O16 0.000000 0.327432 0.000000
O O17 0.680334 0.500000 0.386713
O O18 0.750000 0.750000 0.393051
O O19 0.639090 0.740342 0.347757
O O20 0.250000 0.750000 0.691094
O O21 0.317342 0.000000 0.678638
#
# Coordination Sequence:
#
# PCOD8265840 Si02
#       7
#    16  16  16  16   8  16  16
#     4   9  16  25  38  59  87 116 146 183 226 266
#     4   8  15  29  47  65  87 118 154 186 216 257
#     4   9  17  30  46  64  89 119 149 181 220 267
#     4   9  18  31  48  68  88 116 153 188 221 261
#     4   9  15  23  37  57  82 115 152 185 220 265
#     4  10  18  28  46  70  92 114 143 182 225 265
#     4   9  16  28  45  65  90 118 148 182 222 265
#
# _framework density 17.533844999999999
#
# number of rings (size 3 to 8) (size 9 to 14) (size 15 to 20)
#    0.000    3.000    0.000    3.000    0.000    4.308 
#    0.000    0.769    0.000    4.154    0.000    4.846 
#    0.000    0.000    0.000    0.000    0.000    0.000 
#
# Total GULP energy -644383.650834 kJ/mol
# GULP energy per Si atom -12391.993285 kJ/mol
# Density = 1.749394 g / cm^3
# Si number density = 17.533845 Si / 1000 Ang^3
#
#
#
# Elastic Constant Matrix: (Units=GPa)
#
#
# Indices 1 2 3 4 5 6 
#
# 1 53.7025 24.3985 65.9297 0.0000 0.0000 0.0000
# 2 24.3985 68.0594 54.6116 0.0000 0.0000 0.0000
# 3 65.9297 54.6116 196.5277 0.0000 0.0000 0.0000
# 4 0.0000 0.0000 0.0000 22.9772 0.0000 0.0000
# 5 0.0000 0.0000 0.0000 0.0000 23.6216 0.0000
# 6 0.0000 0.0000 0.0000 0.0000 0.0000 12.2727
#
#
#
# Elastic Compliance Matrix: (Units=1/GPa)
#
#
# Indices 1 2 3 4 5 6 
#
# 1 0.032377 -0.003721 -0.009828 0.000000 0.000000 0.000000
# 2 -0.003721 0.019337 -0.004125 0.000000 0.000000 0.000000
# 3 -0.009828 -0.004125 0.009532 0.000000 0.000000 0.000000
# 4 0.000000 0.000000 0.000000 0.043521 0.000000 0.000000
# 5 0.000000 0.000000 0.000000 0.000000 0.042334 0.000000
# 6 0.000000 0.000000 0.000000 0.000000 0.000000 0.081481
#
#
# Mechanical properties :
#
#
# Convention : Reuss Voigt Hill
#
# Bulk Modulus (GPa) = 38.61296 67.57436 53.09366
# Shear Modulus (GPa) = 18.34443 23.33095 20.83769
#
# Velocity S-wave (km/s) = 3.23806 3.65173 3.45110
# Velocity P-wave (km/s) = 6.00415 7.51021 6.79901
#
# Compressibility (1/GPa) = 0.02589804
#
# Stress axis : x y z
#
# Youngs Moduli (GPa) = 30.88632 51.71431 104.91502
#
# Poissons Ratio (x) = 0.19243 1.03106
# Poissons Ratio (y) = 0.11493 0.43279
# Poissons Ratio (z) = 0.30354 0.21333
#
# Static dielectric constant tensor:
#      x y z
#    x 2.901120 0.000000 0.000000 
#    y 0.000000 3.200730 0.000000 
#    z 0.000000 0.000000 4.022920 
# 
# 
# High freq. dielectric constant tensor:
#      x y z
#    x 1.621530 0.000000 0.000000 
#    y 0.000000 1.670990 0.000000 
#    z 0.000000 0.000000 1.701620 
# 
# From -- ./inp_files/78361.got.cif
#   From: 2010.03.12/outbox.cif.g09.slc.cpg/sg65_40_cif.got.tgz:78361.got - 2010.04.10 20:52:16.
