data_PCOD8265260
_publ_section_title
;
Structure prediction by ZEFSAII (Michael W. Deem and Ramdas Pophale) SiO2 
 PCOD8265260
Probable space group: C M M M
;
_chemical_formula_sum "Si O2"
_cell_formula_units_Z 96
_cell_length_a 30.178935
_cell_length_b 33.206654
_cell_length_c 7.903941
_cell_angle_alpha 90.000000
_cell_angle_beta 90.000000
_cell_angle_gamma 90.000000
_cell_volume 7920.866915
_symmetry_space_group_name_H-M "C M M M"
_symmetry_group_IT_number 65
_symmetry_cell_setting 'orthorhombic'
loop_
_space_group_symop_operation_xyz
x,y,z
-x,-y,z
x,-y,-z
-x,y,-z
-x,-y,-z
x,y,-z
-x,y,z
x,-y,z
1/2+x,1/2+y,z
1/2-x,1/2-y,z
1/2+x,1/2-y,-z
1/2-x,1/2+y,-z
1/2-x,1/2-y,-z
1/2+x,1/2+y,-z
1/2-x,1/2+y,z
1/2+x,1/2-y,z
loop_
_atom_site_type_symbol
_atom_site_label
_atom_site_fract_x
_atom_site_fract_y
_atom_site_fract_z
Si Si1 0.396274 0.619461 0.193040
Si Si2 0.049846 0.804344 0.200802
Si Si3 0.814654 0.840501 0.313649
Si Si4 0.266012 0.685402 0.000000
Si Si5 0.130845 0.758668 0.311825
Si Si6 0.050044 0.045593 0.698758
Si Si7 0.820034 0.268125 0.000000
O O1 0.431811 0.652119 0.261197
O O2 0.349597 0.622900 0.291667
O O3 0.415887 0.574915 0.208802
O O4 0.385088 0.629388 0.000000
O O5 0.079227 0.768416 0.278947
O O6 0.000000 0.799772 0.270077
O O7 0.051346 0.800900 0.000000
O O8 0.792406 0.844026 0.500000
O O9 0.777089 0.840577 0.168495
O O10 0.842329 0.799818 0.296977
O O11 0.213735 0.694496 0.000000
O O12 0.293527 0.726476 0.000000
O O13 0.136383 0.739677 0.500000
O O14 0.149637 0.728431 0.168789
O O15 0.053365 0.052504 0.500000
O O16 0.000000 0.054482 0.760923
O O17 0.063206 0.000000 0.746560
#
# Coordination Sequence:
#
# PCOD8265260 Si02
#       7
#    16  16  16   8  16  16   8
#     4  10  17  26  39  53  67  83 106 134 166 201
#     4   9  16  25  36  49  66  86 107 135 166 192
#     4   9  16  26  38  52  68  83 102 128 155 188
#     4   9  16  26  38  52  65  83 102 122 151 187
#     4   9  16  25  36  49  65  86 107 126 154 188
#     4   9  18  30  39  48  65  87 110 136 165 199
#     4   9  16  26  37  48  68  84  99 126 152 181
#
# _framework density 12.119885
#
# number of rings (size 3 to 8) (size 9 to 14) (size 15 to 20)
#    0.000    2.833    1.667    1.500    0.000    3.000 
#    0.000    4.167    0.000    0.000    0.000    0.000 
#    0.000    0.000    0.000    0.000    0.000    0.000 
#
# Total GULP energy -594960.306498 kJ/mol
# GULP energy per Si atom -12395.006385 kJ/mol
# Density = 1.209230 g / cm^3
# Si number density = 12.119885 Si / 1000 Ang^3
#
#
#
# Elastic Constant Matrix: (Units=GPa)
#
#
# Indices 1 2 3 4 5 6 
#
# 1 62.8449 31.8730 36.7542 0.0000 0.0000 0.0000
# 2 31.8730 28.1484 22.1649 0.0000 0.0000 0.0000
# 3 36.7542 22.1649 77.1681 0.0000 0.0000 0.0000
# 4 0.0000 0.0000 0.0000 10.7972 0.0000 0.0000
# 5 0.0000 0.0000 0.0000 0.0000 12.0185 0.0000
# 6 0.0000 0.0000 0.0000 0.0000 0.0000 18.2542
#
#
#
# Elastic Compliance Matrix: (Units=1/GPa)
#
#
# Indices 1 2 3 4 5 6 
#
# 1 0.040851 -0.039977 -0.007974 0.000000 0.000000 0.000000
# 2 -0.039977 0.085032 -0.005383 0.000000 0.000000 0.000000
# 3 -0.007974 -0.005383 0.018303 0.000000 0.000000 0.000000
# 4 0.000000 0.000000 0.000000 0.092617 0.000000 0.000000
# 5 0.000000 0.000000 0.000000 0.000000 0.083205 0.000000
# 6 0.000000 0.000000 0.000000 0.000000 0.000000 0.054782
#
#
# Mechanical properties :
#
#
# Convention : Reuss Voigt Hill
#
# Bulk Modulus (GPa) = 26.65471 38.86062 32.75767
# Shear Modulus (GPa) = 10.12221 13.37192 11.74706
#
# Velocity S-wave (km/s) = 2.89307 3.32521 3.11664
# Velocity P-wave (km/s) = 5.76195 6.84659 6.32755
#
# Compressibility (1/GPa) = 0.03751683
#
# Stress axis : x y z
#
# Youngs Moduli (GPa) = 24.47924 11.76035 54.63619
#
# Poissons Ratio (x) = 0.47014 0.43568
# Poissons Ratio (y) = 0.97861 0.29410
# Poissons Ratio (z) = 0.19520 0.06331
#
# Static dielectric constant tensor:
#      x y z
#    x 2.445150 0.000000 0.000000 
#    y 0.000000 2.137220 0.000000 
#    z 0.000000 0.000000 2.650430 
# 
# 
# High freq. dielectric constant tensor:
#      x y z
#    x 1.435920 0.000000 0.000000 
#    y 0.000000 1.396610 0.000000 
#    z 0.000000 0.000000 1.477180 
# 
# From -- ./inp_files/19176.got.cif
#   From: 2010.03.12/outbox.cif.g09.slc.cpg/sg65_10_cif.got.tgz:19176.got - 2010.04.10 20:52:16.
