data_PCOD8265086
_publ_section_title
;
Structure prediction by ZEFSAII (Michael W. Deem and Ramdas Pophale) SiO2 
 PCOD8265086
Probable space group: C M M M
;
_chemical_formula_sum "Si O2"
_cell_formula_units_Z 80
_cell_length_a 8.988197
_cell_length_b 36.070107
_cell_length_c 17.937068
_cell_angle_alpha 90.000000
_cell_angle_beta 90.000000
_cell_angle_gamma 90.000000
_cell_volume 5815.291212
_symmetry_space_group_name_H-M "C M M M"
_symmetry_group_IT_number 65
_symmetry_cell_setting 'orthorhombic'
loop_
_space_group_symop_operation_xyz
x,y,z
-x,-y,z
x,-y,-z
-x,y,-z
-x,-y,-z
x,y,-z
-x,y,z
x,-y,z
1/2+x,1/2+y,z
1/2-x,1/2-y,z
1/2+x,1/2-y,-z
1/2-x,1/2+y,-z
1/2-x,1/2-y,-z
1/2+x,1/2+y,-z
1/2-x,1/2+y,z
1/2+x,1/2-y,z
loop_
_atom_site_type_symbol
_atom_site_label
_atom_site_fract_x
_atom_site_fract_y
_atom_site_fract_z
Si Si1 0.673398 0.710547 0.642100
Si Si2 0.322217 0.208896 0.500000
Si Si3 0.167721 0.000000 0.911016
Si Si4 0.332652 0.927410 0.911299
Si Si5 0.827749 0.210764 0.193212
Si Si6 0.324901 0.353168 0.914382
O O1 0.500000 0.714496 0.621299
O O2 0.750000 0.750000 0.648851
O O3 0.759275 0.688572 0.575097
O O4 0.695329 0.692730 0.724082
O O5 0.500000 0.209606 0.500000
O O6 0.250000 0.250000 0.500000
O O7 0.249112 0.036494 0.879282
O O8 0.000000 0.000000 0.880826
O O9 0.170619 0.000000 0.000000
O O10 0.500000 0.927563 0.880315
O O11 0.251475 0.890332 0.883384
O O12 0.330265 0.928747 0.000000
O O13 0.750000 0.250000 0.181545
O O14 0.764473 0.181310 0.133867
O O15 0.000000 0.218348 0.178447
O O16 0.500000 0.358590 0.904672
O O17 0.281270 0.345501 0.000000
#
# Coordination Sequence:
#
# PCOD8265086 Si02
#       6
#    16   8   8  16  16  16
#     4   9  15  24  36  50  68  88 111 140 176 216
#     4  10  16  22  34  52  70  86 106 133 170 215
#     4   9  15  23  37  55  73  93 113 136 173 220
#     4   9  16  25  37  54  73  91 114 146 181 217
#     4   9  18  29  40  53  69  92 123 158 192 224
#     4   9  17  29  41  52  69  94 124 157 191 224
#
# _framework density 13.756835000000001
#
# number of rings (size 3 to 8) (size 9 to 14) (size 15 to 20)
#    0.000    2.900    0.000    3.600    0.000    5.600 
#    0.000    0.000    0.000    0.000    0.000    0.000 
#    0.000    0.000    0.000    0.000    0.000    1.000 
#
# Total GULP energy -495642.273918 kJ/mol
# GULP energy per Si atom -12391.056848 kJ/mol
# Density = 1.372552 g / cm^3
# Si number density = 13.756835 Si / 1000 Ang^3
#
#
#
# Elastic Constant Matrix: (Units=GPa)
#
#
# Indices 1 2 3 4 5 6 
#
# 1 87.2428 43.0580 35.6551 0.0000 0.0000 0.0000
# 2 43.0580 91.4687 43.8484 0.0000 0.0000 0.0000
# 3 35.6551 43.8484 67.6576 0.0000 0.0000 0.0000
# 4 0.0000 0.0000 0.0000 0.7249 0.0000 0.0000
# 5 0.0000 0.0000 0.0000 0.0000 14.4107 0.0000
# 6 0.0000 0.0000 0.0000 0.0000 0.0000 19.2822
#
#
#
# Elastic Compliance Matrix: (Units=1/GPa)
#
#
# Indices 1 2 3 4 5 6 
#
# 1 0.016093 -0.005092 -0.005181 0.000000 0.000000 0.000000
# 2 -0.005092 0.017471 -0.008640 0.000000 0.000000 0.000000
# 3 -0.005181 -0.008640 0.023110 0.000000 0.000000 0.000000
# 4 0.000000 0.000000 0.000000 1.379475 0.000000 0.000000
# 5 0.000000 0.000000 0.000000 0.000000 0.069393 0.000000
# 6 0.000000 0.000000 0.000000 0.000000 0.000000 0.051861
#
#
# Mechanical properties :
#
#
# Convention : Reuss Voigt Hill
#
# Bulk Modulus (GPa) = 53.05243 54.61022 53.83133
# Shear Modulus (GPa) = 3.12205 15.13740 9.12973
#
# Velocity S-wave (km/s) = 1.50811 3.32076 2.57894
# Velocity P-wave (km/s) = 6.45605 7.38148 6.93422
#
# Compressibility (1/GPa) = 0.01884928
#
# Stress axis : x y z
#
# Youngs Moduli (GPa) = 62.14029 57.23656 43.27175
#
# Poissons Ratio (x) = 0.29144 0.22418
# Poissons Ratio (y) = 0.31641 0.37385
# Poissons Ratio (z) = 0.32193 0.49450
#
# Static dielectric constant tensor:
#      x y z
#    x 2.856440 0.000000 0.000000 
#    y 0.000000 2.559530 0.000000 
#    z 0.000000 0.000000 3.255810 
# 
# 
# High freq. dielectric constant tensor:
#      x y z
#    x 1.539470 0.000000 0.000000 
#    y 0.000000 1.485600 0.000000 
#    z 0.000000 0.000000 1.496840 
# 
# From -- ./inp_files/60595.got.cif
#   From: 2010.03.12/outbox.cif.g09.slc.cpg/sg65_31_cif.got.tgz:60595.got - 2010.04.10 20:52:16.
