data_PCOD8265406
_publ_section_title
;
Structure prediction by ZEFSAII (Michael W. Deem and Ramdas Pophale) SiO2 
 PCOD8265406
Probable space group: C M M M
;
_chemical_formula_sum "Si O2"
_cell_formula_units_Z 96
_cell_length_a 21.230348
_cell_length_b 21.546900
_cell_length_c 12.013197
_cell_angle_alpha 90.000000
_cell_angle_beta 90.000000
_cell_angle_gamma 90.000000
_cell_volume 5495.415168
_symmetry_space_group_name_H-M "C M M M"
_symmetry_group_IT_number 65
_symmetry_cell_setting 'orthorhombic'
loop_
_space_group_symop_operation_xyz
x,y,z
-x,-y,z
x,-y,-z
-x,y,-z
-x,-y,-z
x,y,-z
-x,y,z
x,-y,z
1/2+x,1/2+y,z
1/2-x,1/2-y,z
1/2+x,1/2-y,-z
1/2-x,1/2+y,-z
1/2-x,1/2-y,-z
1/2+x,1/2+y,-z
1/2-x,1/2+y,z
1/2+x,1/2-y,z
loop_
_atom_site_type_symbol
_atom_site_label
_atom_site_fract_x
_atom_site_fract_y
_atom_site_fract_z
Si Si1 0.929139 0.573496 0.000000
Si Si2 0.842589 0.794584 0.372291
Si Si3 0.068502 0.071886 0.500000
Si Si4 0.000000 0.573537 0.624547
Si Si5 0.379566 0.073507 0.236821
Si Si6 0.074881 0.000000 0.874874
Si Si7 0.424905 0.384799 0.730970
Si Si8 0.296814 0.841005 0.626045
O O1 0.891177 0.595017 0.109567
O O2 0.935885 0.500000 0.000000
O O3 0.000000 0.601795 0.000000
O O4 0.867310 0.806571 0.500000
O O5 0.889762 0.818222 0.272081
O O6 0.776375 0.828500 0.354930
O O7 0.836304 0.721480 0.353085
O O8 0.102699 0.090185 0.613348
O O9 0.000000 0.104793 0.500000
O O10 0.057926 0.000000 0.500000
O O11 0.061441 0.596413 0.689773
O O12 0.000000 0.500000 0.619768
O O13 0.000000 0.601891 0.500000
O O14 0.318000 0.106963 0.285718
O O15 0.369230 0.000000 0.244544
O O16 0.099359 0.064253 0.819868
O O17 0.000000 0.000000 0.865771
O O18 0.099910 0.000000 0.000000
O O19 0.500000 0.376537 0.740289
O O20 0.308434 0.864789 0.500000
#
# Coordination Sequence:
#
# PCOD8265406 Si02
#       8
#     8  16   8   8  16   8  16  16
#     4   9  16  30  52  75  98 134 171 205 258 306
#     4   9  18  34  53  71 100 140 172 201 250 312
#     4   9  14  22  40  71 100 120 145 193 256 294
#     4   9  16  25  43  73 105 130 149 190 259 312
#     4  10  18  31  52  75 102 131 169 216 253 299
#     4   9  18  31  49  73 103 138 163 194 257 314
#     4  10  17  28  50  76 101 126 164 212 249 294
#     4   9  19  35  52  71 101 140 171 201 252 315
#
# _framework density 17.469107999999999
#
# number of rings (size 3 to 8) (size 9 to 14) (size 15 to 20)
#    0.000    2.667    2.500    1.500    0.000    1.000 
#    3.000    0.000    3.667    1.000    0.000    0.000 
#    0.000    0.000    0.000    0.000    0.000    0.000 
#
# Total GULP energy -594683.425774 kJ/mol
# GULP energy per Si atom -12389.238037 kJ/mol
# Density = 1.742935 g / cm^3
# Si number density = 17.469108 Si / 1000 Ang^3
#
#
#
# Elastic Constant Matrix: (Units=GPa)
#
#
# Indices 1 2 3 4 5 6 
#
# 1 47.4139 30.9438 32.3266 0.0000 0.0000 0.0000
# 2 30.9438 58.7211 38.8591 0.0000 0.0000 0.0000
# 3 32.3266 38.8591 121.9808 0.0000 0.0000 0.0000
# 4 0.0000 0.0000 0.0000 18.7923 0.0000 0.0000
# 5 0.0000 0.0000 0.0000 0.0000 20.0642 0.0000
# 6 0.0000 0.0000 0.0000 0.0000 0.0000 27.6323
#
#
#
# Elastic Compliance Matrix: (Units=1/GPa)
#
#
# Indices 1 2 3 4 5 6 
#
# 1 0.033728 -0.015026 -0.004152 0.000000 0.000000 0.000000
# 2 -0.015026 0.028273 -0.005025 0.000000 0.000000 0.000000
# 3 -0.004152 -0.005025 0.010899 0.000000 0.000000 0.000000
# 4 0.000000 0.000000 0.000000 0.053213 0.000000 0.000000
# 5 0.000000 0.000000 0.000000 0.000000 0.049840 0.000000
# 6 0.000000 0.000000 0.000000 0.000000 0.000000 0.036190
#
#
# Mechanical properties :
#
#
# Convention : Reuss Voigt Hill
#
# Bulk Modulus (GPa) = 40.82439 48.04165 44.43302
# Shear Modulus (GPa) = 18.60728 21.69685 20.15207
#
# Velocity S-wave (km/s) = 3.26721 3.52804 3.40013
# Velocity P-wave (km/s) = 6.13621 6.64505 6.39569
#
# Compressibility (1/GPa) = 0.02449516
#
# Stress axis : x y z
#
# Youngs Moduli (GPa) = 29.64910 35.36955 91.75198
#
# Poissons Ratio (x) = 0.53146 0.38091
# Poissons Ratio (y) = 0.44551 0.46103
# Poissons Ratio (z) = 0.12309 0.17772
#
# Static dielectric constant tensor:
#      x y z
#    x 3.130310 0.000000 0.000000 
#    y 0.000000 3.117860 0.000000 
#    z 0.000000 0.000000 3.316970 
# 
# 
# High freq. dielectric constant tensor:
#      x y z
#    x 1.654100 0.000000 0.000000 
#    y 0.000000 1.657370 0.000000 
#    z 0.000000 0.000000 1.663170 
# 
# From -- ./inp_files/31198.got.cif
#   From: 2010.03.12/outbox.cif.g09.slc.cpg/sg65_16_cif.got.tgz:31198.got - 2010.04.10 20:52:16.
