data_PCOD8265941
_publ_section_title
;
Structure prediction by ZEFSAII (Michael W. Deem and Ramdas Pophale) SiO2 
 PCOD8265941
Probable space group: C M M M
;
_chemical_formula_sum "Si O2"
_cell_formula_units_Z 96
_cell_length_a 25.584674
_cell_length_b 9.057255
_cell_length_c 25.136550
_cell_angle_alpha 90.000000
_cell_angle_beta 90.000000
_cell_angle_gamma 90.000000
_cell_volume 5824.815223
_symmetry_space_group_name_H-M "C M M M"
_symmetry_group_IT_number 65
_symmetry_cell_setting 'orthorhombic'
loop_
_space_group_symop_operation_xyz
x,y,z
-x,-y,z
x,-y,-z
-x,y,-z
-x,-y,-z
x,y,-z
-x,y,z
x,-y,z
1/2+x,1/2+y,z
1/2-x,1/2-y,z
1/2+x,1/2-y,-z
1/2-x,1/2+y,-z
1/2-x,1/2-y,-z
1/2+x,1/2+y,-z
1/2-x,1/2+y,z
1/2+x,1/2-y,z
loop_
_atom_site_type_symbol
_atom_site_label
_atom_site_fract_x
_atom_site_fract_y
_atom_site_fract_z
Si Si1 0.695806 0.669632 0.000000
Si Si2 0.000000 0.824289 0.560554
Si Si3 0.804641 0.675122 0.672780
Si Si4 0.150568 0.669717 0.786369
Si Si5 0.558798 0.662899 0.747466
Si Si6 0.305278 0.327554 0.885766
Si Si7 0.595058 0.667970 0.630697
O O1 0.750000 0.750000 0.000000
O O2 0.666555 0.705542 0.943687
O O3 0.711062 0.500000 0.000000
O O4 0.945682 0.766082 0.587096
O O5 0.000000 0.769500 0.500000
O O6 0.000000 0.000000 0.566240
O O7 0.801168 0.500000 0.664523
O O8 0.750000 0.750000 0.655741
O O9 0.814918 0.715022 0.734913
O O10 0.851601 0.736464 0.635664
O O11 0.158380 0.500000 0.800652
O O12 0.090623 0.704293 0.773662
O O13 0.161408 0.766327 0.837759
O O14 0.500000 0.684632 0.766525
O O15 0.579466 0.500000 0.765231
O O16 0.561909 0.674174 0.684316
O O17 0.297053 0.500000 0.876526
O O18 0.250000 0.250000 0.884308
O O19 0.611770 0.500000 0.616758
#
# Coordination Sequence:
#
# PCOD8265941 Si02
#       7
#     8   8  16  16  16  16  16
#     4   8  16  28  42  60  81 110 147 184 224 267
#     4   9  16  28  51  81 105 125 155 194 235 278
#     4  10  20  32  46  67  95 128 162 195 233 280
#     4  10  20  30  42  65  93 121 153 187 229 276
#     4   9  16  28  46  66  90 121 154 185 223 271
#     4  10  18  29  44  62  87 117 149 186 225 268
#     4   9  16  29  49  72  98 127 157 191 230 276
#
# _framework density 16.481210000000001
#
# number of rings (size 3 to 8) (size 9 to 14) (size 15 to 20)
#    0.000    2.583    0.833    2.000    0.000    4.333 
#    0.000    0.417    0.000    1.500    0.000    0.583 
#    0.000    4.667    0.000    0.000    0.000    0.000 
#
# Total GULP energy -594694.418953 kJ/mol
# GULP energy per Si atom -12389.467062 kJ/mol
# Density = 1.644370 g / cm^3
# Si number density = 16.481210 Si / 1000 Ang^3
#
#
#
# Elastic Constant Matrix: (Units=GPa)
#
#
# Indices 1 2 3 4 5 6 
#
# 1 99.6553 40.1283 48.9444 0.0000 0.0000 0.0000
# 2 40.1283 64.5797 38.6199 0.0000 0.0000 0.0000
# 3 48.9444 38.6199 101.2112 0.0000 0.0000 0.0000
# 4 0.0000 0.0000 0.0000 15.9018 0.0000 0.0000
# 5 0.0000 0.0000 0.0000 0.0000 -281.3289 0.0000
# 6 0.0000 0.0000 0.0000 0.0000 0.0000 24.9976
#
#
#
# Elastic Compliance Matrix: (Units=1/GPa)
#
#
# Indices 1 2 3 4 5 6 
#
# 1 0.014980 -0.006448 -0.004784 0.000000 0.000000 0.000000
# 2 -0.006448 0.022838 -0.005596 0.000000 0.000000 0.000000
# 3 -0.004784 -0.005596 0.014329 0.000000 0.000000 0.000000
# 4 0.000000 0.000000 0.000000 0.062886 0.000000 0.000000
# 5 0.000000 0.000000 0.000000 0.000000 -0.003555 0.000000
# 6 0.000000 0.000000 0.000000 0.000000 0.000000 0.040004
#
#
# Mechanical properties :
#
#
# Convention : Reuss Voigt Hill
#
# Bulk Modulus (GPa) = 54.07902 57.87015 55.97459
# Shear Modulus (GPa) = 26.13654 -38.90233 -6.38290
#
# Velocity S-wave (km/s) = 3.98658 -4.86367 -1.97009
# Velocity P-wave (km/s) = 7.35352 1.91014 5.37228
#
# Compressibility (1/GPa) = 0.01849146
#
# Stress axis : x y z
#
# Youngs Moduli (GPa) = 66.75347 43.78696 69.78677
#
# Poissons Ratio (x) = 0.28232 0.33387
# Poissons Ratio (y) = 0.43039 0.39056
# Poissons Ratio (z) = 0.31936 0.24505
#
# Static dielectric constant tensor:
#      x y z
#    x 2.931790 0.000000 0.000000 
#    y 0.000000 3.106160 0.000000 
#    z 0.000000 0.000000 3.335680 
# 
# 
# High freq. dielectric constant tensor:
#      x y z
#    x 1.613900 0.000000 0.000000 
#    y 0.000000 1.633910 0.000000 
#    z 0.000000 0.000000 1.620510 
# 
# From -- ./inp_files/71766.got.cif
#   From: 2010.03.12/outbox.cif.g09.slc.cpg/sg65_36_cif.got.tgz:71766.got - 2010.04.10 20:52:16.
