data_PCOD8265975
_publ_section_title
;
Structure prediction by ZEFSAII (Michael W. Deem and Ramdas Pophale) SiO2 
 PCOD8265975
Probable space group: C M M M
;
_chemical_formula_sum "Si O2"
_cell_formula_units_Z 112
_cell_length_a 13.319974
_cell_length_b 34.110855
_cell_length_c 14.708024
_cell_angle_alpha 90.000000
_cell_angle_beta 90.000000
_cell_angle_gamma 90.000000
_cell_volume 6682.674565
_symmetry_space_group_name_H-M "C M M M"
_symmetry_group_IT_number 65
_symmetry_cell_setting 'orthorhombic'
loop_
_space_group_symop_operation_xyz
x,y,z
-x,-y,z
x,-y,-z
-x,y,-z
-x,-y,-z
x,y,-z
-x,y,z
x,-y,z
1/2+x,1/2+y,z
1/2-x,1/2-y,z
1/2+x,1/2-y,-z
1/2-x,1/2+y,-z
1/2-x,1/2-y,-z
1/2+x,1/2+y,-z
1/2-x,1/2+y,z
1/2+x,1/2-y,z
loop_
_atom_site_type_symbol
_atom_site_label
_atom_site_fract_x
_atom_site_fract_y
_atom_site_fract_z
Si Si1 0.178046 0.696116 0.101017
Si Si2 0.888374 0.956698 0.392320
Si Si3 0.382052 0.842644 0.273939
Si Si4 0.113856 0.191340 0.348481
Si Si5 0.759622 0.884185 0.605718
Si Si6 0.382307 0.226137 0.399550
Si Si7 0.888587 0.218879 0.855427
O O1 0.151941 0.659990 0.168345
O O2 0.127288 0.734137 0.147893
O O3 0.298125 0.700739 0.085965
O O4 0.132886 0.688668 0.000000
O O5 0.894313 0.954275 0.500000
O O6 0.813546 0.923311 0.357078
O O7 0.000000 0.949311 0.352296
O O8 0.850117 0.000000 0.362059
O O9 0.500000 0.846658 0.282123
O O10 0.335493 0.879803 0.326797
O O11 0.337162 0.804341 0.326630
O O12 0.167517 0.152542 0.381978
O O13 0.165678 0.230139 0.393505
O O14 0.119121 0.198109 0.241261
O O15 0.000000 0.186870 0.382398
O O16 0.726742 0.887950 0.500000
O O17 0.366541 0.208389 0.500000
O O18 0.500000 0.231147 0.375960
O O19 0.000000 0.210699 0.896993
#
# Coordination Sequence:
#
# PCOD8265975 Si02
#       7
#    16  16  16  16  16  16  16
#     4  11  22  35  51  67  85 121 172 214 256 304
#     4   8  15  30  52  77 104 131 159 193 234 285
#     4  11  22  36  47  63  93 126 169 215 248 285
#     4  10  18  29  45  66  95 127 162 206 249 286
#     4  11  21  31  48  72  99 133 165 197 239 287
#     4   9  17  29  43  57  81 123 166 201 236 273
#     4  10  19  33  49  65  89 121 160 211 262 297
#
# _framework density 16.759755999999999
#
# number of rings (size 3 to 8) (size 9 to 14) (size 15 to 20)
#    0.000    2.000    2.857    3.000    0.000    4.857 
#    0.000    1.429    0.000    0.429    0.000    2.000 
#    0.000    0.571    0.000    2.857    0.000    0.143 
#
# Total GULP energy -694066.362220 kJ/mol
# GULP energy per Si atom -12394.042182 kJ/mol
# Density = 1.672161 g / cm^3
# Si number density = 16.759756 Si / 1000 Ang^3
#
#
#
# Elastic Constant Matrix: (Units=GPa)
#
#
# Indices 1 2 3 4 5 6 
#
# 1 76.3509 42.9513 19.1936 0.0000 0.0000 0.0000
# 2 42.9513 88.1908 29.3305 0.0000 0.0000 0.0000
# 3 19.1936 29.3305 76.0762 0.0000 0.0000 0.0000
# 4 0.0000 0.0000 0.0000 2.7495 0.0000 0.0000
# 5 0.0000 0.0000 0.0000 0.0000 12.9280 0.0000
# 6 0.0000 0.0000 0.0000 0.0000 0.0000 21.4333
#
#
#
# Elastic Compliance Matrix: (Units=1/GPa)
#
#
# Indices 1 2 3 4 5 6 
#
# 1 0.018159 -0.008397 -0.001344 0.000000 0.000000 0.000000
# 2 -0.008397 0.016890 -0.004393 0.000000 0.000000 0.000000
# 3 -0.001344 -0.004393 0.015178 0.000000 0.000000 0.000000
# 4 0.000000 0.000000 0.000000 0.363700 0.000000 0.000000
# 5 0.000000 0.000000 0.000000 0.000000 0.077352 0.000000
# 6 0.000000 0.000000 0.000000 0.000000 0.000000 0.046656
#
#
# Mechanical properties :
#
#
# Convention : Reuss Voigt Hill
#
# Bulk Modulus (GPa) = 45.54161 47.06318 46.30239
# Shear Modulus (GPa) = 8.71807 17.36498 13.04153
#
# Velocity S-wave (km/s) = 2.28322 3.22236 2.79255
# Velocity P-wave (km/s) = 5.84662 6.47973 6.17130
#
# Compressibility (1/GPa) = 0.02195794
#
# Stress axis : x y z
#
# Youngs Moduli (GPa) = 55.06918 59.20789 65.88672
#
# Poissons Ratio (x) = 0.49716 0.08856
# Poissons Ratio (y) = 0.46241 0.28945
# Poissons Ratio (z) = 0.07402 0.26011
#
# Static dielectric constant tensor:
#      x y z
#    x 3.426490 0.000000 0.000000 
#    y 0.000000 2.970110 0.000000 
#    z 0.000000 0.000000 3.004250 
# 
# 
# High freq. dielectric constant tensor:
#      x y z
#    x 1.663010 0.000000 0.000000 
#    y 0.000000 1.586650 0.000000 
#    z 0.000000 0.000000 1.630160 
# 
# From -- ./inp_files/41341.got.cif
#   From: 2010.03.12/outbox.cif.g09.slc.cpg/sg65_21_cif.got.tgz:41341.got - 2010.04.10 20:52:16.
