data_PCOD8265223
_publ_section_title
;
Structure prediction by ZEFSAII (Michael W. Deem and Ramdas Pophale) SiO2 
 PCOD8265223
Probable space group: C M M M
;
_chemical_formula_sum "Si O2"
_cell_formula_units_Z 88
_cell_length_a 23.852011
_cell_length_b 30.651099
_cell_length_c 8.964806
_cell_angle_alpha 90.000000
_cell_angle_beta 90.000000
_cell_angle_gamma 90.000000
_cell_volume 6554.083161
_symmetry_space_group_name_H-M "C M M M"
_symmetry_group_IT_number 65
_symmetry_cell_setting 'orthorhombic'
loop_
_space_group_symop_operation_xyz
x,y,z
-x,-y,z
x,-y,-z
-x,y,-z
-x,-y,-z
x,y,-z
-x,y,z
x,-y,z
1/2+x,1/2+y,z
1/2-x,1/2-y,z
1/2+x,1/2-y,-z
1/2-x,1/2+y,-z
1/2-x,1/2-y,-z
1/2+x,1/2+y,-z
1/2-x,1/2+y,z
1/2+x,1/2-y,z
loop_
_atom_site_type_symbol
_atom_site_label
_atom_site_fract_x
_atom_site_fract_y
_atom_site_fract_z
Si Si1 0.829408 0.331736 0.823910
Si Si2 0.877438 0.237575 0.822842
Si Si3 0.500000 0.051489 0.828548
Si Si4 0.000000 0.239950 0.171553
Si Si5 0.225227 0.201988 0.667747
Si Si6 0.500000 0.178396 0.658201
Si Si7 0.908892 0.606580 0.332195
O O1 0.863928 0.287883 0.777828
O O2 0.766240 0.329110 0.761139
O O3 0.854326 0.376807 0.756958
O O4 0.827027 0.336591 0.000000
O O5 0.940072 0.223546 0.763329
O O6 0.835507 0.203531 0.745732
O O7 0.872363 0.232594 0.000000
O O8 0.557002 0.068518 0.751460
O O9 0.500000 0.000000 0.813698
O O10 0.500000 0.067018 0.000000
O O11 0.000000 0.291884 0.196109
O O12 0.000000 0.229129 0.000000
O O13 0.218978 0.183806 0.500000
O O14 0.250000 0.250000 0.666975
O O15 0.500000 0.205099 0.500000
O O16 0.554284 0.149287 0.661380
O O17 0.893395 0.590642 0.500000
#
# Coordination Sequence:
#
# PCOD8265223 Si02
#       7
#    16  16   8   8  16   8  16
#     4  10  17  26  41  56  72  93 120 154 188 228
#     4   9  17  26  36  51  70  94 122 152 190 230
#     4  10  21  35  48  61  79 103 129 157 193 237
#     4  10  17  25  36  50  68  91 119 152 186 224
#     4   9  17  27  37  49  69  94 119 150 189 230
#     4   9  17  25  34  50  71  90 111 145 183 220
#     4  10  19  29  42  60  77  95 120 152 191 233
#
# _framework density 13.426743999999999
#
# number of rings (size 3 to 8) (size 9 to 14) (size 15 to 20)
#    0.000    2.455    1.818    2.455    0.000    5.818 
#    0.000    0.000    0.000    0.000    0.000    0.000 
#    0.000    0.000    0.000    0.000    0.000    0.000 
#
# Total GULP energy -545108.557830 kJ/mol
# GULP energy per Si atom -12388.830860 kJ/mol
# Density = 1.339618 g / cm^3
# Si number density = 13.426744 Si / 1000 Ang^3
#
#
#
# Elastic Constant Matrix: (Units=GPa)
#
#
# Indices 1 2 3 4 5 6 
#
# 1 108.4615 26.3922 40.7248 0.0000 0.0000 0.0000
# 2 26.3922 31.9495 24.5069 0.0000 0.0000 0.0000
# 3 40.7248 24.5069 71.0510 0.0000 0.0000 0.0000
# 4 0.0000 0.0000 0.0000 12.2267 0.0000 0.0000
# 5 0.0000 0.0000 0.0000 0.0000 23.8425 0.0000
# 6 0.0000 0.0000 0.0000 0.0000 0.0000 5.6673
#
#
#
# Elastic Compliance Matrix: (Units=1/GPa)
#
#
# Indices 1 2 3 4 5 6 
#
# 1 0.012717 -0.006682 -0.004985 0.000000 0.000000 0.000000
# 2 -0.006682 0.046070 -0.012061 0.000000 0.000000 0.000000
# 3 -0.004985 -0.012061 0.021091 0.000000 0.000000 0.000000
# 4 0.000000 0.000000 0.000000 0.081788 0.000000 0.000000
# 5 0.000000 0.000000 0.000000 0.000000 0.041942 0.000000
# 6 0.000000 0.000000 0.000000 0.000000 0.000000 0.176451
#
#
# Mechanical properties :
#
#
# Convention : Reuss Voigt Hill
#
# Bulk Modulus (GPa) = 30.84067 43.85666 37.34866
# Shear Modulus (GPa) = 11.40712 16.33652 13.87182
#
# Velocity S-wave (km/s) = 2.91792 3.49193 3.21775
# Velocity P-wave (km/s) = 5.86275 6.99947 6.45618
#
# Compressibility (1/GPa) = 0.03242472
#
# Stress axis : x y z
#
# Youngs Moduli (GPa) = 78.63266 21.70604 47.41271
#
# Poissons Ratio (x) = 0.14504 0.23633
# Poissons Ratio (y) = 0.52541 0.57183
# Poissons Ratio (z) = 0.39195 0.26179
#
# Static dielectric constant tensor:
#      x y z
#    x 3.712040 0.000000 0.000000 
#    y 0.000000 2.180380 0.000000 
#    z 0.000000 0.000000 2.905850 
# 
# 
# High freq. dielectric constant tensor:
#      x y z
#    x 1.511290 0.000000 0.000000 
#    y 0.000000 1.435580 0.000000 
#    z 0.000000 0.000000 1.527270 
# 
# From -- ./inp_files/17169.got.cif
#   From: 2010.03.12/outbox.cif.g09.slc.cpg/sg65_9_cif.got.tgz:17169.got - 2010.04.10 20:52:16.
