data_PCOD8265257
_publ_section_title
;
Structure prediction by ZEFSAII (Michael W. Deem and Ramdas Pophale) SiO2 
 PCOD8265257
Probable space group: C M M M
;
_chemical_formula_sum "Si O2"
_cell_formula_units_Z 88
_cell_length_a 22.391557
_cell_length_b 15.478682
_cell_length_c 12.065143
_cell_angle_alpha 90.000000
_cell_angle_beta 90.000000
_cell_angle_gamma 90.000000
_cell_volume 4181.679512
_symmetry_space_group_name_H-M "C M M M"
_symmetry_group_IT_number 65
_symmetry_cell_setting 'orthorhombic'
loop_
_space_group_symop_operation_xyz
x,y,z
-x,-y,z
x,-y,-z
-x,y,-z
-x,-y,-z
x,y,-z
-x,y,z
x,-y,z
1/2+x,1/2+y,z
1/2-x,1/2-y,z
1/2+x,1/2-y,-z
1/2-x,1/2+y,-z
1/2-x,1/2-y,-z
1/2+x,1/2+y,-z
1/2-x,1/2+y,z
1/2+x,1/2-y,z
loop_
_atom_site_type_symbol
_atom_site_label
_atom_site_fract_x
_atom_site_fract_y
_atom_site_fract_z
Si Si1 0.382070 0.849429 0.239619
Si Si2 0.250071 0.853686 0.000000
Si Si3 0.877401 0.843279 0.762580
Si Si4 0.567797 0.000000 0.619984
Si Si5 0.930283 0.000000 0.628829
Si Si6 0.384457 0.598118 0.000000
Si Si7 0.244285 0.598214 0.230929
Si Si8 0.429794 0.897460 0.000000
O O1 0.397812 0.751414 0.274785
O O2 0.421952 0.914995 0.307643
O O3 0.314808 0.866084 0.289981
O O4 0.395581 0.859837 0.108181
O O5 0.250000 0.750000 0.000000
O O6 0.185983 0.898244 0.000000
O O7 0.282107 0.892495 0.106552
O O8 0.902238 0.914113 0.679622
O O9 0.905459 0.857482 0.885661
O O10 0.804648 0.845988 0.758566
O O11 0.500000 0.000000 0.588930
O O12 0.602305 0.000000 0.500000
O O13 0.914799 0.000000 0.500000
O O14 0.000000 0.000000 0.652780
O O15 0.407520 0.500000 0.000000
O O16 0.258461 0.500000 0.265488
O O17 0.500000 0.869815 0.000000
O O18 0.424497 0.000000 0.000000
#
# Coordination Sequence:
#
# PCOD8265257 Si02
#       8
#    16   8  16   8   8   8  16   8
#     4  12  23  39  66 100 131 168 212 258 319 388
#     4  10  17  25  44  84 128 165 202 236 276 361
#     4  11  22  41  65  98 134 168 206 262 319 380
#     4  11  26  48  68  87 118 164 218 271 318 370
#     4  11  26  48  70  91 118 164 225 275 319 376
#     4  10  17  34  59  87 126 169 199 234 303 374
#     4  11  19  35  59  91 131 170 205 249 314 385
#     4  11  22  39  62  93 137 178 213 261 319 373
#
# _framework density 21.044176
#
# number of rings (size 3 to 8) (size 9 to 14) (size 15 to 20)
#    0.000    1.000    3.636    6.273    0.000    2.182 
#    0.000    4.545    0.000    2.182    0.000    0.000 
#    0.000    0.000    0.000    0.000    0.000    0.000 
#
# Total GULP energy -545091.818832 kJ/mol
# GULP energy per Si atom -12388.450428 kJ/mol
# Density = 2.099628 g / cm^3
# Si number density = 21.044176 Si / 1000 Ang^3
#
#
#
# Elastic Constant Matrix: (Units=GPa)
#
#
# Indices 1 2 3 4 5 6 
#
# 1 81.8855 31.9715 37.9510 0.0000 0.0000 0.0000
# 2 31.9715 182.5596 47.7071 0.0000 0.0000 0.0000
# 3 37.9510 47.7071 99.2663 0.0000 0.0000 0.0000
# 4 0.0000 0.0000 0.0000 -4.0904 0.0000 0.0000
# 5 0.0000 0.0000 0.0000 0.0000 4.9930 0.0000
# 6 0.0000 0.0000 0.0000 0.0000 0.0000 1.4838
#
#
#
# Elastic Compliance Matrix: (Units=1/GPa)
#
#
# Indices 1 2 3 4 5 6 
#
# 1 0.015107 -0.001300 -0.005151 0.000000 0.000000 0.000000
# 2 -0.001300 0.006376 -0.002568 0.000000 0.000000 0.000000
# 3 -0.005151 -0.002568 0.013277 0.000000 0.000000 0.000000
# 4 0.000000 0.000000 0.000000 -0.244475 0.000000 0.000000
# 5 0.000000 0.000000 0.000000 0.000000 0.200281 0.000000
# 6 0.000000 0.000000 0.000000 0.000000 0.000000 0.673941
#
#
# Mechanical properties :
#
#
# Convention : Reuss Voigt Hill
#
# Bulk Modulus (GPa) = 59.79428 66.55230 63.17329
# Shear Modulus (GPa) = 7.26620 16.88273 12.07446
#
# Velocity S-wave (km/s) = 1.86020 2.83548 2.39794
# Velocity P-wave (km/s) = 5.75232 6.51257 6.14422
#
# Compressibility (1/GPa) = 0.01672401
#
# Stress axis : x y z
#
# Youngs Moduli (GPa) = 66.19495 156.83278 75.31724
#
# Poissons Ratio (x) = 0.20382 0.38796
# Poissons Ratio (y) = 0.08603 0.19338
# Poissons Ratio (z) = 0.34097 0.40268
#
# Static dielectric constant tensor:
#      x y z
#    x 3.549690 0.000000 0.000000 
#    y 0.000000 3.788640 0.000000 
#    z 0.000000 0.000000 2.883620 
# 
# 
# High freq. dielectric constant tensor:
#      x y z
#    x 1.820450 0.000000 0.000000 
#    y 0.000000 1.834990 0.000000 
#    z 0.000000 0.000000 1.796440 
# 
# From -- ./inp_files/30607.got.cif
#   From: 2010.03.12/outbox.cif.g09.slc.cpg/sg65_16_cif.got.tgz:30607.got - 2010.04.10 20:52:16.
