data_PCOD8265992
_publ_section_title
;
Structure prediction by ZEFSAII (Michael W. Deem and Ramdas Pophale) SiO2 
 PCOD8265992
Probable space group: C M M M
;
_chemical_formula_sum "Si O2"
_cell_formula_units_Z 104
_cell_length_a 28.476575
_cell_length_b 17.315804
_cell_length_c 11.595657
_cell_angle_alpha 90.000000
_cell_angle_beta 90.000000
_cell_angle_gamma 90.000000
_cell_volume 5717.758068
_symmetry_space_group_name_H-M "C M M M"
_symmetry_group_IT_number 65
_symmetry_cell_setting 'orthorhombic'
loop_
_space_group_symop_operation_xyz
x,y,z
-x,-y,z
x,-y,-z
-x,y,-z
-x,-y,-z
x,y,-z
-x,y,z
x,-y,z
1/2+x,1/2+y,z
1/2-x,1/2-y,z
1/2+x,1/2-y,-z
1/2-x,1/2+y,-z
1/2-x,1/2-y,-z
1/2+x,1/2+y,-z
1/2-x,1/2+y,z
1/2+x,1/2-y,z
loop_
_atom_site_type_symbol
_atom_site_label
_atom_site_fract_x
_atom_site_fract_y
_atom_site_fract_z
Si Si1 0.447177 0.583176 0.250332
Si Si2 0.243388 0.086832 0.500000
Si Si3 0.081016 0.089345 0.500000
Si Si4 0.714392 0.320678 0.871031
Si Si5 0.055060 0.235857 0.865183
Si Si6 0.712842 0.913347 0.257769
Si Si7 0.838925 0.206357 0.500000
Si Si8 0.356063 0.222031 0.743486
O O1 0.500000 0.568906 0.213874
O O2 0.420351 0.500000 0.235241
O O3 0.446573 0.612100 0.383525
O O4 0.427849 0.648728 0.165067
O O5 0.277990 0.093751 0.392778
O O6 0.211850 0.164918 0.500000
O O7 0.218997 0.000000 0.500000
O O8 0.129911 0.131163 0.500000
O O9 0.092245 0.000000 0.500000
O O10 0.750000 0.250000 0.868063
O O11 0.738537 0.392330 0.806532
O O12 0.666426 0.295473 0.809075
O O13 0.701999 0.346401 0.000000
O O14 0.089838 0.288835 0.787197
O O15 0.000000 0.249884 0.831784
O O16 0.063085 0.252364 0.000000
O O17 0.670169 0.857186 0.222950
O O18 0.698338 0.000000 0.222083
O O19 0.850217 0.261014 0.391706
#
# Coordination Sequence:
#
# PCOD8265992 Si02
#       8
#    16   8   8  16  16  16   8  16
#     4   9  17  30  49  72  99 133 172 215 264 314
#     4  10  20  35  53  80 118 148 175 214 264 323
#     4  10  18  29  45  71 107 138 168 213 263 304
#     4   9  18  33  53  76 104 137 173 213 258 313
#     4  10  21  37  55  76 106 145 188 232 275 319
#     4  10  21  36  56  81 111 143 176 219 273 328
#     4  12  20  31  54  82 107 145 182 216 261 322
#     4  11  21  35  56  81 107 141 183 225 269 323
#
# _framework density 18.188948
#
# number of rings (size 3 to 8) (size 9 to 14) (size 15 to 20)
#    0.000    2.000    3.077    1.385    0.000    2.769 
#    0.000    2.692    0.000    2.308    0.000    1.077 
#    0.000    3.077    0.000    0.000    0.000    0.000 
#
# Total GULP energy -644334.449334 kJ/mol
# GULP energy per Si atom -12391.047103 kJ/mol
# Density = 1.814755 g / cm^3
# Si number density = 18.188948 Si / 1000 Ang^3
#
#
#
# Elastic Constant Matrix: (Units=GPa)
#
#
# Indices 1 2 3 4 5 6 
#
# 1 88.9896 43.5255 29.5017 0.0000 0.0000 0.0000
# 2 43.5255 80.9386 29.1020 0.0000 0.0000 0.0000
# 3 29.5017 29.1020 98.4277 0.0000 0.0000 0.0000
# 4 0.0000 0.0000 0.0000 11.4139 0.0000 0.0000
# 5 0.0000 0.0000 0.0000 0.0000 32.3383 0.0000
# 6 0.0000 0.0000 0.0000 0.0000 0.0000 22.3450
#
#
#
# Elastic Compliance Matrix: (Units=1/GPa)
#
#
# Indices 1 2 3 4 5 6 
#
# 1 0.015772 -0.007589 -0.002484 0.000000 0.000000 0.000000
# 2 -0.007589 0.017476 -0.002893 0.000000 0.000000 0.000000
# 3 -0.002484 -0.002893 0.011759 0.000000 0.000000 0.000000
# 4 0.000000 0.000000 0.000000 0.087613 0.000000 0.000000
# 5 0.000000 0.000000 0.000000 0.000000 0.030923 0.000000
# 6 0.000000 0.000000 0.000000 0.000000 0.000000 0.044753
#
#
# Mechanical properties :
#
#
# Convention : Reuss Voigt Hill
#
# Bulk Modulus (GPa) = 52.41680 52.51270 52.46475
# Shear Modulus (GPa) = 20.78262 24.30119 22.54190
#
# Velocity S-wave (km/s) = 3.38390 3.65916 3.52422
# Velocity P-wave (km/s) = 6.64441 6.84002 6.74293
#
# Compressibility (1/GPa) = 0.01907785
#
# Stress axis : x y z
#
# Youngs Moduli (GPa) = 63.40209 57.22138 85.03822
#
# Poissons Ratio (x) = 0.43424 0.21121
# Poissons Ratio (y) = 0.48114 0.24598
# Poissons Ratio (z) = 0.15747 0.16552
#
# Static dielectric constant tensor:
#      x y z
#    x 3.227350 0.000000 0.000000 
#    y 0.000000 2.448890 0.000000 
#    z 0.000000 0.000000 3.465860 
# 
# 
# High freq. dielectric constant tensor:
#      x y z
#    x 1.687270 0.000000 0.000000 
#    y 0.000000 1.679400 0.000000 
#    z 0.000000 0.000000 1.712930 
# 
# From -- ./inp_files/32603.got.cif
#   From: 2010.03.12/outbox.cif.g09.slc.cpg/sg65_17_cif.got.tgz:32603.got - 2010.04.10 20:52:16.
