data_PCOD8265307
_publ_section_title
;
Structure prediction by ZEFSAII (Michael W. Deem and Ramdas Pophale) SiO2 
 PCOD8265307
Probable space group: C M M M
;
_chemical_formula_sum "Si O2"
_cell_formula_units_Z 120
_cell_length_a 23.340281
_cell_length_b 24.001982
_cell_length_c 13.760872
_cell_angle_alpha 90.000000
_cell_angle_beta 90.000000
_cell_angle_gamma 90.000000
_cell_volume 7709.019447
_symmetry_space_group_name_H-M "C M M M"
_symmetry_group_IT_number 65
_symmetry_cell_setting 'orthorhombic'
loop_
_space_group_symop_operation_xyz
x,y,z
-x,-y,z
x,-y,-z
-x,y,-z
-x,-y,-z
x,y,-z
-x,y,z
x,-y,z
1/2+x,1/2+y,z
1/2-x,1/2-y,z
1/2+x,1/2-y,-z
1/2-x,1/2+y,-z
1/2-x,1/2-y,-z
1/2+x,1/2+y,-z
1/2-x,1/2+y,z
1/2+x,1/2-y,z
loop_
_atom_site_type_symbol
_atom_site_label
_atom_site_fract_x
_atom_site_fract_y
_atom_site_fract_z
Si Si1 0.169666 0.435404 0.886540
Si Si2 0.766745 0.127955 0.772714
Si Si3 0.250000 0.250000 0.809066
Si Si4 0.619420 0.364480 0.115108
Si Si5 0.063642 0.365068 0.114631
Si Si6 0.563763 0.564061 0.732967
Si Si7 0.372508 0.758757 0.888114
Si Si8 0.671753 0.434480 0.610805
O O1 0.177786 0.500000 0.860164
O O2 0.210248 0.397655 0.820384
O O3 0.104272 0.417791 0.861942
O O4 0.183193 0.424057 0.000000
O O5 0.760432 0.193828 0.746398
O O6 0.817299 0.117712 0.850301
O O7 0.779467 0.096977 0.671685
O O8 0.304360 0.235926 0.875731
O O9 0.572484 0.402680 0.166904
O O10 0.606165 0.301264 0.149702
O O11 0.615343 0.372401 0.000000
O O12 0.092298 0.309219 0.162086
O O13 0.000000 0.374449 0.159468
O O14 0.058265 0.357725 0.000000
O O15 0.500000 0.575466 0.692404
O O16 0.572654 0.500000 0.760195
O O17 0.608886 0.582430 0.650526
O O18 0.386269 0.762815 0.000000
O O19 0.675776 0.414487 0.500000
O O20 0.682465 0.500000 0.620421
#
# Coordination Sequence:
#
# PCOD8265307 Si02
#       8
#    16  16   8  16  16  16  16  16
#     4  10  19  29  43  64  91 124 156 187 223 263
#     4  10  18  30  46  68  92 116 149 185 227 275
#     4  10  17  26  45  66  90 116 144 186 228 266
#     4   9  18  28  41  63  91 124 156 186 222 262
#     4   9  17  28  40  57  85 120 156 190 221 255
#     4   9  18  31  45  63  88 118 154 192 226 267
#     4   9  16  26  41  61  85 120 160 191 217 252
#     4   9  18  33  51  68  88 114 144 185 235 280
#
# _framework density 15.566182
#
# number of rings (size 3 to 8) (size 9 to 14) (size 15 to 20)
#    0.000    2.667    1.333    1.000    0.000    3.200 
#    0.000    5.000    0.000    0.000    0.000    0.000 
#    0.000    0.533    0.000    2.800    0.000    0.133 
#
# Total GULP energy -743641.224691 kJ/mol
# GULP energy per Si atom -12394.020412 kJ/mol
# Density = 1.553075 g / cm^3
# Si number density = 15.566182 Si / 1000 Ang^3
#
#
#
# Elastic Constant Matrix: (Units=GPa)
#
#
# Indices 1 2 3 4 5 6 
#
# 1 92.6907 41.5394 26.4883 0.0000 0.0000 0.0000
# 2 41.5394 81.1713 37.3860 0.0000 0.0000 0.0000
# 3 26.4883 37.3860 66.6657 0.0000 0.0000 0.0000
# 4 0.0000 0.0000 0.0000 14.5070 0.0000 0.0000
# 5 0.0000 0.0000 0.0000 0.0000 10.5008 0.0000
# 6 0.0000 0.0000 0.0000 0.0000 0.0000 25.1536
#
#
#
# Elastic Compliance Matrix: (Units=1/GPa)
#
#
# Indices 1 2 3 4 5 6 
#
# 1 0.014217 -0.006301 -0.002115 0.000000 0.000000 0.000000
# 2 -0.006301 0.019403 -0.008377 0.000000 0.000000 0.000000
# 3 -0.002115 -0.008377 0.020539 0.000000 0.000000 0.000000
# 4 0.000000 0.000000 0.000000 0.068932 0.000000 0.000000
# 5 0.000000 0.000000 0.000000 0.000000 0.095231 0.000000
# 6 0.000000 0.000000 0.000000 0.000000 0.000000 0.039756
#
#
# Mechanical properties :
#
#
# Convention : Reuss Voigt Hill
#
# Bulk Modulus (GPa) = 48.61246 50.15057 49.38152
# Shear Modulus (GPa) = 16.74919 19.03987 17.89453
#
# Velocity S-wave (km/s) = 3.28380 3.50116 3.39422
# Velocity P-wave (km/s) = 6.75834 6.97365 6.86684
#
# Compressibility (1/GPa) = 0.02057086
#
# Stress axis : x y z
#
# Youngs Moduli (GPa) = 70.33853 51.53896 48.68894
#
# Poissons Ratio (x) = 0.32477 0.10298
# Poissons Ratio (y) = 0.44323 0.40788
# Poissons Ratio (z) = 0.14877 0.43176
#
# Static dielectric constant tensor:
#      x y z
#    x 3.138260 0.000000 0.000000 
#    y 0.000000 3.235400 0.000000 
#    z 0.000000 0.000000 2.599510 
# 
# 
# High freq. dielectric constant tensor:
#      x y z
#    x 1.599600 0.000000 0.000000 
#    y 0.000000 1.608600 0.000000 
#    z 0.000000 0.000000 1.540910 
# 
# From -- ./inp_files/31314.got.cif
#   From: 2010.03.12/outbox.cif.g09.slc.cpg/sg65_16_cif.got.tgz:31314.got - 2010.04.10 20:52:16.
