data_PCOD8265562
_publ_section_title
;
Structure prediction by ZEFSAII (Michael W. Deem and Ramdas Pophale) SiO2 
 PCOD8265562
Probable space group: C M M M
;
_chemical_formula_sum "Si O2"
_cell_formula_units_Z 88
_cell_length_a 27.373376
_cell_length_b 25.594680
_cell_length_c 9.068620
_cell_angle_alpha 90.000000
_cell_angle_beta 90.000000
_cell_angle_gamma 90.000000
_cell_volume 6353.591243
_symmetry_space_group_name_H-M "C M M M"
_symmetry_group_IT_number 65
_symmetry_cell_setting 'orthorhombic'
loop_
_space_group_symop_operation_xyz
x,y,z
-x,-y,z
x,-y,-z
-x,y,-z
-x,-y,-z
x,y,-z
-x,y,z
x,-y,z
1/2+x,1/2+y,z
1/2-x,1/2-y,z
1/2+x,1/2-y,-z
1/2-x,1/2+y,-z
1/2-x,1/2-y,-z
1/2+x,1/2+y,-z
1/2-x,1/2+y,z
1/2+x,1/2-y,z
loop_
_atom_site_type_symbol
_atom_site_label
_atom_site_fract_x
_atom_site_fract_y
_atom_site_fract_z
Si Si1 0.680102 0.839437 0.336402
Si Si2 0.554734 0.762222 0.831030
Si Si3 0.000000 0.438306 0.169938
Si Si4 0.731471 0.309125 0.165324
Si Si5 0.141630 0.221845 0.334146
Si Si6 0.423889 0.869341 0.675058
O O1 0.698314 0.853827 0.500000
O O2 0.726019 0.846885 0.228205
O O3 0.661102 0.780483 0.333741
O O4 0.634103 0.875599 0.290087
O O5 0.500000 0.739057 0.823529
O O6 0.591207 0.720032 0.757685
O O7 0.555152 0.816463 0.743711
O O8 0.570950 0.772073 0.000000
O O9 0.048469 0.417732 0.251304
O O10 0.000000 0.500000 0.182653
O O11 0.000000 0.419655 0.000000
O O12 0.750000 0.250000 0.170986
O O13 0.682073 0.315571 0.259774
O O14 0.720032 0.327063 0.000000
O O15 0.132016 0.202052 0.500000
O O16 0.433197 0.867840 0.500000
#
# Coordination Sequence:
#
# PCOD8265562 Si02
#       6
#    16  16   8  16  16  16
#     4   8  15  25  36  51  67  84 104 130 163 200
#     4  10  18  26  37  52  70  90 113 144 177 208
#     4  11  23  35  45  57  73  91 111 141 181 221
#     4   9  15  22  33  49  67  87 108 131 161 199
#     4   9  16  24  34  47  66  90 113 138 165 198
#     4  10  19  30  44  57  69  85 109 138 170 213
#
# _framework density 13.850434
#
# number of rings (size 3 to 8) (size 9 to 14) (size 15 to 20)
#    0.000    2.636    0.909    3.545    0.000    9.091 
#    0.000    0.000    0.000    0.000    0.000    0.000 
#    0.000    0.000    0.000    0.000    0.000    0.000 
#
# Total GULP energy -545404.453346 kJ/mol
# GULP energy per Si atom -12395.555758 kJ/mol
# Density = 1.381891 g / cm^3
# Si number density = 13.850434 Si / 1000 Ang^3
#
#
#
# Elastic Constant Matrix: (Units=GPa)
#
#
# Indices 1 2 3 4 5 6 
#
# 1 109.0666 27.4901 68.1308 0.0000 0.0000 0.0000
# 2 27.4901 17.4590 21.2535 0.0000 0.0000 0.0000
# 3 68.1308 21.2535 125.9501 0.0000 0.0000 0.0000
# 4 0.0000 0.0000 0.0000 10.1736 0.0000 0.0000
# 5 0.0000 0.0000 0.0000 0.0000 29.1876 0.0000
# 6 0.0000 0.0000 0.0000 0.0000 0.0000 10.8856
#
#
#
# Elastic Compliance Matrix: (Units=1/GPa)
#
#
# Indices 1 2 3 4 5 6 
#
# 1 0.018596 -0.021439 -0.006442 0.000000 0.000000 0.000000
# 2 -0.021439 0.096801 -0.004738 0.000000 0.000000 0.000000
# 3 -0.006442 -0.004738 0.012224 0.000000 0.000000 0.000000
# 4 0.000000 0.000000 0.000000 0.098293 0.000000 0.000000
# 5 0.000000 0.000000 0.000000 0.000000 0.034261 0.000000
# 6 0.000000 0.000000 0.000000 0.000000 0.000000 0.091864
#
#
# Mechanical properties :
#
#
# Convention : Reuss Voigt Hill
#
# Bulk Modulus (GPa) = 16.02964 54.02493 35.02728
# Shear Modulus (GPa) = 11.41366 19.08946 15.25156
#
# Velocity S-wave (km/s) = 2.87377 3.71652 3.32197
# Velocity P-wave (km/s) = 4.75499 7.58336 6.32919
#
# Compressibility (1/GPa) = 0.06238443
#
# Stress axis : x y z
#
# Youngs Moduli (GPa) = 53.77406 10.33044 81.80899
#
# Poissons Ratio (x) = 0.22148 0.52698
# Poissons Ratio (y) = 1.15287 0.38758
# Poissons Ratio (z) = 0.34639 0.04894
#
# Static dielectric constant tensor:
#      x y z
#    x 3.030950 0.000000 0.000000 
#    y 0.000000 2.090870 0.000000 
#    z 0.000000 0.000000 2.989080 
# 
# 
# High freq. dielectric constant tensor:
#      x y z
#    x 1.540060 0.000000 0.000000 
#    y 0.000000 1.430350 0.000000 
#    z 0.000000 0.000000 1.551160 
# 
# From -- ./inp_files/16918.got.cif
#   From: 2010.03.12/outbox.cif.g09.slc.cpg/sg65_9_cif.got.tgz:16918.got - 2010.04.10 20:52:16.
