data_PCOD8265769
_publ_section_title
;
Structure prediction by ZEFSAII (Michael W. Deem and Ramdas Pophale) SiO2 
 PCOD8265769
Probable space group: C M M M
;
_chemical_formula_sum "Si O2"
_cell_formula_units_Z 128
_cell_length_a 18.327127
_cell_length_b 23.079868
_cell_length_c 17.930203
_cell_angle_alpha 90.000000
_cell_angle_beta 90.000000
_cell_angle_gamma 90.000000
_cell_volume 7584.254825
_symmetry_space_group_name_H-M "C M M M"
_symmetry_group_IT_number 65
_symmetry_cell_setting 'orthorhombic'
loop_
_space_group_symop_operation_xyz
x,y,z
-x,-y,z
x,-y,-z
-x,y,-z
-x,-y,-z
x,y,-z
-x,y,z
x,-y,z
1/2+x,1/2+y,z
1/2-x,1/2-y,z
1/2+x,1/2-y,-z
1/2-x,1/2+y,-z
1/2-x,1/2-y,-z
1/2+x,1/2+y,-z
1/2-x,1/2+y,z
1/2+x,1/2-y,z
loop_
_atom_site_type_symbol
_atom_site_label
_atom_site_fract_x
_atom_site_fract_y
_atom_site_fract_z
Si Si1 0.582666 0.123400 0.582134
Si Si2 0.083627 0.787057 0.160222
Si Si3 0.723659 0.315146 0.918498
Si Si4 0.083383 0.830095 0.677948
Si Si5 0.415037 0.935915 0.732074
Si Si6 0.836851 0.327963 0.796171
Si Si7 0.323421 0.776388 0.638551
Si Si8 0.413355 0.435898 0.415910
O O1 0.589972 0.095043 0.500000
O O2 0.500000 0.147185 0.594798
O O3 0.600372 0.075711 0.644589
O O4 0.640616 0.175335 0.586602
O O5 0.137381 0.816446 0.100197
O O6 0.092040 0.827200 0.233172
O O7 0.106380 0.720160 0.173844
O O8 0.000000 0.787678 0.131397
O O9 0.750000 0.250000 0.922669
O O10 0.772348 0.344303 0.853954
O O11 0.734718 0.344948 0.000000
O O12 0.118916 0.774561 0.641502
O O13 0.118265 0.889164 0.643560
O O14 0.000000 0.827408 0.653466
O O15 0.500000 0.933167 0.749795
O O16 0.377849 0.888233 0.783989
O O17 0.384228 0.000000 0.750564
O O18 0.802770 0.303415 0.719535
O O19 0.250000 0.750000 0.602803
O O20 0.389002 0.418767 0.500000
O O21 0.500000 0.438047 0.411243
O O22 0.382472 0.500000 0.395731
#
# Coordination Sequence:
#
# PCOD8265769 Si02
#       8
#    16  16  16  16  16  16  16  16
#     4   9  18  31  45  64  92 121 149 186 230 272
#     4   9  16  26  43  68  96 123 149 183 226 266
#     4   9  17  29  46  68  92 119 149 177 213 269
#     4   9  16  26  42  64  88 115 148 182 218 265
#     4   9  17  29  48  72  92 116 154 193 227 266
#     4   9  16  29  46  66  94 124 150 182 224 271
#     4  10  18  28  44  64  87 117 151 186 224 264
#     4   8  14  25  41  61  84 109 139 177 216 251
#
# _framework density 16.87707
#
# number of rings (size 3 to 8) (size 9 to 14) (size 15 to 20)
#    0.000    3.000    0.000    3.000    0.000    4.250 
#    0.000    2.500    0.000    8.250    0.000    0.875 
#    0.000    0.000    0.000    6.000    0.000    2.375 
#
# Total GULP energy -793064.756573 kJ/mol
# GULP energy per Si atom -12391.636821 kJ/mol
# Density = 1.683866 g / cm^3
# Si number density = 16.877070 Si / 1000 Ang^3
#
#
#
# Elastic Constant Matrix: (Units=GPa)
#
#
# Indices 1 2 3 4 5 6 
#
# 1 74.7219 27.7296 35.7870 0.0000 0.0000 0.0000
# 2 27.7296 96.8456 40.2096 0.0000 0.0000 0.0000
# 3 35.7870 40.2096 84.9216 0.0000 0.0000 0.0000
# 4 0.0000 0.0000 0.0000 7.8433 0.0000 0.0000
# 5 0.0000 0.0000 0.0000 0.0000 19.8638 0.0000
# 6 0.0000 0.0000 0.0000 0.0000 0.0000 12.0248
#
#
#
# Elastic Compliance Matrix: (Units=1/GPa)
#
#
# Indices 1 2 3 4 5 6 
#
# 1 0.017198 -0.002384 -0.006119 0.000000 0.000000 0.000000
# 2 -0.002384 0.013183 -0.005237 0.000000 0.000000 0.000000
# 3 -0.006119 -0.005237 0.016834 0.000000 0.000000 0.000000
# 4 0.000000 0.000000 0.000000 0.127498 0.000000 0.000000
# 5 0.000000 0.000000 0.000000 0.000000 0.050343 0.000000
# 6 0.000000 0.000000 0.000000 0.000000 0.000000 0.083162
#
#
# Mechanical properties :
#
#
# Convention : Reuss Voigt Hill
#
# Bulk Modulus (GPa) = 50.67162 51.54906 51.11034
# Shear Modulus (GPa) = 14.60812 18.13057 16.36935
#
# Velocity S-wave (km/s) = 2.94523 3.28117 3.11773
# Velocity P-wave (km/s) = 6.45407 6.70559 6.58103
#
# Compressibility (1/GPa) = 0.01973491
#
# Stress axis : x y z
#
# Youngs Moduli (GPa) = 58.14598 75.85653 59.40391
#
# Poissons Ratio (x) = 0.18083 0.36348
# Poissons Ratio (y) = 0.13861 0.31112
# Poissons Ratio (z) = 0.35578 0.39729
#
# Static dielectric constant tensor:
#      x y z
#    x 3.092470 0.000000 0.000000 
#    y 0.000000 3.134670 0.000000 
#    z 0.000000 0.000000 3.276900 
# 
# 
# High freq. dielectric constant tensor:
#      x y z
#    x 1.641390 0.000000 0.000000 
#    y 0.000000 1.624560 0.000000 
#    z 0.000000 0.000000 1.634520 
# 
# From -- ./inp_files/55117.got.cif
#   From: 2010.03.12/outbox.cif.g09.slc.cpg/sg65_28_cif.got.tgz:55117.got - 2010.04.10 20:52:16.
