data_PCOD8265366
_publ_section_title
;
Structure prediction by ZEFSAII (Michael W. Deem and Ramdas Pophale) SiO2 
 PCOD8265366
Probable space group: C M M M
;
_chemical_formula_sum "Si O2"
_cell_formula_units_Z 104
_cell_length_a 30.669410
_cell_length_b 11.939003
_cell_length_c 18.759788
_cell_angle_alpha 90.000000
_cell_angle_beta 90.000000
_cell_angle_gamma 90.000000
_cell_volume 6869.124833
_symmetry_space_group_name_H-M "C M M M"
_symmetry_group_IT_number 65
_symmetry_cell_setting 'orthorhombic'
loop_
_space_group_symop_operation_xyz
x,y,z
-x,-y,z
x,-y,-z
-x,y,-z
-x,-y,-z
x,y,-z
-x,y,z
x,-y,z
1/2+x,1/2+y,z
1/2-x,1/2-y,z
1/2+x,1/2-y,-z
1/2-x,1/2+y,-z
1/2-x,1/2-y,-z
1/2+x,1/2+y,-z
1/2-x,1/2+y,z
1/2+x,1/2-y,z
loop_
_atom_site_type_symbol
_atom_site_label
_atom_site_fract_x
_atom_site_fract_y
_atom_site_fract_z
Si Si1 0.450700 0.753261 0.657991
Si Si2 0.051733 0.124670 0.797942
Si Si3 0.122976 0.874849 0.416024
Si Si4 0.575122 0.000000 0.679320
Si Si5 0.051738 0.278900 0.920765
Si Si6 0.797554 0.732889 0.417189
Si Si7 0.841475 0.500000 0.581588
Si Si8 0.448260 0.000000 0.162132
O O1 0.500000 0.713337 0.642379
O O2 0.433809 0.706351 0.733976
O O3 0.419535 0.700057 0.598862
O O4 0.450177 0.887982 0.655581
O O5 0.069095 0.176295 0.872333
O O6 0.000000 0.119037 0.800008
O O7 0.071440 0.000000 0.788056
O O8 0.127654 0.881237 0.500000
O O9 0.166071 0.815553 0.382905
O O10 0.118248 0.000000 0.383641
O O11 0.621354 0.000000 0.640685
O O12 0.579264 0.000000 0.764879
O O13 0.066082 0.394127 0.884263
O O14 0.000000 0.275856 0.926079
O O15 0.072184 0.269232 0.000000
O O16 0.794074 0.762868 0.500000
O O17 0.750000 0.750000 0.381066
O O18 0.811146 0.605773 0.404813
O O19 0.860277 0.500000 0.500000
O O20 0.500000 0.000000 0.180712
#
# Coordination Sequence:
#
# PCOD8265366 Si02
#       8
#    16  16  16   8  16  16   8   8
#     4  11  21  33  47  63  86 120 160 199 233 268
#     4   9  17  28  41  57  79 111 151 190 228 272
#     4  10  21  35  49  67  89 114 151 195 232 274
#     4  12  20  31  50  67  89 120 156 194 232 266
#     4   9  16  25  39  59  81 105 142 194 237 265
#     4   9  18  32  51  71  90 113 140 178 230 284
#     4  10  20  34  51  72  96 116 145 194 237 272
#     4  10  17  28  42  59  82 117 159 190 220 265
#
# _framework density 15.140211000000001
#
# number of rings (size 3 to 8) (size 9 to 14) (size 15 to 20)
#    0.000    2.154    3.077    1.385    1.077    2.462 
#    0.000    2.308    0.000    2.538    0.000    0.000 
#    0.000    0.000    0.000    0.000    0.000   19.231 
#
# Total GULP energy -644563.301355 kJ/mol
# GULP energy per Si atom -12395.448103 kJ/mol
# Density = 1.510575 g / cm^3
# Si number density = 15.140211 Si / 1000 Ang^3
#
#
#
# Elastic Constant Matrix: (Units=GPa)
#
#
# Indices 1 2 3 4 5 6 
#
# 1 74.4246 33.0737 26.5887 0.0000 0.0000 0.0000
# 2 33.0737 125.0846 25.9675 0.0000 0.0000 0.0000
# 3 26.5887 25.9675 49.4585 0.0000 0.0000 0.0000
# 4 0.0000 0.0000 0.0000 20.1012 0.0000 0.0000
# 5 0.0000 0.0000 0.0000 0.0000 3.6148 0.0000
# 6 0.0000 0.0000 0.0000 0.0000 0.0000 16.9164
#
#
#
# Elastic Compliance Matrix: (Units=1/GPa)
#
#
# Indices 1 2 3 4 5 6 
#
# 1 0.017589 -0.003017 -0.007872 0.000000 0.000000 0.000000
# 2 -0.003017 0.009490 -0.003361 0.000000 0.000000 0.000000
# 3 -0.007872 -0.003361 0.026216 0.000000 0.000000 0.000000
# 4 0.000000 0.000000 0.000000 0.049748 0.000000 0.000000
# 5 0.000000 0.000000 0.000000 0.000000 0.276638 0.000000
# 6 0.000000 0.000000 0.000000 0.000000 0.000000 0.059114
#
#
# Mechanical properties :
#
#
# Convention : Reuss Voigt Hill
#
# Bulk Modulus (GPa) = 40.32960 46.69196 43.51078
# Shear Modulus (GPa) = 10.51393 19.01567 14.76480
#
# Velocity S-wave (km/s) = 2.63808 3.54781 3.12621
# Velocity P-wave (km/s) = 5.99788 6.90574 6.46776
#
# Compressibility (1/GPa) = 0.02479568
#
# Stress axis : x y z
#
# Youngs Moduli (GPa) = 56.85257 105.37514 38.14522
#
# Poissons Ratio (x) = 0.31787 0.30029
# Poissons Ratio (y) = 0.17150 0.12820
# Poissons Ratio (z) = 0.44755 0.35415
#
# Static dielectric constant tensor:
#      x y z
#    x 2.680780 0.000000 0.000000 
#    y 0.000000 3.242400 0.000000 
#    z 0.000000 0.000000 2.874710 
# 
# 
# High freq. dielectric constant tensor:
#      x y z
#    x 1.530330 0.000000 0.000000 
#    y 0.000000 1.604200 0.000000 
#    z 0.000000 0.000000 1.556340 
# 
# From -- ./inp_files/58250.got.cif
#   From: 2010.03.12/outbox.cif.g09.slc.cpg/sg65_30_cif.got.tgz:58250.got - 2010.04.10 20:52:16.
