data_PCOD8265580
_publ_section_title
;
Structure prediction by ZEFSAII (Michael W. Deem and Ramdas Pophale) SiO2 
 PCOD8265580
Probable space group: C M M M
;
_chemical_formula_sum "Si O2"
_cell_formula_units_Z 80
_cell_length_a 7.752611
_cell_length_b 26.523522
_cell_length_c 23.577745
_cell_angle_alpha 90.000000
_cell_angle_beta 90.000000
_cell_angle_gamma 90.000000
_cell_volume 4848.210324
_symmetry_space_group_name_H-M "C M M M"
_symmetry_group_IT_number 65
_symmetry_cell_setting 'orthorhombic'
loop_
_space_group_symop_operation_xyz
x,y,z
-x,-y,z
x,-y,-z
-x,y,-z
-x,-y,-z
x,y,-z
-x,y,z
x,-y,z
1/2+x,1/2+y,z
1/2-x,1/2-y,z
1/2+x,1/2-y,-z
1/2-x,1/2+y,-z
1/2-x,1/2-y,-z
1/2+x,1/2+y,-z
1/2-x,1/2+y,z
1/2+x,1/2-y,z
loop_
_atom_site_type_symbol
_atom_site_label
_atom_site_fract_x
_atom_site_fract_y
_atom_site_fract_z
Si Si1 0.297809 0.941800 0.939270
Si Si2 0.000000 0.153375 0.433119
Si Si3 0.803820 0.942611 0.819680
Si Si4 0.698820 0.804969 0.639664
Si Si5 0.308069 0.902041 0.293044
Si Si6 0.500000 0.556245 0.638327
O O1 0.500000 0.934766 0.933472
O O2 0.212467 0.918014 0.882800
O O3 0.244770 0.000000 0.940961
O O4 0.235594 0.917626 0.000000
O O5 0.826218 0.180911 0.411900
O O6 0.000000 0.095318 0.413364
O O7 0.000000 0.155276 0.500000
O O8 0.700257 0.908648 0.774843
O O9 0.000000 0.942428 0.800186
O O10 0.730047 0.000000 0.819481
O O11 0.500000 0.806297 0.618354
O O12 0.750000 0.750000 0.662909
O O13 0.729638 0.843728 0.691438
O O14 0.500000 0.917028 0.313984
O O15 0.170555 0.937918 0.323391
O O16 0.500000 0.500000 0.612837
#
# Coordination Sequence:
#
# PCOD8265580 Si02
#       6
#    16   8  16  16  16   8
#     4   8  14  24  36  51  77 116 158 197 237 279
#     4  10  22  37  54  78 104 129 160 196 232 281
#     4  10  18  26  39  62  90 121 160 200 235 276
#     4  10  20  36  55  76 100 127 155 192 246 292
#     4  10  20  32  49  71  97 126 160 201 241 287
#     4  10  20  35  52  72  99 130 166 198 232 278
#
# _framework density 16.500933
#
# number of rings (size 3 to 8) (size 9 to 14) (size 15 to 20)
#    0.000    2.400    2.000    1.800    0.000    3.800 
#    0.000    2.000    0.000    0.000    0.000    5.600 
#    0.000    0.800    0.000    2.600    0.000    3.200 
#
# Total GULP energy -495698.624920 kJ/mol
# GULP energy per Si atom -12392.465623 kJ/mol
# Density = 1.646338 g / cm^3
# Si number density = 16.500933 Si / 1000 Ang^3
#
#
#
# Elastic Constant Matrix: (Units=GPa)
#
#
# Indices 1 2 3 4 5 6 
#
# 1 96.1749 32.6198 38.8328 0.0000 0.0000 0.0000
# 2 32.6198 84.7960 44.0765 0.0000 0.0000 0.0000
# 3 38.8328 44.0765 125.3925 0.0000 0.0000 0.0000
# 4 0.0000 0.0000 0.0000 12.9829 0.0000 0.0000
# 5 0.0000 0.0000 0.0000 0.0000 21.9259 0.0000
# 6 0.0000 0.0000 0.0000 0.0000 0.0000 16.9989
#
#
#
# Elastic Compliance Matrix: (Units=1/GPa)
#
#
# Indices 1 2 3 4 5 6 
#
# 1 0.012665 -0.003467 -0.002704 0.000000 0.000000 0.000000
# 2 -0.003467 0.015378 -0.004332 0.000000 0.000000 0.000000
# 3 -0.002704 -0.004332 0.010335 0.000000 0.000000 0.000000
# 4 0.000000 0.000000 0.000000 0.077024 0.000000 0.000000
# 5 0.000000 0.000000 0.000000 0.000000 0.045608 0.000000
# 6 0.000000 0.000000 0.000000 0.000000 0.000000 0.058827
#
#
# Mechanical properties :
#
#
# Convention : Reuss Voigt Hill
#
# Bulk Modulus (GPa) = 57.55834 59.71350 58.63592
# Shear Modulus (GPa) = 20.27293 23.10384 21.68838
#
# Velocity S-wave (km/s) = 3.50893 3.74592 3.62936
# Velocity P-wave (km/s) = 7.16759 7.41456 7.29212
#
# Compressibility (1/GPa) = 0.01737368
#
# Stress axis : x y z
#
# Youngs Moduli (GPa) = 78.95627 65.02642 96.75861
#
# Poissons Ratio (x) = 0.22543 0.26161
# Poissons Ratio (y) = 0.27372 0.41916
# Poissons Ratio (z) = 0.21347 0.28169
#
# Static dielectric constant tensor:
#      x y z
#    x 3.313380 0.000000 0.000000 
#    y 0.000000 2.859690 0.000000 
#    z 0.000000 0.000000 3.158720 
# 
# 
# High freq. dielectric constant tensor:
#      x y z
#    x 1.652740 0.000000 0.000000 
#    y 0.000000 1.586230 0.000000 
#    z 0.000000 0.000000 1.630830 
# 
# From -- ./inp_files/67796.got.cif
#   From: 2010.03.12/outbox.cif.g09.slc.cpg/sg65_34_cif.got.tgz:67796.got - 2010.04.10 20:52:16.
