data_PCOD8265982
_publ_section_title
;
Structure prediction by ZEFSAII (Michael W. Deem and Ramdas Pophale) SiO2 
 PCOD8265982
Probable space group: C M M M
;
_chemical_formula_sum "Si O2"
_cell_formula_units_Z 88
_cell_length_a 8.959314
_cell_length_b 27.193775
_cell_length_c 21.639966
_cell_angle_alpha 90.000000
_cell_angle_beta 90.000000
_cell_angle_gamma 90.000000
_cell_volume 5272.308711
_symmetry_space_group_name_H-M "C M M M"
_symmetry_group_IT_number 65
_symmetry_cell_setting 'orthorhombic'
loop_
_space_group_symop_operation_xyz
x,y,z
-x,-y,z
x,-y,-z
-x,y,-z
-x,-y,-z
x,y,-z
-x,y,z
x,-y,z
1/2+x,1/2+y,z
1/2-x,1/2-y,z
1/2+x,1/2-y,-z
1/2-x,1/2+y,-z
1/2-x,1/2-y,-z
1/2+x,1/2+y,-z
1/2-x,1/2+y,z
1/2+x,1/2-y,z
loop_
_atom_site_type_symbol
_atom_site_label
_atom_site_fract_x
_atom_site_fract_y
_atom_site_fract_z
Si Si1 0.322987 0.850882 0.246998
Si Si2 0.670447 0.300760 0.000000
Si Si3 0.176230 0.196319 0.865832
Si Si4 0.174594 0.103727 0.430824
Si Si5 0.175593 0.799298 0.641670
Si Si6 0.173561 0.445225 0.679179
O O1 0.500000 0.843936 0.244245
O O2 0.251825 0.842489 0.180067
O O3 0.253251 0.811023 0.293145
O O4 0.276137 0.905742 0.269196
O O5 0.750000 0.250000 0.000000
O O6 0.708066 0.327233 0.065408
O O7 0.500000 0.286243 0.000000
O O8 0.250000 0.250000 0.858280
O O9 0.000000 0.200915 0.852298
O O10 0.238932 0.097629 0.500000
O O11 0.211936 0.158520 0.407735
O O12 0.247417 0.063651 0.386223
O O13 0.000000 0.094013 0.429928
O O14 0.250000 0.750000 0.614897
O O15 0.000000 0.792374 0.652178
O O16 0.214034 0.500000 0.702994
O O17 0.000000 0.439343 0.666091
#
# Coordination Sequence:
#
# PCOD8265982 Si02
#       6
#    16   8  16  16  16  16
#     4  10  19  31  47  67  90 117 150 186 225 267
#     4   8  16  28  42  62  91 126 157 185 214 249
#     4  10  18  29  45  67  96 127 157 185 216 255
#     4   9  19  34  49  67  91 117 146 181 222 270
#     4  10  19  31  46  64  89 120 152 185 220 260
#     4   9  19  35  52  69  89 113 144 185 230 273
#
# _framework density 16.69098
#
# number of rings (size 3 to 8) (size 9 to 14) (size 15 to 20)
#    0.000    2.545    0.000    2.182    0.000    3.636 
#    0.000    1.818    0.000    0.000    0.000    0.636 
#    0.000    5.091    0.000    0.000    0.000    0.000 
#
# Total GULP energy -545388.898189 kJ/mol
# GULP energy per Si atom -12395.202232 kJ/mol
# Density = 1.665299 g / cm^3
# Si number density = 16.690980 Si / 1000 Ang^3
#
#
#
# Elastic Constant Matrix: (Units=GPa)
#
#
# Indices 1 2 3 4 5 6 
#
# 1 62.3553 30.8256 42.5165 0.0000 0.0000 0.0000
# 2 30.8256 85.8189 43.5280 0.0000 0.0000 0.0000
# 3 42.5165 43.5280 133.9382 0.0000 0.0000 0.0000
# 4 0.0000 0.0000 0.0000 15.8221 0.0000 0.0000
# 5 0.0000 0.0000 0.0000 0.0000 23.2785 0.0000
# 6 0.0000 0.0000 0.0000 0.0000 0.0000 21.8902
#
#
#
# Elastic Compliance Matrix: (Units=1/GPa)
#
#
# Indices 1 2 3 4 5 6 
#
# 1 0.022310 -0.005294 -0.005361 0.000000 0.000000 0.000000
# 2 -0.005294 0.015209 -0.003262 0.000000 0.000000 0.000000
# 3 -0.005361 -0.003262 0.010228 0.000000 0.000000 0.000000
# 4 0.000000 0.000000 0.000000 0.063203 0.000000 0.000000
# 5 0.000000 0.000000 0.000000 0.000000 0.042958 0.000000
# 6 0.000000 0.000000 0.000000 0.000000 0.000000 0.045683
#
#
# Mechanical properties :
#
#
# Convention : Reuss Voigt Hill
#
# Bulk Modulus (GPa) = 50.22243 57.31695 53.76969
# Shear Modulus (GPa) = 21.36181 23.21432 22.28807
#
# Velocity S-wave (km/s) = 3.58137 3.73343 3.65819
# Velocity P-wave (km/s) = 6.87434 7.28006 7.08011
#
# Compressibility (1/GPa) = 0.01991142
#
# Stress axis : x y z
#
# Youngs Moduli (GPa) = 44.82298 65.75215 97.76979
#
# Poissons Ratio (x) = 0.34811 0.52418
# Poissons Ratio (y) = 0.23731 0.31893
# Poissons Ratio (z) = 0.24031 0.21448
#
# Static dielectric constant tensor:
#      x y z
#    x 3.193330 0.000000 0.000000 
#    y 0.000000 3.048080 0.000000 
#    z 0.000000 0.000000 5.777590 
# 
# 
# High freq. dielectric constant tensor:
#      x y z
#    x 1.653830 0.000000 0.000000 
#    y 0.000000 1.617220 0.000000 
#    z 0.000000 0.000000 1.642320 
# 
# From -- ./inp_files/60271.got.cif
#   From: 2010.03.12/outbox.cif.g09.slc.cpg/sg65_31_cif.got.tgz:60271.got - 2010.04.10 20:52:16.
