data_PCOD8265854
_publ_section_title
;
Structure prediction by ZEFSAII (Michael W. Deem and Ramdas Pophale) SiO2 
 PCOD8265854
Probable space group: C M M M
;
_chemical_formula_sum "Si O2"
_cell_formula_units_Z 112
_cell_length_a 15.626208
_cell_length_b 18.354751
_cell_length_c 23.347424
_cell_angle_alpha 90.000000
_cell_angle_beta 90.000000
_cell_angle_gamma 90.000000
_cell_volume 6696.395078
_symmetry_space_group_name_H-M "C M M M"
_symmetry_group_IT_number 65
_symmetry_cell_setting 'orthorhombic'
loop_
_space_group_symop_operation_xyz
x,y,z
-x,-y,z
x,-y,-z
-x,y,-z
-x,-y,-z
x,y,-z
-x,y,z
x,-y,z
1/2+x,1/2+y,z
1/2-x,1/2-y,z
1/2+x,1/2-y,-z
1/2-x,1/2+y,-z
1/2-x,1/2-y,-z
1/2+x,1/2+y,-z
1/2-x,1/2+y,z
1/2+x,1/2-y,z
loop_
_atom_site_type_symbol
_atom_site_label
_atom_site_fract_x
_atom_site_fract_y
_atom_site_fract_z
Si Si1 0.246180 0.917588 0.737116
Si Si2 0.898871 0.081376 0.437015
Si Si3 0.906169 0.686461 0.857906
Si Si4 0.099498 0.836461 0.674063
Si Si5 0.257793 0.082149 0.128283
Si Si6 0.401880 0.816371 0.272454
Si Si7 0.833936 0.200555 0.935507
O O1 0.158785 0.881170 0.716751
O O2 0.237937 0.914986 0.805005
O O3 0.332189 0.878415 0.713146
O O4 0.251770 0.000000 0.714580
O O5 0.862354 0.103185 0.500000
O O6 0.870926 0.141597 0.390274
O O7 0.000000 0.079098 0.440344
O O8 0.865650 0.000000 0.420117
O O9 0.846701 0.623237 0.882987
O O10 0.884035 0.709765 0.792681
O O11 0.903709 0.758992 0.896533
O O12 0.000000 0.652347 0.860609
O O13 0.113783 0.750613 0.684227
O O14 0.000000 0.857317 0.685352
O O15 0.183693 0.121552 0.091927
O O16 0.265637 0.000000 0.105593
O O17 0.500000 0.845567 0.279161
O O18 0.750000 0.250000 0.933893
O O19 0.868377 0.190549 0.000000
#
# Coordination Sequence:
#
# PCOD8265854 Si02
#       7
#    16  16  16  16  16  16  16
#     4  10  19  30  46  67  93 124 154 188 228 271
#     4   8  14  25  41  63  93 125 153 185 229 278
#     4   9  17  30  48  68  88 111 144 186 228 266
#     4  10  18  28  46  71  96 121 151 186 227 275
#     4   9  18  31  46  66  90 115 146 183 223 266
#     4   9  18  31  47  67  91 121 154 190 231 271
#     4   9  17  29  45  63  84 113 144 171 207 262
#
# _framework density 16.725418000000001
#
# number of rings (size 3 to 8) (size 9 to 14) (size 15 to 20)
#    0.000    2.857    0.000    2.143    0.000    4.286 
#    0.000    2.857    0.000    3.000    0.000    5.000 
#    0.000    0.000    0.000    8.571    0.000    0.429 
#
# Total GULP energy -694049.426048 kJ/mol
# GULP energy per Si atom -12393.739751 kJ/mol
# Density = 1.668735 g / cm^3
# Si number density = 16.725418 Si / 1000 Ang^3
#
#
#
# Elastic Constant Matrix: (Units=GPa)
#
#
# Indices 1 2 3 4 5 6 
#
# 1 64.0267 38.1955 17.1804 0.0000 0.0000 0.0000
# 2 38.1955 108.3433 32.0527 0.0000 0.0000 0.0000
# 3 17.1804 32.0527 43.1198 0.0000 0.0000 0.0000
# 4 0.0000 0.0000 0.0000 20.6344 0.0000 0.0000
# 5 0.0000 0.0000 0.0000 0.0000 13.0821 0.0000
# 6 0.0000 0.0000 0.0000 0.0000 0.0000 20.1757
#
#
#
# Elastic Compliance Matrix: (Units=1/GPa)
#
#
# Indices 1 2 3 4 5 6 
#
# 1 0.020188 -0.006073 -0.003529 0.000000 0.000000 0.000000
# 2 -0.006073 0.013659 -0.007733 0.000000 0.000000 0.000000
# 3 -0.003529 -0.007733 0.030346 0.000000 0.000000 0.000000
# 4 0.000000 0.000000 0.000000 0.048463 0.000000 0.000000
# 5 0.000000 0.000000 0.000000 0.000000 0.076440 0.000000
# 6 0.000000 0.000000 0.000000 0.000000 0.000000 0.049565
#
#
# Mechanical properties :
#
#
# Convention : Reuss Voigt Hill
#
# Bulk Modulus (GPa) = 33.87364 43.37189 38.62276
# Shear Modulus (GPa) = 17.65704 19.31587 18.48646
#
# Velocity S-wave (km/s) = 3.25268 3.40204 3.32820
# Velocity P-wave (km/s) = 5.86544 6.43583 6.15724
#
# Compressibility (1/GPa) = 0.02952148
#
# Stress axis : x y z
#
# Youngs Moduli (GPa) = 49.53323 73.21265 32.95324
#
# Poissons Ratio (x) = 0.44463 0.11630
# Poissons Ratio (y) = 0.30082 0.25484
# Poissons Ratio (z) = 0.17482 0.56619
#
# Static dielectric constant tensor:
#      x y z
#    x 3.000020 0.000000 0.000000 
#    y 0.000000 3.194420 0.000000 
#    z 0.000000 0.000000 3.323320 
# 
# 
# High freq. dielectric constant tensor:
#      x y z
#    x 1.626220 0.000000 0.000000 
#    y 0.000000 1.635610 0.000000 
#    z 0.000000 0.000000 1.633710 
# 
# From -- ./inp_files/69954.got.cif
#   From: 2010.03.12/outbox.cif.g09.slc.cpg/sg65_35_cif.got.tgz:69954.got - 2010.04.10 20:52:16.
