data_PCOD8265376
_publ_section_title
;
Structure prediction by ZEFSAII (Michael W. Deem and Ramdas Pophale) SiO2 
 PCOD8265376
Probable space group: C M M M
;
_chemical_formula_sum "Si O2"
_cell_formula_units_Z 120
_cell_length_a 26.980414
_cell_length_b 15.978660
_cell_length_c 18.699911
_cell_angle_alpha 90.000000
_cell_angle_beta 90.000000
_cell_angle_gamma 90.000000
_cell_volume 8061.734750
_symmetry_space_group_name_H-M "C M M M"
_symmetry_group_IT_number 65
_symmetry_cell_setting 'orthorhombic'
loop_
_space_group_symop_operation_xyz
x,y,z
-x,-y,z
x,-y,-z
-x,y,-z
-x,-y,-z
x,y,-z
-x,y,z
x,-y,z
1/2+x,1/2+y,z
1/2-x,1/2-y,z
1/2+x,1/2-y,-z
1/2-x,1/2+y,-z
1/2-x,1/2-y,-z
1/2+x,1/2+y,-z
1/2-x,1/2+y,z
1/2+x,1/2-y,z
loop_
_atom_site_type_symbol
_atom_site_label
_atom_site_fract_x
_atom_site_fract_y
_atom_site_fract_z
Si Si1 0.280073 0.165159 0.421209
Si Si2 0.718947 0.828124 0.806066
Si Si3 0.446365 0.903417 0.158147
Si Si4 0.941273 0.500000 0.419170
Si Si5 0.443461 0.149117 0.317934
Si Si6 0.288345 0.593764 0.691482
Si Si7 0.649302 0.099105 0.080332
Si Si8 0.849159 0.256678 0.314259
O O1 0.291432 0.128403 0.500000
O O2 0.250000 0.250000 0.426267
O O3 0.247950 0.098355 0.376865
O O4 0.330658 0.188903 0.381564
O O5 0.750000 0.750000 0.835433
O O6 0.756046 0.887580 0.761968
O O7 0.697263 0.875650 0.874173
O O8 0.674063 0.797004 0.756624
O O9 0.500000 0.862427 0.137397
O O10 0.437895 0.896858 0.242529
O O11 0.401210 0.861503 0.114094
O O12 0.448173 0.000000 0.137477
O O13 0.919478 0.500000 0.500000
O O14 0.924019 0.583661 0.377691
O O15 0.000000 0.500000 0.420506
O O16 0.500000 0.178021 0.332643
O O17 0.408684 0.232047 0.316166
O O18 0.310256 0.500000 0.696551
O O19 0.333985 0.658833 0.682401
O O20 0.645951 0.000000 0.080914
O O21 0.655214 0.133938 0.000000
#
# Coordination Sequence:
#
# PCOD8265376 Si02
#       8
#    16  16  16   8  16  16  16  16
#     4   8  15  28  43  60  85 111 136 172 210 245
#     4   9  17  30  45  60  81 110 144 178 214 253
#     4   9  16  27  43  61  82 112 145 170 199 248
#     4   9  18  30  42  62  91 117 147 183 212 246
#     4  10  17  28  46  63  83 116 149 177 211 251
#     4   9  17  29  46  64  83 113 145 177 218 260
#     4  10  19  28  41  62  87 113 139 173 211 247
#     4   9  17  29  45  63  85 112 144 180 213 255
#
# _framework density 14.885133
#
# number of rings (size 3 to 8) (size 9 to 14) (size 15 to 20)
#    0.000    2.867    2.000    2.000    0.000    1.333 
#    4.800    1.333    0.000    0.400    0.000    0.000 
#    0.000    0.000    0.000   10.000    0.000   13.067 
#
# Total GULP energy -743492.908437 kJ/mol
# GULP energy per Si atom -12391.548474 kJ/mol
# Density = 1.485125 g / cm^3
# Si number density = 14.885133 Si / 1000 Ang^3
#
#
#
# Elastic Constant Matrix: (Units=GPa)
#
#
# Indices 1 2 3 4 5 6 
#
# 1 90.1264 37.3027 35.5266 0.0000 0.0000 0.0000
# 2 37.3027 70.2263 20.6827 0.0000 0.0000 0.0000
# 3 35.5266 20.6827 100.6232 0.0000 0.0000 0.0000
# 4 0.0000 0.0000 0.0000 14.2278 0.0000 0.0000
# 5 0.0000 0.0000 0.0000 0.0000 16.5722 0.0000
# 6 0.0000 0.0000 0.0000 0.0000 0.0000 20.8533
#
#
#
# Elastic Compliance Matrix: (Units=1/GPa)
#
#
# Indices 1 2 3 4 5 6 
#
# 1 0.015639 -0.007112 -0.004060 0.000000 0.000000 0.000000
# 2 -0.007112 0.018391 -0.001269 0.000000 0.000000 0.000000
# 3 -0.004060 -0.001269 0.011632 0.000000 0.000000 0.000000
# 4 0.000000 0.000000 0.000000 0.070285 0.000000 0.000000
# 5 0.000000 0.000000 0.000000 0.000000 0.060342 0.000000
# 6 0.000000 0.000000 0.000000 0.000000 0.000000 0.047954
#
#
# Mechanical properties :
#
#
# Convention : Reuss Voigt Hill
#
# Bulk Modulus (GPa) = 48.12081 49.77776 48.94929
# Shear Modulus (GPa) = 19.52724 21.49492 20.51108
#
# Velocity S-wave (km/s) = 3.62589 3.80419 3.71611
# Velocity P-wave (km/s) = 7.06596 7.26703 7.16720
#
# Compressibility (1/GPa) = 0.02078103
#
# Stress axis : x y z
#
# Youngs Moduli (GPa) = 63.94136 54.37440 85.96666
#
# Poissons Ratio (x) = 0.38669 0.34902
# Poissons Ratio (y) = 0.45472 0.10912
# Poissons Ratio (z) = 0.25960 0.06902
#
# Static dielectric constant tensor:
#      x y z
#    x 2.907540 0.000000 0.000000 
#    y 0.000000 2.550240 0.000000 
#    z 0.000000 0.000000 3.100670 
# 
# 
# High freq. dielectric constant tensor:
#      x y z
#    x 1.559880 0.000000 0.000000 
#    y 0.000000 1.530350 0.000000 
#    z 0.000000 0.000000 1.570810 
# 
# From -- ./inp_files/57736.got.cif
#   From: 2010.03.12/outbox.cif.g09.slc.cpg/sg65_29_cif.got.tgz:57736.got - 2010.04.10 20:52:16.
