data_PCOD8265552
_publ_section_title
;
Structure prediction by ZEFSAII (Michael W. Deem and Ramdas Pophale) SiO2 
 PCOD8265552
Probable space group: C M M M
;
_chemical_formula_sum "Si O2"
_cell_formula_units_Z 104
_cell_length_a 25.534340
_cell_length_b 18.133481
_cell_length_c 17.188988
_cell_angle_alpha 90.000000
_cell_angle_beta 90.000000
_cell_angle_gamma 90.000000
_cell_volume 7958.956423
_symmetry_space_group_name_H-M "C M M M"
_symmetry_group_IT_number 65
_symmetry_cell_setting 'orthorhombic'
loop_
_space_group_symop_operation_xyz
x,y,z
-x,-y,z
x,-y,-z
-x,y,-z
-x,-y,-z
x,y,-z
-x,y,z
x,-y,z
1/2+x,1/2+y,z
1/2-x,1/2-y,z
1/2+x,1/2-y,-z
1/2-x,1/2+y,-z
1/2-x,1/2-y,-z
1/2+x,1/2+y,-z
1/2-x,1/2+y,z
1/2+x,1/2-y,z
loop_
_atom_site_type_symbol
_atom_site_label
_atom_site_fract_x
_atom_site_fract_y
_atom_site_fract_z
Si Si1 0.647901 0.582620 0.092092
Si Si2 0.750186 0.166627 0.092874
Si Si3 0.942724 0.587447 0.500000
Si Si4 0.561970 0.082495 0.334038
Si Si5 0.939860 0.803816 0.910170
Si Si6 0.939302 0.345188 0.822573
Si Si7 0.649475 0.084387 0.087711
O O1 0.644214 0.500000 0.127312
O O2 0.699047 0.623917 0.126077
O O3 0.595889 0.627663 0.115667
O O4 0.652378 0.577816 0.000000
O O5 0.750000 0.250000 0.123587
O O6 0.697380 0.129534 0.125969
O O7 0.750953 0.163306 0.000000
O O8 0.948605 0.500000 0.500000
O O9 0.913843 0.609137 0.581897
O O10 0.000000 0.625165 0.500000
O O11 0.500000 0.077198 0.345052
O O12 0.575656 0.143183 0.268226
O O13 0.582798 0.000000 0.311330
O O14 0.925967 0.736691 0.852433
O O15 0.000000 0.828225 0.900425
O O16 0.928443 0.780436 0.000000
O O17 0.905090 0.403824 0.869152
O O18 0.000000 0.364162 0.838075
O O19 0.666124 0.000000 0.091453
O O20 0.640904 0.111458 0.000000
#
# Coordination Sequence:
#
# PCOD8265552 Si02
#       7
#    16  16   8  16  16  16  16
#     4   9  16  26  40  54  66  84 115 153 188 219
#     4   9  16  26  39  51  63  82 111 147 185 219
#     4   7  10  18  32  48  64  82 108 143 177 207
#     4   8  13  21  33  48  65  87 116 146 174 206
#     4   9  17  27  37  50  69  93 120 148 178 211
#     4  10  18  26  35  47  67  96 125 148 171 204
#     4  10  19  27  34  46  65  89 119 152 178 199
#
# _framework density 13.06704
#
# number of rings (size 3 to 8) (size 9 to 14) (size 15 to 20)
#    0.000    3.000    0.000    3.231    0.000    6.462 
#    0.000    2.308    0.000    0.000    0.000    0.000 
#    0.000    0.000    0.000    6.923    0.000   25.385 
#
# Total GULP energy -644301.000714 kJ/mol
# GULP energy per Si atom -12390.403860 kJ/mol
# Density = 1.303730 g / cm^3
# Si number density = 13.067040 Si / 1000 Ang^3
#
#
#
# Elastic Constant Matrix: (Units=GPa)
#
#
# Indices 1 2 3 4 5 6 
#
# 1 63.2145 38.8977 27.6267 0.0000 0.0000 0.0000
# 2 38.8977 84.0347 38.5325 0.0000 0.0000 0.0000
# 3 27.6267 38.5325 62.4528 0.0000 0.0000 0.0000
# 4 0.0000 0.0000 0.0000 8.0969 0.0000 0.0000
# 5 0.0000 0.0000 0.0000 0.0000 3.1488 0.0000
# 6 0.0000 0.0000 0.0000 0.0000 0.0000 22.2692
#
#
#
# Elastic Compliance Matrix: (Units=1/GPa)
#
#
# Indices 1 2 3 4 5 6 
#
# 1 0.023218 -0.008420 -0.005076 0.000000 0.000000 0.000000
# 2 -0.008420 0.019648 -0.008398 0.000000 0.000000 0.000000
# 3 -0.005076 -0.008398 0.023439 0.000000 0.000000 0.000000
# 4 0.000000 0.000000 0.000000 0.123504 0.000000 0.000000
# 5 0.000000 0.000000 0.000000 0.000000 0.317579 0.000000
# 6 0.000000 0.000000 0.000000 0.000000 0.000000 0.044905
#
#
# Mechanical properties :
#
#
# Convention : Reuss Voigt Hill
#
# Bulk Modulus (GPa) = 44.40927 46.64621 45.52774
# Shear Modulus (GPa) = 8.28381 13.67931 10.98156
#
# Velocity S-wave (km/s) = 2.52056 3.23903 2.90211
# Velocity P-wave (km/s) = 6.52154 7.05432 6.79316
#
# Compressibility (1/GPa) = 0.02251782
#
# Stress axis : x y z
#
# Youngs Moduli (GPa) = 43.06914 50.89621 42.66400
#
# Poissons Ratio (x) = 0.42853 0.21657
# Poissons Ratio (y) = 0.36263 0.35829
# Poissons Ratio (z) = 0.21862 0.42742
#
# Static dielectric constant tensor:
#      x y z
#    x 2.574580 0.000000 0.000000 
#    y 0.000000 2.625410 0.000000 
#    z 0.000000 0.000000 2.588080 
# 
# 
# High freq. dielectric constant tensor:
#      x y z
#    x 1.485860 0.000000 0.000000 
#    y 0.000000 1.489710 0.000000 
#    z 0.000000 0.000000 1.449510 
# 
# From -- ./inp_files/55037.got.cif
#   From: 2010.03.12/outbox.cif.g09.slc.cpg/sg65_28_cif.got.tgz:55037.got - 2010.04.10 20:52:16.
