data_PCOD8265313
_publ_section_title
;
Structure prediction by ZEFSAII (Michael W. Deem and Ramdas Pophale) SiO2 
 PCOD8265313
Probable space group: C M M M
;
_chemical_formula_sum "Si O2"
_cell_formula_units_Z 88
_cell_length_a 31.856940
_cell_length_b 26.949506
_cell_length_c 7.672377
_cell_angle_alpha 90.000000
_cell_angle_beta 90.000000
_cell_angle_gamma 90.000000
_cell_volume 6586.956586
_symmetry_space_group_name_H-M "C M M M"
_symmetry_group_IT_number 65
_symmetry_cell_setting 'orthorhombic'
loop_
_space_group_symop_operation_xyz
x,y,z
-x,-y,z
x,-y,-z
-x,y,-z
-x,-y,-z
x,y,-z
-x,y,z
x,-y,z
1/2+x,1/2+y,z
1/2-x,1/2-y,z
1/2+x,1/2-y,-z
1/2-x,1/2+y,-z
1/2-x,1/2-y,-z
1/2+x,1/2+y,-z
1/2-x,1/2+y,z
1/2+x,1/2-y,z
loop_
_atom_site_type_symbol
_atom_site_label
_atom_site_fract_x
_atom_site_fract_y
_atom_site_fract_z
Si Si1 0.360230 0.500000 0.799013
Si Si2 0.412352 0.403694 0.203631
Si Si3 0.271306 0.826308 0.000000
Si Si4 0.740874 0.391269 0.294790
Si Si5 0.815974 0.229677 0.000000
Si Si6 0.343113 0.666907 0.306146
Si Si7 0.769480 0.000000 0.307172
Si Si8 0.000000 0.943382 0.792114
O O1 0.387770 0.546850 0.750608
O O2 0.319585 0.500000 0.679474
O O3 0.345970 0.500000 0.000000
O O4 0.389021 0.358164 0.297592
O O5 0.459650 0.412176 0.273499
O O6 0.412189 0.392154 0.000000
O O7 0.272638 0.859133 0.176741
O O8 0.229550 0.794224 0.000000
O O9 0.311381 0.789500 0.000000
O O10 0.752410 0.386157 0.500000
O O11 0.692917 0.373663 0.261107
O O12 0.745436 0.447973 0.222022
O O13 0.841010 0.212723 0.827624
O O14 0.336140 0.688369 0.500000
O O15 0.750966 0.000000 0.500000
O O16 0.000000 0.000000 0.718285
O O17 0.000000 0.947209 0.000000
#
# Coordination Sequence:
#
# PCOD8265313 Si02
#       8
#     8  16   8  16   8  16   8   8
#     4  10  18  21  38  56  68  98 128 159 189 225
#     4  10  17  27  39  56  76  96 129 162 193 236
#     4   9  18  29  44  54  72  95 114 149 185 232
#     4   9  18  27  38  58  78  98 121 146 182 224
#     4   9  18  32  42  57  71  88 118 149 194 236
#     4  10  18  28  43  58  73  93 121 158 193 227
#     4  10  18  26  35  53  79 100 122 153 183 221
#     4   9  16  26  39  55  75 104 131 155 196 239
#
# _framework density 13.359736
#
# number of rings (size 3 to 8) (size 9 to 14) (size 15 to 20)
#    0.000    2.455    3.636    0.000    1.273    0.727 
#    0.000    4.091    0.000    0.545    0.000    0.000 
#    0.000    0.000    0.000    0.000    0.000    0.000 
#
# Total GULP energy -545270.553010 kJ/mol
# GULP energy per Si atom -12392.512568 kJ/mol
# Density = 1.332933 g / cm^3
# Si number density = 13.359736 Si / 1000 Ang^3
#
#
#
# Elastic Constant Matrix: (Units=GPa)
#
#
# Indices 1 2 3 4 5 6 
#
# 1 41.2752 40.4435 21.8622 0.0000 0.0000 0.0000
# 2 40.4435 88.6646 40.4988 0.0000 0.0000 0.0000
# 3 21.8622 40.4988 63.0060 0.0000 0.0000 0.0000
# 4 0.0000 0.0000 0.0000 10.8909 0.0000 0.0000
# 5 0.0000 0.0000 0.0000 0.0000 8.1444 0.0000
# 6 0.0000 0.0000 0.0000 0.0000 0.0000 0.1339
#
#
#
# Elastic Compliance Matrix: (Units=1/GPa)
#
#
# Indices 1 2 3 4 5 6 
#
# 1 0.044308 -0.018670 -0.003374 0.000000 0.000000 0.000000
# 2 -0.018670 0.023833 -0.008841 0.000000 0.000000 0.000000
# 3 -0.003374 -0.008841 0.022725 0.000000 0.000000 0.000000
# 4 0.000000 0.000000 0.000000 0.091819 0.000000 0.000000
# 5 0.000000 0.000000 0.000000 0.000000 0.122784 0.000000
# 6 0.000000 0.000000 0.000000 0.000000 0.000000 7.466463
#
#
# Mechanical properties :
#
#
# Convention : Reuss Voigt Hill
#
# Bulk Modulus (GPa) = 34.36812 44.28389 39.32601
# Shear Modulus (GPa) = 0.63748 9.84326 5.24037
#
# Velocity S-wave (km/s) = 0.69152 2.71732 1.98268
# Velocity P-wave (km/s) = 5.13990 6.56235 5.89419
#
# Compressibility (1/GPa) = 0.02909673
#
# Stress axis : x y z
#
# Youngs Moduli (GPa) = 22.56921 41.95916 44.00439
#
# Poissons Ratio (x) = 0.78336 0.14847
# Poissons Ratio (y) = 0.42136 0.38904
# Poissons Ratio (z) = 0.07615 0.37096
#
# Static dielectric constant tensor:
#      x y z
#    x 2.425060 0.000000 0.000000 
#    y 0.000000 2.673310 0.000000 
#    z 0.000000 0.000000 2.675530 
# 
# 
# High freq. dielectric constant tensor:
#      x y z
#    x 1.454090 0.000000 0.000000 
#    y 0.000000 1.483860 0.000000 
#    z 0.000000 0.000000 1.517230 
# 
# From -- ./inp_files/18586.got.cif
#   From: 2010.03.12/outbox.cif.g09.slc.cpg/sg65_10_cif.got.tgz:18586.got - 2010.04.10 20:52:16.
