data_PCOD8265170
_publ_section_title
;
Structure prediction by ZEFSAII (Michael W. Deem and Ramdas Pophale) SiO2 
 PCOD8265170
Probable space group: C M M M
;
_chemical_formula_sum "Si O2"
_cell_formula_units_Z 96
_cell_length_a 23.655957
_cell_length_b 18.608651
_cell_length_c 13.366613
_cell_angle_alpha 90.000000
_cell_angle_beta 90.000000
_cell_angle_gamma 90.000000
_cell_volume 5884.055862
_symmetry_space_group_name_H-M "C M M M"
_symmetry_group_IT_number 65
_symmetry_cell_setting 'orthorhombic'
loop_
_space_group_symop_operation_xyz
x,y,z
-x,-y,z
x,-y,-z
-x,y,-z
-x,-y,-z
x,y,-z
-x,y,z
x,-y,z
1/2+x,1/2+y,z
1/2-x,1/2-y,z
1/2+x,1/2-y,-z
1/2-x,1/2+y,-z
1/2-x,1/2-y,-z
1/2+x,1/2+y,-z
1/2-x,1/2+y,z
1/2+x,1/2-y,z
loop_
_atom_site_type_symbol
_atom_site_label
_atom_site_fract_x
_atom_site_fract_y
_atom_site_fract_z
Si Si1 0.566302 0.921737 0.610510
Si Si2 0.435613 0.579986 0.774233
Si Si3 0.626057 0.797757 0.711986
Si Si4 0.640868 0.646957 0.616225
Si Si5 0.264889 0.831556 0.609658
Si Si6 0.565482 0.722876 0.884446
O O1 0.591209 0.905394 0.500000
O O2 0.500000 0.926076 0.604182
O O3 0.580908 0.857924 0.685017
O O4 0.589446 0.000000 0.647489
O O5 0.500000 0.587553 0.737571
O O6 0.424347 0.500000 0.818151
O O7 0.396699 0.591297 0.677579
O O8 0.422494 0.639212 0.859154
O O9 0.622216 0.728706 0.640158
O O10 0.687358 0.836621 0.696566
O O11 0.609965 0.772959 0.824220
O O12 0.630259 0.633148 0.500000
O O13 0.706556 0.630833 0.645127
O O14 0.284843 0.862352 0.500000
O O15 0.250000 0.750000 0.590793
O O16 0.500000 0.742178 0.858923
O O17 0.578615 0.735793 0.000000
#
# Coordination Sequence:
#
# PCOD8265170 Si02
#       6
#    16  16  16  16  16  16
#     4   9  17  27  39  60  90 117 139 168 208 254
#     4   9  18  31  46  65  90 122 156 187 226 275
#     4  10  16  27  47  64  83 114 152 186 218 264
#     4   9  17  28  43  65  93 121 147 180 220 261
#     4   8  14  25  42  64  89 117 146 176 213 259
#     4   9  18  31  47  69  92 113 147 196 239 272
#
# _framework density 16.315276999999998
#
# number of rings (size 3 to 8) (size 9 to 14) (size 15 to 20)
#    0.000    3.000    0.000    3.500    0.000    1.667 
#    0.000    3.333    0.000   14.000    0.000    2.333 
#    0.000    0.000    0.000    0.000    0.000    0.000 
#
# Total GULP energy -594634.977228 kJ/mol
# GULP energy per Si atom -12388.228692 kJ/mol
# Density = 1.627814 g / cm^3
# Si number density = 16.315277 Si / 1000 Ang^3
#
#
#
# Elastic Constant Matrix: (Units=GPa)
#
#
# Indices 1 2 3 4 5 6 
#
# 1 77.3914 30.1852 49.1919 0.0000 0.0000 0.0000
# 2 30.1852 74.7183 35.9249 0.0000 0.0000 0.0000
# 3 49.1919 35.9249 97.1777 0.0000 0.0000 0.0000
# 4 0.0000 0.0000 0.0000 13.5769 0.0000 0.0000
# 5 0.0000 0.0000 0.0000 0.0000 67.1553 0.0000
# 6 0.0000 0.0000 0.0000 0.0000 0.0000 15.7396
#
#
#
# Elastic Compliance Matrix: (Units=1/GPa)
#
#
# Indices 1 2 3 4 5 6 
#
# 1 0.019942 -0.003895 -0.008655 0.000000 0.000000 0.000000
# 2 -0.003895 0.017037 -0.004327 0.000000 0.000000 0.000000
# 3 -0.008655 -0.004327 0.016271 0.000000 0.000000 0.000000
# 4 0.000000 0.000000 0.000000 0.073655 0.000000 0.000000
# 5 0.000000 0.000000 0.000000 0.000000 0.014891 0.000000
# 6 0.000000 0.000000 0.000000 0.000000 0.000000 0.063534
#
#
# Mechanical properties :
#
#
# Convention : Reuss Voigt Hill
#
# Bulk Modulus (GPa) = 51.28929 53.32127 52.30528
# Shear Modulus (GPa) = 20.35983 28.22672 24.29327
#
# Velocity S-wave (km/s) = 3.53639 4.16393 3.86293
# Velocity P-wave (km/s) = 6.94114 7.47466 7.21283
#
# Compressibility (1/GPa) = 0.01949725
#
# Stress axis : x y z
#
# Youngs Moduli (GPa) = 50.14643 58.69429 61.45899
#
# Poissons Ratio (x) = 0.22861 0.53191
# Poissons Ratio (y) = 0.19532 0.26592
# Poissons Ratio (z) = 0.43400 0.25396
#
# Static dielectric constant tensor:
#      x y z
#    x 3.406120 0.000000 0.000000 
#    y 0.000000 3.032500 0.000000 
#    z 0.000000 0.000000 2.810800 
# 
# 
# High freq. dielectric constant tensor:
#      x y z
#    x 1.626890 0.000000 0.000000 
#    y 0.000000 1.614340 0.000000 
#    z 0.000000 0.000000 1.593200 
# 
# From -- ./inp_files/27349.got.cif
#   From: 2010.03.12/outbox.cif.g09.slc.cpg/sg65_14_cif.got.tgz:27349.got - 2010.04.10 20:52:16.
