data_PCOD8265936
_publ_section_title
;
Structure prediction by ZEFSAII (Michael W. Deem and Ramdas Pophale) SiO2 
 PCOD8265936
Probable space group: C M M M
;
_chemical_formula_sum "Si O2"
_cell_formula_units_Z 64
_cell_length_a 38.731710
_cell_length_b 8.031513
_cell_length_c 13.004644
_cell_angle_alpha 90.000000
_cell_angle_beta 90.000000
_cell_angle_gamma 90.000000
_cell_volume 4045.409650
_symmetry_space_group_name_H-M "C M M M"
_symmetry_group_IT_number 65
_symmetry_cell_setting 'orthorhombic'
loop_
_space_group_symop_operation_xyz
x,y,z
-x,-y,z
x,-y,-z
-x,y,-z
-x,-y,-z
x,y,-z
-x,y,z
x,-y,z
1/2+x,1/2+y,z
1/2-x,1/2-y,z
1/2+x,1/2-y,-z
1/2-x,1/2+y,-z
1/2-x,1/2-y,-z
1/2+x,1/2+y,-z
1/2-x,1/2+y,z
1/2+x,1/2-y,z
loop_
_atom_site_type_symbol
_atom_site_label
_atom_site_fract_x
_atom_site_fract_y
_atom_site_fract_z
Si Si1 0.659696 0.803211 0.886185
Si Si2 0.039202 0.000000 0.122632
Si Si3 0.789307 0.693794 0.283204
Si Si4 0.289201 0.305346 0.500000
Si Si5 0.917836 0.686111 0.877987
O O1 0.687048 0.723464 0.805807
O O2 0.621090 0.762571 0.846974
O O3 0.664147 0.000000 0.893105
O O4 0.666238 0.726054 0.000000
O O5 0.057117 0.169109 0.165844
O O6 0.000000 0.000000 0.162091
O O7 0.041293 0.000000 0.000000
O O8 0.790527 0.500000 0.268234
O O9 0.750000 0.750000 0.271913
O O10 0.805942 0.737456 0.394634
O O11 0.292300 0.500000 0.500000
O O12 0.250000 0.250000 0.500000
O O13 0.927365 0.500000 0.834639
O O14 0.920571 0.677841 0.000000
#
# Coordination Sequence:
#
# PCOD8265936 Si02
#       5
#    16   8  16   8  16
#     4   8  15  28  44  59  80 112 144 173 208 253
#     4   9  16  24  36  58  82 105 141 181 209 244
#     4  10  18  29  44  61  81 106 139 177 217 256
#     4  10  18  30  44  58  78 102 134 173 216 263
#     4   8  14  26  40  54  77 110 142 170 208 252
#
# _framework density 15.820401
#
# number of rings (size 3 to 8) (size 9 to 14) (size 15 to 20)
#    0.000    3.125    0.000    4.875    0.000    1.000 
#    4.500    2.500    0.000    0.000    0.000    0.000 
#    0.000    0.000    0.000    2.250    0.000   20.000 
#
# Total GULP energy -396438.671064 kJ/mol
# GULP energy per Si atom -12388.708471 kJ/mol
# Density = 1.578439 g / cm^3
# Si number density = 15.820401 Si / 1000 Ang^3
#
#
#
# Elastic Constant Matrix: (Units=GPa)
#
#
# Indices 1 2 3 4 5 6 
#
# 1 102.0459 45.0320 52.8544 0.0000 0.0000 0.0000
# 2 45.0320 75.1989 23.5352 0.0000 0.0000 0.0000
# 3 52.8544 23.5352 78.4156 0.0000 0.0000 0.0000
# 4 0.0000 0.0000 0.0000 11.2395 0.0000 0.0000
# 5 0.0000 0.0000 0.0000 0.0000 2.7703 0.0000
# 6 0.0000 0.0000 0.0000 0.0000 0.0000 21.8759
#
#
#
# Elastic Compliance Matrix: (Units=1/GPa)
#
#
# Indices 1 2 3 4 5 6 
#
# 1 0.018541 -0.007938 -0.010115 0.000000 0.000000 0.000000
# 2 -0.007938 0.018075 -0.000075 0.000000 0.000000 0.000000
# 3 -0.010115 -0.000075 0.019593 0.000000 0.000000 0.000000
# 4 0.000000 0.000000 0.000000 0.088972 0.000000 0.000000
# 5 0.000000 0.000000 0.000000 0.000000 0.360973 0.000000
# 6 0.000000 0.000000 0.000000 0.000000 0.000000 0.045712
#
#
# Mechanical properties :
#
#
# Convention : Reuss Voigt Hill
#
# Bulk Modulus (GPa) = 50.11457 55.38928 52.75193
# Shear Modulus (GPa) = 8.40657 16.12639 12.26648
#
# Velocity S-wave (km/s) = 2.30766 3.19618 2.78755
# Velocity P-wave (km/s) = 6.23268 6.97911 6.61643
#
# Compressibility (1/GPa) = 0.01995428
#
# Stress axis : x y z
#
# Youngs Moduli (GPa) = 53.93356 55.32585 51.03901
#
# Poissons Ratio (x) = 0.43915 0.51626
# Poissons Ratio (y) = 0.42810 0.00381
# Poissons Ratio (z) = 0.54554 0.00414
#
# Static dielectric constant tensor:
#      x y z
#    x -13.903620 0.000000 0.000000 
#    y 0.000000 3.151660 0.000000 
#    z 0.000000 0.000000 3.143120 
# 
# 
# High freq. dielectric constant tensor:
#      x y z
#    x 1.585650 0.000000 0.000000 
#    y 0.000000 1.612140 0.000000 
#    z 0.000000 0.000000 1.562880 
# 
# From -- ./inp_files/36830.got.cif
#   From: 2010.03.12/outbox.cif.g09.slc.cpg/sg65_19_cif.got.tgz:36830.got - 2010.04.10 20:52:16.
