data_PCOD8265880
_publ_section_title
;
Structure prediction by ZEFSAII (Michael W. Deem and Ramdas Pophale) SiO2 
 PCOD8265880
Probable space group: C M M M
;
_chemical_formula_sum "Si O2"
_cell_formula_units_Z 112
_cell_length_a 29.204609
_cell_length_b 9.762872
_cell_length_c 22.937550
_cell_angle_alpha 90.000000
_cell_angle_beta 90.000000
_cell_angle_gamma 90.000000
_cell_volume 6539.973970
_symmetry_space_group_name_H-M "C M M M"
_symmetry_group_IT_number 65
_symmetry_cell_setting 'orthorhombic'
loop_
_space_group_symop_operation_xyz
x,y,z
-x,-y,z
x,-y,-z
-x,y,-z
-x,-y,-z
x,y,-z
-x,y,z
x,-y,z
1/2+x,1/2+y,z
1/2-x,1/2-y,z
1/2+x,1/2-y,-z
1/2-x,1/2+y,-z
1/2-x,1/2-y,-z
1/2+x,1/2+y,-z
1/2-x,1/2+y,z
1/2+x,1/2-y,z
loop_
_atom_site_type_symbol
_atom_site_label
_atom_site_fract_x
_atom_site_fract_y
_atom_site_fract_z
Si Si1 0.871214 0.844011 0.065339
Si Si2 0.792691 0.158859 0.847567
Si Si3 0.552223 0.156490 0.242790
Si Si4 0.051271 0.837511 0.435513
Si Si5 0.707842 0.656791 0.286851
Si Si6 0.447944 0.844335 0.892932
Si Si7 0.609253 0.339252 0.327416
O O1 0.834342 0.791474 0.112167
O O2 0.916715 0.754647 0.069245
O O3 0.884656 0.000000 0.079411
O O4 0.850959 0.830346 0.000000
O O5 0.750000 0.250000 0.866650
O O6 0.805430 0.186487 0.780246
O O7 0.780814 0.000000 0.858664
O O8 0.500000 0.183283 0.262259
O O9 0.558098 0.187682 0.174994
O O10 0.585434 0.259594 0.275338
O O11 0.565979 0.000000 0.256995
O O12 0.064546 0.781658 0.500000
O O13 0.088304 0.784724 0.388544
O O14 0.000000 0.786386 0.418751
O O15 0.051618 0.000000 0.436715
O O16 0.723234 0.500000 0.294811
O O17 0.750000 0.750000 0.307946
O O18 0.663593 0.690554 0.326436
O O19 0.500000 0.818610 0.912220
O O20 0.433643 0.000000 0.906229
O O21 0.599607 0.500000 0.318003
#
# Coordination Sequence:
#
# PCOD8265880 Si02
#       7
#    16  16  16  16  16  16  16
#     4  10  21  35  50  70  95 120 149 190 237 279
#     4   9  18  33  50  68  92 119 147 184 232 284
#     4   9  18  31  46  68  98 126 151 185 234 286
#     4   8  14  25  42  67  99 130 159 194 233 269
#     4   9  18  31  47  68  92 118 151 191 235 282
#     4   9  19  35  51  67  91 124 159 192 227 273
#     4  10  18  28  47  73  96 122 160 200 234 273
#
# _framework density 17.125450000000001
#
# number of rings (size 3 to 8) (size 9 to 14) (size 15 to 20)
#    0.000    2.857    0.000    2.571    0.000    4.857 
#    0.000    5.714    0.000    0.857    0.000    2.000 
#    0.000    0.000    0.000    0.000    0.000    0.000 
#
# Total GULP energy -694327.185437 kJ/mol
# GULP energy per Si atom -12398.699740 kJ/mol
# Density = 1.708647 g / cm^3
# Si number density = 17.125450 Si / 1000 Ang^3
#
#
#
# Elastic Constant Matrix: (Units=GPa)
#
#
# Indices 1 2 3 4 5 6 
#
# 1 110.3983 48.1762 54.2427 0.0000 0.0000 0.0000
# 2 48.1762 51.5595 27.7834 0.0000 0.0000 0.0000
# 3 54.2427 27.7834 67.9587 0.0000 0.0000 0.0000
# 4 0.0000 0.0000 0.0000 12.0472 0.0000 0.0000
# 5 0.0000 0.0000 0.0000 0.0000 23.6161 0.0000
# 6 0.0000 0.0000 0.0000 0.0000 0.0000 31.7531
#
#
#
# Elastic Compliance Matrix: (Units=1/GPa)
#
#
# Indices 1 2 3 4 5 6 
#
# 1 0.019886 -0.012861 -0.010614 0.000000 0.000000 0.000000
# 2 -0.012861 0.033193 -0.003305 0.000000 0.000000 0.000000
# 3 -0.010614 -0.003305 0.024538 0.000000 0.000000 0.000000
# 4 0.000000 0.000000 0.000000 0.083007 0.000000 0.000000
# 5 0.000000 0.000000 0.000000 0.000000 0.042344 0.000000
# 6 0.000000 0.000000 0.000000 0.000000 0.000000 0.031493
#
#
# Mechanical properties :
#
#
# Convention : Reuss Voigt Hill
#
# Bulk Modulus (GPa) = 41.56914 54.48012 48.02463
# Shear Modulus (GPa) = 16.88962 20.13090 18.51026
#
# Velocity S-wave (km/s) = 3.14384 3.43227 3.29121
# Velocity P-wave (km/s) = 6.12407 6.89846 6.52277
#
# Compressibility (1/GPa) = 0.02405631
#
# Stress axis : x y z
#
# Youngs Moduli (GPa) = 50.28737 30.12661 40.75338
#
# Poissons Ratio (x) = 0.38747 0.43256
# Poissons Ratio (y) = 0.64676 0.13468
# Poissons Ratio (z) = 0.53376 0.09956
#
# Static dielectric constant tensor:
#      x y z
#    x 3.187940 0.000000 0.000000 
#    y 0.000000 3.043670 0.000000 
#    z 0.000000 0.000000 3.248560 
# 
# 
# High freq. dielectric constant tensor:
#      x y z
#    x 1.655700 0.000000 0.000000 
#    y 0.000000 1.646330 0.000000 
#    z 0.000000 0.000000 1.649910 
# 
# From -- ./inp_files/61824.got.cif
#   From: 2010.03.12/outbox.cif.g09.slc.cpg/sg65_31_cif.got.tgz:61824.got - 2010.04.10 20:52:16.
