data_PCOD8265871
_publ_section_title
;
Structure prediction by ZEFSAII (Michael W. Deem and Ramdas Pophale) SiO2 
 PCOD8265871
Probable space group: C M M M
;
_chemical_formula_sum "Si O2"
_cell_formula_units_Z 80
_cell_length_a 24.948955
_cell_length_b 20.592179
_cell_length_c 9.096082
_cell_angle_alpha 90.000000
_cell_angle_beta 90.000000
_cell_angle_gamma 90.000000
_cell_volume 4673.142574
_symmetry_space_group_name_H-M "C M M M"
_symmetry_group_IT_number 65
_symmetry_cell_setting 'orthorhombic'
loop_
_space_group_symop_operation_xyz
x,y,z
-x,-y,z
x,-y,-z
-x,y,-z
-x,-y,-z
x,y,-z
-x,y,z
x,-y,z
1/2+x,1/2+y,z
1/2-x,1/2-y,z
1/2+x,1/2-y,-z
1/2-x,1/2+y,-z
1/2-x,1/2-y,-z
1/2+x,1/2+y,-z
1/2-x,1/2+y,z
1/2+x,1/2-y,z
loop_
_atom_site_type_symbol
_atom_site_label
_atom_site_fract_x
_atom_site_fract_y
_atom_site_fract_z
Si Si1 0.500000 0.258981 0.831791
Si Si2 0.893714 0.379379 0.172189
Si Si3 0.291974 0.926914 0.668554
Si Si4 0.000000 0.373511 0.326088
Si Si5 0.115903 0.227874 0.833716
Si Si6 0.716973 0.688284 0.327010
O O1 0.500000 0.202388 0.712520
O O2 0.445016 0.299970 0.810639
O O3 0.500000 0.229474 0.000000
O O4 0.844037 0.420381 0.231132
O O5 0.883763 0.303766 0.208459
O O6 0.946769 0.405267 0.255435
O O7 0.900837 0.391729 0.000000
O O8 0.307499 0.910697 0.500000
O O9 0.245961 0.877769 0.723848
O O10 0.269539 0.000000 0.683644
O O11 0.000000 0.384528 0.500000
O O12 0.156651 0.187865 0.733685
O O13 0.134978 0.218102 0.000000
O O14 0.712399 0.693112 0.500000
O O15 0.750000 0.750000 0.264183
#
# Coordination Sequence:
#
# PCOD8265871 Si02
#       6
#     8  16  16   8  16  16
#     4   8  16  30  44  69 104 131 158 198 248 292
#     4  10  19  32  49  70  98 129 165 206 246 286
#     4  10  21  36  51  69  97 131 163 201 249 294
#     4  10  18  28  47  71  96 129 167 204 244 288
#     4   9  17  29  48  72  99 129 159 196 242 289
#     4  10  19  31  49  73  99 125 162 204 240 285
#
# _framework density 17.1191
#
# number of rings (size 3 to 8) (size 9 to 14) (size 15 to 20)
#    0.000    2.400    2.000    2.700    0.000    4.800 
#    0.000    0.500    0.000    3.000    0.000    0.700 
#    0.000    5.600    0.000    0.000    0.000    0.000 
#
# Total GULP energy -495875.553446 kJ/mol
# GULP energy per Si atom -12396.888836 kJ/mol
# Density = 1.708014 g / cm^3
# Si number density = 17.119100 Si / 1000 Ang^3
#
#
#
# Elastic Constant Matrix: (Units=GPa)
#
#
# Indices 1 2 3 4 5 6 
#
# 1 137.2343 51.6284 43.6252 0.0000 0.0000 0.0000
# 2 51.6284 72.0009 29.7185 0.0000 0.0000 0.0000
# 3 43.6252 29.7185 65.9125 0.0000 0.0000 0.0000
# 4 0.0000 0.0000 0.0000 14.3248 0.0000 0.0000
# 5 0.0000 0.0000 0.0000 0.0000 35.5915 0.0000
# 6 0.0000 0.0000 0.0000 0.0000 0.0000 16.1367
#
#
#
# Elastic Compliance Matrix: (Units=1/GPa)
#
#
# Indices 1 2 3 4 5 6 
#
# 1 0.010997 -0.005997 -0.004575 0.000000 0.000000 0.000000
# 2 -0.005997 0.020335 -0.005199 0.000000 0.000000 0.000000
# 3 -0.004575 -0.005199 0.020544 0.000000 0.000000 0.000000
# 4 0.000000 0.000000 0.000000 0.069809 0.000000 0.000000
# 5 0.000000 0.000000 0.000000 0.000000 0.028097 0.000000
# 6 0.000000 0.000000 0.000000 0.000000 0.000000 0.061971
#
#
# Mechanical properties :
#
#
# Convention : Reuss Voigt Hill
#
# Bulk Modulus (GPa) = 49.17972 58.34355 53.76164
# Shear Modulus (GPa) = 19.99418 23.22230 21.60824
#
# Velocity S-wave (km/s) = 3.42123 3.68708 3.55664
# Velocity P-wave (km/s) = 6.66309 7.23056 6.95262
#
# Compressibility (1/GPa) = 0.02033358
#
# Stress axis : x y z
#
# Youngs Moduli (GPa) = 90.93135 49.17582 48.67693
#
# Poissons Ratio (x) = 0.29493 0.22268
# Poissons Ratio (y) = 0.54536 0.25308
# Poissons Ratio (z) = 0.41597 0.25567
#
# Static dielectric constant tensor:
#      x y z
#    x 3.430230 0.000000 0.000000 
#    y 0.000000 2.853600 0.000000 
#    z 0.000000 0.000000 3.115250 
# 
# 
# High freq. dielectric constant tensor:
#      x y z
#    x 1.671070 0.000000 0.000000 
#    y 0.000000 1.607220 0.000000 
#    z 0.000000 0.000000 1.661540 
# 
# From -- ./inp_files/11575.got.cif
#   From: 2010.03.12/outbox.cif.g09.slc.cpg/sg65_6_cif.got.tgz:11575.got - 2010.04.10 20:52:16.
