data_PCOD8265110
_publ_section_title
;
Structure prediction by ZEFSAII (Michael W. Deem and Ramdas Pophale) SiO2 
 PCOD8265110
Probable space group: C M M M
;
_chemical_formula_sum "Si O2"
_cell_formula_units_Z 72
_cell_length_a 8.908235
_cell_length_b 19.020642
_cell_length_c 23.208370
_cell_angle_alpha 90.000000
_cell_angle_beta 90.000000
_cell_angle_gamma 90.000000
_cell_volume 3932.434308
_symmetry_space_group_name_H-M "C M M M"
_symmetry_group_IT_number 65
_symmetry_cell_setting 'orthorhombic'
loop_
_space_group_symop_operation_xyz
x,y,z
-x,-y,z
x,-y,-z
-x,y,-z
-x,-y,-z
x,y,-z
-x,y,z
x,-y,z
1/2+x,1/2+y,z
1/2-x,1/2-y,z
1/2+x,1/2-y,-z
1/2-x,1/2+y,-z
1/2-x,1/2-y,-z
1/2+x,1/2+y,-z
1/2-x,1/2+y,z
1/2+x,1/2-y,z
loop_
_atom_site_type_symbol
_atom_site_label
_atom_site_fract_x
_atom_site_fract_y
_atom_site_fract_z
Si Si1 0.823188 0.419765 0.332732
Si Si2 0.678562 0.171864 0.000000
Si Si3 0.173768 0.174435 0.237881
Si Si4 0.326112 0.324926 0.889769
Si Si5 0.823647 0.678044 0.564721
O O1 0.769265 0.500000 0.335202
O O2 0.743291 0.382380 0.279944
O O3 0.773897 0.384366 0.392952
O O4 0.000000 0.413690 0.323251
O O5 0.750000 0.250000 0.000000
O O6 0.740503 0.133279 0.941740
O O7 0.500000 0.172958 0.000000
O O8 0.250000 0.250000 0.245673
O O9 0.194042 0.141147 0.173520
O O10 0.000000 0.185587 0.252323
O O11 0.500000 0.317135 0.906532
O O12 0.250000 0.250000 0.884435
O O13 0.768822 0.659222 0.500000
O O14 0.750000 0.750000 0.586849
O O15 0.000000 0.689546 0.566201
#
# Coordination Sequence:
#
# PCOD8265110 Si02
#       5
#    16   8  16  16  16
#     4  10  21  35  51  73 101 133 168 207 251 296
#     4  10  16  22  36  60  91 124 155 192 241 291
#     4  10  20  33  51  73  98 131 169 209 251 297
#     4   9  16  26  40  61  90 123 158 196 241 291
#     4   9  18  33  53  76 101 130 165 203 244 293
#
# _framework density 18.309270000000001
#
# number of rings (size 3 to 8) (size 9 to 14) (size 15 to 20)
#    0.000    2.444    0.000    4.333    0.000    6.222 
#    0.000    2.222    0.000    0.000    0.000    5.444 
#    0.000    6.222    0.000    0.000    0.000    0.000 
#
# Total GULP energy -446159.108660 kJ/mol
# GULP energy per Si atom -12393.308574 kJ/mol
# Density = 1.826760 g / cm^3
# Si number density = 18.309270 Si / 1000 Ang^3
#
#
#
# Elastic Constant Matrix: (Units=GPa)
#
#
# Indices 1 2 3 4 5 6 
#
# 1 90.0810 43.9604 65.7554 0.0000 0.0000 0.0000
# 2 43.9604 101.7939 77.2138 0.0000 0.0000 0.0000
# 3 65.7554 77.2138 158.3569 0.0000 0.0000 0.0000
# 4 0.0000 0.0000 0.0000 -13.9280 0.0000 0.0000
# 5 0.0000 0.0000 0.0000 0.0000 31.6232 0.0000
# 6 0.0000 0.0000 0.0000 0.0000 0.0000 20.3916
#
#
#
# Elastic Compliance Matrix: (Units=1/GPa)
#
#
# Indices 1 2 3 4 5 6 
#
# 1 0.016510 -0.003062 -0.005362 0.000000 0.000000 0.000000
# 2 -0.003062 0.016158 -0.006607 0.000000 0.000000 0.000000
# 3 -0.005362 -0.006607 0.011763 0.000000 0.000000 0.000000
# 4 0.000000 0.000000 0.000000 -0.071798 0.000000 0.000000
# 5 0.000000 0.000000 0.000000 0.000000 0.031622 0.000000
# 6 0.000000 0.000000 0.000000 0.000000 0.000000 0.049040
#
#
# Mechanical properties :
#
#
# Convention : Reuss Voigt Hill
#
# Bulk Modulus (GPa) = 69.60146 80.45454 75.02800
# Shear Modulus (GPa) = 56.72340 18.50417 37.61379
#
# Velocity S-wave (km/s) = 5.57207 3.18251 4.53742
# Velocity P-wave (km/s) = 8.91595 7.58564 8.27756
#
# Compressibility (1/GPa) = 0.01436751
#
# Stress axis : x y z
#
# Youngs Moduli (GPa) = 60.56991 61.88983 85.01339
#
# Poissons Ratio (x) = 0.18954 0.45586
# Poissons Ratio (y) = 0.18549 0.56166
# Poissons Ratio (z) = 0.32479 0.40889
#
# Static dielectric constant tensor:
#      x y z
#    x 3.405010 0.000000 0.000000 
#    y 0.000000 3.001300 0.000000 
#    z 0.000000 0.000000 4.487840 
# 
# 
# High freq. dielectric constant tensor:
#      x y z
#    x 1.716510 0.000000 0.000000 
#    y 0.000000 1.650810 0.000000 
#    z 0.000000 0.000000 1.740030 
# 
# From -- ./inp_files/66996.got.cif
#   From: 2010.03.12/outbox.cif.g09.slc.cpg/sg65_34_cif.got.tgz:66996.got - 2010.04.10 20:52:16.
