data_PCOD8265267
_publ_section_title
;
Structure prediction by ZEFSAII (Michael W. Deem and Ramdas Pophale) SiO2 
 PCOD8265267
Probable space group: C M M M
;
_chemical_formula_sum "Si O2"
_cell_formula_units_Z 88
_cell_length_a 21.068265
_cell_length_b 32.555057
_cell_length_c 8.701315
_cell_angle_alpha 90.000000
_cell_angle_beta 90.000000
_cell_angle_gamma 90.000000
_cell_volume 5968.045472
_symmetry_space_group_name_H-M "C M M M"
_symmetry_group_IT_number 65
_symmetry_cell_setting 'orthorhombic'
loop_
_space_group_symop_operation_xyz
x,y,z
-x,-y,z
x,-y,-z
-x,y,-z
-x,-y,-z
x,y,-z
-x,y,z
x,-y,z
1/2+x,1/2+y,z
1/2-x,1/2-y,z
1/2+x,1/2-y,-z
1/2-x,1/2+y,-z
1/2-x,1/2-y,-z
1/2+x,1/2+y,-z
1/2-x,1/2+y,z
1/2+x,1/2-y,z
loop_
_atom_site_type_symbol
_atom_site_label
_atom_site_fract_x
_atom_site_fract_y
_atom_site_fract_z
Si Si1 0.838691 0.246383 0.179711
Si Si2 0.430086 0.321436 0.820398
Si Si3 0.685273 0.622859 0.817935
Si Si4 0.266535 0.811898 0.319191
Si Si5 0.630278 0.546935 0.681253
Si Si6 0.000000 0.951531 0.170970
O O1 0.907726 0.225950 0.208983
O O2 0.789592 0.218553 0.273096
O O3 0.831835 0.293009 0.245110
O O4 0.821367 0.245121 0.000000
O O5 0.500000 0.327906 0.744263
O O6 0.377581 0.353198 0.754842
O O7 0.435598 0.329643 0.000000
O O8 0.749166 0.643383 0.749326
O O9 0.683056 0.575915 0.758925
O O10 0.689552 0.624423 0.000000
O O11 0.275040 0.815410 0.500000
O O12 0.633225 0.551003 0.500000
O O13 0.642768 0.500000 0.733657
O O14 0.561945 0.563152 0.738439
O O15 0.000000 0.000000 0.158901
O O16 0.000000 0.931768 0.000000
#
# Coordination Sequence:
#
# PCOD8265267 Si02
#       6
#    16  16  16  16  16   8
#     4   9  15  25  41  57  75  98 126 157 189 230
#     4   8  15  26  39  57  78  99 125 160 197 230
#     4  10  19  29  43  59  76  98 130 167 199 238
#     4  10  17  26  40  56  76  97 123 157 196 235
#     4  10  20  32  43  56  76  99 125 161 205 245
#     4   9  17  29  43  55  67  91 127 159 189 231
#
# _framework density 14.745196
#
# number of rings (size 3 to 8) (size 9 to 14) (size 15 to 20)
#    0.000    2.636    0.000    5.727    1.273    2.182 
#    0.000    0.000    0.000   10.909    0.000    0.000 
#    0.000    0.000    0.000    0.000    0.000    0.909 
#
# Total GULP energy -545152.483729 kJ/mol
# GULP energy per Si atom -12389.829176 kJ/mol
# Density = 1.471164 g / cm^3
# Si number density = 14.745196 Si / 1000 Ang^3
#
#
#
# Elastic Constant Matrix: (Units=GPa)
#
#
# Indices 1 2 3 4 5 6 
#
# 1 19.4583 22.1471 11.0241 0.0000 0.0000 0.0000
# 2 22.1471 81.0097 27.2162 0.0000 0.0000 0.0000
# 3 11.0241 27.2162 60.5468 0.0000 0.0000 0.0000
# 4 0.0000 0.0000 0.0000 22.9326 0.0000 0.0000
# 5 0.0000 0.0000 0.0000 0.0000 10.7767 0.0000
# 6 0.0000 0.0000 0.0000 0.0000 0.0000 20.8121
#
#
#
# Elastic Compliance Matrix: (Units=1/GPa)
#
#
# Indices 1 2 3 4 5 6 
#
# 1 0.076024 -0.019003 -0.005300 0.000000 0.000000 0.000000
# 2 -0.019003 0.019290 -0.005211 0.000000 0.000000 0.000000
# 3 -0.005300 -0.005211 0.019824 0.000000 0.000000 0.000000
# 4 0.000000 0.000000 0.000000 0.043606 0.000000 0.000000
# 5 0.000000 0.000000 0.000000 0.000000 0.092793 0.000000
# 6 0.000000 0.000000 0.000000 0.000000 0.000000 0.048049
#
#
# Mechanical properties :
#
#
# Convention : Reuss Voigt Hill
#
# Bulk Modulus (GPa) = 17.82247 31.30995 24.56621
# Shear Modulus (GPa) = 13.25145 17.61279 15.43212
#
# Velocity S-wave (km/s) = 3.00108 3.45987 3.23861
# Velocity P-wave (km/s) = 4.91140 6.10254 5.53908
#
# Compressibility (1/GPa) = 0.05610895
#
# Stress axis : x y z
#
# Youngs Moduli (GPa) = 13.15374 51.83971 50.44515
#
# Poissons Ratio (x) = 0.98514 0.26735
# Poissons Ratio (y) = 0.24997 0.26287
# Poissons Ratio (z) = 0.06971 0.27014
#
# Static dielectric constant tensor:
#      x y z
#    x 2.981450 0.000000 0.000000 
#    y 0.000000 3.119240 0.000000 
#    z 0.000000 0.000000 2.809480 
# 
# 
# High freq. dielectric constant tensor:
#      x y z
#    x 1.509510 0.000000 0.000000 
#    y 0.000000 1.553060 0.000000 
#    z 0.000000 0.000000 1.567670 
# 
# From -- ./inp_files/14959.got.cif
#   From: 2010.03.12/outbox.cif.g09.slc.cpg/sg65_8_cif.got.tgz:14959.got - 2010.04.10 20:52:16.
