data_PCOD8265383
_publ_section_title
;
Structure prediction by ZEFSAII (Michael W. Deem and Ramdas Pophale) SiO2 
 PCOD8265383
Probable space group: C M M M
;
_chemical_formula_sum "Si O2"
_cell_formula_units_Z 84
_cell_length_a 19.966881
_cell_length_b 18.405429
_cell_length_c 13.920070
_cell_angle_alpha 90.000000
_cell_angle_beta 90.000000
_cell_angle_gamma 90.000000
_cell_volume 5115.611952
_symmetry_space_group_name_H-M "C M M M"
_symmetry_group_IT_number 65
_symmetry_cell_setting 'orthorhombic'
loop_
_space_group_symop_operation_xyz
x,y,z
-x,-y,z
x,-y,-z
-x,y,-z
-x,-y,-z
x,y,-z
-x,y,z
x,-y,z
1/2+x,1/2+y,z
1/2-x,1/2-y,z
1/2+x,1/2-y,-z
1/2-x,1/2+y,-z
1/2-x,1/2-y,-z
1/2+x,1/2+y,-z
1/2-x,1/2+y,z
1/2+x,1/2-y,z
loop_
_atom_site_type_symbol
_atom_site_label
_atom_site_fract_x
_atom_site_fract_y
_atom_site_fract_z
Si Si1 0.820664 0.653908 0.108340
Si Si2 0.000000 0.000000 0.257450
Si Si3 0.368407 0.341173 0.292386
Si Si4 0.353925 0.500000 0.240994
Si Si5 0.775100 0.500000 0.108928
Si Si6 0.500000 0.359821 0.612081
Si Si7 0.576757 0.272811 0.891049
Si Si8 0.750000 0.250000 0.256456
O O1 0.823187 0.568287 0.131292
O O2 0.893261 0.691423 0.119467
O O3 0.770664 0.685010 0.186728
O O4 0.793043 0.667526 0.000000
O O5 0.069429 0.000000 0.195581
O O6 0.000000 0.932415 0.327376
O O7 0.347883 0.426238 0.305653
O O8 0.431649 0.317810 0.358597
O O9 0.385261 0.328451 0.179325
O O10 0.308488 0.285567 0.322128
O O11 0.295093 0.500000 0.164540
O O12 0.750945 0.500000 0.000000
O O13 0.500000 0.376070 0.500000
O O14 0.500000 0.268035 0.860234
O O15 0.585343 0.301764 0.000000
#
# Coordination Sequence:
#
# PCOD8265383 Si02
#       8
#    16   4  16   8   8   8  16   8
#     4   9  17  27  42  62  88 124 161 190 224 268
#     4   8  19  32  51  64  84 116 155 182 222 280
#     4  10  19  31  48  70  91 123 156 186 228 274
#     4  10  18  31  43  61  93 119 151 192 220 255
#     4  10  18  28  41  63  92 124 158 193 229 262
#     4  10  19  34  51  69  92 118 148 188 233 283
#     4   9  17  30  46  65  93 125 157 190 222 268
#     4  10  17  28  47  64  90 120 156 190 224 268
#
# _framework density 16.420323
#
# number of rings (size 3 to 8) (size 9 to 14) (size 15 to 20)
#    0.000    2.476    2.857    0.429    0.000    1.524 
#    0.000    1.190    0.000    2.857    0.000    0.000 
#    0.000    0.000    0.000   21.429    0.000    0.476 
#
# Total GULP energy -520313.618532 kJ/mol
# GULP energy per Si atom -12388.419489 kJ/mol
# Density = 1.638295 g / cm^3
# Si number density = 16.420323 Si / 1000 Ang^3
#
#
#
# Elastic Constant Matrix: (Units=GPa)
#
#
# Indices 1 2 3 4 5 6 
#
# 1 89.3893 36.4414 17.6067 0.0000 0.0000 0.0000
# 2 36.4414 95.0004 18.2836 0.0000 0.0000 0.0000
# 3 17.6067 18.2836 35.3820 0.0000 0.0000 0.0000
# 4 0.0000 0.0000 0.0000 87.1543 0.0000 0.0000
# 5 0.0000 0.0000 0.0000 0.0000 12.0578 0.0000
# 6 0.0000 0.0000 0.0000 0.0000 0.0000 24.3999
#
#
#
# Elastic Compliance Matrix: (Units=1/GPa)
#
#
# Indices 1 2 3 4 5 6 
#
# 1 0.013910 -0.004446 -0.004625 0.000000 0.000000 0.000000
# 2 -0.004446 0.013110 -0.004562 0.000000 0.000000 0.000000
# 3 -0.004625 -0.004562 0.032922 0.000000 0.000000 0.000000
# 4 0.000000 0.000000 0.000000 0.011474 0.000000 0.000000
# 5 0.000000 0.000000 0.000000 0.000000 0.082934 0.000000
# 6 0.000000 0.000000 0.000000 0.000000 0.000000 0.040984
#
#
# Mechanical properties :
#
#
# Convention : Reuss Voigt Hill
#
# Bulk Modulus (GPa) = 30.60296 40.49280 35.54788
# Shear Modulus (GPa) = 21.41412 34.55172 27.98292
#
# Velocity S-wave (km/s) = 3.61518 4.59214 4.13263
# Velocity P-wave (km/s) = 6.00864 7.26847 6.66837
#
# Compressibility (1/GPa) = 0.03267658
#
# Stress axis : x y z
#
# Youngs Moduli (GPa) = 71.88876 76.27956 30.37510
#
# Poissons Ratio (x) = 0.33913 0.14047
# Poissons Ratio (y) = 0.31961 0.13857
# Poissons Ratio (z) = 0.33246 0.34799
#
# Static dielectric constant tensor:
#      x y z
#    x 3.383690 0.000000 0.000000 
#    y 0.000000 3.231620 0.000000 
#    z 0.000000 0.000000 2.698980 
# 
# 
# High freq. dielectric constant tensor:
#      x y z
#    x 1.637650 0.000000 0.000000 
#    y 0.000000 1.628990 0.000000 
#    z 0.000000 0.000000 1.582470 
# 
# From -- ./inp_files/29005.got.cif
#   From: 2010.03.12/outbox.cif.g09.slc.cpg/sg65_15_cif.got.tgz:29005.got - 2010.04.10 20:52:16.
