data_PCOD8265698
_publ_section_title
;
Structure prediction by ZEFSAII (Michael W. Deem and Ramdas Pophale) SiO2 
 PCOD8265698
Probable space group: C M M M
;
_chemical_formula_sum "Si O2"
_cell_formula_units_Z 72
_cell_length_a 18.454928
_cell_length_b 34.323171
_cell_length_c 8.039061
_cell_angle_alpha 90.000000
_cell_angle_beta 90.000000
_cell_angle_gamma 90.000000
_cell_volume 5092.195670
_symmetry_space_group_name_H-M "C M M M"
_symmetry_group_IT_number 65
_symmetry_cell_setting 'orthorhombic'
loop_
_space_group_symop_operation_xyz
x,y,z
-x,-y,z
x,-y,-z
-x,y,-z
-x,-y,-z
x,y,-z
-x,y,z
x,-y,z
1/2+x,1/2+y,z
1/2-x,1/2-y,z
1/2+x,1/2-y,-z
1/2-x,1/2+y,-z
1/2-x,1/2-y,-z
1/2+x,1/2+y,-z
1/2-x,1/2+y,z
1/2+x,1/2-y,z
loop_
_atom_site_type_symbol
_atom_site_label
_atom_site_fract_x
_atom_site_fract_y
_atom_site_fract_z
Si Si1 0.914024 0.456449 0.500000
Si Si2 0.659107 0.831596 0.308419
Si Si3 0.703831 0.288991 0.684226
Si Si4 0.915809 0.593922 0.186859
Si Si5 0.418659 0.242606 0.188981
O O1 0.881257 0.500000 0.500000
O O2 0.887192 0.435363 0.669769
O O3 0.000000 0.458305 0.500000
O O4 0.659866 0.844988 0.500000
O O5 0.741455 0.822177 0.245052
O O6 0.627859 0.865854 0.195775
O O7 0.609222 0.793180 0.299349
O O8 0.678376 0.300885 0.500000
O O9 0.750000 0.250000 0.678174
O O10 0.631580 0.281325 0.791864
O O11 0.000000 0.603357 0.218132
O O12 0.904405 0.576394 0.000000
O O13 0.500000 0.253763 0.243931
O O14 0.416121 0.228454 0.000000
#
# Coordination Sequence:
#
# PCOD8265698 Si02
#       5
#     8  16  16  16  16
#     4   9  18  32  46  60  81 106 129 159 198 235
#     4  10  18  28  41  56  76 100 130 170 208 237
#     4   8  16  28  39  52  70  96 130 164 200 242
#     4  10  19  29  43  63  82 103 134 166 199 238
#     4  10  19  27  36  53  75 100 133 170 205 240
#
# _framework density 14.139284
#
# number of rings (size 3 to 8) (size 9 to 14) (size 15 to 20)
#    0.000    2.556    1.111    3.333    0.000    9.778 
#    0.000    2.222    0.000    0.000    0.000    0.000 
#    0.000    0.000    0.000    0.000    0.000    2.222 
#
# Total GULP energy -446094.343464 kJ/mol
# GULP energy per Si atom -12391.509541 kJ/mol
# Density = 1.410710 g / cm^3
# Si number density = 14.139284 Si / 1000 Ang^3
#
#
#
# Elastic Constant Matrix: (Units=GPa)
#
#
# Indices 1 2 3 4 5 6 
#
# 1 74.9832 31.9382 24.5459 0.0000 0.0000 0.0000
# 2 31.9382 63.5120 31.1170 0.0000 0.0000 0.0000
# 3 24.5459 31.1170 73.8680 0.0000 0.0000 0.0000
# 4 0.0000 0.0000 0.0000 14.1896 0.0000 0.0000
# 5 0.0000 0.0000 0.0000 0.0000 16.8472 0.0000
# 6 0.0000 0.0000 0.0000 0.0000 0.0000 11.5897
#
#
#
# Elastic Compliance Matrix: (Units=1/GPa)
#
#
# Indices 1 2 3 4 5 6 
#
# 1 0.017370 -0.007443 -0.002636 0.000000 0.000000 0.000000
# 2 -0.007443 0.023029 -0.007228 0.000000 0.000000 0.000000
# 3 -0.002636 -0.007228 0.017458 0.000000 0.000000 0.000000
# 4 0.000000 0.000000 0.000000 0.070474 0.000000 0.000000
# 5 0.000000 0.000000 0.000000 0.000000 0.059357 0.000000
# 6 0.000000 0.000000 0.000000 0.000000 0.000000 0.086284
#
#
# Mechanical properties :
#
#
# Convention : Reuss Voigt Hill
#
# Bulk Modulus (GPa) = 43.02415 43.06281 43.04348
# Shear Modulus (GPa) = 15.80609 16.84277 16.32443
#
# Velocity S-wave (km/s) = 3.34711 3.45513 3.40155
# Velocity P-wave (km/s) = 6.74035 6.81465 6.77760
#
# Compressibility (1/GPa) = 0.02324276
#
# Stress axis : x y z
#
# Youngs Moduli (GPa) = 57.57187 43.42345 57.27877
#
# Poissons Ratio (x) = 0.32320 0.15101
# Poissons Ratio (y) = 0.42850 0.41400
# Poissons Ratio (z) = 0.15179 0.31386
#
# Static dielectric constant tensor:
#      x y z
#    x 2.847770 0.000000 0.000000 
#    y 0.000000 2.599070 0.000000 
#    z 0.000000 0.000000 2.874130 
# 
# 
# High freq. dielectric constant tensor:
#      x y z
#    x 1.513930 0.000000 0.000000 
#    y 0.000000 1.493580 0.000000 
#    z 0.000000 0.000000 1.553650 
# 
# From -- ./inp_files/9443.got.cif
#   From: 2010.03.12/outbox.cif.g09.slc.cpg/sg65_5_cif.got.tgz:9443.got - 2010.04.10 20:52:16.
