data_PCOD8265553
_publ_section_title
;
Structure prediction by ZEFSAII (Michael W. Deem and Ramdas Pophale) SiO2 
 PCOD8265553
Probable space group: C M M M
;
_chemical_formula_sum "Si O2"
_cell_formula_units_Z 104
_cell_length_a 36.576859
_cell_length_b 27.359308
_cell_length_c 9.122397
_cell_angle_alpha 90.000000
_cell_angle_beta 90.000000
_cell_angle_gamma 90.000000
_cell_volume 9128.942786
_symmetry_space_group_name_H-M "C M M M"
_symmetry_group_IT_number 65
_symmetry_cell_setting 'orthorhombic'
loop_
_space_group_symop_operation_xyz
x,y,z
-x,-y,z
x,-y,-z
-x,y,-z
-x,-y,-z
x,y,-z
-x,y,z
x,-y,z
1/2+x,1/2+y,z
1/2-x,1/2-y,z
1/2+x,1/2-y,-z
1/2-x,1/2+y,-z
1/2-x,1/2-y,-z
1/2+x,1/2+y,-z
1/2-x,1/2+y,z
1/2+x,1/2-y,z
loop_
_atom_site_type_symbol
_atom_site_label
_atom_site_fract_x
_atom_site_fract_y
_atom_site_fract_z
Si Si1 0.500000 0.946902 0.327321
Si Si2 0.211716 0.777966 0.165759
Si Si3 0.920933 0.441740 0.667918
Si Si4 0.781803 0.555978 0.170998
Si Si5 0.254177 0.360979 0.665318
Si Si6 0.822259 0.305308 0.334296
Si Si7 0.643858 0.890704 0.828377
O O1 0.500000 0.955033 0.500000
O O2 0.538535 0.920764 0.286638
O O3 0.500000 0.000000 0.250490
O O4 0.250000 0.750000 0.166764
O O5 0.215560 0.830066 0.246508
O O6 0.181214 0.746138 0.249903
O O7 0.198444 0.787012 0.000000
O O8 0.911346 0.427963 0.500000
O O9 0.919901 0.500000 0.688014
O O10 0.892772 0.416775 0.776787
O O11 0.778286 0.500000 0.219841
O O12 0.751385 0.586551 0.258647
O O13 0.822449 0.573866 0.210999
O O14 0.774041 0.563278 0.000000
O O15 0.268127 0.368884 0.500000
O O16 0.216426 0.332015 0.667450
O O17 0.835304 0.295321 0.500000
O O18 0.852008 0.338882 0.253093
O O19 0.641734 0.880164 0.000000
#
# Coordination Sequence:
#
# PCOD8265553 Si02
#       7
#     8  16  16  16  16  16  16
#     4   7  12  24  39  51  61  75  97 123 149 179
#     4   9  15  23  35  48  61  77  95 116 144 176
#     4   9  16  26  39  51  62  78 100 124 150 182
#     4   9  17  27  35  43  59  82 103 123 150 184
#     4   9  16  24  34  47  60  75  97 123 147 173
#     4   9  16  25  35  47  62  78  97 120 144 173
#     4  10  18  26  35  48  65  82  99 120 150 187
#
# _framework density 11.392336999999999
#
# number of rings (size 3 to 8) (size 9 to 14) (size 15 to 20)
#    0.000    3.000    0.000    3.231    0.000    7.385 
#    0.000    0.385    0.000    1.385    0.000    0.000 
#    0.000    0.000    0.000    0.000    0.000    0.000 
#
# Total GULP energy -644516.800023 kJ/mol
# GULP energy per Si atom -12394.553847 kJ/mol
# Density = 1.136641 g / cm^3
# Si number density = 11.392337 Si / 1000 Ang^3
#
#
#
# Elastic Constant Matrix: (Units=GPa)
#
#
# Indices 1 2 3 4 5 6 
#
# 1 31.5556 34.1868 27.5058 0.0000 0.0000 0.0000
# 2 34.1868 69.0201 42.8735 0.0000 0.0000 0.0000
# 3 27.5058 42.8735 79.8609 0.0000 0.0000 0.0000
# 4 0.0000 0.0000 0.0000 20.3797 0.0000 0.0000
# 5 0.0000 0.0000 0.0000 0.0000 12.7494 0.0000
# 6 0.0000 0.0000 0.0000 0.0000 0.0000 8.5375
#
#
#
# Elastic Compliance Matrix: (Units=1/GPa)
#
#
# Indices 1 2 3 4 5 6 
#
# 1 0.072026 -0.030406 -0.008484 0.000000 0.000000 0.000000
# 2 -0.030406 0.034573 -0.008088 0.000000 0.000000 0.000000
# 3 -0.008484 -0.008088 0.019786 0.000000 0.000000 0.000000
# 4 0.000000 0.000000 0.000000 0.049068 0.000000 0.000000
# 5 0.000000 0.000000 0.000000 0.000000 0.078435 0.000000
# 6 0.000000 0.000000 0.000000 0.000000 0.000000 0.117130
#
#
# Mechanical properties :
#
#
# Convention : Reuss Voigt Hill
#
# Bulk Modulus (GPa) = 30.83618 43.28543 37.06081
# Shear Modulus (GPa) = 10.50894 13.39136 11.95015
#
# Velocity S-wave (km/s) = 3.04049 3.43223 3.24228
# Velocity P-wave (km/s) = 6.28111 7.33380 6.82778
#
# Compressibility (1/GPa) = 0.03242943
#
# Stress axis : x y z
#
# Youngs Moduli (GPa) = 13.88382 28.92399 50.54054
#
# Poissons Ratio (x) = 0.87946 0.42878
# Poissons Ratio (y) = 0.42215 0.40879
# Poissons Ratio (z) = 0.11779 0.23395
#
# Static dielectric constant tensor:
#      x y z
#    x 2.200190 0.000000 0.000000 
#    y 0.000000 2.332480 0.000000 
#    z 0.000000 0.000000 2.496930 
# 
# 
# High freq. dielectric constant tensor:
#      x y z
#    x 1.382560 0.000000 0.000000 
#    y 0.000000 1.409610 0.000000 
#    z 0.000000 0.000000 1.442900 
# 
# From -- ./inp_files/17015.got.cif
#   From: 2010.03.12/outbox.cif.g09.slc.cpg/sg65_9_cif.got.tgz:17015.got - 2010.04.10 20:52:16.
