data_PCOD8265284
_publ_section_title
;
Structure prediction by ZEFSAII (Michael W. Deem and Ramdas Pophale) SiO2 
 PCOD8265284
Probable space group: C M M M
;
_chemical_formula_sum "Si O2"
_cell_formula_units_Z 72
_cell_length_a 8.691583
_cell_length_b 18.042530
_cell_length_c 23.682111
_cell_angle_alpha 90.000000
_cell_angle_beta 90.000000
_cell_angle_gamma 90.000000
_cell_volume 3713.784765
_symmetry_space_group_name_H-M "C M M M"
_symmetry_group_IT_number 65
_symmetry_cell_setting 'orthorhombic'
loop_
_space_group_symop_operation_xyz
x,y,z
-x,-y,z
x,-y,-z
-x,y,-z
-x,-y,-z
x,y,-z
-x,y,z
x,-y,z
1/2+x,1/2+y,z
1/2-x,1/2-y,z
1/2+x,1/2-y,-z
1/2-x,1/2+y,-z
1/2-x,1/2-y,-z
1/2+x,1/2+y,-z
1/2-x,1/2+y,z
1/2+x,1/2-y,z
loop_
_atom_site_type_symbol
_atom_site_label
_atom_site_fract_x
_atom_site_fract_y
_atom_site_fract_z
Si Si1 0.822068 0.586734 0.612075
Si Si2 0.818348 0.330981 0.500000
Si Si3 0.319200 0.330947 0.714455
Si Si4 0.818019 0.332292 0.171605
Si Si5 0.820551 0.831064 0.061201
O O1 0.797347 0.500000 0.604304
O O2 0.761296 0.625641 0.555301
O O3 0.718679 0.614919 0.663288
O O4 0.000000 0.606220 0.624077
O O5 0.750000 0.250000 0.500000
O O6 0.000000 0.325816 0.500000
O O7 0.500000 0.322561 0.722047
O O8 0.250000 0.250000 0.702419
O O9 0.248229 0.368692 0.771176
O O10 0.750000 0.250000 0.169643
O O11 0.760498 0.373874 0.114014
O O12 0.000000 0.332334 0.174041
O O13 0.750000 0.750000 0.056914
O O14 0.000000 0.824413 0.074488
O O15 0.793058 0.871070 0.000000
#
# Coordination Sequence:
#
# PCOD8265284 Si02
#       5
#    16   8  16  16  16
#     4  10  21  38  58  80 108 140 174 212 257 307
#     4  10  21  37  59  85 111 142 175 210 252 300
#     4  11  21  34  52  74 102 135 175 218 262 312
#     4  10  17  26  41  61  88 123 165 210 257 307
#     4   9  15  22  33  52  82 120 160 202 251 306
#
# _framework density 19.387229000000001
#
# number of rings (size 3 to 8) (size 9 to 14) (size 15 to 20)
#    0.000    2.000    0.000    8.333    0.000    5.778 
#    0.000    0.000    0.000    2.000    0.000    0.000 
#    0.000    0.889    0.000    9.333    0.000    7.778 
#
# Total GULP energy -446188.273778 kJ/mol
# GULP energy per Si atom -12394.118716 kJ/mol
# Density = 1.934310 g / cm^3
# Si number density = 19.387229 Si / 1000 Ang^3
#
#
#
# Elastic Constant Matrix: (Units=GPa)
#
#
# Indices 1 2 3 4 5 6 
#
# 1 143.8236 25.0511 75.3285 0.0000 0.0000 0.0000
# 2 25.0511 53.6170 43.1024 0.0000 0.0000 0.0000
# 3 75.3285 43.1024 208.1838 0.0000 0.0000 0.0000
# 4 0.0000 0.0000 0.0000 0.0947 0.0000 0.0000
# 5 0.0000 0.0000 0.0000 0.0000 32.8309 0.0000
# 6 0.0000 0.0000 0.0000 0.0000 0.0000 18.4318
#
#
#
# Elastic Compliance Matrix: (Units=1/GPa)
#
#
# Indices 1 2 3 4 5 6 
#
# 1 0.008729 -0.001847 -0.002776 0.000000 0.000000 0.000000
# 2 -0.001847 0.022765 -0.004045 0.000000 0.000000 0.000000
# 3 -0.002776 -0.004045 0.006645 0.000000 0.000000 0.000000
# 4 0.000000 0.000000 0.000000 10.564036 0.000000 0.000000
# 5 0.000000 0.000000 0.000000 0.000000 0.030459 0.000000
# 6 0.000000 0.000000 0.000000 0.000000 0.000000 0.054254
#
#
# Mechanical properties :
#
#
# Convention : Reuss Voigt Hill
#
# Bulk Modulus (GPa) = 48.06794 76.95428 62.51111
# Shear Modulus (GPa) = 0.46680 27.74762 14.10721
#
# Velocity S-wave (km/s) = 0.49122 3.78727 2.70043
# Velocity P-wave (km/s) = 5.01689 7.67489 6.48356
#
# Compressibility (1/GPa) = 0.02080389
#
# Stress axis : x y z
#
# Youngs Moduli (GPa) = 114.56670 43.92617 150.47950
#
# Poissons Ratio (x) = 0.08111 0.41773
# Poissons Ratio (y) = 0.21156 0.60872
# Poissons Ratio (z) = 0.31804 0.17769
#
# Static dielectric constant tensor:
#      x y z
#    x 3.438430 0.000000 0.000000 
#    y 0.000000 2.842450 0.000000 
#    z 0.000000 0.000000 4.887430 
# 
# 
# High freq. dielectric constant tensor:
#      x y z
#    x 1.763220 0.000000 0.000000 
#    y 0.000000 1.682620 0.000000 
#    z 0.000000 0.000000 1.793570 
# 
# From -- ./inp_files/67011.got.cif
#   From: 2010.03.12/outbox.cif.g09.slc.cpg/sg65_34_cif.got.tgz:67011.got - 2010.04.10 20:52:16.
