data_PCOD8265610
_publ_section_title
;
Structure prediction by ZEFSAII (Michael W. Deem and Ramdas Pophale) SiO2 
 PCOD8265610
Probable space group: C M M M
;
_chemical_formula_sum "Si O2"
_cell_formula_units_Z 104
_cell_length_a 20.421573
_cell_length_b 24.030614
_cell_length_c 14.778147
_cell_angle_alpha 90.000000
_cell_angle_beta 90.000000
_cell_angle_gamma 90.000000
_cell_volume 7252.271278
_symmetry_space_group_name_H-M "C M M M"
_symmetry_group_IT_number 65
_symmetry_cell_setting 'orthorhombic'
loop_
_space_group_symop_operation_xyz
x,y,z
-x,-y,z
x,-y,-z
-x,y,-z
-x,-y,-z
x,y,-z
-x,y,z
x,-y,z
1/2+x,1/2+y,z
1/2-x,1/2-y,z
1/2+x,1/2-y,-z
1/2-x,1/2+y,-z
1/2-x,1/2-y,-z
1/2+x,1/2+y,-z
1/2-x,1/2+y,z
1/2+x,1/2-y,z
loop_
_atom_site_type_symbol
_atom_site_label
_atom_site_fract_x
_atom_site_fract_y
_atom_site_fract_z
Si Si1 0.626028 0.370789 0.392822
Si Si2 0.427501 0.838411 0.395665
Si Si3 0.500000 0.564068 0.391822
Si Si4 0.426591 0.065727 0.902030
Si Si5 0.674698 0.253243 0.607770
Si Si6 0.378867 0.935377 0.712695
Si Si7 0.251731 0.935991 0.398814
O O1 0.619668 0.370323 0.500000
O O2 0.562248 0.401737 0.352878
O O3 0.637086 0.308233 0.356045
O O4 0.688830 0.404990 0.361180
O O5 0.413950 0.851710 0.500000
O O6 0.500000 0.811161 0.383665
O O7 0.369872 0.798214 0.357879
O O8 0.428562 0.896784 0.342540
O O9 0.500000 0.500000 0.356257
O O10 0.500000 0.563179 0.500000
O O11 0.500000 0.088661 0.884175
O O12 0.379989 0.083063 0.818449
O O13 0.429439 0.000000 0.907326
O O14 0.400706 0.088584 0.000000
O O15 0.676666 0.254387 0.500000
O O16 0.750000 0.250000 0.644405
O O17 0.307440 0.923704 0.673549
O O18 0.399675 0.000000 0.700202
O O19 0.271997 0.914580 0.500000
O O20 0.233434 0.000000 0.404497
#
# Coordination Sequence:
#
# PCOD8265610 Si02
#       7
#    16  16   8  16  16  16  16
#     4   9  16  25  39  53  72 102 136 171 205 239
#     4  10  20  29  37  52  77 103 131 168 198 221
#     4   9  16  24  36  56  76  96 130 174 216 253
#     4   8  14  25  40  56  73  94 123 159 197 235
#     4   9  17  28  40  51  67  97 137 171 198 230
#     4  10  18  27  40  56  76 105 135 159 190 231
#     4   9  16  25  37  55  80 107 134 163 192 228
#
# _framework density 14.340335
#
# number of rings (size 3 to 8) (size 9 to 14) (size 15 to 20)
#    0.000    2.846    0.000    2.769    1.077    6.154 
#    0.000    0.769    0.000    0.000    0.000    0.000 
#    0.000    5.538    0.000    0.692    0.000   14.385 
#
# Total GULP energy -644268.391984 kJ/mol
# GULP energy per Si atom -12389.776769 kJ/mol
# Density = 1.430770 g / cm^3
# Si number density = 14.340335 Si / 1000 Ang^3
#
#
#
# Elastic Constant Matrix: (Units=GPa)
#
#
# Indices 1 2 3 4 5 6 
#
# 1 96.3250 52.6714 39.2067 0.0000 0.0000 0.0000
# 2 52.6714 71.2278 24.3754 0.0000 0.0000 0.0000
# 3 39.2067 24.3754 64.8026 0.0000 0.0000 0.0000
# 4 0.0000 0.0000 0.0000 4.8546 0.0000 0.0000
# 5 0.0000 0.0000 0.0000 0.0000 3.0199 0.0000
# 6 0.0000 0.0000 0.0000 0.0000 0.0000 25.4998
#
#
#
# Elastic Compliance Matrix: (Units=1/GPa)
#
#
# Indices 1 2 3 4 5 6 
#
# 1 0.020231 -0.012363 -0.007590 0.000000 0.000000 0.000000
# 2 -0.012363 0.023669 -0.001423 0.000000 0.000000 0.000000
# 3 -0.007590 -0.001423 0.020559 0.000000 0.000000 0.000000
# 4 0.000000 0.000000 0.000000 0.205992 0.000000 0.000000
# 5 0.000000 0.000000 0.000000 0.000000 0.331140 0.000000
# 6 0.000000 0.000000 0.000000 0.000000 0.000000 0.039216
#
#
# Mechanical properties :
#
#
# Convention : Reuss Voigt Hill
#
# Bulk Modulus (GPa) = 46.06892 51.65138 48.86015
# Shear Modulus (GPa) = 7.23806 14.41498 10.82652
#
# Velocity S-wave (km/s) = 2.24907 3.17394 2.75065
# Velocity P-wave (km/s) = 6.24016 7.03763 6.65086
#
# Compressibility (1/GPa) = 0.02170661
#
# Stress axis : x y z
#
# Youngs Moduli (GPa) = 49.42930 42.25007 48.64119
#
# Poissons Ratio (x) = 0.52234 0.36918
# Poissons Ratio (y) = 0.61109 0.06922
# Poissons Ratio (z) = 0.37516 0.06013
#
# Static dielectric constant tensor:
#      x y z
#    x 2.923930 0.000000 0.000000 
#    y 0.000000 2.861970 0.000000 
#    z 0.000000 0.000000 2.625750 
# 
# 
# High freq. dielectric constant tensor:
#      x y z
#    x 1.552910 0.000000 0.000000 
#    y 0.000000 1.543350 0.000000 
#    z 0.000000 0.000000 1.482810 
# 
# From -- ./inp_files/43276.got.cif
#   From: 2010.03.12/outbox.cif.g09.slc.cpg/sg65_22_cif.got.tgz:43276.got - 2010.04.10 20:52:16.
