data_PCOD8265651
_publ_section_title
;
Structure prediction by ZEFSAII (Michael W. Deem and Ramdas Pophale) SiO2 
 PCOD8265651
Probable space group: C M M M
;
_chemical_formula_sum "Si O2"
_cell_formula_units_Z 112
_cell_length_a 28.317797
_cell_length_b 15.864686
_cell_length_c 16.938120
_cell_angle_alpha 90.000000
_cell_angle_beta 90.000000
_cell_angle_gamma 90.000000
_cell_volume 7609.500506
_symmetry_space_group_name_H-M "C M M M"
_symmetry_group_IT_number 65
_symmetry_cell_setting 'orthorhombic'
loop_
_space_group_symop_operation_xyz
x,y,z
-x,-y,z
x,-y,-z
-x,y,-z
-x,-y,-z
x,y,-z
-x,y,z
x,-y,z
1/2+x,1/2+y,z
1/2-x,1/2-y,z
1/2+x,1/2-y,-z
1/2-x,1/2+y,-z
1/2-x,1/2-y,-z
1/2+x,1/2+y,-z
1/2-x,1/2+y,z
1/2+x,1/2-y,z
loop_
_atom_site_type_symbol
_atom_site_label
_atom_site_fract_x
_atom_site_fract_y
_atom_site_fract_z
Si Si1 0.183583 0.407611 0.500000
Si Si2 0.806337 0.243851 0.910115
Si Si3 0.144108 0.656686 0.336978
Si Si4 0.703251 0.307706 0.345829
Si Si5 0.819048 0.408295 0.823874
Si Si6 0.794763 0.905978 0.500000
Si Si7 0.946727 0.401042 0.590488
Si Si8 0.709232 0.593046 0.191970
O O1 0.159787 0.500000 0.500000
O O2 0.168991 0.362160 0.579886
O O3 0.239104 0.413976 0.500000
O O4 0.750000 0.250000 0.902713
O O5 0.833969 0.326255 0.875374
O O6 0.820310 0.159861 0.861051
O O7 0.822786 0.232946 0.000000
O O8 0.158771 0.752032 0.316731
O O9 0.163019 0.598154 0.266398
O O10 0.087790 0.646883 0.348639
O O11 0.750000 0.250000 0.353625
O O12 0.688046 0.352768 0.425727
O O13 0.710519 0.380748 0.282886
O O14 0.838236 0.500000 0.855324
O O15 0.763212 0.411096 0.833559
O O16 0.817201 0.000000 0.500000
O O17 0.932186 0.380829 0.500000
O O18 0.942707 0.500000 0.606127
O O19 0.000000 0.369906 0.606787
O O20 0.686113 0.500000 0.182949
#
# Coordination Sequence:
#
# PCOD8265651 Si02
#       8
#     8  16  16  16  16   8  16  16
#     4  11  19  25  36  58  81 113 155 184 205 251
#     4   9  17  30  43  58  82 113 150 189 222 258
#     4  12  19  27  44  61  86 116 153 182 224 267
#     4  12  19  30  40  58  87 117 151 188 222 259
#     4  10  18  27  42  63  85 115 150 182 218 265
#     4  11  22  30  36  54  85 124 158 185 220 258
#     4   9  18  31  44  61  86 114 147 190 232 266
#     4  10  18  30  43  57  83 118 152 187 222 255
#
# _framework density 14.718443000000001
#
# number of rings (size 3 to 8) (size 9 to 14) (size 15 to 20)
#    0.000    1.571    5.000    3.214    0.000    2.857 
#    0.000    2.857    0.000    0.000    0.000    0.000 
#    0.000    3.429    0.000    3.000    0.000    1.857 
#
# Total GULP energy -693960.979708 kJ/mol
# GULP energy per Si atom -12392.160352 kJ/mol
# Density = 1.468494 g / cm^3
# Si number density = 14.718443 Si / 1000 Ang^3
#
#
#
# Elastic Constant Matrix: (Units=GPa)
#
#
# Indices 1 2 3 4 5 6 
#
# 1 36.3901 17.4435 -1.7859 0.0000 0.0000 0.0000
# 2 17.4435 118.6009 40.8682 0.0000 0.0000 0.0000
# 3 -1.7859 40.8682 72.2039 0.0000 0.0000 0.0000
# 4 0.0000 0.0000 0.0000 31.8174 0.0000 0.0000
# 5 0.0000 0.0000 0.0000 0.0000 6.7958 0.0000
# 6 0.0000 0.0000 0.0000 0.0000 0.0000 11.1963
#
#
#
# Elastic Compliance Matrix: (Units=1/GPa)
#
#
# Indices 1 2 3 4 5 6 
#
# 1 0.030508 -0.005897 0.004092 0.000000 0.000000 0.000000
# 2 -0.005897 0.011615 -0.006720 0.000000 0.000000 0.000000
# 3 0.004092 -0.006720 0.017754 0.000000 0.000000 0.000000
# 4 0.000000 0.000000 0.000000 0.031429 0.000000 0.000000
# 5 0.000000 0.000000 0.000000 0.000000 0.147150 0.000000
# 6 0.000000 0.000000 0.000000 0.000000 0.000000 0.089315
#
#
# Mechanical properties :
#
#
# Convention : Reuss Voigt Hill
#
# Bulk Modulus (GPa) = 23.34948 37.80518 30.57733
# Shear Modulus (GPa) = 13.92384 21.33984 17.63184
#
# Velocity S-wave (km/s) = 3.07907 3.81185 3.46488
# Velocity P-wave (km/s) = 5.34223 6.71676 6.06854
#
# Compressibility (1/GPa) = 0.04282751
#
# Stress axis : x y z
#
# Youngs Moduli (GPa) = 32.77863 86.09897 56.32407
#
# Poissons Ratio (x) = 0.50774 -0.23050
# Poissons Ratio (y) = 0.19330 0.37849
# Poissons Ratio (z) = -0.13415 0.57857
#
# Static dielectric constant tensor:
#      x y z
#    x 2.505120 0.000000 0.000000 
#    y 0.000000 3.258420 0.000000 
#    z 0.000000 0.000000 2.837460 
# 
# 
# High freq. dielectric constant tensor:
#      x y z
#    x 1.491200 0.000000 0.000000 
#    y 0.000000 1.572480 0.000000 
#    z 0.000000 0.000000 1.560390 
# 
# From -- ./inp_files/58306.got.cif
#   From: 2010.03.12/outbox.cif.g09.slc.cpg/sg65_30_cif.got.tgz:58306.got - 2010.04.10 20:52:16.
