data_PCOD8265065
_publ_section_title
;
Structure prediction by ZEFSAII (Michael W. Deem and Ramdas Pophale) SiO2 
 PCOD8265065
Probable space group: C M M M
;
_chemical_formula_sum "Si O2"
_cell_formula_units_Z 88
_cell_length_a 18.276058
_cell_length_b 8.798259
_cell_length_c 29.110927
_cell_angle_alpha 90.000000
_cell_angle_beta 90.000000
_cell_angle_gamma 90.000000
_cell_volume 4680.964045
_symmetry_space_group_name_H-M "C M M M"
_symmetry_group_IT_number 65
_symmetry_cell_setting 'orthorhombic'
loop_
_space_group_symop_operation_xyz
x,y,z
-x,-y,z
x,-y,-z
-x,y,-z
-x,-y,-z
x,y,-z
-x,y,z
x,-y,z
1/2+x,1/2+y,z
1/2-x,1/2-y,z
1/2+x,1/2-y,-z
1/2-x,1/2+y,-z
1/2-x,1/2-y,-z
1/2+x,1/2+y,-z
1/2-x,1/2+y,z
1/2+x,1/2-y,z
loop_
_atom_site_type_symbol
_atom_site_label
_atom_site_fract_x
_atom_site_fract_y
_atom_site_fract_z
Si Si1 0.329395 0.322740 0.549845
Si Si2 0.831404 0.679974 0.638950
Si Si3 0.671530 0.676833 0.828719
Si Si4 0.170502 0.178242 0.728171
Si Si5 0.829631 0.679038 0.000000
Si Si6 0.084460 0.821320 0.083139
O O1 0.369046 0.298385 0.500000
O O2 0.321794 0.500000 0.561126
O O3 0.250000 0.250000 0.546218
O O4 0.371810 0.240832 0.592400
O O5 0.829930 0.500000 0.639086
O O6 0.750000 0.750000 0.638854
O O7 0.872014 0.741125 0.685399
O O8 0.686546 0.500000 0.832771
O O9 0.750000 0.750000 0.837120
O O10 0.635710 0.712951 0.778404
O O11 0.614474 0.730952 0.867213
O O12 0.250000 0.250000 0.730617
O O13 0.175084 0.000000 0.717947
O O14 0.750000 0.750000 0.000000
O O15 0.872815 0.729580 0.955147
O O16 0.821265 0.500000 0.000000
O O17 0.000000 0.775885 0.080635
O O18 0.095821 0.000000 0.074735
#
# Coordination Sequence:
#
# PCOD8265065 Si02
#       6
#    16  16  16  16   8  16
#     4   9  15  21  28  38  55  83 121 165 213 263
#     4  10  16  21  30  44  64  91 126 168 217 267
#     4   9  18  31  49  72  95 124 160 199 241 285
#     4   9  15  24  37  54  77 102 135 178 223 269
#     4  12  25  40  59  83 109 137 173 210 247 290
#     4  10  21  38  58  80 108 139 169 203 247 295
#
# _framework density 18.799547
#
# number of rings (size 3 to 8) (size 9 to 14) (size 15 to 20)
#    0.000    2.364    0.000    6.545    0.000    5.455 
#    0.000    0.000    0.000    0.000    0.000    0.000 
#    0.000    0.000    0.000    0.000    0.000    0.909 
#
# Total GULP energy -545083.581646 kJ/mol
# GULP energy per Si atom -12388.263219 kJ/mol
# Density = 1.875676 g / cm^3
# Si number density = 18.799547 Si / 1000 Ang^3
#
#
#
# Elastic Constant Matrix: (Units=GPa)
#
#
# Indices 1 2 3 4 5 6 
#
# 1 61.0193 32.8685 52.6413 0.0000 0.0000 0.0000
# 2 32.8685 125.5814 87.6587 0.0000 0.0000 0.0000
# 3 52.6413 87.6587 222.2844 0.0000 0.0000 0.0000
# 4 0.0000 0.0000 0.0000 49.5370 0.0000 0.0000
# 5 0.0000 0.0000 0.0000 0.0000 95.7774 0.0000
# 6 0.0000 0.0000 0.0000 0.0000 0.0000 12.0230
#
#
#
# Elastic Compliance Matrix: (Units=1/GPa)
#
#
# Indices 1 2 3 4 5 6 
#
# 1 0.021303 -0.002834 -0.003927 0.000000 0.000000 0.000000
# 2 -0.002834 0.011365 -0.003810 0.000000 0.000000 0.000000
# 3 -0.003927 -0.003810 0.006931 0.000000 0.000000 0.000000
# 4 0.000000 0.000000 0.000000 0.020187 0.000000 0.000000
# 5 0.000000 0.000000 0.000000 0.000000 0.010441 0.000000
# 6 0.000000 0.000000 0.000000 0.000000 0.000000 0.083174
#
#
# Mechanical properties :
#
#
# Convention : Reuss Voigt Hill
#
# Bulk Modulus (GPa) = 54.18585 83.91356 69.04971
# Shear Modulus (GPa) = 27.67074 47.18193 37.42634
#
# Velocity S-wave (km/s) = 3.84068 5.01516 4.46669
# Velocity P-wave (km/s) = 6.96802 8.84696 7.96310
#
# Compressibility (1/GPa) = 0.01845500
#
# Stress axis : x y z
#
# Youngs Moduli (GPa) = 46.94166 87.99279 144.27007
#
# Poissons Ratio (x) = 0.24940 0.56658
# Poissons Ratio (y) = 0.13305 0.54973
# Poissons Ratio (z) = 0.18435 0.33529
#
# Static dielectric constant tensor:
#      x y z
#    x 2.845140 0.000000 0.000000 
#    y 0.000000 3.499180 0.000000 
#    z 0.000000 0.000000 5.230770 
# 
# 
# High freq. dielectric constant tensor:
#      x y z
#    x 1.641920 0.000000 0.000000 
#    y 0.000000 1.738560 0.000000 
#    z 0.000000 0.000000 1.774810 
# 
# From -- ./inp_files/77982.got.cif
#   From: 2010.03.12/outbox.cif.g09.slc.cpg/sg65_39_cif.got.tgz:77982.got - 2010.04.10 20:52:16.
