data_PCOD8265913
_publ_section_title
;
Structure prediction by ZEFSAII (Michael W. Deem and Ramdas Pophale) SiO2 
 PCOD8265913
Probable space group: C M M M
;
_chemical_formula_sum "Si O2"
_cell_formula_units_Z 112
_cell_length_a 33.338937
_cell_length_b 15.735538
_cell_length_c 13.686577
_cell_angle_alpha 90.000000
_cell_angle_beta 90.000000
_cell_angle_gamma 90.000000
_cell_volume 7180.061920
_symmetry_space_group_name_H-M "C M M M"
_symmetry_group_IT_number 65
_symmetry_cell_setting 'orthorhombic'
loop_
_space_group_symop_operation_xyz
x,y,z
-x,-y,z
x,-y,-z
-x,y,-z
-x,-y,-z
x,y,-z
-x,y,z
x,-y,z
1/2+x,1/2+y,z
1/2-x,1/2-y,z
1/2+x,1/2-y,-z
1/2-x,1/2+y,-z
1/2-x,1/2-y,-z
1/2+x,1/2+y,-z
1/2-x,1/2+y,z
1/2+x,1/2-y,z
loop_
_atom_site_type_symbol
_atom_site_label
_atom_site_fract_x
_atom_site_fract_y
_atom_site_fract_z
Si Si1 0.544522 0.234741 0.384091
Si Si2 0.670944 0.641432 0.385913
Si Si3 0.205322 0.782960 0.892356
Si Si4 0.416116 0.593789 0.383704
Si Si5 0.819111 0.684437 0.282820
Si Si6 0.762803 0.092528 0.254891
Si Si7 0.389511 0.097855 0.386062
O O1 0.544214 0.238107 0.500000
O O2 0.500000 0.213818 0.343930
O O3 0.557230 0.327852 0.342687
O O4 0.574701 0.159993 0.350798
O O5 0.670971 0.631188 0.500000
O O6 0.628815 0.607413 0.343731
O O7 0.676819 0.739701 0.359262
O O8 0.707083 0.584804 0.345630
O O9 0.250000 0.750000 0.905492
O O10 0.176833 0.718962 0.829292
O O11 0.210548 0.870783 0.834105
O O12 0.185797 0.795966 0.000000
O O13 0.416627 0.597339 0.500000
O O14 0.431680 0.500000 0.348800
O O15 0.774340 0.648547 0.290097
O O16 0.851864 0.614417 0.313872
O O17 0.746936 0.000000 0.224003
O O18 0.378162 0.114963 0.500000
O O19 0.403002 0.000000 0.372436
#
# Coordination Sequence:
#
# PCOD8265913 Si02
#       7
#    16  16  16  16  16  16  16
#     4   9  17  29  43  60  85 117 155 195 230 268
#     4  10  18  29  42  57  85 124 158 184 218 263
#     4   8  16  31  48  63  81 110 145 183 231 277
#     4   9  16  26  41  59  81 112 149 187 225 265
#     4  10  18  30  46  62  86 117 153 192 227 266
#     4  10  20  29  40  63  88 114 152 191 225 267
#     4  10  19  30  45  65  91 125 159 189 226 269
#
# _framework density 15.598751999999999
#
# number of rings (size 3 to 8) (size 9 to 14) (size 15 to 20)
#    0.000    2.571    1.429    2.571    0.000    3.429 
#    0.000    2.857    0.000    1.286    0.000    0.000 
#    0.000    0.571    0.000    1.286    0.000    8.286 
#
# Total GULP energy -693837.814099 kJ/mol
# GULP energy per Si atom -12389.960966 kJ/mol
# Density = 1.556325 g / cm^3
# Si number density = 15.598752 Si / 1000 Ang^3
#
#
#
# Elastic Constant Matrix: (Units=GPa)
#
#
# Indices 1 2 3 4 5 6 
#
# 1 82.3509 32.5942 28.3122 0.0000 0.0000 0.0000
# 2 32.5942 107.8416 19.8466 0.0000 0.0000 0.0000
# 3 28.3122 19.8466 54.9794 0.0000 0.0000 0.0000
# 4 0.0000 0.0000 0.0000 9.3500 0.0000 0.0000
# 5 0.0000 0.0000 0.0000 0.0000 1.0270 0.0000
# 6 0.0000 0.0000 0.0000 0.0000 0.0000 15.0129
#
#
#
# Elastic Compliance Matrix: (Units=1/GPa)
#
#
# Indices 1 2 3 4 5 6 
#
# 1 0.015924 -0.003539 -0.006923 0.000000 0.000000 0.000000
# 2 -0.003539 0.010719 -0.002047 0.000000 0.000000 0.000000
# 3 -0.006923 -0.002047 0.022493 0.000000 0.000000 0.000000
# 4 0.000000 0.000000 0.000000 0.106952 0.000000 0.000000
# 5 0.000000 0.000000 0.000000 0.000000 0.973729 0.000000
# 6 0.000000 0.000000 0.000000 0.000000 0.000000 0.066609
#
#
# Mechanical properties :
#
#
# Convention : Reuss Voigt Hill
#
# Bulk Modulus (GPa) = 41.46226 45.18645 43.32436
# Shear Modulus (GPa) = 4.06675 16.03924 10.05300
#
# Velocity S-wave (km/s) = 1.61640 3.21009 2.54140
# Velocity P-wave (km/s) = 5.48834 6.53991 6.03707
#
# Compressibility (1/GPa) = 0.02411832
#
# Stress axis : x y z
#
# Youngs Moduli (GPa) = 62.79896 93.29073 44.45925
#
# Poissons Ratio (x) = 0.33014 0.30778
# Poissons Ratio (y) = 0.22223 0.09101
# Poissons Ratio (z) = 0.43474 0.19097
#
# Static dielectric constant tensor:
#      x y z
#    x 3.042570 0.000000 0.000000 
#    y 0.000000 3.238630 0.000000 
#    z 0.000000 0.000000 2.817960 
# 
# 
# High freq. dielectric constant tensor:
#      x y z
#    x 1.582470 0.000000 0.000000 
#    y 0.000000 1.613630 0.000000 
#    z 0.000000 0.000000 1.545820 
# 
# From -- ./inp_files/47970.got.cif
#   From: 2010.03.12/outbox.cif.g09.slc.cpg/sg65_24_cif.got.tgz:47970.got - 2010.04.10 20:52:16.
