data_PCOD8265255
_publ_section_title
;
Structure prediction by ZEFSAII (Michael W. Deem and Ramdas Pophale) SiO2 
 PCOD8265255
Probable space group: C M M M
;
_chemical_formula_sum "Si O2"
_cell_formula_units_Z 72
_cell_length_a 14.693196
_cell_length_b 33.540420
_cell_length_c 8.884681
_cell_angle_alpha 90.000000
_cell_angle_beta 90.000000
_cell_angle_gamma 90.000000
_cell_volume 4378.512641
_symmetry_space_group_name_H-M "C M M M"
_symmetry_group_IT_number 65
_symmetry_cell_setting 'orthorhombic'
loop_
_space_group_symop_operation_xyz
x,y,z
-x,-y,z
x,-y,-z
-x,y,-z
-x,-y,-z
x,y,-z
-x,y,z
x,-y,z
1/2+x,1/2+y,z
1/2-x,1/2-y,z
1/2+x,1/2-y,-z
1/2-x,1/2+y,-z
1/2-x,1/2-y,-z
1/2+x,1/2+y,-z
1/2-x,1/2+y,z
1/2+x,1/2-y,z
loop_
_atom_site_type_symbol
_atom_site_label
_atom_site_fract_x
_atom_site_fract_y
_atom_site_fract_z
Si Si1 0.107871 0.000000 0.168770
Si Si2 0.604475 0.580661 0.322318
Si Si3 0.714554 0.651591 0.821401
Si Si4 0.899948 0.314253 0.178514
Si Si5 0.897724 0.774085 0.176994
O O1 0.141917 0.960727 0.254991
O O2 0.000000 0.000000 0.166112
O O3 0.148016 0.000000 0.000000
O O4 0.611854 0.578122 0.500000
O O5 0.500000 0.588923 0.272042
O O6 0.669986 0.614699 0.261592
O O7 0.821499 0.654362 0.775628
O O8 0.669049 0.692199 0.758311
O O9 0.700647 0.646514 0.000000
O O10 0.876667 0.269997 0.243342
O O11 0.000000 0.328310 0.237622
O O12 0.903378 0.310447 0.000000
O O13 0.000000 0.786847 0.219413
O O14 0.883527 0.772471 0.000000
#
# Coordination Sequence:
#
# PCOD8265255 Si02
#       5
#     8  16  16  16  16
#     4   9  17  31  51  71  90 113 142 173 203 246
#     4  10  20  32  45  64  93 123 144 167 209 263
#     4  10  17  25  42  66  88 113 150 191 222 254
#     4   8  14  24  38  59  87 117 150 190 232 263
#     4   8  13  21  35  58  87 115 145 185 228 263
#
# _framework density 16.443940000000001
#
# number of rings (size 3 to 8) (size 9 to 14) (size 15 to 20)
#    0.000    3.000    0.000    3.667    0.000    6.222 
#    0.000    0.000    0.000    3.333    0.000    3.889 
#    0.000    6.222    0.000    0.000    0.000    0.000 
#
# Total GULP energy -446098.645092 kJ/mol
# GULP energy per Si atom -12391.629030 kJ/mol
# Density = 1.640651 g / cm^3
# Si number density = 16.443940 Si / 1000 Ang^3
#
#
#
# Elastic Constant Matrix: (Units=GPa)
#
#
# Indices 1 2 3 4 5 6 
#
# 1 101.5996 73.4531 28.7659 0.0000 0.0000 0.0000
# 2 73.4531 115.9748 35.6115 0.0000 0.0000 0.0000
# 3 28.7659 35.6115 41.4116 0.0000 0.0000 0.0000
# 4 0.0000 0.0000 0.0000 -7.5672 0.0000 0.0000
# 5 0.0000 0.0000 0.0000 0.0000 11.6060 0.0000
# 6 0.0000 0.0000 0.0000 0.0000 0.0000 21.5273
#
#
#
# Elastic Compliance Matrix: (Units=1/GPa)
#
#
# Indices 1 2 3 4 5 6 
#
# 1 0.018583 -0.010607 -0.003787 0.000000 0.000000 0.000000
# 2 -0.010607 0.017770 -0.007914 0.000000 0.000000 0.000000
# 3 -0.003787 -0.007914 0.033584 0.000000 0.000000 0.000000
# 4 0.000000 0.000000 0.000000 -0.132149 0.000000 0.000000
# 5 0.000000 0.000000 0.000000 0.000000 0.086163 0.000000
# 6 0.000000 0.000000 0.000000 0.000000 0.000000 0.046453
#
#
# Mechanical properties :
#
#
# Convention : Reuss Voigt Hill
#
# Bulk Modulus (GPa) = 39.49134 59.40521 49.44828
# Shear Modulus (GPa) = 40.49887 13.19023 26.84455
#
# Velocity S-wave (km/s) = 4.96809 2.83527 4.04479
# Velocity P-wave (km/s) = 7.54832 6.85001 7.20763
#
# Compressibility (1/GPa) = 0.02532201
#
# Stress axis : x y z
#
# Youngs Moduli (GPa) = 53.81195 56.27329 29.77615
#
# Poissons Ratio (x) = 0.59688 0.11277
# Poissons Ratio (y) = 0.57077 0.23564
# Poissons Ratio (z) = 0.20380 0.44533
#
# Static dielectric constant tensor:
#      x y z
#    x 3.267140 0.000000 0.000000 
#    y 0.000000 3.724420 0.000000 
#    z 0.000000 0.000000 2.722000 
# 
# 
# High freq. dielectric constant tensor:
#      x y z
#    x 1.620520 0.000000 0.000000 
#    y 0.000000 1.621750 0.000000 
#    z 0.000000 0.000000 1.591410 
# 
# From -- ./inp_files/7637.got.cif
#   From: 2010.03.12/outbox.cif.g09.slc.cpg/sg65_4_cif.got.tgz:7637.got - 2010.04.10 20:52:16.
