data_PCOD8265958
_publ_section_title
;
Structure prediction by ZEFSAII (Michael W. Deem and Ramdas Pophale) SiO2 
 PCOD8265958
Probable space group: C M M M
;
_chemical_formula_sum "Si O2"
_cell_formula_units_Z 96
_cell_length_a 17.418348
_cell_length_b 27.739265
_cell_length_c 13.760066
_cell_angle_alpha 90.000000
_cell_angle_beta 90.000000
_cell_angle_gamma 90.000000
_cell_volume 6648.480963
_symmetry_space_group_name_H-M "C M M M"
_symmetry_group_IT_number 65
_symmetry_cell_setting 'orthorhombic'
loop_
_space_group_symop_operation_xyz
x,y,z
-x,-y,z
x,-y,-z
-x,y,-z
-x,-y,-z
x,y,-z
-x,y,z
x,-y,z
1/2+x,1/2+y,z
1/2-x,1/2-y,z
1/2+x,1/2-y,-z
1/2-x,1/2+y,-z
1/2-x,1/2-y,-z
1/2+x,1/2+y,-z
1/2-x,1/2+y,z
1/2+x,1/2-y,z
loop_
_atom_site_type_symbol
_atom_site_label
_atom_site_fract_x
_atom_site_fract_y
_atom_site_fract_z
Si Si1 0.781353 0.851110 0.889717
Si Si2 0.789805 0.553017 0.110451
Si Si3 0.316944 0.213909 0.754250
Si Si4 0.587372 0.717873 0.112043
Si Si5 0.411904 0.054195 0.272143
Si Si6 0.089128 0.351536 0.387187
O O1 0.778301 0.908555 0.870422
O O2 0.719262 0.826772 0.821217
O O3 0.866904 0.831950 0.868797
O O4 0.757658 0.838523 0.000000
O O5 0.755706 0.500000 0.133250
O O6 0.863160 0.564495 0.176064
O O7 0.819380 0.556457 0.000000
O O8 0.250000 0.250000 0.716562
O O9 0.379882 0.240858 0.819079
O O10 0.358820 0.188893 0.663956
O O11 0.500000 0.707525 0.140488
O O12 0.595511 0.734521 0.000000
O O13 0.500000 0.059352 0.240536
O O14 0.390540 0.094180 0.352509
O O15 0.395819 0.000000 0.313512
O O16 0.108945 0.348971 0.500000
O O17 0.000000 0.339810 0.366666
#
# Coordination Sequence:
#
# PCOD8265958 Si02
#       6
#    16  16  16  16  16  16
#     4   9  16  27  43  63  86 110 137 167 202 244
#     4   9  16  26  42  63  86 111 136 164 201 245
#     4  10  18  29  45  62  82 108 141 174 208 241
#     4   9  17  28  43  63  86 111 138 169 203 242
#     4   9  17  29  44  61  82 109 140 170 201 242
#     4  10  20  32  44  59  82 110 140 174 211 249
#
# _framework density 14.439387999999999
#
# number of rings (size 3 to 8) (size 9 to 14) (size 15 to 20)
#    0.000    2.667    1.667    1.000    0.000    3.000 
#    0.000    3.333    0.000    0.500    0.000    3.500 
#    0.000    0.000    0.000    0.000    0.000   16.333 
#
# Total GULP energy -594945.901254 kJ/mol
# GULP energy per Si atom -12394.706276 kJ/mol
# Density = 1.440652 g / cm^3
# Si number density = 14.439388 Si / 1000 Ang^3
#
#
#
# Elastic Constant Matrix: (Units=GPa)
#
#
# Indices 1 2 3 4 5 6 
#
# 1 87.8684 62.0217 50.8938 0.0000 0.0000 0.0000
# 2 62.0217 115.3734 58.3989 0.0000 0.0000 0.0000
# 3 50.8938 58.3989 80.4519 0.0000 0.0000 0.0000
# 4 0.0000 0.0000 0.0000 21.5290 0.0000 0.0000
# 5 0.0000 0.0000 0.0000 0.0000 18.8005 0.0000
# 6 0.0000 0.0000 0.0000 0.0000 0.0000 21.5765
#
#
#
# Elastic Compliance Matrix: (Units=1/GPa)
#
#
# Indices 1 2 3 4 5 6 
#
# 1 0.021252 -0.007303 -0.008143 0.000000 0.000000 0.000000
# 2 -0.007303 0.016211 -0.007148 0.000000 0.000000 0.000000
# 3 -0.008143 -0.007148 0.022770 0.000000 0.000000 0.000000
# 4 0.000000 0.000000 0.000000 0.046449 0.000000 0.000000
# 5 0.000000 0.000000 0.000000 0.000000 0.053190 0.000000
# 6 0.000000 0.000000 0.000000 0.000000 0.000000 0.046347
#
#
# Mechanical properties :
#
#
# Convention : Reuss Voigt Hill
#
# Bulk Modulus (GPa) = 66.46460 69.59139 68.02800
# Shear Modulus (GPa) = 19.49926 19.87316 19.68621
#
# Velocity S-wave (km/s) = 3.67879 3.71390 3.69639
# Velocity P-wave (km/s) = 8.01091 8.16645 8.08905
#
# Compressibility (1/GPa) = 0.01504560
#
# Stress axis : x y z
#
# Youngs Moduli (GPa) = 47.05539 61.68546 43.91833
#
# Poissons Ratio (x) = 0.45046 0.35762
# Poissons Ratio (y) = 0.34363 0.31393
# Poissons Ratio (z) = 0.38317 0.44092
#
# Static dielectric constant tensor:
#      x y z
#    x 2.737320 0.000000 0.000000 
#    y 0.000000 3.035460 0.000000 
#    z 0.000000 0.000000 2.674800 
# 
# 
# High freq. dielectric constant tensor:
#      x y z
#    x 1.534740 0.000000 0.000000 
#    y 0.000000 1.560310 0.000000 
#    z 0.000000 0.000000 1.537330 
# 
# From -- ./inp_files/27342.got.cif
#   From: 2010.03.12/outbox.cif.g09.slc.cpg/sg65_14_cif.got.tgz:27342.got - 2010.04.10 20:52:16.
