data_PCOD8265949
_publ_section_title
;
Structure prediction by ZEFSAII (Michael W. Deem and Ramdas Pophale) SiO2 
 PCOD8265949
Probable space group: C M M M
;
_chemical_formula_sum "Si O2"
_cell_formula_units_Z 104
_cell_length_a 25.919638
_cell_length_b 9.053189
_cell_length_c 25.732177
_cell_angle_alpha 90.000000
_cell_angle_beta 90.000000
_cell_angle_gamma 90.000000
_cell_volume 6038.193814
_symmetry_space_group_name_H-M "C M M M"
_symmetry_group_IT_number 65
_symmetry_cell_setting 'orthorhombic'
loop_
_space_group_symop_operation_xyz
x,y,z
-x,-y,z
x,-y,-z
-x,y,-z
-x,-y,-z
x,y,-z
-x,y,z
x,-y,z
1/2+x,1/2+y,z
1/2-x,1/2-y,z
1/2+x,1/2-y,-z
1/2-x,1/2+y,-z
1/2-x,1/2-y,-z
1/2+x,1/2+y,-z
1/2-x,1/2+y,z
1/2+x,1/2-y,z
loop_
_atom_site_type_symbol
_atom_site_label
_atom_site_fract_x
_atom_site_fract_y
_atom_site_fract_z
Si Si1 0.058820 0.828400 0.213208
Si Si2 0.802844 0.169439 0.061237
Si Si3 0.644630 0.674222 0.294863
Si Si4 0.294364 0.161035 0.785476
Si Si5 0.619108 0.836702 0.131230
Si Si6 0.802442 0.667795 0.500000
Si Si7 0.193654 0.674263 0.386911
O O1 0.093047 0.778212 0.262948
O O2 0.071323 0.747240 0.158360
O O3 0.000000 0.793664 0.228061
O O4 0.068808 0.000000 0.202295
O O5 0.750000 0.250000 0.078196
O O6 0.853868 0.244056 0.085516
O O7 0.798952 0.000000 0.080049
O O8 0.810554 0.180278 0.000000
O O9 0.647276 0.500000 0.302887
O O10 0.693687 0.733156 0.263053
O O11 0.649394 0.754680 0.350348
O O12 0.250000 0.250000 0.816644
O O13 0.341651 0.140779 0.822602
O O14 0.275872 0.000000 0.766046
O O15 0.602394 0.000000 0.110461
O O16 0.785841 0.500000 0.500000
O O17 0.750000 0.750000 0.500000
O O18 0.830413 0.703556 0.554951
O O19 0.199410 0.500000 0.375111
O O20 0.250000 0.750000 0.379864
#
# Coordination Sequence:
#
# PCOD8265949 Si02
#       7
#    16  16  16  16  16   8  16
#     4   9  19  36  55  72  92 120 154 194 241 291
#     4  10  20  33  50  73 102 135 167 197 230 271
#     4  10  19  30  45  66  90 117 150 187 230 278
#     4  10  19  29  41  61  90 122 153 183 220 267
#     4  10  20  32  49  72  96 124 157 194 235 280
#     4   8  16  28  42  60  85 122 161 193 224 263
#     4  10  18  29  44  64  93 126 159 192 227 268
#
# _framework density 17.223693999999998
#
# number of rings (size 3 to 8) (size 9 to 14) (size 15 to 20)
#    0.000    2.308    0.000    3.231    0.000    5.538 
#    0.000    0.000    0.000    0.462    0.000    3.769 
#    0.000    4.308    0.000    0.000    0.000    0.000 
#
# Total GULP energy -644237.107296 kJ/mol
# GULP energy per Si atom -12389.175140 kJ/mol
# Density = 1.718449 g / cm^3
# Si number density = 17.223694 Si / 1000 Ang^3
#
#
#
# Elastic Constant Matrix: (Units=GPa)
#
#
# Indices 1 2 3 4 5 6 
#
# 1 69.8871 40.1511 27.6552 0.0000 0.0000 0.0000
# 2 40.1511 110.8092 45.4435 0.0000 0.0000 0.0000
# 3 27.6552 45.4435 80.6143 0.0000 0.0000 0.0000
# 4 0.0000 0.0000 0.0000 28.9008 0.0000 0.0000
# 5 0.0000 0.0000 0.0000 0.0000 7.5017 0.0000
# 6 0.0000 0.0000 0.0000 0.0000 0.0000 20.4763
#
#
#
# Elastic Compliance Matrix: (Units=1/GPa)
#
#
# Indices 1 2 3 4 5 6 
#
# 1 0.018755 -0.005407 -0.003386 0.000000 0.000000 0.000000
# 2 -0.005407 0.013297 -0.005641 0.000000 0.000000 0.000000
# 3 -0.003386 -0.005641 0.016746 0.000000 0.000000 0.000000
# 4 0.000000 0.000000 0.000000 0.034601 0.000000 0.000000
# 5 0.000000 0.000000 0.000000 0.000000 0.133304 0.000000
# 6 0.000000 0.000000 0.000000 0.000000 0.000000 0.048837
#
#
# Mechanical properties :
#
#
# Convention : Reuss Voigt Hill
#
# Bulk Modulus (GPa) = 50.17443 54.20114 52.18779
# Shear Modulus (GPa) = 16.60845 21.24647 18.92746
#
# Velocity S-wave (km/s) = 3.10865 3.51602 3.31859
# Velocity P-wave (km/s) = 6.48685 6.92968 6.71192
#
# Compressibility (1/GPa) = 0.01993047
#
# Stress axis : x y z
#
# Youngs Moduli (GPa) = 53.31851 75.20412 59.71526
#
# Poissons Ratio (x) = 0.40665 0.20219
# Poissons Ratio (y) = 0.28831 0.33684
# Poissons Ratio (z) = 0.18053 0.42421
#
# Static dielectric constant tensor:
#      x y z
#    x 2.924670 0.000000 0.000000 
#    y 0.000000 3.663800 0.000000 
#    z 0.000000 0.000000 3.190940 
# 
# 
# High freq. dielectric constant tensor:
#      x y z
#    x 1.619420 0.000000 0.000000 
#    y 0.000000 1.685360 0.000000 
#    z 0.000000 0.000000 1.663480 
# 
# From -- ./inp_files/75977.got.cif
#   From: 2010.03.12/outbox.cif.g09.slc.cpg/sg65_38_cif.got.tgz:75977.got - 2010.04.10 20:52:16.
