data_PCOD8265430
_publ_section_title
;
Structure prediction by ZEFSAII (Michael W. Deem and Ramdas Pophale) SiO2 
 PCOD8265430
Probable space group: C M M M
;
_chemical_formula_sum "Si O2"
_cell_formula_units_Z 64
_cell_length_a 22.757605
_cell_length_b 10.111969
_cell_length_c 16.007334
_cell_angle_alpha 90.000000
_cell_angle_beta 90.000000
_cell_angle_gamma 90.000000
_cell_volume 3683.674871
_symmetry_space_group_name_H-M "C M M M"
_symmetry_group_IT_number 65
_symmetry_cell_setting 'orthorhombic'
loop_
_space_group_symop_operation_xyz
x,y,z
-x,-y,z
x,-y,-z
-x,y,-z
-x,-y,-z
x,y,-z
-x,y,z
x,-y,z
1/2+x,1/2+y,z
1/2-x,1/2-y,z
1/2+x,1/2-y,-z
1/2-x,1/2+y,-z
1/2-x,1/2-y,-z
1/2+x,1/2+y,-z
1/2-x,1/2+y,z
1/2+x,1/2-y,z
loop_
_atom_site_type_symbol
_atom_site_label
_atom_site_fract_x
_atom_site_fract_y
_atom_site_fract_z
Si Si1 0.146512 0.350877 0.178100
Si Si2 0.250000 0.750000 0.288678
Si Si3 0.568441 0.344522 0.726739
Si Si4 0.697438 0.851148 0.000000
Si Si5 0.655668 0.650267 0.409235
O O1 0.123462 0.500000 0.194519
O O2 0.206824 0.334616 0.230302
O O3 0.096931 0.243434 0.200339
O O4 0.157607 0.327301 0.080713
O O5 0.287342 0.657862 0.350460
O O6 0.500000 0.314217 0.720892
O O7 0.581015 0.500000 0.744457
O O8 0.598579 0.295601 0.640286
O O9 0.750000 0.750000 0.000000
O O10 0.723433 0.000000 0.000000
O O11 0.662732 0.723641 0.500000
O O12 0.643804 0.500000 0.429442
#
# Coordination Sequence:
#
# PCOD8265430 Si02
#       5
#    16   8  16   8  16
#     4  10  20  33  52  76 103 133 167 204 247 299
#     4  10  17  29  48  70 104 134 166 195 249 302
#     4   9  19  35  53  72  97 132 173 213 253 297
#     4  10  20  34  51  78 107 135 164 198 244 299
#     4   9  17  28  45  71  99 128 165 208 250 294
#
# _framework density 17.373954999999999
#
# number of rings (size 3 to 8) (size 9 to 14) (size 15 to 20)
#    0.000    2.500    1.250    1.125    0.000    3.000 
#    0.000    3.125    0.000   10.500    0.000    7.000 
#    0.000    0.000    0.000    0.000    0.000    0.000 
#
# Total GULP energy -396560.962259 kJ/mol
# GULP energy per Si atom -12392.530071 kJ/mol
# Density = 1.733441 g / cm^3
# Si number density = 17.373955 Si / 1000 Ang^3
#
#
#
# Elastic Constant Matrix: (Units=GPa)
#
#
# Indices 1 2 3 4 5 6 
#
# 1 120.1553 39.4809 59.0242 0.0000 0.0000 0.0000
# 2 39.4809 64.1679 43.5423 0.0000 0.0000 0.0000
# 3 59.0242 43.5423 146.4054 0.0000 0.0000 0.0000
# 4 0.0000 0.0000 0.0000 22.3788 0.0000 0.0000
# 5 0.0000 0.0000 0.0000 0.0000 9.2223 0.0000
# 6 0.0000 0.0000 0.0000 0.0000 0.0000 28.0197
#
#
#
# Elastic Compliance Matrix: (Units=1/GPa)
#
#
# Indices 1 2 3 4 5 6 
#
# 1 0.011498 -0.004922 -0.003172 0.000000 0.000000 0.000000
# 2 -0.004922 0.021632 -0.004449 0.000000 0.000000 0.000000
# 3 -0.003172 -0.004449 0.009432 0.000000 0.000000 0.000000
# 4 0.000000 0.000000 0.000000 0.044685 0.000000 0.000000
# 5 0.000000 0.000000 0.000000 0.000000 0.108432 0.000000
# 6 0.000000 0.000000 0.000000 0.000000 0.000000 0.035689
#
#
# Mechanical properties :
#
#
# Convention : Reuss Voigt Hill
#
# Bulk Modulus (GPa) = 57.22110 68.31371 62.76740
# Shear Modulus (GPa) = 19.06364 24.50290 21.78327
#
# Velocity S-wave (km/s) = 3.31608 3.75950 3.54473
# Velocity P-wave (km/s) = 6.90422 7.63218 7.27731
#
# Compressibility (1/GPa) = 0.01747607
#
# Stress axis : x y z
#
# Youngs Moduli (GPa) = 86.97245 46.22863 106.02053
#
# Poissons Ratio (x) = 0.22755 0.33625
# Poissons Ratio (y) = 0.42810 0.47168
# Poissons Ratio (z) = 0.27583 0.20567
#
# Static dielectric constant tensor:
#      x y z
#    x 3.110290 0.000000 0.000000 
#    y 0.000000 3.140330 0.000000 
#    z 0.000000 0.000000 3.591050 
# 
# 
# High freq. dielectric constant tensor:
#      x y z
#    x 1.657690 0.000000 0.000000 
#    y 0.000000 1.657490 0.000000 
#    z 0.000000 0.000000 1.684680 
# 
# From -- ./inp_files/45099.got.cif
#   From: 2010.03.12/outbox.cif.g09.slc.cpg/sg65_23_cif.got.tgz:45099.got - 2010.04.10 20:52:16.
