data_PCOD8265637
_publ_section_title
;
Structure prediction by ZEFSAII (Michael W. Deem and Ramdas Pophale) SiO2 
 PCOD8265637
Probable space group: C M M M
;
_chemical_formula_sum "Si O2"
_cell_formula_units_Z 104
_cell_length_a 28.960383
_cell_length_b 19.118847
_cell_length_c 12.520387
_cell_angle_alpha 90.000000
_cell_angle_beta 90.000000
_cell_angle_gamma 90.000000
_cell_volume 6932.402206
_symmetry_space_group_name_H-M "C M M M"
_symmetry_group_IT_number 65
_symmetry_cell_setting 'orthorhombic'
loop_
_space_group_symop_operation_xyz
x,y,z
-x,-y,z
x,-y,-z
-x,y,-z
-x,-y,-z
x,y,-z
-x,y,z
x,-y,z
1/2+x,1/2+y,z
1/2-x,1/2-y,z
1/2+x,1/2-y,-z
1/2-x,1/2+y,-z
1/2-x,1/2-y,-z
1/2+x,1/2+y,-z
1/2-x,1/2+y,z
1/2+x,1/2-y,z
loop_
_atom_site_type_symbol
_atom_site_label
_atom_site_fract_x
_atom_site_fract_y
_atom_site_fract_z
Si Si1 0.894603 0.849435 0.693795
Si Si2 0.803340 0.079932 0.625585
Si Si3 0.378581 0.195005 0.372338
Si Si4 0.054645 0.920246 0.500000
Si Si5 0.224812 0.317910 0.625819
Si Si6 0.946748 0.080132 0.876669
Si Si7 0.051644 0.422162 0.373150
O O1 0.842670 0.877894 0.686973
O O2 0.895110 0.766393 0.681373
O O3 0.926921 0.883446 0.605088
O O4 0.914619 0.868304 0.809300
O O5 0.813523 0.087095 0.500000
O O6 0.753753 0.112862 0.655695
O O7 0.802761 0.000000 0.663231
O O8 0.380655 0.203209 0.500000
O O9 0.327292 0.175519 0.331024
O O10 0.412102 0.134153 0.328592
O O11 0.000000 0.915561 0.500000
O O12 0.072268 0.000000 0.500000
O O13 0.222176 0.307932 0.500000
O O14 0.250000 0.250000 0.676014
O O15 0.000000 0.098749 0.855339
O O16 0.937290 0.000000 0.842601
O O17 0.934159 0.091304 0.000000
O O18 0.053164 0.421558 0.500000
O O19 0.064985 0.500000 0.332015
O O20 0.000000 0.402531 0.333952
#
# Coordination Sequence:
#
# PCOD8265637 Si02
#       7
#    16  16  16   8  16  16  16
#     4  12  19  29  44  66  92 118 146 185 230 274
#     4  10  18  27  41  62  88 118 151 186 223 266
#     4  10  18  28  42  63  90 121 150 183 226 271
#     4  11  22  30  38  59  93 125 147 172 213 272
#     4   9  16  27  39  52  81 119 151 177 207 255
#     4   9  19  35  50  62  82 118 161 197 224 256
#     4   8  15  27  40  54  78 114 152 186 218 257
#
# _framework density 15.002015
#
# number of rings (size 3 to 8) (size 9 to 14) (size 15 to 20)
#    0.000    2.231    3.077    2.769    0.000    3.077 
#    0.000    3.077    0.000    0.000    0.000    2.154 
#    0.000    0.615    0.000    3.385    0.000    0.154 
#
# Total GULP energy -644740.667231 kJ/mol
# GULP energy per Si atom -12398.858985 kJ/mol
# Density = 1.496787 g / cm^3
# Si number density = 15.002015 Si / 1000 Ang^3
#
#
#
# Elastic Constant Matrix: (Units=GPa)
#
#
# Indices 1 2 3 4 5 6 
#
# 1 115.9202 75.5750 26.8089 0.0000 0.0000 0.0000
# 2 75.5750 130.3202 22.8910 0.0000 0.0000 0.0000
# 3 26.8089 22.8910 37.3900 0.0000 0.0000 0.0000
# 4 0.0000 0.0000 0.0000 13.4024 0.0000 0.0000
# 5 0.0000 0.0000 0.0000 0.0000 4.9855 0.0000
# 6 0.0000 0.0000 0.0000 0.0000 0.0000 30.6405
#
#
#
# Elastic Compliance Matrix: (Units=1/GPa)
#
#
# Indices 1 2 3 4 5 6 
#
# 1 0.015014 -0.007637 -0.006090 0.000000 0.000000 0.000000
# 2 -0.007637 0.012483 -0.002166 0.000000 0.000000 0.000000
# 3 -0.006090 -0.002166 0.032438 0.000000 0.000000 0.000000
# 4 0.000000 0.000000 0.000000 0.074613 0.000000 0.000000
# 5 0.000000 0.000000 0.000000 0.000000 0.200582 0.000000
# 6 0.000000 0.000000 0.000000 0.000000 0.000000 0.032637
#
#
# Mechanical properties :
#
#
# Convention : Reuss Voigt Hill
#
# Bulk Modulus (GPa) = 35.52598 59.35335 47.43967
# Shear Modulus (GPa) = 12.22687 20.36271 16.29479
#
# Velocity S-wave (km/s) = 2.85794 3.68820 3.29929
# Velocity P-wave (km/s) = 5.88410 7.60174 6.79740
#
# Compressibility (1/GPa) = 0.02814841
#
# Stress axis : x y z
#
# Youngs Moduli (GPa) = 66.60369 80.10910 30.82837
#
# Poissons Ratio (x) = 0.61182 0.18773
# Poissons Ratio (y) = 0.50868 0.06678
# Poissons Ratio (z) = 0.40558 0.17354
#
# Static dielectric constant tensor:
#      x y z
#    x 3.096830 0.000000 0.000000 
#    y 0.000000 3.029950 0.000000 
#    z 0.000000 0.000000 2.363550 
# 
# 
# High freq. dielectric constant tensor:
#      x y z
#    x 1.587700 0.000000 0.000000 
#    y 0.000000 1.581370 0.000000 
#    z 0.000000 0.000000 1.502320 
# 
# From -- ./inp_files/32518.got.cif
#   From: 2010.03.12/outbox.cif.g09.slc.cpg/sg65_17_cif.got.tgz:32518.got - 2010.04.10 20:52:16.
