data_PCOD8265699
_publ_section_title
;
Structure prediction by ZEFSAII (Michael W. Deem and Ramdas Pophale) SiO2 
 PCOD8265699
Probable space group: C M M M
;
_chemical_formula_sum "Si O2"
_cell_formula_units_Z 80
_cell_length_a 9.110230
_cell_length_b 27.412423
_cell_length_c 18.836791
_cell_angle_alpha 90.000000
_cell_angle_beta 90.000000
_cell_angle_gamma 90.000000
_cell_volume 4704.177338
_symmetry_space_group_name_H-M "C M M M"
_symmetry_group_IT_number 65
_symmetry_cell_setting 'orthorhombic'
loop_
_space_group_symop_operation_xyz
x,y,z
-x,-y,z
x,-y,-z
-x,y,-z
-x,-y,-z
x,y,-z
-x,y,z
x,-y,z
1/2+x,1/2+y,z
1/2-x,1/2-y,z
1/2+x,1/2-y,-z
1/2-x,1/2+y,-z
1/2-x,1/2-y,-z
1/2+x,1/2+y,-z
1/2-x,1/2+y,z
1/2+x,1/2-y,z
loop_
_atom_site_type_symbol
_atom_site_label
_atom_site_fract_x
_atom_site_fract_y
_atom_site_fract_z
Si Si1 0.675324 0.944380 0.000000
Si Si2 0.826184 0.397685 0.143476
Si Si3 0.824669 0.302000 0.500000
Si Si4 0.672941 0.200441 0.214057
Si Si5 0.824950 0.553682 0.285719
Si Si6 0.674106 0.850516 0.356298
O O1 0.739771 0.916693 0.069140
O O2 0.500000 0.942995 0.000000
O O3 0.731407 0.000000 0.000000
O O4 0.781330 0.341504 0.157832
O O5 0.767151 0.431619 0.207474
O O6 0.000000 0.401971 0.141450
O O7 0.750000 0.250000 0.500000
O O8 0.766232 0.331301 0.568672
O O9 0.000000 0.296033 0.500000
O O10 0.500000 0.208871 0.213875
O O11 0.750000 0.250000 0.190194
O O12 0.727803 0.184656 0.292658
O O13 0.763530 0.500000 0.305939
O O14 0.768980 0.594068 0.342522
O O15 0.000000 0.553237 0.285034
O O16 0.500000 0.850875 0.356611
#
# Coordination Sequence:
#
# PCOD8265699 Si02
#       6
#     8  16   8  16  16  16
#     4   9  14  20  33  54  79 103 125 153 192 233
#     4   8  14  22  33  52  77 102 127 157 191 225
#     4  10  18  28  41  57  79 103 128 160 195 226
#     4   9  16  27  41  56  77 104 131 158 190 225
#     4   8  12  20  34  51  74 103 128 150 186 235
#     4   8  15  25  37  55  78 102 127 158 193 226
#
# _framework density 17.006162
#
# number of rings (size 3 to 8) (size 9 to 14) (size 15 to 20)
#    0.000    3.500    0.000    3.600    0.000    2.400 
#    0.000    1.000    0.000    3.000    0.000    0.000 
#    0.000   28.800    0.000    0.000    0.000    0.000 
#
# Total GULP energy -495643.834858 kJ/mol
# GULP energy per Si atom -12391.095871 kJ/mol
# Density = 1.696745 g / cm^3
# Si number density = 17.006162 Si / 1000 Ang^3
#
#
#
# Elastic Constant Matrix: (Units=GPa)
#
#
# Indices 1 2 3 4 5 6 
#
# 1 8.7474 19.0419 10.9789 0.0000 0.0000 0.0000
# 2 19.0419 180.2418 89.1188 0.0000 0.0000 0.0000
# 3 10.9789 89.1188 144.3141 0.0000 0.0000 0.0000
# 4 0.0000 0.0000 0.0000 26.1064 0.0000 0.0000
# 5 0.0000 0.0000 0.0000 0.0000 6.2684 0.0000
# 6 0.0000 0.0000 0.0000 0.0000 0.0000 18.5608
#
#
#
# Elastic Compliance Matrix: (Units=1/GPa)
#
#
# Indices 1 2 3 4 5 6 
#
# 1 0.149003 -0.014592 -0.002324 0.000000 0.000000 0.000000
# 2 -0.014592 0.009416 -0.004704 0.000000 0.000000 0.000000
# 3 -0.002324 -0.004704 0.010011 0.000000 0.000000 0.000000
# 4 0.000000 0.000000 0.000000 0.038305 0.000000 0.000000
# 5 0.000000 0.000000 0.000000 0.000000 0.159532 0.000000
# 6 0.000000 0.000000 0.000000 0.000000 0.000000 0.053877
#
#
# Mechanical properties :
#
#
# Convention : Reuss Voigt Hill
#
# Bulk Modulus (GPa) = 7.98799 63.50913 35.74856
# Shear Modulus (GPa) = 9.89873 24.46470 17.18171
#
# Velocity S-wave (km/s) = 2.41522 3.79697 3.18201
# Velocity P-wave (km/s) = 3.53342 7.52652 5.87935
#
# Compressibility (1/GPa) = 0.12518798
#
# Stress axis : x y z
#
# Youngs Moduli (GPa) = 6.71127 106.20455 99.88715
#
# Poissons Ratio (x) = 1.54978 0.23217
# Poissons Ratio (y) = 0.09793 0.46991
# Poissons Ratio (z) = 0.01560 0.49963
#
# Static dielectric constant tensor:
#      x y z
#    x 2.454750 0.000000 0.000000 
#    y 0.000000 3.492510 0.000000 
#    z 0.000000 0.000000 3.563920 
# 
# 
# High freq. dielectric constant tensor:
#      x y z
#    x 1.577210 0.000000 0.000000 
#    y 0.000000 1.669870 0.000000 
#    z 0.000000 0.000000 1.651310 
# 
# From -- ./inp_files/49935.got.cif
#   From: 2010.03.12/outbox.cif.g09.slc.cpg/sg65_25_cif.got.tgz:49935.got - 2010.04.10 20:52:16.
