data_PCOD8265978
_publ_section_title
;
Structure prediction by ZEFSAII (Michael W. Deem and Ramdas Pophale) SiO2 
 PCOD8265978
Probable space group: C M M M
;
_chemical_formula_sum "Si O2"
_cell_formula_units_Z 128
_cell_length_a 18.805711
_cell_length_b 18.443781
_cell_length_c 23.712323
_cell_angle_alpha 90.000000
_cell_angle_beta 90.000000
_cell_angle_gamma 90.000000
_cell_volume 8224.581654
_symmetry_space_group_name_H-M "C M M M"
_symmetry_group_IT_number 65
_symmetry_cell_setting 'orthorhombic'
loop_
_space_group_symop_operation_xyz
x,y,z
-x,-y,z
x,-y,-z
-x,y,-z
-x,-y,-z
x,y,-z
-x,y,z
x,-y,z
1/2+x,1/2+y,z
1/2-x,1/2-y,z
1/2+x,1/2-y,-z
1/2-x,1/2+y,-z
1/2-x,1/2-y,-z
1/2+x,1/2+y,-z
1/2-x,1/2+y,z
1/2+x,1/2-y,z
loop_
_atom_site_type_symbol
_atom_site_label
_atom_site_fract_x
_atom_site_fract_y
_atom_site_fract_z
Si Si1 0.715587 0.915951 0.263471
Si Si2 0.078756 0.417472 0.129114
Si Si3 0.718490 0.084374 0.064438
Si Si4 0.580529 0.679982 0.770955
Si Si5 0.644595 0.415254 0.324507
Si Si6 0.921131 0.344653 0.247127
Si Si7 0.419794 0.586078 0.438577
Si Si8 0.718542 0.330049 0.161460
O O1 0.772360 0.899837 0.312616
O O2 0.638477 0.886815 0.283769
O O3 0.736555 0.875095 0.206595
O O4 0.711495 0.000000 0.248669
O O5 0.088263 0.500000 0.150910
O O6 0.137122 0.398504 0.082096
O O7 0.088861 0.364097 0.181549
O O8 0.000000 0.406806 0.102478
O O9 0.773597 0.131443 0.101045
O O10 0.736407 0.000000 0.072806
O O11 0.727788 0.108319 0.000000
O O12 0.500000 0.669052 0.793577
O O13 0.595024 0.623650 0.720979
O O14 0.590579 0.759473 0.744764
O O15 0.635099 0.668908 0.822604
O O16 0.626481 0.500000 0.319693
O O17 0.628887 0.384844 0.387344
O O18 0.000000 0.367822 0.267944
O O19 0.392193 0.614314 0.500000
O O20 0.500000 0.613818 0.428572
O O21 0.418586 0.500000 0.438902
O O22 0.750000 0.250000 0.159186
#
# Coordination Sequence:
#
# PCOD8265978 Si02
#       8
#    16  16  16  16  16  16  16  16
#     4  10  18  29  46  68  93 122 150 180 223 271
#     4   9  16  27  45  66  89 116 142 178 229 281
#     4  10  20  32  46  65  88 114 149 190 225 269
#     4  10  20  31  46  67  92 120 151 187 227 268
#     4   9  18  28  42  66  96 125 156 190 222 267
#     4  10  18  29  45  67  92 117 148 183 226 278
#     4   8  13  23  40  61  88 122 156 192 234 273
#     4  11  19  32  49  66  89 117 148 183 224 273
#
# _framework density 15.563102000000001
#
# number of rings (size 3 to 8) (size 9 to 14) (size 15 to 20)
#    0.000    2.375    2.500    1.500    0.000    2.500 
#    0.000    1.250    0.000    0.375    0.000    2.625 
#    0.000    1.500    0.000    4.875    0.000    0.125 
#
# Total GULP energy -793350.855452 kJ/mol
# GULP energy per Si atom -12396.107116 kJ/mol
# Density = 1.552768 g / cm^3
# Si number density = 15.563102 Si / 1000 Ang^3
#
#
#
# Elastic Constant Matrix: (Units=GPa)
#
#
# Indices 1 2 3 4 5 6 
#
# 1 122.3070 40.2607 56.5817 0.0000 0.0000 0.0000
# 2 40.2607 63.9621 36.8014 0.0000 0.0000 0.0000
# 3 56.5817 36.8014 103.1049 0.0000 0.0000 0.0000
# 4 0.0000 0.0000 0.0000 2.6488 0.0000 0.0000
# 5 0.0000 0.0000 0.0000 0.0000 22.9961 0.0000
# 6 0.0000 0.0000 0.0000 0.0000 0.0000 23.1070
#
#
#
# Elastic Compliance Matrix: (Units=1/GPa)
#
#
# Indices 1 2 3 4 5 6 
#
# 1 0.012000 -0.004737 -0.004894 0.000000 0.000000 0.000000
# 2 -0.004737 0.021545 -0.005090 0.000000 0.000000 0.000000
# 3 -0.004894 -0.005090 0.014202 0.000000 0.000000 0.000000
# 4 0.000000 0.000000 0.000000 0.377526 0.000000 0.000000
# 5 0.000000 0.000000 0.000000 0.000000 0.043486 0.000000
# 6 0.000000 0.000000 0.000000 0.000000 0.000000 0.043277
#
#
# Mechanical properties :
#
#
# Convention : Reuss Voigt Hill
#
# Bulk Modulus (GPa) = 54.63739 61.85131 58.24435
# Shear Modulus (GPa) = 9.13109 20.13240 14.63175
#
# Velocity S-wave (km/s) = 2.42485 3.60056 3.06952
# Velocity P-wave (km/s) = 6.55920 7.55738 7.07591
#
# Compressibility (1/GPa) = 0.01830248
#
# Stress axis : x y z
#
# Youngs Moduli (GPa) = 83.33511 46.41476 70.41415
#
# Poissons Ratio (x) = 0.21987 0.34463
# Poissons Ratio (y) = 0.39477 0.35844
# Poissons Ratio (z) = 0.40787 0.23627
#
# Static dielectric constant tensor:
#      x y z
#    x 3.247080 0.000000 0.000000 
#    y 0.000000 2.944080 0.000000 
#    z 0.000000 0.000000 2.914870 
# 
# 
# High freq. dielectric constant tensor:
#      x y z
#    x 1.603670 0.000000 0.000000 
#    y 0.000000 1.589040 0.000000 
#    z 0.000000 0.000000 1.562490 
# 
# From -- ./inp_files/70693.got.cif
#   From: 2010.03.12/outbox.cif.g09.slc.cpg/sg65_36_cif.got.tgz:70693.got - 2010.04.10 20:52:16.
