data_PCOD8265131
_publ_section_title
;
Structure prediction by ZEFSAII (Michael W. Deem and Ramdas Pophale) SiO2 
 PCOD8265131
Probable space group: C M M M
;
_chemical_formula_sum "Si O2"
_cell_formula_units_Z 104
_cell_length_a 23.386436
_cell_length_b 15.687808
_cell_length_c 18.589926
_cell_angle_alpha 90.000000
_cell_angle_beta 90.000000
_cell_angle_gamma 90.000000
_cell_volume 6820.307702
_symmetry_space_group_name_H-M "C M M M"
_symmetry_group_IT_number 65
_symmetry_cell_setting 'orthorhombic'
loop_
_space_group_symop_operation_xyz
x,y,z
-x,-y,z
x,-y,-z
-x,y,-z
-x,-y,-z
x,y,-z
-x,y,z
x,-y,z
1/2+x,1/2+y,z
1/2-x,1/2-y,z
1/2+x,1/2-y,-z
1/2-x,1/2+y,-z
1/2-x,1/2-y,-z
1/2+x,1/2+y,-z
1/2-x,1/2+y,z
1/2+x,1/2-y,z
loop_
_atom_site_type_symbol
_atom_site_label
_atom_site_fract_x
_atom_site_fract_y
_atom_site_fract_z
Si Si1 0.174040 0.592900 0.171308
Si Si2 0.317953 0.745241 0.919364
Si Si3 0.141306 0.623816 0.329455
Si Si4 0.567565 0.000000 0.416744
Si Si5 0.248907 0.906537 0.420643
Si Si6 0.808890 0.795468 0.683529
Si Si7 0.809159 0.903027 0.816949
O O1 0.160711 0.500000 0.135212
O O2 0.155352 0.671659 0.120466
O O3 0.139913 0.595249 0.246433
O O4 0.241107 0.599537 0.185424
O O5 0.250000 0.750000 0.921310
O O6 0.334965 0.656952 0.879884
O O7 0.343108 0.743044 0.000000
O O8 0.088795 0.584385 0.374280
O O9 0.198503 0.589524 0.366372
O O10 0.141129 0.726718 0.330601
O O11 0.500000 0.000000 0.415017
O O12 0.589552 0.000000 0.500000
O O13 0.269067 0.877768 0.500000
O O14 0.201619 0.840641 0.392721
O O15 0.220878 0.000000 0.423044
O O16 0.750000 0.750000 0.711687
O O17 0.830668 0.863914 0.741558
O O18 0.831734 0.000000 0.826768
#
# Coordination Sequence:
#
# PCOD8265131 Si02
#       7
#    16  16  16   8  16  16  16
#     4  10  16  25  42  59  80 116 157 191 228 267
#     4   9  17  27  36  53  84 121 162 197 217 252
#     4  11  18  29  46  60  83 117 150 189 230 272
#     4  11  24  38  50  66  89 119 159 203 241 283
#     4  10  18  26  38  61  90 115 143 178 220 273
#     4  10  17  25  40  60  85 114 150 182 224 272
#     4  10  16  24  38  58  87 123 156 183 218 265
#
# _framework density 15.248578999999999
#
# number of rings (size 3 to 8) (size 9 to 14) (size 15 to 20)
#    0.000    1.923    6.154    1.385    0.000    4.000 
#    0.000    3.077    0.000    0.000    0.000    0.000 
#    0.000    3.692    0.000    8.462    0.000    1.846 
#
# Total GULP energy -644368.302397 kJ/mol
# GULP energy per Si atom -12391.698123 kJ/mol
# Density = 1.521387 g / cm^3
# Si number density = 15.248579 Si / 1000 Ang^3
#
#
#
# Elastic Constant Matrix: (Units=GPa)
#
#
# Indices 1 2 3 4 5 6 
#
# 1 20.8870 17.4314 14.6835 0.0000 0.0000 0.0000
# 2 17.4314 144.4440 61.6695 0.0000 0.0000 0.0000
# 3 14.6835 61.6695 118.8439 0.0000 0.0000 0.0000
# 4 0.0000 0.0000 0.0000 23.2051 0.0000 0.0000
# 5 0.0000 0.0000 0.0000 0.0000 7.9725 0.0000
# 6 0.0000 0.0000 0.0000 0.0000 0.0000 9.1511
#
#
#
# Elastic Compliance Matrix: (Units=1/GPa)
#
#
# Indices 1 2 3 4 5 6 
#
# 1 0.054895 -0.004790 -0.004297 0.000000 0.000000 0.000000
# 2 -0.004790 0.009311 -0.004240 0.000000 0.000000 0.000000
# 3 -0.004297 -0.004240 0.011145 0.000000 0.000000 0.000000
# 4 0.000000 0.000000 0.000000 0.043094 0.000000 0.000000
# 5 0.000000 0.000000 0.000000 0.000000 0.125431 0.000000
# 6 0.000000 0.000000 0.000000 0.000000 0.000000 0.109277
#
#
# Mechanical properties :
#
#
# Convention : Reuss Voigt Hill
#
# Bulk Modulus (GPa) = 20.53472 52.41597 36.47535
# Shear Modulus (GPa) = 12.62498 20.75843 16.69170
#
# Velocity S-wave (km/s) = 2.88052 3.69363 3.31212
# Velocity P-wave (km/s) = 4.95571 7.25531 6.21283
#
# Compressibility (1/GPa) = 0.04869800
#
# Stress axis : x y z
#
# Youngs Moduli (GPa) = 18.21660 107.39525 89.72280
#
# Poissons Ratio (x) = 0.51445 0.38552
# Poissons Ratio (y) = 0.08726 0.38042
# Poissons Ratio (z) = 0.07827 0.45535
#
# Static dielectric constant tensor:
#      x y z
#    x 2.180320 0.000000 0.000000 
#    y 0.000000 3.432470 0.000000 
#    z 0.000000 0.000000 3.136030 
# 
# 
# High freq. dielectric constant tensor:
#      x y z
#    x 1.476610 0.000000 0.000000 
#    y 0.000000 1.608850 0.000000 
#    z 0.000000 0.000000 1.596070 
# 
# From -- ./inp_files/65500.got.cif
#   From: 2010.03.12/outbox.cif.g09.slc.cpg/sg65_33_cif.got.tgz:65500.got - 2010.04.10 20:52:16.
