data_PCOD8265462
_publ_section_title
;
Structure prediction by ZEFSAII (Michael W. Deem and Ramdas Pophale) SiO2 
 PCOD8265462
Probable space group: C M M M
;
_chemical_formula_sum "Si O2"
_cell_formula_units_Z 72
_cell_length_a 22.576708
_cell_length_b 12.949223
_cell_length_c 15.111319
_cell_angle_alpha 90.000000
_cell_angle_beta 90.000000
_cell_angle_gamma 90.000000
_cell_volume 4417.806599
_symmetry_space_group_name_H-M "C M M M"
_symmetry_group_IT_number 65
_symmetry_cell_setting 'orthorhombic'
loop_
_space_group_symop_operation_xyz
x,y,z
-x,-y,z
x,-y,-z
-x,y,-z
-x,-y,-z
x,y,-z
-x,y,z
x,-y,z
1/2+x,1/2+y,z
1/2-x,1/2-y,z
1/2+x,1/2-y,-z
1/2-x,1/2+y,-z
1/2-x,1/2-y,-z
1/2+x,1/2+y,-z
1/2-x,1/2+y,z
1/2+x,1/2-y,z
loop_
_atom_site_type_symbol
_atom_site_label
_atom_site_fract_x
_atom_site_fract_y
_atom_site_fract_z
Si Si1 0.250000 0.250000 0.330236
Si Si2 0.221965 0.382795 0.170702
Si Si3 0.852891 0.882289 0.599129
Si Si4 0.432567 0.620847 0.763013
Si Si5 0.658498 0.302658 0.100824
O O1 0.217338 0.334871 0.268837
O O2 0.202778 0.193346 0.391791
O O3 0.199720 0.500000 0.170849
O O4 0.289988 0.377228 0.138122
O O5 0.179924 0.316496 0.105982
O O6 0.878746 0.870280 0.500000
O O7 0.903846 0.851860 0.668330
O O8 0.831657 0.000000 0.616272
O O9 0.500000 0.659256 0.760156
O O10 0.428414 0.500000 0.783468
O O11 0.400113 0.681867 0.841368
O O12 0.643906 0.331251 0.000000
#
# Coordination Sequence:
#
# PCOD8265462 Si02
#       5
#     8  16  16  16  16
#     4  10  17  30  49  74 104 128 157 192 241 292
#     4  10  18  30  51  73  98 131 160 195 244 293
#     4  10  19  32  51  75 102 128 156 195 242 291
#     4  10  20  34  50  70  98 130 164 199 237 286
#     4  10  20  32  48  73 101 128 160 200 242 288
#
# _framework density 16.29768
#
# number of rings (size 3 to 8) (size 9 to 14) (size 15 to 20)
#    0.000    2.222    4.444    3.000    0.000    4.000 
#    0.000    3.333    0.000    0.667    0.000    1.556 
#    0.000    1.778    0.000    0.000    0.000    0.000 
#
# Total GULP energy -446384.365625 kJ/mol
# GULP energy per Si atom -12399.565712 kJ/mol
# Density = 1.626059 g / cm^3
# Si number density = 16.297680 Si / 1000 Ang^3
#
#
#
# Elastic Constant Matrix: (Units=GPa)
#
#
# Indices 1 2 3 4 5 6 
#
# 1 111.1313 29.0739 46.4195 0.0000 0.0000 0.0000
# 2 29.0739 76.6585 22.1019 0.0000 0.0000 0.0000
# 3 46.4195 22.1019 112.5499 0.0000 0.0000 0.0000
# 4 0.0000 0.0000 0.0000 14.4406 0.0000 0.0000
# 5 0.0000 0.0000 0.0000 0.0000 10.4162 0.0000
# 6 0.0000 0.0000 0.0000 0.0000 0.0000 18.4914
#
#
#
# Elastic Compliance Matrix: (Units=1/GPa)
#
#
# Indices 1 2 3 4 5 6 
#
# 1 0.011564 -0.003191 -0.004143 0.000000 0.000000 0.000000
# 2 -0.003191 0.014709 -0.001572 0.000000 0.000000 0.000000
# 3 -0.004143 -0.001572 0.010902 0.000000 0.000000 0.000000
# 4 0.000000 0.000000 0.000000 0.069249 0.000000 0.000000
# 5 0.000000 0.000000 0.000000 0.000000 0.096004 0.000000
# 6 0.000000 0.000000 0.000000 0.000000 0.000000 0.054079
#
#
# Mechanical properties :
#
#
# Convention : Reuss Voigt Hill
#
# Bulk Modulus (GPa) = 51.64680 55.05892 53.35286
# Shear Modulus (GPa) = 17.80796 22.18592 19.99694
#
# Velocity S-wave (km/s) = 3.30914 3.69357 3.50663
# Velocity P-wave (km/s) = 6.80874 7.21433 7.01447
#
# Compressibility (1/GPa) = 0.01936228
#
# Stress axis : x y z
#
# Youngs Moduli (GPa) = 86.47830 67.98786 91.72458
#
# Poissons Ratio (x) = 0.21697 0.37997
# Poissons Ratio (y) = 0.27598 0.14421
# Poissons Ratio (z) = 0.35824 0.10689
#
# Static dielectric constant tensor:
#      x y z
#    x 2.897410 0.000000 0.000000 
#    y 0.000000 2.983980 0.000000 
#    z 0.000000 0.000000 3.119600 
# 
# 
# High freq. dielectric constant tensor:
#      x y z
#    x 1.598520 0.000000 0.000000 
#    y 0.000000 1.612030 0.000000 
#    z 0.000000 0.000000 1.637210 
# 
# From -- ./inp_files/45244.got.cif
#   From: 2010.03.12/outbox.cif.g09.slc.cpg/sg65_23_cif.got.tgz:45244.got - 2010.04.10 20:52:16.
