data_PCOD8265615
_publ_section_title
;
Structure prediction by ZEFSAII (Michael W. Deem and Ramdas Pophale) SiO2 
 PCOD8265615
Probable space group: C M M M
;
_chemical_formula_sum "Si O2"
_cell_formula_units_Z 104
_cell_length_a 8.895400
_cell_length_b 29.045533
_cell_length_c 23.341456
_cell_angle_alpha 90.000000
_cell_angle_beta 90.000000
_cell_angle_gamma 90.000000
_cell_volume 6030.770132
_symmetry_space_group_name_H-M "C M M M"
_symmetry_group_IT_number 65
_symmetry_cell_setting 'orthorhombic'
loop_
_space_group_symop_operation_xyz
x,y,z
-x,-y,z
x,-y,-z
-x,y,-z
-x,-y,-z
x,y,-z
-x,y,z
x,-y,z
1/2+x,1/2+y,z
1/2-x,1/2-y,z
1/2+x,1/2-y,-z
1/2-x,1/2+y,-z
1/2-x,1/2-y,-z
1/2+x,1/2+y,-z
1/2-x,1/2+y,z
1/2+x,1/2-y,z
loop_
_atom_site_type_symbol
_atom_site_label
_atom_site_fract_x
_atom_site_fract_y
_atom_site_fract_z
Si Si1 0.321450 0.645900 0.388896
Si Si2 0.678701 0.356988 0.831187
Si Si3 0.821170 0.949853 0.781896
Si Si4 0.820566 0.199717 0.500000
Si Si5 0.822542 0.201835 0.935649
Si Si6 0.178835 0.050280 0.652281
Si Si7 0.321665 0.299576 0.722477
O O1 0.500000 0.645759 0.390460
O O2 0.259723 0.671673 0.445002
O O3 0.261726 0.592762 0.386675
O O4 0.263962 0.672280 0.332610
O O5 0.500000 0.357805 0.830564
O O6 0.741968 0.408965 0.822400
O O7 0.737336 0.337081 0.891799
O O8 0.736638 0.325164 0.779396
O O9 0.763015 0.942265 0.717149
O O10 0.000000 0.948088 0.781429
O O11 0.766390 0.000000 0.804779
O O12 0.750000 0.250000 0.500000
O O13 0.000000 0.204341 0.500000
O O14 0.750000 0.250000 0.917841
O O15 0.000000 0.207952 0.930774
O O16 0.774493 0.187370 0.000000
O O17 0.000000 0.050811 0.652714
O O18 0.235023 0.000000 0.629284
O O19 0.500000 0.294971 0.722212
O O20 0.250000 0.250000 0.720315
#
# Coordination Sequence:
#
# PCOD8265615 Si02
#       7
#    16  16  16   8  16  16  16
#     4   9  16  27  40  57  81 108 134 164 202 239
#     4   9  15  24  38  57  80 105 133 165 201 237
#     4   8  12  19  34  56  80 105 132 160 194 241
#     4  10  20  32  45  59  81 113 142 166 197 240
#     4   9  17  28  41  57  80 110 139 166 198 237
#     4   8  12  20  36  57  81 106 130 159 199 245
#     4  10  18  27  40  58  81 105 131 166 202 234
#
# _framework density 17.244896000000001
#
# number of rings (size 3 to 8) (size 9 to 14) (size 15 to 20)
#    0.000    3.077    1.538    1.846    0.000    0.000 
#    0.000    0.385    0.000    2.769    0.000    3.231 
#    0.000    6.769    0.000    3.846    0.000    4.000 
#
# Total GULP energy -644319.807392 kJ/mol
# GULP energy per Si atom -12390.765527 kJ/mol
# Density = 1.720565 g / cm^3
# Si number density = 17.244896 Si / 1000 Ang^3
#
#
#
# Elastic Constant Matrix: (Units=GPa)
#
#
# Indices 1 2 3 4 5 6 
#
# 1 5.5959 11.9075 9.2763 0.0000 0.0000 0.0000
# 2 11.9075 199.3173 93.5919 0.0000 0.0000 0.0000
# 3 9.2763 93.5919 126.2031 0.0000 0.0000 0.0000
# 4 0.0000 0.0000 0.0000 33.3753 0.0000 0.0000
# 5 0.0000 0.0000 0.0000 0.0000 7.4740 0.0000
# 6 0.0000 0.0000 0.0000 0.0000 0.0000 16.9738
#
#
#
# Elastic Compliance Matrix: (Units=1/GPa)
#
#
# Indices 1 2 3 4 5 6 
#
# 1 0.211890 -0.008201 -0.009492 0.000000 0.000000 0.000000
# 2 -0.008201 0.008015 -0.005341 0.000000 0.000000 0.000000
# 3 -0.009492 -0.005341 0.012582 0.000000 0.000000 0.000000
# 4 0.000000 0.000000 0.000000 0.029962 0.000000 0.000000
# 5 0.000000 0.000000 0.000000 0.000000 0.133796 0.000000
# 6 0.000000 0.000000 0.000000 0.000000 0.000000 0.058914
#
#
# Mechanical properties :
#
#
# Convention : Reuss Voigt Hill
#
# Bulk Modulus (GPa) = 5.36430 62.29638 33.83034
# Shear Modulus (GPa) = 8.87517 25.98733 17.43125
#
# Velocity S-wave (km/s) = 2.27106 3.88617 3.18277
# Velocity P-wave (km/s) = 3.16139 7.50595 5.75907
#
# Compressibility (1/GPa) = 0.18641774
#
# Stress axis : x y z
#
# Youngs Moduli (GPa) = 4.71943 124.76478 79.47587
#
# Poissons Ratio (x) = 1.02323 0.75442
# Poissons Ratio (y) = 0.03871 0.42449
# Poissons Ratio (z) = 0.04480 0.66639
#
# Static dielectric constant tensor:
#      x y z
#    x 2.591540 0.000000 0.000000 
#    y 0.000000 3.731050 0.000000 
#    z 0.000000 0.000000 3.418870 
# 
# 
# High freq. dielectric constant tensor:
#      x y z
#    x 1.597140 0.000000 0.000000 
#    y 0.000000 1.683020 0.000000 
#    z 0.000000 0.000000 1.653340 
# 
# From -- ./inp_files/68545.got.cif
#   From: 2010.03.12/outbox.cif.g09.slc.cpg/sg65_35_cif.got.tgz:68545.got - 2010.04.10 20:52:16.
