data_PCOD8265910
_publ_section_title
;
Structure prediction by ZEFSAII (Michael W. Deem and Ramdas Pophale) SiO2 
 PCOD8265910
Probable space group: C M M M
;
_chemical_formula_sum "Si O2"
_cell_formula_units_Z 96
_cell_length_a 29.045012
_cell_length_b 10.412274
_cell_length_c 22.973573
_cell_angle_alpha 90.000000
_cell_angle_beta 90.000000
_cell_angle_gamma 90.000000
_cell_volume 6947.774160
_symmetry_space_group_name_H-M "C M M M"
_symmetry_group_IT_number 65
_symmetry_cell_setting 'orthorhombic'
loop_
_space_group_symop_operation_xyz
x,y,z
-x,-y,z
x,-y,-z
-x,y,-z
-x,-y,-z
x,y,-z
-x,y,z
x,-y,z
1/2+x,1/2+y,z
1/2-x,1/2-y,z
1/2+x,1/2-y,-z
1/2-x,1/2+y,-z
1/2-x,1/2-y,-z
1/2+x,1/2+y,-z
1/2-x,1/2+y,z
1/2+x,1/2-y,z
loop_
_atom_site_type_symbol
_atom_site_label
_atom_site_fract_x
_atom_site_fract_y
_atom_site_fract_z
Si Si1 0.554942 0.000000 0.136260
Si Si2 0.445055 0.500000 0.127988
Si Si3 0.445376 0.744303 0.331570
Si Si4 0.715988 0.357801 0.430770
Si Si5 0.554593 0.500000 0.741248
Si Si6 0.111761 0.149470 0.433545
Si Si7 0.445125 0.755233 0.065664
Si Si8 0.445383 0.000000 0.732639
O O1 0.573716 0.125199 0.102882
O O2 0.500000 0.000000 0.136878
O O3 0.574645 0.000000 0.201860
O O4 0.500000 0.500000 0.128944
O O5 0.425240 0.500000 0.193515
O O6 0.426267 0.625010 0.094639
O O7 0.500000 0.742552 0.339947
O O8 0.427925 0.626388 0.291977
O O9 0.422391 0.734547 0.394828
O O10 0.427994 0.874347 0.301186
O O11 0.718797 0.358129 0.500000
O O12 0.730143 0.500000 0.407756
O O13 0.750000 0.250000 0.404047
O O14 0.663881 0.326095 0.411940
O O15 0.500000 0.500000 0.744158
O O16 0.105524 0.194994 0.500000
O O17 0.098839 0.000000 0.427637
O O18 0.500000 0.755213 0.065362
O O19 0.426156 0.765558 0.000000
O O20 0.500000 0.000000 0.736248
#
# Coordination Sequence:
#
# PCOD8265910 Si02
#       8
#     8   8  16  16   8  16  16   8
#     4   9  15  24  35  45  58  84 117 147 182 228
#     4   9  15  22  31  45  64  84 109 145 186 222
#     4  10  18  29  41  55  73  97 128 163 197 230
#     4   8  14  26  43  61  80  98 116 141 176 221
#     4   9  16  25  39  53  64  88 129 161 183 221
#     4   9  17  29  44  61  79  98 121 152 192 233
#     4   9  15  21  30  45  64  83 105 139 187 234
#     4   9  18  29  39  49  68  94 123 161 201 225
#
# _framework density 13.817375
#
# number of rings (size 3 to 8) (size 9 to 14) (size 15 to 20)
#    0.000    3.000    0.833    2.500    0.000    6.333 
#    1.500    1.250    0.000    1.500    0.000    0.000 
#    0.000    0.000    0.000    0.000    0.000    0.000 
#
# Total GULP energy -595045.620831 kJ/mol
# GULP energy per Si atom -12396.783767 kJ/mol
# Density = 1.378593 g / cm^3
# Si number density = 13.817375 Si / 1000 Ang^3
#
#
#
# Elastic Constant Matrix: (Units=GPa)
#
#
# Indices 1 2 3 4 5 6 
#
# 1 25.8440 25.8638 24.3700 0.0000 0.0000 0.0000
# 2 25.8638 127.9336 60.5567 0.0000 0.0000 0.0000
# 3 24.3700 60.5567 101.8706 0.0000 0.0000 0.0000
# 4 0.0000 0.0000 0.0000 23.4576 0.0000 0.0000
# 5 0.0000 0.0000 0.0000 0.0000 0.5775 0.0000
# 6 0.0000 0.0000 0.0000 0.0000 0.0000 12.5403
#
#
#
# Elastic Compliance Matrix: (Units=1/GPa)
#
#
# Indices 1 2 3 4 5 6 
#
# 1 0.053746 -0.006651 -0.008904 0.000000 0.000000 0.000000
# 2 -0.006651 0.011700 -0.005364 0.000000 0.000000 0.000000
# 3 -0.008904 -0.005364 0.015135 0.000000 0.000000 0.000000
# 4 0.000000 0.000000 0.000000 0.042630 0.000000 0.000000
# 5 0.000000 0.000000 0.000000 0.000000 1.731639 0.000000
# 6 0.000000 0.000000 0.000000 0.000000 0.000000 0.079743
#
#
# Mechanical properties :
#
#
# Convention : Reuss Voigt Hill
#
# Bulk Modulus (GPa) = 25.81082 53.02546 39.41814
# Shear Modulus (GPa) = 2.51339 16.97226 9.74283
#
# Velocity S-wave (km/s) = 1.35017 3.50855 2.65828
# Velocity P-wave (km/s) = 4.59904 7.40760 6.16537
#
# Compressibility (1/GPa) = 0.03874344
#
# Stress axis : x y z
#
# Youngs Moduli (GPa) = 18.60616 85.46849 66.07209
#
# Poissons Ratio (x) = 0.56845 0.58828
# Poissons Ratio (y) = 0.12375 0.35442
# Poissons Ratio (z) = 0.16566 0.45846
#
# Static dielectric constant tensor:
#      x y z
#    x 2.240570 0.000000 0.000000 
#    y 0.000000 2.971480 0.000000 
#    z 0.000000 0.000000 2.752980 
# 
# 
# High freq. dielectric constant tensor:
#      x y z
#    x 1.451980 0.000000 0.000000 
#    y 0.000000 1.540340 0.000000 
#    z 0.000000 0.000000 1.522490 
# 
# From -- ./inp_files/66036.got.cif
#   From: 2010.03.12/outbox.cif.g09.slc.cpg/sg65_34_cif.got.tgz:66036.got - 2010.04.10 20:52:16.
