data_PCOD8265737
_publ_section_title
;
Structure prediction by ZEFSAII (Michael W. Deem and Ramdas Pophale) SiO2 
 PCOD8265737
Probable space group: C M M M
;
_chemical_formula_sum "Si O2"
_cell_formula_units_Z 80
_cell_length_a 9.072611
_cell_length_b 36.225334
_cell_length_c 16.837172
_cell_angle_alpha 90.000000
_cell_angle_beta 90.000000
_cell_angle_gamma 90.000000
_cell_volume 5533.677399
_symmetry_space_group_name_H-M "C M M M"
_symmetry_group_IT_number 65
_symmetry_cell_setting 'orthorhombic'
loop_
_space_group_symop_operation_xyz
x,y,z
-x,-y,z
x,-y,-z
-x,y,-z
-x,-y,-z
x,y,-z
-x,y,z
x,-y,z
1/2+x,1/2+y,z
1/2-x,1/2-y,z
1/2+x,1/2-y,-z
1/2-x,1/2+y,-z
1/2-x,1/2-y,-z
1/2+x,1/2+y,-z
1/2-x,1/2+y,z
1/2+x,1/2-y,z
loop_
_atom_site_type_symbol
_atom_site_label
_atom_site_fract_x
_atom_site_fract_y
_atom_site_fract_z
Si Si1 0.834155 0.714363 0.405437
Si Si2 0.171987 0.858611 0.409104
Si Si3 0.673943 0.430584 0.689006
Si Si4 0.674894 0.500000 0.411695
Si Si5 0.173460 0.457051 0.158351
Si Si6 0.833754 0.956206 0.000000
O O1 0.830584 0.715617 0.500000
O O2 0.750000 0.750000 0.370508
O O3 0.756388 0.677064 0.375632
O O4 0.000000 0.714990 0.372693
O O5 0.216572 0.867671 0.500000
O O6 0.217113 0.892892 0.354623
O O7 0.000000 0.849951 0.403629
O O8 0.500000 0.433624 0.705180
O O9 0.730741 0.463817 0.633757
O O10 0.759942 0.432336 0.771617
O O11 0.500000 0.500000 0.417261
O O12 0.743332 0.500000 0.500000
O O13 0.212182 0.500000 0.173470
O O14 0.247358 0.442279 0.077595
O O15 0.000000 0.450777 0.152164
O O16 0.000000 0.940273 0.000000
O O17 0.836485 0.000000 0.000000
#
# Coordination Sequence:
#
# PCOD8265737 Si02
#       6
#    16  16  16   8  16   8
#     4   9  16  26  41  59  78 102 132 168 210 256
#     4   9  17  28  41  59  82 108 141 180 217 250
#     4  10  18  28  43  60  80 108 144 181 213 247
#     4   9  16  26  41  58  75 102 145 189 218 239
#     4  10  19  30  43  60  83 107 133 168 213 258
#     4   9  17  29  47  65  79  97 128 167 208 255
#
# _framework density 14.456932
#
# number of rings (size 3 to 8) (size 9 to 14) (size 15 to 20)
#    0.000    2.600    1.000    2.100    0.000    7.600 
#    0.000    0.000    0.000    2.400    0.000    0.000 
#    0.000    0.000    0.000    0.900    0.000   12.000 
#
# Total GULP energy -496014.242086 kJ/mol
# GULP energy per Si atom -12400.356052 kJ/mol
# Density = 1.442403 g / cm^3
# Si number density = 14.456932 Si / 1000 Ang^3
#
#
#
# Elastic Constant Matrix: (Units=GPa)
#
#
# Indices 1 2 3 4 5 6 
#
# 1 76.4501 52.4589 45.1154 0.0000 0.0000 0.0000
# 2 52.4589 109.2715 48.0017 0.0000 0.0000 0.0000
# 3 45.1154 48.0017 98.6856 0.0000 0.0000 0.0000
# 4 0.0000 0.0000 0.0000 5.0314 0.0000 0.0000
# 5 0.0000 0.0000 0.0000 0.0000 16.4532 0.0000
# 6 0.0000 0.0000 0.0000 0.0000 0.0000 21.9549
#
#
#
# Elastic Compliance Matrix: (Units=1/GPa)
#
#
# Indices 1 2 3 4 5 6 
#
# 1 0.022228 -0.007894 -0.006322 0.000000 0.000000 0.000000
# 2 -0.007894 0.014442 -0.003416 0.000000 0.000000 0.000000
# 3 -0.006322 -0.003416 0.014685 0.000000 0.000000 0.000000
# 4 0.000000 0.000000 0.000000 0.198753 0.000000 0.000000
# 5 0.000000 0.000000 0.000000 0.000000 0.060778 0.000000
# 6 0.000000 0.000000 0.000000 0.000000 0.000000 0.045548
#
#
# Mechanical properties :
#
#
# Convention : Reuss Voigt Hill
#
# Bulk Modulus (GPa) = 62.14682 63.95103 63.04892
# Shear Modulus (GPa) = 12.59250 17.94331 15.26790
#
# Velocity S-wave (km/s) = 2.95453 3.52683 3.25329
# Velocity P-wave (km/s) = 7.39729 7.80489 7.60382
#
# Compressibility (1/GPa) = 0.01609093
#
# Stress axis : x y z
#
# Youngs Moduli (GPa) = 44.98827 69.24365 68.09709
#
# Poissons Ratio (x) = 0.54661 0.43052
# Poissons Ratio (y) = 0.35514 0.23261
# Poissons Ratio (z) = 0.28442 0.23652
#
# Static dielectric constant tensor:
#      x y z
#    x 2.814240 0.000000 0.000000 
#    y 0.000000 2.713040 0.000000 
#    z 0.000000 0.000000 2.677630 
# 
# 
# High freq. dielectric constant tensor:
#      x y z
#    x 1.554690 0.000000 0.000000 
#    y 0.000000 1.530400 0.000000 
#    z 0.000000 0.000000 1.524490 
# 
# From -- ./inp_files/50187.got.cif
#   From: 2010.03.12/outbox.cif.g09.slc.cpg/sg65_26_cif.got.tgz:50187.got - 2010.04.10 20:52:16.
