data_PCOD8265806
_publ_section_title
;
Structure prediction by ZEFSAII (Michael W. Deem and Ramdas Pophale) SiO2 
 PCOD8265806
Probable space group: C M M M
;
_chemical_formula_sum "Si O2"
_cell_formula_units_Z 88
_cell_length_a 28.825109
_cell_length_b 9.692717
_cell_length_c 17.762232
_cell_angle_alpha 90.000000
_cell_angle_beta 90.000000
_cell_angle_gamma 90.000000
_cell_volume 4962.654369
_symmetry_space_group_name_H-M "C M M M"
_symmetry_group_IT_number 65
_symmetry_cell_setting 'orthorhombic'
loop_
_space_group_symop_operation_xyz
x,y,z
-x,-y,z
x,-y,-z
-x,y,-z
-x,-y,-z
x,y,-z
-x,y,z
x,-y,z
1/2+x,1/2+y,z
1/2-x,1/2-y,z
1/2+x,1/2-y,-z
1/2-x,1/2+y,-z
1/2-x,1/2-y,-z
1/2+x,1/2+y,-z
1/2-x,1/2+y,z
1/2+x,1/2-y,z
loop_
_atom_site_type_symbol
_atom_site_label
_atom_site_fract_x
_atom_site_fract_y
_atom_site_fract_z
Si Si1 0.854605 0.662888 0.854918
Si Si2 0.448889 0.345014 0.410547
Si Si3 0.866344 0.658515 0.413996
Si Si4 0.203868 0.338564 0.286038
Si Si5 0.203757 0.662799 0.000000
Si Si6 0.949354 0.664235 0.085296
O O1 0.857737 0.500000 0.850612
O O2 0.830436 0.717643 0.779113
O O3 0.824883 0.708018 0.926842
O O4 0.907198 0.722932 0.863262
O O5 0.449101 0.337242 0.500000
O O6 0.500000 0.300374 0.380661
O O7 0.437501 0.500000 0.383682
O O8 0.409347 0.243770 0.379130
O O9 0.855199 0.700922 0.500000
O O10 0.881299 0.500000 0.407818
O O11 0.820340 0.688250 0.366180
O O12 0.215938 0.500000 0.274735
O O13 0.250000 0.250000 0.282985
O O14 0.250000 0.750000 0.000000
O O15 0.215044 0.500000 0.000000
O O16 0.947561 0.500000 0.084796
O O17 0.000000 0.714046 0.115837
O O18 0.942318 0.717439 0.000000
#
# Coordination Sequence:
#
# PCOD8265806 Si02
#       6
#    16  16  16  16   8  16
#     4   9  16  28  44  65  93 121 148 183 228 275
#     4   8  14  26  46  72  98 122 151 188 229 276
#     4   9  18  32  48  67  92 123 160 199 239 284
#     4  10  21  35  49  66  91 122 156 198 245 286
#     4  10  18  28  45  67  91 119 150 184 221 266
#     4   8  12  20  38  64  92 120 147 175 215 267
#
# _framework density 17.732445999999999
#
# number of rings (size 3 to 8) (size 9 to 14) (size 15 to 20)
#    0.000    3.091    0.909    1.636    0.000    1.455 
#    0.000    2.727    0.000    3.273    0.000    0.000 
#    0.000    2.909    0.000    0.000    0.000    0.182 
#
# Total GULP energy -545276.132935 kJ/mol
# GULP energy per Si atom -12392.639385 kJ/mol
# Density = 1.769209 g / cm^3
# Si number density = 17.732446 Si / 1000 Ang^3
#
#
#
# Elastic Constant Matrix: (Units=GPa)
#
#
# Indices 1 2 3 4 5 6 
#
# 1 184.1246 56.2325 65.0993 0.0000 0.0000 0.0000
# 2 56.2325 40.4877 26.7329 0.0000 0.0000 0.0000
# 3 65.0993 26.7329 84.6890 0.0000 0.0000 0.0000
# 4 0.0000 0.0000 0.0000 9.6998 0.0000 0.0000
# 5 0.0000 0.0000 0.0000 0.0000 25.1551 0.0000
# 6 0.0000 0.0000 0.0000 0.0000 0.0000 31.7155
#
#
#
# Elastic Compliance Matrix: (Units=1/GPa)
#
#
# Indices 1 2 3 4 5 6 
#
# 1 0.010598 -0.011800 -0.004422 0.000000 0.000000 0.000000
# 2 -0.011800 0.044340 -0.004926 0.000000 0.000000 0.000000
# 3 -0.004422 -0.004926 0.016762 0.000000 0.000000 0.000000
# 4 0.000000 0.000000 0.000000 0.103094 0.000000 0.000000
# 5 0.000000 0.000000 0.000000 0.000000 0.039753 0.000000
# 6 0.000000 0.000000 0.000000 0.000000 0.000000 0.031530
#
#
# Mechanical properties :
#
#
# Convention : Reuss Voigt Hill
#
# Bulk Modulus (GPa) = 34.00827 67.27008 50.63918
# Shear Modulus (GPa) = 16.76862 24.06319 20.41591
#
# Velocity S-wave (km/s) = 3.07847 3.68776 3.39681
# Velocity P-wave (km/s) = 5.64413 7.49342 6.63353
#
# Compressibility (1/GPa) = 0.02940461
#
# Stress axis : x y z
#
# Youngs Moduli (GPa) = 94.35410 22.55291 59.65905
#
# Poissons Ratio (x) = 0.26613 0.26381
# Poissons Ratio (y) = 1.11339 0.29387
# Poissons Ratio (z) = 0.41723 0.11109
#
# Static dielectric constant tensor:
#      x y z
#    x 3.655980 0.000000 0.000000 
#    y 0.000000 2.946600 0.000000 
#    z 0.000000 0.000000 3.606040 
# 
# 
# High freq. dielectric constant tensor:
#      x y z
#    x 1.699770 0.000000 0.000000 
#    y 0.000000 1.639510 0.000000 
#    z 0.000000 0.000000 1.667770 
# 
# From -- ./inp_files/57986.got.cif
#   From: 2010.03.12/outbox.cif.g09.slc.cpg/sg65_29_cif.got.tgz:57986.got - 2010.04.10 20:52:16.
