data_PCOD8265825
_publ_section_title
;
Structure prediction by ZEFSAII (Michael W. Deem and Ramdas Pophale) SiO2 
 PCOD8265825
Probable space group: C M M M
;
_chemical_formula_sum "Si O2"
_cell_formula_units_Z 104
_cell_length_a 18.281048
_cell_length_b 13.786231
_cell_length_c 24.162650
_cell_angle_alpha 90.000000
_cell_angle_beta 90.000000
_cell_angle_gamma 90.000000
_cell_volume 6089.634167
_symmetry_space_group_name_H-M "C M M M"
_symmetry_group_IT_number 65
_symmetry_cell_setting 'orthorhombic'
loop_
_space_group_symop_operation_xyz
x,y,z
-x,-y,z
x,-y,-z
-x,y,-z
-x,-y,-z
x,y,-z
-x,y,z
x,-y,z
1/2+x,1/2+y,z
1/2-x,1/2-y,z
1/2+x,1/2-y,-z
1/2-x,1/2+y,-z
1/2-x,1/2-y,-z
1/2+x,1/2+y,-z
1/2-x,1/2+y,z
1/2+x,1/2-y,z
loop_
_atom_site_type_symbol
_atom_site_label
_atom_site_fract_x
_atom_site_fract_y
_atom_site_fract_z
Si Si1 0.800316 0.610543 0.733711
Si Si2 0.660169 0.614256 0.668242
Si Si3 0.280862 0.109377 0.138519
Si Si4 0.133331 0.794210 0.873981
Si Si5 0.582387 0.384616 0.561114
Si Si6 0.500000 0.388492 0.934591
Si Si7 0.416668 0.266783 0.248127
O O1 0.821490 0.500000 0.719728
O O2 0.738600 0.651395 0.691337
O O3 0.769569 0.620123 0.795725
O O4 0.872427 0.674728 0.728351
O O5 0.661590 0.500000 0.667981
O O6 0.640335 0.654763 0.606815
O O7 0.595343 0.645647 0.709365
O O8 0.203156 0.138536 0.112619
O O9 0.344726 0.180941 0.116399
O O10 0.302274 0.000000 0.121264
O O11 0.070498 0.828838 0.914975
O O12 0.107387 0.806076 0.811300
O O13 0.606729 0.347880 0.500000
O O14 0.500000 0.347089 0.574182
O O15 0.581743 0.500000 0.562209
O O16 0.500000 0.500000 0.911899
O O17 0.500000 0.389734 0.000000
O O18 0.500000 0.233714 0.245911
#
# Coordination Sequence:
#
# PCOD8265825 Si02
#       7
#    16  16  16  16  16   8  16
#     4   9  18  31  47  67  96 132 164 201 246 293
#     4  10  18  28  45  71 100 128 160 199 250 304
#     4   9  17  32  54  78 103 135 171 208 254 302
#     4  10  19  34  54  77 105 134 170 210 251 307
#     4   8  14  25  40  61  95 135 168 201 247 305
#     4  11  24  40  57  79 109 141 169 207 262 311
#     4  11  20  30  46  72 102 128 160 202 249 296
#
# _framework density 17.078201
#
# number of rings (size 3 to 8) (size 9 to 14) (size 15 to 20)
#    0.000    2.385    2.308    1.846    0.000    1.846 
#    0.000    1.923    0.000    3.692    0.000    0.000 
#    0.000    0.000    0.000    9.231    0.000    0.154 
#
# Total GULP energy -644515.570730 kJ/mol
# GULP energy per Si atom -12394.530206 kJ/mol
# Density = 1.703933 g / cm^3
# Si number density = 17.078201 Si / 1000 Ang^3
#
#
#
# Elastic Constant Matrix: (Units=GPa)
#
#
# Indices 1 2 3 4 5 6 
#
# 1 105.7270 45.2115 38.5690 0.0000 0.0000 0.0000
# 2 45.2115 68.7183 32.8609 0.0000 0.0000 0.0000
# 3 38.5690 32.8609 71.6605 0.0000 0.0000 0.0000
# 4 0.0000 0.0000 0.0000 14.5975 0.0000 0.0000
# 5 0.0000 0.0000 0.0000 0.0000 23.3339 0.0000
# 6 0.0000 0.0000 0.0000 0.0000 0.0000 20.6332
#
#
#
# Elastic Compliance Matrix: (Units=1/GPa)
#
#
# Indices 1 2 3 4 5 6 
#
# 1 0.014115 -0.007242 -0.004276 0.000000 0.000000 0.000000
# 2 -0.007242 0.022355 -0.006353 0.000000 0.000000 0.000000
# 3 -0.004276 -0.006353 0.019170 0.000000 0.000000 0.000000
# 4 0.000000 0.000000 0.000000 0.068505 0.000000 0.000000
# 5 0.000000 0.000000 0.000000 0.000000 0.042856 0.000000
# 6 0.000000 0.000000 0.000000 0.000000 0.000000 0.048466
#
#
# Mechanical properties :
#
#
# Convention : Reuss Voigt Hill
#
# Bulk Modulus (GPa) = 50.25941 53.26540 51.76240
# Shear Modulus (GPa) = 19.39179 20.34389 19.86784
#
# Velocity S-wave (km/s) = 3.37333 3.45515 3.41448
# Velocity P-wave (km/s) = 6.68321 6.86835 6.77641
#
# Compressibility (1/GPa) = 0.01989677
#
# Stress axis : x y z
#
# Youngs Moduli (GPa) = 70.84656 44.73290 52.16574
#
# Poissons Ratio (x) = 0.32395 0.22307
# Poissons Ratio (y) = 0.51305 0.33143
# Poissons Ratio (z) = 0.30295 0.28421
#
# Static dielectric constant tensor:
#      x y z
#    x 3.279840 0.000000 0.000000 
#    y 0.000000 3.215580 0.000000 
#    z 0.000000 0.000000 3.215640 
# 
# 
# High freq. dielectric constant tensor:
#      x y z
#    x 1.654720 0.000000 0.000000 
#    y 0.000000 1.646380 0.000000 
#    z 0.000000 0.000000 1.637510 
# 
# From -- ./inp_files/70543.got.cif
#   From: 2010.03.12/outbox.cif.g09.slc.cpg/sg65_36_cif.got.tgz:70543.got - 2010.04.10 20:52:16.
