data_PCOD8265181
_publ_section_title
;
Structure prediction by ZEFSAII (Michael W. Deem and Ramdas Pophale) SiO2 
 PCOD8265181
Probable space group: C M M M
;
_chemical_formula_sum "Si O2"
_cell_formula_units_Z 64
_cell_length_a 24.360740
_cell_length_b 18.061853
_cell_length_c 7.583083
_cell_angle_alpha 90.000000
_cell_angle_beta 90.000000
_cell_angle_gamma 90.000000
_cell_volume 3336.557315
_symmetry_space_group_name_H-M "C M M M"
_symmetry_group_IT_number 65
_symmetry_cell_setting 'orthorhombic'
loop_
_space_group_symop_operation_xyz
x,y,z
-x,-y,z
x,-y,-z
-x,y,-z
-x,-y,-z
x,y,-z
-x,y,z
x,-y,z
1/2+x,1/2+y,z
1/2-x,1/2-y,z
1/2+x,1/2-y,-z
1/2-x,1/2+y,-z
1/2-x,1/2-y,-z
1/2+x,1/2+y,-z
1/2-x,1/2+y,z
1/2+x,1/2-y,z
loop_
_atom_site_type_symbol
_atom_site_label
_atom_site_fract_x
_atom_site_fract_y
_atom_site_fract_z
Si Si1 0.811768 0.086308 0.000000
Si Si2 0.500000 0.337885 0.295696
Si Si3 0.316233 0.086395 0.000000
Si Si4 0.000000 0.332217 0.206449
Si Si5 0.618234 0.835502 0.302059
Si Si6 0.381595 0.338670 0.292575
O O1 0.747847 0.103871 0.000000
O O2 0.835830 0.121108 0.178427
O O3 0.824752 0.000000 0.000000
O O4 0.500000 0.353324 0.500000
O O5 0.500000 0.251735 0.263116
O O6 0.441736 0.369644 0.224884
O O7 0.341334 0.121293 0.825029
O O8 0.328886 0.000000 0.000000
O O9 0.943949 0.367440 0.282886
O O10 0.000000 0.343401 0.000000
O O11 0.638857 0.849772 0.500000
O O12 0.620645 0.748748 0.254815
O O13 0.371986 0.355332 0.500000
#
# Coordination Sequence:
#
# PCOD8265181 Si02
#       6
#     8   8   8   8  16  16
#     4  11  25  40  55  76 110 153 194 233 280 331
#     4   8  16  30  52  87 119 143 174 218 276 337
#     4  11  25  42  55  76 110 151 194 235 278 329
#     4  10  16  28  56  90 119 143 169 217 279 337
#     4  10  20  37  61  88 114 144 182 228 277 330
#     4   9  19  36  60  87 114 143 181 228 278 330
#
# _framework density 19.181446999999999
#
# number of rings (size 3 to 8) (size 9 to 14) (size 15 to 20)
#    0.000    2.250    1.250    3.375    5.250    4.000 
#    0.000    7.500    0.000    3.750    0.000    0.000 
#    0.000    0.000    0.000    0.000    0.000    0.000 
#
# Total GULP energy -396528.987032 kJ/mol
# GULP energy per Si atom -12391.530845 kJ/mol
# Density = 1.913779 g / cm^3
# Si number density = 19.181447 Si / 1000 Ang^3
#
#
#
# Elastic Constant Matrix: (Units=GPa)
#
#
# Indices 1 2 3 4 5 6 
#
# 1 148.9702 74.5532 81.8503 0.0000 0.0000 0.0000
# 2 74.5532 68.7713 56.9494 0.0000 0.0000 0.0000
# 3 81.8503 56.9494 128.6762 0.0000 0.0000 0.0000
# 4 0.0000 0.0000 0.0000 38.9916 0.0000 0.0000
# 5 0.0000 0.0000 0.0000 0.0000 -10.9647 0.0000
# 6 0.0000 0.0000 0.0000 0.0000 0.0000 -30.5134
#
#
#
# Elastic Compliance Matrix: (Units=1/GPa)
#
#
# Indices 1 2 3 4 5 6 
#
# 1 0.015826 -0.013923 -0.003905 0.000000 0.000000 0.000000
# 2 -0.013923 0.035202 -0.006723 0.000000 0.000000 0.000000
# 3 -0.003905 -0.006723 0.013231 0.000000 0.000000 0.000000
# 4 0.000000 0.000000 0.000000 0.025647 0.000000 0.000000
# 5 0.000000 0.000000 0.000000 0.000000 -0.091202 0.000000
# 6 0.000000 0.000000 0.000000 0.000000 0.000000 -0.032773
#
#
# Mechanical properties :
#
#
# Convention : Reuss Voigt Hill
#
# Bulk Modulus (GPa) = 65.97765 85.90262 75.94014
# Shear Modulus (GPa) = 248.92279 8.37370 128.64824
#
# Velocity S-wave (km/s) = 11.40414 2.09165 8.19846
# Velocity P-wave (km/s) = 14.41795 7.12143 11.37084
#
# Compressibility (1/GPa) = 0.01515665
#
# Stress axis : x y z
#
# Youngs Moduli (GPa) = 63.18660 28.40733 75.58053
#
# Poissons Ratio (x) = 0.39552 0.29513
# Poissons Ratio (y) = 0.87975 0.50815
# Poissons Ratio (z) = 0.24673 0.19099
#
# Static dielectric constant tensor:
#      x y z
#    x 3.917440 0.000000 0.000000 
#    y 0.000000 3.155190 0.000000 
#    z 0.000000 0.000000 3.514020 
# 
# 
# High freq. dielectric constant tensor:
#      x y z
#    x 1.759800 0.000000 0.000000 
#    y 0.000000 1.702790 0.000000 
#    z 0.000000 0.000000 1.758350 
# 
# From -- ./inp_files/13435.got.cif
#   From: 2010.03.12/outbox.cif.g09.slc.cpg/sg65_7_cif.got.tgz:13435.got - 2010.04.10 20:52:16.
