data_PCOD8265179
_publ_section_title
;
Structure prediction by ZEFSAII (Michael W. Deem and Ramdas Pophale) SiO2 
 PCOD8265179
Probable space group: C M M M
;
_chemical_formula_sum "Si O2"
_cell_formula_units_Z 88
_cell_length_a 20.218336
_cell_length_b 25.224909
_cell_length_c 9.713088
_cell_angle_alpha 90.000000
_cell_angle_beta 90.000000
_cell_angle_gamma 90.000000
_cell_volume 4953.730106
_symmetry_space_group_name_H-M "C M M M"
_symmetry_group_IT_number 65
_symmetry_cell_setting 'orthorhombic'
loop_
_space_group_symop_operation_xyz
x,y,z
-x,-y,z
x,-y,-z
-x,y,-z
-x,-y,-z
x,y,-z
-x,y,z
x,-y,z
1/2+x,1/2+y,z
1/2-x,1/2-y,z
1/2+x,1/2-y,-z
1/2-x,1/2+y,-z
1/2-x,1/2-y,-z
1/2+x,1/2+y,-z
1/2-x,1/2+y,z
1/2+x,1/2-y,z
loop_
_atom_site_type_symbol
_atom_site_label
_atom_site_fract_x
_atom_site_fract_y
_atom_site_fract_z
Si Si1 0.072317 0.677753 0.839344
Si Si2 0.184975 0.939432 0.840006
Si Si3 0.250000 0.250000 0.744720
Si Si4 0.076540 0.890801 0.659066
Si Si5 0.391246 0.728027 0.346058
Si Si6 0.792464 0.639749 0.844938
O O1 0.072194 0.732990 0.758504
O O2 0.132136 0.640069 0.783205
O O3 0.000000 0.650678 0.818413
O O4 0.085111 0.690635 0.000000
O O5 0.118236 0.930230 0.754497
O O6 0.243399 0.902620 0.773317
O O7 0.207479 0.000000 0.823552
O O8 0.171311 0.925174 0.000000
O O9 0.312625 0.262294 0.649222
O O10 0.236458 0.300906 0.839906
O O11 0.096337 0.899605 0.500000
O O12 0.092163 0.830869 0.704611
O O13 0.000000 0.904006 0.683511
O O14 0.419140 0.737123 0.500000
O O15 0.797566 0.620030 0.000000
#
# Coordination Sequence:
#
# PCOD8265179 Si02
#       6
#    16  16   8  16  16  16
#     4   9  18  31  48  72 102 135 166 196 236 292
#     4  10  21  37  55  74  97 127 166 211 252 289
#     4  10  16  28  50  74  99 130 161 202 243 292
#     4  10  21  36  52  71  99 134 168 204 248 294
#     4  10  19  30  47  73 105 134 162 200 245 292
#     4   9  17  30  50  75 100 128 162 202 246 293
#
# _framework density 17.764391
#
# number of rings (size 3 to 8) (size 9 to 14) (size 15 to 20)
#    0.000    2.364    1.818    1.091    0.000    3.636 
#    0.000    1.818    0.000    0.545    0.000    3.818 
#    0.000    0.000    0.000    6.364    0.000    6.364 
#
# Total GULP energy -545342.551293 kJ/mol
# GULP energy per Si atom -12394.148893 kJ/mol
# Density = 1.772396 g / cm^3
# Si number density = 17.764391 Si / 1000 Ang^3
#
#
#
# Elastic Constant Matrix: (Units=GPa)
#
#
# Indices 1 2 3 4 5 6 
#
# 1 135.5715 52.7872 29.6901 0.0000 0.0000 0.0000
# 2 52.7872 84.1189 24.0694 0.0000 0.0000 0.0000
# 3 29.6901 24.0694 48.1653 0.0000 0.0000 0.0000
# 4 0.0000 0.0000 0.0000 18.3152 0.0000 0.0000
# 5 0.0000 0.0000 0.0000 0.0000 19.7749 0.0000
# 6 0.0000 0.0000 0.0000 0.0000 0.0000 18.4670
#
#
#
# Elastic Compliance Matrix: (Units=1/GPa)
#
#
# Indices 1 2 3 4 5 6 
#
# 1 0.010278 -0.005411 -0.003632 0.000000 0.000000 0.000000
# 2 -0.005411 0.016720 -0.005020 0.000000 0.000000 0.000000
# 3 -0.003632 -0.005020 0.025509 0.000000 0.000000 0.000000
# 4 0.000000 0.000000 0.000000 0.054599 0.000000 0.000000
# 5 0.000000 0.000000 0.000000 0.000000 0.050569 0.000000
# 6 0.000000 0.000000 0.000000 0.000000 0.000000 0.054151
#
#
# Mechanical properties :
#
#
# Convention : Reuss Voigt Hill
#
# Bulk Modulus (GPa) = 41.01376 53.43878 47.22627
# Shear Modulus (GPa) = 20.15487 22.06536 21.11012
#
# Velocity S-wave (km/s) = 3.37199 3.52818 3.45097
# Velocity P-wave (km/s) = 6.18855 6.83701 6.52085
#
# Compressibility (1/GPa) = 0.02438206
#
# Stress axis : x y z
#
# Youngs Moduli (GPa) = 97.29200 59.80954 39.20152
#
# Poissons Ratio (x) = 0.32361 0.14238
# Poissons Ratio (y) = 0.52642 0.19679
# Poissons Ratio (z) = 0.35335 0.30024
#
# Static dielectric constant tensor:
#      x y z
#    x 3.634030 0.000000 0.000000 
#    y 0.000000 3.088260 0.000000 
#    z 0.000000 0.000000 3.083210 
# 
# 
# High freq. dielectric constant tensor:
#      x y z
#    x 1.703970 0.000000 0.000000 
#    y 0.000000 1.656020 0.000000 
#    z 0.000000 0.000000 1.669180 
# 
# From -- ./inp_files/12301.got.cif
#   From: 2010.03.12/outbox.cif.g09.slc.cpg/sg65_7_cif.got.tgz:12301.got - 2010.04.10 20:52:16.
