data_PCOD8265630
_publ_section_title
;
Structure prediction by ZEFSAII (Michael W. Deem and Ramdas Pophale) SiO2 
 PCOD8265630
Probable space group: C M M M
;
_chemical_formula_sum "Si O2"
_cell_formula_units_Z 104
_cell_length_a 33.006270
_cell_length_b 18.214499
_cell_length_c 12.185040
_cell_angle_alpha 90.000000
_cell_angle_beta 90.000000
_cell_angle_gamma 90.000000
_cell_volume 7325.556755
_symmetry_space_group_name_H-M "C M M M"
_symmetry_group_IT_number 65
_symmetry_cell_setting 'orthorhombic'
loop_
_space_group_symop_operation_xyz
x,y,z
-x,-y,z
x,-y,-z
-x,y,-z
-x,-y,-z
x,y,-z
-x,y,z
x,-y,z
1/2+x,1/2+y,z
1/2-x,1/2-y,z
1/2+x,1/2-y,-z
1/2-x,1/2+y,-z
1/2-x,1/2-y,-z
1/2+x,1/2+y,-z
1/2-x,1/2+y,z
1/2+x,1/2-y,z
loop_
_atom_site_type_symbol
_atom_site_label
_atom_site_fract_x
_atom_site_fract_y
_atom_site_fract_z
Si Si1 0.092215 0.585401 0.500000
Si Si2 0.044771 0.414138 0.281500
Si Si3 0.166527 0.302167 0.500000
Si Si4 0.801896 0.638787 0.869049
Si Si5 0.296050 0.265742 0.293199
Si Si6 0.233712 0.578474 0.500000
Si Si7 0.271692 0.419302 0.734262
Si Si8 0.888998 0.586345 0.879627
O O1 0.108673 0.500000 0.500000
O O2 0.062993 0.600741 0.600474
O O3 0.126522 0.647946 0.500000
O O4 0.040940 0.500000 0.258769
O O5 0.075899 0.377748 0.194782
O O6 0.000000 0.378058 0.271229
O O7 0.171484 0.252971 0.389538
O O8 0.202809 0.357334 0.500000
O O9 0.802947 0.719737 0.817637
O O10 0.767100 0.590058 0.813230
O O11 0.844251 0.601997 0.834288
O O12 0.795241 0.642263 0.000000
O O13 0.250000 0.250000 0.335822
O O14 0.302206 0.350336 0.252565
O O15 0.210672 0.500000 0.500000
O O16 0.261109 0.584297 0.393303
O O17 0.290856 0.500000 0.761233
O O18 0.894966 0.500000 0.882764
O O19 0.893722 0.621338 0.000000
#
# Coordination Sequence:
#
# PCOD8265630 Si02
#       8
#     8  16   8  16  16   8  16  16
#     4  10  20  28  40  60  81 105 133 163 197 237
#     4   9  17  28  40  55  78 105 132 163 195 229
#     4  12  17  29  44  60  78 101 131 167 208 241
#     4  10  19  30  43  59  80 105 135 172 209 241
#     4  10  19  29  43  58  78 102 130 170 207 247
#     4  10  18  27  41  60  77  94 123 166 207 241
#     4  10  20  31  43  58  78 104 134 169 211 246
#     4   9  17  28  41  57  76 100 134 172 202 228
#
# _framework density 14.196873
#
# number of rings (size 3 to 8) (size 9 to 14) (size 15 to 20)
#    0.000    2.154    3.077    2.538    0.000    4.923 
#    0.000    1.538    0.000    0.000    0.000    0.000 
#    0.000    0.000    0.000    0.000    0.000   31.538 
#
# Total GULP energy -644225.052752 kJ/mol
# GULP energy per Si atom -12388.943322 kJ/mol
# Density = 1.416456 g / cm^3
# Si number density = 14.196873 Si / 1000 Ang^3
#
#
#
# Elastic Constant Matrix: (Units=GPa)
#
#
# Indices 1 2 3 4 5 6 
#
# 1 59.7042 13.4986 31.8854 0.0000 0.0000 0.0000
# 2 13.4986 70.6365 17.4342 0.0000 0.0000 0.0000
# 3 31.8854 17.4342 82.4112 0.0000 0.0000 0.0000
# 4 0.0000 0.0000 0.0000 12.0809 0.0000 0.0000
# 5 0.0000 0.0000 0.0000 0.0000 12.6087 0.0000
# 6 0.0000 0.0000 0.0000 0.0000 0.0000 8.3679
#
#
#
# Elastic Compliance Matrix: (Units=1/GPa)
#
#
# Indices 1 2 3 4 5 6 
#
# 1 0.021420 -0.002161 -0.007830 0.000000 0.000000 0.000000
# 2 -0.002161 0.015155 -0.002370 0.000000 0.000000 0.000000
# 3 -0.007830 -0.002370 0.015665 0.000000 0.000000 0.000000
# 4 0.000000 0.000000 0.000000 0.082776 0.000000 0.000000
# 5 0.000000 0.000000 0.000000 0.000000 0.079310 0.000000
# 6 0.000000 0.000000 0.000000 0.000000 0.000000 0.119504
#
#
# Mechanical properties :
#
#
# Convention : Reuss Voigt Hill
#
# Bulk Modulus (GPa) = 36.34024 37.59870 36.96947
# Shear Modulus (GPa) = 13.59717 16.60709 15.10213
#
# Velocity S-wave (km/s) = 3.09812 3.42390 3.26508
# Velocity P-wave (km/s) = 6.20087 6.49400 6.34913
#
# Compressibility (1/GPa) = 0.02751771
#
# Stress axis : x y z
#
# Youngs Moduli (GPa) = 46.68635 65.98548 63.83565
#
# Poissons Ratio (x) = 0.14257 0.49985
# Poissons Ratio (y) = 0.10087 0.15129
# Poissons Ratio (z) = 0.36557 0.15639
#
# Static dielectric constant tensor:
#      x y z
#    x 2.746390 0.000000 0.000000 
#    y 0.000000 3.068070 0.000000 
#    z 0.000000 0.000000 2.781980 
# 
# 
# High freq. dielectric constant tensor:
#      x y z
#    x 1.504750 0.000000 0.000000 
#    y 0.000000 1.514860 0.000000 
#    z 0.000000 0.000000 1.559110 
# 
# From -- ./inp_files/34251.got.cif
#   From: 2010.03.12/outbox.cif.g09.slc.cpg/sg65_18_cif.got.tgz:34251.got - 2010.04.10 20:52:16.
