data_PCOD8265413
_publ_section_title
;
Structure prediction by ZEFSAII (Michael W. Deem and Ramdas Pophale) SiO2 
 PCOD8265413
Probable space group: C M M M
;
_chemical_formula_sum "Si O2"
_cell_formula_units_Z 112
_cell_length_a 17.906865
_cell_length_b 32.848143
_cell_length_c 13.506177
_cell_angle_alpha 90.000000
_cell_angle_beta 90.000000
_cell_angle_gamma 90.000000
_cell_volume 7944.431396
_symmetry_space_group_name_H-M "C M M M"
_symmetry_group_IT_number 65
_symmetry_cell_setting 'orthorhombic'
loop_
_space_group_symop_operation_xyz
x,y,z
-x,-y,z
x,-y,-z
-x,y,-z
-x,-y,-z
x,y,-z
-x,y,z
x,-y,z
1/2+x,1/2+y,z
1/2-x,1/2-y,z
1/2+x,1/2-y,-z
1/2-x,1/2+y,-z
1/2-x,1/2-y,-z
1/2+x,1/2+y,-z
1/2-x,1/2+y,z
1/2+x,1/2-y,z
loop_
_atom_site_type_symbol
_atom_site_label
_atom_site_fract_x
_atom_site_fract_y
_atom_site_fract_z
Si Si1 0.583901 0.718120 0.617738
Si Si2 0.416043 0.110110 0.383532
Si Si3 0.290415 0.659461 0.385532
Si Si4 0.865660 0.303835 0.386081
Si Si5 0.730601 0.922193 0.699453
Si Si6 0.310529 0.500000 0.385680
Si Si7 0.088371 0.000000 0.792913
Si Si8 0.290881 0.454631 0.890086
O O1 0.593526 0.719979 0.500000
O O2 0.500000 0.707587 0.649997
O O3 0.636676 0.682036 0.658327
O O4 0.607233 0.761864 0.664986
O O5 0.395713 0.108673 0.500000
O O6 0.500000 0.094256 0.363480
O O7 0.408346 0.156473 0.343413
O O8 0.357193 0.081872 0.325811
O O9 0.299953 0.647761 0.500000
O O10 0.222675 0.691052 0.371013
O O11 0.277192 0.617808 0.327987
O O12 0.888041 0.300578 0.500000
O O13 0.761578 0.960588 0.639665
O O14 0.740094 0.927480 0.817711
O O15 0.333358 0.500000 0.500000
O O16 0.387099 0.500000 0.322381
O O17 0.124309 0.959832 0.846262
O O18 0.000000 0.000000 0.803791
O O19 0.255020 0.500000 0.893903
O O20 0.292955 0.434995 0.000000
#
# Coordination Sequence:
#
# PCOD8265413 Si02
#       8
#    16  16  16  16  16   8   8  16
#     4   9  15  22  33  50  75 108 140 166 194 230
#     4   9  16  25  39  61  87 112 138 171 205 232
#     4   9  16  24  35  53  79 109 137 164 197 236
#     4   8  13  22  36  52  73 105 142 171 194 227
#     4  10  17  29  43  58  79 109 139 171 204 246
#     4  10  18  28  42  58  81 117 149 160 179 234
#     4   8  15  27  44  66  83  95 122 168 211 238
#     4   8  16  30  48  65  76  95 130 173 218 254
#
# _framework density 14.097925
#
# number of rings (size 3 to 8) (size 9 to 14) (size 15 to 20)
#    0.429    2.714    0.714    3.000    0.000    4.143 
#    0.000    3.214    0.000    5.143    0.000    1.000 
#    0.000    9.143    0.000    2.286    0.000    0.000 
#
# Total GULP energy -693852.546857 kJ/mol
# GULP energy per Si atom -12390.224051 kJ/mol
# Density = 1.406584 g / cm^3
# Si number density = 14.097925 Si / 1000 Ang^3
#
#
#
# Elastic Constant Matrix: (Units=GPa)
#
#
# Indices 1 2 3 4 5 6 
#
# 1 97.0376 36.4601 37.2482 0.0000 0.0000 0.0000
# 2 36.4601 65.1828 25.5356 0.0000 0.0000 0.0000
# 3 37.2482 25.5356 81.6419 0.0000 0.0000 0.0000
# 4 0.0000 0.0000 0.0000 6.0128 0.0000 0.0000
# 5 0.0000 0.0000 0.0000 0.0000 9.9620 0.0000
# 6 0.0000 0.0000 0.0000 0.0000 0.0000 18.4846
#
#
#
# Elastic Compliance Matrix: (Units=1/GPa)
#
#
# Indices 1 2 3 4 5 6 
#
# 1 0.014434 -0.006261 -0.004627 0.000000 0.000000 0.000000
# 2 -0.006261 0.020200 -0.003461 0.000000 0.000000 0.000000
# 3 -0.004627 -0.003461 0.015442 0.000000 0.000000 0.000000
# 4 0.000000 0.000000 0.000000 0.166313 0.000000 0.000000
# 5 0.000000 0.000000 0.000000 0.000000 0.100381 0.000000
# 6 0.000000 0.000000 0.000000 0.000000 0.000000 0.054099
#
#
# Mechanical properties :
#
#
# Convention : Reuss Voigt Hill
#
# Bulk Modulus (GPa) = 46.77947 49.15002 47.96475
# Shear Modulus (GPa) = 12.29429 16.53311 14.41370
#
# Velocity S-wave (km/s) = 2.95628 3.42824 3.20097
# Velocity P-wave (km/s) = 6.70124 7.11403 6.91072
#
# Compressibility (1/GPa) = 0.02137690
#
# Stress axis : x y z
#
# Youngs Moduli (GPa) = 69.28187 49.50603 64.75724
#
# Poissons Ratio (x) = 0.30995 0.29963
# Poissons Ratio (y) = 0.43377 0.22415
# Poissons Ratio (z) = 0.32057 0.17136
#
# Static dielectric constant tensor:
#      x y z
#    x 2.741460 0.000000 0.000000 
#    y 0.000000 2.785270 0.000000 
#    z 0.000000 0.000000 2.439950 
# 
# 
# High freq. dielectric constant tensor:
#      x y z
#    x 1.535570 0.000000 0.000000 
#    y 0.000000 1.533040 0.000000 
#    z 0.000000 0.000000 1.483310 
# 
# From -- ./inp_files/43374.got.cif
#   From: 2010.03.12/outbox.cif.g09.slc.cpg/sg65_22_cif.got.tgz:43374.got - 2010.04.10 20:52:16.
