data_PCOD8265925
_publ_section_title
;
Structure prediction by ZEFSAII (Michael W. Deem and Ramdas Pophale) SiO2 
 PCOD8265925
Probable space group: C M M M
;
_chemical_formula_sum "Si O2"
_cell_formula_units_Z 96
_cell_length_a 25.477716
_cell_length_b 11.587525
_cell_length_c 21.764283
_cell_angle_alpha 90.000000
_cell_angle_beta 90.000000
_cell_angle_gamma 90.000000
_cell_volume 6425.331526
_symmetry_space_group_name_H-M "C M M M"
_symmetry_group_IT_number 65
_symmetry_cell_setting 'orthorhombic'
loop_
_space_group_symop_operation_xyz
x,y,z
-x,-y,z
x,-y,-z
-x,y,-z
-x,-y,-z
x,y,-z
-x,y,z
x,-y,z
1/2+x,1/2+y,z
1/2-x,1/2-y,z
1/2+x,1/2-y,-z
1/2-x,1/2+y,-z
1/2-x,1/2-y,-z
1/2+x,1/2+y,-z
1/2-x,1/2+y,z
1/2+x,1/2-y,z
loop_
_atom_site_type_symbol
_atom_site_label
_atom_site_fract_x
_atom_site_fract_y
_atom_site_fract_z
Si Si1 0.190701 0.762050 0.070440
Si Si2 0.898511 0.364726 0.862129
Si Si3 0.500000 0.862147 0.931145
Si Si4 0.438390 0.259638 0.249151
Si Si5 0.442740 0.136457 0.500000
Si Si6 0.061062 0.000000 0.811290
Si Si7 0.062451 0.629794 0.368470
Si Si8 0.366068 0.500000 0.930021
O O1 0.250000 0.750000 0.094393
O O2 0.155979 0.676600 0.110481
O O3 0.171558 0.891745 0.079645
O O4 0.186633 0.721814 0.000000
O O5 0.900201 0.500000 0.866781
O O6 0.904257 0.326072 0.792259
O O7 0.947938 0.310669 0.899335
O O8 0.500000 0.000000 0.928321
O O9 0.500000 0.815279 0.000000
O O10 0.500000 0.234854 0.239523
O O11 0.423752 0.390530 0.231028
O O12 0.421078 0.226350 0.318413
O O13 0.500000 0.196455 0.500000
O O14 0.413741 0.169428 0.564605
O O15 0.449764 0.000000 0.500000
O O16 0.089480 0.000000 0.877482
O O17 0.000000 0.000000 0.827477
O O18 0.082163 0.500000 0.350403
O O19 0.000000 0.625451 0.374932
O O20 0.390021 0.500000 0.000000
#
# Coordination Sequence:
#
# PCOD8265925 Si02
#       8
#    16  16   8  16   8   8  16   8
#     4  10  22  37  52  67  84 110 146 187 228 274
#     4  11  20  30  47  68  89 112 140 177 226 274
#     4   9  18  30  42  61  89 112 132 168 220 275
#     4  10  18  29  43  61  88 119 150 182 219 266
#     4   7  10  18  32  55  83 111 146 182 214 251
#     4  10  20  33  46  63  88 120 156 188 222 268
#     4   8  13  21  37  59  84 114 147 183 220 255
#     4  10  20  37  54  66  83 112 152 192 232 274
#
# _framework density 14.940863
#
# number of rings (size 3 to 8) (size 9 to 14) (size 15 to 20)
#    0.000    2.500    2.500    2.000    1.167    1.833 
#    0.000    0.000    0.000    0.500    0.000    3.500 
#    0.000    0.000    0.000    0.750    0.000    4.417 
#
# Total GULP energy -594827.175702 kJ/mol
# GULP energy per Si atom -12392.232827 kJ/mol
# Density = 1.490686 g / cm^3
# Si number density = 14.940863 Si / 1000 Ang^3
#
#
#
# Elastic Constant Matrix: (Units=GPa)
#
#
# Indices 1 2 3 4 5 6 
#
# 1 63.4411 25.6451 43.0588 0.0000 0.0000 0.0000
# 2 25.6451 70.1719 50.6026 0.0000 0.0000 0.0000
# 3 43.0588 50.6026 135.6628 0.0000 0.0000 0.0000
# 4 0.0000 0.0000 0.0000 17.8404 0.0000 0.0000
# 5 0.0000 0.0000 0.0000 0.0000 7.8071 0.0000
# 6 0.0000 0.0000 0.0000 0.0000 0.0000 14.4083
#
#
#
# Elastic Compliance Matrix: (Units=1/GPa)
#
#
# Indices 1 2 3 4 5 6 
#
# 1 0.020840 -0.003894 -0.005162 0.000000 0.000000 0.000000
# 2 -0.003894 0.020222 -0.006307 0.000000 0.000000 0.000000
# 3 -0.005162 -0.006307 0.011362 0.000000 0.000000 0.000000
# 4 0.000000 0.000000 0.000000 0.056053 0.000000 0.000000
# 5 0.000000 0.000000 0.000000 0.000000 0.128089 0.000000
# 6 0.000000 0.000000 0.000000 0.000000 0.000000 0.069404
#
#
# Mechanical properties :
#
#
# Convention : Reuss Voigt Hill
#
# Bulk Modulus (GPa) = 46.08612 56.43212 51.25912
# Shear Modulus (GPa) = 14.53787 18.00910 16.27349
#
# Velocity S-wave (km/s) = 3.12272 3.47559 3.30387
# Velocity P-wave (km/s) = 6.62680 7.34566 6.99547
#
# Compressibility (1/GPa) = 0.02169851
#
# Stress axis : x y z
#
# Youngs Moduli (GPa) = 47.98380 49.45161 88.01098
#
# Poissons Ratio (x) = 0.19255 0.45434
# Poissons Ratio (y) = 0.18683 0.55508
# Poissons Ratio (z) = 0.24771 0.31189
#
# Static dielectric constant tensor:
#      x y z
#    x 2.603150 0.000000 0.000000 
#    y 0.000000 2.830580 0.000000 
#    z 0.000000 0.000000 3.190770 
# 
# 
# High freq. dielectric constant tensor:
#      x y z
#    x 1.523800 0.000000 0.000000 
#    y 0.000000 1.566040 0.000000 
#    z 0.000000 0.000000 1.572920 
# 
# From -- ./inp_files/66030.got.cif
#   From: 2010.03.12/outbox.cif.g09.slc.cpg/sg65_34_cif.got.tgz:66030.got - 2010.04.10 20:52:16.
