data_PCOD8265598
_publ_section_title
;
Structure prediction by ZEFSAII (Michael W. Deem and Ramdas Pophale) SiO2 
 PCOD8265598
Probable space group: C M M M
;
_chemical_formula_sum "Si O2"
_cell_formula_units_Z 112
_cell_length_a 17.824838
_cell_length_b 32.294129
_cell_length_c 12.676999
_cell_angle_alpha 90.000000
_cell_angle_beta 90.000000
_cell_angle_gamma 90.000000
_cell_volume 7297.357505
_symmetry_space_group_name_H-M "C M M M"
_symmetry_group_IT_number 65
_symmetry_cell_setting 'orthorhombic'
loop_
_space_group_symop_operation_xyz
x,y,z
-x,-y,z
x,-y,-z
-x,y,-z
-x,-y,-z
x,y,-z
-x,y,z
x,-y,z
1/2+x,1/2+y,z
1/2-x,1/2-y,z
1/2+x,1/2-y,-z
1/2-x,1/2+y,-z
1/2-x,1/2-y,-z
1/2+x,1/2+y,-z
1/2-x,1/2+y,z
1/2+x,1/2-y,z
loop_
_atom_site_type_symbol
_atom_site_label
_atom_site_fract_x
_atom_site_fract_y
_atom_site_fract_z
Si Si1 0.586248 0.327771 0.124462
Si Si2 0.837121 0.908596 0.193454
Si Si3 0.170730 0.582174 0.125003
Si Si4 0.416232 0.163822 0.874750
Si Si5 0.166467 0.255475 0.125282
Si Si6 0.584179 0.548885 0.000000
Si Si7 0.915380 0.500000 0.125064
Si Si8 0.586149 0.452261 0.620960
O O1 0.500000 0.332941 0.158843
O O2 0.638225 0.361077 0.182291
O O3 0.614269 0.282667 0.160172
O O4 0.596065 0.334289 0.000000
O O5 0.748339 0.913207 0.185893
O O6 0.860751 0.924009 0.308335
O O7 0.875120 0.936419 0.104555
O O8 0.119916 0.620653 0.160078
O O9 0.129120 0.540597 0.163468
O O10 0.185921 0.581776 0.000000
O O11 0.500000 0.165979 0.827923
O O12 0.368649 0.202252 0.828505
O O13 0.419013 0.166862 0.000000
O O14 0.250000 0.250000 0.171959
O O15 0.170336 0.258175 0.000000
O O16 0.583587 0.500000 0.000000
O O17 0.500000 0.567182 0.000000
O O18 0.000000 0.500000 0.172009
O O19 0.920642 0.500000 0.000000
O O20 0.599300 0.439559 0.500000
O O21 0.500000 0.444703 0.653462
O O22 0.607292 0.500000 0.638879
#
# Coordination Sequence:
#
# PCOD8265598 Si02
#       8
#    16  16  16  16  16   8   8  16
#     4  10  18  27  38  57  87 120 148 176 218 270
#     4  12  20  29  45  64  93 118 150 184 226 270
#     4  10  19  28  41  62  90 119 152 189 229 266
#     4   9  16  27  41  56  80 121 166 195 220 264
#     4   9  16  25  38  54  80 114 157 194 223 255
#     4  11  22  30  40  60  89 124 152 176 212 269
#     4   9  18  30  42  56  83 122 155 183 220 270
#     4   9  19  35  51  64  82 115 158 197 229 262
#
# _framework density 15.348022
#
# number of rings (size 3 to 8) (size 9 to 14) (size 15 to 20)
#    0.000    2.143    1.429    3.857    2.000    6.857 
#    0.000    0.000    0.000    0.000    0.000    0.000 
#    0.000    8.000    0.000    1.429    0.000    0.000 
#
# Total GULP energy -694457.808874 kJ/mol
# GULP energy per Si atom -12401.032301 kJ/mol
# Density = 1.531309 g / cm^3
# Si number density = 15.348022 Si / 1000 Ang^3
#
#
#
# Elastic Constant Matrix: (Units=GPa)
#
#
# Indices 1 2 3 4 5 6 
#
# 1 141.3040 73.0229 22.2147 0.0000 0.0000 0.0000
# 2 73.0229 135.9440 23.2989 0.0000 0.0000 0.0000
# 3 22.2147 23.2989 33.8624 0.0000 0.0000 0.0000
# 4 0.0000 0.0000 0.0000 8.2077 0.0000 0.0000
# 5 0.0000 0.0000 0.0000 0.0000 11.1451 0.0000
# 6 0.0000 0.0000 0.0000 0.0000 0.0000 28.3482
#
#
#
# Elastic Compliance Matrix: (Units=1/GPa)
#
#
# Indices 1 2 3 4 5 6 
#
# 1 0.010108 -0.004867 -0.003282 0.000000 0.000000 0.000000
# 2 -0.004867 0.010683 -0.004157 0.000000 0.000000 0.000000
# 3 -0.003282 -0.004157 0.034545 0.000000 0.000000 0.000000
# 4 0.000000 0.000000 0.000000 0.121836 0.000000 0.000000
# 5 0.000000 0.000000 0.000000 0.000000 0.089726 0.000000
# 6 0.000000 0.000000 0.000000 0.000000 0.000000 0.035276
#
#
# Mechanical properties :
#
#
# Convention : Reuss Voigt Hill
#
# Bulk Modulus (GPa) = 32.54960 60.90925 46.72942
# Shear Modulus (GPa) = 14.83554 22.37846 18.60700
#
# Velocity S-wave (km/s) = 3.11241 3.82261 3.48564
# Velocity P-wave (km/s) = 5.84550 7.69771 6.83464
#
# Compressibility (1/GPa) = 0.03072235
#
# Stress axis : x y z
#
# Youngs Moduli (GPa) = 98.92960 93.60787 28.94764
#
# Poissons Ratio (x) = 0.45560 0.09502
# Poissons Ratio (y) = 0.48150 0.12035
# Poissons Ratio (z) = 0.32473 0.38916
#
# Static dielectric constant tensor:
#      x y z
#    x 3.198690 0.000000 0.000000 
#    y 0.000000 3.115480 0.000000 
#    z 0.000000 0.000000 2.399330 
# 
# 
# High freq. dielectric constant tensor:
#      x y z
#    x 1.602750 0.000000 0.000000 
#    y 0.000000 1.605550 0.000000 
#    z 0.000000 0.000000 1.506380 
# 
# From -- ./inp_files/43372.got.cif
#   From: 2010.03.12/outbox.cif.g09.slc.cpg/sg65_22_cif.got.tgz:43372.got - 2010.04.10 20:52:16.
