data_PCOD8265209
_publ_section_title
;
Structure prediction by ZEFSAII (Michael W. Deem and Ramdas Pophale) SiO2 
 PCOD8265209
Probable space group: C M M M
;
_chemical_formula_sum "Si O2"
_cell_formula_units_Z 112
_cell_length_a 31.359703
_cell_length_b 14.169482
_cell_length_c 20.834158
_cell_angle_alpha 90.000000
_cell_angle_beta 90.000000
_cell_angle_gamma 90.000000
_cell_volume 9257.673674
_symmetry_space_group_name_H-M "C M M M"
_symmetry_group_IT_number 65
_symmetry_cell_setting 'orthorhombic'
loop_
_space_group_symop_operation_xyz
x,y,z
-x,-y,z
x,-y,-z
-x,y,-z
-x,-y,-z
x,y,-z
-x,y,z
x,-y,z
1/2+x,1/2+y,z
1/2-x,1/2-y,z
1/2+x,1/2-y,-z
1/2-x,1/2+y,-z
1/2-x,1/2-y,-z
1/2+x,1/2+y,-z
1/2-x,1/2+y,z
1/2+x,1/2-y,z
loop_
_atom_site_type_symbol
_atom_site_label
_atom_site_fract_x
_atom_site_fract_y
_atom_site_fract_z
Si Si1 0.050684 0.207846 0.873377
Si Si2 0.550787 0.606062 0.000000
Si Si3 0.949342 0.397482 0.071970
Si Si4 0.548868 0.390086 0.745941
Si Si5 0.952803 0.111716 0.500000
Si Si6 0.729484 0.105190 0.575789
Si Si7 0.398142 0.388836 0.379657
Si Si8 0.315297 0.707904 0.423898
O O1 0.069140 0.154256 0.935678
O O2 0.066188 0.316670 0.878994
O O3 0.068250 0.164854 0.807222
O O4 0.000000 0.197731 0.872766
O O5 0.567398 0.500000 0.000000
O O6 0.500000 0.612879 0.000000
O O7 0.932779 0.500000 0.095837
O O8 0.000000 0.396812 0.069312
O O9 0.932292 0.376754 0.000000
O O10 0.500000 0.360809 0.730769
O O11 0.551158 0.500000 0.762175
O O12 0.578088 0.363558 0.685956
O O13 0.928332 0.146199 0.563024
O O14 0.000000 0.156879 0.500000
O O15 0.956577 0.000000 0.500000
O O16 0.729482 0.098066 0.500000
O O17 0.693750 0.182619 0.595713
O O18 0.775642 0.142882 0.597433
O O19 0.720543 0.000000 0.605113
O O20 0.387879 0.500000 0.385464
O O21 0.355038 0.328880 0.382993
O O22 0.324024 0.698032 0.500000
#
# Coordination Sequence:
#
# PCOD8265209 Si02
#       8
#    16   8  16  16   8  16  16  16
#     4   9  14  21  31  43  60  82 106 136 171 205
#     4   9  14  18  27  43  59  77 104 133 159 193
#     4   8  12  18  29  45  61  74  93 126 167 206
#     4   9  17  26  33  43  63  91 119 148 182 213
#     4   9  16  24  34  47  63  85 115 153 190 214
#     4   8  14  23  36  54  77  94 103 124 163 210
#     4  10  17  24  35  49  67  90 117 148 179 211
#     4   9  15  23  36  55  73  90 112 136 166 209
#
# _framework density 12.098072
#
# number of rings (size 3 to 8) (size 9 to 14) (size 15 to 20)
#    0.000    3.143    1.429    2.571    0.000    4.000 
#    0.000    0.000    0.000    0.857    0.000    0.000 
#    0.000    2.286    0.000    0.000    0.000    3.143 
#
# Total GULP energy -693899.800254 kJ/mol
# GULP energy per Si atom -12391.067862 kJ/mol
# Density = 1.207054 g / cm^3
# Si number density = 12.098072 Si / 1000 Ang^3
#
#
#
# Elastic Constant Matrix: (Units=GPa)
#
#
# Indices 1 2 3 4 5 6 
#
# 1 53.3119 32.3890 30.1472 0.0000 0.0000 0.0000
# 2 32.3890 89.8152 44.0354 0.0000 0.0000 0.0000
# 3 30.1472 44.0354 81.9709 0.0000 0.0000 0.0000
# 4 0.0000 0.0000 0.0000 14.1407 0.0000 0.0000
# 5 0.0000 0.0000 0.0000 0.0000 1.2387 0.0000
# 6 0.0000 0.0000 0.0000 0.0000 0.0000 13.3140
#
#
#
# Elastic Compliance Matrix: (Units=1/GPa)
#
#
# Indices 1 2 3 4 5 6 
#
# 1 0.026136 -0.006397 -0.006176 0.000000 0.000000 0.000000
# 2 -0.006397 0.016681 -0.006608 0.000000 0.000000 0.000000
# 3 -0.006176 -0.006608 0.018021 0.000000 0.000000 0.000000
# 4 0.000000 0.000000 0.000000 0.070718 0.000000 0.000000
# 5 0.000000 0.000000 0.000000 0.000000 0.807270 0.000000
# 6 0.000000 0.000000 0.000000 0.000000 0.000000 0.075109
#
#
# Mechanical properties :
#
#
# Convention : Reuss Voigt Hill
#
# Bulk Modulus (GPa) = 44.49314 48.69347 46.59331
# Shear Modulus (GPa) = 4.71792 13.64046 9.17919
#
# Velocity S-wave (km/s) = 1.97691 3.36146 2.75750
# Velocity P-wave (km/s) = 6.48597 7.44326 6.98105
#
# Compressibility (1/GPa) = 0.02247538
#
# Stress axis : x y z
#
# Youngs Moduli (GPa) = 38.26071 59.94852 55.49148
#
# Poissons Ratio (x) = 0.38351 0.34270
# Poissons Ratio (y) = 0.24477 0.36671
# Poissons Ratio (z) = 0.23629 0.39616
#
# Static dielectric constant tensor:
#      x y z
#    x 2.179380 0.000000 0.000000 
#    y 0.000000 2.768450 0.000000 
#    z 0.000000 0.000000 2.388280 
# 
# 
# High freq. dielectric constant tensor:
#      x y z
#    x 1.411150 0.000000 0.000000 
#    y 0.000000 1.458940 0.000000 
#    z 0.000000 0.000000 1.438490 
# 
# From -- ./inp_files/66531.got.cif
#   From: 2010.03.12/outbox.cif.g09.slc.cpg/sg65_34_cif.got.tgz:66531.got - 2010.04.10 20:52:16.
