data_PCOD8265864
_publ_section_title
;
Structure prediction by ZEFSAII (Michael W. Deem and Ramdas Pophale) SiO2 
 PCOD8265864
Probable space group: C M M M
;
_chemical_formula_sum "Si O2"
_cell_formula_units_Z 64
_cell_length_a 23.967623
_cell_length_b 21.654777
_cell_length_c 7.654683
_cell_angle_alpha 90.000000
_cell_angle_beta 90.000000
_cell_angle_gamma 90.000000
_cell_volume 3972.884055
_symmetry_space_group_name_H-M "C M M M"
_symmetry_group_IT_number 65
_symmetry_cell_setting 'orthorhombic'
loop_
_space_group_symop_operation_xyz
x,y,z
-x,-y,z
x,-y,-z
-x,y,-z
-x,-y,-z
x,y,-z
-x,y,z
x,-y,z
1/2+x,1/2+y,z
1/2-x,1/2-y,z
1/2+x,1/2-y,-z
1/2-x,1/2+y,-z
1/2-x,1/2-y,-z
1/2+x,1/2+y,-z
1/2-x,1/2+y,z
1/2+x,1/2-y,z
loop_
_atom_site_type_symbol
_atom_site_label
_atom_site_fract_x
_atom_site_fract_y
_atom_site_fract_z
Si Si1 0.274619 0.650682 0.805292
Si Si2 0.438068 0.734199 0.800836
Si Si3 0.175079 0.071893 0.500000
Si Si4 0.327442 0.778214 0.704469
Si Si5 0.562786 0.363369 0.500000
O O1 0.296895 0.600278 0.671531
O O2 0.308051 0.714466 0.791261
O O3 0.208863 0.664332 0.772299
O O4 0.282047 0.623875 0.000000
O O5 0.500000 0.761782 0.766886
O O6 0.392451 0.787391 0.757634
O O7 0.427020 0.676726 0.673572
O O8 0.432415 0.710875 0.000000
O O9 0.108307 0.082490 0.500000
O O10 0.187453 0.000000 0.500000
O O11 0.318990 0.771244 0.500000
O O12 0.500000 0.391175 0.500000
#
# Coordination Sequence:
#
# PCOD8265864 Si02
#       5
#    16  16   8  16   8
#     4  11  20  33  51  72  97 126 161 200 252 304
#     4  10  18  28  46  73 103 131 160 195 239 293
#     4  12  24  37  50  69  96 128 174 220 246 281
#     4  11  17  30  52  75 101 127 154 200 249 301
#     4  10  20  34  49  66  92 130 170 209 247 280
#
# _framework density 16.109203000000001
#
# number of rings (size 3 to 8) (size 9 to 14) (size 15 to 20)
#    0.000    1.250    6.250    3.750    0.000    0.750 
#    0.000    0.000    0.000    0.000    0.000    5.250 
#    0.000    2.000    0.000    5.250    0.000    0.000 
#
# Total GULP energy -396711.676195 kJ/mol
# GULP energy per Si atom -12397.239881 kJ/mol
# Density = 1.607254 g / cm^3
# Si number density = 16.109203 Si / 1000 Ang^3
#
#
#
# Elastic Constant Matrix: (Units=GPa)
#
#
# Indices 1 2 3 4 5 6 
#
# 1 122.3604 49.4904 44.6851 0.0000 0.0000 0.0000
# 2 49.4904 62.6465 32.7378 0.0000 0.0000 0.0000
# 3 44.6851 32.7378 136.4717 0.0000 0.0000 0.0000
# 4 0.0000 0.0000 0.0000 1.9413 0.0000 0.0000
# 5 0.0000 0.0000 0.0000 0.0000 24.5919 0.0000
# 6 0.0000 0.0000 0.0000 0.0000 0.0000 16.2285
#
#
#
# Elastic Compliance Matrix: (Units=1/GPa)
#
#
# Indices 1 2 3 4 5 6 
#
# 1 0.012454 -0.008812 -0.001964 0.000000 0.000000 0.000000
# 2 -0.008812 0.024486 -0.002988 0.000000 0.000000 0.000000
# 3 -0.001964 -0.002988 0.008687 0.000000 0.000000 0.000000
# 4 0.000000 0.000000 0.000000 0.515115 0.000000 0.000000
# 5 0.000000 0.000000 0.000000 0.000000 0.040664 0.000000
# 6 0.000000 0.000000 0.000000 0.000000 0.000000 0.061620
#
#
# Mechanical properties :
#
#
# Convention : Reuss Voigt Hill
#
# Bulk Modulus (GPa) = 55.25424 63.92281 59.58853
# Shear Modulus (GPa) = 7.17784 21.52337 14.35061
#
# Velocity S-wave (km/s) = 2.11315 3.65922 2.98792
# Velocity P-wave (km/s) = 6.35044 7.59080 6.99816
#
# Compressibility (1/GPa) = 0.01809816
#
# Stress axis : x y z
#
# Youngs Moduli (GPa) = 80.29517 40.83970 115.10863
#
# Poissons Ratio (x) = 0.35989 0.22606
# Poissons Ratio (y) = 0.70759 0.34400
# Poissons Ratio (z) = 0.15769 0.12205
#
# Static dielectric constant tensor:
#      x y z
#    x 3.612430 0.000000 0.000000 
#    y 0.000000 2.449510 0.000000 
#    z 0.000000 0.000000 3.281230 
# 
# 
# High freq. dielectric constant tensor:
#      x y z
#    x 1.642400 0.000000 0.000000 
#    y 0.000000 1.533590 0.000000 
#    z 0.000000 0.000000 1.647980 
# 
# From -- ./inp_files/13715.got.cif
#   From: 2010.03.12/outbox.cif.g09.slc.cpg/sg65_7_cif.got.tgz:13715.got - 2010.04.10 20:52:16.
