data_PCOD8265841
_publ_section_title
;
Structure prediction by ZEFSAII (Michael W. Deem and Ramdas Pophale) SiO2 
 PCOD8265841
Probable space group: C M M M
;
_chemical_formula_sum "Si O2"
_cell_formula_units_Z 72
_cell_length_a 19.222436
_cell_length_b 8.776439
_cell_length_c 23.584507
_cell_angle_alpha 90.000000
_cell_angle_beta 90.000000
_cell_angle_gamma 90.000000
_cell_volume 3978.813333
_symmetry_space_group_name_H-M "C M M M"
_symmetry_group_IT_number 65
_symmetry_cell_setting 'orthorhombic'
loop_
_space_group_symop_operation_xyz
x,y,z
-x,-y,z
x,-y,-z
-x,y,-z
-x,-y,-z
x,y,-z
-x,y,z
x,-y,z
1/2+x,1/2+y,z
1/2-x,1/2-y,z
1/2+x,1/2-y,-z
1/2-x,1/2+y,-z
1/2-x,1/2-y,-z
1/2+x,1/2+y,-z
1/2-x,1/2+y,z
1/2+x,1/2-y,z
loop_
_atom_site_type_symbol
_atom_site_label
_atom_site_fract_x
_atom_site_fract_y
_atom_site_fract_z
Si Si1 0.921613 0.818391 0.500000
Si Si2 0.577745 0.819018 0.937270
Si Si3 0.826453 0.318976 0.163166
Si Si4 0.825480 0.821992 0.399365
Si Si5 0.825347 0.821777 0.725405
O O1 0.880723 0.757262 0.444620
O O2 0.000000 0.751538 0.500000
O O3 0.924709 0.000000 0.500000
O O4 0.500000 0.757112 0.925481
O O5 0.629326 0.753966 0.889590
O O6 0.577105 0.000000 0.934548
O O7 0.602587 0.765571 0.000000
O O8 0.822729 0.500000 0.163305
O O9 0.750000 0.250000 0.157723
O O10 0.863689 0.261081 0.221695
O O11 0.750000 0.750000 0.408732
O O12 0.858506 0.790099 0.336650
O O13 0.814111 0.000000 0.408427
O O14 0.750000 0.750000 0.722262
O O15 0.820782 0.000000 0.738726
#
# Coordination Sequence:
#
# PCOD8265841 Si02
#       5
#     8  16  16  16  16
#     4   9  17  30  47  67  92 119 148 182 220 265
#     4   8  15  29  47  65  86 115 152 188 218 255
#     4  10  18  28  46  70  93 117 145 180 223 265
#     4   9  17  29  48  70  88 114 151 186 219 257
#     4   9  16  27  43  65  92 118 146 180 219 261
#
# _framework density 18.095848
#
# number of rings (size 3 to 8) (size 9 to 14) (size 15 to 20)
#    0.000    3.000    0.000    3.667    0.000    1.333 
#    0.000    1.111    0.000    7.333    0.000    6.222 
#    0.000    0.000    0.000    0.000    0.000    0.000 
#
# Total GULP energy -446006.887238 kJ/mol
# GULP energy per Si atom -12389.080201 kJ/mol
# Density = 1.805466 g / cm^3
# Si number density = 18.095848 Si / 1000 Ang^3
#
#
#
# Elastic Constant Matrix: (Units=GPa)
#
#
# Indices 1 2 3 4 5 6 
#
# 1 87.9167 20.4633 84.4904 0.0000 0.0000 0.0000
# 2 20.4633 47.3564 38.1780 0.0000 0.0000 0.0000
# 3 84.4904 38.1780 205.6495 0.0000 0.0000 0.0000
# 4 0.0000 0.0000 0.0000 11.4179 0.0000 0.0000
# 5 0.0000 0.0000 0.0000 0.0000 12.9516 0.0000
# 6 0.0000 0.0000 0.0000 0.0000 0.0000 12.4706
#
#
#
# Elastic Compliance Matrix: (Units=1/GPa)
#
#
# Indices 1 2 3 4 5 6 
#
# 1 0.018998 -0.002254 -0.007387 0.000000 0.000000 0.000000
# 2 -0.002254 0.025101 -0.003734 0.000000 0.000000 0.000000
# 3 -0.007387 -0.003734 0.008591 0.000000 0.000000 0.000000
# 4 0.000000 0.000000 0.000000 0.087582 0.000000 0.000000
# 5 0.000000 0.000000 0.000000 0.000000 0.077210 0.000000
# 6 0.000000 0.000000 0.000000 0.000000 0.000000 0.080189
#
#
# Mechanical properties :
#
#
# Convention : Reuss Voigt Hill
#
# Bulk Modulus (GPa) = 38.55068 69.68732 54.11900
# Shear Modulus (GPa) = 15.01205 20.55409 17.78307
#
# Velocity S-wave (km/s) = 2.88338 3.37389 3.13823
# Velocity P-wave (km/s) = 5.69517 7.33289 6.56530
#
# Compressibility (1/GPa) = 0.02593988
#
# Stress axis : x y z
#
# Youngs Moduli (GPa) = 52.63722 39.83974 116.40613
#
# Poissons Ratio (x) = 0.08981 0.85986
# Poissons Ratio (y) = 0.11865 0.43463
# Poissons Ratio (z) = 0.38882 0.14875
#
# Static dielectric constant tensor:
#      x y z
#    x 3.194430 0.000000 0.000000 
#    y 0.000000 3.094580 0.000000 
#    z 0.000000 0.000000 4.481540 
# 
# 
# High freq. dielectric constant tensor:
#      x y z
#    x 1.661600 0.000000 0.000000 
#    y 0.000000 1.674140 0.000000 
#    z 0.000000 0.000000 1.729860 
# 
# From -- ./inp_files/67253.got.cif
#   From: 2010.03.12/outbox.cif.g09.slc.cpg/sg65_34_cif.got.tgz:67253.got - 2010.04.10 20:52:16.
