data_PCOD8265555
_publ_section_title
;
Structure prediction by ZEFSAII (Michael W. Deem and Ramdas Pophale) SiO2 
 PCOD8265555
Probable space group: C M M M
;
_chemical_formula_sum "Si O2"
_cell_formula_units_Z 80
_cell_length_a 18.406429
_cell_length_b 36.488974
_cell_length_c 9.428737
_cell_angle_alpha 90.000000
_cell_angle_beta 90.000000
_cell_angle_gamma 90.000000
_cell_volume 6332.638747
_symmetry_space_group_name_H-M "C M M M"
_symmetry_group_IT_number 65
_symmetry_cell_setting 'orthorhombic'
loop_
_space_group_symop_operation_xyz
x,y,z
-x,-y,z
x,-y,-z
-x,y,-z
-x,-y,-z
x,y,-z
-x,y,z
x,-y,z
1/2+x,1/2+y,z
1/2-x,1/2-y,z
1/2+x,1/2-y,-z
1/2-x,1/2+y,-z
1/2-x,1/2-y,-z
1/2+x,1/2+y,-z
1/2-x,1/2+y,z
1/2+x,1/2-y,z
loop_
_atom_site_type_symbol
_atom_site_label
_atom_site_fract_x
_atom_site_fract_y
_atom_site_fract_z
Si Si1 0.086327 0.459811 0.840154
Si Si2 0.785157 0.210133 0.156414
Si Si3 0.416991 0.108060 0.335391
Si Si4 0.339275 0.182983 0.667264
Si Si5 0.917237 0.746145 0.834770
O O1 0.114201 0.500000 0.788451
O O2 0.117332 0.427261 0.742859
O O3 0.000000 0.459457 0.832390
O O4 0.112976 0.452743 0.000000
O O5 0.750000 0.250000 0.152389
O O6 0.742691 0.185325 0.270456
O O7 0.869389 0.217352 0.199772
O O8 0.779795 0.191829 0.000000
O O9 0.413313 0.099154 0.500000
O O10 0.500000 0.115749 0.287801
O O11 0.369101 0.143019 0.295415
O O12 0.337259 0.190548 0.500000
O O13 0.392652 0.212103 0.739354
O O14 0.000000 0.755942 0.798431
O O15 0.907085 0.735171 0.000000
#
# Coordination Sequence:
#
# PCOD8265555 Si02
#       5
#    16  16  16  16  16
#     4   8  14  24  36  49  64  82 107 139 170 198
#     4   8  15  27  39  50  65  86 112 139 169 208
#     4   9  17  26  34  47  67  89 113 140 169 200
#     4  10  18  26  36  51  71  91 112 141 174 205
#     4   9  17  28  40  52  66  86 113 144 176 208
#
# _framework density 12.632963999999999
#
# number of rings (size 3 to 8) (size 9 to 14) (size 15 to 20)
#    0.000    3.200    0.000    3.000    0.000    6.800 
#    0.000    4.000    0.000    0.000    0.000    0.000 
#    0.000    0.000    0.000    0.000    0.000    1.000 
#
# Total GULP energy -495687.406558 kJ/mol
# GULP energy per Si atom -12392.185164 kJ/mol
# Density = 1.260421 g / cm^3
# Si number density = 12.632964 Si / 1000 Ang^3
#
#
#
# Elastic Constant Matrix: (Units=GPa)
#
#
# Indices 1 2 3 4 5 6 
#
# 1 78.2220 42.2298 36.9775 0.0000 0.0000 0.0000
# 2 42.2298 82.3782 50.8695 0.0000 0.0000 0.0000
# 3 36.9775 50.8695 64.2591 0.0000 0.0000 0.0000
# 4 0.0000 0.0000 0.0000 22.5962 0.0000 0.0000
# 5 0.0000 0.0000 0.0000 0.0000 15.5392 0.0000
# 6 0.0000 0.0000 0.0000 0.0000 0.0000 12.2214
#
#
#
# Elastic Compliance Matrix: (Units=1/GPa)
#
#
# Indices 1 2 3 4 5 6 
#
# 1 0.018883 -0.005811 -0.006266 0.000000 0.000000 0.000000
# 2 -0.005811 0.025536 -0.016872 0.000000 0.000000 0.000000
# 3 -0.006266 -0.016872 0.032524 0.000000 0.000000 0.000000
# 4 0.000000 0.000000 0.000000 0.044255 0.000000 0.000000
# 5 0.000000 0.000000 0.000000 0.000000 0.064353 0.000000
# 6 0.000000 0.000000 0.000000 0.000000 0.000000 0.081824
#
#
# Mechanical properties :
#
#
# Convention : Reuss Voigt Hill
#
# Bulk Modulus (GPa) = 52.50349 53.89031 53.19690
# Shear Modulus (GPa) = 15.07739 16.39019 15.73379
#
# Velocity S-wave (km/s) = 3.45845 3.60587 3.53293
# Velocity P-wave (km/s) = 7.58938 7.75161 7.67093
#
# Compressibility (1/GPa) = 0.01904635
#
# Stress axis : x y z
#
# Youngs Moduli (GPa) = 52.95643 39.15996 30.74650
#
# Poissons Ratio (x) = 0.22755 0.19267
# Poissons Ratio (y) = 0.30771 0.51874
# Poissons Ratio (z) = 0.33185 0.66069
#
# Static dielectric constant tensor:
#      x y z
#    x 2.704580 0.000000 0.000000 
#    y 0.000000 2.577900 0.000000 
#    z 0.000000 0.000000 2.649520 
# 
# 
# High freq. dielectric constant tensor:
#      x y z
#    x 1.448540 0.000000 0.000000 
#    y 0.000000 1.454960 0.000000 
#    z 0.000000 0.000000 1.487400 
# 
# From -- ./inp_files/12536.got.cif
#   From: 2010.03.12/outbox.cif.g09.slc.cpg/sg65_7_cif.got.tgz:12536.got - 2010.04.10 20:52:16.
