data_PCOD8265241
_publ_section_title
;
Structure prediction by ZEFSAII (Michael W. Deem and Ramdas Pophale) SiO2 
 PCOD8265241
Probable space group: C M M M
;
_chemical_formula_sum "Si O2"
_cell_formula_units_Z 80
_cell_length_a 29.696615
_cell_length_b 23.047269
_cell_length_c 8.462598
_cell_angle_alpha 90.000000
_cell_angle_beta 90.000000
_cell_angle_gamma 90.000000
_cell_volume 5792.021035
_symmetry_space_group_name_H-M "C M M M"
_symmetry_group_IT_number 65
_symmetry_cell_setting 'orthorhombic'
loop_
_space_group_symop_operation_xyz
x,y,z
-x,-y,z
x,-y,-z
-x,y,-z
-x,-y,-z
x,y,-z
-x,y,z
x,-y,z
1/2+x,1/2+y,z
1/2-x,1/2-y,z
1/2+x,1/2-y,-z
1/2-x,1/2+y,-z
1/2-x,1/2-y,-z
1/2+x,1/2+y,-z
1/2-x,1/2+y,z
1/2+x,1/2-y,z
loop_
_atom_site_type_symbol
_atom_site_label
_atom_site_fract_x
_atom_site_fract_y
_atom_site_fract_z
Si Si1 0.049618 0.565007 0.687680
Si Si2 0.766124 0.830905 0.684546
Si Si3 0.278017 0.933968 0.186330
Si Si4 0.635925 0.131677 0.312921
Si Si5 0.681668 0.764348 0.183924
O O1 0.050255 0.564393 0.500000
O O2 0.059885 0.500000 0.750286
O O3 0.087696 0.609004 0.750404
O O4 0.000000 0.585048 0.747447
O O5 0.757149 0.822034 0.500000
O O6 0.763423 0.898748 0.731276
O O7 0.726807 0.800698 0.785065
O O8 0.812991 0.799517 0.734924
O O9 0.326049 0.908647 0.236851
O O10 0.274451 0.000000 0.244857
O O11 0.272772 0.929017 0.000000
O O12 0.640466 0.127144 0.500000
O O13 0.640615 0.198923 0.259390
O O14 0.672823 0.755947 0.000000
#
# Coordination Sequence:
#
# PCOD8265241 Si02
#       5
#    16  16  16  16  16
#     4   8  14  24  37  53  72  93 118 151 190 225
#     4  10  17  26  39  53  69  88 116 149 178 209
#     4  10  19  28  37  51  73  98 121 146 180 219
#     4  10  17  25  39  56  71  89 120 157 187 216
#     4  10  17  26  38  51  70  92 114 142 181 221
#
# _framework density 13.812104
#
# number of rings (size 3 to 8) (size 9 to 14) (size 15 to 20)
#    0.000    2.400    0.000    9.600    0.000    2.400 
#    0.000    0.000    0.000    2.400    0.000    7.000 
#    0.000    0.000    0.000    0.000    0.000    1.000 
#
# Total GULP energy -495670.010914 kJ/mol
# GULP energy per Si atom -12391.750273 kJ/mol
# Density = 1.378067 g / cm^3
# Si number density = 13.812104 Si / 1000 Ang^3
#
#
#
# Elastic Constant Matrix: (Units=GPa)
#
#
# Indices 1 2 3 4 5 6 
#
# 1 72.3242 59.0533 11.4599 0.0000 0.0000 0.0000
# 2 59.0533 97.8699 19.0496 0.0000 0.0000 0.0000
# 3 11.4599 19.0496 33.4929 0.0000 0.0000 0.0000
# 4 0.0000 0.0000 0.0000 18.3297 0.0000 0.0000
# 5 0.0000 0.0000 0.0000 0.0000 0.9354 0.0000
# 6 0.0000 0.0000 0.0000 0.0000 0.0000 26.3268
#
#
#
# Elastic Compliance Matrix: (Units=1/GPa)
#
#
# Indices 1 2 3 4 5 6 
#
# 1 0.027254 -0.016451 0.000032 0.000000 0.000000 0.000000
# 2 -0.016451 0.021419 -0.006554 0.000000 0.000000 0.000000
# 3 0.000032 -0.006554 0.033574 0.000000 0.000000 0.000000
# 4 0.000000 0.000000 0.000000 0.054556 0.000000 0.000000
# 5 0.000000 0.000000 0.000000 0.000000 1.069006 0.000000
# 6 0.000000 0.000000 0.000000 0.000000 0.000000 0.037984
#
#
# Mechanical properties :
#
#
# Convention : Reuss Voigt Hill
#
# Bulk Modulus (GPa) = 27.54751 42.53474 35.04113
# Shear Modulus (GPa) = 3.84072 16.72667 10.28370
#
# Velocity S-wave (km/s) = 1.66935 3.48374 2.73159
# Velocity P-wave (km/s) = 4.86861 6.85887 5.94758
#
# Compressibility (1/GPa) = 0.03630092
#
# Stress axis : x y z
#
# Youngs Moduli (GPa) = 36.69222 46.68660 29.78503
#
# Poissons Ratio (x) = 0.76803 -0.00094
# Poissons Ratio (y) = 0.60361 0.19521
# Poissons Ratio (z) = -0.00116 0.30598
#
# Static dielectric constant tensor:
#      x y z
#    x 2.774870 0.000000 0.000000 
#    y 0.000000 3.261660 0.000000 
#    z 0.000000 0.000000 2.676530 
# 
# 
# High freq. dielectric constant tensor:
#      x y z
#    x 1.477700 0.000000 0.000000 
#    y 0.000000 1.518580 0.000000 
#    z 0.000000 0.000000 1.533470 
# 
# From -- ./inp_files/18427.got.cif
#   From: 2010.03.12/outbox.cif.g09.slc.cpg/sg65_10_cif.got.tgz:18427.got - 2010.04.10 20:52:16.
