data_PCOD8265797
_publ_section_title
;
Structure prediction by ZEFSAII (Michael W. Deem and Ramdas Pophale) SiO2 
 PCOD8265797
Probable space group: C M M M
;
_chemical_formula_sum "Si O2"
_cell_formula_units_Z 120
_cell_length_a 20.870627
_cell_length_b 23.240122
_cell_length_c 13.119447
_cell_angle_alpha 90.000000
_cell_angle_beta 90.000000
_cell_angle_gamma 90.000000
_cell_volume 6363.403015
_symmetry_space_group_name_H-M "C M M M"
_symmetry_group_IT_number 65
_symmetry_cell_setting 'orthorhombic'
loop_
_space_group_symop_operation_xyz
x,y,z
-x,-y,z
x,-y,-z
-x,y,-z
-x,-y,-z
x,y,-z
-x,y,z
x,-y,z
1/2+x,1/2+y,z
1/2-x,1/2-y,z
1/2+x,1/2-y,-z
1/2-x,1/2+y,-z
1/2-x,1/2-y,-z
1/2+x,1/2+y,-z
1/2-x,1/2+y,z
1/2+x,1/2-y,z
loop_
_atom_site_type_symbol
_atom_site_label
_atom_site_fract_x
_atom_site_fract_y
_atom_site_fract_z
Si Si1 0.631298 0.568009 0.787377
Si Si2 0.101262 0.782296 0.886905
Si Si3 0.924820 0.435529 0.116030
Si Si4 0.071042 0.832414 0.314778
Si Si5 0.778507 0.141990 0.115158
Si Si6 0.174598 0.740680 0.616094
Si Si7 0.425805 0.566269 0.000000
Si Si8 0.642758 0.830771 0.804706
O O1 0.625386 0.500000 0.769139
O O2 0.595188 0.600780 0.694853
O O3 0.704014 0.590651 0.803035
O O4 0.601869 0.592277 0.895268
O O5 0.057765 0.809524 0.799191
O O6 0.173990 0.804017 0.870726
O O7 0.100797 0.713556 0.871345
O O8 0.074522 0.797763 0.000000
O O9 0.901554 0.500000 0.141826
O O10 0.890923 0.392698 0.194839
O O11 0.000000 0.430641 0.130829
O O12 0.905480 0.420038 0.000000
O O13 0.127887 0.796612 0.370200
O O14 0.000000 0.830399 0.369215
O O15 0.710184 0.166138 0.140700
O O16 0.780128 0.117241 0.000000
O O17 0.168188 0.719924 0.500000
O O18 0.250000 0.750000 0.641984
O O19 0.148610 0.690003 0.687895
O O20 0.406551 0.500000 0.000000
O O21 0.500000 0.576665 0.000000
#
# Coordination Sequence:
#
# PCOD8265797 Si02
#       8
#    16  16  16  16  16  16   8  16
#     4  10  19  31  45  68 107 151 186 217 250 294
#     4   9  18  30  44  69 108 145 170 206 259 317
#     4   9  19  35  52  75 113 154 183 207 244 302
#     4  10  21  34  52  80 108 137 178 225 269 314
#     4  10  18  28  44  71 110 145 177 217 260 308
#     4  10  22  42  63  80 103 135 171 220 288 351
#     4   9  16  26  40  58  87 136 185 209 229 272
#     4  11  19  31  54  79  98 131 180 223 264 318
#
# _framework density 18.857834
#
# number of rings (size 3 to 8) (size 9 to 14) (size 15 to 20)
#    0.000    2.200    0.667    4.800    0.933    5.067 
#    0.000    0.000    0.000    0.800    0.000    3.733 
#    0.000    0.000    0.000    0.000    0.000    0.000 
#
# Total GULP energy -743461.841174 kJ/mol
# GULP energy per Si atom -12391.030686 kJ/mol
# Density = 1.881491 g / cm^3
# Si number density = 18.857834 Si / 1000 Ang^3
#
#
#
# Elastic Constant Matrix: (Units=GPa)
#
#
# Indices 1 2 3 4 5 6 
#
# 1 59.4557 35.3736 17.5348 0.0000 0.0000 0.0000
# 2 35.3736 116.3091 29.7122 0.0000 0.0000 0.0000
# 3 17.5348 29.7122 66.6892 0.0000 0.0000 0.0000
# 4 0.0000 0.0000 0.0000 18.8767 0.0000 0.0000
# 5 0.0000 0.0000 0.0000 0.0000 15.3575 0.0000
# 6 0.0000 0.0000 0.0000 0.0000 0.0000 18.2760
#
#
#
# Elastic Compliance Matrix: (Units=1/GPa)
#
#
# Indices 1 2 3 4 5 6 
#
# 1 0.021064 -0.005632 -0.003029 0.000000 0.000000 0.000000
# 2 -0.005632 0.011208 -0.003513 0.000000 0.000000 0.000000
# 3 -0.003029 -0.003513 0.017356 0.000000 0.000000 0.000000
# 4 0.000000 0.000000 0.000000 0.052975 0.000000 0.000000
# 5 0.000000 0.000000 0.000000 0.000000 0.065115 0.000000
# 6 0.000000 0.000000 0.000000 0.000000 0.000000 0.054716
#
#
# Mechanical properties :
#
#
# Convention : Reuss Voigt Hill
#
# Bulk Modulus (GPa) = 39.55673 45.29947 42.42810
# Shear Modulus (GPa) = 19.59179 21.15762 20.37470
#
# Velocity S-wave (km/s) = 3.22673 3.35319 3.29057
# Velocity P-wave (km/s) = 5.90797 6.25025 6.08152
#
# Compressibility (1/GPa) = 0.02528015
#
# Stress axis : x y z
#
# Youngs Moduli (GPa) = 47.47537 89.22111 57.61585
#
# Poissons Ratio (x) = 0.50253 0.17451
# Poissons Ratio (y) = 0.26740 0.20238
# Poissons Ratio (z) = 0.14380 0.31340
#
# Static dielectric constant tensor:
#      x y z
#    x 3.409370 0.000000 0.000000 
#    y 0.000000 3.554310 0.000000 
#    z 0.000000 0.000000 3.260600 
# 
# 
# High freq. dielectric constant tensor:
#      x y z
#    x 1.733160 0.000000 0.000000 
#    y 0.000000 1.730750 0.000000 
#    z 0.000000 0.000000 1.692190 
# 
# From -- ./inp_files/44787.got.cif
#   From: 2010.03.12/outbox.cif.g09.slc.cpg/sg65_23_cif.got.tgz:44787.got - 2010.04.10 20:52:16.
