data_PCOD8265132
_publ_section_title
;
Structure prediction by ZEFSAII (Michael W. Deem and Ramdas Pophale) SiO2 
 PCOD8265132
Probable space group: C M M M
;
_chemical_formula_sum "Si O2"
_cell_formula_units_Z 72
_cell_length_a 21.763427
_cell_length_b 16.850154
_cell_length_c 11.953559
_cell_angle_alpha 90.000000
_cell_angle_beta 90.000000
_cell_angle_gamma 90.000000
_cell_volume 4383.574450
_symmetry_space_group_name_H-M "C M M M"
_symmetry_group_IT_number 65
_symmetry_cell_setting 'orthorhombic'
loop_
_space_group_symop_operation_xyz
x,y,z
-x,-y,z
x,-y,-z
-x,y,-z
-x,-y,-z
x,y,-z
-x,y,z
x,-y,z
1/2+x,1/2+y,z
1/2-x,1/2-y,z
1/2+x,1/2-y,-z
1/2-x,1/2+y,-z
1/2-x,1/2-y,-z
1/2+x,1/2+y,-z
1/2-x,1/2+y,z
1/2+x,1/2-y,z
loop_
_atom_site_type_symbol
_atom_site_label
_atom_site_fract_x
_atom_site_fract_y
_atom_site_fract_z
Si Si1 0.269596 0.658322 0.000000
Si Si2 0.139531 0.591908 0.000000
Si Si3 0.857895 0.632756 0.241635
Si Si4 0.319856 0.277937 0.374548
Si Si5 0.716211 0.590809 0.774562
Si Si6 0.072471 0.500000 0.371622
O O1 0.250000 0.750000 0.000000
O O2 0.306112 0.637417 0.886875
O O3 0.212822 0.597550 0.000000
O O4 0.115777 0.634789 0.113741
O O5 0.119237 0.500000 0.000000
O O6 0.859631 0.720323 0.294982
O O7 0.789405 0.596856 0.242557
O O8 0.901546 0.578546 0.315200
O O9 0.347188 0.277662 0.500000
O O10 0.250000 0.250000 0.374444
O O11 0.320708 0.367288 0.326388
O O12 0.695358 0.500000 0.778653
O O13 0.093409 0.500000 0.500000
O O14 0.000000 0.500000 0.358181
#
# Coordination Sequence:
#
# PCOD8265132 Si02
#       6
#     8   8  16  16  16   8
#     4  10  16  24  38  60  86 118 152 187 218 262
#     4  10  16  26  44  62  78 106 146 179 219 274
#     4  10  17  32  44  61  87 115 144 187 229 262
#     4   9  18  28  40  59  83 114 151 179 216 270
#     4  10  17  27  42  63  87 117 151 185 225 271
#     4  11  22  33  47  65  85 118 159 189 224 276
#
# _framework density 16.424952000000001
#
# number of rings (size 3 to 8) (size 9 to 14) (size 15 to 20)
#    0.000    2.111    2.222    6.333    0.000    1.333 
#    0.000    1.111    0.000    0.000    0.000    0.000 
#    0.000    0.889    0.000    4.667    0.000   22.222 
#
# Total GULP energy -446192.958800 kJ/mol
# GULP energy per Si atom -12394.248856 kJ/mol
# Density = 1.638757 g / cm^3
# Si number density = 16.424952 Si / 1000 Ang^3
#
#
#
# Elastic Constant Matrix: (Units=GPa)
#
#
# Indices 1 2 3 4 5 6 
#
# 1 20.3029 10.6440 24.2955 0.0000 0.0000 0.0000
# 2 10.6440 139.6756 74.1785 0.0000 0.0000 0.0000
# 3 24.2955 74.1785 172.9391 0.0000 0.0000 0.0000
# 4 0.0000 0.0000 0.0000 29.2309 0.0000 0.0000
# 5 0.0000 0.0000 0.0000 0.0000 9.0399 0.0000
# 6 0.0000 0.0000 0.0000 0.0000 0.0000 9.8906
#
#
#
# Elastic Compliance Matrix: (Units=1/GPa)
#
#
# Indices 1 2 3 4 5 6 
#
# 1 0.059209 -0.000122 -0.008266 0.000000 0.000000 0.000000
# 2 -0.000122 0.009272 -0.003960 0.000000 0.000000 0.000000
# 3 -0.008266 -0.003960 0.008642 0.000000 0.000000 0.000000
# 4 0.000000 0.000000 0.000000 0.034210 0.000000 0.000000
# 5 0.000000 0.000000 0.000000 0.000000 0.110621 0.000000
# 6 0.000000 0.000000 0.000000 0.000000 0.000000 0.101106
#
#
# Mechanical properties :
#
#
# Convention : Reuss Voigt Hill
#
# Bulk Modulus (GPa) = 19.07393 61.23931 40.15662
# Shear Modulus (GPa) = 13.68997 24.55225 19.12111
#
# Velocity S-wave (km/s) = 2.89015 3.87048 3.41567
# Velocity P-wave (km/s) = 4.77234 7.57228 6.32909
#
# Compressibility (1/GPa) = 0.05242759
#
# Stress axis : x y z
#
# Youngs Moduli (GPa) = 16.88926 107.85536 115.71392
#
# Poissons Ratio (x) = 0.01320 0.95644
# Poissons Ratio (y) = 0.00207 0.45819
# Poissons Ratio (z) = 0.13960 0.42707
#
# Static dielectric constant tensor:
#      x y z
#    x 2.407710 0.000000 0.000000 
#    y 0.000000 3.097790 0.000000 
#    z 0.000000 0.000000 3.694970 
# 
# 
# High freq. dielectric constant tensor:
#      x y z
#    x 1.537080 0.000000 0.000000 
#    y 0.000000 1.635480 0.000000 
#    z 0.000000 0.000000 1.662630 
# 
# From -- ./inp_files/26584.got.cif
#   From: 2010.03.12/outbox.cif.g09.slc.cpg/sg65_14_cif.got.tgz:26584.got - 2010.04.10 20:52:16.
