data_PCOD8265206
_publ_section_title
;
Structure prediction by ZEFSAII (Michael W. Deem and Ramdas Pophale) SiO2 
 PCOD8265206
Probable space group: C M M M
;
_chemical_formula_sum "Si O2"
_cell_formula_units_Z 72
_cell_length_a 22.877110
_cell_length_b 23.712986
_cell_length_c 8.889470
_cell_angle_alpha 90.000000
_cell_angle_beta 90.000000
_cell_angle_gamma 90.000000
_cell_volume 4822.400481
_symmetry_space_group_name_H-M "C M M M"
_symmetry_group_IT_number 65
_symmetry_cell_setting 'orthorhombic'
loop_
_space_group_symop_operation_xyz
x,y,z
-x,-y,z
x,-y,-z
-x,y,-z
-x,-y,-z
x,y,-z
-x,y,z
x,-y,z
1/2+x,1/2+y,z
1/2-x,1/2-y,z
1/2+x,1/2-y,-z
1/2-x,1/2+y,-z
1/2-x,1/2-y,-z
1/2+x,1/2+y,-z
1/2-x,1/2+y,z
1/2+x,1/2-y,z
loop_
_atom_site_type_symbol
_atom_site_label
_atom_site_fract_x
_atom_site_fract_y
_atom_site_fract_z
Si Si1 0.065606 0.767753 0.325307
Si Si2 0.823190 0.203537 0.177779
Si Si3 0.091485 0.640739 0.672849
Si Si4 0.713674 0.820484 0.324777
Si Si5 0.500000 0.063514 0.177163
O O1 0.082235 0.772332 0.500000
O O2 0.110357 0.807871 0.232900
O O3 0.070877 0.702686 0.273929
O O4 0.000000 0.789350 0.293133
O O5 0.775791 0.159910 0.252017
O O6 0.806502 0.265142 0.236201
O O7 0.819480 0.198807 0.000000
O O8 0.073766 0.631893 0.500000
O O9 0.161806 0.633688 0.696053
O O10 0.058887 0.593952 0.769188
O O11 0.722004 0.806200 0.500000
O O12 0.500000 0.000000 0.240910
O O13 0.500000 0.063654 0.000000
#
# Coordination Sequence:
#
# PCOD8265206 Si02
#       5
#    16  16  16  16   8
#     4   9  16  27  40  53  73 100 130 158 188 225
#     4  10  17  23  34  55  77  95 119 151 187 222
#     4   9  17  30  45  57  67  90 128 162 192 230
#     4   9  16  27  40  52  69  93 121 152 187 225
#     4  11  23  33  41  57  79  99 121 157 207 251
#
# _framework density 14.930325
#
# number of rings (size 3 to 8) (size 9 to 14) (size 15 to 20)
#    0.000    2.556    1.111    5.667    0.000    5.778 
#    0.000    0.000    0.000    0.000    0.000    0.000 
#    0.000    0.000    0.000    0.000    0.000    1.111 
#
# Total GULP energy -446058.265483 kJ/mol
# GULP energy per Si atom -12390.507375 kJ/mol
# Density = 1.489634 g / cm^3
# Si number density = 14.930325 Si / 1000 Ang^3
#
#
#
# Elastic Constant Matrix: (Units=GPa)
#
#
# Indices 1 2 3 4 5 6 
#
# 1 141.4720 31.8245 55.9027 0.0000 0.0000 0.0000
# 2 31.8245 26.5493 18.9521 0.0000 0.0000 0.0000
# 3 55.9027 18.9521 73.7583 0.0000 0.0000 0.0000
# 4 0.0000 0.0000 0.0000 11.5988 0.0000 0.0000
# 5 0.0000 0.0000 0.0000 0.0000 17.5963 0.0000
# 6 0.0000 0.0000 0.0000 0.0000 0.0000 8.9735
#
#
#
# Elastic Compliance Matrix: (Units=1/GPa)
#
#
# Indices 1 2 3 4 5 6 
#
# 1 0.011759 -0.009471 -0.006479 0.000000 0.000000 0.000000
# 2 -0.009471 0.053754 -0.006634 0.000000 0.000000 0.000000
# 3 -0.006479 -0.006634 0.020173 0.000000 0.000000 0.000000
# 4 0.000000 0.000000 0.000000 0.086216 0.000000 0.000000
# 5 0.000000 0.000000 0.000000 0.000000 0.056830 0.000000
# 6 0.000000 0.000000 0.000000 0.000000 0.000000 0.111439
#
#
# Mechanical properties :
#
#
# Convention : Reuss Voigt Hill
#
# Bulk Modulus (GPa) = 24.67997 50.57089 37.62543
# Shear Modulus (GPa) = 12.53620 16.64040 14.58830
#
# Velocity S-wave (km/s) = 2.90081 3.34209 3.12924
# Velocity P-wave (km/s) = 5.27120 6.98839 6.18963
#
# Compressibility (1/GPa) = 0.04051869
#
# Stress axis : x y z
#
# Youngs Moduli (GPa) = 85.04015 18.60328 49.57132
#
# Poissons Ratio (x) = 0.17618 0.32117
# Poissons Ratio (y) = 0.80538 0.32886
# Poissons Ratio (z) = 0.55097 0.12342
#
# Static dielectric constant tensor:
#      x y z
#    x 3.806460 0.000000 0.000000 
#    y 0.000000 2.332640 0.000000 
#    z 0.000000 0.000000 2.871140 
# 
# 
# High freq. dielectric constant tensor:
#      x y z
#    x 1.598730 0.000000 0.000000 
#    y 0.000000 1.474330 0.000000 
#    z 0.000000 0.000000 1.579320 
# 
# From -- ./inp_files/14165.got.cif
#   From: 2010.03.12/outbox.cif.g09.slc.cpg/sg65_8_cif.got.tgz:14165.got - 2010.04.10 20:52:16.
