data_PCOD8265940
_publ_section_title
;
Structure prediction by ZEFSAII (Michael W. Deem and Ramdas Pophale) SiO2 
 PCOD8265940
Probable space group: C M M M
;
_chemical_formula_sum "Si O2"
_cell_formula_units_Z 112
_cell_length_a 9.579109
_cell_length_b 28.832833
_cell_length_c 26.260562
_cell_angle_alpha 90.000000
_cell_angle_beta 90.000000
_cell_angle_gamma 90.000000
_cell_volume 7252.979464
_symmetry_space_group_name_H-M "C M M M"
_symmetry_group_IT_number 65
_symmetry_cell_setting 'orthorhombic'
loop_
_space_group_symop_operation_xyz
x,y,z
-x,-y,z
x,-y,-z
-x,y,-z
-x,-y,-z
x,y,-z
-x,y,z
x,-y,z
1/2+x,1/2+y,z
1/2-x,1/2-y,z
1/2+x,1/2-y,-z
1/2-x,1/2+y,-z
1/2-x,1/2-y,-z
1/2+x,1/2+y,-z
1/2-x,1/2+y,z
1/2+x,1/2-y,z
loop_
_atom_site_type_symbol
_atom_site_label
_atom_site_fract_x
_atom_site_fract_y
_atom_site_fract_z
Si Si1 0.159879 0.206950 0.281235
Si Si2 0.666082 0.389851 0.556399
Si Si3 0.334539 0.051864 0.946212
Si Si4 0.664415 0.605509 0.249932
Si Si5 0.161479 0.206739 0.600109
Si Si6 0.837728 0.555044 0.164218
Si Si7 0.166221 0.947955 0.349888
O O1 0.250000 0.250000 0.260367
O O2 0.199942 0.160144 0.251223
O O3 0.188678 0.197526 0.340470
O O4 0.000000 0.220240 0.271809
O O5 0.720688 0.403400 0.500000
O O6 0.500000 0.391262 0.558390
O O7 0.715633 0.338045 0.569792
O O8 0.726654 0.425774 0.597960
O O9 0.500000 0.049346 0.944673
O O10 0.288490 0.073939 0.892078
O O11 0.273894 0.000000 0.948045
O O12 0.287040 0.077101 0.000000
O O13 0.500000 0.597073 0.243082
O O14 0.744046 0.582642 0.203461
O O15 0.718413 0.581753 0.301877
O O16 0.250000 0.250000 0.579908
O O17 0.000000 0.217106 0.589140
O O18 0.811262 0.500000 0.168884
O O19 0.000000 0.566265 0.174353
O O20 0.000000 0.947777 0.351623
O O21 0.225080 0.000000 0.345031
#
# Coordination Sequence:
#
# PCOD8265940 Si02
#       7
#    16  16  16  16  16  16  16
#     4   9  17  29  45  62  82 107 137 170 207 256
#     4   9  16  26  40  58  80 104 132 170 210 244
#     4   7  10  19  36  56  80 113 149 180 209 239
#     4  10  18  29  44  62  85 114 143 172 211 260
#     4   9  16  28  44  62  83 104 128 161 204 253
#     4   9  17  27  40  63  92 118 148 184 212 237
#     4   9  16  26  40  57  78 107 141 171 202 245
#
# _framework density 15.441929
#
# number of rings (size 3 to 8) (size 9 to 14) (size 15 to 20)
#    0.000    3.143    1.429    1.714    0.000    2.000 
#    0.000    1.429    0.000    0.429    0.000    2.000 
#    0.000    0.571    0.000    5.571    0.000    6.286 
#
# Total GULP energy -693805.973271 kJ/mol
# GULP energy per Si atom -12389.392380 kJ/mol
# Density = 1.540678 g / cm^3
# Si number density = 15.441929 Si / 1000 Ang^3
#
#
#
# Elastic Constant Matrix: (Units=GPa)
#
#
# Indices 1 2 3 4 5 6 
#
# 1 30.8009 34.6996 34.8752 0.0000 0.0000 0.0000
# 2 34.6996 96.9300 62.6662 0.0000 0.0000 0.0000
# 3 34.8752 62.6662 135.7231 0.0000 0.0000 0.0000
# 4 0.0000 0.0000 0.0000 12.3329 0.0000 0.0000
# 5 0.0000 0.0000 0.0000 0.0000 16.3003 0.0000
# 6 0.0000 0.0000 0.0000 0.0000 0.0000 20.7192
#
#
#
# Elastic Compliance Matrix: (Units=1/GPa)
#
#
# Indices 1 2 3 4 5 6 
#
# 1 0.059690 -0.016325 -0.007800 0.000000 0.000000 0.000000
# 2 -0.016325 0.019172 -0.004657 0.000000 0.000000 0.000000
# 3 -0.007800 -0.004657 0.011523 0.000000 0.000000 0.000000
# 4 0.000000 0.000000 0.000000 0.081084 0.000000 0.000000
# 5 0.000000 0.000000 0.000000 0.000000 0.061349 0.000000
# 6 0.000000 0.000000 0.000000 0.000000 0.000000 0.048264
#
#
# Mechanical properties :
#
#
# Convention : Reuss Voigt Hill
#
# Bulk Modulus (GPa) = 30.46982 58.65959 44.56470
# Shear Modulus (GPa) = 14.30261 18.61802 16.46032
#
# Velocity S-wave (km/s) = 3.04669 3.47606 3.26843
# Velocity P-wave (km/s) = 5.67019 7.36073 6.57006
#
# Compressibility (1/GPa) = 0.03281936
#
# Stress axis : x y z
#
# Youngs Moduli (GPa) = 16.75313 52.15978 86.78645
#
# Poissons Ratio (x) = 0.85153 0.67695
# Poissons Ratio (y) = 0.27350 0.40417
# Poissons Ratio (z) = 0.13068 0.24291
#
# Static dielectric constant tensor:
#      x y z
#    x 2.579270 0.000000 0.000000 
#    y 0.000000 2.920930 0.000000 
#    z 0.000000 0.000000 3.240450 
# 
# 
# High freq. dielectric constant tensor:
#      x y z
#    x 1.548020 0.000000 0.000000 
#    y 0.000000 1.574180 0.000000 
#    z 0.000000 0.000000 1.593160 
# 
# From -- ./inp_files/69247.got.cif
#   From: 2010.03.12/outbox.cif.g09.slc.cpg/sg65_35_cif.got.tgz:69247.got - 2010.04.10 20:52:16.
