data_PCOD8265954
_publ_section_title
;
Structure prediction by ZEFSAII (Michael W. Deem and Ramdas Pophale) SiO2 
 PCOD8265954
Probable space group: C M M M
;
_chemical_formula_sum "Si O2"
_cell_formula_units_Z 96
_cell_length_a 28.866738
_cell_length_b 25.950920
_cell_length_c 8.947928
_cell_angle_alpha 90.000000
_cell_angle_beta 90.000000
_cell_angle_gamma 90.000000
_cell_volume 6703.057583
_symmetry_space_group_name_H-M "C M M M"
_symmetry_group_IT_number 65
_symmetry_cell_setting 'orthorhombic'
loop_
_space_group_symop_operation_xyz
x,y,z
-x,-y,z
x,-y,-z
-x,y,-z
-x,-y,-z
x,y,-z
-x,y,z
x,-y,z
1/2+x,1/2+y,z
1/2-x,1/2-y,z
1/2+x,1/2-y,-z
1/2-x,1/2+y,-z
1/2-x,1/2-y,-z
1/2+x,1/2+y,-z
1/2-x,1/2+y,z
1/2+x,1/2-y,z
loop_
_atom_site_type_symbol
_atom_site_label
_atom_site_fract_x
_atom_site_fract_y
_atom_site_fract_z
Si Si1 0.643107 0.058718 0.673443
Si Si2 0.773746 0.805249 0.665234
Si Si3 0.808110 0.650216 0.175744
Si Si4 0.140804 0.745204 0.323373
Si Si5 0.948042 0.721617 0.825393
Si Si6 0.448609 0.115029 0.330042
O O1 0.654991 0.067776 0.500000
O O2 0.676777 0.093585 0.773004
O O3 0.589202 0.071517 0.705678
O O4 0.651729 0.000000 0.721071
O O5 0.773474 0.830697 0.500000
O O6 0.750000 0.750000 0.656513
O O7 0.745833 0.841828 0.778458
O O8 0.826462 0.793984 0.720190
O O9 0.841006 0.691988 0.253310
O O10 0.812925 0.656090 0.000000
O O11 0.140211 0.737374 0.500000
O O12 0.089321 0.756872 0.261628
O O13 0.940618 0.662443 0.780580
O O14 0.000000 0.739946 0.782584
O O15 0.938965 0.727061 0.000000
O O16 0.443078 0.135471 0.500000
O O17 0.500000 0.091245 0.305948
#
# Coordination Sequence:
#
# PCOD8265954 Si02
#       6
#    16  16  16  16  16  16
#     4  10  20  32  45  59  77 104 136 171 211 252
#     4   8  16  29  44  61  80 101 126 159 197 240
#     4  11  20  29  43  61  81 103 127 164 208 248
#     4  10  18  29  45  62  80 104 133 163 198 240
#     4  10  19  28  40  60  84 108 133 164 204 244
#     4   9  17  29  44  58  73  98 132 170 211 252
#
# _framework density 14.321821999999999
#
# number of rings (size 3 to 8) (size 9 to 14) (size 15 to 20)
#    0.000    2.333    1.667    3.500    0.000    5.333 
#    0.000    1.667    0.000    0.000    0.000    3.500 
#    0.000    0.000    0.000    0.000    0.000    0.833 
#
# Total GULP energy -595014.777156 kJ/mol
# GULP energy per Si atom -12396.141191 kJ/mol
# Density = 1.428923 g / cm^3
# Si number density = 14.321822 Si / 1000 Ang^3
#
#
#
# Elastic Constant Matrix: (Units=GPa)
#
#
# Indices 1 2 3 4 5 6 
#
# 1 115.2437 46.6528 55.2574 0.0000 0.0000 0.0000
# 2 46.6528 40.5593 27.1856 0.0000 0.0000 0.0000
# 3 55.2574 27.1856 77.5926 0.0000 0.0000 0.0000
# 4 0.0000 0.0000 0.0000 5.4985 0.0000 0.0000
# 5 0.0000 0.0000 0.0000 0.0000 21.4592 0.0000
# 6 0.0000 0.0000 0.0000 0.0000 0.0000 19.7258
#
#
#
# Elastic Compliance Matrix: (Units=1/GPa)
#
#
# Indices 1 2 3 4 5 6 
#
# 1 0.019271 -0.016948 -0.007786 0.000000 0.000000 0.000000
# 2 -0.016948 0.047127 -0.004442 0.000000 0.000000 0.000000
# 3 -0.007786 -0.004442 0.019989 0.000000 0.000000 0.000000
# 4 0.000000 0.000000 0.000000 0.181868 0.000000 0.000000
# 5 0.000000 0.000000 0.000000 0.000000 0.046600 0.000000
# 6 0.000000 0.000000 0.000000 0.000000 0.000000 0.050695
#
#
# Mechanical properties :
#
#
# Convention : Reuss Voigt Hill
#
# Bulk Modulus (GPa) = 35.66978 54.62079 45.14528
# Shear Modulus (GPa) = 11.54075 16.29001 13.91538
#
# Velocity S-wave (km/s) = 2.84177 3.37623 3.12046
# Velocity P-wave (km/s) = 5.97725 7.30887 6.67634
#
# Compressibility (1/GPa) = 0.02803494
#
# Stress axis : x y z
#
# Youngs Moduli (GPa) = 51.89023 21.21940 50.02728
#
# Poissons Ratio (x) = 0.35962 0.38952
# Poissons Ratio (y) = 0.87943 0.22222
# Poissons Ratio (z) = 0.40403 0.09426
#
# Static dielectric constant tensor:
#      x y z
#    x 3.263810 0.000000 0.000000 
#    y 0.000000 2.426120 0.000000 
#    z 0.000000 0.000000 2.830940 
# 
# 
# High freq. dielectric constant tensor:
#      x y z
#    x 1.552460 0.000000 0.000000 
#    y 0.000000 1.483350 0.000000 
#    z 0.000000 0.000000 1.554290 
# 
# From -- ./inp_files/16928.got.cif
#   From: 2010.03.12/outbox.cif.g09.slc.cpg/sg65_9_cif.got.tgz:16928.got - 2010.04.10 20:52:16.
