data_PCOD8265500
_publ_section_title
;
Structure prediction by ZEFSAII (Michael W. Deem and Ramdas Pophale) SiO2 
 PCOD8265500
Probable space group: C M M M
;
_chemical_formula_sum "Si O2"
_cell_formula_units_Z 96
_cell_length_a 12.492153
_cell_length_b 27.711224
_cell_length_c 14.537743
_cell_angle_alpha 90.000000
_cell_angle_beta 90.000000
_cell_angle_gamma 90.000000
_cell_volume 5032.571927
_symmetry_space_group_name_H-M "C M M M"
_symmetry_group_IT_number 65
_symmetry_cell_setting 'orthorhombic'
loop_
_space_group_symop_operation_xyz
x,y,z
-x,-y,z
x,-y,-z
-x,y,-z
-x,-y,-z
x,y,-z
-x,y,z
x,-y,z
1/2+x,1/2+y,z
1/2-x,1/2-y,z
1/2+x,1/2-y,-z
1/2-x,1/2+y,-z
1/2-x,1/2-y,-z
1/2+x,1/2+y,-z
1/2-x,1/2+y,z
1/2+x,1/2-y,z
loop_
_atom_site_type_symbol
_atom_site_label
_atom_site_fract_x
_atom_site_fract_y
_atom_site_fract_z
Si Si1 0.177691 0.445983 0.825305
Si Si2 0.621581 0.357948 0.397679
Si Si3 0.000000 0.660469 0.393185
Si Si4 0.118432 0.946375 0.716115
Si Si5 0.500000 0.053850 0.673926
Si Si6 0.623273 0.847446 0.897813
Si Si7 0.708318 0.804039 0.283900
O O1 0.167880 0.500000 0.868599
O O2 0.298786 0.433264 0.796712
O O3 0.140903 0.405374 0.896766
O O4 0.106027 0.442153 0.734495
O O5 0.667255 0.348953 0.500000
O O6 0.500000 0.338724 0.390656
O O7 0.628310 0.414572 0.375584
O O8 0.691471 0.332966 0.321110
O O9 0.103430 0.684138 0.344368
O O10 0.000000 0.675818 0.500000
O O11 0.000000 0.601537 0.390548
O O12 0.000000 0.940798 0.760015
O O13 0.141432 0.000000 0.680440
O O14 0.500000 0.000000 0.624779
O O15 0.500000 0.836257 0.876748
O O16 0.691868 0.819101 0.822109
O O17 0.655009 0.829272 0.000000
O O18 0.750000 0.750000 0.289889
#
# Coordination Sequence:
#
# PCOD8265500 Si02
#       7
#    16  16   8  16   8  16  16
#     4  10  17  31  56  85 122 156 192 237 298 371
#     4  10  21  36  57  87 119 155 200 246 294 353
#     4  12  24  41  64  94 126 164 211 253 305 371
#     4   9  17  30  52  80 113 159 201 236 285 346
#     4  10  18  33  60  91 124 164 198 238 304 375
#     4  11  22  40  66  92 119 150 196 250 311 376
#     4  12  25  43  64  84 120 160 200 254 315 355
#
# _framework density 19.075733
#
# number of rings (size 3 to 8) (size 9 to 14) (size 15 to 20)
#    0.000    1.500    5.000    0.500    1.167    2.500 
#    0.000    2.500    0.000    7.000    0.000    2.333 
#    0.000    0.000    0.000    0.000    0.000    0.000 
#
# Total GULP energy -594859.241197 kJ/mol
# GULP energy per Si atom -12392.900858 kJ/mol
# Density = 1.903232 g / cm^3
# Si number density = 19.075733 Si / 1000 Ang^3
#
#
#
# Elastic Constant Matrix: (Units=GPa)
#
#
# Indices 1 2 3 4 5 6 
#
# 1 95.3203 40.5712 52.7493 0.0000 0.0000 0.0000
# 2 40.5712 104.4808 45.0048 0.0000 0.0000 0.0000
# 3 52.7493 45.0048 114.7148 0.0000 0.0000 0.0000
# 4 0.0000 0.0000 0.0000 17.9621 0.0000 0.0000
# 5 0.0000 0.0000 0.0000 0.0000 25.7315 0.0000
# 6 0.0000 0.0000 0.0000 0.0000 0.0000 27.1613
#
#
#
# Elastic Compliance Matrix: (Units=1/GPa)
#
#
# Indices 1 2 3 4 5 6 
#
# 1 0.015034 -0.003442 -0.005563 0.000000 0.000000 0.000000
# 2 -0.003442 0.012305 -0.003245 0.000000 0.000000 0.000000
# 3 -0.005563 -0.003245 0.012548 0.000000 0.000000 0.000000
# 4 0.000000 0.000000 0.000000 0.055673 0.000000 0.000000
# 5 0.000000 0.000000 0.000000 0.000000 0.038863 0.000000
# 6 0.000000 0.000000 0.000000 0.000000 0.000000 0.036817
#
#
# Mechanical properties :
#
#
# Convention : Reuss Voigt Hill
#
# Bulk Modulus (GPa) = 64.98317 65.68517 65.33417
# Shear Modulus (GPa) = 24.89172 25.91702 25.40437
#
# Velocity S-wave (km/s) = 3.61624 3.68997 3.65329
# Velocity P-wave (km/s) = 7.18165 7.25694 7.21939
#
# Compressibility (1/GPa) = 0.01538860
#
# Stress axis : x y z
#
# Youngs Moduli (GPa) = 66.51422 81.26509 79.69160
#
# Poissons Ratio (x) = 0.27970 0.44332
# Poissons Ratio (y) = 0.22893 0.25860
# Poissons Ratio (z) = 0.37002 0.26371
#
# Static dielectric constant tensor:
#      x y z
#    x 3.743140 0.000000 0.000000 
#    y 0.000000 2.533490 0.000000 
#    z 0.000000 0.000000 3.199160 
# 
# 
# High freq. dielectric constant tensor:
#      x y z
#    x 1.755090 0.000000 0.000000 
#    y 0.000000 1.743090 0.000000 
#    z 0.000000 0.000000 1.711100 
# 
# From -- ./inp_files/38948.got.cif
#   From: 2010.03.12/outbox.cif.g09.slc.cpg/sg65_20_cif.got.tgz:38948.got - 2010.04.10 20:52:16.
