data_PCOD8265093
_publ_section_title
;
Structure prediction by ZEFSAII (Michael W. Deem and Ramdas Pophale) SiO2 
 PCOD8265093
Probable space group: C M M M
;
_chemical_formula_sum "Si O2"
_cell_formula_units_Z 72
_cell_length_a 19.110012
_cell_length_b 8.867699
_cell_length_c 23.449811
_cell_angle_alpha 90.000000
_cell_angle_beta 90.000000
_cell_angle_gamma 90.000000
_cell_volume 3973.847986
_symmetry_space_group_name_H-M "C M M M"
_symmetry_group_IT_number 65
_symmetry_cell_setting 'orthorhombic'
loop_
_space_group_symop_operation_xyz
x,y,z
-x,-y,z
x,-y,-z
-x,y,-z
-x,-y,-z
x,y,-z
-x,y,z
x,-y,z
1/2+x,1/2+y,z
1/2-x,1/2-y,z
1/2+x,1/2-y,-z
1/2-x,1/2+y,-z
1/2-x,1/2-y,-z
1/2+x,1/2+y,-z
1/2-x,1/2+y,z
1/2+x,1/2-y,z
loop_
_atom_site_type_symbol
_atom_site_label
_atom_site_fract_x
_atom_site_fract_y
_atom_site_fract_z
Si Si1 0.325183 0.175539 0.764634
Si Si2 0.174733 0.675822 0.890125
Si Si3 0.177469 0.322239 0.564303
Si Si4 0.327777 0.320896 0.000000
Si Si5 0.578199 0.820516 0.336143
O O1 0.250000 0.250000 0.756839
O O2 0.359450 0.202041 0.827704
O O3 0.379479 0.242006 0.718589
O O4 0.312709 0.000000 0.753969
O O5 0.181203 0.500000 0.904950
O O6 0.250000 0.750000 0.885562
O O7 0.133674 0.759276 0.942345
O O8 0.158296 0.271135 0.500000
O O9 0.186801 0.500000 0.568251
O O10 0.250000 0.250000 0.584670
O O11 0.116129 0.265616 0.606036
O O12 0.250000 0.250000 0.000000
O O13 0.326370 0.500000 0.000000
O O14 0.500000 0.752285 0.335329
O O15 0.574767 0.000000 0.333991
#
# Coordination Sequence:
#
# PCOD8265093 Si02
#       5
#    16  16  16   8  16
#     4   9  17  28  44  64  85 114 148 182 221 262
#     4   9  15  23  35  54  80 107 137 172 212 257
#     4   9  17  29  47  70  93 119 150 183 220 261
#     4  10  16  22  34  54  81 110 137 167 211 259
#     4   9  17  29  45  66  91 117 148 186 224 261
#
# _framework density 18.118459000000001
#
# number of rings (size 3 to 8) (size 9 to 14) (size 15 to 20)
#    0.000    2.889    0.000    3.667    0.000    1.333 
#    0.000    2.222    0.000    2.667    0.000    3.889 
#    0.000    6.222    0.000    0.000    0.000    0.000 
#
# Total GULP energy -446053.903215 kJ/mol
# GULP energy per Si atom -12390.386200 kJ/mol
# Density = 1.807722 g / cm^3
# Si number density = 18.118459 Si / 1000 Ang^3
#
#
#
# Elastic Constant Matrix: (Units=GPa)
#
#
# Indices 1 2 3 4 5 6 
#
# 1 101.1402 22.7525 78.9832 0.0000 0.0000 0.0000
# 2 22.7525 59.8893 40.6090 0.0000 0.0000 0.0000
# 3 78.9832 40.6090 172.9342 0.0000 0.0000 0.0000
# 4 0.0000 0.0000 0.0000 19.5612 0.0000 0.0000
# 5 0.0000 0.0000 0.0000 0.0000 6.2258 0.0000
# 6 0.0000 0.0000 0.0000 0.0000 0.0000 13.6422
#
#
#
# Elastic Compliance Matrix: (Units=1/GPa)
#
#
# Indices 1 2 3 4 5 6 
#
# 1 0.015452 -0.001291 -0.006754 0.000000 0.000000 0.000000
# 2 -0.001291 0.019967 -0.004099 0.000000 0.000000 0.000000
# 3 -0.006754 -0.004099 0.009830 0.000000 0.000000 0.000000
# 4 0.000000 0.000000 0.000000 0.051122 0.000000 0.000000
# 5 0.000000 0.000000 0.000000 0.000000 0.160623 0.000000
# 6 0.000000 0.000000 0.000000 0.000000 0.000000 0.073302
#
#
# Mechanical properties :
#
#
# Convention : Reuss Voigt Hill
#
# Bulk Modulus (GPa) = 47.70737 68.73925 58.22331
# Shear Modulus (GPa) = 13.82850 20.66043 17.24447
#
# Velocity S-wave (km/s) = 2.76565 3.38049 3.08841
# Velocity P-wave (km/s) = 6.04867 7.29782 6.70241
#
# Compressibility (1/GPa) = 0.02096112
#
# Stress axis : x y z
#
# Youngs Moduli (GPa) = 64.71549 50.08159 101.72878
#
# Poissons Ratio (x) = 0.06463 0.68711
# Poissons Ratio (y) = 0.08352 0.41703
# Poissons Ratio (z) = 0.43711 0.20530
#
# Static dielectric constant tensor:
#      x y z
#    x 3.055090 0.000000 0.000000 
#    y 0.000000 3.585040 0.000000 
#    z 0.000000 0.000000 4.560700 
# 
# 
# High freq. dielectric constant tensor:
#      x y z
#    x 1.643590 0.000000 0.000000 
#    y 0.000000 1.680740 0.000000 
#    z 0.000000 0.000000 1.734780 
# 
# From -- ./inp_files/70342.got.cif
#   From: 2010.03.12/outbox.cif.g09.slc.cpg/sg65_36_cif.got.tgz:70342.got - 2010.04.10 20:52:16.
