data_PCOD8265492
_publ_section_title
;
Structure prediction by ZEFSAII (Michael W. Deem and Ramdas Pophale) SiO2 
 PCOD8265492
Probable space group: C M M M
;
_chemical_formula_sum "Si O2"
_cell_formula_units_Z 64
_cell_length_a 15.573212
_cell_length_b 15.357736
_cell_length_c 12.157086
_cell_angle_alpha 90.000000
_cell_angle_beta 90.000000
_cell_angle_gamma 90.000000
_cell_volume 2907.601488
_symmetry_space_group_name_H-M "C M M M"
_symmetry_group_IT_number 65
_symmetry_cell_setting 'orthorhombic'
loop_
_space_group_symop_operation_xyz
x,y,z
-x,-y,z
x,-y,-z
-x,y,-z
-x,-y,-z
x,y,-z
-x,y,z
x,-y,z
1/2+x,1/2+y,z
1/2-x,1/2-y,z
1/2+x,1/2-y,-z
1/2-x,1/2+y,-z
1/2-x,1/2-y,-z
1/2+x,1/2+y,-z
1/2-x,1/2+y,z
1/2+x,1/2-y,z
loop_
_atom_site_type_symbol
_atom_site_label
_atom_site_fract_x
_atom_site_fract_y
_atom_site_fract_z
Si Si1 0.100116 0.900375 0.291717
Si Si2 0.601757 0.904070 0.264827
Si Si3 0.834718 0.810219 0.500000
Si Si4 0.898553 0.754361 0.877629
Si Si5 0.905548 0.363953 0.500000
O O1 0.158777 0.871344 0.393585
O O2 0.125666 0.842385 0.186488
O O3 0.000000 0.888831 0.322458
O O4 0.121377 0.000000 0.261860
O O5 0.500000 0.888956 0.274358
O O6 0.640936 0.830018 0.185323
O O7 0.642100 0.895582 0.388181
O O8 0.623477 0.000000 0.217294
O O9 0.750000 0.750000 0.500000
O O10 0.912625 0.741063 0.500000
O O11 0.000000 0.743697 0.885912
O O12 0.858477 0.758800 0.000000
O O13 0.000000 0.405163 0.500000
#
# Coordination Sequence:
#
# PCOD8265492 Si02
#       5
#    16  16   8  16   8
#     4  10  20  37  62  87 114 151 193 236 283 341
#     4   9  16  26  44  72 105 141 181 223 270 329
#     4  12  23  35  55  82 115 145 181 229 289 342
#     4   9  17  29  49  81 115 143 180 236 291 334
#     4  10  17  31  53  75 104 141 183 228 279 338
#
# _framework density 22.011268999999999
#
# number of rings (size 3 to 8) (size 9 to 14) (size 15 to 20)
#    0.000    2.250    2.500    1.875    0.000    3.500 
#    0.000    7.500    0.000    0.750    0.000    0.000 
#    0.000    0.000    0.000    0.000    0.000    0.000 
#
# Total GULP energy -396611.493029 kJ/mol
# GULP energy per Si atom -12394.109157 kJ/mol
# Density = 2.196117 g / cm^3
# Si number density = 22.011269 Si / 1000 Ang^3
#
#
#
# Elastic Constant Matrix: (Units=GPa)
#
#
# Indices 1 2 3 4 5 6 
#
# 1 33.7094 16.7526 20.2851 0.0000 0.0000 0.0000
# 2 16.7526 216.9349 109.5562 0.0000 0.0000 0.0000
# 3 20.2851 109.5562 213.7299 0.0000 0.0000 0.0000
# 4 0.0000 0.0000 0.0000 22.2437 0.0000 0.0000
# 5 0.0000 0.0000 0.0000 0.0000 -4.2248 0.0000
# 6 0.0000 0.0000 0.0000 0.0000 0.0000 15.5303
#
#
#
# Elastic Compliance Matrix: (Units=1/GPa)
#
#
# Indices 1 2 3 4 5 6 
#
# 1 0.031713 -0.001253 -0.002367 0.000000 0.000000 0.000000
# 2 -0.001253 0.006269 -0.003095 0.000000 0.000000 0.000000
# 3 -0.002367 -0.003095 0.006490 0.000000 0.000000 0.000000
# 4 0.000000 0.000000 0.000000 0.044956 0.000000 0.000000
# 5 0.000000 0.000000 0.000000 0.000000 -0.236699 0.000000
# 6 0.000000 0.000000 0.000000 0.000000 0.000000 0.064390
#
#
# Mechanical properties :
#
#
# Convention : Reuss Voigt Hill
#
# Bulk Modulus (GPa) = 32.21535 84.17356 58.19446
# Shear Modulus (GPa) = -84.59913 27.89520 -28.35196
#
# Velocity S-wave (km/s) = -6.20628 3.56380 -3.59286
# Velocity P-wave (km/s) = 6.05719 7.43360 3.04703
#
# Compressibility (1/GPa) = 0.03104110
#
# Stress axis : x y z
#
# Youngs Moduli (GPa) = 31.53293 159.50680 154.08837
#
# Poissons Ratio (x) = 0.19993 0.36479
# Poissons Ratio (y) = 0.03952 0.47685
# Poissons Ratio (z) = 0.07465 0.49362
#
# Static dielectric constant tensor:
#      x y z
#    x 3.355300 0.000000 0.000000 
#    y 0.000000 4.129720 0.000000 
#    z 0.000000 0.000000 4.165480 
# 
# 
# High freq. dielectric constant tensor:
#      x y z
#    x 1.811170 0.000000 0.000000 
#    y 0.000000 1.878100 0.000000 
#    z 0.000000 0.000000 1.859420 
# 
# From -- ./inp_files/26139.got.cif
#   From: 2010.03.12/outbox.cif.g09.slc.cpg/sg65_14_cif.got.tgz:26139.got - 2010.04.10 20:52:16.
