data_PCOD8265770
_publ_section_title
;
Structure prediction by ZEFSAII (Michael W. Deem and Ramdas Pophale) SiO2 
 PCOD8265770
Probable space group: C M M M
;
_chemical_formula_sum "Si O2"
_cell_formula_units_Z 112
_cell_length_a 33.855650
_cell_length_b 13.826202
_cell_length_c 14.231518
_cell_angle_alpha 90.000000
_cell_angle_beta 90.000000
_cell_angle_gamma 90.000000
_cell_volume 6661.703211
_symmetry_space_group_name_H-M "C M M M"
_symmetry_group_IT_number 65
_symmetry_cell_setting 'orthorhombic'
loop_
_space_group_symop_operation_xyz
x,y,z
-x,-y,z
x,-y,-z
-x,y,-z
-x,-y,-z
x,y,-z
-x,y,z
x,-y,z
1/2+x,1/2+y,z
1/2-x,1/2-y,z
1/2+x,1/2-y,-z
1/2-x,1/2+y,-z
1/2-x,1/2-y,-z
1/2+x,1/2+y,-z
1/2-x,1/2+y,z
1/2+x,1/2-y,z
loop_
_atom_site_type_symbol
_atom_site_label
_atom_site_fract_x
_atom_site_fract_y
_atom_site_fract_z
Si Si1 0.544090 0.114789 0.104869
Si Si2 0.691639 0.613437 0.290322
Si Si3 0.113657 0.384941 0.236945
Si Si4 0.270884 0.891313 0.392404
Si Si5 0.271480 0.385127 0.896488
Si Si6 0.183715 0.614508 0.895201
Si Si7 0.849562 0.272885 0.390270
O O1 0.500000 0.148691 0.133881
O O2 0.575109 0.153675 0.181555
O O3 0.546457 0.000000 0.102245
O O4 0.554384 0.153774 0.000000
O O5 0.683492 0.500000 0.303313
O O6 0.733257 0.645061 0.335358
O O7 0.695572 0.644367 0.180406
O O8 0.655595 0.667759 0.342058
O O9 0.112413 0.500000 0.251254
O O10 0.151972 0.347666 0.179658
O O11 0.115482 0.332443 0.338569
O O12 0.257906 0.885313 0.500000
O O13 0.308737 0.827617 0.371678
O O14 0.282454 0.000000 0.362320
O O15 0.266510 0.500000 0.895352
O O16 0.227541 0.341931 0.873529
O O17 0.285494 0.349941 0.000000
O O18 0.185038 0.500000 0.888538
O O19 0.170441 0.645450 0.000000
O O20 0.860290 0.263533 0.500000
#
# Coordination Sequence:
#
# PCOD8265770 Si02
#       7
#    16  16  16  16  16  16  16
#     4   8  14  26  46  72  99 124 147 169 197 241
#     4  10  19  31  46  60  77 107 147 189 233 274
#     4  10  18  28  44  64  89 120 146 170 206 252
#     4   9  17  29  44  60  78 105 146 194 237 270
#     4   8  14  25  40  56  75 102 137 177 220 263
#     4   8  13  22  38  60  84 110 140 173 210 252
#     4  11  22  32  42  59  83 111 148 192 230 262
#
# _framework density 16.812518000000001
#
# number of rings (size 3 to 8) (size 9 to 14) (size 15 to 20)
#    0.000    2.857    0.000    3.857    0.000    6.857 
#    0.000    1.429    0.000    3.857    0.000    2.000 
#    0.000    0.571    0.000    2.857    0.000    0.143 
#
# Total GULP energy -694091.155332 kJ/mol
# GULP energy per Si atom -12394.484917 kJ/mol
# Density = 1.677425 g / cm^3
# Si number density = 16.812518 Si / 1000 Ang^3
#
#
#
# Elastic Constant Matrix: (Units=GPa)
#
#
# Indices 1 2 3 4 5 6 
#
# 1 62.0889 26.1441 58.9447 0.0000 0.0000 0.0000
# 2 26.1441 29.2115 30.7046 0.0000 0.0000 0.0000
# 3 58.9447 30.7046 130.0721 0.0000 0.0000 0.0000
# 4 0.0000 0.0000 0.0000 16.6105 0.0000 0.0000
# 5 0.0000 0.0000 0.0000 0.0000 24.2758 0.0000
# 6 0.0000 0.0000 0.0000 0.0000 0.0000 10.5647
#
#
#
# Elastic Compliance Matrix: (Units=1/GPa)
#
#
# Indices 1 2 3 4 5 6 
#
# 1 0.035005 -0.019492 -0.011262 0.000000 0.000000 0.000000
# 2 -0.019492 0.056384 -0.004477 0.000000 0.000000 0.000000
# 3 -0.011262 -0.004477 0.013848 0.000000 0.000000 0.000000
# 4 0.000000 0.000000 0.000000 0.060203 0.000000 0.000000
# 5 0.000000 0.000000 0.000000 0.000000 0.041193 0.000000
# 6 0.000000 0.000000 0.000000 0.000000 0.000000 0.094655
#
#
# Mechanical properties :
#
#
# Convention : Reuss Voigt Hill
#
# Bulk Modulus (GPa) = 28.75531 50.32880 39.54206
# Shear Modulus (GPa) = 13.04319 17.32880 15.18600
#
# Velocity S-wave (km/s) = 2.78834 3.21395 3.00868
# Velocity P-wave (km/s) = 5.24472 6.61611 5.96993
#
# Compressibility (1/GPa) = 0.03477618
#
# Stress axis : x y z
#
# Youngs Moduli (GPa) = 28.56715 17.73562 72.21003
#
# Poissons Ratio (x) = 0.34570 0.81324
# Poissons Ratio (y) = 0.55682 0.32327
# Poissons Ratio (z) = 0.32173 0.07940
#
# Static dielectric constant tensor:
#      x y z
#    x 2.911710 0.000000 0.000000 
#    y 0.000000 2.969680 0.000000 
#    z 0.000000 0.000000 3.466050 
# 
# 
# High freq. dielectric constant tensor:
#      x y z
#    x 1.584890 0.000000 0.000000 
#    y 0.000000 1.624490 0.000000 
#    z 0.000000 0.000000 1.664200 
# 
# From -- ./inp_files/41403.got.cif
#   From: 2010.03.12/outbox.cif.g09.slc.cpg/sg65_21_cif.got.tgz:41403.got - 2010.04.10 20:52:16.
