data_PCOD8265950
_publ_section_title
;
Structure prediction by ZEFSAII (Michael W. Deem and Ramdas Pophale) SiO2 
 PCOD8265950
Probable space group: C M M M
;
_chemical_formula_sum "Si O2"
_cell_formula_units_Z 120
_cell_length_a 19.676941
_cell_length_b 19.133485
_cell_length_c 17.457658
_cell_angle_alpha 90.000000
_cell_angle_beta 90.000000
_cell_angle_gamma 90.000000
_cell_volume 6572.606697
_symmetry_space_group_name_H-M "C M M M"
_symmetry_group_IT_number 65
_symmetry_cell_setting 'orthorhombic'
loop_
_space_group_symop_operation_xyz
x,y,z
-x,-y,z
x,-y,-z
-x,y,-z
-x,-y,-z
x,y,-z
-x,y,z
x,-y,z
1/2+x,1/2+y,z
1/2-x,1/2-y,z
1/2+x,1/2-y,-z
1/2-x,1/2+y,-z
1/2-x,1/2-y,-z
1/2+x,1/2+y,-z
1/2-x,1/2+y,z
1/2+x,1/2-y,z
loop_
_atom_site_type_symbol
_atom_site_label
_atom_site_fract_x
_atom_site_fract_y
_atom_site_fract_z
Si Si1 0.424565 0.669289 0.251097
Si Si2 0.130983 0.677197 0.416217
Si Si3 0.699085 0.420939 0.792842
Si Si4 0.121286 0.834616 0.416866
Si Si5 0.245551 0.920207 0.622136
Si Si6 0.074987 0.329868 0.741793
Si Si7 0.421920 0.917015 0.000000
Si Si8 0.660918 0.082180 0.852453
O O1 0.500000 0.649504 0.220770
O O2 0.367641 0.627444 0.202948
O O3 0.425603 0.652161 0.342398
O O4 0.408825 0.750224 0.235509
O O5 0.097430 0.664862 0.500000
O O6 0.155252 0.757857 0.408451
O O7 0.194511 0.627155 0.408029
O O8 0.076546 0.660687 0.350140
O O9 0.673364 0.500000 0.804712
O O10 0.737532 0.411781 0.712853
O O11 0.757497 0.401802 0.856144
O O12 0.082364 0.839115 0.500000
O O13 0.177910 0.894235 0.419316
O O14 0.259616 0.000000 0.598796
O O15 0.130161 0.379815 0.779011
O O16 0.000000 0.351336 0.770092
O O17 0.379244 0.889840 0.926954
O O18 0.500000 0.887986 0.000000
O O19 0.424057 0.000000 0.000000
O O20 0.649439 0.000000 0.841139
#
# Coordination Sequence:
#
# PCOD8265950 Si02
#       8
#    16  16  16  16  16  16   8  16
#     4   9  19  33  49  72  98 128 173 218 258 307
#     4  10  19  30  44  63  91 128 170 212 251 295
#     4   9  18  32  52  74  98 131 167 205 252 303
#     4   9  18  30  44  63  89 123 164 213 269 315
#     4  10  18  29  44  65  91 122 164 210 253 301
#     4  10  20  33  50  71  98 136 172 207 256 301
#     4   9  18  32  54  85 115 139 164 201 247 295
#     4  10  19  34  55  81 108 134 166 200 241 300
#
# _framework density 18.257595999999999
#
# number of rings (size 3 to 8) (size 9 to 14) (size 15 to 20)
#    0.000    2.467    1.333    1.200    0.000    4.267 
#    0.000    2.667    0.000    1.600    0.000    7.000 
#    0.000    2.667    0.000    0.000    0.000    0.000 
#
# Total GULP energy -743484.194394 kJ/mol
# GULP energy per Si atom -12391.403240 kJ/mol
# Density = 1.821604 g / cm^3
# Si number density = 18.257596 Si / 1000 Ang^3
#
#
#
# Elastic Constant Matrix: (Units=GPa)
#
#
# Indices 1 2 3 4 5 6 
#
# 1 118.5283 48.9395 39.9171 0.0000 0.0000 0.0000
# 2 48.9395 56.9070 24.8281 0.0000 0.0000 0.0000
# 3 39.9171 24.8281 65.8754 0.0000 0.0000 0.0000
# 4 0.0000 0.0000 0.0000 13.6594 0.0000 0.0000
# 5 0.0000 0.0000 0.0000 0.0000 17.3431 0.0000
# 6 0.0000 0.0000 0.0000 0.0000 0.0000 23.8446
#
#
#
# Elastic Compliance Matrix: (Units=1/GPa)
#
#
# Indices 1 2 3 4 5 6 
#
# 1 0.014249 -0.010157 -0.004806 0.000000 0.000000 0.000000
# 2 -0.010157 0.028271 -0.004500 0.000000 0.000000 0.000000
# 3 -0.004806 -0.004500 0.019789 0.000000 0.000000 0.000000
# 4 0.000000 0.000000 0.000000 0.073210 0.000000 0.000000
# 5 0.000000 0.000000 0.000000 0.000000 0.057660 0.000000
# 6 0.000000 0.000000 0.000000 0.000000 0.000000 0.041938
#
#
# Mechanical properties :
#
#
# Convention : Reuss Voigt Hill
#
# Bulk Modulus (GPa) = 42.76908 52.07556 47.42232
# Shear Modulus (GPa) = 17.74064 19.47781 18.60923
#
# Velocity S-wave (km/s) = 3.12057 3.26978 3.19605
# Velocity P-wave (km/s) = 6.03822 6.54522 6.29683
#
# Compressibility (1/GPa) = 0.02338138
#
# Stress axis : x y z
#
# Youngs Moduli (GPa) = 70.17900 35.37156 50.53418
#
# Poissons Ratio (x) = 0.35928 0.24287
# Poissons Ratio (y) = 0.71284 0.22743
# Poissons Ratio (z) = 0.33729 0.15919
#
# Static dielectric constant tensor:
#      x y z
#    x 3.326500 0.000000 0.000000 
#    y 0.000000 3.297440 0.000000 
#    z 0.000000 0.000000 3.347470 
# 
# 
# High freq. dielectric constant tensor:
#      x y z
#    x 1.697320 0.000000 0.000000 
#    y 0.000000 1.696620 0.000000 
#    z 0.000000 0.000000 1.683490 
# 
# From -- ./inp_files/54960.got.cif
#   From: 2010.03.12/outbox.cif.g09.slc.cpg/sg65_28_cif.got.tgz:54960.got - 2010.04.10 20:52:16.
