data_PCOD8265738
_publ_section_title
;
Structure prediction by ZEFSAII (Michael W. Deem and Ramdas Pophale) SiO2 
 PCOD8265738
Probable space group: C M M M
;
_chemical_formula_sum "Si O2"
_cell_formula_units_Z 80
_cell_length_a 8.053430
_cell_length_b 29.385034
_cell_length_c 22.174449
_cell_angle_alpha 90.000000
_cell_angle_beta 90.000000
_cell_angle_gamma 90.000000
_cell_volume 5247.590327
_symmetry_space_group_name_H-M "C M M M"
_symmetry_group_IT_number 65
_symmetry_cell_setting 'orthorhombic'
loop_
_space_group_symop_operation_xyz
x,y,z
-x,-y,z
x,-y,-z
-x,y,-z
-x,-y,-z
x,y,-z
-x,y,z
x,-y,z
1/2+x,1/2+y,z
1/2-x,1/2-y,z
1/2+x,1/2-y,-z
1/2-x,1/2+y,-z
1/2-x,1/2-y,-z
1/2+x,1/2+y,-z
1/2-x,1/2+y,z
1/2+x,1/2-y,z
loop_
_atom_site_type_symbol
_atom_site_label
_atom_site_fract_x
_atom_site_fract_y
_atom_site_fract_z
Si Si1 0.500000 0.054276 0.068515
Si Si2 0.693359 0.107822 0.388204
Si Si3 0.815148 0.053977 0.142373
Si Si4 0.698527 0.050967 0.500000
Si Si5 0.306392 0.550832 0.721223
Si Si6 0.695699 0.202127 0.431962
O O1 0.668270 0.073543 0.099897
O O2 0.500000 0.000000 0.072291
O O3 0.500000 0.071613 0.000000
O O4 0.500000 0.110632 0.400457
O O5 0.770206 0.076017 0.440552
O O6 0.724143 0.087326 0.322555
O O7 0.766915 0.159211 0.393629
O O8 0.771115 0.067665 0.210859
O O9 0.000000 0.072865 0.124245
O O10 0.821923 0.000000 0.137341
O O11 0.500000 0.050252 0.500000
O O12 0.770117 0.000000 0.500000
O O13 0.500000 0.549085 0.708205
O O14 0.231157 0.500000 0.711011
O O15 0.767916 0.198869 0.500000
O O16 0.500000 0.200066 0.433619
O O17 0.750000 0.250000 0.401793
#
# Coordination Sequence:
#
# PCOD8265738 Si02
#       6
#     8  16  16   8  16  16
#     4   9  16  24  38  60  80 103 143 183 211 248
#     4  10  18  28  43  61  77  99 135 175 210 254
#     4   8  15  27  39  53  79 110 139 177 215 245
#     4   9  16  26  38  55  79 101 125 165 216 255
#     4   9  18  30  41  56  80 109 140 173 207 250
#     4   9  17  30  45  60  78  98 126 168 214 259
#
# _framework density 15.245093000000001
#
# number of rings (size 3 to 8) (size 9 to 14) (size 15 to 20)
#    0.000    3.000    1.000    1.800    1.400    2.400 
#    0.000    2.500    0.000    1.800    0.000    0.000 
#    0.000    0.000    0.000    0.000    0.000    1.000 
#
# Total GULP energy -495671.152406 kJ/mol
# GULP energy per Si atom -12391.778810 kJ/mol
# Density = 1.521039 g / cm^3
# Si number density = 15.245093 Si / 1000 Ang^3
#
#
#
# Elastic Constant Matrix: (Units=GPa)
#
#
# Indices 1 2 3 4 5 6 
#
# 1 53.4282 23.6724 41.1223 0.0000 0.0000 0.0000
# 2 23.6724 98.6946 44.0298 0.0000 0.0000 0.0000
# 3 41.1223 44.0298 94.8794 0.0000 0.0000 0.0000
# 4 0.0000 0.0000 0.0000 4.0043 0.0000 0.0000
# 5 0.0000 0.0000 0.0000 0.0000 15.6875 0.0000
# 6 0.0000 0.0000 0.0000 0.0000 0.0000 13.2861
#
#
#
# Elastic Compliance Matrix: (Units=1/GPa)
#
#
# Indices 1 2 3 4 5 6 
#
# 1 0.028300 -0.001659 -0.011496 0.000000 0.000000 0.000000
# 2 -0.001659 0.012875 -0.005256 0.000000 0.000000 0.000000
# 3 -0.011496 -0.005256 0.017961 0.000000 0.000000 0.000000
# 4 0.000000 0.000000 0.000000 0.249730 0.000000 0.000000
# 5 0.000000 0.000000 0.000000 0.000000 0.063745 0.000000
# 6 0.000000 0.000000 0.000000 0.000000 0.000000 0.075267
#
#
# Mechanical properties :
#
#
# Convention : Reuss Voigt Hill
#
# Bulk Modulus (GPa) = 44.81356 51.62789 48.22072
# Shear Modulus (GPa) = 10.15979 15.80743 12.98361
#
# Velocity S-wave (km/s) = 2.58433 3.22357 2.92148
# Velocity P-wave (km/s) = 6.19389 6.91332 6.56347
#
# Compressibility (1/GPa) = 0.02231467
#
# Stress axis : x y z
#
# Youngs Moduli (GPa) = 35.33597 77.67056 55.67642
#
# Poissons Ratio (x) = 0.12889 0.64003
# Poissons Ratio (y) = 0.05864 0.29261
# Poissons Ratio (z) = 0.40621 0.40820
#
# Static dielectric constant tensor:
#      x y z
#    x 2.952860 0.000000 0.000000 
#    y 0.000000 2.989040 0.000000 
#    z 0.000000 0.000000 2.898670 
# 
# 
# High freq. dielectric constant tensor:
#      x y z
#    x 1.582000 0.000000 0.000000 
#    y 0.000000 1.541320 0.000000 
#    z 0.000000 0.000000 1.562740 
# 
# From -- ./inp_files/60062.got.cif
#   From: 2010.03.12/outbox.cif.g09.slc.cpg/sg65_31_cif.got.tgz:60062.got - 2010.04.10 20:52:16.
