data_PCOD8265296
_publ_section_title
;
Structure prediction by ZEFSAII (Michael W. Deem and Ramdas Pophale) SiO2 
 PCOD8265296
Probable space group: C M M M
;
_chemical_formula_sum "Si O2"
_cell_formula_units_Z 96
_cell_length_a 29.150308
_cell_length_b 23.288021
_cell_length_c 9.262562
_cell_angle_alpha 90.000000
_cell_angle_beta 90.000000
_cell_angle_gamma 90.000000
_cell_volume 6287.917861
_symmetry_space_group_name_H-M "C M M M"
_symmetry_group_IT_number 65
_symmetry_cell_setting 'orthorhombic'
loop_
_space_group_symop_operation_xyz
x,y,z
-x,-y,z
x,-y,-z
-x,y,-z
-x,-y,-z
x,y,-z
-x,y,z
x,-y,z
1/2+x,1/2+y,z
1/2-x,1/2-y,z
1/2+x,1/2-y,-z
1/2-x,1/2+y,-z
1/2-x,1/2-y,-z
1/2+x,1/2+y,-z
1/2-x,1/2+y,z
1/2+x,1/2-y,z
loop_
_atom_site_type_symbol
_atom_site_label
_atom_site_fract_x
_atom_site_fract_y
_atom_site_fract_z
Si Si1 0.911951 0.617415 0.333731
Si Si2 0.910852 0.752672 0.667339
Si Si3 0.500000 0.746980 0.164165
Si Si4 0.822330 0.228760 0.167317
Si Si5 0.766076 0.659640 0.833464
Si Si6 0.000000 0.383677 0.837376
Si Si7 0.316568 0.065599 0.669797
O O1 0.921747 0.602707 0.500000
O O2 0.905304 0.684898 0.310550
O O3 0.866586 0.585742 0.275983
O O4 0.954726 0.593229 0.242810
O O5 0.915578 0.769260 0.500000
O O6 0.866439 0.783543 0.734374
O O7 0.955345 0.776025 0.751769
O O8 0.500000 0.815316 0.166320
O O9 0.500000 0.723717 0.000000
O O10 0.799002 0.288436 0.215269
O O11 0.786682 0.177053 0.193340
O O12 0.837034 0.231900 0.000000
O O13 0.776784 0.603062 0.742249
O O14 0.774559 0.645559 0.000000
O O15 0.000000 0.407377 0.000000
O O16 0.312948 0.074782 0.500000
O O17 0.308801 0.000000 0.715242
#
# Coordination Sequence:
#
# PCOD8265296 Si02
#       7
#    16  16   8  16  16   8  16
#     4   9  17  29  42  58  80 107 138 175 220 263
#     4  10  17  26  42  64  86 112 145 180 213 257
#     4   9  17  27  39  58  86 117 143 172 214 261
#     4   9  17  29  45  65  88 113 139 175 219 261
#     4   9  18  31  46  64  86 111 142 177 217 263
#     4   9  17  27  42  60  75 100 138 180 220 258
#     4  10  20  33  47  63  84 111 144 181 222 265
#
# _framework density 15.267374999999999
#
# number of rings (size 3 to 8) (size 9 to 14) (size 15 to 20)
#    0.000    2.667    1.667    2.000    0.000    4.333 
#    0.000    2.083    0.000    2.500    0.000    0.000 
#    0.000    0.000    0.000    0.750    0.000   14.000 
#
# Total GULP energy -595221.658272 kJ/mol
# GULP energy per Si atom -12400.451214 kJ/mol
# Density = 1.523263 g / cm^3
# Si number density = 15.267375 Si / 1000 Ang^3
#
#
#
# Elastic Constant Matrix: (Units=GPa)
#
#
# Indices 1 2 3 4 5 6 
#
# 1 114.2590 36.2765 62.1045 0.0000 0.0000 0.0000
# 2 36.2765 46.1949 27.5343 0.0000 0.0000 0.0000
# 3 62.1045 27.5343 83.2283 0.0000 0.0000 0.0000
# 4 0.0000 0.0000 0.0000 17.2424 0.0000 0.0000
# 5 0.0000 0.0000 0.0000 0.0000 32.3195 0.0000
# 6 0.0000 0.0000 0.0000 0.0000 0.0000 15.1280
#
#
#
# Elastic Compliance Matrix: (Units=1/GPa)
#
#
# Indices 1 2 3 4 5 6 
#
# 1 0.016328 -0.006926 -0.009893 0.000000 0.000000 0.000000
# 2 -0.006926 0.029902 -0.004725 0.000000 0.000000 0.000000
# 3 -0.009893 -0.004725 0.020960 0.000000 0.000000 0.000000
# 4 0.000000 0.000000 0.000000 0.057997 0.000000 0.000000
# 5 0.000000 0.000000 0.000000 0.000000 0.030941 0.000000
# 6 0.000000 0.000000 0.000000 0.000000 0.000000 0.066102
#
#
# Mechanical properties :
#
#
# Convention : Reuss Voigt Hill
#
# Bulk Modulus (GPa) = 41.48635 55.05697 48.27166
# Shear Modulus (GPa) = 18.29152 20.78912 19.54032
#
# Velocity S-wave (km/s) = 3.46508 3.69408 3.58141
# Velocity P-wave (km/s) = 6.57581 7.37124 6.98486
#
# Compressibility (1/GPa) = 0.02410432
#
# Stress axis : x y z
#
# Youngs Moduli (GPa) = 61.24463 33.44239 47.71008
#
# Poissons Ratio (x) = 0.23161 0.47198
# Poissons Ratio (y) = 0.42417 0.22541
# Poissons Ratio (z) = 0.60587 0.15800
#
# Static dielectric constant tensor:
#      x y z
#    x 2.979370 0.000000 0.000000 
#    y 0.000000 2.487070 0.000000 
#    z 0.000000 0.000000 2.952280 
# 
# 
# High freq. dielectric constant tensor:
#      x y z
#    x 1.589000 0.000000 0.000000 
#    y 0.000000 1.524280 0.000000 
#    z 0.000000 0.000000 1.592040 
# 
# From -- ./inp_files/16679.got.cif
#   From: 2010.03.12/outbox.cif.g09.slc.cpg/sg65_9_cif.got.tgz:16679.got - 2010.04.10 20:52:16.
