data_PCOD8265127
_publ_section_title
;
Structure prediction by ZEFSAII (Michael W. Deem and Ramdas Pophale) SiO2 
 PCOD8265127
Probable space group: C M M M
;
_chemical_formula_sum "Si O2"
_cell_formula_units_Z 56
_cell_length_a 8.537829
_cell_length_b 19.744126
_cell_length_c 18.403335
_cell_angle_alpha 90.000000
_cell_angle_beta 90.000000
_cell_angle_gamma 90.000000
_cell_volume 3102.286464
_symmetry_space_group_name_H-M "C M M M"
_symmetry_group_IT_number 65
_symmetry_cell_setting 'orthorhombic'
loop_
_space_group_symop_operation_xyz
x,y,z
-x,-y,z
x,-y,-z
-x,y,-z
-x,-y,-z
x,y,-z
-x,y,z
x,-y,z
1/2+x,1/2+y,z
1/2-x,1/2-y,z
1/2+x,1/2-y,-z
1/2-x,1/2+y,-z
1/2-x,1/2-y,-z
1/2+x,1/2+y,-z
1/2-x,1/2+y,z
1/2+x,1/2-y,z
loop_
_atom_site_type_symbol
_atom_site_label
_atom_site_fract_x
_atom_site_fract_y
_atom_site_fract_z
Si Si1 0.814468 0.825685 0.853749
Si Si2 0.813907 0.424347 0.580792
Si Si3 0.686163 0.174817 0.704857
Si Si4 0.185264 0.325973 0.000000
O O1 0.750000 0.750000 0.853566
O O2 0.750130 0.859240 0.779623
O O3 0.749101 0.862863 0.926678
O O4 0.000000 0.826471 0.854671
O O5 0.756052 0.403281 0.500000
O O6 0.752995 0.500000 0.599418
O O7 0.747855 0.371253 0.639336
O O8 0.000000 0.423887 0.583075
O O9 0.500000 0.176964 0.707669
O O10 0.750000 0.250000 0.692741
O O11 0.250000 0.250000 0.000000
O O12 0.000000 0.325980 0.000000
#
# Coordination Sequence:
#
# PCOD8265127 Si02
#       4
#    16  16  16   8
#     4  10  17  26  39  58  87 120 152 184 222 267
#     4   8  15  29  48  68  89 116 153 193 228 266
#     4  10  18  28  44  67  94 121 150 187 230 272
#     4  10  16  24  38  58  85 116 151 186 223 265
#
# _framework density 18.051202
#
# number of rings (size 3 to 8) (size 9 to 14) (size 15 to 20)
#    0.000    2.571    0.000    9.000    0.000    0.571 
#    0.000    0.000    0.000    6.000    0.000    9.000 
#    0.000    8.000    0.000    0.000    0.000    0.000 
#
# Total GULP energy -346950.151234 kJ/mol
# GULP energy per Si atom -12391.076830 kJ/mol
# Density = 1.801012 g / cm^3
# Si number density = 18.051202 Si / 1000 Ang^3
#
#
#
# Elastic Constant Matrix: (Units=GPa)
#
#
# Indices 1 2 3 4 5 6 
#
# 1 110.7887 20.8480 53.9760 0.0000 0.0000 0.0000
# 2 20.8480 54.2190 72.1906 0.0000 0.0000 0.0000
# 3 53.9760 72.1906 219.0887 0.0000 0.0000 0.0000
# 4 0.0000 0.0000 0.0000 4.6101 0.0000 0.0000
# 5 0.0000 0.0000 0.0000 0.0000 23.4122 0.0000
# 6 0.0000 0.0000 0.0000 0.0000 0.0000 10.3250
#
#
#
# Elastic Compliance Matrix: (Units=1/GPa)
#
#
# Indices 1 2 3 4 5 6 
#
# 1 0.010290 -0.001036 -0.002194 0.000000 0.000000 0.000000
# 2 -0.001036 0.032965 -0.010607 0.000000 0.000000 0.000000
# 3 -0.002194 -0.010607 0.008600 0.000000 0.000000 0.000000
# 4 0.000000 0.000000 0.000000 0.216915 0.000000 0.000000
# 5 0.000000 0.000000 0.000000 0.000000 0.042713 0.000000
# 6 0.000000 0.000000 0.000000 0.000000 0.000000 0.096853
#
#
# Mechanical properties :
#
#
# Convention : Reuss Voigt Hill
#
# Bulk Modulus (GPa) = 41.35348 75.34729 58.35038
# Shear Modulus (GPa) = 11.25956 23.47491 17.36723
#
# Velocity S-wave (km/s) = 2.50022 3.61010 3.10515
# Velocity P-wave (km/s) = 5.59406 7.69471 6.72689
#
# Compressibility (1/GPa) = 0.02418176
#
# Stress axis : x y z
#
# Youngs Moduli (GPa) = 97.18266 30.33566 116.28123
#
# Poissons Ratio (x) = 0.03141 0.25510
# Poissons Ratio (y) = 0.10064 1.23337
# Poissons Ratio (z) = 0.21320 0.32176
#
# Static dielectric constant tensor:
#      x y z
#    x 3.158530 0.000000 0.000000 
#    y 0.000000 2.979680 0.000000 
#    z 0.000000 0.000000 4.932870 
# 
# 
# High freq. dielectric constant tensor:
#      x y z
#    x 1.691200 0.000000 0.000000 
#    y 0.000000 1.628930 0.000000 
#    z 0.000000 0.000000 1.732710 
# 
# From -- ./inp_files/48969.got.cif
#   From: 2010.03.12/outbox.cif.g09.slc.cpg/sg65_25_cif.got.tgz:48969.got - 2010.04.10 20:52:16.
