data_PCOD8265441
_publ_section_title
;
Structure prediction by ZEFSAII (Michael W. Deem and Ramdas Pophale) SiO2 
 PCOD8265441
Probable space group: C M M M
;
_chemical_formula_sum "Si O2"
_cell_formula_units_Z 88
_cell_length_a 14.380773
_cell_length_b 22.097188
_cell_length_c 14.070765
_cell_angle_alpha 90.000000
_cell_angle_beta 90.000000
_cell_angle_gamma 90.000000
_cell_volume 4471.332347
_symmetry_space_group_name_H-M "C M M M"
_symmetry_group_IT_number 65
_symmetry_cell_setting 'orthorhombic'
loop_
_space_group_symop_operation_xyz
x,y,z
-x,-y,z
x,-y,-z
-x,y,-z
-x,-y,-z
x,y,-z
-x,y,z
x,-y,z
1/2+x,1/2+y,z
1/2-x,1/2-y,z
1/2+x,1/2-y,-z
1/2-x,1/2+y,-z
1/2-x,1/2-y,-z
1/2+x,1/2+y,-z
1/2-x,1/2+y,z
1/2+x,1/2-y,z
loop_
_atom_site_type_symbol
_atom_site_label
_atom_site_fract_x
_atom_site_fract_y
_atom_site_fract_z
Si Si1 0.102629 0.338100 0.216859
Si Si2 0.355932 0.761145 0.392751
Si Si3 0.102788 0.126121 0.606093
Si Si4 0.107064 0.216890 0.891577
Si Si5 0.894057 0.000000 0.887909
Si Si6 0.205116 0.109838 0.790373
O O1 0.101682 0.310759 0.322836
O O2 0.122017 0.285798 0.139912
O O3 0.182282 0.389287 0.205308
O O4 0.000000 0.366792 0.198793
O O5 0.365069 0.786452 0.500000
O O6 0.250000 0.750000 0.364151
O O7 0.409095 0.698060 0.381216
O O8 0.140566 0.111254 0.500000
O O9 0.173616 0.097455 0.681830
O O10 0.000000 0.097925 0.620897
O O11 0.167736 0.174740 0.823680
O O12 0.000000 0.197024 0.881065
O O13 0.140723 0.210223 0.000000
O O14 0.836903 0.941453 0.856706
O O15 0.000000 0.000000 0.847081
O O16 0.898836 0.000000 0.000000
#
# Coordination Sequence:
#
# PCOD8265441 Si02
#       6
#    16  16  16  16   8  16
#     4  11  22  35  53  83 118 153 191 230 280 341
#     4  10  17  29  50  81 122 162 195 227 273 335
#     4  10  19  31  52  83 118 153 186 226 281 341
#     4  10  20  34  55  83 113 143 178 226 288 349
#     4  11  26  46  68  90 108 137 188 242 292 348
#     4  12  22  38  59  82 112 151 190 237 284 335
#
# _framework density 19.680934000000001
#
# number of rings (size 3 to 8) (size 9 to 14) (size 15 to 20)
#    0.000    1.364    3.636    3.273    0.000    4.727 
#    0.000    0.909    0.000    2.182    0.000    0.000 
#    0.000    2.909    0.000    0.000    0.000    0.000 
#
# Total GULP energy -545607.281586 kJ/mol
# GULP energy per Si atom -12400.165491 kJ/mol
# Density = 1.963614 g / cm^3
# Si number density = 19.680934 Si / 1000 Ang^3
#
#
#
# Elastic Constant Matrix: (Units=GPa)
#
#
# Indices 1 2 3 4 5 6 
#
# 1 142.3510 40.9645 37.0731 0.0000 0.0000 0.0000
# 2 40.9645 40.2065 14.7010 0.0000 0.0000 0.0000
# 3 37.0731 14.7010 108.8812 0.0000 0.0000 0.0000
# 4 0.0000 0.0000 0.0000 22.1162 0.0000 0.0000
# 5 0.0000 0.0000 0.0000 0.0000 22.2124 0.0000
# 6 0.0000 0.0000 0.0000 0.0000 0.0000 12.0599
#
#
#
# Elastic Compliance Matrix: (Units=1/GPa)
#
#
# Indices 1 2 3 4 5 6 
#
# 1 0.010428 -0.009810 -0.002226 0.000000 0.000000 0.000000
# 2 -0.009810 0.035393 -0.001438 0.000000 0.000000 0.000000
# 3 -0.002226 -0.001438 0.010136 0.000000 0.000000 0.000000
# 4 0.000000 0.000000 0.000000 0.045216 0.000000 0.000000
# 5 0.000000 0.000000 0.000000 0.000000 0.045020 0.000000
# 6 0.000000 0.000000 0.000000 0.000000 0.000000 0.082920
#
#
# Mechanical properties :
#
#
# Convention : Reuss Voigt Hill
#
# Bulk Modulus (GPa) = 34.47372 52.99065 43.73219
# Shear Modulus (GPa) = 18.81600 24.52435 21.67018
#
# Velocity S-wave (km/s) = 3.09536 3.53384 3.32184
# Velocity P-wave (km/s) = 5.50721 6.60560 6.08126
#
# Compressibility (1/GPa) = 0.02900760
#
# Stress axis : x y z
#
# Youngs Moduli (GPa) = 95.89774 28.25426 98.65389
#
# Poissons Ratio (x) = 0.27719 0.21960
# Poissons Ratio (y) = 0.94080 0.14190
# Poissons Ratio (z) = 0.21347 0.04064
#
# Static dielectric constant tensor:
#      x y z
#    x 1.504280 0.000000 0.000000 
#    y 0.000000 3.044290 0.000000 
#    z 0.000000 0.000000 3.782520 
# 
# 
# High freq. dielectric constant tensor:
#      x y z
#    x 1.775360 0.000000 0.000000 
#    y 0.000000 1.697230 0.000000 
#    z 0.000000 0.000000 1.785690 
# 
# From -- ./inp_files/40193.got.cif
#   From: 2010.03.12/outbox.cif.g09.slc.cpg/sg65_21_cif.got.tgz:40193.got - 2010.04.10 20:52:16.
