data_PCOD8265576
_publ_section_title
;
Structure prediction by ZEFSAII (Michael W. Deem and Ramdas Pophale) SiO2 
 PCOD8265576
Probable space group: C M M M
;
_chemical_formula_sum "Si O2"
_cell_formula_units_Z 96
_cell_length_a 31.015848
_cell_length_b 14.157841
_cell_length_c 13.745492
_cell_angle_alpha 90.000000
_cell_angle_beta 90.000000
_cell_angle_gamma 90.000000
_cell_volume 6035.885320
_symmetry_space_group_name_H-M "C M M M"
_symmetry_group_IT_number 65
_symmetry_cell_setting 'orthorhombic'
loop_
_space_group_symop_operation_xyz
x,y,z
-x,-y,z
x,-y,-z
-x,y,-z
-x,-y,-z
x,y,-z
-x,y,z
x,-y,z
1/2+x,1/2+y,z
1/2-x,1/2-y,z
1/2+x,1/2-y,-z
1/2-x,1/2+y,-z
1/2-x,1/2-y,-z
1/2+x,1/2+y,-z
1/2-x,1/2+y,z
1/2+x,1/2-y,z
loop_
_atom_site_type_symbol
_atom_site_label
_atom_site_fract_x
_atom_site_fract_y
_atom_site_fract_z
Si Si1 0.951397 0.109786 0.270273
Si Si2 0.142923 0.604089 0.115461
Si Si3 0.900776 0.209053 0.887474
Si Si4 0.237434 0.388440 0.891683
Si Si5 0.822544 0.112530 0.793259
Si Si6 0.129127 0.111436 0.606830
O O1 0.940817 0.169716 0.173819
O O2 0.918859 0.139035 0.356513
O O3 0.000000 0.132107 0.304331
O O4 0.945500 0.000000 0.243492
O O5 0.129609 0.500000 0.156012
O O6 0.107975 0.682266 0.146059
O O7 0.190477 0.635313 0.154233
O O8 0.147398 0.598481 0.000000
O O9 0.857774 0.148105 0.870399
O O10 0.913678 0.203955 0.000000
O O11 0.242470 0.500000 0.898247
O O12 0.275508 0.346898 0.822961
O O13 0.242863 0.345147 0.000000
O O14 0.835457 0.148611 0.684624
O O15 0.823495 0.000000 0.796222
O O16 0.136870 0.157434 0.500000
O O17 0.132820 0.000000 0.597690
#
# Coordination Sequence:
#
# PCOD8265576 Si02
#       6
#    16  16  16  16  16  16
#     4   9  18  30  42  60  84 104 126 157 191 236
#     4   8  15  27  40  55  76 103 138 176 204 223
#     4  10  18  26  39  57  78 108 138 161 192 234
#     4   8  13  22  36  54  79 108 134 164 199 228
#     4   9  16  24  35  56  84 108 132 161 191 230
#     4   8  14  25  40  57  79 107 134 160 192 227
#
# _framework density 15.904875000000001
#
# number of rings (size 3 to 8) (size 9 to 14) (size 15 to 20)
#    0.000    3.333    0.000    3.000    0.000    3.333 
#    0.000    5.000    0.000    0.500    0.000   11.667 
#    0.000   16.000    0.000    6.000    0.000    0.667 
#
# Total GULP energy -594756.617122 kJ/mol
# GULP energy per Si atom -12390.762857 kJ/mol
# Density = 1.586868 g / cm^3
# Si number density = 15.904875 Si / 1000 Ang^3
#
#
#
# Elastic Constant Matrix: (Units=GPa)
#
#
# Indices 1 2 3 4 5 6 
#
# 1 53.7422 13.0534 27.7682 0.0000 0.0000 0.0000
# 2 13.0534 36.1844 14.7995 0.0000 0.0000 0.0000
# 3 27.7682 14.7995 83.9124 0.0000 0.0000 0.0000
# 4 0.0000 0.0000 0.0000 6.6049 0.0000 0.0000
# 5 0.0000 0.0000 0.0000 0.0000 14.1051 0.0000
# 6 0.0000 0.0000 0.0000 0.0000 0.0000 18.1567
#
#
#
# Elastic Compliance Matrix: (Units=1/GPa)
#
#
# Indices 1 2 3 4 5 6 
#
# 1 0.023490 -0.005706 -0.006767 0.000000 0.000000 0.000000
# 2 -0.005706 0.031171 -0.003609 0.000000 0.000000 0.000000
# 3 -0.006767 -0.003609 0.014793 0.000000 0.000000 0.000000
# 4 0.000000 0.000000 0.000000 0.151403 0.000000 0.000000
# 5 0.000000 0.000000 0.000000 0.000000 0.070896 0.000000
# 6 0.000000 0.000000 0.000000 0.000000 0.000000 0.055076
#
#
# Mechanical properties :
#
#
# Convention : Reuss Voigt Hill
#
# Bulk Modulus (GPa) = 26.81749 31.67570 29.24659
# Shear Modulus (GPa) = 12.77390 15.65453 14.21422
#
# Velocity S-wave (km/s) = 2.83705 3.14070 2.99273
# Velocity P-wave (km/s) = 5.25639 5.75421 5.51092
#
# Compressibility (1/GPa) = 0.03728909
#
# Stress axis : x y z
#
# Youngs Moduli (GPa) = 42.57191 32.08115 67.59949
#
# Poissons Ratio (x) = 0.18306 0.45743
# Poissons Ratio (y) = 0.24292 0.24398
# Poissons Ratio (z) = 0.28808 0.11579
#
# Static dielectric constant tensor:
#      x y z
#    x 3.076330 0.000000 0.000000 
#    y 0.000000 2.992870 0.000000 
#    z 0.000000 0.000000 3.072340 
# 
# 
# High freq. dielectric constant tensor:
#      x y z
#    x 1.599550 0.000000 0.000000 
#    y 0.000000 1.589600 0.000000 
#    z 0.000000 0.000000 1.578220 
# 
# From -- ./inp_files/41250.got.cif
#   From: 2010.03.12/outbox.cif.g09.slc.cpg/sg65_21_cif.got.tgz:41250.got - 2010.04.10 20:52:16.
