data_PCOD8265674
_publ_section_title
;
Structure prediction by ZEFSAII (Michael W. Deem and Ramdas Pophale) SiO2 
 PCOD8265674
Probable space group: C M M M
;
_chemical_formula_sum "Si O2"
_cell_formula_units_Z 88
_cell_length_a 21.405766
_cell_length_b 17.627874
_cell_length_c 14.392145
_cell_angle_alpha 90.000000
_cell_angle_beta 90.000000
_cell_angle_gamma 90.000000
_cell_volume 5430.705310
_symmetry_space_group_name_H-M "C M M M"
_symmetry_group_IT_number 65
_symmetry_cell_setting 'orthorhombic'
loop_
_space_group_symop_operation_xyz
x,y,z
-x,-y,z
x,-y,-z
-x,y,-z
-x,-y,-z
x,y,-z
-x,y,z
x,-y,z
1/2+x,1/2+y,z
1/2-x,1/2-y,z
1/2+x,1/2-y,-z
1/2-x,1/2+y,-z
1/2-x,1/2-y,-z
1/2+x,1/2+y,-z
1/2-x,1/2+y,z
1/2+x,1/2-y,z
loop_
_atom_site_type_symbol
_atom_site_label
_atom_site_fract_x
_atom_site_fract_y
_atom_site_fract_z
Si Si1 0.378520 0.349416 0.705489
Si Si2 0.500000 0.587699 0.390231
Si Si3 0.221106 0.667044 0.098916
Si Si4 0.687066 0.201692 0.286931
Si Si5 0.151550 0.088416 0.895410
Si Si6 0.240834 0.913055 0.605913
O O1 0.439626 0.372331 0.650804
O O2 0.368590 0.259228 0.686730
O O3 0.386416 0.365517 0.816032
O O4 0.319733 0.397332 0.668323
O O5 0.500000 0.500000 0.361305
O O6 0.500000 0.597895 0.500000
O O7 0.250000 0.750000 0.091432
O O8 0.173456 0.662956 0.186067
O O9 0.275311 0.605602 0.116413
O O10 0.187187 0.648707 0.000000
O O11 0.750000 0.250000 0.275930
O O12 0.698966 0.137226 0.364122
O O13 0.139523 0.000000 0.879389
O O14 0.129359 0.112446 0.000000
O O15 0.223784 0.892935 0.500000
O O16 0.260676 0.000000 0.617090
#
# Coordination Sequence:
#
# PCOD8265674 Si02
#       6
#    16   8  16  16  16  16
#     4  11  20  33  48  66  92 124 160 198 234 272
#     4  11  24  38  51  65  84 122 171 210 239 269
#     4   9  14  24  41  64  92 119 147 176 218 278
#     4   9  17  28  44  69  91 118 149 186 234 282
#     4  10  18  27  44  69  96 127 157 186 227 278
#     4  10  19  30  46  68  94 120 146 187 243 293
#
# _framework density 16.204158
#
# number of rings (size 3 to 8) (size 9 to 14) (size 15 to 20)
#    0.000    2.091    5.455    2.182    0.000    5.455 
#    0.000    0.455    0.000    1.636    0.000    0.636 
#    0.000    2.182    0.000    0.000    0.000   12.818 
#
# Total GULP energy -545228.212489 kJ/mol
# GULP energy per Si atom -12391.550284 kJ/mol
# Density = 1.616728 g / cm^3
# Si number density = 16.204158 Si / 1000 Ang^3
#
#
#
# Elastic Constant Matrix: (Units=GPa)
#
#
# Indices 1 2 3 4 5 6 
#
# 1 54.8587 37.2224 30.2138 0.0000 0.0000 0.0000
# 2 37.2224 68.2633 41.3916 0.0000 0.0000 0.0000
# 3 30.2138 41.3916 110.3904 0.0000 0.0000 0.0000
# 4 0.0000 0.0000 0.0000 35.5425 0.0000 0.0000
# 5 0.0000 0.0000 0.0000 0.0000 17.3946 0.0000
# 6 0.0000 0.0000 0.0000 0.0000 0.0000 18.0204
#
#
#
# Elastic Compliance Matrix: (Units=1/GPa)
#
#
# Indices 1 2 3 4 5 6 
#
# 1 0.029518 -0.014492 -0.002645 0.000000 0.000000 0.000000
# 2 -0.014492 0.026074 -0.005810 0.000000 0.000000 0.000000
# 3 -0.002645 -0.005810 0.011961 0.000000 0.000000 0.000000
# 4 0.000000 0.000000 0.000000 0.028135 0.000000 0.000000
# 5 0.000000 0.000000 0.000000 0.000000 0.057489 0.000000
# 6 0.000000 0.000000 0.000000 0.000000 0.000000 0.055493
#
#
# Mechanical properties :
#
#
# Convention : Reuss Voigt Hill
#
# Bulk Modulus (GPa) = 46.16968 50.12978 48.14973
# Shear Modulus (GPa) = 19.09959 22.50381 20.80170
#
# Velocity S-wave (km/s) = 3.43692 3.73066 3.58680
# Velocity P-wave (km/s) = 6.65614 7.03993 6.85073
#
# Compressibility (1/GPa) = 0.02165923
#
# Stress axis : x y z
#
# Youngs Moduli (GPa) = 33.87716 38.35201 83.60197
#
# Poissons Ratio (x) = 0.55578 0.22116
# Poissons Ratio (y) = 0.49094 0.48576
# Poissons Ratio (z) = 0.08962 0.22284
#
# Static dielectric constant tensor:
#      x y z
#    x 2.621910 0.000000 0.000000 
#    y 0.000000 3.218030 0.000000 
#    z 0.000000 0.000000 3.645690 
# 
# 
# High freq. dielectric constant tensor:
#      x y z
#    x 1.541090 0.000000 0.000000 
#    y 0.000000 1.620450 0.000000 
#    z 0.000000 0.000000 1.655000 
# 
# From -- ./inp_files/44313.got.cif
#   From: 2010.03.12/outbox.cif.g09.slc.cpg/sg65_23_cif.got.tgz:44313.got - 2010.04.10 20:52:16.
