data_PCOD8265249
_publ_section_title
;
Structure prediction by ZEFSAII (Michael W. Deem and Ramdas Pophale) SiO2 
 PCOD8265249
Probable space group: C M M M
;
_chemical_formula_sum "Si O2"
_cell_formula_units_Z 104
_cell_length_a 22.976248
_cell_length_b 19.395690
_cell_length_c 14.652143
_cell_angle_alpha 90.000000
_cell_angle_beta 90.000000
_cell_angle_gamma 90.000000
_cell_volume 6529.583696
_symmetry_space_group_name_H-M "C M M M"
_symmetry_group_IT_number 65
_symmetry_cell_setting 'orthorhombic'
loop_
_space_group_symop_operation_xyz
x,y,z
-x,-y,z
x,-y,-z
-x,y,-z
-x,-y,-z
x,y,-z
-x,y,z
x,-y,z
1/2+x,1/2+y,z
1/2-x,1/2-y,z
1/2+x,1/2-y,-z
1/2-x,1/2+y,-z
1/2-x,1/2-y,-z
1/2+x,1/2+y,-z
1/2-x,1/2+y,z
1/2+x,1/2-y,z
loop_
_atom_site_type_symbol
_atom_site_label
_atom_site_fract_x
_atom_site_fract_y
_atom_site_fract_z
Si Si1 0.068396 0.839077 0.105354
Si Si2 0.286247 0.418147 0.602643
Si Si3 0.608392 0.418078 0.723656
Si Si4 0.342695 0.081750 0.600381
Si Si5 0.431243 0.816171 0.900713
Si Si6 0.067553 0.419799 0.251065
Si Si7 0.000000 0.918177 0.396563
O O1 0.103669 0.887720 0.174415
O O2 0.085910 0.760694 0.130935
O O3 0.000000 0.851966 0.118950
O O4 0.085514 0.855460 0.000000
O O5 0.299915 0.390622 0.500000
O O6 0.290239 0.500000 0.600220
O O7 0.332596 0.390057 0.676120
O O8 0.221507 0.394013 0.633436
O O9 0.607758 0.500000 0.733490
O O10 0.556232 0.391963 0.658706
O O11 0.355189 0.112158 0.500000
O O12 0.394218 0.107792 0.665013
O O13 0.343605 0.000000 0.596380
O O14 0.500000 0.820252 0.908323
O O15 0.408834 0.875215 0.833283
O O16 0.403670 0.831463 0.000000
O O17 0.078351 0.500000 0.228712
O O18 0.000000 0.405708 0.273733
O O19 0.000000 0.887939 0.500000
O O20 0.000000 0.000000 0.402273
#
# Coordination Sequence:
#
# PCOD8265249 Si02
#       7
#    16  16  16  16  16  16   8
#     4   9  17  29  43  59  82 114 147 174 209 259
#     4   8  14  25  41  60  83 113 147 176 202 245
#     4  10  17  25  40  63  85 109 142 181 219 242
#     4   8  14  25  41  62  88 116 142 166 198 246
#     4   8  15  28  44  61  83 113 141 165 203 257
#     4   9  16  25  42  70  93 106 129 170 213 248
#     4   9  16  24  35  57  87 109 129 168 220 258
#
# _framework density 15.927508
#
# number of rings (size 3 to 8) (size 9 to 14) (size 15 to 20)
#    0.000    3.308    0.769    2.308    0.000    2.769 
#    0.000    3.846    0.000    3.692    0.000    8.615 
#    0.000    0.000    0.000    0.000    0.000    0.000 
#
# Total GULP energy -644354.087392 kJ/mol
# GULP energy per Si atom -12391.424758 kJ/mol
# Density = 1.589126 g / cm^3
# Si number density = 15.927508 Si / 1000 Ang^3
#
#
#
# Elastic Constant Matrix: (Units=GPa)
#
#
# Indices 1 2 3 4 5 6 
#
# 1 82.6403 27.9384 64.9061 0.0000 0.0000 0.0000
# 2 27.9384 38.4448 44.2147 0.0000 0.0000 0.0000
# 3 64.9061 44.2147 128.7181 0.0000 0.0000 0.0000
# 4 0.0000 0.0000 0.0000 2.4466 0.0000 0.0000
# 5 0.0000 0.0000 0.0000 0.0000 17.9163 0.0000
# 6 0.0000 0.0000 0.0000 0.0000 0.0000 7.8642
#
#
#
# Elastic Compliance Matrix: (Units=1/GPa)
#
#
# Indices 1 2 3 4 5 6 
#
# 1 0.020601 -0.004999 -0.008671 0.000000 0.000000 0.000000
# 2 -0.004999 0.044211 -0.012666 0.000000 0.000000 0.000000
# 3 -0.008671 -0.012666 0.016492 0.000000 0.000000 0.000000
# 4 0.000000 0.000000 0.000000 0.408734 0.000000 0.000000
# 5 0.000000 0.000000 0.000000 0.000000 0.055815 0.000000
# 6 0.000000 0.000000 0.000000 0.000000 0.000000 0.127158
#
#
# Mechanical properties :
#
#
# Convention : Reuss Voigt Hill
#
# Bulk Modulus (GPa) = 34.92514 58.21353 46.56933
# Shear Modulus (GPa) = 6.80064 13.16168 9.98116
#
# Velocity S-wave (km/s) = 2.06858 2.87775 2.50604
# Velocity P-wave (km/s) = 5.26123 6.90437 6.13803
#
# Compressibility (1/GPa) = 0.02863267
#
# Stress axis : x y z
#
# Youngs Moduli (GPa) = 48.54209 22.61895 60.63570
#
# Poissons Ratio (x) = 0.11306 0.52576
# Poissons Ratio (y) = 0.24264 0.76800
# Poissons Ratio (z) = 0.42090 0.28649
#
# Static dielectric constant tensor:
#      x y z
#    x 3.028140 0.000000 0.000000 
#    y 0.000000 2.705090 0.000000 
#    z 0.000000 0.000000 3.780230 
# 
# 
# High freq. dielectric constant tensor:
#      x y z
#    x 1.591450 0.000000 0.000000 
#    y 0.000000 1.570820 0.000000 
#    z 0.000000 0.000000 1.617040 
# 
# From -- ./inp_files/44637.got.cif
#   From: 2010.03.12/outbox.cif.g09.slc.cpg/sg65_23_cif.got.tgz:44637.got - 2010.04.10 20:52:16.
