data_PCOD8265543
_publ_section_title
;
Structure prediction by ZEFSAII (Michael W. Deem and Ramdas Pophale) SiO2 
 PCOD8265543
Probable space group: C M M M
;
_chemical_formula_sum "Si O2"
_cell_formula_units_Z 80
_cell_length_a 22.696611
_cell_length_b 10.235922
_cell_length_c 20.420216
_cell_angle_alpha 90.000000
_cell_angle_beta 90.000000
_cell_angle_gamma 90.000000
_cell_volume 4744.039689
_symmetry_space_group_name_H-M "C M M M"
_symmetry_group_IT_number 65
_symmetry_cell_setting 'orthorhombic'
loop_
_space_group_symop_operation_xyz
x,y,z
-x,-y,z
x,-y,-z
-x,y,-z
-x,-y,-z
x,y,-z
-x,y,z
x,-y,z
1/2+x,1/2+y,z
1/2-x,1/2-y,z
1/2+x,1/2-y,-z
1/2-x,1/2+y,-z
1/2-x,1/2-y,-z
1/2+x,1/2+y,-z
1/2-x,1/2+y,z
1/2+x,1/2-y,z
loop_
_atom_site_type_symbol
_atom_site_label
_atom_site_fract_x
_atom_site_fract_y
_atom_site_fract_z
Si Si1 0.171739 0.500000 0.352497
Si Si2 0.189191 0.000000 0.630097
Si Si3 0.000000 0.144825 0.422444
Si Si4 0.624805 0.747566 0.576711
Si Si5 0.676881 0.000000 0.797142
Si Si6 0.306248 0.343838 0.000000
Si Si7 0.316435 0.500000 0.221416
Si Si8 0.820230 0.761736 0.137781
O O1 0.240904 0.500000 0.365501
O O2 0.145215 0.627654 0.384285
O O3 0.152593 0.500000 0.276596
O O4 0.167601 0.126723 0.591421
O O5 0.163772 0.000000 0.703448
O O6 0.941540 0.219122 0.399079
O O7 0.000000 0.132426 0.500000
O O8 0.000000 0.000000 0.391456
O O9 0.627253 0.777879 0.500000
O O10 0.653165 0.124297 0.838091
O O11 0.746910 0.000000 0.790646
O O12 0.250000 0.250000 0.000000
O O13 0.342735 0.305565 0.065428
O O14 0.290016 0.500000 0.000000
O O15 0.342944 0.370363 0.188608
O O16 0.750000 0.750000 0.137424
#
# Coordination Sequence:
#
# PCOD8265543 Si02
#       8
#     8   8   8  16   8   8   8  16
#     4  11  23  35  48  76 107 130 169 211 258 308
#     4  11  21  33  52  72 101 138 175 205 248 310
#     4   9  18  37  59  75  93 123 167 208 253 316
#     4  11  22  36  55  75  98 130 167 215 261 305
#     4   9  18  30  41  56  86 127 157 194 236 295
#     4  10  18  24  36  58  82 110 160 217 252 273
#     4   9  16  28  41  58  82 123 163 198 232 285
#     4   9  16  25  39  54  80 114 160 203 241 273
#
# _framework density 16.863265999999999
#
# number of rings (size 3 to 8) (size 9 to 14) (size 15 to 20)
#    0.000    2.100    2.000    2.400    4.200    6.000 
#    0.000    1.500    0.000    0.000    0.000    0.000 
#    0.000    0.000    0.000    0.000    0.000   70.000 
#
# Total GULP energy -495822.670655 kJ/mol
# GULP energy per Si atom -12395.566766 kJ/mol
# Density = 1.682488 g / cm^3
# Si number density = 16.863266 Si / 1000 Ang^3
#
#
#
# Elastic Constant Matrix: (Units=GPa)
#
#
# Indices 1 2 3 4 5 6 
#
# 1 57.6077 31.2749 24.7449 0.0000 0.0000 0.0000
# 2 31.2749 168.9253 66.6249 0.0000 0.0000 0.0000
# 3 24.7449 66.6249 116.8869 0.0000 0.0000 0.0000
# 4 0.0000 0.0000 0.0000 29.6232 0.0000 0.0000
# 5 0.0000 0.0000 0.0000 0.0000 0.5531 0.0000
# 6 0.0000 0.0000 0.0000 0.0000 0.0000 25.9460
#
#
#
# Elastic Compliance Matrix: (Units=1/GPa)
#
#
# Indices 1 2 3 4 5 6 
#
# 1 0.019953 -0.002616 -0.002733 0.000000 0.000000 0.000000
# 2 -0.002616 0.007980 -0.003994 0.000000 0.000000 0.000000
# 3 -0.002733 -0.003994 0.011411 0.000000 0.000000 0.000000
# 4 0.000000 0.000000 0.000000 0.033757 0.000000 0.000000
# 5 0.000000 0.000000 0.000000 0.000000 1.808149 0.000000
# 6 0.000000 0.000000 0.000000 0.000000 0.000000 0.038542
#
#
# Mechanical properties :
#
#
# Convention : Reuss Voigt Hill
#
# Bulk Modulus (GPa) = 48.41165 65.41214 56.91189
# Shear Modulus (GPa) = 2.57021 25.94280 14.25650
#
# Velocity S-wave (km/s) = 1.23590 3.92653 2.91076
# Velocity P-wave (km/s) = 5.55043 7.70913 6.71707
#
# Compressibility (1/GPa) = 0.02065619
#
# Stress axis : x y z
#
# Youngs Moduli (GPa) = 50.11777 125.31979 87.63769
#
# Poissons Ratio (x) = 0.32787 0.23949
# Poissons Ratio (y) = 0.13112 0.35006
# Poissons Ratio (z) = 0.13696 0.50058
#
# Static dielectric constant tensor:
#      x y z
#    x 2.729050 0.000000 0.000000 
#    y 0.000000 3.369980 0.000000 
#    z 0.000000 0.000000 3.499150 
# 
# 
# High freq. dielectric constant tensor:
#      x y z
#    x 1.576970 0.000000 0.000000 
#    y 0.000000 1.673530 0.000000 
#    z 0.000000 0.000000 1.660580 
# 
# From -- ./inp_files/60140.got.cif
#   From: 2010.03.12/outbox.cif.g09.slc.cpg/sg65_31_cif.got.tgz:60140.got - 2010.04.10 20:52:16.
