data_PCOD8265594
_publ_section_title
;
Structure prediction by ZEFSAII (Michael W. Deem and Ramdas Pophale) SiO2 
 PCOD8265594
Probable space group: C M M M
;
_chemical_formula_sum "Si O2"
_cell_formula_units_Z 104
_cell_length_a 18.631449
_cell_length_b 26.576876
_cell_length_c 13.655593
_cell_angle_alpha 90.000000
_cell_angle_beta 90.000000
_cell_angle_gamma 90.000000
_cell_volume 6761.781400
_symmetry_space_group_name_H-M "C M M M"
_symmetry_group_IT_number 65
_symmetry_cell_setting 'orthorhombic'
loop_
_space_group_symop_operation_xyz
x,y,z
-x,-y,z
x,-y,-z
-x,y,-z
-x,-y,-z
x,y,-z
-x,y,z
x,-y,z
1/2+x,1/2+y,z
1/2-x,1/2-y,z
1/2+x,1/2-y,-z
1/2-x,1/2+y,-z
1/2-x,1/2-y,-z
1/2+x,1/2+y,-z
1/2-x,1/2+y,z
1/2+x,1/2-y,z
loop_
_atom_site_type_symbol
_atom_site_label
_atom_site_fract_x
_atom_site_fract_y
_atom_site_fract_z
Si Si1 0.079144 0.441146 0.000000
Si Si2 0.672397 0.940681 0.812268
Si Si3 0.084083 0.266237 0.387812
Si Si4 0.921123 0.632728 0.288964
Si Si5 0.770722 0.135078 0.889714
Si Si6 0.826885 0.224013 0.779154
Si Si7 0.380430 0.188884 0.893074
O O1 0.122448 0.424746 0.095886
O O2 0.070740 0.500000 0.000000
O O3 0.000000 0.416376 0.000000
O O4 0.636028 0.913521 0.717538
O O5 0.751444 0.918500 0.837201
O O6 0.677629 0.000000 0.793564
O O7 0.102529 0.254926 0.500000
O O8 0.105921 0.324555 0.364801
O O9 0.129896 0.226926 0.323331
O O10 0.000000 0.258921 0.365246
O O11 0.929304 0.659606 0.183862
O O12 0.000000 0.611686 0.318610
O O13 0.823520 0.166394 0.818121
O O14 0.699181 0.167194 0.896110
O O15 0.802337 0.126680 0.000000
O O16 0.750000 0.250000 0.761632
O O17 0.872577 0.253100 0.861743
O O18 0.416750 0.184897 0.000000
#
# Coordination Sequence:
#
# PCOD8265594 Si02
#       7
#     8  16  16  16  16  16  16
#     4   9  16  24  34  50  75 112 153 187 216 241
#     4  10  18  27  37  54  84 118 152 189 218 241
#     4   9  18  33  49  64  86 112 137 176 230 278
#     4   9  17  26  38  57  79 110 149 181 213 254
#     4   9  15  24  38  55  80 113 144 172 206 250
#     4   9  16  26  42  64  84 106 142 177 208 259
#     4   8  14  23  34  52  79 106 134 168 205 246
#
# _framework density 15.380561999999999
#
# number of rings (size 3 to 8) (size 9 to 14) (size 15 to 20)
#    0.000    3.000    0.769    1.846    1.077    3.385 
#    0.000    0.000    0.000    1.846    0.000    2.154 
#    0.000    0.615    0.000    3.077    0.000    0.000 
#
# Total GULP energy -644242.423178 kJ/mol
# GULP energy per Si atom -12389.277369 kJ/mol
# Density = 1.534556 g / cm^3
# Si number density = 15.380562 Si / 1000 Ang^3
#
#
#
# Elastic Constant Matrix: (Units=GPa)
#
#
# Indices 1 2 3 4 5 6 
#
# 1 28.1936 30.5607 20.5464 0.0000 0.0000 0.0000
# 2 30.5607 87.5070 23.0244 0.0000 0.0000 0.0000
# 3 20.5464 23.0244 66.7091 0.0000 0.0000 0.0000
# 4 0.0000 0.0000 0.0000 16.8250 0.0000 0.0000
# 5 0.0000 0.0000 0.0000 0.0000 19.8962 0.0000
# 6 0.0000 0.0000 0.0000 0.0000 0.0000 19.5323
#
#
#
# Elastic Compliance Matrix: (Units=1/GPa)
#
#
# Indices 1 2 3 4 5 6 
#
# 1 0.066924 -0.019742 -0.013799 0.000000 0.000000 0.000000
# 2 -0.019742 0.018393 -0.000268 0.000000 0.000000 0.000000
# 3 -0.013799 -0.000268 0.019333 0.000000 0.000000 0.000000
# 4 0.000000 0.000000 0.000000 0.059435 0.000000 0.000000
# 5 0.000000 0.000000 0.000000 0.000000 0.050261 0.000000
# 6 0.000000 0.000000 0.000000 0.000000 0.000000 0.051197
#
#
# Mechanical properties :
#
#
# Convention : Reuss Voigt Hill
#
# Bulk Modulus (GPa) = 27.00283 36.74143 31.87213
# Shear Modulus (GPa) = 14.47158 18.46925 16.47042
#
# Velocity S-wave (km/s) = 3.07074 3.46904 3.27595
# Velocity P-wave (km/s) = 5.49246 6.32343 5.92254
#
# Compressibility (1/GPa) = 0.03703315
#
# Stress axis : x y z
#
# Youngs Moduli (GPa) = 14.94221 54.36941 51.72527
#
# Poissons Ratio (x) = 1.07335 0.71375
# Poissons Ratio (y) = 0.29499 0.01384
# Poissons Ratio (z) = 0.20619 0.01455
#
# Static dielectric constant tensor:
#      x y z
#    x 2.780370 0.000000 0.000000 
#    y 0.000000 2.919640 0.000000 
#    z 0.000000 0.000000 3.149540 
# 
# 
# High freq. dielectric constant tensor:
#      x y z
#    x 1.551820 0.000000 0.000000 
#    y 0.000000 1.570270 0.000000 
#    z 0.000000 0.000000 1.572490 
# 
# From -- ./inp_files/44735.got.cif
#   From: 2010.03.12/outbox.cif.g09.slc.cpg/sg65_23_cif.got.tgz:44735.got - 2010.04.10 20:52:16.
