data_PCOD8265807
_publ_section_title
;
Structure prediction by ZEFSAII (Michael W. Deem and Ramdas Pophale) SiO2 
 PCOD8265807
Probable space group: C M M M
;
_chemical_formula_sum "Si O2"
_cell_formula_units_Z 104
_cell_length_a 19.154222
_cell_length_b 25.602848
_cell_length_c 12.742670
_cell_angle_alpha 90.000000
_cell_angle_beta 90.000000
_cell_angle_gamma 90.000000
_cell_volume 6249.038938
_symmetry_space_group_name_H-M "C M M M"
_symmetry_group_IT_number 65
_symmetry_cell_setting 'orthorhombic'
loop_
_space_group_symop_operation_xyz
x,y,z
-x,-y,z
x,-y,-z
-x,y,-z
-x,-y,-z
x,y,-z
-x,y,z
x,-y,z
1/2+x,1/2+y,z
1/2-x,1/2-y,z
1/2+x,1/2-y,-z
1/2-x,1/2+y,-z
1/2-x,1/2-y,-z
1/2+x,1/2+y,-z
1/2-x,1/2+y,z
1/2+x,1/2-y,z
loop_
_atom_site_type_symbol
_atom_site_label
_atom_site_fract_x
_atom_site_fract_y
_atom_site_fract_z
Si Si1 0.290288 0.303180 0.794474
Si Si2 0.793248 0.882028 0.376611
Si Si3 0.162761 0.438483 0.298782
Si Si4 0.577649 0.061971 0.500000
Si Si5 0.076005 0.057599 0.624393
Si Si6 0.336591 0.857225 0.119701
Si Si7 0.080400 0.253058 0.123637
O O1 0.250000 0.250000 0.794404
O O2 0.283887 0.326064 0.677243
O O3 0.245734 0.341711 0.870602
O O4 0.370729 0.293355 0.828954
O O5 0.787742 0.873815 0.500000
O O6 0.740435 0.926400 0.337722
O O7 0.867809 0.901684 0.334457
O O8 0.154213 0.500000 0.275417
O O9 0.113771 0.418197 0.393449
O O10 0.144336 0.406287 0.193759
O O11 0.500000 0.084804 0.500000
O O12 0.579329 0.000000 0.500000
O O13 0.081318 0.053635 0.500000
O O14 0.000000 0.078014 0.659534
O O15 0.089568 0.000000 0.671833
O O16 0.387205 0.809412 0.153567
O O17 0.351087 0.873989 0.000000
O O18 0.000000 0.248847 0.165223
O O19 0.082049 0.245639 0.000000
#
# Coordination Sequence:
#
# PCOD8265807 Si02
#       7
#    16  16  16   8  16  16  16
#     4   9  18  31  46  67  93 124 153 195 243 286
#     4  10  18  28  45  67  92 124 162 197 230 275
#     4  10  19  31  49  72  97 128 163 198 236 281
#     4   9  18  32  48  66  90 123 161 197 231 272
#     4   8  14  24  38  58  85 116 148 184 226 268
#     4   9  18  32  50  73  99 125 156 197 246 292
#     4   9  17  31  52  72  90 118 158 202 242 287
#
# _framework density 16.642558000000001
#
# number of rings (size 3 to 8) (size 9 to 14) (size 15 to 20)
#    0.000    2.846    0.769    1.385    0.000    4.308 
#    0.000    0.000    0.000    0.000    0.000    4.308 
#    0.000    0.000    0.000   28.615    0.000    0.769 
#
# Total GULP energy -644357.744448 kJ/mol
# GULP energy per Si atom -12391.495086 kJ/mol
# Density = 1.660468 g / cm^3
# Si number density = 16.642558 Si / 1000 Ang^3
#
#
#
# Elastic Constant Matrix: (Units=GPa)
#
#
# Indices 1 2 3 4 5 6 
#
# 1 96.6116 16.6606 32.5224 0.0000 0.0000 0.0000
# 2 16.6606 49.3408 42.7496 0.0000 0.0000 0.0000
# 3 32.5224 42.7496 80.6586 0.0000 0.0000 0.0000
# 4 0.0000 0.0000 0.0000 18.3574 0.0000 0.0000
# 5 0.0000 0.0000 0.0000 0.0000 17.3276 0.0000
# 6 0.0000 0.0000 0.0000 0.0000 0.0000 4.0440
#
#
#
# Elastic Compliance Matrix: (Units=1/GPa)
#
#
# Indices 1 2 3 4 5 6 
#
# 1 0.011978 0.000259 -0.004967 0.000000 0.000000 0.000000
# 2 0.000259 0.037482 -0.019970 0.000000 0.000000 0.000000
# 3 -0.004967 -0.019970 0.024985 0.000000 0.000000 0.000000
# 4 0.000000 0.000000 0.000000 0.054474 0.000000 0.000000
# 5 0.000000 0.000000 0.000000 0.000000 0.057711 0.000000
# 6 0.000000 0.000000 0.000000 0.000000 0.000000 0.247278
#
#
# Mechanical properties :
#
#
# Convention : Reuss Voigt Hill
#
# Bulk Modulus (GPa) = 39.85842 45.60846 42.73344
# Shear Modulus (GPa) = 10.17029 16.92438 13.54734
#
# Velocity S-wave (km/s) = 2.47473 3.19240 2.85619
# Velocity P-wave (km/s) = 5.67163 6.40724 6.05063
#
# Compressibility (1/GPa) = 0.02508880
#
# Stress axis : x y z
#
# Youngs Moduli (GPa) = 83.48572 26.67925 40.02403
#
# Poissons Ratio (x) = -0.00690 0.19879
# Poissons Ratio (y) = -0.02161 0.79929
# Poissons Ratio (z) = 0.41466 0.53279
#
# Static dielectric constant tensor:
#      x y z
#    x 3.521870 0.000000 0.000000 
#    y 0.000000 3.028260 0.000000 
#    z 0.000000 0.000000 2.931640 
# 
# 
# High freq. dielectric constant tensor:
#      x y z
#    x 1.650860 0.000000 0.000000 
#    y 0.000000 1.624520 0.000000 
#    z 0.000000 0.000000 1.619740 
# 
# From -- ./inp_files/27722.got.cif
#   From: 2010.03.12/outbox.cif.g09.slc.cpg/sg65_14_cif.got.tgz:27722.got - 2010.04.10 20:52:16.
