data_PCOD8265873
_publ_section_title
;
Structure prediction by ZEFSAII (Michael W. Deem and Ramdas Pophale) SiO2 
 PCOD8265873
Probable space group: C M M M
;
_chemical_formula_sum "Si O2"
_cell_formula_units_Z 120
_cell_length_a 8.105897
_cell_length_b 29.776668
_cell_length_c 27.394103
_cell_angle_alpha 90.000000
_cell_angle_beta 90.000000
_cell_angle_gamma 90.000000
_cell_volume 6612.021606
_symmetry_space_group_name_H-M "C M M M"
_symmetry_group_IT_number 65
_symmetry_cell_setting 'orthorhombic'
loop_
_space_group_symop_operation_xyz
x,y,z
-x,-y,z
x,-y,-z
-x,y,-z
-x,-y,-z
x,y,-z
-x,y,z
x,-y,z
1/2+x,1/2+y,z
1/2-x,1/2-y,z
1/2+x,1/2-y,-z
1/2-x,1/2+y,-z
1/2-x,1/2-y,-z
1/2+x,1/2+y,-z
1/2-x,1/2+y,z
1/2+x,1/2-y,z
loop_
_atom_site_type_symbol
_atom_site_label
_atom_site_fract_x
_atom_site_fract_y
_atom_site_fract_z
Si Si1 0.194680 0.640242 0.053469
Si Si2 0.307702 0.947402 0.620679
Si Si3 0.500000 0.447253 0.553973
Si Si4 0.193045 0.610811 0.713947
Si Si5 0.195813 0.548820 0.906609
Si Si6 0.193857 0.798874 0.247479
Si Si7 0.309575 0.702507 0.860959
Si Si8 0.804060 0.549936 0.798177
O O1 0.251926 0.588229 0.057032
O O2 0.273664 0.666128 0.098130
O O3 0.000000 0.644845 0.058508
O O4 0.252858 0.657923 0.000000
O O5 0.500000 0.938556 0.604276
O O6 0.254507 0.915428 0.665319
O O7 0.172875 0.933362 0.579920
O O8 0.288962 0.000000 0.635215
O O9 0.500000 0.500000 0.548990
O O10 0.500000 0.425049 0.500000
O O11 0.245787 0.662968 0.714748
O O12 0.275056 0.585505 0.760464
O O13 0.000000 0.607820 0.718886
O O14 0.263462 0.500000 0.924272
O O15 0.263935 0.560055 0.852429
O O16 0.000000 0.546424 0.904236
O O17 0.250000 0.750000 0.266720
O O18 0.269995 0.807618 0.192647
O O19 0.000000 0.800381 0.246426
O O20 0.500000 0.705507 0.851605
O O21 0.250000 0.750000 0.881898
O O22 0.750372 0.500000 0.781862
O O23 0.000000 0.553672 0.797946
#
# Coordination Sequence:
#
# PCOD8265873 Si02
#       8
#    16  16   8  16  16  16  16  16
#     4  10  20  32  48  71  94 116 147 191 241 291
#     4   9  18  31  48  75 110 147 187 228 268 314
#     4   9  18  32  50  72 104 150 196 236 275 309
#     4  10  18  28  47  72 101 137 166 202 250 301
#     4   8  14  25  42  65  92 120 151 189 227 272
#     4  10  21  35  51  71  95 125 160 199 240 297
#     4  10  21  37  55  72  91 118 152 190 238 294
#     4   8  13  22  39  64  92 123 158 189 226 281
#
# _framework density 18.148761
#
# number of rings (size 3 to 8) (size 9 to 14) (size 15 to 20)
#    0.000    2.733    0.000    2.800    0.933    5.333 
#    0.000    2.667    0.000    0.400    0.000    4.667 
#    0.000    0.533    0.267    0.000    0.000    0.000 
#
# Total GULP energy -743363.814601 kJ/mol
# GULP energy per Si atom -12389.396910 kJ/mol
# Density = 1.810745 g / cm^3
# Si number density = 18.148761 Si / 1000 Ang^3
#
#
#
# Elastic Constant Matrix: (Units=GPa)
#
#
# Indices 1 2 3 4 5 6 
#
# 1 24.5958 1.1280 29.4223 0.0000 0.0000 0.0000
# 2 1.1280 83.3180 41.7979 0.0000 0.0000 0.0000
# 3 29.4223 41.7979 81.5792 0.0000 0.0000 0.0000
# 4 0.0000 0.0000 0.0000 19.6016 0.0000 0.0000
# 5 0.0000 0.0000 0.0000 0.0000 19.1898 0.0000
# 6 0.0000 0.0000 0.0000 0.0000 0.0000 17.5021
#
#
#
# Elastic Compliance Matrix: (Units=1/GPa)
#
#
# Indices 1 2 3 4 5 6 
#
# 1 0.092233 0.020780 -0.043912 0.000000 0.000000 0.000000
# 2 0.020780 0.020836 -0.018170 0.000000 0.000000 0.000000
# 3 -0.043912 -0.018170 0.037405 0.000000 0.000000 0.000000
# 4 0.000000 0.000000 0.000000 0.051016 0.000000 0.000000
# 5 0.000000 0.000000 0.000000 0.000000 0.052111 0.000000
# 6 0.000000 0.000000 0.000000 0.000000 0.000000 0.057136
#
#
# Mechanical properties :
#
#
# Convention : Reuss Voigt Hill
#
# Bulk Modulus (GPa) = 14.73388 37.13216 25.93302
# Shear Modulus (GPa) = 12.02027 19.06835 15.54431
#
# Velocity S-wave (km/s) = 2.57635 3.24492 2.92977
# Velocity P-wave (km/s) = 4.12142 5.87738 5.07591
#
# Compressibility (1/GPa) = 0.06787080
#
# Stress axis : x y z
#
# Youngs Moduli (GPa) = 10.84213 47.99318 26.73449
#
# Poissons Ratio (x) = -0.99731 1.17395
# Poissons Ratio (y) = -0.22530 0.48577
# Poissons Ratio (z) = 0.47609 0.87205
#
# Static dielectric constant tensor:
#      x y z
#    x 3.142370 0.000000 0.000000 
#    y 0.000000 3.297790 0.000000 
#    z 0.000000 0.000000 3.591090 
# 
# 
# High freq. dielectric constant tensor:
#      x y z
#    x 1.684980 0.000000 0.000000 
#    y 0.000000 1.696080 0.000000 
#    z 0.000000 0.000000 1.673120 
# 
# From -- ./inp_files/73871.got.cif
#   From: 2010.03.12/outbox.cif.g09.slc.cpg/sg65_37_cif.got.tgz:73871.got - 2010.04.10 20:52:16.
