data_PCOD8265141
_publ_section_title
;
Structure prediction by ZEFSAII (Michael W. Deem and Ramdas Pophale) SiO2 
 PCOD8265141
Probable space group: C M M M
;
_chemical_formula_sum "Si O2"
_cell_formula_units_Z 80
_cell_length_a 18.051285
_cell_length_b 8.583130
_cell_length_c 26.254802
_cell_angle_alpha 90.000000
_cell_angle_beta 90.000000
_cell_angle_gamma 90.000000
_cell_volume 4067.827808
_symmetry_space_group_name_H-M "C M M M"
_symmetry_group_IT_number 65
_symmetry_cell_setting 'orthorhombic'
loop_
_space_group_symop_operation_xyz
x,y,z
-x,-y,z
x,-y,-z
-x,y,-z
-x,-y,-z
x,y,-z
-x,y,z
x,-y,z
1/2+x,1/2+y,z
1/2-x,1/2-y,z
1/2+x,1/2-y,-z
1/2-x,1/2+y,-z
1/2-x,1/2-y,-z
1/2+x,1/2+y,-z
1/2-x,1/2+y,z
1/2+x,1/2-y,z
loop_
_atom_site_type_symbol
_atom_site_label
_atom_site_fract_x
_atom_site_fract_y
_atom_site_fract_z
Si Si1 0.831879 0.184897 0.794280
Si Si2 0.832698 0.684630 0.897769
Si Si3 0.832947 0.815512 0.000000
Si Si4 0.168506 0.184260 0.595836
Si Si5 0.916927 0.185179 0.694513
Si Si6 0.087533 0.678744 0.500000
O O1 0.750000 0.250000 0.785812
O O2 0.870220 0.253974 0.845641
O O3 0.881391 0.242873 0.747267
O O4 0.828241 0.000000 0.798572
O O5 0.833086 0.500000 0.899702
O O6 0.750000 0.750000 0.896658
O O7 0.873213 0.751918 0.948621
O O8 0.750000 0.750000 0.000000
O O9 0.832657 0.000000 0.000000
O O10 0.250000 0.250000 0.589279
O O11 0.132001 0.249697 0.647768
O O12 0.117903 0.236784 0.549542
O O13 0.172924 0.000000 0.596710
O O14 0.000000 0.253036 0.690209
O O15 0.918912 0.000000 0.692873
O O16 0.113576 0.500000 0.500000
O O17 0.000000 0.694993 0.500000
#
# Coordination Sequence:
#
# PCOD8265141 Si02
#       6
#    16  16   8  16  16   8
#     4  10  18  30  49  72 100 132 168 211 257 308
#     4  10  17  26  40  62  94 129 166 206 253 307
#     4  10  16  24  38  60  91 126 165 206 255 307
#     4  11  22  38  61  86 114 147 185 226 270 321
#     4   9  19  35  55  79 105 136 176 220 265 315
#     4  11  24  41  60  85 117 149 184 227 272 319
#
# _framework density 19.666515
#
# number of rings (size 3 to 8) (size 9 to 14) (size 15 to 20)
#    0.000    1.900    0.000    8.100    0.000    1.600 
#    0.000    3.000    0.000    7.200    0.000    0.700 
#    0.000    5.600    0.000    0.000    0.000    0.000 
#
# Total GULP energy -495917.052524 kJ/mol
# GULP energy per Si atom -12397.926313 kJ/mol
# Density = 1.962175 g / cm^3
# Si number density = 19.666515 Si / 1000 Ang^3
#
#
#
# Elastic Constant Matrix: (Units=GPa)
#
#
# Indices 1 2 3 4 5 6 
#
# 1 68.0230 21.7277 41.5188 0.0000 0.0000 0.0000
# 2 21.7277 116.8526 53.9278 0.0000 0.0000 0.0000
# 3 41.5188 53.9278 196.4072 0.0000 0.0000 0.0000
# 4 0.0000 0.0000 0.0000 0.8746 0.0000 0.0000
# 5 0.0000 0.0000 0.0000 0.0000 3.3895 0.0000
# 6 0.0000 0.0000 0.0000 0.0000 0.0000 13.6118
#
#
#
# Elastic Compliance Matrix: (Units=1/GPa)
#
#
# Indices 1 2 3 4 5 6 
#
# 1 0.017182 -0.001739 -0.003155 0.000000 0.000000 0.000000
# 2 -0.001739 0.009976 -0.002371 0.000000 0.000000 0.000000
# 3 -0.003155 -0.002371 0.006409 0.000000 0.000000 0.000000
# 4 0.000000 0.000000 0.000000 1.143406 0.000000 0.000000
# 5 0.000000 0.000000 0.000000 0.000000 0.295031 0.000000
# 6 0.000000 0.000000 0.000000 0.000000 0.000000 0.073465
#
#
# Mechanical properties :
#
#
# Convention : Reuss Voigt Hill
#
# Bulk Modulus (GPa) = 52.52961 68.40347 60.46654
# Shear Modulus (GPa) = 3.19215 21.18241 12.18728
#
# Velocity S-wave (km/s) = 1.27541 3.28545 2.49207
# Velocity P-wave (km/s) = 5.37932 7.01779 6.25246
#
# Compressibility (1/GPa) = 0.01903688
#
# Stress axis : x y z
#
# Youngs Moduli (GPa) = 58.20103 100.24519 156.01974
#
# Poissons Ratio (x) = 0.17432 0.49218
# Poissons Ratio (y) = 0.10121 0.36999
# Poissons Ratio (z) = 0.18360 0.23772
#
# Static dielectric constant tensor:
#      x y z
#    x 3.291610 0.000000 0.000000 
#    y 0.000000 3.510920 0.000000 
#    z 0.000000 0.000000 4.699070 
# 
# 
# High freq. dielectric constant tensor:
#      x y z
#    x 1.723870 0.000000 0.000000 
#    y 0.000000 1.763820 0.000000 
#    z 0.000000 0.000000 1.800470 
# 
# From -- ./inp_files/75063.got.cif
#   From: 2010.03.12/outbox.cif.g09.slc.cpg/sg65_38_cif.got.tgz:75063.got - 2010.04.10 20:52:16.
