data_PCOD8265154
_publ_section_title
;
Structure prediction by ZEFSAII (Michael W. Deem and Ramdas Pophale) SiO2 
 PCOD8265154
Probable space group: C M M M
;
_chemical_formula_sum "Si O2"
_cell_formula_units_Z 64
_cell_length_a 17.267924
_cell_length_b 35.959907
_cell_length_c 5.302073
_cell_angle_alpha 90.000000
_cell_angle_beta 90.000000
_cell_angle_gamma 90.000000
_cell_volume 3292.337823
_symmetry_space_group_name_H-M "C M M M"
_symmetry_group_IT_number 65
_symmetry_cell_setting 'orthorhombic'
loop_
_space_group_symop_operation_xyz
x,y,z
-x,-y,z
x,-y,-z
-x,y,-z
-x,-y,-z
x,y,-z
-x,y,z
x,-y,z
1/2+x,1/2+y,z
1/2-x,1/2-y,z
1/2+x,1/2-y,-z
1/2-x,1/2+y,-z
1/2-x,1/2-y,-z
1/2+x,1/2+y,-z
1/2-x,1/2+y,z
1/2+x,1/2-y,z
loop_
_atom_site_type_symbol
_atom_site_label
_atom_site_fract_x
_atom_site_fract_y
_atom_site_fract_z
Si Si1 0.205857 0.157240 0.500000
Si Si2 0.655685 0.078346 0.000000
Si Si3 0.694312 0.838669 0.000000
Si Si4 0.324442 0.456606 0.000000
Si Si5 0.908917 0.267235 0.000000
Si Si6 0.847034 0.543460 0.500000
Si Si7 0.591064 0.723036 0.500000
Si Si8 0.328020 0.571300 0.500000
O O1 0.254808 0.165197 0.250399
O O2 0.130973 0.183107 0.500000
O O3 0.175662 0.115357 0.500000
O O4 0.648097 0.122626 0.000000
O O5 0.745862 0.067343 0.000000
O O6 0.614812 0.061736 0.749752
O O7 0.630308 0.807066 0.000000
O O8 0.371930 0.443996 0.249772
O O9 0.305162 0.500000 0.000000
O O10 0.882616 0.245184 0.250194
O O11 0.000000 0.273959 0.000000
O O12 0.863825 0.500000 0.500000
O O13 0.755819 0.551618 0.500000
O O14 0.500000 0.715717 0.500000
#
# Coordination Sequence:
#
# PCOD8265154 Si02
#       8
#     8   8   8   8   8   8   8   8
#     4  12  21  34  55  80 111 138 165 222 272 307
#     4  10  16  27  38  66 100 132 159 208 252 298
#     4  12  21  34  55  80 111 138 165 222 272 307
#     4  10  16  25  41  61  99 143 167 195 251 307
#     4  10  23  42  59  77 104 139 178 216 257 317
#     4  10  16  25  41  61  99 143 167 195 251 307
#     4  10  23  42  59  77 104 139 178 216 257 317
#     4  10  16  27  38  66 100 132 159 208 252 298
#
# _framework density 19.439073
#
# number of rings (size 3 to 8) (size 9 to 14) (size 15 to 20)
#    0.000    1.500    5.000    5.250    0.000    3.000 
#    0.000    0.000    0.000    0.000    0.000    0.000 
#    0.000   11.000    0.000    0.000    0.000    0.000 
#
# Total GULP energy -396673.289087 kJ/mol
# GULP energy per Si atom -12396.040284 kJ/mol
# Density = 1.939483 g / cm^3
# Si number density = 19.439073 Si / 1000 Ang^3
#
#
#
# Elastic Constant Matrix: (Units=GPa)
#
#
# Indices 1 2 3 4 5 6 
#
# 1 14.3787 36.1505 21.2044 0.0000 0.0000 0.0000
# 2 36.1505 152.1784 63.3111 0.0000 0.0000 0.0000
# 3 21.2044 63.3111 224.9538 0.0000 0.0000 0.0000
# 4 0.0000 0.0000 0.0000 56.1002 0.0000 0.0000
# 5 0.0000 0.0000 0.0000 0.0000 3.8903 0.0000
# 6 0.0000 0.0000 0.0000 0.0000 0.0000 1.0829
#
#
#
# Elastic Compliance Matrix: (Units=1/GPa)
#
#
# Indices 1 2 3 4 5 6 
#
# 1 0.178581 -0.040116 -0.005543 0.000000 0.000000 0.000000
# 2 -0.040116 0.016454 -0.000850 0.000000 0.000000 0.000000
# 3 -0.005543 -0.000850 0.005207 0.000000 0.000000 0.000000
# 4 0.000000 0.000000 0.000000 0.017825 0.000000 0.000000
# 5 0.000000 0.000000 0.000000 0.000000 0.257050 0.000000
# 6 0.000000 0.000000 0.000000 0.000000 0.000000 0.923406
#
#
# Mechanical properties :
#
#
# Convention : Reuss Voigt Hill
#
# Bulk Modulus (GPa) = 9.32623 70.31589 39.82106
# Shear Modulus (GPa) = 3.27379 30.27102 16.77240
#
# Velocity S-wave (km/s) = 1.29915 3.95045 2.94056
# Velocity P-wave (km/s) = 2.65678 7.55374 5.66205
#
# Compressibility (1/GPa) = 0.10722449
#
# Stress axis : x y z
#
# Youngs Moduli (GPa) = 5.59971 60.77379 192.05197
#
# Poissons Ratio (x) = 2.43803 1.06452
# Poissons Ratio (y) = 0.22464 0.16315
# Poissons Ratio (z) = 0.03104 0.05163
#
# Static dielectric constant tensor:
#      x y z
#    x 2.810340 0.000000 0.000000 
#    y 0.000000 3.595780 0.000000 
#    z 0.000000 0.000000 6.820050 
# 
# 
# High freq. dielectric constant tensor:
#      x y z
#    x 1.672750 0.000000 0.000000 
#    y 0.000000 1.773360 0.000000 
#    z 0.000000 0.000000 1.802180 
# 
# From -- ./inp_files/1086.got.cif
#   From: 2010.03.12/outbox.cif.g09.slc.cpg/sg65_1_cif.got.tgz:1086.got - 2010.04.10 20:52:16.
