data_PCOD8265486
_publ_section_title
;
Structure prediction by ZEFSAII (Michael W. Deem and Ramdas Pophale) SiO2 
 PCOD8265486
Probable space group: C M M M
;
_chemical_formula_sum "Si O2"
_cell_formula_units_Z 88
_cell_length_a 17.990038
_cell_length_b 21.147156
_cell_length_c 13.902818
_cell_angle_alpha 90.000000
_cell_angle_beta 90.000000
_cell_angle_gamma 90.000000
_cell_volume 5289.162221
_symmetry_space_group_name_H-M "C M M M"
_symmetry_group_IT_number 65
_symmetry_cell_setting 'orthorhombic'
loop_
_space_group_symop_operation_xyz
x,y,z
-x,-y,z
x,-y,-z
-x,y,-z
-x,-y,-z
x,y,-z
-x,y,z
x,-y,z
1/2+x,1/2+y,z
1/2-x,1/2-y,z
1/2+x,1/2-y,-z
1/2-x,1/2+y,-z
1/2-x,1/2-y,-z
1/2+x,1/2+y,-z
1/2-x,1/2+y,z
1/2+x,1/2-y,z
loop_
_atom_site_type_symbol
_atom_site_label
_atom_site_fract_x
_atom_site_fract_y
_atom_site_fract_z
Si Si1 0.412685 0.000000 0.799917
Si Si2 0.916089 0.299795 0.288341
Si Si3 0.586789 0.872113 0.105725
Si Si4 0.620435 0.328787 0.385128
Si Si5 0.781867 0.365083 0.391620
Si Si6 0.167929 0.500000 0.393426
Si Si7 0.000000 0.070283 0.612843
O O1 0.378533 0.936812 0.849315
O O2 0.395564 0.000000 0.686570
O O3 0.500000 0.000000 0.811268
O O4 0.898493 0.311474 0.174937
O O5 0.911755 0.227490 0.320485
O O6 0.856583 0.341209 0.343661
O O7 0.000000 0.324670 0.310415
O O8 0.500000 0.883443 0.093616
O O9 0.622237 0.859217 0.000000
O O10 0.613537 0.314565 0.500000
O O11 0.705261 0.337270 0.349672
O O12 0.573729 0.391015 0.357015
O O13 0.787075 0.341384 0.500000
O O14 0.777504 0.440438 0.382474
O O15 0.130148 0.500000 0.500000
O O16 0.000000 0.061334 0.500000
O O17 0.000000 0.000000 0.661094
#
# Coordination Sequence:
#
# PCOD8265486 Si02
#       7
#     8  16  16  16  16   8   8
#     4  10  17  31  50  71  98 135 176 210 244 289
#     4  11  20  32  50  73 102 132 170 209 246 302
#     4   9  18  31  49  72  97 128 171 217 256 295
#     4  10  20  34  51  73 102 134 170 207 254 308
#     4  10  21  33  48  69 101 140 171 203 245 298
#     4  10  20  32  45  71 102 135 175 201 236 295
#     4   9  18  32  52  76  99 126 167 220 259 286
#
# _framework density 16.637796999999999
#
# number of rings (size 3 to 8) (size 9 to 14) (size 15 to 20)
#    0.000    2.091    2.727    1.364    1.273    3.818 
#    0.000    1.818    0.000    2.182    0.000    0.000 
#    0.000    1.455    0.000    0.000    0.000    0.182 
#
# Total GULP energy -545214.897388 kJ/mol
# GULP energy per Si atom -12391.247668 kJ/mol
# Density = 1.659993 g / cm^3
# Si number density = 16.637797 Si / 1000 Ang^3
#
#
#
# Elastic Constant Matrix: (Units=GPa)
#
#
# Indices 1 2 3 4 5 6 
#
# 1 96.1210 34.0929 34.3386 0.0000 0.0000 0.0000
# 2 34.0929 111.2540 53.7731 0.0000 0.0000 0.0000
# 3 34.3386 53.7731 92.5976 0.0000 0.0000 0.0000
# 4 0.0000 0.0000 0.0000 14.6229 0.0000 0.0000
# 5 0.0000 0.0000 0.0000 0.0000 7.1112 0.0000
# 6 0.0000 0.0000 0.0000 0.0000 0.0000 18.2075
#
#
#
# Elastic Compliance Matrix: (Units=1/GPa)
#
#
# Indices 1 2 3 4 5 6 
#
# 1 0.012363 -0.002186 -0.003315 0.000000 0.000000 0.000000
# 2 -0.002186 0.012882 -0.006670 0.000000 0.000000 0.000000
# 3 -0.003315 -0.006670 0.015902 0.000000 0.000000 0.000000
# 4 0.000000 0.000000 0.000000 0.068386 0.000000 0.000000
# 5 0.000000 0.000000 0.000000 0.000000 0.140623 0.000000
# 6 0.000000 0.000000 0.000000 0.000000 0.000000 0.054922
#
#
# Mechanical properties :
#
#
# Convention : Reuss Voigt Hill
#
# Bulk Modulus (GPa) = 59.50752 60.48688 59.99720
# Shear Modulus (GPa) = 14.92427 19.83952 17.38190
#
# Velocity S-wave (km/s) = 2.99826 3.45691 3.23572
# Velocity P-wave (km/s) = 6.91594 7.23655 7.07806
#
# Compressibility (1/GPa) = 0.01680460
#
# Stress axis : x y z
#
# Youngs Moduli (GPa) = 80.88442 77.62520 62.88383
#
# Poissons Ratio (x) = 0.16971 0.20847
# Poissons Ratio (y) = 0.17684 0.41945
# Poissons Ratio (z) = 0.26814 0.51778
#
# Static dielectric constant tensor:
#      x y z
#    x 3.038740 0.000000 0.000000 
#    y 0.000000 3.400330 0.000000 
#    z 0.000000 0.000000 3.171320 
# 
# 
# High freq. dielectric constant tensor:
#      x y z
#    x 1.622100 0.000000 0.000000 
#    y 0.000000 1.648040 0.000000 
#    z 0.000000 0.000000 1.612050 
# 
# From -- ./inp_files/42805.got.cif
#   From: 2010.03.12/outbox.cif.g09.slc.cpg/sg65_22_cif.got.tgz:42805.got - 2010.04.10 20:52:16.
