data_PCOD8265394
_publ_section_title
;
Structure prediction by ZEFSAII (Michael W. Deem and Ramdas Pophale) SiO2 
 PCOD8265394
Probable space group: C M M M
;
_chemical_formula_sum "Si O2"
_cell_formula_units_Z 128
_cell_length_a 24.074674
_cell_length_b 17.135048
_cell_length_c 18.608646
_cell_angle_alpha 90.000000
_cell_angle_beta 90.000000
_cell_angle_gamma 90.000000
_cell_volume 7676.451573
_symmetry_space_group_name_H-M "C M M M"
_symmetry_group_IT_number 65
_symmetry_cell_setting 'orthorhombic'
loop_
_space_group_symop_operation_xyz
x,y,z
-x,-y,z
x,-y,-z
-x,y,-z
-x,-y,-z
x,y,-z
-x,y,z
x,-y,z
1/2+x,1/2+y,z
1/2-x,1/2-y,z
1/2+x,1/2-y,-z
1/2-x,1/2+y,-z
1/2-x,1/2-y,-z
1/2+x,1/2+y,-z
1/2-x,1/2+y,z
1/2+x,1/2-y,z
loop_
_atom_site_type_symbol
_atom_site_label
_atom_site_fract_x
_atom_site_fract_y
_atom_site_fract_z
Si Si1 0.656936 0.828082 0.722562
Si Si2 0.156510 0.085933 0.629309
Si Si3 0.436529 0.783625 0.082577
Si Si4 0.437029 0.910745 0.200751
Si Si5 0.861701 0.815335 0.823925
Si Si6 0.560674 0.588554 0.270462
Si Si7 0.769012 0.088570 0.770737
Si Si8 0.813882 0.750681 0.420087
O O1 0.603025 0.881611 0.735431
O O2 0.653066 0.748291 0.764785
O O3 0.710643 0.872608 0.752212
O O4 0.656777 0.805607 0.637975
O O5 0.093037 0.094982 0.654331
O O6 0.194328 0.091014 0.699606
O O7 0.168090 0.158321 0.577401
O O8 0.165622 0.000000 0.592399
O O9 0.500000 0.752290 0.094983
O O10 0.426675 0.861781 0.128419
O O11 0.388080 0.721648 0.103828
O O12 0.427254 0.805566 0.000000
O O13 0.500000 0.900586 0.228561
O O14 0.423638 0.000000 0.181760
O O15 0.911366 0.867423 0.794993
O O16 0.804328 0.865439 0.833249
O O17 0.500000 0.624860 0.284026
O O18 0.557129 0.500000 0.244642
O O19 0.758968 0.000000 0.797065
O O20 0.824721 0.716390 0.500000
O O21 0.750000 0.750000 0.398991
#
# Coordination Sequence:
#
# PCOD8265394 Si02
#       8
#    16  16  16  16  16  16  16  16
#     4  11  18  32  50  74  99 124 160 213 255 297
#     4   9  17  30  45  66  94 125 161 200 241 290
#     4   9  18  31  49  77 109 136 162 198 245 294
#     4   9  19  34  54  78  99 128 167 206 249 294
#     4  10  17  28  49  71  98 128 165 203 245 289
#     4   9  16  26  44  69  94 123 161 203 241 279
#     4  10  18  29  49  71  93 126 166 206 251 292
#     4  11  20  32  48  70 102 133 161 201 254 308
#
# _framework density 16.674371000000001
#
# number of rings (size 3 to 8) (size 9 to 14) (size 15 to 20)
#    0.000    2.250    3.750    2.250    0.000    1.000 
#    0.000    1.250    0.000   10.500    0.000    7.000 
#    0.000    0.000    0.000    0.000    0.000    0.000 
#
# Total GULP energy -793053.815281 kJ/mol
# GULP energy per Si atom -12391.465864 kJ/mol
# Density = 1.663642 g / cm^3
# Si number density = 16.674371 Si / 1000 Ang^3
#
#
#
# Elastic Constant Matrix: (Units=GPa)
#
#
# Indices 1 2 3 4 5 6 
#
# 1 105.6929 51.7177 40.3926 0.0000 0.0000 0.0000
# 2 51.7177 92.9470 36.1744 0.0000 0.0000 0.0000
# 3 40.3926 36.1744 83.3778 0.0000 0.0000 0.0000
# 4 0.0000 0.0000 0.0000 16.0473 0.0000 0.0000
# 5 0.0000 0.0000 0.0000 0.0000 29.2926 0.0000
# 6 0.0000 0.0000 0.0000 0.0000 0.0000 35.2981
#
#
#
# Elastic Compliance Matrix: (Units=1/GPa)
#
#
# Indices 1 2 3 4 5 6 
#
# 1 0.014086 -0.006235 -0.004119 0.000000 0.000000 0.000000
# 2 -0.006235 0.015704 -0.003793 0.000000 0.000000 0.000000
# 3 -0.004119 -0.003793 0.015635 0.000000 0.000000 0.000000
# 4 0.000000 0.000000 0.000000 0.062316 0.000000 0.000000
# 5 0.000000 0.000000 0.000000 0.000000 0.034138 0.000000
# 6 0.000000 0.000000 0.000000 0.000000 0.000000 0.028330
#
#
# Mechanical properties :
#
#
# Convention : Reuss Voigt Hill
#
# Bulk Modulus (GPa) = 58.37208 59.84303 59.10755
# Shear Modulus (GPa) = 24.48410 26.37646 25.43028
#
# Velocity S-wave (km/s) = 3.83608 3.98157 3.90950
# Velocity P-wave (km/s) = 7.39620 7.55674 7.47690
#
# Compressibility (1/GPa) = 0.01713148
#
# Stress axis : x y z
#
# Youngs Moduli (GPa) = 70.99031 63.67716 63.96009
#
# Poissons Ratio (x) = 0.39702 0.26346
# Poissons Ratio (y) = 0.44261 0.24260
# Poissons Ratio (z) = 0.29242 0.24153
#
# Static dielectric constant tensor:
#      x y z
#    x 3.505750 0.000000 0.000000 
#    y 0.000000 3.132650 0.000000 
#    z 0.000000 0.000000 2.787870 
# 
# 
# High freq. dielectric constant tensor:
#      x y z
#    x 1.649450 0.000000 0.000000 
#    y 0.000000 1.652230 0.000000 
#    z 0.000000 0.000000 1.598900 
# 
# From -- ./inp_files/56989.got.cif
#   From: 2010.03.12/outbox.cif.g09.slc.cpg/sg65_29_cif.got.tgz:56989.got - 2010.04.10 20:52:16.
