data_PCOD8265222
_publ_section_title
;
Structure prediction by ZEFSAII (Michael W. Deem and Ramdas Pophale) SiO2 
 PCOD8265222
Probable space group: C M M M
;
_chemical_formula_sum "Si O2"
_cell_formula_units_Z 120
_cell_length_a 28.842873
_cell_length_b 20.091938
_cell_length_c 13.513809
_cell_angle_alpha 90.000000
_cell_angle_beta 90.000000
_cell_angle_gamma 90.000000
_cell_volume 7831.376860
_symmetry_space_group_name_H-M "C M M M"
_symmetry_group_IT_number 65
_symmetry_cell_setting 'orthorhombic'
loop_
_space_group_symop_operation_xyz
x,y,z
-x,-y,z
x,-y,-z
-x,y,-z
-x,-y,-z
x,y,-z
-x,y,z
x,-y,z
1/2+x,1/2+y,z
1/2-x,1/2-y,z
1/2+x,1/2-y,-z
1/2-x,1/2+y,-z
1/2-x,1/2-y,-z
1/2+x,1/2+y,-z
1/2-x,1/2+y,z
1/2+x,1/2-y,z
loop_
_atom_site_type_symbol
_atom_site_label
_atom_site_fract_x
_atom_site_fract_y
_atom_site_fract_z
Si Si1 0.263210 0.822931 0.766547
Si Si2 0.948345 0.142131 0.199718
Si Si3 0.054935 0.075555 0.000000
Si Si4 0.677447 0.648864 0.111085
Si Si5 0.649766 0.203144 0.112153
Si Si6 0.549820 0.218451 0.886989
Si Si7 0.132813 0.076075 0.282719
Si Si8 0.224058 0.922850 0.386549
O O1 0.250000 0.750000 0.723277
O O2 0.230584 0.836050 0.860659
O O3 0.315783 0.828415 0.807232
O O4 0.257293 0.876911 0.679871
O O5 0.926206 0.110845 0.099147
O O6 0.950719 0.221008 0.189858
O O7 0.913985 0.120765 0.289393
O O8 0.000000 0.113693 0.221024
O O9 0.000000 0.082343 0.000000
O O10 0.072057 0.000000 0.000000
O O11 0.647940 0.716738 0.124684
O O12 0.658767 0.590378 0.179852
O O13 0.675575 0.622026 0.000000
O O14 0.596905 0.176000 0.132637
O O15 0.665382 0.184925 0.000000
O O16 0.500000 0.179489 0.872573
O O17 0.551945 0.245728 0.000000
O O18 0.169515 0.094117 0.369161
O O19 0.117171 0.000000 0.288113
O O20 0.236165 0.908375 0.500000
O O21 0.233135 0.000000 0.358626
#
# Coordination Sequence:
#
# PCOD8265222 Si02
#       8
#    16  16   8  16  16  16  16  16
#     4   9  17  28  45  67  87 107 139 177 212 251
#     4  10  17  25  34  48  74 109 147 184 215 242
#     4   9  16  22  28  42  68 103 140 178 215 242
#     4   9  16  25  35  53  82 113 141 169 204 248
#     4   9  15  24  39  58  84 116 143 169 201 240
#     4   9  15  23  35  52  79 117 154 177 198 235
#     4  10  19  27  38  56  76 105 145 183 219 255
#     4   9  19  36  52  63  81 108 135 172 225 275
#
# _framework density 15.322976000000001
#
# number of rings (size 3 to 8) (size 9 to 14) (size 15 to 20)
#    0.000    2.733    2.000    0.800    0.933    2.933 
#    0.000    0.000    0.000    1.600    0.000    1.867 
#    0.000    1.067    0.000    4.800    0.000    0.000 
#
# Total GULP energy -743457.372376 kJ/mol
# GULP energy per Si atom -12390.956206 kJ/mol
# Density = 1.528810 g / cm^3
# Si number density = 15.322976 Si / 1000 Ang^3
#
#
#
# Elastic Constant Matrix: (Units=GPa)
#
#
# Indices 1 2 3 4 5 6 
#
# 1 115.4479 20.7459 30.7371 0.0000 0.0000 0.0000
# 2 20.7459 27.7824 21.1037 0.0000 0.0000 0.0000
# 3 30.7371 21.1037 56.0618 0.0000 0.0000 0.0000
# 4 0.0000 0.0000 0.0000 15.8691 0.0000 0.0000
# 5 0.0000 0.0000 0.0000 0.0000 15.7461 0.0000
# 6 0.0000 0.0000 0.0000 0.0000 0.0000 17.7345
#
#
#
# Elastic Compliance Matrix: (Units=1/GPa)
#
#
# Indices 1 2 3 4 5 6 
#
# 1 0.010599 -0.004902 -0.003966 0.000000 0.000000 0.000000
# 2 -0.004902 0.052675 -0.017141 0.000000 0.000000 0.000000
# 3 -0.003966 -0.017141 0.026464 0.000000 0.000000 0.000000
# 4 0.000000 0.000000 0.000000 0.063016 0.000000 0.000000
# 5 0.000000 0.000000 0.000000 0.000000 0.063508 0.000000
# 6 0.000000 0.000000 0.000000 0.000000 0.000000 0.056387
#
#
# Mechanical properties :
#
#
# Convention : Reuss Voigt Hill
#
# Bulk Modulus (GPa) = 26.51093 38.27395 32.39244
# Shear Modulus (GPa) = 14.82625 18.31695 16.57160
#
# Velocity S-wave (km/s) = 3.11397 3.46119 3.29216
# Velocity P-wave (km/s) = 5.50165 6.40356 5.96966
#
# Compressibility (1/GPa) = 0.03772028
#
# Stress axis : x y z
#
# Youngs Moduli (GPa) = 94.35194 18.98437 37.78681
#
# Poissons Ratio (x) = 0.09306 0.14985
# Poissons Ratio (y) = 0.46251 0.64771
# Poissons Ratio (z) = 0.37417 0.32541
#
# Static dielectric constant tensor:
#      x y z
#    x 3.193470 0.000000 0.000000 
#    y 0.000000 2.569070 0.000000 
#    z 0.000000 0.000000 2.677610 
# 
# 
# High freq. dielectric constant tensor:
#      x y z
#    x 1.600120 0.000000 0.000000 
#    y 0.000000 1.540540 0.000000 
#    z 0.000000 0.000000 1.548190 
# 
# From -- ./inp_files/34351.got.cif
#   From: 2010.03.12/outbox.cif.g09.slc.cpg/sg65_18_cif.got.tgz:34351.got - 2010.04.10 20:52:16.
