data_PCOD8265856
_publ_section_title
;
Structure prediction by ZEFSAII (Michael W. Deem and Ramdas Pophale) SiO2 
 PCOD8265856
Probable space group: C M M M
;
_chemical_formula_sum "Si O2"
_cell_formula_units_Z 88
_cell_length_a 19.448175
_cell_length_b 8.665942
_cell_length_c 28.591384
_cell_angle_alpha 90.000000
_cell_angle_beta 90.000000
_cell_angle_gamma 90.000000
_cell_volume 4818.699125
_symmetry_space_group_name_H-M "C M M M"
_symmetry_group_IT_number 65
_symmetry_cell_setting 'orthorhombic'
loop_
_space_group_symop_operation_xyz
x,y,z
-x,-y,z
x,-y,-z
-x,y,-z
-x,-y,-z
x,y,-z
-x,y,z
x,-y,z
1/2+x,1/2+y,z
1/2-x,1/2-y,z
1/2+x,1/2-y,-z
1/2-x,1/2+y,-z
1/2-x,1/2-y,-z
1/2+x,1/2+y,-z
1/2-x,1/2+y,z
1/2+x,1/2-y,z
loop_
_atom_site_type_symbol
_atom_site_label
_atom_site_fract_x
_atom_site_fract_y
_atom_site_fract_z
Si Si1 0.174705 0.180554 0.449388
Si Si2 0.173887 0.317119 0.000000
Si Si3 0.580389 0.178253 0.829611
Si Si4 0.674960 0.319328 0.094287
Si Si5 0.575910 0.182945 0.275563
Si Si6 0.674062 0.817318 0.356280
O O1 0.137561 0.210570 0.500000
O O2 0.250000 0.250000 0.452589
O O3 0.137953 0.262534 0.405146
O O4 0.179865 0.000000 0.438988
O O5 0.250000 0.250000 0.000000
O O6 0.139459 0.254279 0.047716
O O7 0.172671 0.500000 0.000000
O O8 0.500000 0.205441 0.839301
O O9 0.624793 0.286585 0.862801
O O10 0.599195 0.228669 0.776707
O O11 0.599801 0.000000 0.838406
O O12 0.683456 0.500000 0.086684
O O13 0.750000 0.250000 0.104607
O O14 0.500000 0.251049 0.286023
O O15 0.629196 0.249757 0.313451
O O16 0.572346 0.000000 0.279158
O O17 0.750000 0.750000 0.351410
O O18 0.677442 0.000000 0.355141
#
# Coordination Sequence:
#
# PCOD8265856 Si02
#       6
#    16   8  16  16  16  16
#     4   9  16  26  41  62  90 122 154 189 232 282
#     4  10  18  32  53  76 103 134 169 203 245 297
#     4   9  18  35  56  75  99 132 168 205 249 299
#     4  11  21  34  53  78 107 135 168 207 247 291
#     4   8  16  32  52  71  93 126 164 198 236 285
#     4  10  18  28  46  71  97 122 153 196 240 281
#
# _framework density 18.26219
#
# number of rings (size 3 to 8) (size 9 to 14) (size 15 to 20)
#    0.000    2.545    0.000    6.818    0.000    2.182 
#    0.000    4.091    0.000    7.636    0.000    3.818 
#    0.000    0.000    0.000    0.000    0.000    0.000 
#
# Total GULP energy -545271.546592 kJ/mol
# GULP energy per Si atom -12392.535150 kJ/mol
# Density = 1.822062 g / cm^3
# Si number density = 18.262190 Si / 1000 Ang^3
#
#
#
# Elastic Constant Matrix: (Units=GPa)
#
#
# Indices 1 2 3 4 5 6 
#
# 1 55.2425 28.1276 64.6119 0.0000 0.0000 0.0000
# 2 28.1276 101.5976 51.0824 0.0000 0.0000 0.0000
# 3 64.6119 51.0824 176.5604 0.0000 0.0000 0.0000
# 4 0.0000 0.0000 0.0000 29.0253 0.0000 0.0000
# 5 0.0000 0.0000 0.0000 0.0000 4.9619 0.0000
# 6 0.0000 0.0000 0.0000 0.0000 0.0000 18.2957
#
#
#
# Elastic Compliance Matrix: (Units=1/GPa)
#
#
# Indices 1 2 3 4 5 6 
#
# 1 0.032709 -0.003554 -0.010941 0.000000 0.000000 0.000000
# 2 -0.003554 0.011905 -0.002144 0.000000 0.000000 0.000000
# 3 -0.010941 -0.002144 0.010288 0.000000 0.000000 0.000000
# 4 0.000000 0.000000 0.000000 0.034453 0.000000 0.000000
# 5 0.000000 0.000000 0.000000 0.000000 0.201536 0.000000
# 6 0.000000 0.000000 0.000000 0.000000 0.000000 0.054658
#
#
# Mechanical properties :
#
#
# Convention : Reuss Voigt Hill
#
# Bulk Modulus (GPa) = 46.24742 69.00494 57.62618
# Shear Modulus (GPa) = 12.95225 23.09515 18.02370
#
# Velocity S-wave (km/s) = 2.66604 3.56004 3.14497
# Velocity P-wave (km/s) = 5.90391 7.40042 6.69412
#
# Compressibility (1/GPa) = 0.02162283
#
# Stress axis : x y z
#
# Youngs Moduli (GPa) = 30.57279 84.00169 97.20136
#
# Poissons Ratio (x) = 0.29857 1.06352
# Poissons Ratio (y) = 0.10867 0.20835
# Poissons Ratio (z) = 0.33451 0.18006
#
# Static dielectric constant tensor:
#      x y z
#    x 3.142950 0.000000 0.000000 
#    y 0.000000 3.245190 0.000000 
#    z 0.000000 0.000000 4.271300 
# 
# 
# High freq. dielectric constant tensor:
#      x y z
#    x 1.661780 0.000000 0.000000 
#    y 0.000000 1.701830 0.000000 
#    z 0.000000 0.000000 1.733590 
# 
# From -- ./inp_files/77830.got.cif
#   From: 2010.03.12/outbox.cif.g09.slc.cpg/sg65_39_cif.got.tgz:77830.got - 2010.04.10 20:52:16.
