data_PCOD8265522
_publ_section_title
;
Structure prediction by ZEFSAII (Michael W. Deem and Ramdas Pophale) SiO2 
 PCOD8265522
Probable space group: C M M M
;
_chemical_formula_sum "Si O2"
_cell_formula_units_Z 80
_cell_length_a 8.965675
_cell_length_b 29.471252
_cell_length_c 15.917532
_cell_angle_alpha 90.000000
_cell_angle_beta 90.000000
_cell_angle_gamma 90.000000
_cell_volume 4205.884184
_symmetry_space_group_name_H-M "C M M M"
_symmetry_group_IT_number 65
_symmetry_cell_setting 'orthorhombic'
loop_
_space_group_symop_operation_xyz
x,y,z
-x,-y,z
x,-y,-z
-x,y,-z
-x,-y,-z
x,y,-z
-x,y,z
x,-y,z
1/2+x,1/2+y,z
1/2-x,1/2-y,z
1/2+x,1/2-y,-z
1/2-x,1/2+y,-z
1/2-x,1/2-y,-z
1/2+x,1/2+y,-z
1/2-x,1/2+y,z
1/2+x,1/2-y,z
loop_
_atom_site_type_symbol
_atom_site_label
_atom_site_fract_x
_atom_site_fract_y
_atom_site_fract_z
Si Si1 0.825978 0.177112 0.000000
Si Si2 0.671833 0.703256 0.401824
Si Si3 0.323298 0.081681 0.000000
Si Si4 0.322988 0.050651 0.819463
Si Si5 0.333305 0.866892 0.287641
Si Si6 0.833536 0.710269 0.156565
O O1 0.781782 0.206159 0.080248
O O2 0.722136 0.133384 0.000000
O O3 0.000000 0.164376 0.000000
O O4 0.696885 0.695272 0.500000
O O5 0.500000 0.708541 0.377615
O O6 0.750000 0.750000 0.372929
O O7 0.734426 0.657828 0.357781
O O8 0.259424 0.058999 0.085962
O O9 0.500000 0.077241 0.000000
O O10 0.500000 0.056853 0.822540
O O11 0.262360 0.085834 0.747969
O O12 0.276313 0.000000 0.791383
O O13 0.500000 0.874444 0.324798
O O14 0.342533 0.835977 0.206132
O O15 0.750000 0.750000 0.210967
O O16 0.000000 0.724295 0.127877
#
# Coordination Sequence:
#
# PCOD8265522 Si02
#       6
#     8  16   8  16  16  16
#     4  12  23  34  49  70  99 141 182 221 265 312
#     4  10  21  37  58  84 113 144 177 214 260 318
#     4  10  17  33  55  77 104 139 183 231 275 318
#     4   9  17  31  55  84 109 138 180 228 275 318
#     4  10  20  34  55  82 110 139 174 220 268 318
#     4  11  22  36  51  72 102 138 178 219 265 317
#
# _framework density 19.020970999999999
#
# number of rings (size 3 to 8) (size 9 to 14) (size 15 to 20)
#    0.000    1.800    2.000    3.300    0.000    5.600 
#    0.000    0.000    0.000    3.600    0.000    4.200 
#    0.000    0.000    0.000    0.000    0.000    0.000 
#
# Total GULP energy -495708.531240 kJ/mol
# GULP energy per Si atom -12392.713281 kJ/mol
# Density = 1.897768 g / cm^3
# Si number density = 19.020971 Si / 1000 Ang^3
#
#
#
# Elastic Constant Matrix: (Units=GPa)
#
#
# Indices 1 2 3 4 5 6 
#
# 1 63.2329 29.7355 40.1987 0.0000 0.0000 0.0000
# 2 29.7355 145.9070 45.1209 0.0000 0.0000 0.0000
# 3 40.1987 45.1209 78.2527 0.0000 0.0000 0.0000
# 4 0.0000 0.0000 0.0000 16.4226 0.0000 0.0000
# 5 0.0000 0.0000 0.0000 0.0000 23.1629 0.0000
# 6 0.0000 0.0000 0.0000 0.0000 0.0000 20.6841
#
#
#
# Elastic Compliance Matrix: (Units=1/GPa)
#
#
# Indices 1 2 3 4 5 6 
#
# 1 0.023683 -0.001295 -0.011419 0.000000 0.000000 0.000000
# 2 -0.001295 0.008412 -0.004185 0.000000 0.000000 0.000000
# 3 -0.011419 -0.004185 0.021058 0.000000 0.000000 0.000000
# 4 0.000000 0.000000 0.000000 0.060892 0.000000 0.000000
# 5 0.000000 0.000000 0.000000 0.000000 0.043173 0.000000
# 6 0.000000 0.000000 0.000000 0.000000 0.000000 0.048346
#
#
# Mechanical properties :
#
#
# Convention : Reuss Voigt Hill
#
# Bulk Modulus (GPa) = 51.66788 57.50029 54.58409
# Shear Modulus (GPa) = 20.34059 23.54310 21.94185
#
# Velocity S-wave (km/s) = 3.27368 3.52198 3.40010
# Velocity P-wave (km/s) = 6.44297 6.84359 6.64630
#
# Compressibility (1/GPa) = 0.01935438
#
# Stress axis : x y z
#
# Youngs Moduli (GPa) = 42.22410 118.88049 47.48721
#
# Poissons Ratio (x) = 0.15398 0.54227
# Poissons Ratio (y) = 0.05469 0.19873
# Poissons Ratio (z) = 0.48217 0.49751
#
# Static dielectric constant tensor:
#      x y z
#    x 3.331560 0.000000 0.000000 
#    y 0.000000 3.581120 0.000000 
#    z 0.000000 0.000000 3.393190 
# 
# 
# High freq. dielectric constant tensor:
#      x y z
#    x 1.717000 0.000000 0.000000 
#    y 0.000000 1.742650 0.000000 
#    z 0.000000 0.000000 1.723330 
# 
# From -- ./inp_files/49940.got.cif
#   From: 2010.03.12/outbox.cif.g09.slc.cpg/sg65_25_cif.got.tgz:49940.got - 2010.04.10 20:52:16.
