data_PCOD8265294
_publ_section_title
;
Structure prediction by ZEFSAII (Michael W. Deem and Ramdas Pophale) SiO2 
 PCOD8265294
Probable space group: C M M M
;
_chemical_formula_sum "Si O2"
_cell_formula_units_Z 72
_cell_length_a 9.676870
_cell_length_b 36.484696
_cell_length_c 14.094291
_cell_angle_alpha 90.000000
_cell_angle_beta 90.000000
_cell_angle_gamma 90.000000
_cell_volume 4976.097402
_symmetry_space_group_name_H-M "C M M M"
_symmetry_group_IT_number 65
_symmetry_cell_setting 'orthorhombic'
loop_
_space_group_symop_operation_xyz
x,y,z
-x,-y,z
x,-y,-z
-x,y,-z
-x,-y,-z
x,y,-z
-x,y,z
x,-y,z
1/2+x,1/2+y,z
1/2-x,1/2-y,z
1/2+x,1/2-y,-z
1/2-x,1/2+y,-z
1/2-x,1/2-y,-z
1/2+x,1/2+y,-z
1/2-x,1/2+y,z
1/2+x,1/2-y,z
loop_
_atom_site_type_symbol
_atom_site_label
_atom_site_fract_x
_atom_site_fract_y
_atom_site_fract_z
Si Si1 0.336376 0.000000 0.106049
Si Si2 0.164290 0.637644 0.105406
Si Si3 0.153629 0.281804 0.112994
Si Si4 0.835862 0.430572 0.772658
Si Si5 0.341538 0.457532 0.608507
O O1 0.285807 0.963978 0.161151
O O2 0.500000 0.000000 0.098884
O O3 0.272628 0.000000 0.000000
O O4 0.212060 0.677942 0.141573
O O5 0.215768 0.606816 0.178091
O O6 0.000000 0.637202 0.098805
O O7 0.224306 0.629484 0.000000
O O8 0.250000 0.250000 0.156514
O O9 0.000000 0.275945 0.154527
O O10 0.149069 0.279357 0.000000
O O11 0.759877 0.433020 0.671958
O O12 0.000000 0.431300 0.756026
O O13 0.318341 0.445618 0.500000
O O14 0.500000 0.450738 0.638465
O O15 0.302636 0.500000 0.621767
#
# Coordination Sequence:
#
# PCOD8265294 Si02
#       5
#     8  16  16  16  16
#     4   9  16  24  36  57  82 106 133 163 192 223
#     4   8  14  24  38  57  83 112 136 160 196 238
#     4   8  13  22  36  53  74 103 136 165 192 225
#     4  10  17  26  42  63  81 101 134 172 200 226
#     4   9  18  32  46  57  74 103 133 163 207 254
#
# _framework density 14.469170999999999
#
# number of rings (size 3 to 8) (size 9 to 14) (size 15 to 20)
#    0.000    3.222    1.111    2.667    0.000    3.111 
#    0.000    2.222    0.000    4.667    0.000    0.000 
#    0.000    0.889    0.000    2.000    0.000    3.556 
#
# Total GULP energy -446200.456411 kJ/mol
# GULP energy per Si atom -12394.457123 kJ/mol
# Density = 1.443624 g / cm^3
# Si number density = 14.469171 Si / 1000 Ang^3
#
#
#
# Elastic Constant Matrix: (Units=GPa)
#
#
# Indices 1 2 3 4 5 6 
#
# 1 41.4657 39.6908 32.9893 0.0000 0.0000 0.0000
# 2 39.6908 124.7888 48.2442 0.0000 0.0000 0.0000
# 3 32.9893 48.2442 73.4330 0.0000 0.0000 0.0000
# 4 0.0000 0.0000 0.0000 8.8614 0.0000 0.0000
# 5 0.0000 0.0000 0.0000 0.0000 15.0729 0.0000
# 6 0.0000 0.0000 0.0000 0.0000 0.0000 19.7058
#
#
#
# Elastic Compliance Matrix: (Units=1/GPa)
#
#
# Indices 1 2 3 4 5 6 
#
# 1 0.043181 -0.008357 -0.013908 0.000000 0.000000 0.000000
# 2 -0.008357 0.012359 -0.004365 0.000000 0.000000 0.000000
# 3 -0.013908 -0.004365 0.022734 0.000000 0.000000 0.000000
# 4 0.000000 0.000000 0.000000 0.112849 0.000000 0.000000
# 5 0.000000 0.000000 0.000000 0.000000 0.066344 0.000000
# 6 0.000000 0.000000 0.000000 0.000000 0.000000 0.050746
#
#
# Mechanical properties :
#
#
# Convention : Reuss Voigt Hill
#
# Bulk Modulus (GPa) = 39.97989 53.50401 46.74195
# Shear Modulus (GPa) = 13.52031 16.64556 15.08293
#
# Velocity S-wave (km/s) = 3.06015 3.39546 3.23215
# Velocity P-wave (km/s) = 6.33854 7.24088 6.80468
#
# Compressibility (1/GPa) = 0.02501257
#
# Stress axis : x y z
#
# Youngs Moduli (GPa) = 23.15830 80.90998 43.98693
#
# Poissons Ratio (x) = 0.67619 0.61178
# Poissons Ratio (y) = 0.19354 0.19202
# Poissons Ratio (z) = 0.32209 0.35321
#
# Static dielectric constant tensor:
#      x y z
#    x 2.612290 0.000000 0.000000 
#    y 0.000000 3.044990 0.000000 
#    z 0.000000 0.000000 2.634020 
# 
# 
# High freq. dielectric constant tensor:
#      x y z
#    x 1.525100 0.000000 0.000000 
#    y 0.000000 1.550690 0.000000 
#    z 0.000000 0.000000 1.520450 
# 
# From -- ./inp_files/22697.got.cif
#   From: 2010.03.12/outbox.cif.g09.slc.cpg/sg65_12_cif.got.tgz:22697.got - 2010.04.10 20:52:16.
