data_PCOD8265892
_publ_section_title
;
Structure prediction by ZEFSAII (Michael W. Deem and Ramdas Pophale) SiO2 
 PCOD8265892
Probable space group: C M M M
;
_chemical_formula_sum "Si O2"
_cell_formula_units_Z 96
_cell_length_a 13.940998
_cell_length_b 22.588764
_cell_length_c 15.123632
_cell_angle_alpha 90.000000
_cell_angle_beta 90.000000
_cell_angle_gamma 90.000000
_cell_volume 4762.581649
_symmetry_space_group_name_H-M "C M M M"
_symmetry_group_IT_number 65
_symmetry_cell_setting 'orthorhombic'
loop_
_space_group_symop_operation_xyz
x,y,z
-x,-y,z
x,-y,-z
-x,y,-z
-x,-y,-z
x,y,-z
-x,y,z
x,-y,z
1/2+x,1/2+y,z
1/2-x,1/2-y,z
1/2+x,1/2-y,-z
1/2-x,1/2+y,-z
1/2-x,1/2-y,-z
1/2+x,1/2+y,-z
1/2-x,1/2+y,z
1/2+x,1/2-y,z
loop_
_atom_site_type_symbol
_atom_site_label
_atom_site_fract_x
_atom_site_fract_y
_atom_site_fract_z
Si Si1 0.390425 0.431895 0.226920
Si Si2 0.307657 0.616386 0.397518
Si Si3 0.282892 0.344611 0.098416
Si Si4 0.607016 0.263456 0.351028
Si Si5 0.611889 0.232224 0.150940
Si Si6 0.101709 0.366315 0.401301
O O1 0.500000 0.415733 0.203239
O O2 0.368811 0.500000 0.206729
O O3 0.375819 0.419741 0.331696
O O4 0.319571 0.392965 0.167956
O O5 0.323464 0.596805 0.500000
O O6 0.323294 0.686902 0.390138
O O7 0.198120 0.603907 0.363006
O O8 0.354643 0.288655 0.094552
O O9 0.174877 0.324967 0.124538
O O10 0.281290 0.372482 0.000000
O O11 0.500000 0.290299 0.353806
O O12 0.635888 0.247728 0.251518
O O13 0.614598 0.204295 0.407860
O O14 0.500000 0.217977 0.134203
O O15 0.091617 0.390285 0.500000
O O16 0.000000 0.381458 0.350254
#
# Coordination Sequence:
#
# PCOD8265892 Si02
#       6
#    16  16  16  16  16  16
#     4  11  25  44  63  83 112 152 198 249 301 354
#     4  11  21  34  56  82 112 152 197 245 293 342
#     4  11  23  38  61  91 121 154 195 242 291 347
#     4  10  18  28  47  77 116 158 191 225 277 341
#     4  10  20  35  58  90 128 160 186 227 288 355
#     4   9  18  30  46  75 113 152 193 232 276 339
#
# _framework density 20.157135
#
# number of rings (size 3 to 8) (size 9 to 14) (size 15 to 20)
#    0.000    1.667    1.667    4.000    2.333    6.333 
#    0.000    1.667    0.000    2.000    0.000    3.500 
#    0.000    0.000    0.000    0.000    0.000    0.000 
#
# Total GULP energy -594847.736239 kJ/mol
# GULP energy per Si atom -12392.661172 kJ/mol
# Density = 2.011126 g / cm^3
# Si number density = 20.157135 Si / 1000 Ang^3
#
#
#
# Elastic Constant Matrix: (Units=GPa)
#
#
# Indices 1 2 3 4 5 6 
#
# 1 133.0367 41.8137 42.2682 0.0000 0.0000 0.0000
# 2 41.8137 65.7383 24.9649 0.0000 0.0000 0.0000
# 3 42.2682 24.9649 105.1150 0.0000 0.0000 0.0000
# 4 0.0000 0.0000 0.0000 6.4866 0.0000 0.0000
# 5 0.0000 0.0000 0.0000 0.0000 21.1523 0.0000
# 6 0.0000 0.0000 0.0000 0.0000 0.0000 23.8784
#
#
#
# Elastic Compliance Matrix: (Units=1/GPa)
#
#
# Indices 1 2 3 4 5 6 
#
# 1 0.010085 -0.005358 -0.002783 0.000000 0.000000 0.000000
# 2 -0.005358 0.019566 -0.002493 0.000000 0.000000 0.000000
# 3 -0.002783 -0.002493 0.011224 0.000000 0.000000 0.000000
# 4 0.000000 0.000000 0.000000 0.154165 0.000000 0.000000
# 5 0.000000 0.000000 0.000000 0.000000 0.047276 0.000000
# 6 0.000000 0.000000 0.000000 0.000000 0.000000 0.041879
#
#
# Mechanical properties :
#
#
# Convention : Reuss Voigt Hill
#
# Bulk Modulus (GPa) = 50.99634 57.99815 54.49725
# Shear Modulus (GPa) = 16.02573 23.29300 19.65936
#
# Velocity S-wave (km/s) = 2.82270 3.40306 3.12638
# Velocity P-wave (km/s) = 5.99816 6.65406 6.33460
#
# Compressibility (1/GPa) = 0.01960925
#
# Stress axis : x y z
#
# Youngs Moduli (GPa) = 99.15890 51.10826 89.09185
#
# Poissons Ratio (x) = 0.27383 0.24792
# Poissons Ratio (y) = 0.53127 0.22207
# Poissons Ratio (z) = 0.27594 0.12739
#
# Static dielectric constant tensor:
#      x y z
#    x 4.095700 0.000000 0.000000 
#    y 0.000000 3.192060 0.000000 
#    z 0.000000 0.000000 3.594580 
# 
# 
# High freq. dielectric constant tensor:
#      x y z
#    x 1.809380 0.000000 0.000000 
#    y 0.000000 1.732750 0.000000 
#    z 0.000000 0.000000 1.780100 
# 
# From -- ./inp_files/40362.got.cif
#   From: 2010.03.12/outbox.cif.g09.slc.cpg/sg65_21_cif.got.tgz:40362.got - 2010.04.10 20:52:16.
