data_PCOD8265440
_publ_section_title
;
Structure prediction by ZEFSAII (Michael W. Deem and Ramdas Pophale) SiO2 
 PCOD8265440
Probable space group: C M M M
;
_chemical_formula_sum "Si O2"
_cell_formula_units_Z 112
_cell_length_a 15.359407
_cell_length_b 18.991768
_cell_length_c 18.492010
_cell_angle_alpha 90.000000
_cell_angle_beta 90.000000
_cell_angle_gamma 90.000000
_cell_volume 5394.161744
_symmetry_space_group_name_H-M "C M M M"
_symmetry_group_IT_number 65
_symmetry_cell_setting 'orthorhombic'
loop_
_space_group_symop_operation_xyz
x,y,z
-x,-y,z
x,-y,-z
-x,y,-z
-x,-y,-z
x,y,-z
-x,y,z
x,-y,z
1/2+x,1/2+y,z
1/2-x,1/2-y,z
1/2+x,1/2-y,-z
1/2-x,1/2+y,-z
1/2-x,1/2-y,-z
1/2+x,1/2+y,-z
1/2-x,1/2+y,z
1/2+x,1/2-y,z
loop_
_atom_site_type_symbol
_atom_site_label
_atom_site_fract_x
_atom_site_fract_y
_atom_site_fract_z
Si Si1 0.402682 0.647397 0.141837
Si Si2 0.266318 0.081247 0.916542
Si Si3 0.396806 0.200210 0.676471
Si Si4 0.162508 0.710057 0.163468
Si Si5 0.603059 0.422390 0.289997
Si Si6 0.896422 0.422509 0.420628
Si Si7 0.603421 0.668697 0.581140
O O1 0.500000 0.618079 0.125438
O O2 0.333589 0.607906 0.090810
O O3 0.407384 0.732940 0.132673
O O4 0.372037 0.629978 0.224400
O O5 0.334514 0.132879 0.874341
O O6 0.275002 0.000000 0.888860
O O7 0.292341 0.085045 0.000000
O O8 0.500000 0.202582 0.690539
O O9 0.347889 0.201431 0.751676
O O10 0.361355 0.129212 0.640206
O O11 0.366892 0.260538 0.621364
O O12 0.250000 0.750000 0.144629
O O13 0.500000 0.426188 0.294627
O O14 0.642612 0.500000 0.275809
O O15 0.638109 0.394392 0.367473
O O16 0.861573 0.400587 0.500000
O O17 0.863176 0.500000 0.400220
O O18 0.000000 0.419451 0.422263
O O19 0.643641 0.663288 0.500000
O O20 0.500000 0.667293 0.574810
#
# Coordination Sequence:
#
# PCOD8265440 Si02
#       7
#    16  16  16  16  16  16  16
#     4  10  19  35  60  90 117 144 183 237 287 327
#     4  10  23  42  61  84 115 150 185 223 273 339
#     4  10  17  29  50  75 103 135 180 234 276 319
#     4  10  21  35  56  81 111 147 184 221 272 335
#     4   9  16  26  43  71 107 142 177 223 278 328
#     4   8  14  24  40  67 100 129 164 220 283 327
#     4   9  16  25  41  68 102 141 182 226 279 330
#
# _framework density 20.763189000000001
#
# number of rings (size 3 to 8) (size 9 to 14) (size 15 to 20)
#    0.000    2.571    1.429    1.714    0.000    6.286 
#    0.000    2.143    0.000    4.286    0.000    4.000 
#    0.000    0.000    0.000    0.000    0.000    0.000 
#
# Total GULP energy -693828.432146 kJ/mol
# GULP energy per Si atom -12389.793431 kJ/mol
# Density = 2.071593 g / cm^3
# Si number density = 20.763189 Si / 1000 Ang^3
#
#
#
# Elastic Constant Matrix: (Units=GPa)
#
#
# Indices 1 2 3 4 5 6 
#
# 1 19.8588 15.5714 9.2838 0.0000 0.0000 0.0000
# 2 15.5714 155.1055 51.1816 0.0000 0.0000 0.0000
# 3 9.2838 51.1816 85.6528 0.0000 0.0000 0.0000
# 4 0.0000 0.0000 0.0000 37.7179 0.0000 0.0000
# 5 0.0000 0.0000 0.0000 0.0000 24.7763 0.0000
# 6 0.0000 0.0000 0.0000 0.0000 0.0000 15.1533
#
#
#
# Elastic Compliance Matrix: (Units=1/GPa)
#
#
# Indices 1 2 3 4 5 6 
#
# 1 0.055415 -0.004461 -0.003341 0.000000 0.000000 0.000000
# 2 -0.004461 0.008390 -0.004530 0.000000 0.000000 0.000000
# 3 -0.003341 -0.004530 0.014744 0.000000 0.000000 0.000000
# 4 0.000000 0.000000 0.000000 0.026513 0.000000 0.000000
# 5 0.000000 0.000000 0.000000 0.000000 0.040361 0.000000
# 6 0.000000 0.000000 0.000000 0.000000 0.000000 0.065992
#
#
# Mechanical properties :
#
#
# Convention : Reuss Voigt Hill
#
# Bulk Modulus (GPa) = 18.55777 45.85454 32.20615
# Shear Modulus (GPa) = 19.68197 27.83485 23.75841
#
# Velocity S-wave (km/s) = 3.08218 3.66537 3.38636
# Velocity P-wave (km/s) = 4.65013 6.32817 5.55290
#
# Compressibility (1/GPa) = 0.05388579
#
# Stress axis : x y z
#
# Youngs Moduli (GPa) = 18.04566 119.19228 67.82456
#
# Poissons Ratio (x) = 0.53170 0.22659
# Poissons Ratio (y) = 0.08050 0.30723
# Poissons Ratio (z) = 0.06029 0.53992
#
# Static dielectric constant tensor:
#      x y z
#    x 3.399600 0.000000 0.000000 
#    y 0.000000 4.291280 0.000000 
#    z 0.000000 0.000000 3.758910 
# 
# 
# High freq. dielectric constant tensor:
#      x y z
#    x 1.766780 0.000000 0.000000 
#    y 0.000000 1.823160 0.000000 
#    z 0.000000 0.000000 1.805880 
# 
# From -- ./inp_files/54864.got.cif
#   From: 2010.03.12/outbox.cif.g09.slc.cpg/sg65_28_cif.got.tgz:54864.got - 2010.04.10 20:52:16.
