data_PCOD8265399
_publ_section_title
;
Structure prediction by ZEFSAII (Michael W. Deem and Ramdas Pophale) SiO2 
 PCOD8265399
Probable space group: C M M M
;
_chemical_formula_sum "Si O2"
_cell_formula_units_Z 104
_cell_length_a 28.198913
_cell_length_b 9.776414
_cell_length_c 22.570517
_cell_angle_alpha 90.000000
_cell_angle_beta 90.000000
_cell_angle_gamma 90.000000
_cell_volume 6222.336002
_symmetry_space_group_name_H-M "C M M M"
_symmetry_group_IT_number 65
_symmetry_cell_setting 'orthorhombic'
loop_
_space_group_symop_operation_xyz
x,y,z
-x,-y,z
x,-y,-z
-x,y,-z
-x,-y,-z
x,y,-z
-x,y,z
x,-y,z
1/2+x,1/2+y,z
1/2-x,1/2-y,z
1/2+x,1/2-y,-z
1/2-x,1/2+y,-z
1/2-x,1/2-y,-z
1/2+x,1/2+y,-z
1/2-x,1/2+y,z
1/2+x,1/2-y,z
loop_
_atom_site_type_symbol
_atom_site_label
_atom_site_fract_x
_atom_site_fract_y
_atom_site_fract_z
Si Si1 0.883093 0.336744 0.390159
Si Si2 0.947716 0.661644 0.282405
Si Si3 0.203466 0.838573 0.430736
Si Si4 0.447413 0.160685 0.500000
Si Si5 0.554529 0.840423 0.149774
Si Si6 0.804559 0.000000 0.929876
Si Si7 0.800712 0.500000 0.070194
Si Si8 0.364476 0.753592 0.929982
O O1 0.870327 0.500000 0.392850
O O2 0.908070 0.292394 0.328986
O O3 0.837385 0.240082 0.394742
O O4 0.918964 0.293968 0.442026
O O5 0.952554 0.500000 0.283551
O O6 0.932546 0.707857 0.216406
O O7 0.000000 0.722408 0.298306
O O8 0.191553 0.829915 0.500000
O O9 0.250000 0.750000 0.416132
O O10 0.208565 0.000000 0.411971
O O11 0.500000 0.228467 0.500000
O O12 0.453679 0.000000 0.500000
O O13 0.500000 0.807778 0.135872
O O14 0.585382 0.755601 0.103057
O O15 0.565187 0.000000 0.141044
O O16 0.751935 0.000000 0.901308
O O17 0.834994 0.874272 0.907833
O O18 0.798813 0.000000 0.000000
O O19 0.830486 0.627290 0.092481
O O20 0.795762 0.500000 0.000000
O O21 0.374564 0.756763 0.000000
#
# Coordination Sequence:
#
# PCOD8265399 Si02
#       8
#    16  16  16   8  16   8   8  16
#     4  10  17  28  49  75  98 123 159 199 243 282
#     4   8  15  28  48  73  97 125 161 197 233 282
#     4  10  20  33  50  72 100 131 165 200 239 290
#     4   9  16  24  40  71 104 123 146 193 240 279
#     4   9  17  30  48  71  97 127 164 201 237 283
#     4   9  18  30  45  67  99 129 152 191 245 298
#     4   9  16  28  47  71  95 121 156 193 235 290
#     4  10  18  29  47  73  98 123 159 200 246 291
#
# _framework density 16.713981
#
# number of rings (size 3 to 8) (size 9 to 14) (size 15 to 20)
#    0.000    2.692    1.538    2.308    0.000    4.615 
#    0.000    1.154    1.692    5.538    0.000    0.000 
#    0.000    0.000    0.000    0.000    0.000    0.000 
#
# Total GULP energy -644408.934313 kJ/mol
# GULP energy per Si atom -12392.479506 kJ/mol
# Density = 1.667594 g / cm^3
# Si number density = 16.713981 Si / 1000 Ang^3
#
#
#
# Elastic Constant Matrix: (Units=GPa)
#
#
# Indices 1 2 3 4 5 6 
#
# 1 140.5985 56.4607 64.2311 0.0000 0.0000 0.0000
# 2 56.4607 90.5015 29.6451 0.0000 0.0000 0.0000
# 3 64.2311 29.6451 75.2265 0.0000 0.0000 0.0000
# 4 0.0000 0.0000 0.0000 11.8658 0.0000 0.0000
# 5 0.0000 0.0000 0.0000 0.0000 24.9196 0.0000
# 6 0.0000 0.0000 0.0000 0.0000 0.0000 6.8683
#
#
#
# Elastic Compliance Matrix: (Units=1/GPa)
#
#
# Indices 1 2 3 4 5 6 
#
# 1 0.013615 -0.005381 -0.009505 0.000000 0.000000 0.000000
# 2 -0.005381 0.014814 -0.001243 0.000000 0.000000 0.000000
# 3 -0.009505 -0.001243 0.021899 0.000000 0.000000 0.000000
# 4 0.000000 0.000000 0.000000 0.084276 0.000000 0.000000
# 5 0.000000 0.000000 0.000000 0.000000 0.040129 0.000000
# 6 0.000000 0.000000 0.000000 0.000000 0.000000 0.145595
#
#
# Mechanical properties :
#
#
# Convention : Reuss Voigt Hill
#
# Bulk Modulus (GPa) = 55.34119 67.44448 61.39284
# Shear Modulus (GPa) = 13.94273 19.13006 16.53640
#
# Velocity S-wave (km/s) = 2.89138 3.38680 3.14885
# Velocity P-wave (km/s) = 6.65803 7.46549 7.07329
#
# Compressibility (1/GPa) = 0.01806972
#
# Stress axis : x y z
#
# Youngs Moduli (GPa) = 73.44596 67.50502 45.66448
#
# Poissons Ratio (x) = 0.36323 0.43404
# Poissons Ratio (y) = 0.39519 0.05678
# Poissons Ratio (z) = 0.69810 0.08394
#
# Static dielectric constant tensor:
#      x y z
#    x 3.345050 0.000000 0.000000 
#    y 0.000000 3.005870 0.000000 
#    z 0.000000 0.000000 3.075250 
# 
# 
# High freq. dielectric constant tensor:
#      x y z
#    x 1.655360 0.000000 0.000000 
#    y 0.000000 1.617620 0.000000 
#    z 0.000000 0.000000 1.617280 
# 
# From -- ./inp_files/71872.got.cif
#   From: 2010.03.12/outbox.cif.g09.slc.cpg/sg65_36_cif.got.tgz:71872.got - 2010.04.10 20:52:16.
