data_PCOD8265790
_publ_section_title
;
Structure prediction by ZEFSAII (Michael W. Deem and Ramdas Pophale) SiO2 
 PCOD8265790
Probable space group: C M M M
;
_chemical_formula_sum "Si O2"
_cell_formula_units_Z 120
_cell_length_a 24.980088
_cell_length_b 9.190516
_cell_length_c 28.113088
_cell_angle_alpha 90.000000
_cell_angle_beta 90.000000
_cell_angle_gamma 90.000000
_cell_volume 6454.199888
_symmetry_space_group_name_H-M "C M M M"
_symmetry_group_IT_number 65
_symmetry_cell_setting 'orthorhombic'
loop_
_space_group_symop_operation_xyz
x,y,z
-x,-y,z
x,-y,-z
-x,y,-z
-x,-y,-z
x,y,-z
-x,y,z
x,-y,z
1/2+x,1/2+y,z
1/2-x,1/2-y,z
1/2+x,1/2-y,-z
1/2-x,1/2+y,-z
1/2-x,1/2-y,-z
1/2+x,1/2+y,-z
1/2-x,1/2+y,z
1/2+x,1/2-y,z
loop_
_atom_site_type_symbol
_atom_site_label
_atom_site_fract_x
_atom_site_fract_y
_atom_site_fract_z
Si Si1 0.206513 0.658549 0.295499
Si Si2 0.307634 0.171808 0.869567
Si Si3 0.939765 0.833028 0.707261
Si Si4 0.650222 0.327395 0.219622
Si Si5 0.113729 0.341222 0.368523
Si Si6 0.000000 0.834539 0.056564
Si Si7 0.195304 0.670418 0.554634
Si Si8 0.895548 0.667901 0.945609
O O1 0.227534 0.500000 0.279137
O O2 0.250000 0.750000 0.326453
O O3 0.199133 0.765187 0.250371
O O4 0.154634 0.636542 0.326033
O O5 0.250000 0.250000 0.872359
O O6 0.346401 0.243592 0.830158
O O7 0.340126 0.199141 0.918199
O O8 0.299276 0.000000 0.859449
O O9 0.903544 0.780715 0.751584
O O10 0.931350 0.759408 0.655115
O O11 0.000000 0.802788 0.723641
O O12 0.927303 0.000000 0.697312
O O13 0.654427 0.500000 0.211741
O O14 0.089673 0.500000 0.382447
O O15 0.144907 0.272208 0.413974
O O16 0.054141 0.757995 0.075824
O O17 0.000000 0.000000 0.074943
O O18 0.000000 0.823705 0.000000
O O19 0.180625 0.701609 0.500000
O O20 0.203983 0.500000 0.565130
O O21 0.250000 0.750000 0.569020
O O22 0.912009 0.500000 0.941275
O O23 0.884480 0.713255 0.000000
#
# Coordination Sequence:
#
# PCOD8265790 Si02
#       8
#    16  16  16  16  16   8  16  16
#     4  10  18  28  44  67  95 124 160 201 243 292
#     4  11  23  38  56  79 110 144 182 220 262 316
#     4   9  19  36  56  76  98 126 164 211 262 313
#     4  10  20  35  53  72  99 132 166 203 255 312
#     4   9  18  30  46  70  97 127 164 205 250 299
#     4   9  17  31  55  85 111 135 171 221 267 307
#     4   9  17  29  45  68 101 137 171 208 250 299
#     4   9  19  37  59  81 109 146 183 221 268 319
#
# _framework density 18.592544
#
# number of rings (size 3 to 8) (size 9 to 14) (size 15 to 20)
#    0.000    2.467    0.000    2.200    0.000    4.000 
#    1.200    0.000    0.000    0.400    0.000    2.800 
#    0.000    0.000    0.000    0.000    0.000    0.000 
#
# Total GULP energy -743443.625083 kJ/mol
# GULP energy per Si atom -12390.727085 kJ/mol
# Density = 1.855023 g / cm^3
# Si number density = 18.592544 Si / 1000 Ang^3
#
#
#
# Elastic Constant Matrix: (Units=GPa)
#
#
# Indices 1 2 3 4 5 6 
#
# 1 99.4587 49.6340 42.1157 0.0000 0.0000 0.0000
# 2 49.6340 95.3161 39.4821 0.0000 0.0000 0.0000
# 3 42.1157 39.4821 89.3235 0.0000 0.0000 0.0000
# 4 0.0000 0.0000 0.0000 24.0789 0.0000 0.0000
# 5 0.0000 0.0000 0.0000 0.0000 22.2670 0.0000
# 6 0.0000 0.0000 0.0000 0.0000 0.0000 25.7088
#
#
#
# Elastic Compliance Matrix: (Units=1/GPa)
#
#
# Indices 1 2 3 4 5 6 
#
# 1 0.014871 -0.005924 -0.004393 0.000000 0.000000 0.000000
# 2 -0.005924 0.015203 -0.003927 0.000000 0.000000 0.000000
# 3 -0.004393 -0.003927 0.015002 0.000000 0.000000 0.000000
# 4 0.000000 0.000000 0.000000 0.041530 0.000000 0.000000
# 5 0.000000 0.000000 0.000000 0.000000 0.044910 0.000000
# 6 0.000000 0.000000 0.000000 0.000000 0.000000 0.038897
#
#
# Mechanical properties :
#
#
# Convention : Reuss Voigt Hill
#
# Bulk Modulus (GPa) = 60.28324 60.72911 60.50617
# Shear Modulus (GPa) = 24.45826 24.60205 24.53015
#
# Velocity S-wave (km/s) = 3.63090 3.64156 3.63623
# Velocity P-wave (km/s) = 7.07613 7.10037 7.08826
#
# Compressibility (1/GPa) = 0.01658836
#
# Stress axis : x y z
#
# Youngs Moduli (GPa) = 67.24472 65.77760 66.65679
#
# Poissons Ratio (x) = 0.38967 0.29283
# Poissons Ratio (y) = 0.39836 0.26174
# Poissons Ratio (z) = 0.29542 0.25828
#
# Static dielectric constant tensor:
#      x y z
#    x 3.365740 0.000000 0.000000 
#    y 0.000000 3.821670 0.000000 
#    z 0.000000 0.000000 3.415430 
# 
# 
# High freq. dielectric constant tensor:
#      x y z
#    x 1.710320 0.000000 0.000000 
#    y 0.000000 1.727730 0.000000 
#    z 0.000000 0.000000 1.706690 
# 
# From -- ./inp_files/76157.got.cif
#   From: 2010.03.12/outbox.cif.g09.slc.cpg/sg65_39_cif.got.tgz:76157.got - 2010.04.10 20:52:16.
