data_PCOD8265454
_publ_section_title
;
Structure prediction by ZEFSAII (Michael W. Deem and Ramdas Pophale) SiO2 
 PCOD8265454
Probable space group: C M M M
;
_chemical_formula_sum "Si O2"
_cell_formula_units_Z 80
_cell_length_a 26.643156
_cell_length_b 23.206529
_cell_length_c 8.904472
_cell_angle_alpha 90.000000
_cell_angle_beta 90.000000
_cell_angle_gamma 90.000000
_cell_volume 5505.592050
_symmetry_space_group_name_H-M "C M M M"
_symmetry_group_IT_number 65
_symmetry_cell_setting 'orthorhombic'
loop_
_space_group_symop_operation_xyz
x,y,z
-x,-y,z
x,-y,-z
-x,y,-z
-x,-y,-z
x,y,-z
-x,y,z
x,-y,z
1/2+x,1/2+y,z
1/2-x,1/2-y,z
1/2+x,1/2-y,-z
1/2-x,1/2+y,-z
1/2-x,1/2-y,-z
1/2+x,1/2+y,-z
1/2-x,1/2+y,z
1/2+x,1/2-y,z
loop_
_atom_site_type_symbol
_atom_site_label
_atom_site_fract_x
_atom_site_fract_y
_atom_site_fract_z
Si Si1 0.741806 0.884968 0.175265
Si Si2 0.713562 0.000000 0.678004
Si Si3 0.104731 0.500000 0.178619
Si Si4 0.701347 0.289620 0.331055
Si Si5 0.944280 0.382237 0.821566
Si Si6 0.646466 0.193497 0.175208
O O1 0.743749 0.944226 0.266220
O O2 0.788332 0.846121 0.231517
O O3 0.689230 0.853512 0.209589
O O4 0.748354 0.897572 0.000000
O O5 0.658594 0.000000 0.746863
O O6 0.710395 0.000000 0.500000
O O7 0.074047 0.444520 0.235063
O O8 0.112855 0.500000 0.000000
O O9 0.687740 0.308288 0.500000
O O10 0.750000 0.250000 0.327223
O O11 0.655345 0.253207 0.262442
O O12 0.906198 0.332650 0.766255
O O13 0.000000 0.369681 0.757424
O O14 0.944936 0.383164 0.000000
O O15 0.645426 0.208165 0.000000
#
# Coordination Sequence:
#
# PCOD8265454 Si02
#       6
#    16   8   8  16  16  16
#     4  10  18  30  45  61  80 106 140 175 209 251
#     4  12  22  29  41  61  86 114 141 175 216 255
#     4  10  17  30  44  58  78 110 150 187 223 253
#     4   9  17  28  42  61  82 104 131 167 212 259
#     4   9  16  26  43  64  82 105 145 191 224 250
#     4   9  16  27  43  61  80 105 139 177 215 253
#
# _framework density 14.530681
#
# number of rings (size 3 to 8) (size 9 to 14) (size 15 to 20)
#    0.000    2.400    2.000    2.400    0.000    4.400 
#    0.000    0.000    0.000    3.000    0.000    0.000 
#    0.000    0.000    0.000    0.900    0.000   18.600 
#
# Total GULP energy -495958.682239 kJ/mol
# GULP energy per Si atom -12398.967056 kJ/mol
# Density = 1.449761 g / cm^3
# Si number density = 14.530681 Si / 1000 Ang^3
#
#
#
# Elastic Constant Matrix: (Units=GPa)
#
#
# Indices 1 2 3 4 5 6 
#
# 1 75.3194 58.2110 21.2039 0.0000 0.0000 0.0000
# 2 58.2110 86.0477 31.3379 0.0000 0.0000 0.0000
# 3 21.2039 31.3379 53.8918 0.0000 0.0000 0.0000
# 4 0.0000 0.0000 0.0000 20.6152 0.0000 0.0000
# 5 0.0000 0.0000 0.0000 0.0000 8.5229 0.0000
# 6 0.0000 0.0000 0.0000 0.0000 0.0000 18.4566
#
#
#
# Elastic Compliance Matrix: (Units=1/GPa)
#
#
# Indices 1 2 3 4 5 6 
#
# 1 0.027824 -0.018822 -0.000003 0.000000 0.000000 0.000000
# 2 -0.018822 0.027476 -0.008572 0.000000 0.000000 0.000000
# 3 -0.000003 -0.008572 0.023541 0.000000 0.000000 0.000000
# 4 0.000000 0.000000 0.000000 0.048508 0.000000 0.000000
# 5 0.000000 0.000000 0.000000 0.000000 0.117332 0.000000
# 6 0.000000 0.000000 0.000000 0.000000 0.000000 0.054181
#
#
# Mechanical properties :
#
#
# Convention : Reuss Voigt Hill
#
# Bulk Modulus (GPa) = 41.58198 48.52941 45.05569
# Shear Modulus (GPa) = 13.82470 16.48600 15.15535
#
# Velocity S-wave (km/s) = 3.08785 3.37198 3.23304
# Velocity P-wave (km/s) = 6.43365 6.97358 6.70905
#
# Compressibility (1/GPa) = 0.02404888
#
# Stress axis : x y z
#
# Youngs Moduli (GPa) = 35.93985 36.39495 42.47878
#
# Poissons Ratio (x) = 0.68503 0.00011
# Poissons Ratio (y) = 0.67646 0.36412
# Poissons Ratio (z) = 0.00009 0.31197
#
# Static dielectric constant tensor:
#      x y z
#    x 2.757670 0.000000 0.000000 
#    y 0.000000 2.923990 0.000000 
#    z 0.000000 0.000000 2.759770 
# 
# 
# High freq. dielectric constant tensor:
#      x y z
#    x 1.517310 0.000000 0.000000 
#    y 0.000000 1.546500 0.000000 
#    z 0.000000 0.000000 1.548930 
# 
# From -- ./inp_files/12091.got.cif
#   From: 2010.03.12/outbox.cif.g09.slc.cpg/sg65_7_cif.got.tgz:12091.got - 2010.04.10 20:52:16.
