data_PCOD8265607
_publ_section_title
;
Structure prediction by ZEFSAII (Michael W. Deem and Ramdas Pophale) SiO2 
 PCOD8265607
Probable space group: C M M M
;
_chemical_formula_sum "Si O2"
_cell_formula_units_Z 88
_cell_length_a 30.342583
_cell_length_b 27.196599
_cell_length_c 7.946448
_cell_angle_alpha 90.000000
_cell_angle_beta 90.000000
_cell_angle_gamma 90.000000
_cell_volume 6557.528583
_symmetry_space_group_name_H-M "C M M M"
_symmetry_group_IT_number 65
_symmetry_cell_setting 'orthorhombic'
loop_
_space_group_symop_operation_xyz
x,y,z
-x,-y,z
x,-y,-z
-x,y,-z
-x,-y,-z
x,y,-z
-x,y,z
x,-y,z
1/2+x,1/2+y,z
1/2-x,1/2-y,z
1/2+x,1/2-y,-z
1/2-x,1/2+y,-z
1/2-x,1/2-y,-z
1/2+x,1/2+y,-z
1/2-x,1/2+y,z
1/2+x,1/2-y,z
loop_
_atom_site_type_symbol
_atom_site_label
_atom_site_fract_x
_atom_site_fract_y
_atom_site_fract_z
Si Si1 0.366986 0.753493 0.316124
Si Si2 0.681010 0.724651 0.000000
Si Si3 0.549249 0.197482 0.192472
Si Si4 0.449781 0.000000 0.801290
Si Si5 0.818295 0.356766 0.687182
Si Si6 0.730889 0.171888 0.000000
Si Si7 0.408978 0.101248 0.306987
O O1 0.361195 0.727977 0.500000
O O2 0.349100 0.718423 0.167160
O O3 0.418381 0.766614 0.293943
O O4 0.339469 0.803219 0.312310
O O5 0.704100 0.777488 0.000000
O O6 0.716967 0.681441 0.000000
O O7 0.500000 0.203156 0.266304
O O8 0.563605 0.140405 0.198966
O O9 0.550871 0.214107 0.000000
O O10 0.424866 0.046899 0.730447
O O11 0.500000 0.000000 0.736202
O O12 0.447817 0.000000 0.000000
O O13 0.798368 0.367640 0.500000
O O14 0.780899 0.359218 0.831563
O O15 0.856722 0.395674 0.733389
O O16 0.417120 0.115369 0.500000
#
# Coordination Sequence:
#
# PCOD8265607 Si02
#       7
#    16   8  16   8  16   8  16
#     4   9  16  26  38  51  72  94 111 138 169 202
#     4   9  16  26  35  56  72  86 111 128 164 210
#     4  10  18  27  40  55  70  91 121 151 175 210
#     4  11  23  33  41  55  71  91 119 149 185 227
#     4   8  16  27  39  56  69  85 113 136 165 210
#     4   9  16  24  42  53  69  92 102 131 167 203
#     4  10  20  31  42  54  70  90 113 147 184 220
#
# _framework density 13.419689999999999
#
# number of rings (size 3 to 8) (size 9 to 14) (size 15 to 20)
#    0.000    2.636    0.909    3.000    5.091    5.091 
#    0.000    3.636    0.000    0.000    0.000    0.000 
#    0.000    0.000    0.000    0.000    0.000    0.000 
#
# Total GULP energy -545380.985105 kJ/mol
# GULP energy per Si atom -12395.022389 kJ/mol
# Density = 1.338915 g / cm^3
# Si number density = 13.419690 Si / 1000 Ang^3
#
#
#
# Elastic Constant Matrix: (Units=GPa)
#
#
# Indices 1 2 3 4 5 6 
#
# 1 84.2113 32.0578 51.7571 0.0000 0.0000 0.0000
# 2 32.0578 22.7841 21.9795 0.0000 0.0000 0.0000
# 3 51.7571 21.9795 98.5575 0.0000 0.0000 0.0000
# 4 0.0000 0.0000 0.0000 10.5170 0.0000 0.0000
# 5 0.0000 0.0000 0.0000 0.0000 12.7978 0.0000
# 6 0.0000 0.0000 0.0000 0.0000 0.0000 19.1496
#
#
#
# Elastic Compliance Matrix: (Units=1/GPa)
#
#
# Indices 1 2 3 4 5 6 
#
# 1 0.029855 -0.034251 -0.008040 0.000000 0.000000 0.000000
# 2 -0.034251 0.095214 -0.003247 0.000000 0.000000 0.000000
# 3 -0.008040 -0.003247 0.015093 0.000000 0.000000 0.000000
# 4 0.000000 0.000000 0.000000 0.095084 0.000000 0.000000
# 5 0.000000 0.000000 0.000000 0.000000 0.078138 0.000000
# 6 0.000000 0.000000 0.000000 0.000000 0.000000 0.052220
#
#
# Mechanical properties :
#
#
# Convention : Reuss Voigt Hill
#
# Bulk Modulus (GPa) = 20.37229 46.34905 33.36067
# Shear Modulus (GPa) = 10.56987 15.14345 12.85666
#
# Velocity S-wave (km/s) = 2.80953 3.36289 3.09859
# Velocity P-wave (km/s) = 5.07331 7.04924 6.14126
#
# Compressibility (1/GPa) = 0.04908629
#
# Stress axis : x y z
#
# Youngs Moduli (GPa) = 33.49532 10.50261 66.25729
#
# Poissons Ratio (x) = 0.35972 0.53270
# Poissons Ratio (y) = 1.14724 0.21516
# Poissons Ratio (z) = 0.26930 0.03411
#
# Static dielectric constant tensor:
#      x y z
#    x 2.715820 0.000000 0.000000 
#    y 0.000000 2.165560 0.000000 
#    z 0.000000 0.000000 3.011770 
# 
# 
# High freq. dielectric constant tensor:
#      x y z
#    x 1.497010 0.000000 0.000000 
#    y 0.000000 1.434410 0.000000 
#    z 0.000000 0.000000 1.535930 
# 
# From -- ./inp_files/17177.got.cif
#   From: 2010.03.12/outbox.cif.g09.slc.cpg/sg65_9_cif.got.tgz:17177.got - 2010.04.10 20:52:16.
