data_PCOD8265705
_publ_section_title
;
Structure prediction by ZEFSAII (Michael W. Deem and Ramdas Pophale) SiO2 
 PCOD8265705
Probable space group: C M M M
;
_chemical_formula_sum "Si O2"
_cell_formula_units_Z 104
_cell_length_a 17.047113
_cell_length_b 29.538200
_cell_length_c 12.508808
_cell_angle_alpha 90.000000
_cell_angle_beta 90.000000
_cell_angle_gamma 90.000000
_cell_volume 6298.698105
_symmetry_space_group_name_H-M "C M M M"
_symmetry_group_IT_number 65
_symmetry_cell_setting 'orthorhombic'
loop_
_space_group_symop_operation_xyz
x,y,z
-x,-y,z
x,-y,-z
-x,y,-z
-x,-y,-z
x,y,-z
-x,y,z
x,-y,z
1/2+x,1/2+y,z
1/2-x,1/2-y,z
1/2+x,1/2-y,-z
1/2-x,1/2+y,-z
1/2-x,1/2-y,-z
1/2+x,1/2+y,-z
1/2-x,1/2+y,z
1/2+x,1/2-y,z
loop_
_atom_site_type_symbol
_atom_site_label
_atom_site_fract_x
_atom_site_fract_y
_atom_site_fract_z
Si Si1 0.413103 0.948486 0.281956
Si Si2 0.319044 0.601885 0.817191
Si Si3 0.092603 0.813637 0.875901
Si Si4 0.911080 0.053312 0.000000
Si Si5 0.646799 0.879239 0.120736
Si Si6 0.587017 0.214420 0.126853
Si Si7 0.750200 0.947416 0.620445
O O1 0.500000 0.942458 0.334933
O O2 0.407506 0.914632 0.182541
O O3 0.342792 0.937052 0.364048
O O4 0.403303 0.000000 0.240137
O O5 0.361445 0.650256 0.803280
O O6 0.236586 0.606733 0.875811
O O7 0.305759 0.580765 0.699946
O O8 0.371232 0.569817 0.891120
O O9 0.120785 0.763535 0.837570
O O10 0.000000 0.818360 0.858467
O O11 0.114219 0.823070 0.000000
O O12 0.000000 0.071668 0.000000
O O13 0.907473 0.000000 0.000000
O O14 0.638869 0.827930 0.167570
O O15 0.615748 0.879982 0.000000
O O16 0.500000 0.207583 0.174154
O O17 0.582929 0.216302 0.000000
O O18 0.772152 0.933259 0.500000
O O19 0.767329 0.000000 0.640865
#
# Coordination Sequence:
#
# PCOD8265705 Si02
#       7
#    16  16  16   8  16  16  16
#     4   9  18  30  45  68  94 125 167 206 238 278
#     4  11  19  31  48  73  96 122 160 199 243 293
#     4   9  16  28  46  68  95 125 157 198 239 277
#     4  11  22  34  50  71  97 129 159 192 239 296
#     4  10  18  28  41  66 102 137 162 190 237 286
#     4   8  15  26  41  62  93 134 168 190 222 276
#     4   9  19  35  52  69  93 126 161 202 248 286
#
# _framework density 16.511348000000002
#
# number of rings (size 3 to 8) (size 9 to 14) (size 15 to 20)
#    0.000    2.538    1.538    2.308    0.000    2.769 
#    0.000    4.615    0.000    1.846    0.000   14.000 
#    0.000    4.923    0.000    0.000    0.000    0.000 
#
# Total GULP energy -644489.703090 kJ/mol
# GULP energy per Si atom -12394.032752 kJ/mol
# Density = 1.647377 g / cm^3
# Si number density = 16.511348 Si / 1000 Ang^3
#
#
#
# Elastic Constant Matrix: (Units=GPa)
#
#
# Indices 1 2 3 4 5 6 
#
# 1 78.2208 41.5007 34.2891 0.0000 0.0000 0.0000
# 2 41.5007 107.2950 50.8418 0.0000 0.0000 0.0000
# 3 34.2891 50.8418 83.2747 0.0000 0.0000 0.0000
# 4 0.0000 0.0000 0.0000 14.4917 0.0000 0.0000
# 5 0.0000 0.0000 0.0000 0.0000 13.3879 0.0000
# 6 0.0000 0.0000 0.0000 0.0000 0.0000 11.9945
#
#
#
# Elastic Compliance Matrix: (Units=1/GPa)
#
#
# Indices 1 2 3 4 5 6 
#
# 1 0.017078 -0.004606 -0.004220 0.000000 0.000000 0.000000
# 2 -0.004606 0.014356 -0.006868 0.000000 0.000000 0.000000
# 3 -0.004220 -0.006868 0.017939 0.000000 0.000000 0.000000
# 4 0.000000 0.000000 0.000000 0.069005 0.000000 0.000000
# 5 0.000000 0.000000 0.000000 0.000000 0.074694 0.000000
# 6 0.000000 0.000000 0.000000 0.000000 0.000000 0.083372
#
#
# Mechanical properties :
#
#
# Convention : Reuss Voigt Hill
#
# Bulk Modulus (GPa) = 55.60176 58.00595 56.80386
# Shear Modulus (GPa) = 15.93229 17.45207 16.69218
#
# Velocity S-wave (km/s) = 3.10970 3.25464 3.18300
# Velocity P-wave (km/s) = 6.82947 7.02359 6.92721
#
# Compressibility (1/GPa) = 0.01798504
#
# Stress axis : x y z
#
# Youngs Moduli (GPa) = 58.55519 69.65620 55.74324
#
# Poissons Ratio (x) = 0.32083 0.23523
# Poissons Ratio (y) = 0.26970 0.38287
# Poissons Ratio (z) = 0.24710 0.47842
#
# Static dielectric constant tensor:
#      x y z
#    x 3.139380 0.000000 0.000000 
#    y 0.000000 3.410450 0.000000 
#    z 0.000000 0.000000 2.709470 
# 
# 
# High freq. dielectric constant tensor:
#      x y z
#    x 1.637100 0.000000 0.000000 
#    y 0.000000 1.651540 0.000000 
#    z 0.000000 0.000000 1.579440 
# 
# From -- ./inp_files/25543.got.cif
#   From: 2010.03.12/outbox.cif.g09.slc.cpg/sg65_13_cif.got.tgz:25543.got - 2010.04.10 20:52:16.
