data_PCOD8265799
_publ_section_title
;
Structure prediction by ZEFSAII (Michael W. Deem and Ramdas Pophale) SiO2 
 PCOD8265799
Probable space group: C M M M
;
_chemical_formula_sum "Si O2"
_cell_formula_units_Z 80
_cell_length_a 25.268068
_cell_length_b 20.555555
_cell_length_c 8.489389
_cell_angle_alpha 90.000000
_cell_angle_beta 90.000000
_cell_angle_gamma 90.000000
_cell_volume 4409.381528
_symmetry_space_group_name_H-M "C M M M"
_symmetry_group_IT_number 65
_symmetry_cell_setting 'orthorhombic'
loop_
_space_group_symop_operation_xyz
x,y,z
-x,-y,z
x,-y,-z
-x,y,-z
-x,-y,-z
x,y,-z
-x,y,z
x,-y,z
1/2+x,1/2+y,z
1/2-x,1/2-y,z
1/2+x,1/2-y,-z
1/2-x,1/2+y,-z
1/2-x,1/2-y,-z
1/2+x,1/2+y,-z
1/2-x,1/2+y,z
1/2+x,1/2-y,z
loop_
_atom_site_type_symbol
_atom_site_label
_atom_site_fract_x
_atom_site_fract_y
_atom_site_fract_z
Si Si1 0.500000 0.383394 0.182592
Si Si2 0.723261 0.426465 0.184020
Si Si3 0.786245 0.690759 0.683820
Si Si4 0.893303 0.268651 0.184495
Si Si5 0.500000 0.757007 0.683083
Si Si6 0.112197 0.879388 0.186928
O O1 0.500000 0.305832 0.204314
O O2 0.556119 0.409259 0.255253
O O3 0.500000 0.400726 0.000000
O O4 0.742379 0.500000 0.214311
O O5 0.759424 0.378391 0.283298
O O6 0.662541 0.420299 0.245356
O O7 0.726651 0.407856 0.000000
O O8 0.795625 0.700163 0.500000
O O9 0.750000 0.750000 0.750057
O O10 0.842724 0.688574 0.769333
O O11 0.881316 0.195088 0.242672
O O12 0.946085 0.295939 0.272742
O O13 0.903000 0.273667 0.000000
O O14 0.500000 0.738340 0.500000
O O15 0.108685 0.881425 0.000000
#
# Coordination Sequence:
#
# PCOD8265799 Si02
#       6
#     8  16  16  16   8  16
#     4   8  14  26  43  64  92 133 176 212 254 301
#     4  10  20  34  51  72 100 138 180 218 261 314
#     4  11  22  34  51  77 105 133 173 220 268 317
#     4  10  18  31  52  74 101 136 173 211 258 308
#     4  10  18  28  44  73 110 134 161 208 260 307
#     4   8  14  26  45  68  95 128 170 216 254 295
#
# _framework density 18.143132999999999
#
# number of rings (size 3 to 8) (size 9 to 14) (size 15 to 20)
#    0.000    2.400    2.000    3.300    0.000    1.200 
#    0.000    0.500    0.000    3.000    0.000    0.700 
#    0.000   11.200    0.000    0.000    0.000    0.000 
#
# Total GULP energy -495654.783097 kJ/mol
# GULP energy per Si atom -12391.369577 kJ/mol
# Density = 1.810184 g / cm^3
# Si number density = 18.143133 Si / 1000 Ang^3
#
#
#
# Elastic Constant Matrix: (Units=GPa)
#
#
# Indices 1 2 3 4 5 6 
#
# 1 132.5837 33.1909 24.0254 0.0000 0.0000 0.0000
# 2 33.1909 58.4005 12.0754 0.0000 0.0000 0.0000
# 3 24.0254 12.0754 45.1179 0.0000 0.0000 0.0000
# 4 0.0000 0.0000 0.0000 14.8551 0.0000 0.0000
# 5 0.0000 0.0000 0.0000 0.0000 21.4263 0.0000
# 6 0.0000 0.0000 0.0000 0.0000 0.0000 16.3298
#
#
#
# Elastic Compliance Matrix: (Units=1/GPa)
#
#
# Indices 1 2 3 4 5 6 
#
# 1 0.009362 -0.004541 -0.003770 0.000000 0.000000 0.000000
# 2 -0.004541 0.020329 -0.003023 0.000000 0.000000 0.000000
# 3 -0.003770 -0.003023 0.024981 0.000000 0.000000 0.000000
# 4 0.000000 0.000000 0.000000 0.067317 0.000000 0.000000
# 5 0.000000 0.000000 0.000000 0.000000 0.046672 0.000000
# 6 0.000000 0.000000 0.000000 0.000000 0.000000 0.061238
#
#
# Mechanical properties :
#
#
# Convention : Reuss Voigt Hill
#
# Bulk Modulus (GPa) = 31.24595 41.63172 36.43884
# Shear Modulus (GPa) = 18.99445 21.64295 20.31870
#
# Velocity S-wave (km/s) = 3.23913 3.45759 3.35014
# Velocity P-wave (km/s) = 5.59004 6.23987 5.92387
#
# Compressibility (1/GPa) = 0.03200414
#
# Stress axis : x y z
#
# Youngs Moduli (GPa) = 106.80925 49.19043 40.03090
#
# Poissons Ratio (x) = 0.22340 0.15092
# Poissons Ratio (y) = 0.48507 0.12100
# Poissons Ratio (z) = 0.40268 0.14868
#
# Static dielectric constant tensor:
#      x y z
#    x 3.870200 0.000000 0.000000 
#    y 0.000000 2.880360 0.000000 
#    z 0.000000 0.000000 3.066640 
# 
# 
# High freq. dielectric constant tensor:
#      x y z
#    x 1.725220 0.000000 0.000000 
#    y 0.000000 1.642780 0.000000 
#    z 0.000000 0.000000 1.682010 
# 
# From -- ./inp_files/13826.got.cif
#   From: 2010.03.12/outbox.cif.g09.slc.cpg/sg65_7_cif.got.tgz:13826.got - 2010.04.10 20:52:16.
