data_PCOD8265270
_publ_section_title
;
Structure prediction by ZEFSAII (Michael W. Deem and Ramdas Pophale) SiO2 
 PCOD8265270
Probable space group: C M M M
;
_chemical_formula_sum "Si O2"
_cell_formula_units_Z 88
_cell_length_a 8.821713
_cell_length_b 18.619953
_cell_length_c 29.048629
_cell_angle_alpha 90.000000
_cell_angle_beta 90.000000
_cell_angle_gamma 90.000000
_cell_volume 4771.524356
_symmetry_space_group_name_H-M "C M M M"
_symmetry_group_IT_number 65
_symmetry_cell_setting 'orthorhombic'
loop_
_space_group_symop_operation_xyz
x,y,z
-x,-y,z
x,-y,-z
-x,y,-z
-x,-y,-z
x,y,-z
-x,y,z
x,-y,z
1/2+x,1/2+y,z
1/2-x,1/2-y,z
1/2+x,1/2-y,-z
1/2-x,1/2+y,-z
1/2-x,1/2-y,-z
1/2+x,1/2+y,-z
1/2-x,1/2+y,z
1/2+x,1/2-y,z
loop_
_atom_site_type_symbol
_atom_site_label
_atom_site_fract_x
_atom_site_fract_y
_atom_site_fract_z
Si Si1 0.676087 0.081437 0.589630
Si Si2 0.826625 0.084880 0.500000
Si Si3 0.176815 0.172183 0.950024
Si Si4 0.821592 0.172346 0.769156
Si Si5 0.319655 0.829506 0.860935
Si Si6 0.173340 0.414895 0.691199
O O1 0.500000 0.084634 0.579040
O O2 0.758490 0.120457 0.546672
O O3 0.711419 0.115398 0.639847
O O4 0.734489 0.000000 0.591909
O O5 0.000000 0.104053 0.500000
O O6 0.790954 0.000000 0.500000
O O7 0.250000 0.250000 0.953886
O O8 0.259805 0.130363 0.907610
O O9 0.000000 0.179886 0.938404
O O10 0.199816 0.133191 0.000000
O O11 0.750000 0.250000 0.759802
O O12 0.746210 0.134766 0.814401
O O13 0.789299 0.121738 0.725976
O O14 0.000000 0.180596 0.776750
O O15 0.500000 0.829264 0.859680
O O16 0.250000 0.750000 0.862033
O O17 0.196044 0.500000 0.692989
O O18 0.000000 0.395252 0.704103
#
# Coordination Sequence:
#
# PCOD8265270 Si02
#       6
#    16   8  16  16  16  16
#     4   8  14  25  41  60  85 118 150 180 220 271
#     4   9  15  21  33  57  88 117 146 183 222 261
#     4   9  15  22  33  51  77 108 141 177 220 270
#     4  11  21  33  49  68  93 124 160 197 234 278
#     4  10  17  26  40  57  81 112 148 187 227 271
#     4   9  18  33  51  71  96 124 155 193 236 279
#
# _framework density 18.442744000000001
#
# number of rings (size 3 to 8) (size 9 to 14) (size 15 to 20)
#    0.000    2.636    0.000    7.364    0.000    3.273 
#    0.000    1.818    0.000    0.000    0.000    0.636 
#    0.000    0.727    0.000    7.636    0.000    6.364 
#
# Total GULP energy -545080.708075 kJ/mol
# GULP energy per Si atom -12388.197911 kJ/mol
# Density = 1.840077 g / cm^3
# Si number density = 18.442744 Si / 1000 Ang^3
#
#
#
# Elastic Constant Matrix: (Units=GPa)
#
#
# Indices 1 2 3 4 5 6 
#
# 1 133.0764 12.1793 78.7612 0.0000 0.0000 0.0000
# 2 12.1793 13.3408 20.4571 0.0000 0.0000 0.0000
# 3 78.7612 20.4571 186.4493 0.0000 0.0000 0.0000
# 4 0.0000 0.0000 0.0000 19.9421 0.0000 0.0000
# 5 0.0000 0.0000 0.0000 0.0000 36.0738 0.0000
# 6 0.0000 0.0000 0.0000 0.0000 0.0000 13.6769
#
#
#
# Elastic Compliance Matrix: (Units=1/GPa)
#
#
# Indices 1 2 3 4 5 6 
#
# 1 0.010134 -0.003231 -0.003926 0.000000 0.000000 0.000000
# 2 -0.003231 0.091150 -0.008636 0.000000 0.000000 0.000000
# 3 -0.003926 -0.008636 0.007970 0.000000 0.000000 0.000000
# 4 0.000000 0.000000 0.000000 0.050145 0.000000 0.000000
# 5 0.000000 0.000000 0.000000 0.000000 0.027721 0.000000
# 6 0.000000 0.000000 0.000000 0.000000 0.000000 0.073116
#
#
# Mechanical properties :
#
#
# Convention : Reuss Voigt Hill
#
# Bulk Modulus (GPa) = 12.87547 61.74020 37.30783
# Shear Modulus (GPa) = 15.73754 28.70316 22.22035
#
# Velocity S-wave (km/s) = 2.92433 3.94933 3.47483
# Velocity P-wave (km/s) = 4.28938 7.37195 6.03093
#
# Compressibility (1/GPa) = 0.07766706
#
# Stress axis : x y z
#
# Youngs Moduli (GPa) = 98.67764 10.97089 125.47753
#
# Poissons Ratio (x) = 0.03545 0.49267
# Poissons Ratio (y) = 0.31881 1.08364
# Poissons Ratio (z) = 0.38745 0.09475
#
# Static dielectric constant tensor:
#      x y z
#    x 3.406820 0.000000 0.000000 
#    y 0.000000 2.579850 0.000000 
#    z 0.000000 0.000000 4.644680 
# 
# 
# High freq. dielectric constant tensor:
#      x y z
#    x 1.724000 0.000000 0.000000 
#    y 0.000000 1.613290 0.000000 
#    z 0.000000 0.000000 1.755150 
# 
# From -- ./inp_files/76804.got.cif
#   From: 2010.03.12/outbox.cif.g09.slc.cpg/sg65_39_cif.got.tgz:76804.got - 2010.04.10 20:52:16.
