data_PCOD8265121
_publ_section_title
;
Structure prediction by ZEFSAII (Michael W. Deem and Ramdas Pophale) SiO2 
 PCOD8265121
Probable space group: C M M M
;
_chemical_formula_sum "Si O2"
_cell_formula_units_Z 96
_cell_length_a 25.233395
_cell_length_b 14.371299
_cell_length_c 15.259048
_cell_angle_alpha 90.000000
_cell_angle_beta 90.000000
_cell_angle_gamma 90.000000
_cell_volume 5533.490268
_symmetry_space_group_name_H-M "C M M M"
_symmetry_group_IT_number 65
_symmetry_cell_setting 'orthorhombic'
loop_
_space_group_symop_operation_xyz
x,y,z
-x,-y,z
x,-y,-z
-x,y,-z
-x,-y,-z
x,y,-z
-x,y,z
x,-y,z
1/2+x,1/2+y,z
1/2-x,1/2-y,z
1/2+x,1/2-y,-z
1/2-x,1/2+y,-z
1/2-x,1/2-y,-z
1/2+x,1/2+y,-z
1/2-x,1/2+y,z
1/2+x,1/2-y,z
loop_
_atom_site_type_symbol
_atom_site_label
_atom_site_fract_x
_atom_site_fract_y
_atom_site_fract_z
Si Si1 0.717563 0.605061 0.188680
Si Si2 0.346699 0.900306 0.000000
Si Si3 0.768157 0.855684 0.000000
Si Si4 0.438457 0.394042 0.600788
Si Si5 0.562404 0.606702 0.099312
Si Si6 0.377678 0.291306 0.747096
Si Si7 0.341605 0.890312 0.190000
O O1 0.706332 0.500000 0.216926
O O2 0.698638 0.621311 0.087647
O O3 0.682344 0.669938 0.250893
O O4 0.779251 0.629764 0.200367
O O5 0.360499 0.852869 0.092955
O O6 0.283603 0.920492 0.000000
O O7 0.375436 0.000000 0.000000
O O8 0.750000 0.750000 0.000000
O O9 0.422787 0.378937 0.500000
O O10 0.500000 0.372851 0.615721
O O11 0.425881 0.500000 0.629458
O O12 0.404983 0.321971 0.657524
O O13 0.500000 0.618160 0.112558
O O14 0.579072 0.500000 0.117468
O O15 0.590640 0.672809 0.168751
O O16 0.578131 0.635607 0.000000
O O17 0.374027 0.177836 0.745411
O O18 0.354580 0.000000 0.205581
#
# Coordination Sequence:
#
# PCOD8265121 Si02
#       7
#    16   8   8  16  16  16  16
#     4  10  19  29  42  66 101 135 169 209 246 281
#     4   8  14  28  42  52  80 132 182 210 231 257
#     4  10  16  24  36  54  88 133 173 203 231 268
#     4   9  19  37  59  81 102 121 149 199 259 310
#     4   9  19  33  45  65 101 132 152 187 246 310
#     4  12  20  28  52  77  95 126 172 206 241 298
#     4   9  19  32  45  66 102 142 175 211 244 273
#
# _framework density 17.348904000000001
#
# number of rings (size 3 to 8) (size 9 to 14) (size 15 to 20)
#    0.000    2.333    0.000    7.250    2.333    1.333 
#    0.000    0.000    0.000    4.500    0.000    4.667 
#    0.000    0.000    0.000    0.000    0.000    0.000 
#
# Total GULP energy -594769.193327 kJ/mol
# GULP energy per Si atom -12391.024861 kJ/mol
# Density = 1.730942 g / cm^3
# Si number density = 17.348904 Si / 1000 Ang^3
#
#
#
# Elastic Constant Matrix: (Units=GPa)
#
#
# Indices 1 2 3 4 5 6 
#
# 1 44.2874 42.8106 38.4536 0.0000 0.0000 0.0000
# 2 42.8106 111.7189 48.5162 0.0000 0.0000 0.0000
# 3 38.4536 48.5162 79.4608 0.0000 0.0000 0.0000
# 4 0.0000 0.0000 0.0000 24.0605 0.0000 0.0000
# 5 0.0000 0.0000 0.0000 0.0000 29.2179 0.0000
# 6 0.0000 0.0000 0.0000 0.0000 0.0000 22.4241
#
#
#
# Elastic Compliance Matrix: (Units=1/GPa)
#
#
# Indices 1 2 3 4 5 6 
#
# 1 0.047335 -0.011146 -0.016101 0.000000 0.000000 0.000000
# 2 -0.011146 0.014806 -0.003646 0.000000 0.000000 0.000000
# 3 -0.016101 -0.003646 0.022603 0.000000 0.000000 0.000000
# 4 0.000000 0.000000 0.000000 0.041562 0.000000 0.000000
# 5 0.000000 0.000000 0.000000 0.000000 0.034226 0.000000
# 6 0.000000 0.000000 0.000000 0.000000 0.000000 0.044595
#
#
# Mechanical properties :
#
#
# Convention : Reuss Voigt Hill
#
# Bulk Modulus (GPa) = 43.56080 55.00311 49.28195
# Shear Modulus (GPa) = 18.21071 22.18627 20.19849
#
# Velocity S-wave (km/s) = 3.24338 3.57995 3.41582
# Velocity P-wave (km/s) = 6.26013 6.99006 6.63514
#
# Compressibility (1/GPa) = 0.02295642
#
# Stress axis : x y z
#
# Youngs Moduli (GPa) = 21.12618 67.54219 44.24276
#
# Poissons Ratio (x) = 0.75285 0.71236
# Poissons Ratio (y) = 0.23548 0.16130
# Poissons Ratio (z) = 0.34015 0.24624
#
# Static dielectric constant tensor:
#      x y z
#    x 3.041030 0.000000 0.000000 
#    y 0.000000 3.175160 0.000000 
#    z 0.000000 0.000000 2.980540 
# 
# 
# High freq. dielectric constant tensor:
#      x y z
#    x 1.650420 0.000000 0.000000 
#    y 0.000000 1.668530 0.000000 
#    z 0.000000 0.000000 1.633130 
# 
# From -- ./inp_files/45674.got.cif
#   From: 2010.03.12/outbox.cif.g09.slc.cpg/sg65_23_cif.got.tgz:45674.got - 2010.04.10 20:52:16.
