data_PCOD8265229
_publ_section_title
;
Structure prediction by ZEFSAII (Michael W. Deem and Ramdas Pophale) SiO2 
 PCOD8265229
Probable space group: C M M M
;
_chemical_formula_sum "Si O2"
_cell_formula_units_Z 104
_cell_length_a 22.636565
_cell_length_b 17.212254
_cell_length_c 21.571499
_cell_angle_alpha 90.000000
_cell_angle_beta 90.000000
_cell_angle_gamma 90.000000
_cell_volume 8404.823480
_symmetry_space_group_name_H-M "C M M M"
_symmetry_group_IT_number 65
_symmetry_cell_setting 'orthorhombic'
loop_
_space_group_symop_operation_xyz
x,y,z
-x,-y,z
x,-y,-z
-x,y,-z
-x,-y,-z
x,y,-z
-x,y,z
x,-y,z
1/2+x,1/2+y,z
1/2-x,1/2-y,z
1/2+x,1/2-y,-z
1/2-x,1/2+y,-z
1/2-x,1/2-y,-z
1/2+x,1/2+y,-z
1/2-x,1/2+y,z
1/2+x,1/2-y,z
loop_
_atom_site_type_symbol
_atom_site_label
_atom_site_fract_x
_atom_site_fract_y
_atom_site_fract_z
Si Si1 0.429701 0.414630 0.000000
Si Si2 0.790571 0.588594 0.429163
Si Si3 0.124844 0.722976 0.570663
Si Si4 0.500000 0.277592 0.428627
Si Si5 0.566117 0.592818 0.867468
Si Si6 0.293415 0.681281 0.657590
Si Si7 0.880230 0.909287 0.741541
Si Si8 0.500000 0.410823 0.667806
O O1 0.411135 0.373309 0.065340
O O2 0.400731 0.500000 0.000000
O O3 0.500000 0.421829 0.000000
O O4 0.768004 0.599690 0.500000
O O5 0.806028 0.500000 0.414693
O O6 0.850727 0.636505 0.417966
O O7 0.740862 0.616638 0.381762
O O8 0.135416 0.748967 0.500000
O O9 0.055995 0.724129 0.588313
O O10 0.157628 0.785156 0.612366
O O11 0.500000 0.302115 0.500000
O O12 0.500000 0.358608 0.392938
O O13 0.500000 0.624112 0.852903
O O14 0.563120 0.500000 0.871446
O O15 0.610824 0.617638 0.812936
O O16 0.250000 0.750000 0.681432
O O17 0.325751 0.640776 0.715357
O O18 0.941650 0.892086 0.707120
O O19 0.863825 0.000000 0.736538
O O20 0.500000 0.500000 0.646038
#
# Coordination Sequence:
#
# PCOD8265229 Si02
#       8
#     8  16  16   8  16  16  16   8
#     4   7  10  16  28  46  69  94 118 138 158 192
#     4   9  17  29  42  54  67  84 112 152 190 216
#     4   9  17  28  41  54  68  88 114 143 178 219
#     4  10  18  29  41  52  69  94 119 142 174 215
#     4   8  12  19  31  49  72  96 116 136 165 200
#     4  10  18  27  39  52  68  93 121 146 174 206
#     4  10  17  25  37  54  75  95 116 142 175 208
#     4  10  18  27  38  52  73  98 119 140 172 213
#
# _framework density 12.373846
#
# number of rings (size 3 to 8) (size 9 to 14) (size 15 to 20)
#    0.000    2.846    2.308    1.846    0.000    2.000 
#    0.000    0.385    0.000    2.308    0.000    0.538 
#    0.000    0.000    0.000    0.000    0.000    0.000 
#
# Total GULP energy -644320.770131 kJ/mol
# GULP energy per Si atom -12390.784041 kJ/mol
# Density = 1.234568 g / cm^3
# Si number density = 12.373846 Si / 1000 Ang^3
#
#
#
# Elastic Constant Matrix: (Units=GPa)
#
#
# Indices 1 2 3 4 5 6 
#
# 1 77.3803 34.3440 49.7790 0.0000 0.0000 0.0000
# 2 34.3440 55.8038 41.5497 0.0000 0.0000 0.0000
# 3 49.7790 41.5497 92.9239 0.0000 0.0000 0.0000
# 4 0.0000 0.0000 0.0000 8.8018 0.0000 0.0000
# 5 0.0000 0.0000 0.0000 0.0000 16.0051 0.0000
# 6 0.0000 0.0000 0.0000 0.0000 0.0000 16.0959
#
#
#
# Elastic Compliance Matrix: (Units=1/GPa)
#
#
# Indices 1 2 3 4 5 6 
#
# 1 0.021372 -0.006939 -0.008346 0.000000 0.000000 0.000000
# 2 -0.006939 0.029116 -0.009302 0.000000 0.000000 0.000000
# 3 -0.008346 -0.009302 0.019392 0.000000 0.000000 0.000000
# 4 0.000000 0.000000 0.000000 0.113613 0.000000 0.000000
# 5 0.000000 0.000000 0.000000 0.000000 0.062480 0.000000
# 6 0.000000 0.000000 0.000000 0.000000 0.000000 0.062128
#
#
# Mechanical properties :
#
#
# Convention : Reuss Voigt Hill
#
# Bulk Modulus (GPa) = 48.29503 53.05039 50.67271
# Shear Modulus (GPa) = 13.72960 14.87624 14.30292
#
# Velocity S-wave (km/s) = 3.33463 3.47108 3.40354
# Velocity P-wave (km/s) = 7.34445 7.68314 7.51570
#
# Compressibility (1/GPa) = 0.02070607
#
# Stress axis : x y z
#
# Youngs Moduli (GPa) = 46.78985 34.34512 51.56830
#
# Poissons Ratio (x) = 0.23832 0.43041
# Poissons Ratio (y) = 0.32467 0.47968
# Poissons Ratio (z) = 0.39052 0.31947
#
# Static dielectric constant tensor:
#      x y z
#    x 2.520120 0.000000 0.000000 
#    y 0.000000 2.329400 0.000000 
#    z 0.000000 0.000000 2.716570 
# 
# 
# High freq. dielectric constant tensor:
#      x y z
#    x 1.456930 0.000000 0.000000 
#    y 0.000000 1.439870 0.000000 
#    z 0.000000 0.000000 1.463270 
# 
# From -- ./inp_files/65525.got.cif
#   From: 2010.03.12/outbox.cif.g09.slc.cpg/sg65_33_cif.got.tgz:65525.got - 2010.04.10 20:52:16.
