data_PCOD8265112
_publ_section_title
;
Structure prediction by ZEFSAII (Michael W. Deem and Ramdas Pophale) SiO2 
 PCOD8265112
Probable space group: C M M M
;
_chemical_formula_sum "Si O2"
_cell_formula_units_Z 80
_cell_length_a 17.946540
_cell_length_b 8.859134
_cell_length_c 25.937813
_cell_angle_alpha 90.000000
_cell_angle_beta 90.000000
_cell_angle_gamma 90.000000
_cell_volume 4123.873709
_symmetry_space_group_name_H-M "C M M M"
_symmetry_group_IT_number 65
_symmetry_cell_setting 'orthorhombic'
loop_
_space_group_symop_operation_xyz
x,y,z
-x,-y,z
x,-y,-z
-x,y,-z
-x,-y,-z
x,y,-z
-x,y,z
x,-y,z
1/2+x,1/2+y,z
1/2-x,1/2-y,z
1/2+x,1/2-y,-z
1/2-x,1/2+y,-z
1/2-x,1/2-y,-z
1/2+x,1/2+y,-z
1/2-x,1/2+y,z
1/2+x,1/2-y,z
loop_
_atom_site_type_symbol
_atom_site_label
_atom_site_fract_x
_atom_site_fract_y
_atom_site_fract_z
Si Si1 0.830069 0.325388 0.786974
Si Si2 0.829947 0.675374 0.900808
Si Si3 0.832880 0.820857 0.000000
Si Si4 0.169427 0.178944 0.594027
Si Si5 0.914891 0.175986 0.696616
Si Si6 0.088098 0.672260 0.500000
O O1 0.816892 0.500000 0.775981
O O2 0.750000 0.250000 0.779435
O O3 0.865888 0.300540 0.844246
O O4 0.890121 0.262280 0.747587
O O5 0.822642 0.500000 0.914877
O O6 0.750000 0.750000 0.896499
O O7 0.873902 0.759484 0.947815
O O8 0.750000 0.750000 0.000000
O O9 0.831549 0.000000 0.000000
O O10 0.250000 0.250000 0.587708
O O11 0.135581 0.228184 0.648818
O O12 0.116234 0.242400 0.550253
O O13 0.174482 0.000000 0.588506
O O14 0.000000 0.218253 0.684067
O O15 0.905426 0.000000 0.707243
O O16 0.117195 0.500000 0.500000
O O17 0.000000 0.678907 0.500000
#
# Coordination Sequence:
#
# PCOD8265112 Si02
#       6
#    16  16   8  16  16   8
#     4  10  20  33  52  77 105 140 179 221 269 321
#     4   9  16  26  40  62  94 130 168 210 259 313
#     4  10  16  22  36  60  91 128 167 208 259 313
#     4  11  23  40  62  87 116 149 186 226 271 322
#     4  10  22  39  58  81 109 142 180 223 272 324
#     4  11  24  41  62  89 119 151 188 229 272 317
#
# _framework density 19.399235999999998
#
# number of rings (size 3 to 8) (size 9 to 14) (size 15 to 20)
#    0.000    1.900    0.000    5.700    0.000    7.600 
#    0.000    0.000    0.000    0.000    0.000    0.700 
#    0.000    5.600    0.000    0.000    0.000    0.000 
#
# Total GULP energy -495872.484241 kJ/mol
# GULP energy per Si atom -12396.812106 kJ/mol
# Density = 1.935508 g / cm^3
# Si number density = 19.399236 Si / 1000 Ang^3
#
#
#
# Elastic Constant Matrix: (Units=GPa)
#
#
# Indices 1 2 3 4 5 6 
#
# 1 57.4829 30.1689 32.3440 0.0000 0.0000 0.0000
# 2 30.1689 117.4146 70.3004 0.0000 0.0000 0.0000
# 3 32.3440 70.3004 154.9711 0.0000 0.0000 0.0000
# 4 0.0000 0.0000 0.0000 37.9146 0.0000 0.0000
# 5 0.0000 0.0000 0.0000 0.0000 -1.5527 0.0000
# 6 0.0000 0.0000 0.0000 0.0000 0.0000 22.1831
#
#
#
# Elastic Compliance Matrix: (Units=1/GPa)
#
#
# Indices 1 2 3 4 5 6 
#
# 1 0.020866 -0.003781 -0.002640 0.000000 0.000000 0.000000
# 2 -0.003781 0.012378 -0.004826 0.000000 0.000000 0.000000
# 3 -0.002640 -0.004826 0.009193 0.000000 0.000000 0.000000
# 4 0.000000 0.000000 0.000000 0.026375 0.000000 0.000000
# 5 0.000000 0.000000 0.000000 0.000000 -0.644020 0.000000
# 6 0.000000 0.000000 0.000000 0.000000 0.000000 0.045079
#
#
# Mechanical properties :
#
#
# Convention : Reuss Voigt Hill
#
# Bulk Modulus (GPa) = 50.14114 66.16615 58.15364
# Shear Modulus (GPa) = -9.98029 24.84601 7.43286
#
# Velocity S-wave (km/s) = -2.27065 3.58267 1.95955
# Velocity P-wave (km/s) = 4.36218 7.16210 5.92977
#
# Compressibility (1/GPa) = 0.01994370
#
# Stress axis : x y z
#
# Youngs Moduli (GPa) = 47.92453 80.79034 108.77879
#
# Poissons Ratio (x) = 0.30545 0.28716
# Poissons Ratio (y) = 0.18119 0.52495
# Poissons Ratio (z) = 0.12651 0.38988
#
# Static dielectric constant tensor:
#      x y z
#    x 3.148160 0.000000 0.000000 
#    y 0.000000 3.515730 0.000000 
#    z 0.000000 0.000000 4.531950 
# 
# 
# High freq. dielectric constant tensor:
#      x y z
#    x 1.711010 0.000000 0.000000 
#    y 0.000000 1.769400 0.000000 
#    z 0.000000 0.000000 1.785240 
# 
# From -- ./inp_files/75064.got.cif
#   From: 2010.03.12/outbox.cif.g09.slc.cpg/sg65_38_cif.got.tgz:75064.got - 2010.04.10 20:52:16.
