data_PCOD8265931
_publ_section_title
;
Structure prediction by ZEFSAII (Michael W. Deem and Ramdas Pophale) SiO2 
 PCOD8265931
Probable space group: C M M M
;
_chemical_formula_sum "Si O2"
_cell_formula_units_Z 88
_cell_length_a 30.038854
_cell_length_b 23.975858
_cell_length_c 8.900890
_cell_angle_alpha 90.000000
_cell_angle_beta 90.000000
_cell_angle_gamma 90.000000
_cell_volume 6410.485937
_symmetry_space_group_name_H-M "C M M M"
_symmetry_group_IT_number 65
_symmetry_cell_setting 'orthorhombic'
loop_
_space_group_symop_operation_xyz
x,y,z
-x,-y,z
x,-y,-z
-x,y,-z
-x,-y,-z
x,y,-z
-x,y,z
x,-y,z
1/2+x,1/2+y,z
1/2-x,1/2-y,z
1/2+x,1/2-y,-z
1/2-x,1/2+y,-z
1/2-x,1/2-y,-z
1/2+x,1/2+y,-z
1/2-x,1/2+y,z
1/2+x,1/2-y,z
loop_
_atom_site_type_symbol
_atom_site_label
_atom_site_fract_x
_atom_site_fract_y
_atom_site_fract_z
Si Si1 0.250317 0.121363 0.178858
Si Si2 0.759491 0.000000 0.833769
Si Si3 0.160281 0.184146 0.177197
Si Si4 0.296221 0.782230 0.669695
Si Si5 0.864242 0.000000 0.831597
Si Si6 0.500000 0.563032 0.677604
Si Si7 0.905568 0.105186 0.321850
O O1 0.201752 0.144893 0.224491
O O2 0.289586 0.157812 0.252051
O O3 0.255740 0.058099 0.244384
O O4 0.255081 0.123137 0.000000
O O5 0.811999 0.000000 0.846519
O O6 0.738714 0.000000 0.000000
O O7 0.167380 0.246661 0.239148
O O8 0.114865 0.161031 0.250039
O O9 0.154435 0.186613 0.000000
O O10 0.312975 0.791012 0.500000
O O11 0.250000 0.750000 0.674619
O O12 0.878108 0.053442 0.738720
O O13 0.885141 0.000000 0.000000
O O14 0.500000 0.500000 0.746489
O O15 0.500000 0.556746 0.500000
O O16 0.543233 0.597608 0.730258
O O17 0.901082 0.108184 0.500000
#
# Coordination Sequence:
#
# PCOD8265931 Si02
#       7
#    16   8  16  16   8   8  16
#     4   9  16  27  41  56  77 105 130 157 197 240
#     4   9  16  27  40  56  79 106 132 159 197 244
#     4  10  18  29  44  59  76  99 129 165 204 243
#     4   9  17  28  40  57  78  98 126 163 197 233
#     4  11  19  30  42  57  78 102 132 168 205 245
#     4   9  18  32  44  56  78 106 132 161 206 255
#     4  11  20  31  45  59  75 101 134 169 207 247
#
# _framework density 13.727508
#
# number of rings (size 3 to 8) (size 9 to 14) (size 15 to 20)
#    0.000    2.273    2.727    1.909    0.000    2.909 
#    0.000    2.727    0.000    0.000    0.000    0.000 
#    0.000    0.000    0.000    0.000    0.000    0.909 
#
# Total GULP energy -545381.127758 kJ/mol
# GULP energy per Si atom -12395.025631 kJ/mol
# Density = 1.369626 g / cm^3
# Si number density = 13.727508 Si / 1000 Ang^3
#
#
#
# Elastic Constant Matrix: (Units=GPa)
#
#
# Indices 1 2 3 4 5 6 
#
# 1 58.9527 49.0753 27.2452 0.0000 0.0000 0.0000
# 2 49.0753 112.8462 35.5406 0.0000 0.0000 0.0000
# 3 27.2452 35.5406 56.5325 0.0000 0.0000 0.0000
# 4 0.0000 0.0000 0.0000 29.5876 0.0000 0.0000
# 5 0.0000 0.0000 0.0000 0.0000 13.9979 0.0000
# 6 0.0000 0.0000 0.0000 0.0000 0.0000 -271.6789
#
#
#
# Elastic Compliance Matrix: (Units=1/GPa)
#
#
# Indices 1 2 3 4 5 6 
#
# 1 0.028948 -0.010218 -0.007527 0.000000 0.000000 0.000000
# 2 -0.010218 0.014656 -0.004290 0.000000 0.000000 0.000000
# 3 -0.007527 -0.004290 0.024013 0.000000 0.000000 0.000000
# 4 0.000000 0.000000 0.000000 0.033798 0.000000 0.000000
# 5 0.000000 0.000000 0.000000 0.000000 0.071439 0.000000
# 6 0.000000 0.000000 0.000000 0.000000 0.000000 -0.003681
#
#
# Mechanical properties :
#
#
# Convention : Reuss Voigt Hill
#
# Bulk Modulus (GPa) = 42.46719 50.22816 46.34767
# Shear Modulus (GPa) = 22.61500 -37.85398 -7.61949
#
# Velocity S-wave (km/s) = 4.06325 -5.25691 -2.35851
# Velocity P-wave (km/s) = 7.28123 0.42189 5.13996
#
# Compressibility (1/GPa) = 0.02354759
#
# Stress axis : x y z
#
# Youngs Moduli (GPa) = 34.54520 68.22962 41.64385
#
# Poissons Ratio (x) = 0.69719 0.31345
# Poissons Ratio (y) = 0.35299 0.17863
# Poissons Ratio (z) = 0.26002 0.29267
#
# Static dielectric constant tensor:
#      x y z
#    x 2.539660 0.000000 0.000000 
#    y 0.000000 2.895190 0.000000 
#    z 0.000000 0.000000 2.743710 
# 
# 
# High freq. dielectric constant tensor:
#      x y z
#    x 1.475550 0.000000 0.000000 
#    y 0.000000 1.515360 0.000000 
#    z 0.000000 0.000000 1.526000 
# 
# From -- ./inp_files/18824.got.cif
#   From: 2010.03.12/outbox.cif.g09.slc.cpg/sg65_10_cif.got.tgz:18824.got - 2010.04.10 20:52:16.
