data_PCOD8265109
_publ_section_title
;
Structure prediction by ZEFSAII (Michael W. Deem and Ramdas Pophale) SiO2 
 PCOD8265109
Probable space group: C M M M
;
_chemical_formula_sum "Si O2"
_cell_formula_units_Z 104
_cell_length_a 8.733231
_cell_length_b 23.537884
_cell_length_c 28.162982
_cell_angle_alpha 90.000000
_cell_angle_beta 90.000000
_cell_angle_gamma 90.000000
_cell_volume 5789.232660
_symmetry_space_group_name_H-M "C M M M"
_symmetry_group_IT_number 65
_symmetry_cell_setting 'orthorhombic'
loop_
_space_group_symop_operation_xyz
x,y,z
-x,-y,z
x,-y,-z
-x,y,-z
-x,-y,-z
x,y,-z
-x,y,z
x,-y,z
1/2+x,1/2+y,z
1/2-x,1/2-y,z
1/2+x,1/2-y,-z
1/2-x,1/2+y,-z
1/2-x,1/2-y,-z
1/2+x,1/2+y,-z
1/2-x,1/2+y,z
1/2+x,1/2-y,z
loop_
_atom_site_type_symbol
_atom_site_label
_atom_site_fract_x
_atom_site_fract_y
_atom_site_fract_z
Si Si1 0.679538 0.189352 0.867145
Si Si2 0.821731 0.187783 0.696970
Si Si3 0.679257 0.500000 0.807761
Si Si4 0.680401 0.813406 0.500000
Si Si5 0.320759 0.887281 0.222835
Si Si6 0.324528 0.385430 0.054553
Si Si7 0.319145 0.000000 0.911066
Si Si8 0.323966 0.311069 0.591905
O O1 0.500000 0.196168 0.874024
O O2 0.750000 0.250000 0.854969
O O3 0.721282 0.147665 0.824231
O O4 0.749495 0.164799 0.915346
O O5 0.750000 0.250000 0.700812
O O6 0.728591 0.146900 0.731032
O O7 0.804332 0.160737 0.643888
O O8 0.000000 0.191397 0.711545
O O9 0.500000 0.500000 0.818338
O O10 0.725396 0.554768 0.777342
O O11 0.770342 0.500000 0.856719
O O12 0.500000 0.812526 0.500000
O O13 0.750000 0.750000 0.500000
O O14 0.740118 0.844586 0.548387
O O15 0.500000 0.900874 0.225143
O O16 0.500000 0.392947 0.070104
O O17 0.240514 0.444831 0.062107
O O18 0.309593 0.367165 0.000000
O O19 0.500000 0.000000 0.913078
O O20 0.500000 0.304605 0.577884
O O21 0.250000 0.250000 0.596717
#
# Coordination Sequence:
#
# PCOD8265109 Si02
#       8
#    16  16   8   8  16  16   8  16
#     4  11  24  40  60  83 111 145 181 219 262 316
#     4  10  20  33  51  76 107 145 185 224 269 319
#     4  12  24  39  63  86 110 140 173 218 265 314
#     4  10  16  22  36  58  88 129 176 221 266 314
#     4  11  23  39  59  83 110 139 177 221 266 320
#     4  11  24  41  62  87 113 143 180 221 265 314
#     4  12  23  39  62  89 116 142 175 215 265 318
#     4   9  16  26  40  61  93 133 177 221 264 312
#
# _framework density 17.964385
#
# number of rings (size 3 to 8) (size 9 to 14) (size 15 to 20)
#    0.000    1.385    1.538    6.000    0.000    7.385 
#    0.000    0.000    0.000    0.000    0.000    0.000 
#    0.000    0.615    0.000    6.462    0.000    3.538 
#
# Total GULP energy -644808.818146 kJ/mol
# GULP energy per Si atom -12400.169580 kJ/mol
# Density = 1.792350 g / cm^3
# Si number density = 17.964385 Si / 1000 Ang^3
#
#
#
# Elastic Constant Matrix: (Units=GPa)
#
#
# Indices 1 2 3 4 5 6 
#
# 1 125.6542 40.9665 47.8220 0.0000 0.0000 0.0000
# 2 40.9665 83.7014 31.1418 0.0000 0.0000 0.0000
# 3 47.8220 31.1418 109.5468 0.0000 0.0000 0.0000
# 4 0.0000 0.0000 0.0000 -20.7351 0.0000 0.0000
# 5 0.0000 0.0000 0.0000 0.0000 30.0471 0.0000
# 6 0.0000 0.0000 0.0000 0.0000 0.0000 28.7556
#
#
#
# Elastic Compliance Matrix: (Units=1/GPa)
#
#
# Indices 1 2 3 4 5 6 
#
# 1 0.010552 -0.003859 -0.003509 0.000000 0.000000 0.000000
# 2 -0.003859 0.014771 -0.002515 0.000000 0.000000 0.000000
# 3 -0.003509 -0.002515 0.011375 0.000000 0.000000 0.000000
# 4 0.000000 0.000000 0.000000 -0.048227 0.000000 0.000000
# 5 0.000000 0.000000 0.000000 0.000000 0.033281 0.000000
# 6 0.000000 0.000000 0.000000 0.000000 0.000000 0.034776
#
#
# Mechanical properties :
#
#
# Convention : Reuss Voigt Hill
#
# Bulk Modulus (GPa) = 59.05611 62.08477 60.57044
# Shear Modulus (GPa) = 61.02108 20.87831 40.94969
#
# Velocity S-wave (km/s) = 5.83451 3.41281 4.77958
# Velocity P-wave (km/s) = 8.85065 7.08270 8.01557
#
# Compressibility (1/GPa) = 0.01693305
#
# Stress axis : x y z
#
# Youngs Moduli (GPa) = 94.76808 67.69802 87.90891
#
# Poissons Ratio (x) = 0.26124 0.30851
# Poissons Ratio (y) = 0.36569 0.22106
# Poissons Ratio (z) = 0.33258 0.17024
#
# Static dielectric constant tensor:
#      x y z
#    x 3.515620 0.000000 0.000000 
#    y 0.000000 3.118000 0.000000 
#    z 0.000000 0.000000 4.000080 
# 
# 
# High freq. dielectric constant tensor:
#      x y z
#    x 1.719620 0.000000 0.000000 
#    y 0.000000 1.653410 0.000000 
#    z 0.000000 0.000000 1.710890 
# 
# From -- ./inp_files/73396.got.cif
#   From: 2010.03.12/outbox.cif.g09.slc.cpg/sg65_37_cif.got.tgz:73396.got - 2010.04.10 20:52:16.
