data_PCOD8265293
_publ_section_title
;
Structure prediction by ZEFSAII (Michael W. Deem and Ramdas Pophale) SiO2 
 PCOD8265293
Probable space group: C M M M
;
_chemical_formula_sum "Si O2"
_cell_formula_units_Z 80
_cell_length_a 23.675978
_cell_length_b 26.191551
_cell_length_c 8.923801
_cell_angle_alpha 90.000000
_cell_angle_beta 90.000000
_cell_angle_gamma 90.000000
_cell_volume 5533.743461
_symmetry_space_group_name_H-M "C M M M"
_symmetry_group_IT_number 65
_symmetry_cell_setting 'orthorhombic'
loop_
_space_group_symop_operation_xyz
x,y,z
-x,-y,z
x,-y,-z
-x,y,-z
-x,-y,-z
x,y,-z
-x,y,z
x,-y,z
1/2+x,1/2+y,z
1/2-x,1/2-y,z
1/2+x,1/2-y,-z
1/2-x,1/2+y,-z
1/2-x,1/2-y,-z
1/2+x,1/2+y,-z
1/2-x,1/2+y,z
1/2+x,1/2-y,z
loop_
_atom_site_type_symbol
_atom_site_label
_atom_site_fract_x
_atom_site_fract_y
_atom_site_fract_z
Si Si1 0.282024 0.303372 0.165379
Si Si2 0.386310 0.943547 0.676975
Si Si3 0.000000 0.392918 0.321585
Si Si4 0.316336 0.848511 0.675312
Si Si5 0.614661 0.758627 0.177725
Si Si6 0.500000 0.776145 0.677935
O O1 0.250000 0.250000 0.159400
O O2 0.249228 0.341343 0.277609
O O3 0.345825 0.290430 0.218297
O O4 0.282125 0.328403 0.000000
O O5 0.392956 0.947278 0.500000
O O6 0.444823 0.921311 0.743323
O O7 0.334525 0.906106 0.718111
O O8 0.374619 0.000000 0.744479
O O9 0.000000 0.393320 0.500000
O O10 0.000000 0.334602 0.266131
O O11 0.323210 0.837674 0.500000
O O12 0.358031 0.810499 0.760668
O O13 0.554832 0.748159 0.255308
O O14 0.608130 0.764224 0.000000
O O15 0.500000 0.771155 0.500000
#
# Coordination Sequence:
#
# PCOD8265293 Si02
#       6
#    16  16   8  16  16   8
#     4   8  16  29  42  56  76 103 132 160 199 252
#     4   9  16  25  38  57  80 106 137 174 212 245
#     4   9  15  25  38  54  76 102 136 173 205 235
#     4  10  17  26  42  62  79  99 134 176 209 237
#     4  10  19  30  42  57  79 108 135 160 202 252
#     4  11  19  28  43  63  82 102 137 176 205 234
#
# _framework density 14.456759
#
# number of rings (size 3 to 8) (size 9 to 14) (size 15 to 20)
#    0.000    2.600    2.000    3.000    0.000    5.600 
#    0.000    0.000    0.000    2.400    0.000    1.400 
#    0.000    0.000    0.000    0.900    0.000   18.200 
#
# Total GULP energy -495765.194002 kJ/mol
# GULP energy per Si atom -12394.129850 kJ/mol
# Density = 1.442386 g / cm^3
# Si number density = 14.456759 Si / 1000 Ang^3
#
#
#
# Elastic Constant Matrix: (Units=GPa)
#
#
# Indices 1 2 3 4 5 6 
#
# 1 122.3444 56.1989 42.4662 0.0000 0.0000 0.0000
# 2 56.1989 59.9545 24.9919 0.0000 0.0000 0.0000
# 3 42.4662 24.9919 55.0027 0.0000 0.0000 0.0000
# 4 0.0000 0.0000 0.0000 4.0883 0.0000 0.0000
# 5 0.0000 0.0000 0.0000 0.0000 23.7833 0.0000
# 6 0.0000 0.0000 0.0000 0.0000 0.0000 19.5345
#
#
#
# Elastic Compliance Matrix: (Units=1/GPa)
#
#
# Indices 1 2 3 4 5 6 
#
# 1 0.016251 -0.012340 -0.006940 0.000000 0.000000 0.000000
# 2 -0.012340 0.029947 -0.004080 0.000000 0.000000 0.000000
# 3 -0.006940 -0.004080 0.025393 0.000000 0.000000 0.000000
# 4 0.000000 0.000000 0.000000 0.244603 0.000000 0.000000
# 5 0.000000 0.000000 0.000000 0.000000 0.042046 0.000000
# 6 0.000000 0.000000 0.000000 0.000000 0.000000 0.051191
#
#
# Mechanical properties :
#
#
# Convention : Reuss Voigt Hill
#
# Bulk Modulus (GPa) = 40.20701 53.84616 47.02659
# Shear Modulus (GPa) = 10.76562 17.05753 13.91158
#
# Velocity S-wave (km/s) = 2.73184 3.43869 3.10544
# Velocity P-wave (km/s) = 6.15003 7.28652 6.74226
#
# Compressibility (1/GPa) = 0.02487128
#
# Stress axis : x y z
#
# Youngs Moduli (GPa) = 61.53504 33.39232 39.38126
#
# Poissons Ratio (x) = 0.41206 0.27330
# Poissons Ratio (y) = 0.75935 0.16067
# Poissons Ratio (z) = 0.42705 0.13623
#
# Static dielectric constant tensor:
#      x y z
#    x 3.121790 0.000000 0.000000 
#    y 0.000000 2.733340 0.000000 
#    z 0.000000 0.000000 2.714610 
# 
# 
# High freq. dielectric constant tensor:
#      x y z
#    x 1.549620 0.000000 0.000000 
#    y 0.000000 1.508710 0.000000 
#    z 0.000000 0.000000 1.541880 
# 
# From -- ./inp_files/14537.got.cif
#   From: 2010.03.12/outbox.cif.g09.slc.cpg/sg65_8_cif.got.tgz:14537.got - 2010.04.10 20:52:16.
