data_PCOD8265118
_publ_section_title
;
Structure prediction by ZEFSAII (Michael W. Deem and Ramdas Pophale) SiO2 
 PCOD8265118
Probable space group: C M M M
;
_chemical_formula_sum "Si O2"
_cell_formula_units_Z 64
_cell_length_a 8.006609
_cell_length_b 27.965233
_cell_length_c 17.888708
_cell_angle_alpha 90.000000
_cell_angle_beta 90.000000
_cell_angle_gamma 90.000000
_cell_volume 4005.401329
_symmetry_space_group_name_H-M "C M M M"
_symmetry_group_IT_number 65
_symmetry_cell_setting 'orthorhombic'
loop_
_space_group_symop_operation_xyz
x,y,z
-x,-y,z
x,-y,-z
-x,y,-z
-x,-y,-z
x,y,-z
-x,y,z
x,-y,z
1/2+x,1/2+y,z
1/2-x,1/2-y,z
1/2+x,1/2-y,-z
1/2-x,1/2+y,-z
1/2-x,1/2-y,-z
1/2+x,1/2+y,-z
1/2-x,1/2+y,z
1/2+x,1/2-y,z
loop_
_atom_site_type_symbol
_atom_site_label
_atom_site_fract_x
_atom_site_fract_y
_atom_site_fract_z
Si Si1 0.804400 0.304753 0.000000
Si Si2 0.693248 0.303957 0.154659
Si Si3 0.190639 0.304482 0.310960
Si Si4 0.187525 0.884084 0.413349
Si Si5 0.500000 0.946579 0.411323
O O1 0.750000 0.250000 0.000000
O O2 0.734893 0.330447 0.075771
O O3 0.000000 0.309254 0.000000
O O4 0.500000 0.307095 0.173474
O O5 0.750000 0.250000 0.143138
O O6 0.788743 0.325595 0.226611
O O7 0.250000 0.250000 0.312905
O O8 0.301006 0.334631 0.368479
O O9 0.000000 0.308347 0.336224
O O10 0.218848 0.872342 0.500000
O O11 0.330453 0.920365 0.383486
O O12 0.000000 0.905576 0.401767
O O13 0.500000 0.949158 0.500000
O O14 0.500000 0.000000 0.377327
#
# Coordination Sequence:
#
# PCOD8265118 Si02
#       5
#     8  16  16  16   8
#     4  10  16  24  36  52  74 104 144 189 230 265
#     4  10  17  26  38  55  78 109 150 190 228 268
#     4  11  20  31  45  63  90 125 162 196 229 271
#     4  10  20  34  50  70  95 122 155 193 233 279
#     4   9  18  34  54  74  94 117 149 193 242 287
#
# _framework density 15.978424
#
# number of rings (size 3 to 8) (size 9 to 14) (size 15 to 20)
#    0.000    1.875    1.250    8.625    0.000    1.000 
#    0.000    2.500    0.000    0.000    0.000    0.000 
#    0.000    0.000    0.000    2.250    0.000    9.250 
#
# Total GULP energy -396581.736061 kJ/mol
# GULP energy per Si atom -12393.179252 kJ/mol
# Density = 1.594206 g / cm^3
# Si number density = 15.978424 Si / 1000 Ang^3
#
#
#
# Elastic Constant Matrix: (Units=GPa)
#
#
# Indices 1 2 3 4 5 6 
#
# 1 117.9029 28.5624 25.8566 0.0000 0.0000 0.0000
# 2 28.5624 55.0913 32.7990 0.0000 0.0000 0.0000
# 3 25.8566 32.7990 80.9736 0.0000 0.0000 0.0000
# 4 0.0000 0.0000 0.0000 0.8538 0.0000 0.0000
# 5 0.0000 0.0000 0.0000 0.0000 26.2662 0.0000
# 6 0.0000 0.0000 0.0000 0.0000 0.0000 15.1312
#
#
#
# Elastic Compliance Matrix: (Units=1/GPa)
#
#
# Indices 1 2 3 4 5 6 
#
# 1 0.009821 -0.004250 -0.001415 0.000000 0.000000 0.000000
# 2 -0.004250 0.025759 -0.009077 0.000000 0.000000 0.000000
# 3 -0.001415 -0.009077 0.016478 0.000000 0.000000 0.000000
# 4 0.000000 0.000000 0.000000 1.171277 0.000000 0.000000
# 5 0.000000 0.000000 0.000000 0.000000 0.038072 0.000000
# 6 0.000000 0.000000 0.000000 0.000000 0.000000 0.066089
#
#
# Mechanical properties :
#
#
# Convention : Reuss Voigt Hill
#
# Bulk Modulus (GPa) = 44.29520 47.60041 45.94781
# Shear Modulus (GPa) = 3.66434 19.56689 11.61562
#
# Velocity S-wave (km/s) = 1.51601 3.50320 2.69914
# Velocity P-wave (km/s) = 5.55396 6.79841 6.20745
#
# Compressibility (1/GPa) = 0.02257581
#
# Stress axis : x y z
#
# Youngs Moduli (GPa) = 101.81944 38.82155 60.68647
#
# Poissons Ratio (x) = 0.16498 0.08586
# Poissons Ratio (y) = 0.43269 0.55084
# Poissons Ratio (z) = 0.14406 0.35238
#
# Static dielectric constant tensor:
#      x y z
#    x 3.263480 0.000000 0.000000 
#    y 0.000000 2.594620 0.000000 
#    z 0.000000 0.000000 3.701160 
# 
# 
# High freq. dielectric constant tensor:
#      x y z
#    x 1.641160 0.000000 0.000000 
#    y 0.000000 1.534840 0.000000 
#    z 0.000000 0.000000 1.619340 
# 
# From -- ./inp_files/36383.got.cif
#   From: 2010.03.12/outbox.cif.g09.slc.cpg/sg65_19_cif.got.tgz:36383.got - 2010.04.10 20:52:16.
