data_PCOD8265421
_publ_section_title
;
Structure prediction by ZEFSAII (Michael W. Deem and Ramdas Pophale) SiO2 
 PCOD8265421
Probable space group: C M M M
;
_chemical_formula_sum "Si O2"
_cell_formula_units_Z 80
_cell_length_a 11.062005
_cell_length_b 29.991100
_cell_length_c 14.425709
_cell_angle_alpha 90.000000
_cell_angle_beta 90.000000
_cell_angle_gamma 90.000000
_cell_volume 4785.897715
_symmetry_space_group_name_H-M "C M M M"
_symmetry_group_IT_number 65
_symmetry_cell_setting 'orthorhombic'
loop_
_space_group_symop_operation_xyz
x,y,z
-x,-y,z
x,-y,-z
-x,y,-z
-x,-y,-z
x,y,-z
-x,y,z
x,-y,z
1/2+x,1/2+y,z
1/2-x,1/2-y,z
1/2+x,1/2-y,-z
1/2-x,1/2+y,-z
1/2-x,1/2-y,-z
1/2+x,1/2+y,-z
1/2-x,1/2+y,z
1/2+x,1/2-y,z
loop_
_atom_site_type_symbol
_atom_site_label
_atom_site_fract_x
_atom_site_fract_y
_atom_site_fract_z
Si Si1 0.636991 0.220706 0.610374
Si Si2 0.228710 0.948059 0.101843
Si Si3 0.000000 0.107588 0.603226
Si Si4 0.238417 0.628338 0.394779
Si Si5 0.637708 0.050697 0.723441
Si Si6 0.000000 0.947085 0.786107
O O1 0.641017 0.223166 0.500000
O O2 0.500000 0.234508 0.644524
O O3 0.750000 0.250000 0.650261
O O4 0.662584 0.170124 0.644310
O O5 0.345307 0.939143 0.166711
O O6 0.114553 0.928144 0.157311
O O7 0.207011 0.000000 0.086253
O O8 0.244734 0.925425 0.000000
O O9 0.881779 0.139117 0.612483
O O10 0.000000 0.069675 0.680935
O O11 0.000000 0.085154 0.500000
O O12 0.198959 0.618897 0.500000
O O13 0.216573 0.583523 0.337798
O O14 0.500000 0.057554 0.696363
O O15 0.681031 0.000000 0.702799
O O16 0.000000 0.000000 0.780527
#
# Coordination Sequence:
#
# PCOD8265421 Si02
#       6
#    16  16   8  16  16   8
#     4   9  18  31  49  71  94 122 157 198 242 288
#     4   9  17  29  45  64  86 115 153 200 249 289
#     4  10  20  30  45  68  92 127 159 193 238 284
#     4  10  20  33  48  67  96 128 161 198 240 282
#     4  10  20  32  46  65  91 127 166 200 235 281
#     4  10  17  29  46  65  89 120 161 203 242 282
#
# _framework density 16.715776999999999
#
# number of rings (size 3 to 8) (size 9 to 14) (size 15 to 20)
#    0.000    2.400    2.000    0.900    1.400    3.400 
#    0.000    5.000    0.000    0.000    0.000    0.000 
#    0.000    0.800    0.000    1.800    0.000    0.400 
#
# Total GULP energy -495573.935545 kJ/mol
# GULP energy per Si atom -12389.348389 kJ/mol
# Density = 1.667773 g / cm^3
# Si number density = 16.715777 Si / 1000 Ang^3
#
#
#
# Elastic Constant Matrix: (Units=GPa)
#
#
# Indices 1 2 3 4 5 6 
#
# 1 106.7203 39.0976 22.9229 0.0000 0.0000 0.0000
# 2 39.0976 58.4485 28.8268 0.0000 0.0000 0.0000
# 3 22.9229 28.8268 77.0275 0.0000 0.0000 0.0000
# 4 0.0000 0.0000 0.0000 0.9182 0.0000 0.0000
# 5 0.0000 0.0000 0.0000 0.0000 17.7133 0.0000
# 6 0.0000 0.0000 0.0000 0.0000 0.0000 22.3128
#
#
#
# Elastic Compliance Matrix: (Units=1/GPa)
#
#
# Indices 1 2 3 4 5 6 
#
# 1 0.012445 -0.007969 -0.000721 0.000000 0.000000 0.000000
# 2 -0.007969 0.026085 -0.007390 0.000000 0.000000 0.000000
# 3 -0.000721 -0.007390 0.015963 0.000000 0.000000 0.000000
# 4 0.000000 0.000000 0.000000 1.089049 0.000000 0.000000
# 5 0.000000 0.000000 0.000000 0.000000 0.056455 0.000000
# 6 0.000000 0.000000 0.000000 0.000000 0.000000 0.044817
#
#
# Mechanical properties :
#
#
# Convention : Reuss Voigt Hill
#
# Bulk Modulus (GPa) = 44.78055 47.09898 45.93977
# Shear Modulus (GPa) = 3.89281 18.27881 11.08581
#
# Velocity S-wave (km/s) = 1.52770 3.31041 2.57805
# Velocity P-wave (km/s) = 5.47352 6.54594 6.03360
#
# Compressibility (1/GPa) = 0.02233112
#
# Stress axis : x y z
#
# Youngs Moduli (GPa) = 80.35606 38.33693 62.64571
#
# Poissons Ratio (x) = 0.30550 0.04518
# Poissons Ratio (y) = 0.64034 0.46298
# Poissons Ratio (z) = 0.05795 0.28333
#
# Static dielectric constant tensor:
#      x y z
#    x 3.454760 0.000000 0.000000 
#    y 0.000000 2.827130 0.000000 
#    z 0.000000 0.000000 3.072300 
# 
# 
# High freq. dielectric constant tensor:
#      x y z
#    x 1.665890 0.000000 0.000000 
#    y 0.000000 1.599200 0.000000 
#    z 0.000000 0.000000 1.614670 
# 
# From -- ./inp_files/33543.got.cif
#   From: 2010.03.12/outbox.cif.g09.slc.cpg/sg65_17_cif.got.tgz:33543.got - 2010.04.10 20:52:16.
