data_PCOD8265659
_publ_section_title
;
Structure prediction by ZEFSAII (Michael W. Deem and Ramdas Pophale) SiO2 
 PCOD8265659
Probable space group: C M M M
;
_chemical_formula_sum "Si O2"
_cell_formula_units_Z 104
_cell_length_a 28.593719
_cell_length_b 17.449701
_cell_length_c 12.451186
_cell_angle_alpha 90.000000
_cell_angle_beta 90.000000
_cell_angle_gamma 90.000000
_cell_volume 6212.542252
_symmetry_space_group_name_H-M "C M M M"
_symmetry_group_IT_number 65
_symmetry_cell_setting 'orthorhombic'
loop_
_space_group_symop_operation_xyz
x,y,z
-x,-y,z
x,-y,-z
-x,y,-z
-x,-y,-z
x,y,-z
-x,y,z
x,-y,z
1/2+x,1/2+y,z
1/2-x,1/2-y,z
1/2+x,1/2-y,-z
1/2-x,1/2+y,-z
1/2-x,1/2-y,-z
1/2+x,1/2+y,-z
1/2-x,1/2+y,z
1/2+x,1/2-y,z
loop_
_atom_site_type_symbol
_atom_site_label
_atom_site_fract_x
_atom_site_fract_y
_atom_site_fract_z
Si Si1 0.209860 0.410802 0.706789
Si Si2 0.947670 0.298608 0.872885
Si Si3 0.894359 0.148644 0.126971
Si Si4 0.818083 0.909848 0.267870
Si Si5 0.551618 0.500000 0.872398
Si Si6 0.226342 0.665620 0.500000
Si Si7 0.679653 0.587936 0.500000
Si Si8 0.632045 0.088927 0.122531
O O1 0.202635 0.500000 0.674728
O O2 0.262898 0.395303 0.744296
O O3 0.196739 0.352928 0.608011
O O4 0.176069 0.387643 0.804722
O O5 0.922868 0.221586 0.830625
O O6 0.915118 0.369243 0.837219
O O7 0.000000 0.306791 0.823081
O O8 0.952317 0.294463 0.000000
O O9 0.843082 0.142896 0.179513
O O10 0.922469 0.075182 0.168959
O O11 0.887335 0.150448 0.000000
O O12 0.837866 0.879410 0.385032
O O13 0.828871 0.000000 0.251124
O O14 0.500000 0.500000 0.822504
O O15 0.549314 0.500000 0.000000
O O16 0.250000 0.750000 0.500000
O O17 0.264676 0.598310 0.500000
O O18 0.667494 0.500000 0.500000
O O19 0.620657 0.000000 0.131165
O O20 0.644214 0.112901 0.000000
#
# Coordination Sequence:
#
# PCOD8265659 Si02
#       8
#    16  16  16  16   8   8   8  16
#     4   9  18  32  49  68  97 130 158 193 237 279
#     4   9  18  32  48  66  92 123 152 191 241 283
#     4  10  18  27  42  68  95 118 151 189 233 284
#     4   9  16  28  45  65  90 123 157 187 220 265
#     4   9  16  26  40  59  87 117 149 190 226 266
#     4  10  18  28  46  70  94 122 164 203 228 267
#     4   8  16  30  44  58  83 121 161 191 218 255
#     4   9  18  32  49  71  95 122 159 196 236 291
#
# _framework density 16.740328999999999
#
# number of rings (size 3 to 8) (size 9 to 14) (size 15 to 20)
#    0.000    2.846    0.769    2.077    0.000    5.231 
#    0.000    3.077    0.000    3.231    0.000    4.308 
#    0.000    2.462    0.000    0.000    0.000    0.000 
#
# Total GULP energy -644279.356813 kJ/mol
# GULP energy per Si atom -12389.987631 kJ/mol
# Density = 1.670223 g / cm^3
# Si number density = 16.740329 Si / 1000 Ang^3
#
#
#
# Elastic Constant Matrix: (Units=GPa)
#
#
# Indices 1 2 3 4 5 6 
#
# 1 114.5545 51.0566 54.9151 0.0000 0.0000 0.0000
# 2 51.0566 72.0080 40.0516 0.0000 0.0000 0.0000
# 3 54.9151 40.0516 74.7460 0.0000 0.0000 0.0000
# 4 0.0000 0.0000 0.0000 16.3956 0.0000 0.0000
# 5 0.0000 0.0000 0.0000 0.0000 4.4830 0.0000
# 6 0.0000 0.0000 0.0000 0.0000 0.0000 25.7520
#
#
#
# Elastic Compliance Matrix: (Units=1/GPa)
#
#
# Indices 1 2 3 4 5 6 
#
# 1 0.015396 -0.006589 -0.007781 0.000000 0.000000 0.000000
# 2 -0.006589 0.022603 -0.007271 0.000000 0.000000 0.000000
# 3 -0.007781 -0.007271 0.022991 0.000000 0.000000 0.000000
# 4 0.000000 0.000000 0.000000 0.060992 0.000000 0.000000
# 5 0.000000 0.000000 0.000000 0.000000 0.223066 0.000000
# 6 0.000000 0.000000 0.000000 0.000000 0.000000 0.038832
#
#
# Mechanical properties :
#
#
# Convention : Reuss Voigt Hill
#
# Bulk Modulus (GPa) = 56.46712 61.48391 58.97551
# Shear Modulus (GPa) = 11.54563 17.01180 14.27872
#
# Velocity S-wave (km/s) = 2.62904 3.19127 2.92370
# Velocity P-wave (km/s) = 6.55898 7.09836 6.83399
#
# Compressibility (1/GPa) = 0.01770942
#
# Stress axis : x y z
#
# Youngs Moduli (GPa) = 64.95217 44.24174 43.49487
#
# Poissons Ratio (x) = 0.29149 0.33843
# Poissons Ratio (y) = 0.42794 0.31625
# Poissons Ratio (z) = 0.50538 0.32168
#
# Static dielectric constant tensor:
#      x y z
#    x 3.113370 0.000000 0.000000 
#    y 0.000000 3.128880 0.000000 
#    z 0.000000 0.000000 3.174140 
# 
# 
# High freq. dielectric constant tensor:
#      x y z
#    x 1.627080 0.000000 0.000000 
#    y 0.000000 1.643450 0.000000 
#    z 0.000000 0.000000 1.620040 
# 
# From -- ./inp_files/32597.got.cif
#   From: 2010.03.12/outbox.cif.g09.slc.cpg/sg65_17_cif.got.tgz:32597.got - 2010.04.10 20:52:16.
