data_PCOD8265373
_publ_section_title
;
Structure prediction by ZEFSAII (Michael W. Deem and Ramdas Pophale) SiO2 
 PCOD8265373
Probable space group: C M M M
;
_chemical_formula_sum "Si O2"
_cell_formula_units_Z 72
_cell_length_a 15.619722
_cell_length_b 23.721945
_cell_length_c 12.397432
_cell_angle_alpha 90.000000
_cell_angle_beta 90.000000
_cell_angle_gamma 90.000000
_cell_volume 4593.622787
_symmetry_space_group_name_H-M "C M M M"
_symmetry_group_IT_number 65
_symmetry_cell_setting 'orthorhombic'
loop_
_space_group_symop_operation_xyz
x,y,z
-x,-y,z
x,-y,-z
-x,y,-z
-x,-y,-z
x,y,-z
-x,y,z
x,-y,z
1/2+x,1/2+y,z
1/2-x,1/2-y,z
1/2+x,1/2-y,-z
1/2-x,1/2+y,-z
1/2-x,1/2-y,-z
1/2+x,1/2+y,-z
1/2-x,1/2+y,z
1/2+x,1/2-y,z
loop_
_atom_site_type_symbol
_atom_site_label
_atom_site_fract_x
_atom_site_fract_y
_atom_site_fract_z
Si Si1 0.905635 0.641584 0.127526
Si Si2 0.259766 0.061864 0.875146
Si Si3 0.594037 0.378220 0.198055
Si Si4 0.650315 0.261397 0.124334
Si Si5 0.500000 0.566998 0.625119
O O1 0.832457 0.601582 0.179706
O O2 0.897471 0.705788 0.168282
O O3 0.000000 0.618400 0.158276
O O4 0.891500 0.643267 0.000000
O O5 0.165143 0.086943 0.865378
O O6 0.263862 0.000000 0.820690
O O7 0.281645 0.056224 0.000000
O O8 0.500000 0.384281 0.141041
O O9 0.621267 0.312747 0.200454
O O10 0.584183 0.404170 0.319380
O O11 0.750000 0.250000 0.135499
O O12 0.626735 0.275881 0.000000
O O13 0.500000 0.500000 0.645574
O O14 0.500000 0.581996 0.500000
#
# Coordination Sequence:
#
# PCOD8265373 Si02
#       5
#    16  16  16  16   8
#     4   9  17  28  42  60  88 131 171 195 219 259
#     4  10  19  29  41  64  99 130 159 196 232 275
#     4  10  20  30  49  71  91 123 159 195 241 288
#     4  10  17  28  45  68 100 132 161 193 230 279
#     4   9  20  38  55  71  93 121 157 202 252 308
#
# _framework density 15.673904
#
# number of rings (size 3 to 8) (size 9 to 14) (size 15 to 20)
#    0.667    1.667    2.222    2.000    0.000    3.111 
#    0.000    3.333    0.000    0.667    0.000    0.000 
#    0.000    0.000    0.000    4.667    0.000    0.222 
#
# Total GULP energy -446021.964621 kJ/mol
# GULP energy per Si atom -12389.499017 kJ/mol
# Density = 1.563823 g / cm^3
# Si number density = 15.673904 Si / 1000 Ang^3
#
#
#
# Elastic Constant Matrix: (Units=GPa)
#
#
# Indices 1 2 3 4 5 6 
#
# 1 104.3426 61.7420 13.2607 0.0000 0.0000 0.0000
# 2 61.7420 147.8823 29.2611 0.0000 0.0000 0.0000
# 3 13.2607 29.2611 31.6639 0.0000 0.0000 0.0000
# 4 0.0000 0.0000 0.0000 15.9457 0.0000 0.0000
# 5 0.0000 0.0000 0.0000 0.0000 4.0201 0.0000
# 6 0.0000 0.0000 0.0000 0.0000 0.0000 25.0303
#
#
#
# Elastic Compliance Matrix: (Units=1/GPa)
#
#
# Indices 1 2 3 4 5 6 
#
# 1 0.012735 -0.005215 -0.000514 0.000000 0.000000 0.000000
# 2 -0.005215 0.010411 -0.007437 0.000000 0.000000 0.000000
# 3 -0.000514 -0.007437 0.038669 0.000000 0.000000 0.000000
# 4 0.000000 0.000000 0.000000 0.062713 0.000000 0.000000
# 5 0.000000 0.000000 0.000000 0.000000 0.248750 0.000000
# 6 0.000000 0.000000 0.000000 0.000000 0.000000 0.039952
#
#
# Mechanical properties :
#
#
# Convention : Reuss Voigt Hill
#
# Bulk Modulus (GPa) = 28.18208 54.71292 41.44750
# Shear Modulus (GPa) = 11.07688 20.97421 16.02554
#
# Velocity S-wave (km/s) = 2.66128 3.66206 3.20102
# Velocity P-wave (km/s) = 5.24047 7.27074 6.33744
#
# Compressibility (1/GPa) = 0.03548354
#
# Stress axis : x y z
#
# Youngs Moduli (GPa) = 78.52266 96.05126 25.86024
#
# Poissons Ratio (x) = 0.50094 0.01329
# Poissons Ratio (y) = 0.40952 0.19232
# Poissons Ratio (z) = 0.04035 0.71432
#
# Static dielectric constant tensor:
#      x y z
#    x 3.073020 0.000000 0.000000 
#    y 0.000000 3.341270 0.000000 
#    z 0.000000 0.000000 2.368280 
# 
# 
# High freq. dielectric constant tensor:
#      x y z
#    x 1.614810 0.000000 0.000000 
#    y 0.000000 1.622340 0.000000 
#    z 0.000000 0.000000 1.511520 
# 
# From -- ./inp_files/26552.got.cif
#   From: 2010.03.12/outbox.cif.g09.slc.cpg/sg65_14_cif.got.tgz:26552.got - 2010.04.10 20:52:16.
