data_PCOD8265332
_publ_section_title
;
Structure prediction by ZEFSAII (Michael W. Deem and Ramdas Pophale) SiO2 
 PCOD8265332
Probable space group: C M M M
;
_chemical_formula_sum "Si O2"
_cell_formula_units_Z 80
_cell_length_a 17.818050
_cell_length_b 26.459872
_cell_length_c 11.865801
_cell_angle_alpha 90.000000
_cell_angle_beta 90.000000
_cell_angle_gamma 90.000000
_cell_volume 5594.289961
_symmetry_space_group_name_H-M "C M M M"
_symmetry_group_IT_number 65
_symmetry_cell_setting 'orthorhombic'
loop_
_space_group_symop_operation_xyz
x,y,z
-x,-y,z
x,-y,-z
-x,y,-z
-x,-y,-z
x,y,-z
-x,y,z
x,-y,z
1/2+x,1/2+y,z
1/2-x,1/2-y,z
1/2+x,1/2-y,-z
1/2-x,1/2+y,-z
1/2-x,1/2-y,-z
1/2+x,1/2+y,-z
1/2-x,1/2+y,z
1/2+x,1/2-y,z
loop_
_atom_site_type_symbol
_atom_site_label
_atom_site_fract_x
_atom_site_fract_y
_atom_site_fract_z
Si Si1 0.912111 0.442578 0.239327
Si Si2 0.589087 0.905095 0.000000
Si Si3 0.653745 0.148635 0.633062
Si Si4 0.587491 0.242792 0.759699
Si Si5 0.700356 0.299882 0.376228
Si Si6 0.588817 0.207719 0.000000
O O1 0.894992 0.500000 0.274488
O O2 0.868756 0.406807 0.326055
O O3 0.000000 0.430181 0.247589
O O4 0.882725 0.433767 0.111874
O O5 0.623213 0.848630 0.000000
O O6 0.500000 0.904127 0.000000
O O7 0.639941 0.153974 0.500000
O O8 0.602817 0.190790 0.693633
O O9 0.742397 0.155905 0.662385
O O10 0.500000 0.255396 0.752518
O O11 0.631807 0.291055 0.709470
O O12 0.615427 0.237189 0.888622
O O13 0.666662 0.311782 0.500000
O O14 0.750000 0.250000 0.382285
O O15 0.500000 0.202246 0.000000
#
# Coordination Sequence:
#
# PCOD8265332 Si02
#       6
#    16   8  16  16  16   8
#     4  10  19  29  43  61  79 104 140 176 204 234
#     4   9  15  28  42  56  79 107 137 169 206 240
#     4  10  19  30  41  55  82 112 134 165 207 243
#     4  10  17  27  43  61  80 104 137 170 198 235
#     4   8  16  29  41  55  78 107 135 164 200 243
#     4   9  16  25  40  60  82 106 133 166 204 242
#
# _framework density 14.300295999999999
#
# number of rings (size 3 to 8) (size 9 to 14) (size 15 to 20)
#    0.000    2.600    2.000    2.700    0.000    4.400 
#    0.000    6.500    0.000    0.000    0.000    0.000 
#    0.000    0.800    0.000    4.400    0.000    8.200 
#
# Total GULP energy -495810.911182 kJ/mol
# GULP energy per Si atom -12395.272780 kJ/mol
# Density = 1.426775 g / cm^3
# Si number density = 14.300296 Si / 1000 Ang^3
#
#
#
# Elastic Constant Matrix: (Units=GPa)
#
#
# Indices 1 2 3 4 5 6 
#
# 1 60.2543 39.2980 45.0365 0.0000 0.0000 0.0000
# 2 39.2980 64.5648 40.0987 0.0000 0.0000 0.0000
# 3 45.0365 40.0987 104.2919 0.0000 0.0000 0.0000
# 4 0.0000 0.0000 0.0000 15.9581 0.0000 0.0000
# 5 0.0000 0.0000 0.0000 0.0000 7.9202 0.0000
# 6 0.0000 0.0000 0.0000 0.0000 0.0000 21.6907
#
#
#
# Elastic Compliance Matrix: (Units=1/GPa)
#
#
# Indices 1 2 3 4 5 6 
#
# 1 0.032285 -0.014440 -0.008390 0.000000 0.000000 0.000000
# 2 -0.014440 0.026806 -0.004071 0.000000 0.000000 0.000000
# 3 -0.008390 -0.004071 0.014776 0.000000 0.000000 0.000000
# 4 0.000000 0.000000 0.000000 0.062664 0.000000 0.000000
# 5 0.000000 0.000000 0.000000 0.000000 0.126259 0.000000
# 6 0.000000 0.000000 0.000000 0.000000 0.000000 0.046103
#
#
# Mechanical properties :
#
#
# Convention : Reuss Voigt Hill
#
# Bulk Modulus (GPa) = 49.83501 53.10860 51.47180
# Shear Modulus (GPa) = 13.53610 16.09233 14.81421
#
# Velocity S-wave (km/s) = 3.07996 3.35821 3.22209
# Velocity P-wave (km/s) = 6.89730 7.22880 7.06499
#
# Compressibility (1/GPa) = 0.02006621
#
# Stress axis : x y z
#
# Youngs Moduli (GPa) = 30.97416 37.30574 67.67510
#
# Poissons Ratio (x) = 0.53870 0.56777
# Poissons Ratio (y) = 0.44727 0.27548
# Poissons Ratio (z) = 0.25986 0.15186
#
# Static dielectric constant tensor:
#      x y z
#    x 2.701210 0.000000 0.000000 
#    y 0.000000 2.680570 0.000000 
#    z 0.000000 0.000000 3.024300 
# 
# 
# High freq. dielectric constant tensor:
#      x y z
#    x 1.510880 0.000000 0.000000 
#    y 0.000000 1.513440 0.000000 
#    z 0.000000 0.000000 1.562030 
# 
# From -- ./inp_files/27034.got.cif
#   From: 2010.03.12/outbox.cif.g09.slc.cpg/sg65_14_cif.got.tgz:27034.got - 2010.04.10 20:52:16.
