data_PCOD8265846
_publ_section_title
;
Structure prediction by ZEFSAII (Michael W. Deem and Ramdas Pophale) SiO2 
 PCOD8265846
Probable space group: C M M M
;
_chemical_formula_sum "Si O2"
_cell_formula_units_Z 104
_cell_length_a 7.788645
_cell_length_b 28.413254
_cell_length_c 27.223350
_cell_angle_alpha 90.000000
_cell_angle_beta 90.000000
_cell_angle_gamma 90.000000
_cell_volume 6024.547737
_symmetry_space_group_name_H-M "C M M M"
_symmetry_group_IT_number 65
_symmetry_cell_setting 'orthorhombic'
loop_
_space_group_symop_operation_xyz
x,y,z
-x,-y,z
x,-y,-z
-x,y,-z
-x,-y,-z
x,y,-z
-x,y,z
x,-y,z
1/2+x,1/2+y,z
1/2-x,1/2-y,z
1/2+x,1/2-y,-z
1/2-x,1/2+y,-z
1/2-x,1/2-y,-z
1/2+x,1/2+y,-z
1/2-x,1/2+y,z
1/2+x,1/2-y,z
loop_
_atom_site_type_symbol
_atom_site_label
_atom_site_fract_x
_atom_site_fract_y
_atom_site_fract_z
Si Si1 0.307317 0.699322 0.558313
Si Si2 0.000000 0.367691 0.441901
Si Si3 0.000000 0.555990 0.363816
Si Si4 0.197175 0.604121 0.095570
Si Si5 0.294942 0.946614 0.000000
Si Si6 0.703347 0.053819 0.808896
Si Si7 0.309711 0.555556 0.296304
Si Si8 0.798984 0.801125 0.944581
O O1 0.306915 0.702083 0.500000
O O2 0.500000 0.686772 0.577265
O O3 0.250000 0.750000 0.579656
O O4 0.170142 0.660359 0.575515
O O5 0.000000 0.418611 0.416398
O O6 0.000000 0.376198 0.500000
O O7 0.832513 0.574070 0.334260
O O8 0.000000 0.500000 0.372868
O O9 0.279391 0.584798 0.146079
O O10 0.216546 0.660297 0.091322
O O11 0.000000 0.589351 0.097075
O O12 0.282522 0.579251 0.048035
O O13 0.500000 0.943409 0.000000
O O14 0.230144 0.000000 0.000000
O O15 0.500000 0.057377 0.804343
O O16 0.781283 0.075235 0.758705
O O17 0.761232 0.000000 0.817685
O O18 0.500000 0.569998 0.314905
O O19 0.287377 0.500000 0.292800
O O20 0.750000 0.750000 0.923478
O O21 0.000000 0.808303 0.944862
O O22 0.723791 0.806584 0.000000
#
# Coordination Sequence:
#
# PCOD8265846 Si02
#       8
#    16   8   8  16   8  16  16  16
#     4   9  15  26  46  72 105 140 174 217 261 301
#     4  10  20  31  48  78 110 144 180 213 258 311
#     4  10  20  35  52  72 106 143 180 223 254 297
#     4  10  18  28  46  70  96 124 154 188 232 286
#     4   9  16  26  40  63  96 133 162 177 208 279
#     4   9  16  28  47  73 101 125 155 199 246 293
#     4   9  17  31  52  73  94 127 172 220 264 296
#     4  10  20  33  48  63  85 116 155 202 242 279
#
# _framework density 17.262708
#
# number of rings (size 3 to 8) (size 9 to 14) (size 15 to 20)
#    0.000    2.538    2.308    0.923    0.000    3.846 
#    0.000    0.000    0.000    1.846    0.000    5.385 
#    0.000    0.000    0.000    0.000    0.000    0.000 
#
# Total GULP energy -644604.998423 kJ/mol
# GULP energy per Si atom -12396.249970 kJ/mol
# Density = 1.722342 g / cm^3
# Si number density = 17.262708 Si / 1000 Ang^3
#
#
#
# Elastic Constant Matrix: (Units=GPa)
#
#
# Indices 1 2 3 4 5 6 
#
# 1 92.3883 23.9272 32.3042 0.0000 0.0000 0.0000
# 2 23.9272 92.6355 45.4205 0.0000 0.0000 0.0000
# 3 32.3042 45.4205 79.6275 0.0000 0.0000 0.0000
# 4 0.0000 0.0000 0.0000 15.3177 0.0000 0.0000
# 5 0.0000 0.0000 0.0000 0.0000 8.6613 0.0000
# 6 0.0000 0.0000 0.0000 0.0000 0.0000 16.2716
#
#
#
# Elastic Compliance Matrix: (Units=1/GPa)
#
#
# Indices 1 2 3 4 5 6 
#
# 1 0.012686 -0.001046 -0.004550 0.000000 0.000000 0.000000
# 2 -0.001046 0.015073 -0.008173 0.000000 0.000000 0.000000
# 3 -0.004550 -0.008173 0.019067 0.000000 0.000000 0.000000
# 4 0.000000 0.000000 0.000000 0.065284 0.000000 0.000000
# 5 0.000000 0.000000 0.000000 0.000000 0.115456 0.000000
# 6 0.000000 0.000000 0.000000 0.000000 0.000000 0.061457
#
#
# Mechanical properties :
#
#
# Convention : Reuss Voigt Hill
#
# Bulk Modulus (GPa) = 51.84920 51.99502 51.92211
# Shear Modulus (GPa) = 15.48045 18.91675 17.19860
#
# Velocity S-wave (km/s) = 2.99784 3.31390 3.15982
# Velocity P-wave (km/s) = 6.48716 6.69536 6.59208
#
# Compressibility (1/GPa) = 0.01928670
#
# Stress axis : x y z
#
# Youngs Moduli (GPa) = 78.82933 66.34549 52.44784
#
# Poissons Ratio (x) = 0.06938 0.23864
# Poissons Ratio (y) = 0.08243 0.42868
# Poissons Ratio (z) = 0.35867 0.54227
#
# Static dielectric constant tensor:
#      x y z
#    x 3.276210 0.000000 0.000000 
#    y 0.000000 3.039530 0.000000 
#    z 0.000000 0.000000 3.023910 
# 
# 
# High freq. dielectric constant tensor:
#      x y z
#    x 1.671260 0.000000 0.000000 
#    y 0.000000 1.641930 0.000000 
#    z 0.000000 0.000000 1.631920 
# 
# From -- ./inp_files/68323.got.cif
#   From: 2010.03.12/outbox.cif.g09.slc.cpg/sg65_35_cif.got.tgz:68323.got - 2010.04.10 20:52:16.
