data_PCOD8265741
_publ_section_title
;
Structure prediction by ZEFSAII (Michael W. Deem and Ramdas Pophale) SiO2 
 PCOD8265741
Probable space group: C M M M
;
_chemical_formula_sum "Si O2"
_cell_formula_units_Z 72
_cell_length_a 27.456662
_cell_length_b 9.238453
_cell_length_c 16.408799
_cell_angle_alpha 90.000000
_cell_angle_beta 90.000000
_cell_angle_gamma 90.000000
_cell_volume 4162.208064
_symmetry_space_group_name_H-M "C M M M"
_symmetry_group_IT_number 65
_symmetry_cell_setting 'orthorhombic'
loop_
_space_group_symop_operation_xyz
x,y,z
-x,-y,z
x,-y,-z
-x,y,-z
-x,-y,-z
x,y,-z
-x,y,z
x,-y,z
1/2+x,1/2+y,z
1/2-x,1/2-y,z
1/2+x,1/2-y,-z
1/2-x,1/2+y,-z
1/2-x,1/2-y,-z
1/2+x,1/2+y,-z
1/2-x,1/2+y,z
1/2+x,1/2-y,z
loop_
_atom_site_type_symbol
_atom_site_label
_atom_site_fract_x
_atom_site_fract_y
_atom_site_fract_z
Si Si1 0.446187 0.172866 0.750237
Si Si2 0.801775 0.673115 0.500000
Si Si3 0.395957 0.171219 0.089276
Si Si4 0.798439 0.669589 0.825071
Si Si5 0.851435 0.328521 0.664416
O O1 0.500000 0.231263 0.726916
O O2 0.432102 0.231290 0.840701
O O3 0.406252 0.229244 0.684459
O O4 0.445590 0.000000 0.751631
O O5 0.794428 0.500000 0.500000
O O6 0.750000 0.750000 0.500000
O O7 0.832392 0.728995 0.422128
O O8 0.340476 0.211786 0.111182
O O9 0.401230 0.000000 0.086478
O O10 0.408884 0.236985 0.000000
O O11 0.788026 0.500000 0.825082
O O12 0.750000 0.750000 0.852868
O O13 0.814529 0.722762 0.734953
O O14 0.853417 0.500000 0.663590
#
# Coordination Sequence:
#
# PCOD8265741 Si02
#       5
#    16   8  16  16  16
#     4   8  13  22  36  53  76 105 131 156 192 237
#     4  10  18  28  43  61  83 109 134 160 191 228
#     4   8  14  23  34  51  75 101 129 161 195 229
#     4   9  16  26  39  54  76 105 132 159 193 231
#     4   8  15  26  38  55  79 104 129 160 197 230
#
# _framework density 17.29851
#
# number of rings (size 3 to 8) (size 9 to 14) (size 15 to 20)
#    0.000    3.556    0.000    3.333    0.000    0.889 
#    0.000    2.778    0.000    3.333    0.000    0.000 
#    0.000   23.111    0.000    8.000    0.000    8.889 
#
# Total GULP energy -446022.292691 kJ/mol
# GULP energy per Si atom -12389.508130 kJ/mol
# Density = 1.725914 g / cm^3
# Si number density = 17.298510 Si / 1000 Ang^3
#
#
#
# Elastic Constant Matrix: (Units=GPa)
#
#
# Indices 1 2 3 4 5 6 
#
# 1 140.0913 16.1737 53.0694 0.0000 0.0000 0.0000
# 2 16.1737 10.3535 6.3241 0.0000 0.0000 0.0000
# 3 53.0694 6.3241 121.6314 0.0000 0.0000 0.0000
# 4 0.0000 0.0000 0.0000 7.3808 0.0000 0.0000
# 5 0.0000 0.0000 0.0000 0.0000 18.5448 0.0000
# 6 0.0000 0.0000 0.0000 0.0000 0.0000 17.1737
#
#
#
# Elastic Compliance Matrix: (Units=1/GPa)
#
#
# Indices 1 2 3 4 5 6 
#
# 1 0.010102 -0.013518 -0.003705 0.000000 0.000000 0.000000
# 2 -0.013518 0.117843 -0.000229 0.000000 0.000000 0.000000
# 3 -0.003705 -0.000229 0.009850 0.000000 0.000000 0.000000
# 4 0.000000 0.000000 0.000000 0.135487 0.000000 0.000000
# 5 0.000000 0.000000 0.000000 0.000000 0.053923 0.000000
# 6 0.000000 0.000000 0.000000 0.000000 0.000000 0.058229
#
#
# Mechanical properties :
#
#
# Convention : Reuss Voigt Hill
#
# Bulk Modulus (GPa) = 9.71899 47.02338 28.37119
# Shear Modulus (GPa) = 10.99779 21.72045 16.35912
#
# Velocity S-wave (km/s) = 2.52417 3.54732 3.07855
# Velocity P-wave (km/s) = 3.75844 6.63480 5.39196
#
# Compressibility (1/GPa) = 0.10289132
#
# Stress axis : x y z
#
# Youngs Moduli (GPa) = 98.98609 8.48584 101.52302
#
# Poissons Ratio (x) = 0.11472 0.37614
# Poissons Ratio (y) = 1.33814 0.02323
# Poissons Ratio (z) = 0.36674 0.00194
#
# Static dielectric constant tensor:
#      x y z
#    x 3.473780 0.000000 0.000000 
#    y 0.000000 2.511950 0.000000 
#    z 0.000000 0.000000 3.691160 
# 
# 
# High freq. dielectric constant tensor:
#      x y z
#    x 1.674350 0.000000 0.000000 
#    y 0.000000 1.588820 0.000000 
#    z 0.000000 0.000000 1.670110 
# 
# From -- ./inp_files/37010.got.cif
#   From: 2010.03.12/outbox.cif.g09.slc.cpg/sg65_19_cif.got.tgz:37010.got - 2010.04.10 20:52:16.
