data_PCOD8265672
_publ_section_title
;
Structure prediction by ZEFSAII (Michael W. Deem and Ramdas Pophale) SiO2 
 PCOD8265672
Probable space group: C M M M
;
_chemical_formula_sum "Si O2"
_cell_formula_units_Z 96
_cell_length_a 13.666285
_cell_length_b 16.783864
_cell_length_c 24.128767
_cell_angle_alpha 90.000000
_cell_angle_beta 90.000000
_cell_angle_gamma 90.000000
_cell_volume 5534.489334
_symmetry_space_group_name_H-M "C M M M"
_symmetry_group_IT_number 65
_symmetry_cell_setting 'orthorhombic'
loop_
_space_group_symop_operation_xyz
x,y,z
-x,-y,z
x,-y,-z
-x,y,-z
-x,-y,-z
x,y,-z
-x,y,z
x,-y,z
1/2+x,1/2+y,z
1/2-x,1/2-y,z
1/2+x,1/2-y,-z
1/2-x,1/2+y,-z
1/2-x,1/2-y,-z
1/2+x,1/2+y,-z
1/2-x,1/2+y,z
1/2+x,1/2-y,z
loop_
_atom_site_type_symbol
_atom_site_label
_atom_site_fract_x
_atom_site_fract_y
_atom_site_fract_z
Si Si1 0.883673 0.912588 0.500000
Si Si2 0.718872 0.907752 0.109227
Si Si3 0.890305 0.904533 0.381247
Si Si4 0.223035 0.092717 0.274945
Si Si5 0.110849 0.594969 0.000000
Si Si6 0.611064 0.839681 0.790810
Si Si7 0.388247 0.341457 0.174550
O O1 0.853422 0.870342 0.441579
O O2 0.000000 0.921068 0.500000
O O3 0.835237 0.000000 0.500000
O O4 0.668796 0.873260 0.053773
O O5 0.642281 0.897751 0.159342
O O6 0.819779 0.860854 0.121718
O O7 0.744808 0.000000 0.102048
O O8 0.819420 0.873639 0.332765
O O9 0.000000 0.873630 0.368402
O O10 0.891112 0.000000 0.383355
O O11 0.321581 0.142133 0.262414
O O12 0.143117 0.104217 0.226476
O O13 0.248801 0.000000 0.279425
O O14 0.106058 0.500000 0.000000
O O15 0.000000 0.629355 0.000000
O O16 0.500000 0.857029 0.773944
O O17 0.627764 0.749803 0.809711
O O18 0.500000 0.360176 0.158669
#
# Coordination Sequence:
#
# PCOD8265672 Si02
#       7
#     8  16  16  16   8  16  16
#     4   7  10  18  32  52  84 121 147 173 217 270
#     4  10  19  32  52  73  91 114 147 186 224 263
#     4   8  13  21  35  59  90 119 146 179 223 272
#     4  10  18  27  44  69  92 115 147 187 227 267
#     4   9  18  32  50  73  97 119 147 184 224 262
#     4  10  20  33  47  64  89 121 153 184 221 263
#     4  10  20  33  47  65  93 124 149 178 221 273
#
# _framework density 17.345775
#
# number of rings (size 3 to 8) (size 9 to 14) (size 15 to 20)
#    0.000    2.667    0.000    6.000    0.000    4.000 
#    0.000    2.083    0.000    3.500    0.000    2.917 
#    0.000    6.000    0.000    0.000    0.000    0.000 
#
# Total GULP energy -594909.458029 kJ/mol
# GULP energy per Si atom -12393.947042 kJ/mol
# Density = 1.730630 g / cm^3
# Si number density = 17.345775 Si / 1000 Ang^3
#
#
#
# Elastic Constant Matrix: (Units=GPa)
#
#
# Indices 1 2 3 4 5 6 
#
# 1 154.9829 33.2303 81.4605 0.0000 0.0000 0.0000
# 2 33.2303 38.9020 13.0009 0.0000 0.0000 0.0000
# 3 81.4605 13.0009 146.5046 0.0000 0.0000 0.0000
# 4 0.0000 0.0000 0.0000 7.6334 0.0000 0.0000
# 5 0.0000 0.0000 0.0000 0.0000 28.6866 0.0000
# 6 0.0000 0.0000 0.0000 0.0000 0.0000 18.9814
#
#
#
# Elastic Compliance Matrix: (Units=1/GPa)
#
#
# Indices 1 2 3 4 5 6 
#
# 1 0.010896 -0.007505 -0.005392 0.000000 0.000000 0.000000
# 2 -0.007505 0.031661 0.001363 0.000000 0.000000 0.000000
# 3 -0.005392 0.001363 0.009703 0.000000 0.000000 0.000000
# 4 0.000000 0.000000 0.000000 0.131003 0.000000 0.000000
# 5 0.000000 0.000000 0.000000 0.000000 0.034860 0.000000
# 6 0.000000 0.000000 0.000000 0.000000 0.000000 0.052683
#
#
# Mechanical properties :
#
#
# Convention : Reuss Voigt Hill
#
# Bulk Modulus (GPa) = 34.25635 66.19697 50.22666
# Shear Modulus (GPa) = 16.46883 25.24012 20.85448
#
# Velocity S-wave (km/s) = 3.08465 3.81874 3.47115
# Velocity P-wave (km/s) = 5.69901 7.59537 6.71448
#
# Compressibility (1/GPa) = 0.02919167
#
# Stress axis : x y z
#
# Youngs Moduli (GPa) = 91.77852 31.58470 103.06065
#
# Poissons Ratio (x) = 0.23705 0.55574
# Poissons Ratio (y) = 0.68881 -0.14052
# Poissons Ratio (z) = 0.49490 -0.04306
#
# Static dielectric constant tensor:
#      x y z
#    x 3.254600 0.000000 0.000000 
#    y 0.000000 2.937140 0.000000 
#    z 0.000000 0.000000 3.528860 
# 
# 
# High freq. dielectric constant tensor:
#      x y z
#    x 1.660210 0.000000 0.000000 
#    y 0.000000 1.638660 0.000000 
#    z 0.000000 0.000000 1.666610 
# 
# From -- ./inp_files/69891.got.cif
#   From: 2010.03.12/outbox.cif.g09.slc.cpg/sg65_35_cif.got.tgz:69891.got - 2010.04.10 20:52:16.
