data_PCOD8265530
_publ_section_title
;
Structure prediction by ZEFSAII (Michael W. Deem and Ramdas Pophale) SiO2 
 PCOD8265530
Probable space group: C M M M
;
_chemical_formula_sum "Si O2"
_cell_formula_units_Z 80
_cell_length_a 23.911871
_cell_length_b 8.603854
_cell_length_c 20.148620
_cell_angle_alpha 90.000000
_cell_angle_beta 90.000000
_cell_angle_gamma 90.000000
_cell_volume 4145.261163
_symmetry_space_group_name_H-M "C M M M"
_symmetry_group_IT_number 65
_symmetry_cell_setting 'orthorhombic'
loop_
_space_group_symop_operation_xyz
x,y,z
-x,-y,z
x,-y,-z
-x,y,-z
-x,-y,-z
x,y,-z
-x,y,z
x,-y,z
1/2+x,1/2+y,z
1/2-x,1/2-y,z
1/2+x,1/2-y,-z
1/2-x,1/2+y,-z
1/2-x,1/2-y,-z
1/2+x,1/2+y,-z
1/2-x,1/2+y,z
1/2+x,1/2-y,z
loop_
_atom_site_type_symbol
_atom_site_label
_atom_site_fract_x
_atom_site_fract_y
_atom_site_fract_z
Si Si1 0.116168 0.814828 0.426174
Si Si2 0.809206 0.319701 0.922436
Si Si3 0.311092 0.683566 0.694641
Si Si4 0.000000 0.183619 0.371029
Si Si5 0.887577 0.817212 0.183117
Si Si6 0.500000 0.818781 0.226451
O O1 0.131902 0.755715 0.500000
O O2 0.162355 0.752782 0.374205
O O3 0.055238 0.747700 0.406349
O O4 0.114124 0.000000 0.423626
O O5 0.810576 0.500000 0.902744
O O6 0.750000 0.250000 0.900023
O O7 0.857531 0.226565 0.885184
O O8 0.819413 0.293626 0.000000
O O9 0.306933 0.500000 0.693506
O O10 0.250000 0.750000 0.704897
O O11 0.350026 0.739435 0.754972
O O12 0.000000 0.223345 0.294123
O O13 0.000000 0.000000 0.377970
O O14 0.945912 0.726592 0.183844
O O15 0.898985 0.000000 0.186457
O O16 0.500000 0.000000 0.242360
#
# Coordination Sequence:
#
# PCOD8265530 Si02
#       6
#    16  16  16   8  16   8
#     4   9  17  31  54  81 107 141 187 236 285 338
#     4  10  21  38  61  91 125 159 195 235 280 333
#     4  10  21  35  53  79 110 145 187 234 281 335
#     4  10  17  34  58  81 107 139 188 239 285 341
#     4  11  22  39  61  85 114 150 194 242 286 337
#     4  12  24  37  58  86 116 149 184 232 294 352
#
# _framework density 19.299144999999999
#
# number of rings (size 3 to 8) (size 9 to 14) (size 15 to 20)
#    0.000    1.800    2.000    3.000    0.000    6.000 
#    0.000    0.500    0.000    5.400    0.000    0.000 
#    0.000    0.000    0.000    0.000    0.000    0.000 
#
# Total GULP energy -496120.965680 kJ/mol
# GULP energy per Si atom -12403.024142 kJ/mol
# Density = 1.925522 g / cm^3
# Si number density = 19.299145 Si / 1000 Ang^3
#
#
#
# Elastic Constant Matrix: (Units=GPa)
#
#
# Indices 1 2 3 4 5 6 
#
# 1 146.7958 25.4815 49.4348 0.0000 0.0000 0.0000
# 2 25.4815 29.5418 14.6864 0.0000 0.0000 0.0000
# 3 49.4348 14.6864 86.2330 0.0000 0.0000 0.0000
# 4 0.0000 0.0000 0.0000 19.4038 0.0000 0.0000
# 5 0.0000 0.0000 0.0000 0.0000 27.2467 0.0000
# 6 0.0000 0.0000 0.0000 0.0000 0.0000 29.5995
#
#
#
# Elastic Compliance Matrix: (Units=1/GPa)
#
#
# Indices 1 2 3 4 5 6 
#
# 1 0.009286 -0.005859 -0.004325 0.000000 0.000000 0.000000
# 2 -0.005859 0.040679 -0.003569 0.000000 0.000000 0.000000
# 3 -0.004325 -0.003569 0.014684 0.000000 0.000000 0.000000
# 4 0.000000 0.000000 0.000000 0.051536 0.000000 0.000000
# 5 0.000000 0.000000 0.000000 0.000000 0.036702 0.000000
# 6 0.000000 0.000000 0.000000 0.000000 0.000000 0.033784
#
#
# Mechanical properties :
#
#
# Convention : Reuss Voigt Hill
#
# Bulk Modulus (GPa) = 26.92445 49.08621 38.00533
# Shear Modulus (GPa) = 22.06934 26.78119 24.42527
#
# Velocity S-wave (km/s) = 3.38530 3.72921 3.56141
# Velocity P-wave (km/s) = 5.40941 6.63568 6.05368
#
# Compressibility (1/GPa) = 0.03714096
#
# Stress axis : x y z
#
# Youngs Moduli (GPa) = 107.69026 24.58297 68.10152
#
# Poissons Ratio (x) = 0.14404 0.29457
# Poissons Ratio (y) = 0.63099 0.24306
# Poissons Ratio (z) = 0.46581 0.08774
#
# Static dielectric constant tensor:
#      x y z
#    x 3.789750 0.000000 0.000000 
#    y 0.000000 3.285560 0.000000 
#    z 0.000000 0.000000 3.615840 
# 
# 
# High freq. dielectric constant tensor:
#      x y z
#    x 1.757900 0.000000 0.000000 
#    y 0.000000 1.729300 0.000000 
#    z 0.000000 0.000000 1.754850 
# 
# From -- ./inp_files/57319.got.cif
#   From: 2010.03.12/outbox.cif.g09.slc.cpg/sg65_29_cif.got.tgz:57319.got - 2010.04.10 20:52:16.
