data_PCOD8265226
_publ_section_title
;
Structure prediction by ZEFSAII (Michael W. Deem and Ramdas Pophale) SiO2 
 PCOD8265226
Probable space group: C M M M
;
_chemical_formula_sum "Si O2"
_cell_formula_units_Z 120
_cell_length_a 23.087746
_cell_length_b 24.522705
_cell_length_c 13.636165
_cell_angle_alpha 90.000000
_cell_angle_beta 90.000000
_cell_angle_gamma 90.000000
_cell_volume 7720.441868
_symmetry_space_group_name_H-M "C M M M"
_symmetry_group_IT_number 65
_symmetry_cell_setting 'orthorhombic'
loop_
_space_group_symop_operation_xyz
x,y,z
-x,-y,z
x,-y,-z
-x,y,-z
-x,-y,-z
x,y,-z
-x,y,z
x,-y,z
1/2+x,1/2+y,z
1/2-x,1/2-y,z
1/2+x,1/2-y,-z
1/2-x,1/2+y,-z
1/2-x,1/2-y,-z
1/2+x,1/2+y,-z
1/2-x,1/2+y,z
1/2+x,1/2-y,z
loop_
_atom_site_type_symbol
_atom_site_label
_atom_site_fract_x
_atom_site_fract_y
_atom_site_fract_z
Si Si1 0.931488 0.174447 0.892291
Si Si2 0.110998 0.125444 0.384748
Si Si3 0.348118 0.939144 0.616626
Si Si4 0.566611 0.153474 0.384956
Si Si5 0.500000 0.562240 0.382937
Si Si6 0.435447 0.442068 0.116766
Si Si7 0.932129 0.232032 0.299089
Si Si8 0.280406 0.438808 0.383515
O O1 0.905135 0.115858 0.852662
O O2 0.916801 0.222217 0.815443
O O3 0.000000 0.166179 0.900286
O O4 0.906540 0.190363 0.000000
O O5 0.111446 0.116022 0.500000
O O6 0.057182 0.091532 0.338610
O O7 0.104466 0.189355 0.363054
O O8 0.171286 0.102301 0.340265
O O9 0.350000 0.939168 0.500000
O O10 0.395045 0.896183 0.656907
O O11 0.283888 0.922231 0.653985
O O12 0.363727 0.000000 0.654855
O O13 0.576423 0.163532 0.500000
O O14 0.500000 0.139457 0.362263
O O15 0.587148 0.207445 0.327859
O O16 0.500000 0.500000 0.349227
O O17 0.500000 0.567640 0.500000
O O18 0.500000 0.444273 0.162597
O O19 0.403815 0.500000 0.147015
O O20 0.439974 0.439258 0.000000
O O21 0.000000 0.223366 0.322003
O O22 0.280189 0.436742 0.500000
O O23 0.295498 0.500000 0.348413
#
# Coordination Sequence:
#
# PCOD8265226 Si02
#       8
#    16  16  16  16   8  16  16  16
#     4   8  14  24  37  50  67  95 131 168 205 242
#     4  10  17  25  37  52  74 107 141 168 196 227
#     4   8  14  26  43  61  80 103 131 160 195 240
#     4   9  17  27  40  59  84 111 133 156 189 233
#     4   9  16  24  34  48  69 101 142 178 195 210
#     4   7   9  15  28  43  58  78 107 147 194 234
#     4  10  18  27  37  51  77 108 140 166 195 235
#     4   8  14  25  40  55  74 103 136 171 206 231
#
# _framework density 15.543151999999999
#
# number of rings (size 3 to 8) (size 9 to 14) (size 15 to 20)
#    0.000    3.400    0.667    2.800    0.000    2.400 
#    0.000    3.333    0.000    3.200    0.000    0.000 
#    0.000    2.667    0.000    8.133    0.000    1.467 
#
# Total GULP energy -743287.422759 kJ/mol
# GULP energy per Si atom -12388.123713 kJ/mol
# Density = 1.550778 g / cm^3
# Si number density = 15.543152 Si / 1000 Ang^3
#
#
#
# Elastic Constant Matrix: (Units=GPa)
#
#
# Indices 1 2 3 4 5 6 
#
# 1 81.3892 70.3290 17.7050 0.0000 0.0000 0.0000
# 2 70.3290 132.4515 26.7993 0.0000 0.0000 0.0000
# 3 17.7050 26.7993 22.3922 0.0000 0.0000 0.0000
# 4 0.0000 0.0000 0.0000 9.2900 0.0000 0.0000
# 5 0.0000 0.0000 0.0000 0.0000 4.5251 0.0000
# 6 0.0000 0.0000 0.0000 0.0000 0.0000 22.7734
#
#
#
# Elastic Compliance Matrix: (Units=1/GPa)
#
#
# Indices 1 2 3 4 5 6 
#
# 1 0.023076 -0.011297 -0.004726 0.000000 0.000000 0.000000
# 2 -0.011297 0.015493 -0.009610 0.000000 0.000000 0.000000
# 3 -0.004726 -0.009610 0.059896 0.000000 0.000000 0.000000
# 4 0.000000 0.000000 0.000000 0.107643 0.000000 0.000000
# 5 0.000000 0.000000 0.000000 0.000000 0.220991 0.000000
# 6 0.000000 0.000000 0.000000 0.000000 0.000000 0.043911
#
#
# Mechanical properties :
#
#
# Convention : Reuss Voigt Hill
#
# Bulk Modulus (GPa) = 21.18619 51.76660 36.47639
# Shear Modulus (GPa) = 9.29355 15.41099 12.35227
#
# Velocity S-wave (km/s) = 2.44789 3.15222 2.82212
# Velocity P-wave (km/s) = 4.65293 6.82833 5.84276
#
# Compressibility (1/GPa) = 0.04720057
#
# Stress axis : x y z
#
# Youngs Moduli (GPa) = 43.33435 64.54639 16.69559
#
# Poissons Ratio (x) = 0.72918 0.07890
# Poissons Ratio (y) = 0.48954 0.16044
# Poissons Ratio (z) = 0.20478 0.62027
#
# Static dielectric constant tensor:
#      x y z
#    x 2.859230 0.000000 0.000000 
#    y 0.000000 3.093700 0.000000 
#    z 0.000000 0.000000 2.707700 
# 
# 
# High freq. dielectric constant tensor:
#      x y z
#    x 1.552020 0.000000 0.000000 
#    y 0.000000 1.594390 0.000000 
#    z 0.000000 0.000000 1.563160 
# 
# From -- ./inp_files/46102.got.cif
#   From: 2010.03.12/outbox.cif.g09.slc.cpg/sg65_24_cif.got.tgz:46102.got - 2010.04.10 20:52:16.
