data_PCOD8265726
_publ_section_title
;
Structure prediction by ZEFSAII (Michael W. Deem and Ramdas Pophale) SiO2 
 PCOD8265726
Probable space group: C M M M
;
_chemical_formula_sum "Si O2"
_cell_formula_units_Z 88
_cell_length_a 8.900783
_cell_length_b 27.317230
_cell_length_c 21.532358
_cell_angle_alpha 90.000000
_cell_angle_beta 90.000000
_cell_angle_gamma 90.000000
_cell_volume 5235.479510
_symmetry_space_group_name_H-M "C M M M"
_symmetry_group_IT_number 65
_symmetry_cell_setting 'orthorhombic'
loop_
_space_group_symop_operation_xyz
x,y,z
-x,-y,z
x,-y,-z
-x,y,-z
-x,-y,-z
x,y,-z
-x,y,z
x,-y,z
1/2+x,1/2+y,z
1/2-x,1/2-y,z
1/2+x,1/2-y,-z
1/2-x,1/2+y,-z
1/2-x,1/2-y,-z
1/2+x,1/2+y,-z
1/2-x,1/2+y,z
1/2+x,1/2-y,z
loop_
_atom_site_type_symbol
_atom_site_label
_atom_site_fract_x
_atom_site_fract_y
_atom_site_fract_z
Si Si1 0.677280 0.103293 0.069676
Si Si2 0.825527 0.849700 0.751254
Si Si3 0.820282 0.303852 0.500000
Si Si4 0.676875 0.697400 0.622767
Si Si5 0.175510 0.054150 0.818837
Si Si6 0.323700 0.799586 0.138405
O O1 0.500000 0.097597 0.072351
O O2 0.746637 0.062936 0.114955
O O3 0.725801 0.157388 0.091808
O O4 0.737992 0.094926 0.000000
O O5 0.791115 0.839458 0.679363
O O6 0.775012 0.905387 0.767771
O O7 0.732792 0.811387 0.792278
O O8 0.000000 0.841462 0.766382
O O9 0.750000 0.250000 0.500000
O O10 0.755603 0.328441 0.437106
O O11 0.000000 0.303821 0.500000
O O12 0.500000 0.704756 0.610678
O O13 0.750000 0.750000 0.637341
O O14 0.000000 0.057599 0.831040
O O15 0.221295 0.000000 0.794559
O O16 0.500000 0.792338 0.140690
O O17 0.250000 0.750000 0.113251
#
# Coordination Sequence:
#
# PCOD8265726 Si02
#       6
#    16  16   8  16  16  16
#     4   9  19  34  48  64  88 117 149 183 221 269
#     4   9  18  31  47  67  90 118 150 184 223 266
#     4  10  18  28  42  62  91 124 155 183 212 247
#     4  10  18  28  43  64  92 123 153 181 212 252
#     4   9  18  33  51  70  91 113 142 184 231 274
#     4  10  19  30  45  64  88 118 150 185 222 262
#
# _framework density 16.808394
#
# number of rings (size 3 to 8) (size 9 to 14) (size 15 to 20)
#    0.000    2.545    0.000    3.545    0.000    5.091 
#    0.000    1.818    0.000    0.000    0.000    0.636 
#    0.000    5.091    0.000    0.000    0.000    0.000 
#
# Total GULP energy -545492.618611 kJ/mol
# GULP energy per Si atom -12397.559514 kJ/mol
# Density = 1.677014 g / cm^3
# Si number density = 16.808394 Si / 1000 Ang^3
#
#
#
# Elastic Constant Matrix: (Units=GPa)
#
#
# Indices 1 2 3 4 5 6 
#
# 1 59.5423 23.6251 36.4956 0.0000 0.0000 0.0000
# 2 23.6251 85.1008 40.6013 0.0000 0.0000 0.0000
# 3 36.4956 40.6013 123.1968 0.0000 0.0000 0.0000
# 4 0.0000 0.0000 0.0000 16.1966 0.0000 0.0000
# 5 0.0000 0.0000 0.0000 0.0000 27.1259 0.0000
# 6 0.0000 0.0000 0.0000 0.0000 0.0000 19.7866
#
#
#
# Elastic Compliance Matrix: (Units=1/GPa)
#
#
# Indices 1 2 3 4 5 6 
#
# 1 0.021342 -0.003451 -0.005185 0.000000 0.000000 0.000000
# 2 -0.003451 0.014501 -0.003757 0.000000 0.000000 0.000000
# 3 -0.005185 -0.003757 0.010891 0.000000 0.000000 0.000000
# 4 0.000000 0.000000 0.000000 0.061741 0.000000 0.000000
# 5 0.000000 0.000000 0.000000 0.000000 0.036865 0.000000
# 6 0.000000 0.000000 0.000000 0.000000 0.000000 0.050539
#
#
# Mechanical properties :
#
#
# Convention : Reuss Voigt Hill
#
# Bulk Modulus (GPa) = 45.56050 52.14265 48.85158
# Shear Modulus (GPa) = 21.93153 23.76301 22.84727
#
# Velocity S-wave (km/s) = 3.61611 3.76408 3.69084
# Velocity P-wave (km/s) = 6.67830 7.06967 6.87677
#
# Compressibility (1/GPa) = 0.02194884
#
# Stress axis : x y z
#
# Youngs Moduli (GPa) = 46.85559 68.95994 91.81750
#
# Poissons Ratio (x) = 0.23799 0.47607
# Poissons Ratio (y) = 0.16170 0.34493
# Poissons Ratio (z) = 0.24295 0.25906
#
# Static dielectric constant tensor:
#      x y z
#    x 3.194730 0.000000 0.000000 
#    y 0.000000 3.163980 0.000000 
#    z 0.000000 0.000000 3.469400 
# 
# 
# High freq. dielectric constant tensor:
#      x y z
#    x 1.654110 0.000000 0.000000 
#    y 0.000000 1.623400 0.000000 
#    z 0.000000 0.000000 1.644570 
# 
# From -- ./inp_files/60656.got.cif
#   From: 2010.03.12/outbox.cif.g09.slc.cpg/sg65_31_cif.got.tgz:60656.got - 2010.04.10 20:52:16.
