data_PCOD8265080
_publ_section_title
;
Structure prediction by ZEFSAII (Michael W. Deem and Ramdas Pophale) SiO2 
 PCOD8265080
Probable space group: C M M M
;
_chemical_formula_sum "Si O2"
_cell_formula_units_Z 104
_cell_length_a 27.178485
_cell_length_b 9.040406
_cell_length_c 26.946003
_cell_angle_alpha 90.000000
_cell_angle_beta 90.000000
_cell_angle_gamma 90.000000
_cell_volume 6620.755241
_symmetry_space_group_name_H-M "C M M M"
_symmetry_group_IT_number 65
_symmetry_cell_setting 'orthorhombic'
loop_
_space_group_symop_operation_xyz
x,y,z
-x,-y,z
x,-y,-z
-x,y,-z
-x,-y,-z
x,y,-z
-x,y,z
x,-y,z
1/2+x,1/2+y,z
1/2-x,1/2-y,z
1/2+x,1/2-y,-z
1/2-x,1/2+y,-z
1/2-x,1/2-y,-z
1/2+x,1/2+y,-z
1/2-x,1/2+y,z
1/2+x,1/2-y,z
loop_
_atom_site_type_symbol
_atom_site_label
_atom_site_fract_x
_atom_site_fract_y
_atom_site_fract_z
Si Si1 0.698093 0.671224 0.796486
Si Si2 0.601342 0.326680 0.443882
Si Si3 0.302333 0.326992 0.094372
Si Si4 0.200007 0.829127 0.607399
Si Si5 0.556383 0.170797 0.646939
Si Si6 0.804458 0.677320 0.000000
Si Si7 0.860040 0.174082 0.297764
O O1 0.709358 0.500000 0.787249
O O2 0.750000 0.750000 0.790021
O O3 0.673432 0.694942 0.851184
O O4 0.659028 0.728789 0.755928
O O5 0.589032 0.279188 0.500000
O O6 0.592614 0.500000 0.435230
O O7 0.658075 0.286835 0.432378
O O8 0.565225 0.241113 0.407099
O O9 0.296978 0.500000 0.080798
O O10 0.250000 0.250000 0.098910
O O11 0.331419 0.240930 0.049852
O O12 0.250000 0.750000 0.592559
O O13 0.181231 0.781456 0.661930
O O14 0.212312 0.000000 0.606120
O O15 0.500000 0.194681 0.662147
O O16 0.588939 0.245482 0.689891
O O17 0.570632 0.000000 0.643625
O O18 0.750000 0.750000 0.000000
O O19 0.803539 0.500000 0.000000
O O20 0.870557 0.000000 0.299334
#
# Coordination Sequence:
#
# PCOD8265080 Si02
#       7
#    16  16  16  16  16   8  16
#     4   9  17  27  41  62  87 114 145 180 214 250
#     4   9  19  35  51  67  88 113 141 170 201 244
#     4   9  15  23  34  50  74 105 141 179 216 248
#     4   9  17  28  43  63  87 113 140 169 199 236
#     4  10  21  35  50  69  89 107 132 169 212 254
#     4  10  16  22  32  46  68 102 145 186 217 246
#     4   9  18  32  47  64  86 112 142 173 206 249
#
# _framework density 15.708176999999999
#
# number of rings (size 3 to 8) (size 9 to 14) (size 15 to 20)
#    0.000    2.769    0.000    3.923    0.000    5.846 
#    0.000    1.538    0.000    0.000    0.000    0.000 
#    0.000    0.000    0.000    0.692    0.000   14.538 
#
# Total GULP energy -644453.129927 kJ/mol
# GULP energy per Si atom -12393.329422 kJ/mol
# Density = 1.567242 g / cm^3
# Si number density = 15.708177 Si / 1000 Ang^3
#
#
#
# Elastic Constant Matrix: (Units=GPa)
#
#
# Indices 1 2 3 4 5 6 
#
# 1 59.1999 32.4044 35.1207 0.0000 0.0000 0.0000
# 2 32.4044 73.4002 47.3740 0.0000 0.0000 0.0000
# 3 35.1207 47.3740 133.9915 0.0000 0.0000 0.0000
# 4 0.0000 0.0000 0.0000 18.9350 0.0000 0.0000
# 5 0.0000 0.0000 0.0000 0.0000 41.8612 0.0000
# 6 0.0000 0.0000 0.0000 0.0000 0.0000 22.4503
#
#
#
# Elastic Compliance Matrix: (Units=1/GPa)
#
#
# Indices 1 2 3 4 5 6 
#
# 1 0.023287 -0.008216 -0.003199 0.000000 0.000000 0.000000
# 2 -0.008216 0.020551 -0.005112 0.000000 0.000000 0.000000
# 3 -0.003199 -0.005112 0.010109 0.000000 0.000000 0.000000
# 4 0.000000 0.000000 0.000000 0.052812 0.000000 0.000000
# 5 0.000000 0.000000 0.000000 0.000000 0.023888 0.000000
# 6 0.000000 0.000000 0.000000 0.000000 0.000000 0.044543
#
#
# Mechanical properties :
#
#
# Convention : Reuss Voigt Hill
#
# Bulk Modulus (GPa) = 47.86471 55.15444 51.50958
# Shear Modulus (GPa) = 23.23321 26.76212 24.99767
#
# Velocity S-wave (km/s) = 3.85002 4.13208 3.99354
# Velocity P-wave (km/s) = 7.09231 7.61272 7.35712
#
# Compressibility (1/GPa) = 0.02089222
#
# Stress axis : x y z
#
# Youngs Moduli (GPa) = 42.94255 48.66000 98.91994
#
# Poissons Ratio (x) = 0.39979 0.31644
# Poissons Ratio (y) = 0.35281 0.50572
# Poissons Ratio (z) = 0.13737 0.24877
#
# Static dielectric constant tensor:
#      x y z
#    x 2.617400 0.000000 0.000000 
#    y 0.000000 3.032790 0.000000 
#    z 0.000000 0.000000 3.848410 
# 
# 
# High freq. dielectric constant tensor:
#      x y z
#    x 1.551160 0.000000 0.000000 
#    y 0.000000 1.609760 0.000000 
#    z 0.000000 0.000000 1.613090 
# 
# From -- ./inp_files/76036.got.cif
#   From: 2010.03.12/outbox.cif.g09.slc.cpg/sg65_39_cif.got.tgz:76036.got - 2010.04.10 20:52:16.
