data_PCOD8265460
_publ_section_title
;
Structure prediction by ZEFSAII (Michael W. Deem and Ramdas Pophale) SiO2 
 PCOD8265460
Probable space group: C M M M
;
_chemical_formula_sum "Si O2"
_cell_formula_units_Z 112
_cell_length_a 20.785291
_cell_length_b 19.283340
_cell_length_c 16.847975
_cell_angle_alpha 90.000000
_cell_angle_beta 90.000000
_cell_angle_gamma 90.000000
_cell_volume 6752.834052
_symmetry_space_group_name_H-M "C M M M"
_symmetry_group_IT_number 65
_symmetry_cell_setting 'orthorhombic'
loop_
_space_group_symop_operation_xyz
x,y,z
-x,-y,z
x,-y,-z
-x,y,-z
-x,-y,-z
x,y,-z
-x,y,z
x,-y,z
1/2+x,1/2+y,z
1/2-x,1/2-y,z
1/2+x,1/2-y,-z
1/2-x,1/2+y,-z
1/2-x,1/2-y,-z
1/2+x,1/2+y,-z
1/2-x,1/2+y,z
1/2+x,1/2-y,z
loop_
_atom_site_type_symbol
_atom_site_label
_atom_site_fract_x
_atom_site_fract_y
_atom_site_fract_z
Si Si1 0.313764 0.202052 0.747149
Si Si2 0.215777 0.322354 0.915010
Si Si3 0.334048 0.419973 0.912353
Si Si4 0.427484 0.328816 0.500000
Si Si5 0.071479 0.787004 0.672228
Si Si6 0.251493 0.078818 0.334443
Si Si7 0.305577 0.581093 0.500000
Si Si8 0.616284 0.578063 0.748587
O O1 0.250000 0.250000 0.741238
O O2 0.330603 0.181705 0.838518
O O3 0.375563 0.242033 0.716121
O O4 0.305432 0.131538 0.697182
O O5 0.250000 0.250000 0.925706
O O6 0.268548 0.379975 0.896055
O O7 0.180348 0.339087 0.000000
O O8 0.315082 0.500000 0.907232
O O9 0.385636 0.402904 0.842925
O O10 0.362729 0.401358 0.000000
O O11 0.500000 0.359458 0.500000
O O12 0.416226 0.281820 0.422080
O O13 0.377799 0.391343 0.500000
O O14 0.074036 0.867462 0.699837
O O15 0.000000 0.759001 0.692448
O O16 0.232909 0.105441 0.422336
O O17 0.190161 0.082801 0.277703
O O18 0.278819 0.000000 0.336676
O O19 0.314704 0.500000 0.500000
O O20 0.589608 0.500000 0.733408
#
# Coordination Sequence:
#
# PCOD8265460 Si02
#       8
#    16  16  16   8  16  16   8  16
#     4  11  18  32  53  72  95 131 165 201 248 298
#     4   9  16  25  41  67  95 121 155 198 242 283
#     4   9  16  26  44  72 102 128 158 200 243 283
#     4  10  20  34  47  65  96 132 168 203 238 287
#     4  11  23  36  50  72  99 130 170 210 245 289
#     4  10  19  30  48  74 100 127 161 203 247 291
#     4  10  18  30  45  71 106 130 158 204 247 294
#     4  10  17  30  49  70 101 133 161 194 240 293
#
# _framework density 16.585629000000001
#
# number of rings (size 3 to 8) (size 9 to 14) (size 15 to 20)
#    0.000    2.000    4.286    0.857    0.000    1.000 
#    0.000    2.857    0.000    2.143    0.000    2.000 
#    0.000    3.429    0.000    4.857    0.000    0.000 
#
# Total GULP energy -693985.947795 kJ/mol
# GULP energy per Si atom -12392.606211 kJ/mol
# Density = 1.654788 g / cm^3
# Si number density = 16.585629 Si / 1000 Ang^3
#
#
#
# Elastic Constant Matrix: (Units=GPa)
#
#
# Indices 1 2 3 4 5 6 
#
# 1 67.3903 30.1439 42.0482 0.0000 0.0000 0.0000
# 2 30.1439 59.3438 34.4574 0.0000 0.0000 0.0000
# 3 42.0482 34.4574 144.5994 0.0000 0.0000 0.0000
# 4 0.0000 0.0000 0.0000 23.1134 0.0000 0.0000
# 5 0.0000 0.0000 0.0000 0.0000 8.6999 0.0000
# 6 0.0000 0.0000 0.0000 0.0000 0.0000 18.6430
#
#
#
# Elastic Compliance Matrix: (Units=1/GPa)
#
#
# Indices 1 2 3 4 5 6 
#
# 1 0.021167 -0.008331 -0.004170 0.000000 0.000000 0.000000
# 2 -0.008331 0.022836 -0.003019 0.000000 0.000000 0.000000
# 3 -0.004170 -0.003019 0.008848 0.000000 0.000000 0.000000
# 4 0.000000 0.000000 0.000000 0.043265 0.000000 0.000000
# 5 0.000000 0.000000 0.000000 0.000000 0.114944 0.000000
# 6 0.000000 0.000000 0.000000 0.000000 0.000000 0.053640
#
#
# Mechanical properties :
#
#
# Convention : Reuss Voigt Hill
#
# Bulk Modulus (GPa) = 45.84890 53.84805 49.84847
# Shear Modulus (GPa) = 16.50118 21.07019 18.78568
#
# Velocity S-wave (km/s) = 3.15764 3.56812 3.36914
# Velocity P-wave (km/s) = 6.40297 7.03651 6.72720
#
# Compressibility (1/GPa) = 0.02181078
#
# Stress axis : x y z
#
# Youngs Moduli (GPa) = 47.24301 43.79137 113.02338
#
# Poissons Ratio (x) = 0.36481 0.47132
# Poissons Ratio (y) = 0.39356 0.34123
# Poissons Ratio (z) = 0.19701 0.13221
#
# Static dielectric constant tensor:
#      x y z
#    x 2.612120 0.000000 0.000000 
#    y 0.000000 3.118820 0.000000 
#    z 0.000000 0.000000 3.949370 
# 
# 
# High freq. dielectric constant tensor:
#      x y z
#    x 1.574430 0.000000 0.000000 
#    y 0.000000 1.631250 0.000000 
#    z 0.000000 0.000000 1.671700 
# 
# From -- ./inp_files/56198.got.cif
#   From: 2010.03.12/outbox.cif.g09.slc.cpg/sg65_29_cif.got.tgz:56198.got - 2010.04.10 20:52:16.
