data_PCOD8265646
_publ_section_title
;
Structure prediction by ZEFSAII (Michael W. Deem and Ramdas Pophale) SiO2 
 PCOD8265646
Probable space group: C M M M
;
_chemical_formula_sum "Si O2"
_cell_formula_units_Z 112
_cell_length_a 19.203666
_cell_length_b 17.582981
_cell_length_c 21.754352
_cell_angle_alpha 90.000000
_cell_angle_beta 90.000000
_cell_angle_gamma 90.000000
_cell_volume 7345.524340
_symmetry_space_group_name_H-M "C M M M"
_symmetry_group_IT_number 65
_symmetry_cell_setting 'orthorhombic'
loop_
_space_group_symop_operation_xyz
x,y,z
-x,-y,z
x,-y,-z
-x,y,-z
-x,-y,-z
x,y,-z
-x,y,z
x,-y,z
1/2+x,1/2+y,z
1/2-x,1/2-y,z
1/2+x,1/2-y,-z
1/2-x,1/2+y,-z
1/2-x,1/2-y,-z
1/2+x,1/2+y,-z
1/2-x,1/2+y,z
1/2+x,1/2-y,z
loop_
_atom_site_type_symbol
_atom_site_label
_atom_site_fract_x
_atom_site_fract_y
_atom_site_fract_z
Si Si1 0.422826 0.187333 0.242845
Si Si2 0.082573 0.085235 0.567728
Si Si3 0.918166 0.170353 0.313656
Si Si4 0.187093 0.411527 0.819571
Si Si5 0.346046 0.587933 0.203439
Si Si6 0.314688 0.801248 0.069548
Si Si7 0.077675 0.203138 0.126497
O O1 0.500000 0.150876 0.251369
O O2 0.402753 0.239728 0.302069
O O3 0.366366 0.121756 0.231242
O O4 0.423901 0.244775 0.186331
O O5 0.110990 0.108908 0.500000
O O6 0.108034 0.146482 0.618304
O O7 0.000000 0.084496 0.566127
O O8 0.109169 0.000000 0.584421
O O9 0.877172 0.117345 0.266731
O O10 0.000000 0.154065 0.304278
O O11 0.170919 0.500000 0.827805
O O12 0.263905 0.395413 0.794746
O O13 0.176948 0.373476 0.886201
O O14 0.362536 0.500000 0.196235
O O15 0.380670 0.626850 0.143768
O O16 0.250000 0.750000 0.091648
O O17 0.383198 0.748272 0.072401
O O18 0.304677 0.830780 0.000000
O O19 0.000000 0.182764 0.104039
#
# Coordination Sequence:
#
# PCOD8265646 Si02
#       7
#    16  16  16  16  16  16  16
#     4   8  16  29  45  64  85 111 143 181 227 270
#     4   8  13  21  34  56  90 128 159 187 219 254
#     4   9  16  25  40  63  90 121 154 182 211 257
#     4  10  20  32  47  68  90 110 140 181 226 271
#     4  10  18  27  41  64  90 117 147 177 214 263
#     4  10  19  33  51  65  81 112 146 176 215 263
#     4   9  17  29  45  65  87 111 140 176 215 259
#
# _framework density 15.24738
#
# number of rings (size 3 to 8) (size 9 to 14) (size 15 to 20)
#    0.000    2.857    1.429    2.143    0.000    2.571 
#    0.000    0.000    0.000    0.429    0.000    7.000 
#    0.000    1.714    0.000    5.571    0.000    0.000 
#
# Total GULP energy -694088.843176 kJ/mol
# GULP energy per Si atom -12394.443628 kJ/mol
# Density = 1.521268 g / cm^3
# Si number density = 15.247380 Si / 1000 Ang^3
#
#
#
# Elastic Constant Matrix: (Units=GPa)
#
#
# Indices 1 2 3 4 5 6 
#
# 1 88.2882 56.0015 24.8201 0.0000 0.0000 0.0000
# 2 56.0015 95.3739 47.8237 0.0000 0.0000 0.0000
# 3 24.8201 47.8237 81.9564 0.0000 0.0000 0.0000
# 4 0.0000 0.0000 0.0000 20.9748 0.0000 0.0000
# 5 0.0000 0.0000 0.0000 0.0000 11.7211 0.0000
# 6 0.0000 0.0000 0.0000 0.0000 0.0000 22.9555
#
#
#
# Elastic Compliance Matrix: (Units=1/GPa)
#
#
# Indices 1 2 3 4 5 6 
#
# 1 0.018109 -0.011144 0.001019 0.000000 0.000000 0.000000
# 2 -0.011144 0.021680 -0.009276 0.000000 0.000000 0.000000
# 3 0.001019 -0.009276 0.017306 0.000000 0.000000 0.000000
# 4 0.000000 0.000000 0.000000 0.047676 0.000000 0.000000
# 5 0.000000 0.000000 0.000000 0.000000 0.085317 0.000000
# 6 0.000000 0.000000 0.000000 0.000000 0.000000 0.043563
#
#
# Mechanical properties :
#
#
# Convention : Reuss Voigt Hill
#
# Bulk Modulus (GPa) = 54.66835 58.10103 56.38469
# Shear Modulus (GPa) = 17.95017 20.26182 19.10600
#
# Velocity S-wave (km/s) = 3.43485 3.64933 3.54371
# Velocity P-wave (km/s) = 7.18770 7.47964 7.33512
#
# Compressibility (1/GPa) = 0.01829212
#
# Stress axis : x y z
#
# Youngs Moduli (GPa) = 55.22193 46.12622 57.78401
#
# Poissons Ratio (x) = 0.51402 -0.05886
# Poissons Ratio (y) = 0.61538 0.53599
# Poissons Ratio (z) = -0.05625 0.42786
#
# Static dielectric constant tensor:
#      x y z
#    x 3.003040 0.000000 0.000000 
#    y 0.000000 2.893240 0.000000 
#    z 0.000000 0.000000 2.974310 
# 
# 
# High freq. dielectric constant tensor:
#      x y z
#    x 1.575830 0.000000 0.000000 
#    y 0.000000 1.571460 0.000000 
#    z 0.000000 0.000000 1.562360 
# 
# From -- ./inp_files/63932.got.cif
#   From: 2010.03.12/outbox.cif.g09.slc.cpg/sg65_32_cif.got.tgz:63932.got - 2010.04.10 20:52:16.
