data_PCOD8265416
_publ_section_title
;
Structure prediction by ZEFSAII (Michael W. Deem and Ramdas Pophale) SiO2 
 PCOD8265416
Probable space group: C M M M
;
_chemical_formula_sum "Si O2"
_cell_formula_units_Z 112
_cell_length_a 20.455333
_cell_length_b 20.584733
_cell_length_c 17.297969
_cell_angle_alpha 90.000000
_cell_angle_beta 90.000000
_cell_angle_gamma 90.000000
_cell_volume 7283.613742
_symmetry_space_group_name_H-M "C M M M"
_symmetry_group_IT_number 65
_symmetry_cell_setting 'orthorhombic'
loop_
_space_group_symop_operation_xyz
x,y,z
-x,-y,z
x,-y,-z
-x,y,-z
-x,-y,-z
x,y,-z
-x,y,z
x,-y,z
1/2+x,1/2+y,z
1/2-x,1/2-y,z
1/2+x,1/2-y,-z
1/2-x,1/2+y,-z
1/2-x,1/2-y,-z
1/2+x,1/2+y,-z
1/2-x,1/2+y,z
1/2+x,1/2-y,z
loop_
_atom_site_type_symbol
_atom_site_label
_atom_site_fract_x
_atom_site_fract_y
_atom_site_fract_z
Si Si1 0.242964 0.679956 0.295144
Si Si2 0.205355 0.424626 0.588233
Si Si3 0.286240 0.072703 0.086721
Si Si4 0.378668 0.859023 0.198620
Si Si5 0.926795 0.250836 0.911500
Si Si6 0.070542 0.575188 0.657084
Si Si7 0.702401 0.688342 0.138815
O O1 0.250000 0.750000 0.338094
O O2 0.248707 0.621182 0.356411
O O3 0.175784 0.680984 0.246235
O O4 0.300020 0.673601 0.231029
O O5 0.224959 0.411240 0.500000
O O6 0.217796 0.500000 0.610125
O O7 0.129272 0.404748 0.599698
O O8 0.344037 0.085810 0.147453
O O9 0.228221 0.124699 0.095185
O O10 0.259071 0.000000 0.102594
O O11 0.314562 0.077897 0.000000
O O12 0.419763 0.812955 0.143169
O O13 0.427102 0.890501 0.260096
O O14 0.871427 0.198532 0.890101
O O15 0.000000 0.221593 0.899586
O O16 0.917013 0.272994 0.000000
O O17 0.076393 0.500000 0.674814
O O18 0.000000 0.592093 0.618572
O O19 0.750000 0.750000 0.119881
#
# Coordination Sequence:
#
# PCOD8265416 Si02
#       7
#    16  16  16  16  16  16  16
#     4   9  16  29  47  67  86 116 155 185 228 272
#     4   9  18  30  45  68  96 120 145 185 232 274
#     4  10  19  28  44  68  90 117 157 201 245 285
#     4  10  17  29  44  62  92 120 153 199 236 272
#     4  11  21  30  45  70  95 125 162 201 244 284
#     4   9  17  28  42  59  84 124 164 188 216 265
#     4  10  18  33  50  68  91 124 160 203 236 279
#
# _framework density 15.376982
#
# number of rings (size 3 to 8) (size 9 to 14) (size 15 to 20)
#    0.000    2.286    4.286    1.714    0.000    4.571 
#    0.000    1.429    0.000    0.429    0.000    8.000 
#    0.000    0.571    0.000    1.571    0.000    0.000 
#
# Total GULP energy -693949.876314 kJ/mol
# GULP energy per Si atom -12391.962077 kJ/mol
# Density = 1.534198 g / cm^3
# Si number density = 15.376982 Si / 1000 Ang^3
#
#
#
# Elastic Constant Matrix: (Units=GPa)
#
#
# Indices 1 2 3 4 5 6 
#
# 1 62.4769 25.7678 20.2334 0.0000 0.0000 0.0000
# 2 25.7678 89.1584 38.4131 0.0000 0.0000 0.0000
# 3 20.2334 38.4131 79.3775 0.0000 0.0000 0.0000
# 4 0.0000 0.0000 0.0000 27.0904 0.0000 0.0000
# 5 0.0000 0.0000 0.0000 0.0000 15.8672 0.0000
# 6 0.0000 0.0000 0.0000 0.0000 0.0000 17.0880
#
#
#
# Elastic Compliance Matrix: (Units=1/GPa)
#
#
# Indices 1 2 3 4 5 6 
#
# 1 0.018621 -0.004216 -0.002706 0.000000 0.000000 0.000000
# 2 -0.004216 0.015125 -0.006245 0.000000 0.000000 0.000000
# 3 -0.002706 -0.006245 0.016310 0.000000 0.000000 0.000000
# 4 0.000000 0.000000 0.000000 0.036913 0.000000 0.000000
# 5 0.000000 0.000000 0.000000 0.000000 0.063023 0.000000
# 6 0.000000 0.000000 0.000000 0.000000 0.000000 0.058521
#
#
# Mechanical properties :
#
#
# Convention : Reuss Voigt Hill
#
# Bulk Modulus (GPa) = 42.15476 44.42682 43.29079
# Shear Modulus (GPa) = 20.59697 21.78236 21.18967
#
# Velocity S-wave (km/s) = 3.66384 3.76780 3.71619
# Velocity P-wave (km/s) = 6.73588 6.91975 6.82843
#
# Compressibility (1/GPa) = 0.02372211
#
# Stress axis : x y z
#
# Youngs Moduli (GPa) = 53.70243 66.11620 61.31227
#
# Poissons Ratio (x) = 0.27872 0.16594
# Poissons Ratio (y) = 0.22639 0.38288
# Poissons Ratio (z) = 0.14534 0.41288
#
# Static dielectric constant tensor:
#      x y z
#    x 2.870080 0.000000 0.000000 
#    y 0.000000 2.966110 0.000000 
#    z 0.000000 0.000000 2.966120 
# 
# 
# High freq. dielectric constant tensor:
#      x y z
#    x 1.561130 0.000000 0.000000 
#    y 0.000000 1.580480 0.000000 
#    z 0.000000 0.000000 1.590850 
# 
# From -- ./inp_files/56160.got.cif
#   From: 2010.03.12/outbox.cif.g09.slc.cpg/sg65_29_cif.got.tgz:56160.got - 2010.04.10 20:52:16.
