data_PCOD8265997
_publ_section_title
;
Structure prediction by ZEFSAII (Michael W. Deem and Ramdas Pophale) SiO2 
 PCOD8265997
Probable space group: C M M M
;
_chemical_formula_sum "Si O2"
_cell_formula_units_Z 120
_cell_length_a 27.077869
_cell_length_b 16.418399
_cell_length_c 17.766819
_cell_angle_alpha 90.000000
_cell_angle_beta 90.000000
_cell_angle_gamma 90.000000
_cell_volume 7898.688129
_symmetry_space_group_name_H-M "C M M M"
_symmetry_group_IT_number 65
_symmetry_cell_setting 'orthorhombic'
loop_
_space_group_symop_operation_xyz
x,y,z
-x,-y,z
x,-y,-z
-x,y,-z
-x,-y,-z
x,y,-z
-x,y,z
x,-y,z
1/2+x,1/2+y,z
1/2-x,1/2-y,z
1/2+x,1/2-y,-z
1/2-x,1/2+y,-z
1/2-x,1/2-y,-z
1/2+x,1/2+y,-z
1/2-x,1/2+y,z
1/2+x,1/2-y,z
loop_
_atom_site_type_symbol
_atom_site_label
_atom_site_fract_x
_atom_site_fract_y
_atom_site_fract_z
Si Si1 0.283772 0.171013 0.417356
Si Si2 0.713945 0.818922 0.818140
Si Si3 0.446011 0.904390 0.194267
Si Si4 0.941744 0.408195 0.500000
Si Si5 0.443114 0.181014 0.346737
Si Si6 0.280273 0.592645 0.697768
Si Si7 0.638408 0.096440 0.085272
Si Si8 0.849453 0.240390 0.307098
O O1 0.299320 0.140094 0.500000
O O2 0.250000 0.250000 0.421132
O O3 0.253625 0.099040 0.376548
O O4 0.331720 0.197553 0.371820
O O5 0.750000 0.750000 0.851508
O O6 0.746988 0.878586 0.767392
O O7 0.690683 0.868018 0.887197
O O8 0.669354 0.777893 0.771337
O O9 0.500000 0.869137 0.171724
O O10 0.435051 0.885815 0.281484
O O11 0.405506 0.867546 0.137301
O O12 0.445666 0.000000 0.184646
O O13 0.918639 0.500000 0.500000
O O14 0.925473 0.358720 0.574582
O O15 0.000000 0.417474 0.500000
O O16 0.500000 0.211032 0.351625
O O17 0.408789 0.257846 0.320436
O O18 0.297652 0.500000 0.709534
O O19 0.329121 0.648322 0.686901
O O20 0.641828 0.000000 0.091585
O O21 0.628568 0.124613 0.000000
#
# Coordination Sequence:
#
# PCOD8265997 Si02
#       8
#    16  16  16   8  16  16  16  16
#     4   8  15  27  42  59  82 110 137 172 213 252
#     4   9  17  31  47  62  84 113 146 179 216 258
#     4   9  17  29  45  63  85 117 149 176 213 255
#     4   9  18  30  42  62  90 115 147 187 218 248
#     4  10  18  29  46  64  86 117 150 184 216 256
#     4   9  17  29  46  64  84 111 142 180 221 263
#     4  10  19  29  43  65  92 118 146 179 210 249
#     4   9  17  29  45  63  83 112 146 177 217 263
#
# _framework density 15.192397
#
# number of rings (size 3 to 8) (size 9 to 14) (size 15 to 20)
#    0.000    2.867    1.333    2.400    0.933    2.400 
#    0.000    2.000    0.000    0.400    0.000    0.000 
#    0.000    1.600    0.000    0.000    0.000   13.067 
#
# Total GULP energy -743461.430954 kJ/mol
# GULP energy per Si atom -12391.023849 kJ/mol
# Density = 1.515782 g / cm^3
# Si number density = 15.192397 Si / 1000 Ang^3
#
#
#
# Elastic Constant Matrix: (Units=GPa)
#
#
# Indices 1 2 3 4 5 6 
#
# 1 85.1018 34.6170 39.0486 0.0000 0.0000 0.0000
# 2 34.6170 67.2272 20.3901 0.0000 0.0000 0.0000
# 3 39.0486 20.3901 97.1269 0.0000 0.0000 0.0000
# 4 0.0000 0.0000 0.0000 16.3806 0.0000 0.0000
# 5 0.0000 0.0000 0.0000 0.0000 14.2801 0.0000
# 6 0.0000 0.0000 0.0000 0.0000 0.0000 20.7450
#
#
#
# Elastic Compliance Matrix: (Units=1/GPa)
#
#
# Indices 1 2 3 4 5 6 
#
# 1 0.017148 -0.007197 -0.005383 0.000000 0.000000 0.000000
# 2 -0.007197 0.018907 -0.001076 0.000000 0.000000 0.000000
# 3 -0.005383 -0.001076 0.012686 0.000000 0.000000 0.000000
# 4 0.000000 0.000000 0.000000 0.061048 0.000000 0.000000
# 5 0.000000 0.000000 0.000000 0.000000 0.070027 0.000000
# 6 0.000000 0.000000 0.000000 0.000000 0.000000 0.048204
#
#
# Mechanical properties :
#
#
# Convention : Reuss Voigt Hill
#
# Bulk Modulus (GPa) = 46.66593 48.61861 47.64227
# Shear Modulus (GPa) = 19.04929 20.64116 19.84522
#
# Velocity S-wave (km/s) = 3.54484 3.68999 3.61814
# Velocity P-wave (km/s) = 6.89477 7.08704 6.99156
#
# Compressibility (1/GPa) = 0.02142891
#
# Stress axis : x y z
#
# Youngs Moduli (GPa) = 58.31425 52.88964 78.82755
#
# Poissons Ratio (x) = 0.38067 0.42436
# Poissons Ratio (y) = 0.41971 0.08479
# Poissons Ratio (z) = 0.31393 0.05689
#
# Static dielectric constant tensor:
#      x y z
#    x 3.006110 0.000000 0.000000 
#    y 0.000000 2.631270 0.000000 
#    z 0.000000 0.000000 3.032800 
# 
# 
# High freq. dielectric constant tensor:
#      x y z
#    x 1.578230 0.000000 0.000000 
#    y 0.000000 1.543510 0.000000 
#    z 0.000000 0.000000 1.580510 
# 
# From -- ./inp_files/57738.got.cif
#   From: 2010.03.12/outbox.cif.g09.slc.cpg/sg65_29_cif.got.tgz:57738.got - 2010.04.10 20:52:16.
