data_PCOD8265527
_publ_section_title
;
Structure prediction by ZEFSAII (Michael W. Deem and Ramdas Pophale) SiO2 
 PCOD8265527
Probable space group: C M M M
;
_chemical_formula_sum "Si O2"
_cell_formula_units_Z 80
_cell_length_a 20.559694
_cell_length_b 8.009554
_cell_length_c 26.525640
_cell_angle_alpha 90.000000
_cell_angle_beta 90.000000
_cell_angle_gamma 90.000000
_cell_volume 4368.082693
_symmetry_space_group_name_H-M "C M M M"
_symmetry_group_IT_number 65
_symmetry_cell_setting 'orthorhombic'
loop_
_space_group_symop_operation_xyz
x,y,z
-x,-y,z
x,-y,-z
-x,y,-z
-x,-y,-z
x,y,-z
-x,y,z
x,-y,z
1/2+x,1/2+y,z
1/2-x,1/2-y,z
1/2+x,1/2-y,-z
1/2-x,1/2+y,-z
1/2-x,1/2-y,-z
1/2+x,1/2+y,-z
1/2-x,1/2+y,z
1/2+x,1/2-y,z
loop_
_atom_site_type_symbol
_atom_site_label
_atom_site_fract_x
_atom_site_fract_y
_atom_site_fract_z
Si Si1 0.424510 0.000000 0.851052
Si Si2 0.647316 0.679935 0.810381
Si Si3 0.076768 0.000000 0.555981
Si Si4 0.424862 0.811094 0.376423
Si Si5 0.750000 0.750000 0.111437
Si Si6 0.679692 0.692004 0.302809
Si Si7 0.660548 0.000000 0.941840
O O1 0.398386 0.832684 0.825191
O O2 0.406132 0.000000 0.910047
O O3 0.500000 0.000000 0.844371
O O4 0.609673 0.500000 0.807064
O O5 0.703964 0.646283 0.851191
O O6 0.678295 0.724835 0.756755
O O7 0.098960 0.828940 0.583636
O O8 0.107911 0.000000 0.500000
O O9 0.000000 0.000000 0.551727
O O10 0.500000 0.778121 0.360421
O O11 0.378758 0.797118 0.327690
O O12 0.418103 0.000000 0.398696
O O13 0.704201 0.844752 0.072874
O O14 0.668986 0.500000 0.316971
O O15 0.750000 0.750000 0.323463
O O16 0.640930 0.000000 0.000000
#
# Coordination Sequence:
#
# PCOD8265527 Si02
#       7
#     8  16   8  16   8  16   8
#     4  10  24  39  55  79 110 151 193 225 274 342
#     4  10  21  36  57  82 112 149 183 230 277 329
#     4   9  18  36  60  84 110 144 195 249 292 334
#     4  10  21  37  56  84 119 152 189 235 283 338
#     4  10  17  34  56  82 114 134 179 234 284 334
#     4  11  22  34  57  86 117 154 190 229 281 341
#     4  10  20  33  57  83 107 140 179 237 292 334
#
# _framework density 18.314672000000002
#
# number of rings (size 3 to 8) (size 9 to 14) (size 15 to 20)
#    0.000    1.900    3.000    0.900    2.800    1.800 
#    0.000    4.000    0.000    0.600    0.000    2.800 
#    0.000    0.000    0.000    0.000    0.000    0.000 
#
# Total GULP energy -495641.619242 kJ/mol
# GULP energy per Si atom -12391.040481 kJ/mol
# Density = 1.827299 g / cm^3
# Si number density = 18.314672 Si / 1000 Ang^3
#
#
#
# Elastic Constant Matrix: (Units=GPa)
#
#
# Indices 1 2 3 4 5 6 
#
# 1 93.3060 43.7367 29.0287 0.0000 0.0000 0.0000
# 2 43.7367 139.0891 48.5187 0.0000 0.0000 0.0000
# 3 29.0287 48.5187 94.0853 0.0000 0.0000 0.0000
# 4 0.0000 0.0000 0.0000 24.5777 0.0000 0.0000
# 5 0.0000 0.0000 0.0000 0.0000 12.5061 0.0000
# 6 0.0000 0.0000 0.0000 0.0000 0.0000 20.9978
#
#
#
# Elastic Compliance Matrix: (Units=1/GPa)
#
#
# Indices 1 2 3 4 5 6 
#
# 1 0.012971 -0.003271 -0.002315 0.000000 0.000000 0.000000
# 2 -0.003271 0.009592 -0.003937 0.000000 0.000000 0.000000
# 3 -0.002315 -0.003937 0.013373 0.000000 0.000000 0.000000
# 4 0.000000 0.000000 0.000000 0.040687 0.000000 0.000000
# 5 0.000000 0.000000 0.000000 0.000000 0.079961 0.000000
# 6 0.000000 0.000000 0.000000 0.000000 0.000000 0.047624
#
#
# Mechanical properties :
#
#
# Convention : Reuss Voigt Hill
#
# Bulk Modulus (GPa) = 59.20922 63.22762 61.21842
# Shear Modulus (GPa) = 21.84505 25.29606 23.57056
#
# Velocity S-wave (km/s) = 3.45739 3.72047 3.59134
# Velocity P-wave (km/s) = 6.95249 7.28380 7.12007
#
# Compressibility (1/GPa) = 0.01688926
#
# Stress axis : x y z
#
# Youngs Moduli (GPa) = 77.09482 104.25781 74.77625
#
# Poissons Ratio (x) = 0.34104 0.17312
# Poissons Ratio (y) = 0.25219 0.29439
# Poissons Ratio (z) = 0.17849 0.41046
#
# Static dielectric constant tensor:
#      x y z
#    x 3.140580 0.000000 0.000000 
#    y 0.000000 3.506470 0.000000 
#    z 0.000000 0.000000 3.305610 
# 
# 
# High freq. dielectric constant tensor:
#      x y z
#    x 1.686610 0.000000 0.000000 
#    y 0.000000 1.730550 0.000000 
#    z 0.000000 0.000000 1.696240 
# 
# From -- ./inp_files/70887.got.cif
#   From: 2010.03.12/outbox.cif.g09.slc.cpg/sg65_36_cif.got.tgz:70887.got - 2010.04.10 20:52:16.
