data_PCOD8265254
_publ_section_title
;
Structure prediction by ZEFSAII (Michael W. Deem and Ramdas Pophale) SiO2 
 PCOD8265254
Probable space group: C M M M
;
_chemical_formula_sum "Si O2"
_cell_formula_units_Z 120
_cell_length_a 21.037093
_cell_length_b 18.434082
_cell_length_c 18.913465
_cell_angle_alpha 90.000000
_cell_angle_beta 90.000000
_cell_angle_gamma 90.000000
_cell_volume 7334.632221
_symmetry_space_group_name_H-M "C M M M"
_symmetry_group_IT_number 65
_symmetry_cell_setting 'orthorhombic'
loop_
_space_group_symop_operation_xyz
x,y,z
-x,-y,z
x,-y,-z
-x,y,-z
-x,-y,-z
x,y,-z
-x,y,z
x,-y,z
1/2+x,1/2+y,z
1/2-x,1/2-y,z
1/2+x,1/2-y,-z
1/2-x,1/2+y,-z
1/2-x,1/2-y,-z
1/2+x,1/2+y,-z
1/2-x,1/2+y,z
1/2+x,1/2-y,z
loop_
_atom_site_type_symbol
_atom_site_label
_atom_site_fract_x
_atom_site_fract_y
_atom_site_fract_z
Si Si1 0.430975 0.084784 0.340804
Si Si2 0.181590 0.213739 0.210631
Si Si3 0.071357 0.000000 0.083418
Si Si4 0.666061 0.624918 0.918439
Si Si5 0.268256 0.416351 0.709752
Si Si6 0.190556 0.414301 0.578380
Si Si7 0.357550 0.864805 0.781278
Si Si8 0.689917 0.083467 0.921183
O O1 0.500000 0.118340 0.360828
O O2 0.374662 0.119422 0.388779
O O3 0.417740 0.099515 0.257449
O O4 0.433394 0.000000 0.354059
O O5 0.250000 0.250000 0.204828
O O6 0.158617 0.194435 0.131638
O O7 0.180246 0.142315 0.261496
O O8 0.138095 0.279168 0.239501
O O9 0.111104 0.070129 0.106864
O O10 0.000000 0.000000 0.116939
O O11 0.065858 0.000000 0.000000
O O12 0.735132 0.590345 0.903894
O O13 0.657819 0.647984 0.000000
O O14 0.293077 0.500000 0.716251
O O15 0.251037 0.396281 0.628217
O O16 0.204404 0.408309 0.754791
O O17 0.202085 0.381681 0.500000
O O18 0.182030 0.500000 0.574611
O O19 0.355360 0.873398 0.866336
O O20 0.670891 0.000000 0.916867
O O21 0.676442 0.114167 0.000000
#
# Coordination Sequence:
#
# PCOD8265254 Si02
#       8
#    16  16   8  16  16  16  16  16
#     4   9  17  29  47  66  83 112 149 180 212 259
#     4  10  19  27  40  64  90 117 145 180 220 271
#     4   9  18  32  46  60  82 112 144 182 223 266
#     4  10  18  27  42  63  84 109 144 183 222 264
#     4   9  16  26  42  61  86 117 143 171 211 262
#     4   8  14  25  42  66  92 113 139 176 217 252
#     4  10  18  29  41  61  88 117 141 180 226 268
#     4  10  17  25  42  66  88 110 143 186 227 266
#
# _framework density 16.360738000000001
#
# number of rings (size 3 to 8) (size 9 to 14) (size 15 to 20)
#    0.000    2.600    3.333    2.000    0.933    1.067 
#    0.000    2.000    0.000   10.400    0.000    1.867 
#    0.000    0.000    0.000    0.000    0.000    0.667 
#
# Total GULP energy -743316.069887 kJ/mol
# GULP energy per Si atom -12388.601165 kJ/mol
# Density = 1.632350 g / cm^3
# Si number density = 16.360738 Si / 1000 Ang^3
#
#
#
# Elastic Constant Matrix: (Units=GPa)
#
#
# Indices 1 2 3 4 5 6 
#
# 1 23.2968 12.5984 22.6732 0.0000 0.0000 0.0000
# 2 12.5984 57.9648 21.7263 0.0000 0.0000 0.0000
# 3 22.6732 21.7263 96.0913 0.0000 0.0000 0.0000
# 4 0.0000 0.0000 0.0000 10.2709 0.0000 0.0000
# 5 0.0000 0.0000 0.0000 0.0000 10.8130 0.0000
# 6 0.0000 0.0000 0.0000 0.0000 0.0000 8.2863
#
#
#
# Elastic Compliance Matrix: (Units=1/GPa)
#
#
# Indices 1 2 3 4 5 6 
#
# 1 0.059191 -0.008337 -0.012081 0.000000 0.000000 0.000000
# 2 -0.008337 0.020023 -0.002560 0.000000 0.000000 0.000000
# 3 -0.012081 -0.002560 0.013836 0.000000 0.000000 0.000000
# 4 0.000000 0.000000 0.000000 0.097362 0.000000 0.000000
# 5 0.000000 0.000000 0.000000 0.000000 0.092481 0.000000
# 6 0.000000 0.000000 0.000000 0.000000 0.000000 0.120681
#
#
# Mechanical properties :
#
#
# Convention : Reuss Voigt Hill
#
# Bulk Modulus (GPa) = 21.23415 32.37207 26.80311
# Shear Modulus (GPa) = 10.74739 13.89771 12.32255
#
# Velocity S-wave (km/s) = 2.56579 2.91770 2.74739
# Velocity P-wave (km/s) = 4.66740 5.58391 5.14610
#
# Compressibility (1/GPa) = 0.04709396
#
# Stress axis : x y z
#
# Youngs Moduli (GPa) = 16.89456 49.94161 72.27359
#
# Poissons Ratio (x) = 0.41634 0.87317
# Poissons Ratio (y) = 0.14084 0.18504
# Poissons Ratio (z) = 0.20411 0.12786
#
# Static dielectric constant tensor:
#      x y z
#    x 2.964130 0.000000 0.000000 
#    y 0.000000 3.163430 0.000000 
#    z 0.000000 0.000000 3.432450 
# 
# 
# High freq. dielectric constant tensor:
#      x y z
#    x 1.575300 0.000000 0.000000 
#    y 0.000000 1.612850 0.000000 
#    z 0.000000 0.000000 1.625770 
# 
# From -- ./inp_files/64021.got.cif
#   From: 2010.03.12/outbox.cif.g09.slc.cpg/sg65_33_cif.got.tgz:64021.got - 2010.04.10 20:52:16.
