data_PCOD8265927
_publ_section_title
;
Structure prediction by ZEFSAII (Michael W. Deem and Ramdas Pophale) SiO2 
 PCOD8265927
Probable space group: C M M M
;
_chemical_formula_sum "Si O2"
_cell_formula_units_Z 112
_cell_length_a 34.258287
_cell_length_b 13.850829
_cell_length_c 14.201633
_cell_angle_alpha 90.000000
_cell_angle_beta 90.000000
_cell_angle_gamma 90.000000
_cell_volume 6738.755454
_symmetry_space_group_name_H-M "C M M M"
_symmetry_group_IT_number 65
_symmetry_cell_setting 'orthorhombic'
loop_
_space_group_symop_operation_xyz
x,y,z
-x,-y,z
x,-y,-z
-x,y,-z
-x,-y,-z
x,y,-z
-x,y,z
x,-y,z
1/2+x,1/2+y,z
1/2-x,1/2-y,z
1/2+x,1/2-y,-z
1/2-x,1/2+y,-z
1/2-x,1/2-y,-z
1/2+x,1/2+y,-z
1/2-x,1/2+y,z
1/2+x,1/2-y,z
loop_
_atom_site_type_symbol
_atom_site_label
_atom_site_fract_x
_atom_site_fract_y
_atom_site_fract_z
Si Si1 0.153600 0.887569 0.794819
Si Si2 0.732504 0.614492 0.895323
Si Si3 0.042894 0.607834 0.888365
Si Si4 0.690610 0.114857 0.793194
Si Si5 0.881607 0.281256 0.887746
Si Si6 0.772699 0.614671 0.603777
Si Si7 0.685533 0.614058 0.602977
O O1 0.195410 0.853962 0.834579
O O2 0.120444 0.829046 0.851196
O O3 0.154917 0.856597 0.684627
O O4 0.144757 0.000000 0.810893
O O5 0.735050 0.500000 0.896231
O O6 0.772427 0.655892 0.851626
O O7 0.727470 0.656444 0.000000
O O8 0.051159 0.500000 0.849539
O O9 0.076541 0.679517 0.852915
O O10 0.000000 0.643286 0.853352
O O11 0.043369 0.604737 0.000000
O O12 0.651397 0.157682 0.835432
O O13 0.697058 0.149144 0.684478
O O14 0.687706 0.000000 0.801309
O O15 0.876297 0.287882 0.000000
O O16 0.788625 0.644914 0.500000
O O17 0.768715 0.500000 0.611002
O O18 0.728979 0.659152 0.618724
O O19 0.669266 0.645335 0.500000
O O20 0.690836 0.500000 0.608319
#
# Coordination Sequence:
#
# PCOD8265927 Si02
#       7
#    16  16  16  16  16  16  16
#     4  10  19  32  45  60  88 124 160 194 225 261
#     4   9  16  26  39  53  77 121 163 186 212 255
#     4   8  15  31  54  75  94 116 142 176 222 273
#     4  10  18  29  43  62  90 118 149 194 238 272
#     4  11  22  31  44  68  93 119 152 188 224 268
#     4   8  13  24  43  62  81 113 155 195 239 283
#     4   8  13  25  46  64  78 109 160 206 238 267
#
# _framework density 16.620280000000001
#
# number of rings (size 3 to 8) (size 9 to 14) (size 15 to 20)
#    0.000    2.857    1.429    2.571    0.000    2.857 
#    0.000    2.143    0.000    2.143    0.000    2.000 
#    0.000    2.286    0.000   13.714    0.000    0.571 
#
# Total GULP energy -693989.518663 kJ/mol
# GULP energy per Si atom -12392.669976 kJ/mol
# Density = 1.658245 g / cm^3
# Si number density = 16.620280 Si / 1000 Ang^3
#
#
#
# Elastic Constant Matrix: (Units=GPa)
#
#
# Indices 1 2 3 4 5 6 
#
# 1 105.6134 43.4705 44.8405 0.0000 0.0000 0.0000
# 2 43.4705 45.9085 23.2766 0.0000 0.0000 0.0000
# 3 44.8405 23.2766 117.5340 0.0000 0.0000 0.0000
# 4 0.0000 0.0000 0.0000 13.2763 0.0000 0.0000
# 5 0.0000 0.0000 0.0000 0.0000 7.5163 0.0000
# 6 0.0000 0.0000 0.0000 0.0000 0.0000 22.1377
#
#
#
# Elastic Compliance Matrix: (Units=1/GPa)
#
#
# Indices 1 2 3 4 5 6 
#
# 1 0.016797 -0.014068 -0.003622 0.000000 0.000000 0.000000
# 2 -0.014068 0.035997 -0.001762 0.000000 0.000000 0.000000
# 3 -0.003622 -0.001762 0.010239 0.000000 0.000000 0.000000
# 4 0.000000 0.000000 0.000000 0.075322 0.000000 0.000000
# 5 0.000000 0.000000 0.000000 0.000000 0.133045 0.000000
# 6 0.000000 0.000000 0.000000 0.000000 0.000000 0.045172
#
#
# Mechanical properties :
#
#
# Convention : Reuss Voigt Hill
#
# Bulk Modulus (GPa) = 41.44477 54.69236 48.06856
# Shear Modulus (GPa) = 13.75447 19.08395 16.41921
#
# Velocity S-wave (km/s) = 2.87987 3.39223 3.14650
# Velocity P-wave (km/s) = 6.00405 6.95136 6.49500
#
# Compressibility (1/GPa) = 0.02412850
#
# Stress axis : x y z
#
# Youngs Moduli (GPa) = 59.53482 27.78015 97.66663
#
# Poissons Ratio (x) = 0.39082 0.35376
# Poissons Ratio (y) = 0.83756 0.17205
# Poissons Ratio (z) = 0.21564 0.04894
#
# Static dielectric constant tensor:
#      x y z
#    x 2.942840 0.000000 0.000000 
#    y 0.000000 3.170920 0.000000 
#    z 0.000000 0.000000 3.410150 
# 
# 
# High freq. dielectric constant tensor:
#      x y z
#    x 1.579850 0.000000 0.000000 
#    y 0.000000 1.646380 0.000000 
#    z 0.000000 0.000000 1.639250 
# 
# From -- ./inp_files/41366.got.cif
#   From: 2010.03.12/outbox.cif.g09.slc.cpg/sg65_21_cif.got.tgz:41366.got - 2010.04.10 20:52:16.
