data_PCOD8265760
_publ_section_title
;
Structure prediction by ZEFSAII (Michael W. Deem and Ramdas Pophale) SiO2 
 PCOD8265760
Probable space group: C M M M
;
_chemical_formula_sum "Si O2"
_cell_formula_units_Z 72
_cell_length_a 14.934842
_cell_length_b 38.650166
_cell_length_c 7.834332
_cell_angle_alpha 90.000000
_cell_angle_beta 90.000000
_cell_angle_gamma 90.000000
_cell_volume 4522.243757
_symmetry_space_group_name_H-M "C M M M"
_symmetry_group_IT_number 65
_symmetry_cell_setting 'orthorhombic'
loop_
_space_group_symop_operation_xyz
x,y,z
-x,-y,z
x,-y,-z
-x,y,-z
-x,-y,-z
x,y,-z
-x,y,z
x,-y,z
1/2+x,1/2+y,z
1/2-x,1/2-y,z
1/2+x,1/2-y,-z
1/2-x,1/2+y,-z
1/2-x,1/2-y,-z
1/2+x,1/2+y,-z
1/2-x,1/2+y,z
1/2+x,1/2-y,z
loop_
_atom_site_type_symbol
_atom_site_label
_atom_site_fract_x
_atom_site_fract_y
_atom_site_fract_z
Si Si1 0.394419 0.961662 0.000000
Si Si2 0.193830 0.782654 0.803387
Si Si3 0.000000 0.228960 0.201773
Si Si4 0.323333 0.160642 0.698411
Si Si5 0.104408 0.587315 0.305136
Si Si6 0.500000 0.807022 0.698829
O O1 0.364410 0.942079 0.827309
O O2 0.500000 0.965088 0.000000
O O3 0.350821 0.000000 0.000000
O O4 0.250000 0.750000 0.720614
O O5 0.239165 0.820267 0.783263
O O6 0.093255 0.786839 0.724008
O O7 0.182378 0.773332 0.000000
O O8 0.000000 0.267360 0.266614
O O9 0.000000 0.225826 0.000000
O O10 0.317991 0.169341 0.500000
O O11 0.329026 0.119519 0.730407
O O12 0.411922 0.176762 0.784009
O O13 0.116789 0.573979 0.500000
O O14 0.000000 0.598049 0.276684
O O15 0.500000 0.816852 0.500000
#
# Coordination Sequence:
#
# PCOD8265760 Si02
#       6
#     8  16   8  16  16   8
#     4   9  18  30  44  68  93 121 159 183 211 268
#     4  10  20  31  44  61  82 112 149 189 235 276
#     4  10  20  34  42  58  86 110 145 192 238 281
#     4  10  19  30  44  64  86 112 151 193 232 270
#     4   9  17  30  45  65  93 121 150 190 231 263
#     4  10  18  28  44  62  82 109 146 193 234 267
#
# _framework density 15.9213
#
# number of rings (size 3 to 8) (size 9 to 14) (size 15 to 20)
#    0.000    2.333    3.333    0.000    1.556    1.778 
#    0.000    2.222    0.000    0.000    0.000    0.000 
#    0.000    0.000    0.000    2.000    0.000    8.889 
#
# Total GULP energy -446000.549205 kJ/mol
# GULP energy per Si atom -12388.904145 kJ/mol
# Density = 1.588506 g / cm^3
# Si number density = 15.921300 Si / 1000 Ang^3
#
#
#
# Elastic Constant Matrix: (Units=GPa)
#
#
# Indices 1 2 3 4 5 6 
#
# 1 109.9328 45.3398 21.6519 0.0000 0.0000 0.0000
# 2 45.3398 103.7584 36.1665 0.0000 0.0000 0.0000
# 3 21.6519 36.1665 48.6749 0.0000 0.0000 0.0000
# 4 0.0000 0.0000 0.0000 23.5194 0.0000 0.0000
# 5 0.0000 0.0000 0.0000 0.0000 9.3907 0.0000
# 6 0.0000 0.0000 0.0000 0.0000 0.0000 23.3365
#
#
#
# Elastic Compliance Matrix: (Units=1/GPa)
#
#
# Indices 1 2 3 4 5 6 
#
# 1 0.011214 -0.004267 -0.001818 0.000000 0.000000 0.000000
# 2 -0.004267 0.014630 -0.008972 0.000000 0.000000 0.000000
# 3 -0.001818 -0.008972 0.028020 0.000000 0.000000 0.000000
# 4 0.000000 0.000000 0.000000 0.042518 0.000000 0.000000
# 5 0.000000 0.000000 0.000000 0.000000 0.106489 0.000000
# 6 0.000000 0.000000 0.000000 0.000000 0.000000 0.042851
#
#
# Mechanical properties :
#
#
# Convention : Reuss Voigt Hill
#
# Bulk Modulus (GPa) = 42.10599 52.07584 47.09091
# Shear Modulus (GPa) = 17.62099 21.86316 19.74207
#
# Velocity S-wave (km/s) = 3.33040 3.70969 3.52515
# Velocity P-wave (km/s) = 6.42593 7.15041 6.79783
#
# Compressibility (1/GPa) = 0.02374959
#
# Stress axis : x y z
#
# Youngs Moduli (GPa) = 89.17230 68.35485 35.68903
#
# Poissons Ratio (x) = 0.29164 0.06489
# Poissons Ratio (y) = 0.38046 0.32021
# Poissons Ratio (z) = 0.16214 0.61329
#
# Static dielectric constant tensor:
#      x y z
#    x 3.038710 0.000000 0.000000 
#    y 0.000000 2.898800 0.000000 
#    z 0.000000 0.000000 2.985400 
# 
# 
# High freq. dielectric constant tensor:
#      x y z
#    x 1.578940 0.000000 0.000000 
#    y 0.000000 1.584960 0.000000 
#    z 0.000000 0.000000 1.611170 
# 
# From -- ./inp_files/7735.got.cif
#   From: 2010.03.12/outbox.cif.g09.slc.cpg/sg65_4_cif.got.tgz:7735.got - 2010.04.10 20:52:16.
