data_PCOD8265908
_publ_section_title
;
Structure prediction by ZEFSAII (Michael W. Deem and Ramdas Pophale) SiO2 
 PCOD8265908
Probable space group: C M M M
;
_chemical_formula_sum "Si O2"
_cell_formula_units_Z 60
_cell_length_a 18.465551
_cell_length_b 14.518940
_cell_length_c 12.079053
_cell_angle_alpha 90.000000
_cell_angle_beta 90.000000
_cell_angle_gamma 90.000000
_cell_volume 3238.396852
_symmetry_space_group_name_H-M "C M M M"
_symmetry_group_IT_number 65
_symmetry_cell_setting 'orthorhombic'
loop_
_space_group_symop_operation_xyz
x,y,z
-x,-y,z
x,-y,-z
-x,y,-z
-x,-y,-z
x,y,-z
-x,y,z
x,-y,z
1/2+x,1/2+y,z
1/2-x,1/2-y,z
1/2+x,1/2-y,-z
1/2-x,1/2+y,-z
1/2-x,1/2-y,-z
1/2+x,1/2+y,-z
1/2-x,1/2+y,z
1/2+x,1/2-y,z
loop_
_atom_site_type_symbol
_atom_site_label
_atom_site_fract_x
_atom_site_fract_y
_atom_site_fract_z
Si Si1 0.085079 0.328531 0.122622
Si Si2 0.672257 0.794971 0.500000
Si Si3 0.085795 0.000000 0.375857
Si Si4 0.585063 0.302087 0.309796
Si Si5 0.140374 0.500000 0.500000
Si Si6 0.915900 0.500000 0.256933
O O1 0.100657 0.232264 0.185234
O O2 0.118977 0.410697 0.196945
O O3 0.000000 0.343726 0.110539
O O4 0.120654 0.325996 0.000000
O O5 0.750000 0.750000 0.500000
O O6 0.627249 0.764112 0.606815
O O7 0.686329 0.905387 0.500000
O O8 0.113603 0.907421 0.315632
O O9 0.116892 0.000000 0.500000
O O10 0.000000 0.000000 0.377290
O O11 0.500000 0.295351 0.340219
O O12 0.092903 0.500000 0.388822
O O13 0.000000 0.500000 0.232553
#
# Coordination Sequence:
#
# PCOD8265908 Si02
#       6
#    16   8   8  16   4   8
#     4   9  17  29  48  78 113 145 177 217 264 315
#     4  12  25  37  53  78 113 141 172 221 278 323
#     4   9  16  27  50  77  99 133 188 227 262 317
#     4  10  19  34  55  79 107 144 183 222 268 324
#     4  12  23  36  52  82 107 140 180 214 272 334
#     4  10  18  28  51  83 116 142 170 214 265 329
#
# _framework density 18.527685999999999
#
# number of rings (size 3 to 8) (size 9 to 14) (size 15 to 20)
#    0.000    2.000    4.000    1.000    0.000    3.733 
#    0.000    0.667    0.000    4.800    0.000    0.000 
#    0.000    0.000    0.000    0.000    0.000    0.000 
#
# Total GULP energy -371775.906285 kJ/mol
# GULP energy per Si atom -12392.530210 kJ/mol
# Density = 1.848552 g / cm^3
# Si number density = 18.527686 Si / 1000 Ang^3
#
#
#
# Elastic Constant Matrix: (Units=GPa)
#
#
# Indices 1 2 3 4 5 6 
#
# 1 35.2540 22.5927 14.8776 0.0000 0.0000 0.0000
# 2 22.5927 188.0800 80.5370 0.0000 0.0000 0.0000
# 3 14.8776 80.5370 168.3137 0.0000 0.0000 0.0000
# 4 0.0000 0.0000 0.0000 27.3447 0.0000 0.0000
# 5 0.0000 0.0000 0.0000 0.0000 2.4015 0.0000
# 6 0.0000 0.0000 0.0000 0.0000 0.0000 14.8565
#
#
#
# Elastic Compliance Matrix: (Units=1/GPa)
#
#
# Indices 1 2 3 4 5 6 
#
# 1 0.030924 -0.003200 -0.001202 0.000000 0.000000 0.000000
# 2 -0.003200 0.007018 -0.003075 0.000000 0.000000 0.000000
# 3 -0.001202 -0.003075 0.007519 0.000000 0.000000 0.000000
# 4 0.000000 0.000000 0.000000 0.036570 0.000000 0.000000
# 5 0.000000 0.000000 0.000000 0.000000 0.416402 0.000000
# 6 0.000000 0.000000 0.000000 0.000000 0.000000 0.067311
#
#
# Mechanical properties :
#
#
# Convention : Reuss Voigt Hill
#
# Bulk Modulus (GPa) = 32.78051 69.74028 51.26039
# Shear Modulus (GPa) = 8.46214 27.16324 17.81269
#
# Velocity S-wave (km/s) = 2.13944 3.83311 3.10402
# Velocity P-wave (km/s) = 4.88202 7.57054 6.36974
#
# Compressibility (1/GPa) = 0.03050593
#
# Stress axis : x y z
#
# Youngs Moduli (GPa) = 32.33784 142.48848 132.99525
#
# Poissons Ratio (x) = 0.45593 0.15990
# Poissons Ratio (y) = 0.10347 0.40900
# Poissons Ratio (z) = 0.03888 0.43819
#
# Static dielectric constant tensor:
#      x y z
#    x 2.800960 0.000000 0.000000 
#    y 0.000000 3.838660 0.000000 
#    z 0.000000 0.000000 3.586390 
# 
# 
# High freq. dielectric constant tensor:
#      x y z
#    x 1.648170 0.000000 0.000000 
#    y 0.000000 1.738210 0.000000 
#    z 0.000000 0.000000 1.719450 
# 
# From -- ./inp_files/28275.got.cif
#   From: 2010.03.12/outbox.cif.g09.slc.cpg/sg65_15_cif.got.tgz:28275.got - 2010.04.10 20:52:16.
