data_PCOD8265335
_publ_section_title
;
Structure prediction by ZEFSAII (Michael W. Deem and Ramdas Pophale) SiO2 
 PCOD8265335
Probable space group: C M M M
;
_chemical_formula_sum "Si O2"
_cell_formula_units_Z 88
_cell_length_a 27.569141
_cell_length_b 8.713230
_cell_length_c 21.548013
_cell_angle_alpha 90.000000
_cell_angle_beta 90.000000
_cell_angle_gamma 90.000000
_cell_volume 5176.183232
_symmetry_space_group_name_H-M "C M M M"
_symmetry_group_IT_number 65
_symmetry_cell_setting 'orthorhombic'
loop_
_space_group_symop_operation_xyz
x,y,z
-x,-y,z
x,-y,-z
-x,y,-z
-x,-y,-z
x,y,-z
-x,y,z
x,-y,z
1/2+x,1/2+y,z
1/2-x,1/2-y,z
1/2+x,1/2-y,-z
1/2-x,1/2+y,-z
1/2-x,1/2-y,-z
1/2+x,1/2+y,-z
1/2-x,1/2+y,z
1/2+x,1/2-y,z
loop_
_atom_site_type_symbol
_atom_site_label
_atom_site_fract_x
_atom_site_fract_y
_atom_site_fract_z
Si Si1 0.608316 0.322708 0.429743
Si Si2 0.445635 0.819475 0.319701
Si Si3 0.196429 0.683392 0.874753
Si Si4 0.353381 0.181253 0.751274
Si Si5 0.196226 0.817031 0.000000
Si Si6 0.698727 0.180961 0.629100
O O1 0.590548 0.295989 0.500000
O O2 0.617705 0.500000 0.415412
O O3 0.566283 0.261166 0.384729
O O4 0.658726 0.233858 0.420156
O O5 0.500000 0.775149 0.298724
O O6 0.408146 0.764672 0.265933
O O7 0.439933 0.000000 0.330880
O O8 0.199096 0.500000 0.878807
O O9 0.250000 0.750000 0.865155
O O10 0.163347 0.744995 0.817956
O O11 0.171445 0.751540 0.937320
O O12 0.316925 0.240046 0.697658
O O13 0.351221 0.000000 0.754147
O O14 0.250000 0.750000 0.000000
O O15 0.196123 0.000000 0.000000
O O16 0.750000 0.250000 0.610026
O O17 0.702537 0.000000 0.627175
#
# Coordination Sequence:
#
# PCOD8265335 Si02
#       6
#    16  16  16  16   8  16
#     4  10  21  35  49  67  92 121 154 191 230 274
#     4   9  18  34  54  73  93 117 147 187 236 285
#     4  10  17  27  43  64  93 125 155 184 218 259
#     4   8  16  29  46  69  93 118 150 187 226 271
#     4  10  18  28  40  60  91 124 159 189 216 253
#     4  10  19  32  49  69  94 123 155 190 229 273
#
# _framework density 17.000942999999999
#
# number of rings (size 3 to 8) (size 9 to 14) (size 15 to 20)
#    0.000    2.545    0.000    5.182    0.000    2.545 
#    0.000   10.000    0.000    0.000    0.000    0.636 
#    0.000    5.091    0.000    0.000    0.000    0.000 
#
# Total GULP energy -545420.454261 kJ/mol
# GULP energy per Si atom -12395.919415 kJ/mol
# Density = 1.696225 g / cm^3
# Si number density = 17.000943 Si / 1000 Ang^3
#
#
#
# Elastic Constant Matrix: (Units=GPa)
#
#
# Indices 1 2 3 4 5 6 
#
# 1 93.4222 26.4995 43.0943 0.0000 0.0000 0.0000
# 2 26.4995 72.7001 35.0460 0.0000 0.0000 0.0000
# 3 43.0943 35.0460 124.8444 0.0000 0.0000 0.0000
# 4 0.0000 0.0000 0.0000 22.7797 0.0000 0.0000
# 5 0.0000 0.0000 0.0000 0.0000 18.5311 0.0000
# 6 0.0000 0.0000 0.0000 0.0000 0.0000 20.1830
#
#
#
# Elastic Compliance Matrix: (Units=1/GPa)
#
#
# Indices 1 2 3 4 5 6 
#
# 1 0.013290 -0.003045 -0.003733 0.000000 0.000000 0.000000
# 2 -0.003045 0.016605 -0.003610 0.000000 0.000000 0.000000
# 3 -0.003733 -0.003610 0.010312 0.000000 0.000000 0.000000
# 4 0.000000 0.000000 0.000000 0.043899 0.000000 0.000000
# 5 0.000000 0.000000 0.000000 0.000000 0.053963 0.000000
# 6 0.000000 0.000000 0.000000 0.000000 0.000000 0.049547
#
#
# Mechanical properties :
#
#
# Convention : Reuss Voigt Hill
#
# Bulk Modulus (GPa) = 51.46341 55.58293 53.52317
# Shear Modulus (GPa) = 23.27007 24.72056 23.99532
#
# Velocity S-wave (km/s) = 3.70368 3.81736 3.76095
# Velocity P-wave (km/s) = 6.97325 7.22459 7.10003
#
# Compressibility (1/GPa) = 0.01943128
#
# Stress axis : x y z
#
# Youngs Moduli (GPa) = 75.24711 60.22136 96.97511
#
# Poissons Ratio (x) = 0.18336 0.36197
# Poissons Ratio (y) = 0.22911 0.35012
# Poissons Ratio (z) = 0.28087 0.21742
#
# Static dielectric constant tensor:
#      x y z
#    x 3.135650 0.000000 0.000000 
#    y 0.000000 3.123190 0.000000 
#    z 0.000000 0.000000 3.677610 
# 
# 
# High freq. dielectric constant tensor:
#      x y z
#    x 1.629450 0.000000 0.000000 
#    y 0.000000 1.654360 0.000000 
#    z 0.000000 0.000000 1.655250 
# 
# From -- ./inp_files/66206.got.cif
#   From: 2010.03.12/outbox.cif.g09.slc.cpg/sg65_34_cif.got.tgz:66206.got - 2010.04.10 20:52:16.
