data_PCOD8265094
_publ_section_title
;
Structure prediction by ZEFSAII (Michael W. Deem and Ramdas Pophale) SiO2 
 PCOD8265094
Probable space group: C M M M
;
_chemical_formula_sum "Si O2"
_cell_formula_units_Z 64
_cell_length_a 8.829604
_cell_length_b 18.455145
_cell_length_c 21.094503
_cell_angle_alpha 90.000000
_cell_angle_beta 90.000000
_cell_angle_gamma 90.000000
_cell_volume 3437.383482
_symmetry_space_group_name_H-M "C M M M"
_symmetry_group_IT_number 65
_symmetry_cell_setting 'orthorhombic'
loop_
_space_group_symop_operation_xyz
x,y,z
-x,-y,z
x,-y,-z
-x,y,-z
-x,-y,-z
x,y,-z
-x,y,z
x,-y,z
1/2+x,1/2+y,z
1/2-x,1/2-y,z
1/2+x,1/2-y,-z
1/2-x,1/2+y,-z
1/2-x,1/2-y,-z
1/2+x,1/2+y,-z
1/2-x,1/2+y,z
1/2+x,1/2-y,z
loop_
_atom_site_type_symbol
_atom_site_label
_atom_site_fract_x
_atom_site_fract_y
_atom_site_fract_z
Si Si1 0.176531 0.672022 0.261746
Si Si2 0.679789 0.171099 0.500000
Si Si3 0.323161 0.828296 0.877365
Si Si4 0.679560 0.669407 0.000000
Si Si5 0.319708 0.081153 0.620789
O O1 0.250000 0.750000 0.270052
O O2 0.205446 0.636122 0.191912
O O3 0.241854 0.617331 0.314394
O O4 0.000000 0.684633 0.272416
O O5 0.500000 0.178081 0.500000
O O6 0.750000 0.250000 0.500000
O O7 0.738687 0.127879 0.438531
O O8 0.500000 0.822129 0.893091
O O9 0.250000 0.750000 0.872603
O O10 0.240775 0.870576 0.935848
O O11 0.750000 0.750000 0.000000
O O12 0.500000 0.670931 0.000000
O O13 0.500000 0.077951 0.620814
O O14 0.253066 0.000000 0.615943
#
# Coordination Sequence:
#
# PCOD8265094 Si02
#       5
#    16   8  16   8  16
#     4   9  17  28  44  65  89 119 152 189 230 270
#     4  10  19  31  51  75  97 124 154 188 228 268
#     4   9  15  23  35  54  81 111 143 179 222 268
#     4  10  16  22  34  54  81 112 143 177 221 267
#     4   9  17  30  48  70  94 121 156 192 225 266
#
# _framework density 18.618812999999999
#
# number of rings (size 3 to 8) (size 9 to 14) (size 15 to 20)
#    0.000    2.750    0.000    4.500    0.000    2.500 
#    0.000    0.000    0.000    3.750    0.000    0.875 
#    0.000    7.000    0.000    0.000    0.000    0.000 
#
# Total GULP energy -396480.136930 kJ/mol
# GULP energy per Si atom -12390.004279 kJ/mol
# Density = 1.857644 g / cm^3
# Si number density = 18.618813 Si / 1000 Ang^3
#
#
#
# Elastic Constant Matrix: (Units=GPa)
#
#
# Indices 1 2 3 4 5 6 
#
# 1 67.8511 21.9344 51.1344 0.0000 0.0000 0.0000
# 2 21.9344 98.6614 74.4773 0.0000 0.0000 0.0000
# 3 51.1344 74.4773 216.2593 0.0000 0.0000 0.0000
# 4 0.0000 0.0000 0.0000 6.8462 0.0000 0.0000
# 5 0.0000 0.0000 0.0000 0.0000 19.7906 0.0000
# 6 0.0000 0.0000 0.0000 0.0000 0.0000 14.3853
#
#
#
# Elastic Compliance Matrix: (Units=1/GPa)
#
#
# Indices 1 2 3 4 5 6 
#
# 1 0.018017 -0.001067 -0.003893 0.000000 0.000000 0.000000
# 2 -0.001067 0.013760 -0.004486 0.000000 0.000000 0.000000
# 3 -0.003893 -0.004486 0.007090 0.000000 0.000000 0.000000
# 4 0.000000 0.000000 0.000000 0.146065 0.000000 0.000000
# 5 0.000000 0.000000 0.000000 0.000000 0.050529 0.000000
# 6 0.000000 0.000000 0.000000 0.000000 0.000000 0.069515
#
#
# Mechanical properties :
#
#
# Convention : Reuss Voigt Hill
#
# Bulk Modulus (GPa) = 50.06557 75.31823 62.69190
# Shear Modulus (GPa) = 15.12744 23.88614 19.50679
#
# Velocity S-wave (km/s) = 2.85350 3.58565 3.24032
# Velocity P-wave (km/s) = 6.14856 7.59494 6.90970
#
# Compressibility (1/GPa) = 0.01997381
#
# Stress axis : x y z
#
# Youngs Moduli (GPa) = 55.50424 72.67693 141.05352
#
# Poissons Ratio (x) = 0.07755 0.54906
# Poissons Ratio (y) = 0.05923 0.63281
# Poissons Ratio (z) = 0.21605 0.32605
#
# Static dielectric constant tensor:
#      x y z
#    x 3.007310 0.000000 0.000000 
#    y 0.000000 3.035000 0.000000 
#    z 0.000000 0.000000 4.808840 
# 
# 
# High freq. dielectric constant tensor:
#      x y z
#    x 1.698870 0.000000 0.000000 
#    y 0.000000 1.664170 0.000000 
#    z 0.000000 0.000000 1.760180 
# 
# From -- ./inp_files/58766.got.cif
#   From: 2010.03.12/outbox.cif.g09.slc.cpg/sg65_30_cif.got.tgz:58766.got - 2010.04.10 20:52:16.
