data_PCOD8265312
_publ_section_title
;
Structure prediction by ZEFSAII (Michael W. Deem and Ramdas Pophale) SiO2 
 PCOD8265312
Probable space group: C M M M
;
_chemical_formula_sum "Si O2"
_cell_formula_units_Z 76
_cell_length_a 31.025004
_cell_length_b 10.215214
_cell_length_c 16.086608
_cell_angle_alpha 90.000000
_cell_angle_beta 90.000000
_cell_angle_gamma 90.000000
_cell_volume 5098.281302
_symmetry_space_group_name_H-M "C M M M"
_symmetry_group_IT_number 65
_symmetry_cell_setting 'orthorhombic'
loop_
_space_group_symop_operation_xyz
x,y,z
-x,-y,z
x,-y,-z
-x,y,-z
-x,-y,-z
x,y,-z
-x,y,z
x,-y,z
1/2+x,1/2+y,z
1/2-x,1/2-y,z
1/2+x,1/2-y,-z
1/2-x,1/2+y,-z
1/2-x,1/2-y,-z
1/2+x,1/2+y,-z
1/2-x,1/2+y,z
1/2+x,1/2-y,z
loop_
_atom_site_type_symbol
_atom_site_label
_atom_site_fract_x
_atom_site_fract_y
_atom_site_fract_z
Si Si1 0.416616 0.646613 0.239547
Si Si2 0.000000 0.256323 0.500000
Si Si3 0.448288 0.500000 0.095125
Si Si4 0.850948 0.254726 0.648678
Si Si5 0.201188 0.500000 0.599290
Si Si6 0.500000 0.349698 0.323258
Si Si7 0.593806 0.848745 0.500000
Si Si8 0.301876 0.500000 0.403247
O O1 0.408825 0.500000 0.277925
O O2 0.427697 0.629014 0.140855
O O3 0.375056 0.736558 0.261662
O O4 0.457436 0.716002 0.284101
O O5 0.000000 0.160865 0.578186
O O6 0.042092 0.347733 0.500000
O O7 0.500000 0.500000 0.103980
O O8 0.433494 0.500000 0.000000
O O9 0.818892 0.376334 0.646245
O O10 0.888012 0.272374 0.579733
O O11 0.822251 0.128263 0.635196
O O12 0.191423 0.500000 0.500000
O O13 0.251490 0.500000 0.616724
O O14 0.500000 0.500000 0.294052
O O15 0.609346 0.000000 0.500000
O O16 0.310920 0.500000 0.500000
#
# Coordination Sequence:
#
# PCOD8265312 Si02
#       8
#    16   4   8  16   8   8   8   8
#     4   9  17  29  45  68  98 118 161 201 230 284
#     4  12  22  28  44  54  92 145 167 206 224 255
#     4   9  15  28  50  74 103 128 150 198 258 290
#     4  12  19  33  49  63  96 126 165 212 240 280
#     4  11  22  35  45  65  96 130 171 211 248 285
#     4  10  17  27  37  66  95 119 162 208 227 261
#     4  12  23  34  41  62  92 131 180 205 235 271
#     4  11  21  31  49  69  85 122 173 215 256 283
#
# _framework density 14.906984
#
# number of rings (size 3 to 8) (size 9 to 14) (size 15 to 20)
#    0.632    0.737    7.368    0.947    0.000    1.684 
#    1.895    0.000    0.000    0.000    0.000    0.737 
#    0.000   15.158    0.000    0.000    0.000    0.000 
#
# Total GULP energy -470818.475994 kJ/mol
# GULP energy per Si atom -12389.959895 kJ/mol
# Density = 1.487306 g / cm^3
# Si number density = 14.906984 Si / 1000 Ang^3
#
#
#
# Elastic Constant Matrix: (Units=GPa)
#
#
# Indices 1 2 3 4 5 6 
#
# 1 105.0012 44.2595 42.6344 0.0000 0.0000 0.0000
# 2 44.2595 80.1976 24.6415 0.0000 0.0000 0.0000
# 3 42.6344 24.6415 101.3761 0.0000 0.0000 0.0000
# 4 0.0000 0.0000 0.0000 9.5822 0.0000 0.0000
# 5 0.0000 0.0000 0.0000 0.0000 17.4150 0.0000
# 6 0.0000 0.0000 0.0000 0.0000 0.0000 24.4725
#
#
#
# Elastic Compliance Matrix: (Units=1/GPa)
#
#
# Indices 1 2 3 4 5 6 
#
# 1 0.013969 -0.006381 -0.004324 0.000000 0.000000 0.000000
# 2 -0.006381 0.016390 -0.001301 0.000000 0.000000 0.000000
# 3 -0.004324 -0.001301 0.011999 0.000000 0.000000 0.000000
# 4 0.000000 0.000000 0.000000 0.104361 0.000000 0.000000
# 5 0.000000 0.000000 0.000000 0.000000 0.057422 0.000000
# 6 0.000000 0.000000 0.000000 0.000000 0.000000 0.040862
#
#
# Mechanical properties :
#
#
# Convention : Reuss Voigt Hill
#
# Bulk Modulus (GPa) = 54.50208 56.62730 55.56469
# Shear Modulus (GPa) = 18.17337 21.96325 20.06831
#
# Velocity S-wave (km/s) = 3.49537 3.84259 3.67309
# Velocity P-wave (km/s) = 7.27537 7.59980 7.43935
#
# Compressibility (1/GPa) = 0.01834793
#
# Stress axis : x y z
#
# Youngs Moduli (GPa) = 71.58794 61.01224 83.34198
#
# Poissons Ratio (x) = 0.38930 0.36035
# Poissons Ratio (y) = 0.45678 0.10839
# Poissons Ratio (z) = 0.30953 0.07935
#
# Static dielectric constant tensor:
#      x y z
#    x 3.033990 0.000000 0.000000 
#    y 0.000000 2.615200 0.000000 
#    z 0.000000 0.000000 2.584510 
# 
# 
# High freq. dielectric constant tensor:
#      x y z
#    x 1.587000 0.000000 0.000000 
#    y 0.000000 1.550200 0.000000 
#    z 0.000000 0.000000 1.524930 
# 
# From -- ./inp_files/47613.got.cif
#   From: 2010.03.12/outbox.cif.g09.slc.cpg/sg65_24_cif.got.tgz:47613.got - 2010.04.10 20:52:16.
