data_PCOD8265371
_publ_section_title
;
Structure prediction by ZEFSAII (Michael W. Deem and Ramdas Pophale) SiO2 
 PCOD8265371
Probable space group: C M M M
;
_chemical_formula_sum "Si O2"
_cell_formula_units_Z 96
_cell_length_a 22.947318
_cell_length_b 25.947564
_cell_length_c 11.657410
_cell_angle_alpha 90.000000
_cell_angle_beta 90.000000
_cell_angle_gamma 90.000000
_cell_volume 6941.136692
_symmetry_space_group_name_H-M "C M M M"
_symmetry_group_IT_number 65
_symmetry_cell_setting 'orthorhombic'
loop_
_space_group_symop_operation_xyz
x,y,z
-x,-y,z
x,-y,-z
-x,y,-z
-x,-y,-z
x,y,-z
-x,y,z
x,-y,z
1/2+x,1/2+y,z
1/2-x,1/2-y,z
1/2+x,1/2-y,-z
1/2-x,1/2+y,-z
1/2-x,1/2-y,-z
1/2+x,1/2+y,-z
1/2-x,1/2+y,z
1/2+x,1/2-y,z
loop_
_atom_site_type_symbol
_atom_site_label
_atom_site_fract_x
_atom_site_fract_y
_atom_site_fract_z
Si Si1 0.617475 0.744059 0.257483
Si Si2 0.235538 0.832153 0.500000
Si Si3 0.194703 0.142845 0.258917
Si Si4 0.377222 0.440222 0.132819
Si Si5 0.711568 0.800837 0.126771
Si Si6 0.155349 0.733213 0.500000
Si Si7 0.000000 0.098393 0.134498
Si Si8 0.000000 0.217564 0.137326
O O1 0.647592 0.688372 0.244695
O O2 0.653555 0.789211 0.196886
O O3 0.613112 0.761451 0.390143
O O4 0.555553 0.743685 0.195617
O O5 0.215752 0.864865 0.610479
O O6 0.202008 0.778538 0.500000
O O7 0.305213 0.819193 0.500000
O O8 0.168008 0.090158 0.211841
O O9 0.252438 0.153868 0.185968
O O10 0.362473 0.500000 0.144574
O O11 0.442083 0.429310 0.182048
O O12 0.372006 0.421851 0.000000
O O13 0.750000 0.750000 0.123472
O O14 0.694121 0.819036 0.000000
O O15 0.000000 0.157750 0.170417
O O16 0.000000 0.091152 0.000000
O O17 0.000000 0.226058 0.000000
#
# Coordination Sequence:
#
# PCOD8265371 Si02
#       8
#    16   8  16  16  16   8   8   8
#     4  10  18  28  42  60  85 113 146 181 217 260
#     4   9  16  28  45  62  80 107 138 180 223 266
#     4  10  17  28  44  62  81 109 143 185 227 266
#     4  10  19  30  45  64  85 112 150 194 234 268
#     4   9  16  24  39  61  83 105 134 174 223 272
#     4   9  16  29  44  60  81 109 145 179 214 262
#     4   9  17  30  44  57  81 117 154 190 228 262
#     4  11  20  28  41  62  90 119 149 187 223 258
#
# _framework density 13.830588000000001
#
# number of rings (size 3 to 8) (size 9 to 14) (size 15 to 20)
#    0.000    2.333    3.333    1.250    0.000    2.667 
#    0.000    0.417    0.000    0.500    0.000    1.167 
#    0.000    0.000    0.000    0.750    0.000   10.167 
#
# Total GULP energy -595031.520141 kJ/mol
# GULP energy per Si atom -12396.490003 kJ/mol
# Density = 1.379911 g / cm^3
# Si number density = 13.830588 Si / 1000 Ang^3
#
#
#
# Elastic Constant Matrix: (Units=GPa)
#
#
# Indices 1 2 3 4 5 6 
#
# 1 75.9004 40.0295 45.3814 0.0000 0.0000 0.0000
# 2 40.0295 52.4652 36.0900 0.0000 0.0000 0.0000
# 3 45.3814 36.0900 114.2184 0.0000 0.0000 0.0000
# 4 0.0000 0.0000 0.0000 14.6658 0.0000 0.0000
# 5 0.0000 0.0000 0.0000 0.0000 17.4303 0.0000
# 6 0.0000 0.0000 0.0000 0.0000 0.0000 14.2704
#
#
#
# Elastic Compliance Matrix: (Units=1/GPa)
#
#
# Indices 1 2 3 4 5 6 
#
# 1 0.023925 -0.014969 -0.004776 0.000000 0.000000 0.000000
# 2 -0.014969 0.033719 -0.004707 0.000000 0.000000 0.000000
# 3 -0.004776 -0.004707 0.012140 0.000000 0.000000 0.000000
# 4 0.000000 0.000000 0.000000 0.068186 0.000000 0.000000
# 5 0.000000 0.000000 0.000000 0.000000 0.057371 0.000000
# 6 0.000000 0.000000 0.000000 0.000000 0.000000 0.070075
#
#
# Mechanical properties :
#
#
# Convention : Reuss Voigt Hill
#
# Bulk Modulus (GPa) = 47.89185 53.95398 50.92291
# Shear Modulus (GPa) = 15.56271 17.34551 16.45411
#
# Velocity S-wave (km/s) = 3.35810 3.54523 3.45293
# Velocity P-wave (km/s) = 7.05255 7.47352 7.26608
#
# Compressibility (1/GPa) = 0.02088038
#
# Stress axis : x y z
#
# Youngs Moduli (GPa) = 41.79646 29.65699 82.37155
#
# Poissons Ratio (x) = 0.44393 0.39343
# Poissons Ratio (y) = 0.62565 0.38771
# Poissons Ratio (z) = 0.19963 0.13959
#
# Static dielectric constant tensor:
#      x y z
#    x 2.688840 0.000000 0.000000 
#    y 0.000000 2.374660 0.000000 
#    z 0.000000 0.000000 2.943590 
# 
# 
# High freq. dielectric constant tensor:
#      x y z
#    x 1.515450 0.000000 0.000000 
#    y 0.000000 1.480230 0.000000 
#    z 0.000000 0.000000 1.534380 
# 
# From -- ./inp_files/29569.got.cif
#   From: 2010.03.12/outbox.cif.g09.slc.cpg/sg65_15_cif.got.tgz:29569.got - 2010.04.10 20:52:16.
