data_PCOD8265860
_publ_section_title
;
Structure prediction by ZEFSAII (Michael W. Deem and Ramdas Pophale) SiO2 
 PCOD8265860
Probable space group: C M M M
;
_chemical_formula_sum "Si O2"
_cell_formula_units_Z 120
_cell_length_a 9.077789
_cell_length_b 28.854377
_cell_length_c 25.275756
_cell_angle_alpha 90.000000
_cell_angle_beta 90.000000
_cell_angle_gamma 90.000000
_cell_volume 6620.578511
_symmetry_space_group_name_H-M "C M M M"
_symmetry_group_IT_number 65
_symmetry_cell_setting 'orthorhombic'
loop_
_space_group_symop_operation_xyz
x,y,z
-x,-y,z
x,-y,-z
-x,y,-z
-x,-y,-z
x,y,-z
-x,y,z
x,-y,z
1/2+x,1/2+y,z
1/2-x,1/2-y,z
1/2+x,1/2-y,-z
1/2-x,1/2+y,-z
1/2-x,1/2-y,-z
1/2+x,1/2+y,-z
1/2-x,1/2+y,z
1/2+x,1/2-y,z
loop_
_atom_site_type_symbol
_atom_site_label
_atom_site_fract_x
_atom_site_fract_y
_atom_site_fract_z
Si Si1 0.325226 0.051702 0.058763
Si Si2 0.174818 0.202436 0.808529
Si Si3 0.671262 0.052748 0.253106
Si Si4 0.168149 0.794970 0.689024
Si Si5 0.328075 0.448262 0.360679
Si Si6 0.830731 0.144237 0.590262
Si Si7 0.174900 0.699776 0.500000
Si Si8 0.824728 0.613866 0.154364
O O1 0.500000 0.049928 0.062464
O O2 0.265465 0.087411 0.102327
O O3 0.263624 0.000000 0.070288
O O4 0.275706 0.067937 0.000000
O O5 0.250000 0.250000 0.826959
O O6 0.222038 0.191423 0.747791
O O7 0.242135 0.162736 0.845366
O O8 0.000000 0.205357 0.816070
O O9 0.500000 0.059628 0.263535
O O10 0.751253 0.067334 0.306771
O O11 0.726217 0.084650 0.205332
O O12 0.708633 0.000000 0.237566
O O13 0.250000 0.750000 0.666456
O O14 0.195240 0.837312 0.649525
O O15 0.000000 0.780063 0.691635
O O16 0.500000 0.447445 0.348490
O O17 0.277110 0.500000 0.378856
O O18 0.291970 0.410762 0.406873
O O19 0.722189 0.170465 0.550997
O O20 0.000000 0.152094 0.571910
O O21 0.250000 0.750000 0.500000
O O22 0.000000 0.706581 0.500000
O O23 0.000000 0.621221 0.153411
#
# Coordination Sequence:
#
# PCOD8265860 Si02
#       8
#    16  16  16  16  16  16   8  16
#     4   8  14  26  46  72 100 130 166 207 247 289
#     4  10  20  34  50  71 100 131 164 203 248 297
#     4   9  17  28  44  71 107 141 169 200 241 291
#     4   9  18  31  49  72  97 126 159 196 239 290
#     4   9  18  33  53  76 103 136 172 207 242 284
#     4  10  20  36  56  77 102 132 166 203 243 288
#     4  12  26  42  59  80 103 127 158 199 249 298
#     4  10  18  28  46  72 100 131 168 208 250 295
#
# _framework density 18.125304
#
# number of rings (size 3 to 8) (size 9 to 14) (size 15 to 20)
#    0.000    2.533    0.000    3.000    0.000    5.867 
#    0.000    0.333    0.000    4.000    0.000    0.933 
#    0.000    0.000    0.000    0.000    0.000    0.000 
#
# Total GULP energy -743878.099169 kJ/mol
# GULP energy per Si atom -12397.968319 kJ/mol
# Density = 1.808405 g / cm^3
# Si number density = 18.125304 Si / 1000 Ang^3
#
#
#
# Elastic Constant Matrix: (Units=GPa)
#
#
# Indices 1 2 3 4 5 6 
#
# 1 55.8067 48.0079 35.7956 0.0000 0.0000 0.0000
# 2 48.0079 137.0795 71.0573 0.0000 0.0000 0.0000
# 3 35.7956 71.0573 89.0206 0.0000 0.0000 0.0000
# 4 0.0000 0.0000 0.0000 27.6768 0.0000 0.0000
# 5 0.0000 0.0000 0.0000 0.0000 13.9380 0.0000
# 6 0.0000 0.0000 0.0000 0.0000 0.0000 27.1770
#
#
#
# Elastic Compliance Matrix: (Units=1/GPa)
#
#
# Indices 1 2 3 4 5 6 
#
# 1 0.027239 -0.006588 -0.005694 0.000000 0.000000 0.000000
# 2 -0.006588 0.014037 -0.008556 0.000000 0.000000 0.000000
# 3 -0.005694 -0.008556 0.020352 0.000000 0.000000 0.000000
# 4 0.000000 0.000000 0.000000 0.036131 0.000000 0.000000
# 5 0.000000 0.000000 0.000000 0.000000 0.071746 0.000000
# 6 0.000000 0.000000 0.000000 0.000000 0.000000 0.036796
#
#
# Mechanical properties :
#
#
# Convention : Reuss Voigt Hill
#
# Bulk Modulus (GPa) = 50.11890 65.73650 57.92770
# Shear Modulus (GPa) = 19.63650 22.22810 20.93230
#
# Velocity S-wave (km/s) = 3.29504 3.50574 3.40202
# Velocity P-wave (km/s) = 6.49521 7.26178 6.88917
#
# Compressibility (1/GPa) = 0.01995255
#
# Stress axis : x y z
#
# Youngs Moduli (GPa) = 36.71259 71.23959 49.13446
#
# Poissons Ratio (x) = 0.46931 0.27979
# Poissons Ratio (y) = 0.24185 0.42038
# Poissons Ratio (z) = 0.20906 0.60950
#
# Static dielectric constant tensor:
#      x y z
#    x 3.145900 0.000000 0.000000 
#    y 0.000000 3.538790 0.000000 
#    z 0.000000 0.000000 3.348980 
# 
# 
# High freq. dielectric constant tensor:
#      x y z
#    x 1.682340 0.000000 0.000000 
#    y 0.000000 1.710940 0.000000 
#    z 0.000000 0.000000 1.682490 
# 
# From -- ./inp_files/73940.got.cif
#   From: 2010.03.12/outbox.cif.g09.slc.cpg/sg65_37_cif.got.tgz:73940.got - 2010.04.10 20:52:16.
