data_PCOD8265701
_publ_section_title
;
Structure prediction by ZEFSAII (Michael W. Deem and Ramdas Pophale) SiO2 
 PCOD8265701
Probable space group: C M M M
;
_chemical_formula_sum "Si O2"
_cell_formula_units_Z 88
_cell_length_a 13.796186
_cell_length_b 33.069311
_cell_length_c 12.910159
_cell_angle_alpha 90.000000
_cell_angle_beta 90.000000
_cell_angle_gamma 90.000000
_cell_volume 5890.006559
_symmetry_space_group_name_H-M "C M M M"
_symmetry_group_IT_number 65
_symmetry_cell_setting 'orthorhombic'
loop_
_space_group_symop_operation_xyz
x,y,z
-x,-y,z
x,-y,-z
-x,y,-z
-x,-y,-z
x,y,-z
-x,y,z
x,-y,z
1/2+x,1/2+y,z
1/2-x,1/2-y,z
1/2+x,1/2-y,-z
1/2-x,1/2+y,-z
1/2-x,1/2-y,-z
1/2+x,1/2+y,-z
1/2-x,1/2+y,z
1/2+x,1/2-y,z
loop_
_atom_site_type_symbol
_atom_site_label
_atom_site_fract_x
_atom_site_fract_y
_atom_site_fract_z
Si Si1 0.393429 0.729149 0.123266
Si Si2 0.702068 0.810768 0.877069
Si Si3 0.733360 0.547982 0.194396
Si Si4 0.891953 0.047908 0.000000
Si Si5 0.391779 0.547998 0.384919
Si Si6 0.888193 0.393911 0.122830
O O1 0.500000 0.717834 0.167444
O O2 0.363639 0.773708 0.164093
O O3 0.313582 0.696195 0.160004
O O4 0.395591 0.730201 0.000000
O O5 0.661118 0.852901 0.834023
O O6 0.696810 0.811549 0.000000
O O7 0.748785 0.500000 0.192837
O O8 0.685000 0.563853 0.300756
O O9 0.837771 0.568502 0.180368
O O10 0.663981 0.562964 0.101625
O O11 0.000000 0.066737 0.000000
O O12 0.898971 0.000000 0.000000
O O13 0.359420 0.562146 0.500000
O O14 0.500000 0.564494 0.360046
O O15 0.395109 0.500000 0.379157
O O16 0.000000 0.393895 0.155202
O O17 0.875932 0.398531 0.000000
#
# Coordination Sequence:
#
# PCOD8265701 Si02
#       6
#    16  16  16   8  16  16
#     4   8  12  20  35  52  69  92 124 164 205 241
#     4   8  14  23  35  50  70  97 133 169 201 239
#     4  10  18  28  41  58  80 106 139 174 205 238
#     4   9  16  26  39  55  77 104 130 159 199 244
#     4   8  14  26  45  65  80  97 126 165 209 256
#     4  10  19  29  39  51  74 108 146 180 205 236
#
# _framework density 14.94056
#
# number of rings (size 3 to 8) (size 9 to 14) (size 15 to 20)
#    0.000    3.182    0.909    2.727    0.000    4.727 
#    0.000    2.727    0.000    0.545    0.000    2.545 
#    0.000    0.000    0.000    3.273    0.000   12.727 
#
# Total GULP energy -545264.019093 kJ/mol
# GULP energy per Si atom -12392.364070 kJ/mol
# Density = 1.490655 g / cm^3
# Si number density = 14.940560 Si / 1000 Ang^3
#
#
#
# Elastic Constant Matrix: (Units=GPa)
#
#
# Indices 1 2 3 4 5 6 
#
# 1 144.5174 51.2486 40.1841 0.0000 0.0000 0.0000
# 2 51.2486 54.7696 23.3160 0.0000 0.0000 0.0000
# 3 40.1841 23.3160 59.3838 0.0000 0.0000 0.0000
# 4 0.0000 0.0000 0.0000 4.1652 0.0000 0.0000
# 5 0.0000 0.0000 0.0000 0.0000 15.1513 0.0000
# 6 0.0000 0.0000 0.0000 0.0000 0.0000 23.0223
#
#
#
# Elastic Compliance Matrix: (Units=1/GPa)
#
#
# Indices 1 2 3 4 5 6 
#
# 1 0.011143 -0.008665 -0.004138 0.000000 0.000000 0.000000
# 2 -0.008665 0.028661 -0.005390 0.000000 0.000000 0.000000
# 3 -0.004138 -0.005390 0.021756 0.000000 0.000000 0.000000
# 4 0.000000 0.000000 0.000000 0.240082 0.000000 0.000000
# 5 0.000000 0.000000 0.000000 0.000000 0.066001 0.000000
# 6 0.000000 0.000000 0.000000 0.000000 0.000000 0.043436
#
#
# Mechanical properties :
#
#
# Convention : Reuss Voigt Hill
#
# Bulk Modulus (GPa) = 39.72338 54.24091 46.98215
# Shear Modulus (GPa) = 10.96839 18.06257 14.51548
#
# Velocity S-wave (km/s) = 2.71243 3.48079 3.12035
# Velocity P-wave (km/s) = 6.03780 7.24829 6.67056
#
# Compressibility (1/GPa) = 0.02517409
#
# Stress axis : x y z
#
# Youngs Moduli (GPa) = 89.74257 34.89103 45.96442
#
# Poissons Ratio (x) = 0.30233 0.19021
# Poissons Ratio (y) = 0.77762 0.24773
# Poissons Ratio (z) = 0.37137 0.18805
#
# Static dielectric constant tensor:
#      x y z
#    x 3.137190 0.000000 0.000000 
#    y 0.000000 2.735550 0.000000 
#    z 0.000000 0.000000 2.576180 
# 
# 
# High freq. dielectric constant tensor:
#      x y z
#    x 1.582350 0.000000 0.000000 
#    y 0.000000 1.547690 0.000000 
#    z 0.000000 0.000000 1.509960 
# 
# From -- ./inp_files/25372.got.cif
#   From: 2010.03.12/outbox.cif.g09.slc.cpg/sg65_13_cif.got.tgz:25372.got - 2010.04.10 20:52:16.
