data_PCOD8265755
_publ_section_title
;
Structure prediction by ZEFSAII (Michael W. Deem and Ramdas Pophale) SiO2 
 PCOD8265755
Probable space group: C M M M
;
_chemical_formula_sum "Si O2"
_cell_formula_units_Z 104
_cell_length_a 27.127269
_cell_length_b 19.031776
_cell_length_c 12.230134
_cell_angle_alpha 90.000000
_cell_angle_beta 90.000000
_cell_angle_gamma 90.000000
_cell_volume 6314.174891
_symmetry_space_group_name_H-M "C M M M"
_symmetry_group_IT_number 65
_symmetry_cell_setting 'orthorhombic'
loop_
_space_group_symop_operation_xyz
x,y,z
-x,-y,z
x,-y,-z
-x,y,-z
-x,-y,-z
x,y,-z
-x,y,z
x,-y,z
1/2+x,1/2+y,z
1/2-x,1/2-y,z
1/2+x,1/2-y,-z
1/2-x,1/2+y,-z
1/2-x,1/2-y,-z
1/2+x,1/2+y,-z
1/2-x,1/2+y,z
1/2+x,1/2-y,z
loop_
_atom_site_type_symbol
_atom_site_label
_atom_site_fract_x
_atom_site_fract_y
_atom_site_fract_z
Si Si1 0.222889 0.419254 0.701574
Si Si2 0.944689 0.317587 0.870355
Si Si3 0.908365 0.167143 0.129370
Si Si4 0.838225 0.921622 0.262627
Si Si5 0.500000 0.577711 0.870080
Si Si6 0.238817 0.667263 0.500000
Si Si7 0.666258 0.578249 0.500000
Si Si8 0.640736 0.081378 0.124789
O O1 0.212635 0.500000 0.664046
O O2 0.279600 0.410940 0.735692
O O3 0.209982 0.362714 0.606427
O O4 0.188425 0.399023 0.803885
O O5 0.920933 0.244887 0.828696
O O6 0.908142 0.379128 0.831283
O O7 0.000000 0.328243 0.821360
O O8 0.949214 0.315527 0.000000
O O9 0.858605 0.138589 0.183823
O O10 0.951823 0.117182 0.171949
O O11 0.901385 0.164794 0.000000
O O12 0.862718 0.912941 0.384963
O O13 0.850577 0.000000 0.217803
O O14 0.500000 0.500000 0.819815
O O15 0.500000 0.576455 0.000000
O O16 0.250000 0.750000 0.500000
O O17 0.292352 0.635534 0.500000
O O18 0.690634 0.500000 0.500000
O O19 0.627673 0.000000 0.132833
O O20 0.652721 0.103727 0.000000
#
# Coordination Sequence:
#
# PCOD8265755 Si02
#       8
#    16  16  16  16   8   8   8  16
#     4   9  18  33  49  68  98 130 157 191 238 282
#     4   9  17  31  48  65  91 125 155 188 235 283
#     4  10  18  28  43  67  93 118 150 187 235 282
#     4   9  17  29  47  66  88 122 157 188 222 268
#     4   9  16  26  40  59  86 114 146 189 224 261
#     4  10  18  28  48  72  93 120 163 205 228 266
#     4   8  16  32  46  59  85 122 159 189 222 261
#     4   9  18  31  48  71  96 123 157 195 234 282
#
# _framework density 16.470877000000002
#
# number of rings (size 3 to 8) (size 9 to 14) (size 15 to 20)
#    0.000    2.846    0.769    2.077    0.000    4.308 
#    0.000    3.077    0.000    3.692    0.000    3.769 
#    0.000    2.462    0.000    0.000    0.000    0.000 
#
# Total GULP energy -644332.235428 kJ/mol
# GULP energy per Si atom -12391.004527 kJ/mol
# Density = 1.643339 g / cm^3
# Si number density = 16.470877 Si / 1000 Ang^3
#
#
#
# Elastic Constant Matrix: (Units=GPa)
#
#
# Indices 1 2 3 4 5 6 
#
# 1 85.5750 47.1560 43.8709 0.0000 0.0000 0.0000
# 2 47.1560 101.7742 43.9998 0.0000 0.0000 0.0000
# 3 43.8709 43.9998 65.9003 0.0000 0.0000 0.0000
# 4 0.0000 0.0000 0.0000 19.8059 0.0000 0.0000
# 5 0.0000 0.0000 0.0000 0.0000 5.1872 0.0000
# 6 0.0000 0.0000 0.0000 0.0000 0.0000 23.8140
#
#
#
# Elastic Compliance Matrix: (Units=1/GPa)
#
#
# Indices 1 2 3 4 5 6 
#
# 1 0.019245 -0.004749 -0.009641 0.000000 0.000000 0.000000
# 2 -0.004749 0.014985 -0.006843 0.000000 0.000000 0.000000
# 3 -0.009641 -0.006843 0.026162 0.000000 0.000000 0.000000
# 4 0.000000 0.000000 0.000000 0.050490 0.000000 0.000000
# 5 0.000000 0.000000 0.000000 0.000000 0.192782 0.000000
# 6 0.000000 0.000000 0.000000 0.000000 0.000000 0.041992
#
#
# Mechanical properties :
#
#
# Convention : Reuss Voigt Hill
#
# Bulk Modulus (GPa) = 55.78863 58.14475 56.96669
# Shear Modulus (GPa) = 12.68721 17.64295 15.16508
#
# Velocity S-wave (km/s) = 2.77841 3.27641 3.03763
# Velocity P-wave (km/s) = 6.65111 7.04921 6.85305
#
# Compressibility (1/GPa) = 0.01792480
#
# Stress axis : x y z
#
# Youngs Moduli (GPa) = 51.96114 66.73520 38.22367
#
# Poissons Ratio (x) = 0.31692 0.36852
# Poissons Ratio (y) = 0.24676 0.26158
# Poissons Ratio (z) = 0.50096 0.45669
#
# Static dielectric constant tensor:
#      x y z
#    x 3.006600 0.000000 0.000000 
#    y 0.000000 3.242350 0.000000 
#    z 0.000000 0.000000 3.091980 
# 
# 
# High freq. dielectric constant tensor:
#      x y z
#    x 1.616340 0.000000 0.000000 
#    y 0.000000 1.640440 0.000000 
#    z 0.000000 0.000000 1.605870 
# 
# From -- ./inp_files/32598.got.cif
#   From: 2010.03.12/outbox.cif.g09.slc.cpg/sg65_17_cif.got.tgz:32598.got - 2010.04.10 20:52:16.
