data_PCOD8265362
_publ_section_title
;
Structure prediction by ZEFSAII (Michael W. Deem and Ramdas Pophale) SiO2 
 PCOD8265362
Probable space group: C M M M
;
_chemical_formula_sum "Si O2"
_cell_formula_units_Z 112
_cell_length_a 14.678730
_cell_length_b 15.980768
_cell_length_c 23.349386
_cell_angle_alpha 90.000000
_cell_angle_beta 90.000000
_cell_angle_gamma 90.000000
_cell_volume 5477.237761
_symmetry_space_group_name_H-M "C M M M"
_symmetry_group_IT_number 65
_symmetry_cell_setting 'orthorhombic'
loop_
_space_group_symop_operation_xyz
x,y,z
-x,-y,z
x,-y,-z
-x,y,-z
-x,-y,-z
x,y,-z
-x,y,z
x,-y,z
1/2+x,1/2+y,z
1/2-x,1/2-y,z
1/2+x,1/2-y,-z
1/2-x,1/2+y,-z
1/2-x,1/2-y,-z
1/2+x,1/2+y,-z
1/2-x,1/2+y,z
1/2+x,1/2-y,z
loop_
_atom_site_type_symbol
_atom_site_label
_atom_site_fract_x
_atom_site_fract_y
_atom_site_fract_z
Si Si1 0.141485 0.407213 0.564943
Si Si2 0.857724 0.907985 0.564730
Si Si3 0.644259 0.251082 0.632743
Si Si4 0.292972 0.593609 0.158766
Si Si5 0.100982 0.207572 0.760702
Si Si6 0.599902 0.846472 0.856098
Si Si7 0.895269 0.197428 0.065363
O O1 0.109898 0.388016 0.500000
O O2 0.105538 0.500000 0.583533
O O3 0.249566 0.407632 0.568295
O O4 0.100993 0.334478 0.606450
O O5 0.890057 0.891317 0.500000
O O6 0.899665 0.834330 0.604093
O O7 0.893043 0.000000 0.585084
O O8 0.750000 0.250000 0.617901
O O9 0.628322 0.255005 0.699952
O O10 0.329771 0.500000 0.162759
O O11 0.325215 0.640396 0.216758
O O12 0.183057 0.589966 0.153031
O O13 0.333749 0.635843 0.102423
O O14 0.100149 0.284683 0.802984
O O15 0.000000 0.166569 0.758595
O O16 0.500000 0.891593 0.859615
O O17 0.617039 0.792869 0.913782
O O18 0.000000 0.169443 0.072687
O O19 0.862778 0.191745 0.000000
#
# Coordination Sequence:
#
# PCOD8265362 Si02
#       7
#    16  16  16  16  16  16  16
#     4   8  14  25  43  70 101 128 160 212 277 339
#     4   8  14  24  39  64  96 126 162 211 264 318
#     4  10  17  27  48  73  95 126 171 221 275 331
#     4  11  22  35  55  82 112 145 179 224 283 336
#     4  10  21  37  54  72 100 140 185 229 269 317
#     4   9  19  37  58  79 106 141 181 224 271 327
#     4   9  18  34  58  85 112 148 193 234 269 312
#
# _framework density 20.448262
#
# number of rings (size 3 to 8) (size 9 to 14) (size 15 to 20)
#    0.000    2.714    0.000    5.143    0.000    5.143 
#    0.000    4.286    0.000    3.000    0.000    5.000 
#    0.000    0.000    0.000    0.000    0.000    0.000 
#
# Total GULP energy -693974.864462 kJ/mol
# GULP energy per Si atom -12392.408294 kJ/mol
# Density = 2.040172 g / cm^3
# Si number density = 20.448262 Si / 1000 Ang^3
#
#
#
# Elastic Constant Matrix: (Units=GPa)
#
#
# Indices 1 2 3 4 5 6 
#
# 1 80.7864 24.0042 14.9106 0.0000 0.0000 0.0000
# 2 24.0042 110.6685 59.5277 0.0000 0.0000 0.0000
# 3 14.9106 59.5277 123.2556 0.0000 0.0000 0.0000
# 4 0.0000 0.0000 0.0000 11.0692 0.0000 0.0000
# 5 0.0000 0.0000 0.0000 0.0000 51.1253 0.0000
# 6 0.0000 0.0000 0.0000 0.0000 0.0000 -3.7091
#
#
#
# Elastic Compliance Matrix: (Units=1/GPa)
#
#
# Indices 1 2 3 4 5 6 
#
# 1 0.013239 -0.002715 -0.000290 0.000000 0.000000 0.000000
# 2 -0.002715 0.012764 -0.005836 0.000000 0.000000 0.000000
# 3 -0.000290 -0.005836 0.010967 0.000000 0.000000 0.000000
# 4 0.000000 0.000000 0.000000 0.090340 0.000000 0.000000
# 5 0.000000 0.000000 0.000000 0.000000 0.019560 0.000000
# 6 0.000000 0.000000 0.000000 0.000000 0.000000 -0.269611
#
#
# Mechanical properties :
#
#
# Convention : Reuss Voigt Hill
#
# Bulk Modulus (GPa) = 51.84966 56.84395 54.34681
# Shear Modulus (GPa) = -50.69540 26.11495 -12.29022
#
# Velocity S-wave (km/s) = -4.98456 3.57756 -2.45427
# Velocity P-wave (km/s) = 2.77781 6.70258 4.31325
#
# Compressibility (1/GPa) = 0.01928653
#
# Stress axis : x y z
#
# Youngs Moduli (GPa) = 75.53607 78.34417 91.18319
#
# Poissons Ratio (x) = 0.21274 0.02645
# Poissons Ratio (y) = 0.20512 0.53216
# Poissons Ratio (z) = 0.02191 0.45723
#
# Static dielectric constant tensor:
#      x y z
#    x 3.762400 0.000000 0.000000 
#    y 0.000000 3.829530 0.000000 
#    z 0.000000 0.000000 3.694960 
# 
# 
# High freq. dielectric constant tensor:
#      x y z
#    x 1.796700 0.000000 0.000000 
#    y 0.000000 1.780920 0.000000 
#    z 0.000000 0.000000 1.790360 
# 
# From -- ./inp_files/74914.got.cif
#   From: 2010.03.12/outbox.cif.g09.slc.cpg/sg65_38_cif.got.tgz:74914.got - 2010.04.10 20:52:16.
