data_PCOD8265240
_publ_section_title
;
Structure prediction by ZEFSAII (Michael W. Deem and Ramdas Pophale) SiO2 
 PCOD8265240
Probable space group: C M M M
;
_chemical_formula_sum "Si O2"
_cell_formula_units_Z 88
_cell_length_a 17.747563
_cell_length_b 21.004933
_cell_length_c 14.475037
_cell_angle_alpha 90.000000
_cell_angle_beta 90.000000
_cell_angle_gamma 90.000000
_cell_volume 5396.096524
_symmetry_space_group_name_H-M "C M M M"
_symmetry_group_IT_number 65
_symmetry_cell_setting 'orthorhombic'
loop_
_space_group_symop_operation_xyz
x,y,z
-x,-y,z
x,-y,-z
-x,y,-z
-x,-y,-z
x,y,-z
-x,y,z
x,-y,z
1/2+x,1/2+y,z
1/2-x,1/2-y,z
1/2+x,1/2-y,-z
1/2-x,1/2+y,-z
1/2-x,1/2-y,-z
1/2+x,1/2+y,-z
1/2-x,1/2+y,z
1/2+x,1/2-y,z
loop_
_atom_site_type_symbol
_atom_site_label
_atom_site_fract_x
_atom_site_fract_y
_atom_site_fract_z
Si Si1 0.500000 0.924749 0.105541
Si Si2 0.812065 0.341226 0.399043
Si Si3 0.851662 0.193932 0.399122
Si Si4 0.084075 0.207813 0.210357
Si Si5 0.773684 0.822955 0.103373
Si Si6 0.630151 0.854058 0.791366
O O1 0.426174 0.901678 0.158871
O O2 0.500000 0.000000 0.105526
O O3 0.500000 0.898543 0.000000
O O4 0.836092 0.369068 0.500000
O O5 0.827274 0.266730 0.395816
O O6 0.722346 0.349913 0.384008
O O7 0.858991 0.374498 0.316391
O O8 0.887971 0.178433 0.500000
O O9 0.910103 0.182813 0.316109
O O10 0.143976 0.169340 0.148706
O O11 0.098033 0.283003 0.201563
O O12 0.000000 0.192646 0.174678
O O13 0.750000 0.750000 0.103481
O O14 0.711439 0.861591 0.160505
O O15 0.777270 0.850513 0.000000
#
# Coordination Sequence:
#
# PCOD8265240 Si02
#       6
#     8  16  16  16  16  16
#     4  11  24  38  51  67  85 111 156 210 246 266
#     4   8  13  23  43  63  81 111 149 181 214 262
#     4   8  13  22  36  58  88 118 148 179 207 250
#     4  10  17  25  38  64  93 120 149 179 217 268
#     4   9  17  27  40  58  81 114 151 183 218 271
#     4  10  17  32  47  61  83 117 152 188 229 271
#
# _framework density 16.308084999999998
#
# number of rings (size 3 to 8) (size 9 to 14) (size 15 to 20)
#    0.000    2.818    2.727    1.636    0.000    1.455 
#    0.000    0.455    0.000    1.091    0.000    0.000 
#    0.000    0.727    0.000    3.818    0.000    5.818 
#
# Total GULP energy -545182.874553 kJ/mol
# GULP energy per Si atom -12390.519876 kJ/mol
# Density = 1.627097 g / cm^3
# Si number density = 16.308085 Si / 1000 Ang^3
#
#
#
# Elastic Constant Matrix: (Units=GPa)
#
#
# Indices 1 2 3 4 5 6 
#
# 1 125.8043 15.1766 65.7225 0.0000 0.0000 0.0000
# 2 15.1766 17.9698 21.7444 0.0000 0.0000 0.0000
# 3 65.7225 21.7444 151.5107 0.0000 0.0000 0.0000
# 4 0.0000 0.0000 0.0000 9.7119 0.0000 0.0000
# 5 0.0000 0.0000 0.0000 0.0000 21.4610 0.0000
# 6 0.0000 0.0000 0.0000 0.0000 0.0000 9.0004
#
#
#
# Elastic Compliance Matrix: (Units=1/GPa)
#
#
# Indices 1 2 3 4 5 6 
#
# 1 0.010518 -0.004069 -0.003979 0.000000 0.000000 0.000000
# 2 -0.004069 0.068918 -0.008126 0.000000 0.000000 0.000000
# 3 -0.003979 -0.008126 0.009492 0.000000 0.000000 0.000000
# 4 0.000000 0.000000 0.000000 0.102966 0.000000 0.000000
# 5 0.000000 0.000000 0.000000 0.000000 0.046596 0.000000
# 6 0.000000 0.000000 0.000000 0.000000 0.000000 0.111106
#
#
# Mechanical properties :
#
#
# Convention : Reuss Voigt Hill
#
# Bulk Modulus (GPa) = 17.67352 55.61909 36.64631
# Shear Modulus (GPa) = 12.47490 20.87741 16.67616
#
# Velocity S-wave (km/s) = 2.76878 3.58185 3.20123
# Velocity P-wave (km/s) = 4.59155 7.16139 6.01531
#
# Compressibility (1/GPa) = 0.05658181
#
# Stress axis : x y z
#
# Youngs Moduli (GPa) = 95.07297 14.50992 105.34873
#
# Poissons Ratio (x) = 0.05904 0.41915
# Poissons Ratio (y) = 0.38684 0.85606
# Poissons Ratio (z) = 0.37826 0.11791
#
# Static dielectric constant tensor:
#      x y z
#    x 3.080600 0.000000 0.000000 
#    y 0.000000 2.303450 0.000000 
#    z 0.000000 0.000000 3.633440 
# 
# 
# High freq. dielectric constant tensor:
#      x y z
#    x 1.625210 0.000000 0.000000 
#    y 0.000000 1.527400 0.000000 
#    z 0.000000 0.000000 1.653060 
# 
# From -- ./inp_files/42533.got.cif
#   From: 2010.03.12/outbox.cif.g09.slc.cpg/sg65_22_cif.got.tgz:42533.got - 2010.04.10 20:52:16.
