data_PCOD8265098
_publ_section_title
;
Structure prediction by ZEFSAII (Michael W. Deem and Ramdas Pophale) SiO2 
 PCOD8265098
Probable space group: C M M M
;
_chemical_formula_sum "Si O2"
_cell_formula_units_Z 64
_cell_length_a 8.824981
_cell_length_b 18.276547
_cell_length_c 20.996422
_cell_angle_alpha 90.000000
_cell_angle_beta 90.000000
_cell_angle_gamma 90.000000
_cell_volume 3386.516684
_symmetry_space_group_name_H-M "C M M M"
_symmetry_group_IT_number 65
_symmetry_cell_setting 'orthorhombic'
loop_
_space_group_symop_operation_xyz
x,y,z
-x,-y,z
x,-y,-z
-x,y,-z
-x,-y,-z
x,y,-z
-x,y,z
x,-y,z
1/2+x,1/2+y,z
1/2-x,1/2-y,z
1/2+x,1/2-y,-z
1/2-x,1/2+y,-z
1/2-x,1/2-y,-z
1/2+x,1/2+y,-z
1/2-x,1/2+y,z
1/2+x,1/2-y,z
loop_
_atom_site_type_symbol
_atom_site_label
_atom_site_fract_x
_atom_site_fract_y
_atom_site_fract_z
Si Si1 0.177719 0.170663 0.376548
Si Si2 0.321354 0.829541 0.000000
Si Si3 0.679690 0.831372 0.500000
Si Si4 0.323933 0.328251 0.237103
Si Si5 0.822026 0.915444 0.114874
O O1 0.250000 0.250000 0.372841
O O2 0.259100 0.128083 0.435607
O O3 0.211297 0.135773 0.306869
O O4 0.000000 0.175484 0.391112
O O5 0.250000 0.750000 0.000000
O O6 0.270966 0.872824 0.937835
O O7 0.500000 0.821051 0.000000
O O8 0.500000 0.829623 0.500000
O O9 0.750000 0.750000 0.500000
O O10 0.500000 0.312530 0.231392
O O11 0.250000 0.250000 0.225419
O O12 0.270696 0.385613 0.183860
O O13 0.000000 0.903689 0.102744
O O14 0.777559 0.000000 0.111428
#
# Coordination Sequence:
#
# PCOD8265098 Si02
#       5
#    16   8   8  16  16
#     4   9  15  24  38  59  89 122 158 200 247 296
#     4  12  25  40  59  83 109 137 173 212 253 302
#     4  10  16  22  34  56  87 122 159 197 245 299
#     4   9  18  31  49  73  99 131 169 209 253 302
#     4  10  21  38  58  80 108 140 172 209 256 306
#
# _framework density 18.898475000000001
#
# number of rings (size 3 to 8) (size 9 to 14) (size 15 to 20)
#    0.000    2.250    0.000    5.625    0.000    6.000 
#    0.000    0.000    0.000    0.000    0.000    0.875 
#    0.000    7.000    0.000    0.000    0.000    0.000 
#
# Total GULP energy -396538.501012 kJ/mol
# GULP energy per Si atom -12391.828157 kJ/mol
# Density = 1.885546 g / cm^3
# Si number density = 18.898475 Si / 1000 Ang^3
#
#
#
# Elastic Constant Matrix: (Units=GPa)
#
#
# Indices 1 2 3 4 5 6 
#
# 1 109.1804 44.1050 82.2720 0.0000 0.0000 0.0000
# 2 44.1050 89.6978 68.8424 0.0000 0.0000 0.0000
# 3 82.2720 68.8424 210.7009 0.0000 0.0000 0.0000
# 4 0.0000 0.0000 0.0000 -397.3320 0.0000 0.0000
# 5 0.0000 0.0000 0.0000 0.0000 97.0983 0.0000
# 6 0.0000 0.0000 0.0000 0.0000 0.0000 17.0992
#
#
#
# Elastic Compliance Matrix: (Units=1/GPa)
#
#
# Indices 1 2 3 4 5 6 
#
# 1 0.013766 -0.003528 -0.004223 0.000000 0.000000 0.000000
# 2 -0.003528 0.015784 -0.003779 0.000000 0.000000 0.000000
# 3 -0.004223 -0.003779 0.007630 0.000000 0.000000 0.000000
# 4 0.000000 0.000000 0.000000 -0.002517 0.000000 0.000000
# 5 0.000000 0.000000 0.000000 0.000000 0.010299 0.000000
# 6 0.000000 0.000000 0.000000 0.000000 0.000000 0.058482
#
#
# Mechanical properties :
#
#
# Convention : Reuss Voigt Hill
#
# Bulk Modulus (GPa) = 70.82337 88.89089 79.85713
# Shear Modulus (GPa) = 38.10646 -42.33625 -2.11490
#
# Velocity S-wave (km/s) = 4.49528 -4.73820 -1.05901
# Velocity P-wave (km/s) = 8.03122 4.14777 6.39158
#
# Compressibility (1/GPa) = 0.01411963
#
# Stress axis : x y z
#
# Youngs Moduli (GPa) = 72.64126 63.35481 131.06685
#
# Poissons Ratio (x) = 0.22353 0.55343
# Poissons Ratio (y) = 0.25629 0.49537
# Poissons Ratio (z) = 0.30673 0.23945
#
# Static dielectric constant tensor:
#      x y z
#    x 3.476340 0.000000 0.000000 
#    y 0.000000 3.064950 0.000000 
#    z 0.000000 0.000000 5.153300 
# 
# 
# High freq. dielectric constant tensor:
#      x y z
#    x 1.737130 0.000000 0.000000 
#    y 0.000000 1.675260 0.000000 
#    z 0.000000 0.000000 1.772130 
# 
# From -- ./inp_files/59138.got.cif
#   From: 2010.03.12/outbox.cif.g09.slc.cpg/sg65_30_cif.got.tgz:59138.got - 2010.04.10 20:52:16.
