data_PCOD8265009
_publ_section_title
;
Structure prediction by ZEFSAII (Michael W. Deem and Ramdas Pophale) SiO2 
 PCOD8265009
Probable space group: C M C A
;
_chemical_formula_sum "Si O2"
_cell_formula_units_Z 48
_cell_length_a 17.898835
_cell_length_b 13.625541
_cell_length_c 7.888073
_cell_angle_alpha 90.000000
_cell_angle_beta 90.000000
_cell_angle_gamma 90.000000
_cell_volume 1923.753578
_symmetry_space_group_name_H-M "C M C A"
_symmetry_group_IT_number 64
_symmetry_cell_setting 'orthorhombic'
loop_
_space_group_symop_operation_xyz
x,y,z
-x,1/2-y,1/2+z
x,-y,-z
-x,1/2+y,1/2-z
-x,-y,-z
x,1/2+y,1/2-z
-x,y,z
x,1/2-y,1/2+z
1/2+x,1/2+y,z
1/2-x,-y,1/2+z
1/2+x,1/2-y,-z
1/2-x,y,1/2-z
1/2-x,1/2-y,-z
1/2+x,y,1/2-z
1/2-x,1/2+y,z
1/2+x,-y,1/2+z
loop_
_atom_site_type_symbol
_atom_site_label
_atom_site_fract_x
_atom_site_fract_y
_atom_site_fract_z
Si Si1 0.413473 0.128174 0.807383
Si Si2 0.327711 0.535326 0.190594
Si Si3 0.672884 0.223886 0.098253
O O1 0.500000 0.150003 0.778585
O O2 0.363757 0.175046 0.656850
O O3 0.395736 0.011795 0.799228
O O4 0.387379 0.169328 0.985220
O O5 0.250000 0.485617 0.250000
O O6 0.320653 0.652537 0.233117
O O7 0.341361 0.500000 0.000000
O O8 0.750000 0.250000 0.000000
#
# Coordination Sequence:
#
# PCOD8265009 Si02
#       3
#    16  16  16
#     4  12  26  43  68 104 145 188 239 308 384 449
#     4  12  25  44  71 102 139 188 246 305 369 448
#     4  12  25  46  75 104 141 194 253 308 369 450
#
# _framework density 24.951218999999998
#
# number of rings (size 3 to 8) (size 9 to 14) (size 15 to 20)
#    0.000    0.000    0.000   13.000    0.000    4.667 
#    0.000    0.000    0.000    0.000    0.000    0.000 
#    0.000    0.000    0.000    0.000    0.000    0.000 
#
# Total GULP energy -297338.233162 kJ/mol
# GULP energy per Si atom -12389.093048 kJ/mol
# Density = 2.489443 g / cm^3
# Si number density = 24.951219 Si / 1000 Ang^3
#
#
#
# Elastic Constant Matrix: (Units=GPa)
#
#
# Indices 1 2 3 4 5 6 
#
# 1 171.4318 44.9376 32.2993 0.0000 0.0000 0.0000
# 2 44.9376 130.2446 32.0422 0.0000 0.0000 0.0000
# 3 32.2993 32.0422 70.7082 0.0000 0.0000 0.0000
# 4 0.0000 0.0000 0.0000 -14.6436 0.0000 0.0000
# 5 0.0000 0.0000 0.0000 0.0000 37.0010 0.0000
# 6 0.0000 0.0000 0.0000 0.0000 0.0000 17.6191
#
#
#
# Elastic Compliance Matrix: (Units=1/GPa)
#
#
# Indices 1 2 3 4 5 6 
#
# 1 0.006723 -0.001760 -0.002273 0.000000 0.000000 0.000000
# 2 -0.001760 0.009102 -0.003321 0.000000 0.000000 0.000000
# 3 -0.002273 -0.003321 0.016686 0.000000 0.000000 0.000000
# 4 0.000000 0.000000 0.000000 -0.068289 0.000000 0.000000
# 5 0.000000 0.000000 0.000000 0.000000 0.027026 0.000000
# 6 0.000000 0.000000 0.000000 0.000000 0.000000 0.056757
#
#
# Mechanical properties :
#
#
# Convention : Reuss Voigt Hill
#
# Bulk Modulus (GPa) = 56.17211 65.66031 60.91621
# Shear Modulus (GPa) = 72.83591 25.53565 49.18578
#
# Velocity S-wave (km/s) = 5.40876 3.20257 4.44472
# Velocity P-wave (km/s) = 7.84652 6.32834 7.12797
#
# Compressibility (1/GPa) = 0.01780243
#
# Stress axis : x y z
#
# Youngs Moduli (GPa) = 148.74372 109.86421 59.93094
#
# Poissons Ratio (x) = 0.19340 0.13624
# Poissons Ratio (y) = 0.26184 0.19901
# Poissons Ratio (z) = 0.33814 0.36482
#
# Static dielectric constant tensor:
#      x y z
#    x 4.253510 0.000000 0.000000 
#    y 0.000000 4.767450 0.000000 
#    z 0.000000 0.000000 4.656540 
# 
# 
# High freq. dielectric constant tensor:
#      x y z
#    x 1.979320 0.000000 0.000000 
#    y 0.000000 2.009600 0.000000 
#    z 0.000000 0.000000 2.012060 
# 
# From -- ./inp_files/6251.got.cif
#   From: 2010.03.12/outbox.cif.g09.slc.cpg/sg64_4_cif.got.tgz:6251.got - 2010.04.10 20:19:32.
