data_PCOD8265609
_publ_section_title
;
Structure prediction by ZEFSAII (Michael W. Deem and Ramdas Pophale) SiO2 
 PCOD8265609
Probable space group: C M M M
;
_chemical_formula_sum "Si O2"
_cell_formula_units_Z 96
_cell_length_a 28.152085
_cell_length_b 27.837790
_cell_length_c 9.583266
_cell_angle_alpha 90.000000
_cell_angle_beta 90.000000
_cell_angle_gamma 90.000000
_cell_volume 7510.327272
_symmetry_space_group_name_H-M "C M M M"
_symmetry_group_IT_number 65
_symmetry_cell_setting 'orthorhombic'
loop_
_space_group_symop_operation_xyz
x,y,z
-x,-y,z
x,-y,-z
-x,y,-z
-x,-y,-z
x,y,-z
-x,y,z
x,-y,z
1/2+x,1/2+y,z
1/2-x,1/2-y,z
1/2+x,1/2-y,-z
1/2-x,1/2+y,-z
1/2-x,1/2-y,-z
1/2+x,1/2+y,-z
1/2-x,1/2+y,z
1/2+x,1/2-y,z
loop_
_atom_site_type_symbol
_atom_site_label
_atom_site_fract_x
_atom_site_fract_y
_atom_site_fract_z
Si Si1 0.401854 0.500000 0.839682
Si Si2 0.192655 0.000000 0.337869
Si Si3 0.325704 0.265587 0.157671
Si Si4 0.871747 0.840897 0.663713
Si Si5 0.775640 0.102978 0.340331
Si Si6 0.055277 0.101418 0.159580
Si Si7 0.270836 0.824747 0.155972
O O1 0.355247 0.500000 0.747720
O O2 0.433498 0.546240 0.804094
O O3 0.385507 0.500000 0.000000
O O4 0.223999 0.046723 0.301273
O O5 0.177888 0.000000 0.500000
O O6 0.362714 0.288695 0.266464
O O7 0.313946 0.210533 0.202571
O O8 0.277488 0.295297 0.162492
O O9 0.346487 0.266889 0.000000
O O10 0.881038 0.833753 0.500000
O O11 0.827574 0.875973 0.693888
O O12 0.917659 0.863656 0.735090
O O13 0.762689 0.111824 0.500000
O O14 0.733709 0.128786 0.254319
O O15 0.000000 0.110585 0.182623
O O16 0.070327 0.112903 0.000000
O O17 0.280321 0.843435 0.000000
#
# Coordination Sequence:
#
# PCOD8265609 Si02
#       7
#     8   8  16  16  16  16  16
#     4  10  19  30  44  56  64  84 120 158 192 227
#     4  10  18  29  39  51  74  98 120 148 185 225
#     4   8  14  25  39  54  72  91 109 135 173 214
#     4  10  18  27  40  56  71  90 114 144 180 221
#     4   9  17  26  37  51  71  95 117 144 178 215
#     4  10  20  32  43  54  69  89 116 153 194 232
#     4   8  14  24  38  54  71  90 112 139 171 208
#
# _framework density 12.782399
#
# number of rings (size 3 to 8) (size 9 to 14) (size 15 to 20)
#    0.000    2.833    1.667    1.750    0.000    3.333 
#    0.000    3.333    0.000    1.500    0.000    0.000 
#    0.000    0.000    0.000    0.000    0.000    0.000 
#
# Total GULP energy -594997.645648 kJ/mol
# GULP energy per Si atom -12395.784284 kJ/mol
# Density = 1.275331 g / cm^3
# Si number density = 12.782399 Si / 1000 Ang^3
#
#
#
# Elastic Constant Matrix: (Units=GPa)
#
#
# Indices 1 2 3 4 5 6 
#
# 1 38.6913 42.2917 38.7243 0.0000 0.0000 0.0000
# 2 42.2917 86.9627 56.3858 0.0000 0.0000 0.0000
# 3 38.7243 56.3858 79.0261 0.0000 0.0000 0.0000
# 4 0.0000 0.0000 0.0000 21.5443 0.0000 0.0000
# 5 0.0000 0.0000 0.0000 0.0000 15.5782 0.0000
# 6 0.0000 0.0000 0.0000 0.0000 0.0000 -0.4160
#
#
#
# Elastic Compliance Matrix: (Units=1/GPa)
#
#
# Indices 1 2 3 4 5 6 
#
# 1 0.066157 -0.020756 -0.017608 0.000000 0.000000 0.000000
# 2 -0.020756 0.027911 -0.009744 0.000000 0.000000 0.000000
# 3 -0.017608 -0.009744 0.028235 0.000000 0.000000 0.000000
# 4 0.000000 0.000000 0.000000 0.046416 0.000000 0.000000
# 5 0.000000 0.000000 0.000000 0.000000 0.064192 0.000000
# 6 0.000000 0.000000 0.000000 0.000000 0.000000 -2.404096
#
#
# Mechanical properties :
#
#
# Convention : Reuss Voigt Hill
#
# Bulk Modulus (GPa) = 38.33506 53.27596 45.80551
# Shear Modulus (GPa) = -2.41982 11.82654 4.70336
#
# Velocity S-wave (km/s) = -1.37739 3.04504 1.92030
# Velocity P-wave (km/s) = 5.24652 7.35749 6.38979
#
# Compressibility (1/GPa) = 0.02608578
#
# Stress axis : x y z
#
# Youngs Moduli (GPa) = 15.11560 35.82781 35.41727
#
# Poissons Ratio (x) = 0.74365 0.62364
# Poissons Ratio (y) = 0.31374 0.34510
# Poissons Ratio (z) = 0.26616 0.34910
#
# Static dielectric constant tensor:
#      x y z
#    x 2.290890 0.000000 0.000000 
#    y 0.000000 2.782370 0.000000 
#    z 0.000000 0.000000 2.704880 
# 
# 
# High freq. dielectric constant tensor:
#      x y z
#    x 1.433370 0.000000 0.000000 
#    y 0.000000 1.476310 0.000000 
#    z 0.000000 0.000000 1.494860 
# 
# From -- ./inp_files/19189.got.cif
#   From: 2010.03.12/outbox.cif.g09.slc.cpg/sg65_10_cif.got.tgz:19189.got - 2010.04.10 20:52:16.
