data_PCOD8265314
_publ_section_title
;
Structure prediction by ZEFSAII (Michael W. Deem and Ramdas Pophale) SiO2 
 PCOD8265314
Probable space group: C M M M
;
_chemical_formula_sum "Si O2"
_cell_formula_units_Z 88
_cell_length_a 30.260690
_cell_length_b 27.749725
_cell_length_c 7.892413
_cell_angle_alpha 90.000000
_cell_angle_beta 90.000000
_cell_angle_gamma 90.000000
_cell_volume 6627.463024
_symmetry_space_group_name_H-M "C M M M"
_symmetry_group_IT_number 65
_symmetry_cell_setting 'orthorhombic'
loop_
_space_group_symop_operation_xyz
x,y,z
-x,-y,z
x,-y,-z
-x,y,-z
-x,-y,-z
x,y,-z
-x,y,z
x,-y,z
1/2+x,1/2+y,z
1/2-x,1/2-y,z
1/2+x,1/2-y,-z
1/2-x,1/2+y,-z
1/2-x,1/2-y,-z
1/2+x,1/2+y,-z
1/2-x,1/2+y,z
1/2+x,1/2-y,z
loop_
_atom_site_type_symbol
_atom_site_label
_atom_site_fract_x
_atom_site_fract_y
_atom_site_fract_z
Si Si1 0.950208 0.685476 0.303214
Si Si2 0.598803 0.094102 0.193229
Si Si3 0.131190 0.744995 0.311420
Si Si4 0.818334 0.644509 0.314993
Si Si5 0.730881 0.826589 0.000000
Si Si6 0.950261 0.500000 0.202272
Si Si7 0.818990 0.774913 0.000000
O O1 0.946237 0.671746 0.500000
O O2 0.934724 0.639002 0.199333
O O3 0.919505 0.731936 0.264088
O O4 0.000000 0.699084 0.250282
O O5 0.644318 0.103779 0.292248
O O6 0.575075 0.047172 0.271270
O O7 0.611955 0.084880 0.000000
O O8 0.134350 0.768657 0.500000
O O9 0.158253 0.695823 0.309247
O O10 0.150963 0.780626 0.168943
O O11 0.795905 0.636875 0.500000
O O12 0.781499 0.642609 0.167516
O O13 0.783292 0.817654 0.000000
O O14 0.704708 0.776551 0.000000
O O15 0.000000 0.500000 0.275698
O O16 0.951986 0.500000 0.000000
#
# Coordination Sequence:
#
# PCOD8265314 Si02
#       7
#    16  16  16  16   8   8   8
#     4   9  17  27  37  50  67  89 118 146 171 203
#     4  10  17  27  40  52  68  88 114 145 178 215
#     4   8  15  25  35  49  70  90 106 132 165 194
#     4   9  16  27  40  53  68  85 107 133 164 203
#     4   9  16  26  38  55  67  84 104 127 157 201
#     4   9  18  28  37  53  73  92 115 145 182 219
#     4   9  16  24  37  52  70  84 105 126 156 204
#
# _framework density 13.278081999999999
#
# number of rings (size 3 to 8) (size 9 to 14) (size 15 to 20)
#    0.000    3.000    0.909    2.182    3.818    1.818 
#    0.000    5.455    0.000    3.273    0.000    0.000 
#    0.000    0.000    0.000    0.000    0.000    0.000 
#
# Total GULP energy -545343.138639 kJ/mol
# GULP energy per Si atom -12394.162242 kJ/mol
# Density = 1.324786 g / cm^3
# Si number density = 13.278082 Si / 1000 Ang^3
#
#
#
# Elastic Constant Matrix: (Units=GPa)
#
#
# Indices 1 2 3 4 5 6 
#
# 1 84.1175 36.0210 45.7364 0.0000 0.0000 0.0000
# 2 36.0210 26.7689 23.6176 0.0000 0.0000 0.0000
# 3 45.7364 23.6176 89.3765 0.0000 0.0000 0.0000
# 4 0.0000 0.0000 0.0000 5.8526 0.0000 0.0000
# 5 0.0000 0.0000 0.0000 0.0000 15.4884 0.0000
# 6 0.0000 0.0000 0.0000 0.0000 0.0000 19.7901
#
#
#
# Elastic Compliance Matrix: (Units=1/GPa)
#
#
# Indices 1 2 3 4 5 6 
#
# 1 0.030483 -0.035543 -0.006207 0.000000 0.000000 0.000000
# 2 -0.035543 0.090156 -0.005635 0.000000 0.000000 0.000000
# 3 -0.006207 -0.005635 0.015854 0.000000 0.000000 0.000000
# 4 0.000000 0.000000 0.000000 0.170864 0.000000 0.000000
# 5 0.000000 0.000000 0.000000 0.000000 0.064564 0.000000
# 6 0.000000 0.000000 0.000000 0.000000 0.000000 0.050530
#
#
# Mechanical properties :
#
#
# Convention : Reuss Voigt Hill
#
# Bulk Modulus (GPa) = 23.96753 45.66813 34.81783
# Shear Modulus (GPa) = 9.41387 14.55208 11.98298
#
# Velocity S-wave (km/s) = 2.66555 3.31410 3.00736
# Velocity P-wave (km/s) = 5.25007 7.00804 6.19176
#
# Compressibility (1/GPa) = 0.04172311
#
# Stress axis : x y z
#
# Youngs Moduli (GPa) = 32.80488 11.09183 63.07537
#
# Poissons Ratio (x) = 0.39424 0.39151
# Poissons Ratio (y) = 1.16598 0.35546
# Poissons Ratio (z) = 0.20362 0.06251
#
# Static dielectric constant tensor:
#      x y z
#    x 2.697830 0.000000 0.000000 
#    y 0.000000 2.237060 0.000000 
#    z 0.000000 0.000000 2.874050 
# 
# 
# High freq. dielectric constant tensor:
#      x y z
#    x 1.488540 0.000000 0.000000 
#    y 0.000000 1.431690 0.000000 
#    z 0.000000 0.000000 1.521490 
# 
# From -- ./inp_files/19019.got.cif
#   From: 2010.03.12/outbox.cif.g09.slc.cpg/sg65_10_cif.got.tgz:19019.got - 2010.04.10 20:52:16.
