data_PCOD8265085
_publ_section_title
;
Structure prediction by ZEFSAII (Michael W. Deem and Ramdas Pophale) SiO2 
 PCOD8265085
Probable space group: C M M M
;
_chemical_formula_sum "Si O2"
_cell_formula_units_Z 104
_cell_length_a 27.109333
_cell_length_b 8.932527
_cell_length_c 26.709342
_cell_angle_alpha 90.000000
_cell_angle_beta 90.000000
_cell_angle_gamma 90.000000
_cell_volume 6467.796678
_symmetry_space_group_name_H-M "C M M M"
_symmetry_group_IT_number 65
_symmetry_cell_setting 'orthorhombic'
loop_
_space_group_symop_operation_xyz
x,y,z
-x,-y,z
x,-y,-z
-x,y,-z
-x,-y,-z
x,y,-z
-x,y,z
x,-y,z
1/2+x,1/2+y,z
1/2-x,1/2-y,z
1/2+x,1/2-y,-z
1/2-x,1/2+y,-z
1/2-x,1/2-y,-z
1/2+x,1/2+y,-z
1/2-x,1/2+y,z
1/2+x,1/2-y,z
loop_
_atom_site_type_symbol
_atom_site_label
_atom_site_fract_x
_atom_site_fract_y
_atom_site_fract_z
Si Si1 0.399500 0.824498 0.443030
Si Si2 0.943384 0.172443 0.648952
Si Si3 0.642013 0.176553 0.705741
Si Si4 0.199478 0.673410 0.391895
Si Si5 0.303019 0.326605 0.793541
Si Si6 0.695212 0.178263 0.000000
Si Si7 0.697590 0.326832 0.904450
O O1 0.411828 0.781858 0.500000
O O2 0.436222 0.734365 0.407256
O O3 0.342979 0.779869 0.431073
O O4 0.407158 0.000000 0.432505
O O5 0.911272 0.263561 0.689034
O O6 0.000000 0.192559 0.664519
O O7 0.927134 0.000000 0.650008
O O8 0.682408 0.220176 0.663829
O O9 0.657119 0.252330 0.757495
O O10 0.638135 0.000000 0.713075
O O11 0.210106 0.500000 0.394417
O O12 0.250000 0.750000 0.407546
O O13 0.295789 0.500000 0.779859
O O14 0.250000 0.250000 0.787539
O O15 0.326470 0.309022 0.849458
O O16 0.750000 0.250000 0.000000
O O17 0.668237 0.240535 0.949395
O O18 0.695959 0.000000 0.000000
O O19 0.703506 0.500000 0.919412
O O20 0.750000 0.250000 0.899314
#
# Coordination Sequence:
#
# PCOD8265085 Si02
#       7
#    16  16  16  16  16   8  16
#     4   9  19  35  51  68  92 119 147 178 212 257
#     4  10  21  36  53  72  92 112 138 177 223 270
#     4  10  20  33  49  67  89 117 148 183 221 266
#     4   9  18  30  44  64  88 116 147 176 209 249
#     4  10  19  29  43  64  91 122 155 190 227 266
#     4  10  16  22  34  50  72 106 149 194 231 262
#     4   9  16  25  36  52  77 111 150 189 226 263
#
# _framework density 16.079664000000001
#
# number of rings (size 3 to 8) (size 9 to 14) (size 15 to 20)
#    0.000    2.462    0.000    4.846    0.000    8.308 
#    0.000    1.538    0.000    0.000    0.000    0.000 
#    0.000    0.000    0.000    0.692    0.000   13.462 
#
# Total GULP energy -644572.378543 kJ/mol
# GULP energy per Si atom -12395.622664 kJ/mol
# Density = 1.604307 g / cm^3
# Si number density = 16.079664 Si / 1000 Ang^3
#
#
#
# Elastic Constant Matrix: (Units=GPa)
#
#
# Indices 1 2 3 4 5 6 
#
# 1 54.1291 30.8909 28.2418 0.0000 0.0000 0.0000
# 2 30.8909 101.8723 57.0190 0.0000 0.0000 0.0000
# 3 28.2418 57.0190 116.0282 0.0000 0.0000 0.0000
# 4 0.0000 0.0000 0.0000 28.4620 0.0000 0.0000
# 5 0.0000 0.0000 0.0000 0.0000 -5.0974 0.0000
# 6 0.0000 0.0000 0.0000 0.0000 0.0000 22.4860
#
#
#
# Elastic Compliance Matrix: (Units=1/GPa)
#
#
# Indices 1 2 3 4 5 6 
#
# 1 0.023076 -0.005316 -0.003004 0.000000 0.000000 0.000000
# 2 -0.005316 0.014765 -0.005962 0.000000 0.000000 0.000000
# 3 -0.003004 -0.005962 0.012280 0.000000 0.000000 0.000000
# 4 0.000000 0.000000 0.000000 0.035135 0.000000 0.000000
# 5 0.000000 0.000000 0.000000 0.000000 -0.196180 0.000000
# 6 0.000000 0.000000 0.000000 0.000000 0.000000 0.044472
#
#
# Mechanical properties :
#
#
# Convention : Reuss Voigt Hill
#
# Bulk Modulus (GPa) = 46.39055 56.03701 51.21378
# Shear Modulus (GPa) = -162.84951 19.56198 -71.64377
#
# Velocity S-wave (km/s) = -10.07455 3.49172 -6.68223
# Velocity P-wave (km/s) = 10.31580 7.15412 5.25520
#
# Compressibility (1/GPa) = 0.02155611
#
# Stress axis : x y z
#
# Youngs Moduli (GPa) = 43.33600 67.72718 81.43446
#
# Poissons Ratio (x) = 0.36001 0.24467
# Poissons Ratio (y) = 0.23036 0.48552
# Poissons Ratio (z) = 0.13020 0.40380
#
# Static dielectric constant tensor:
#      x y z
#    x 2.657070 0.000000 0.000000 
#    y 0.000000 3.176000 0.000000 
#    z 0.000000 0.000000 3.721930 
# 
# 
# High freq. dielectric constant tensor:
#      x y z
#    x 1.566050 0.000000 0.000000 
#    y 0.000000 1.634310 0.000000 
#    z 0.000000 0.000000 1.625380 
# 
# From -- ./inp_files/76052.got.cif
#   From: 2010.03.12/outbox.cif.g09.slc.cpg/sg65_39_cif.got.tgz:76052.got - 2010.04.10 20:52:16.
