data_PCOD8265452
_publ_section_title
;
Structure prediction by ZEFSAII (Michael W. Deem and Ramdas Pophale) SiO2 
 PCOD8265452
Probable space group: C M M M
;
_chemical_formula_sum "Si O2"
_cell_formula_units_Z 96
_cell_length_a 29.870919
_cell_length_b 27.453512
_cell_length_c 9.157292
_cell_angle_alpha 90.000000
_cell_angle_beta 90.000000
_cell_angle_gamma 90.000000
_cell_volume 7509.543833
_symmetry_space_group_name_H-M "C M M M"
_symmetry_group_IT_number 65
_symmetry_cell_setting 'orthorhombic'
loop_
_space_group_symop_operation_xyz
x,y,z
-x,-y,z
x,-y,-z
-x,y,-z
-x,-y,-z
x,y,-z
-x,y,z
x,-y,z
1/2+x,1/2+y,z
1/2-x,1/2-y,z
1/2+x,1/2-y,-z
1/2-x,1/2+y,-z
1/2-x,1/2-y,-z
1/2+x,1/2+y,-z
1/2-x,1/2+y,z
1/2+x,1/2-y,z
loop_
_atom_site_type_symbol
_atom_site_label
_atom_site_fract_x
_atom_site_fract_y
_atom_site_fract_z
Si Si1 0.405980 0.500000 0.672571
Si Si2 0.189069 0.000000 0.174905
Si Si3 0.321509 0.260028 0.163355
Si Si4 0.869598 0.837061 0.669249
Si Si5 0.784543 0.095552 0.329608
Si Si6 0.049608 0.100260 0.326657
Si Si7 0.265041 0.827323 0.165278
O O1 0.394004 0.500000 0.500000
O O2 0.360741 0.500000 0.763217
O O3 0.434817 0.546556 0.719581
O O4 0.215399 0.953183 0.234557
O O5 0.188585 0.000000 0.000000
O O6 0.360438 0.284400 0.259443
O O7 0.307040 0.205998 0.219204
O O8 0.278658 0.294275 0.167659
O O9 0.340186 0.255645 0.000000
O O10 0.874332 0.826637 0.500000
O O11 0.830669 0.876025 0.700249
O O12 0.915578 0.859529 0.734376
O O13 0.778533 0.083418 0.500000
O O14 0.742185 0.127573 0.274906
O O15 0.048871 0.103108 0.500000
O O16 0.000000 0.110325 0.262462
O O17 0.273383 0.846120 0.000000
#
# Coordination Sequence:
#
# PCOD8265452 Si02
#       7
#     8   8  16  16  16  16  16
#     4  10  17  30  44  54  66  84 120 160 194 231
#     4  12  22  29  39  53  70  96 122 148 185 227
#     4   8  14  24  38  53  72  93 111 132 167 215
#     4   9  16  25  38  55  71  87 113 148 182 219
#     4  10  18  28  40  54  71  90 115 149 182 212
#     4   9  16  26  41  57  70  88 117 155 195 231
#     4   8  14  25  38  54  72  91 112 135 167 212
#
# _framework density 12.783732000000001
#
# number of rings (size 3 to 8) (size 9 to 14) (size 15 to 20)
#    0.000    2.833    1.667    2.500    0.000    2.333 
#    0.000    3.333    0.000    2.500    0.000    0.000 
#    0.000    0.000    0.000    0.000    0.000    0.000 
#
# Total GULP energy -594851.141325 kJ/mol
# GULP energy per Si atom -12392.732111 kJ/mol
# Density = 1.275464 g / cm^3
# Si number density = 12.783732 Si / 1000 Ang^3
#
#
#
# Elastic Constant Matrix: (Units=GPa)
#
#
# Indices 1 2 3 4 5 6 
#
# 1 59.2441 55.4356 26.7350 0.0000 0.0000 0.0000
# 2 55.4356 80.5317 42.7458 0.0000 0.0000 0.0000
# 3 26.7350 42.7458 56.4273 0.0000 0.0000 0.0000
# 4 0.0000 0.0000 0.0000 21.4366 0.0000 0.0000
# 5 0.0000 0.0000 0.0000 0.0000 10.3586 0.0000
# 6 0.0000 0.0000 0.0000 0.0000 0.0000 11.6622
#
#
#
# Elastic Compliance Matrix: (Units=1/GPa)
#
#
# Indices 1 2 3 4 5 6 
#
# 1 0.047917 -0.035012 0.003820 0.000000 0.000000 0.000000
# 2 -0.035012 0.046352 -0.018524 0.000000 0.000000 0.000000
# 3 0.003820 -0.018524 0.029945 0.000000 0.000000 0.000000
# 4 0.000000 0.000000 0.000000 0.046649 0.000000 0.000000
# 5 0.000000 0.000000 0.000000 0.000000 0.096538 0.000000
# 6 0.000000 0.000000 0.000000 0.000000 0.000000 0.085747
#
#
# Mechanical properties :
#
#
# Convention : Reuss Voigt Hill
#
# Bulk Modulus (GPa) = 40.35431 49.55953 44.95692
# Shear Modulus (GPa) = 10.84974 13.44394 12.14684
#
# Velocity S-wave (km/s) = 2.91643 3.24642 3.08584
# Velocity P-wave (km/s) = 6.55562 7.27353 6.92389
#
# Compressibility (1/GPa) = 0.02478050
#
# Stress axis : x y z
#
# Youngs Moduli (GPa) = 20.86944 21.57424 33.39494
#
# Poissons Ratio (x) = 0.75537 -0.12758
# Poissons Ratio (y) = 0.73069 0.61862
# Poissons Ratio (z) = -0.07973 0.39965
#
# Static dielectric constant tensor:
#      x y z
#    x 2.545520 0.000000 0.000000 
#    y 0.000000 2.751570 0.000000 
#    z 0.000000 0.000000 2.556060 
# 
# 
# High freq. dielectric constant tensor:
#      x y z
#    x 1.442910 0.000000 0.000000 
#    y 0.000000 1.473300 0.000000 
#    z 0.000000 0.000000 1.478850 
# 
# From -- ./inp_files/19190.got.cif
#   From: 2010.03.12/outbox.cif.g09.slc.cpg/sg65_10_cif.got.tgz:19190.got - 2010.04.10 20:52:16.
