data_PCOD8265817
_publ_section_title
;
Structure prediction by ZEFSAII (Michael W. Deem and Ramdas Pophale) SiO2 
 PCOD8265817
Probable space group: C M M M
;
_chemical_formula_sum "Si O2"
_cell_formula_units_Z 104
_cell_length_a 26.410984
_cell_length_b 9.773446
_cell_length_c 24.592335
_cell_angle_alpha 90.000000
_cell_angle_beta 90.000000
_cell_angle_gamma 90.000000
_cell_volume 6347.929080
_symmetry_space_group_name_H-M "C M M M"
_symmetry_group_IT_number 65
_symmetry_cell_setting 'orthorhombic'
loop_
_space_group_symop_operation_xyz
x,y,z
-x,-y,z
x,-y,-z
-x,y,-z
-x,-y,-z
x,y,-z
-x,y,z
x,-y,z
1/2+x,1/2+y,z
1/2-x,1/2-y,z
1/2+x,1/2-y,-z
1/2-x,1/2+y,-z
1/2-x,1/2-y,-z
1/2+x,1/2+y,-z
1/2-x,1/2+y,z
1/2+x,1/2-y,z
loop_
_atom_site_type_symbol
_atom_site_label
_atom_site_fract_x
_atom_site_fract_y
_atom_site_fract_z
Si Si1 0.406856 0.337829 0.633079
Si Si2 0.558456 0.348215 0.255399
Si Si3 0.297682 0.658525 0.659387
Si Si4 0.000000 0.836809 0.438772
Si Si5 0.394354 0.657693 0.850414
Si Si6 0.705511 0.653478 0.784266
Si Si7 0.558027 0.157348 0.063009
O O1 0.415029 0.500000 0.637060
O O2 0.418821 0.271217 0.692131
O O3 0.347302 0.304629 0.621926
O O4 0.447863 0.281073 0.589428
O O5 0.500000 0.360501 0.266262
O O6 0.583841 0.500000 0.250939
O O7 0.570144 0.278407 0.197580
O O8 0.282922 0.500000 0.650963
O O9 0.250000 0.750000 0.640342
O O10 0.312012 0.688751 0.722493
O O11 0.000000 0.779577 0.500000
O O12 0.000000 0.000000 0.438455
O O13 0.407448 0.500000 0.864532
O O14 0.337797 0.674572 0.828637
O O15 0.403551 0.747506 0.903703
O O16 0.726428 0.500000 0.785504
O O17 0.750000 0.750000 0.803945
O O18 0.500000 0.198125 0.075697
O O19 0.567511 0.000000 0.078801
O O20 0.570083 0.181424 0.000000
#
# Coordination Sequence:
#
# PCOD8265817 Si02
#       7
#    16  16  16   8  16  16  16
#     4   9  14  23  39  59  89 124 152 186 232 278
#     4   9  14  21  36  60  88 115 140 173 227 283
#     4   9  16  27  43  64  91 124 157 188 228 279
#     4   9  16  24  38  64  95 127 162 197 234 276
#     4  10  18  28  45  70  92 112 147 192 229 270
#     4   9  17  28  42  63  92 119 148 184 225 277
#     4   9  19  35  50  64  88 123 155 180 216 271
#
# _framework density 16.383296000000001
#
# number of rings (size 3 to 8) (size 9 to 14) (size 15 to 20)
#    0.000    2.846    2.308    0.923    0.000    1.846 
#    0.000    0.769    0.000    0.923    0.000    0.538 
#    0.000    0.615    0.000    0.000    0.000    0.000 
#
# Total GULP energy -644245.898652 kJ/mol
# GULP energy per Si atom -12389.344205 kJ/mol
# Density = 1.634601 g / cm^3
# Si number density = 16.383296 Si / 1000 Ang^3
#
#
#
# Elastic Constant Matrix: (Units=GPa)
#
#
# Indices 1 2 3 4 5 6 
#
# 1 112.3074 44.7575 49.9958 0.0000 0.0000 0.0000
# 2 44.7575 46.0418 31.9620 0.0000 0.0000 0.0000
# 3 49.9958 31.9620 78.8614 0.0000 0.0000 0.0000
# 4 0.0000 0.0000 0.0000 9.0422 0.0000 0.0000
# 5 0.0000 0.0000 0.0000 0.0000 17.6217 0.0000
# 6 0.0000 0.0000 0.0000 0.0000 0.0000 23.6908
#
#
#
# Elastic Compliance Matrix: (Units=1/GPa)
#
#
# Indices 1 2 3 4 5 6 
#
# 1 0.016005 -0.011849 -0.005345 0.000000 0.000000 0.000000
# 2 -0.011849 0.038994 -0.008292 0.000000 0.000000 0.000000
# 3 -0.005345 -0.008292 0.019430 0.000000 0.000000 0.000000
# 4 0.000000 0.000000 0.000000 0.110593 0.000000 0.000000
# 5 0.000000 0.000000 0.000000 0.000000 0.056748 0.000000
# 6 0.000000 0.000000 0.000000 0.000000 0.000000 0.042211
#
#
# Mechanical properties :
#
#
# Convention : Reuss Voigt Hill
#
# Bulk Modulus (GPa) = 42.63002 54.51571 48.57287
# Shear Modulus (GPa) = 14.58695 17.43727 16.01211
#
# Velocity S-wave (km/s) = 2.98712 3.26595 3.12964
# Velocity P-wave (km/s) = 6.16231 6.89705 6.54001
#
# Compressibility (1/GPa) = 0.02345765
#
# Stress axis : x y z
#
# Youngs Moduli (GPa) = 62.47853 25.64491 51.46749
#
# Poissons Ratio (x) = 0.30386 0.27508
# Poissons Ratio (y) = 0.74029 0.42679
# Poissons Ratio (z) = 0.33393 0.21266
#
# Static dielectric constant tensor:
#      x y z
#    x 3.118630 0.000000 0.000000 
#    y 0.000000 2.727530 0.000000 
#    z 0.000000 0.000000 2.988570 
# 
# 
# High freq. dielectric constant tensor:
#      x y z
#    x 1.635240 0.000000 0.000000 
#    y 0.000000 1.582540 0.000000 
#    z 0.000000 0.000000 1.610290 
# 
# From -- ./inp_files/71862.got.cif
#   From: 2010.03.12/outbox.cif.g09.slc.cpg/sg65_36_cif.got.tgz:71862.got - 2010.04.10 20:52:16.
