data_PCOD8265303
_publ_section_title
;
Structure prediction by ZEFSAII (Michael W. Deem and Ramdas Pophale) SiO2 
 PCOD8265303
Probable space group: C M M M
;
_chemical_formula_sum "Si O2"
_cell_formula_units_Z 112
_cell_length_a 22.787117
_cell_length_b 16.671966
_cell_length_c 17.839327
_cell_angle_alpha 90.000000
_cell_angle_beta 90.000000
_cell_angle_gamma 90.000000
_cell_volume 6777.268074
_symmetry_space_group_name_H-M "C M M M"
_symmetry_group_IT_number 65
_symmetry_cell_setting 'orthorhombic'
loop_
_space_group_symop_operation_xyz
x,y,z
-x,-y,z
x,-y,-z
-x,y,-z
-x,-y,-z
x,y,-z
-x,y,z
x,-y,z
1/2+x,1/2+y,z
1/2-x,1/2-y,z
1/2+x,1/2-y,-z
1/2-x,1/2+y,-z
1/2-x,1/2-y,-z
1/2+x,1/2+y,-z
1/2-x,1/2+y,z
1/2+x,1/2-y,z
loop_
_atom_site_type_symbol
_atom_site_label
_atom_site_fract_x
_atom_site_fract_y
_atom_site_fract_z
Si Si1 0.258501 0.090229 0.087097
Si Si2 0.885365 0.409861 0.841542
Si Si3 0.675920 0.165939 0.281922
Si Si4 0.066691 0.259348 0.086532
Si Si5 0.198517 0.907659 0.313274
Si Si6 0.332410 0.315819 0.179370
Si Si7 0.181802 0.768444 0.417274
O O1 0.321928 0.102165 0.122270
O O2 0.215121 0.157072 0.118650
O O3 0.235255 0.000000 0.104081
O O4 0.264948 0.105977 0.000000
O O5 0.909678 0.500000 0.849845
O O6 0.876521 0.387890 0.753208
O O7 0.930073 0.350657 0.883049
O O8 0.734211 0.113267 0.292591
O O9 0.690636 0.238029 0.224297
O O10 0.653305 0.202754 0.361092
O O11 0.106895 0.200921 0.136288
O O12 0.000000 0.229545 0.094812
O O13 0.086824 0.256653 0.000000
O O14 0.158814 0.886815 0.240481
O O15 0.174666 0.858016 0.384598
O O16 0.192809 0.000000 0.334588
O O17 0.152608 0.763136 0.500000
O O18 0.250000 0.750000 0.422515
#
# Coordination Sequence:
#
# PCOD8265303 Si02
#       7
#    16  16  16  16  16  16  16
#     4  10  19  28  43  70  95 114 141 184 238 286
#     4  10  19  31  47  68  94 119 147 186 231 279
#     4   9  17  27  43  65  92 122 151 181 222 269
#     4  10  22  36  48  63  85 120 163 198 230 271
#     4  10  17  26  43  66  92 120 150 184 228 274
#     4  10  18  30  47  65  89 119 151 192 232 271
#     4   8  15  26  39  59  91 129 161 180 201 249
#
# _framework density 16.525832999999999
#
# number of rings (size 3 to 8) (size 9 to 14) (size 15 to 20)
#    0.000    2.429    1.429    3.000    2.000    1.429 
#    0.000    2.857    0.000    3.000    0.000    5.000 
#    0.000   46.286    0.000   23.143    0.000    0.000 
#
# Total GULP energy -694081.452519 kJ/mol
# GULP energy per Si atom -12394.311652 kJ/mol
# Density = 1.648822 g / cm^3
# Si number density = 16.525833 Si / 1000 Ang^3
#
#
#
# Elastic Constant Matrix: (Units=GPa)
#
#
# Indices 1 2 3 4 5 6 
#
# 1 34.3648 17.0954 25.0010 0.0000 0.0000 0.0000
# 2 17.0954 80.2267 39.7720 0.0000 0.0000 0.0000
# 3 25.0010 39.7720 122.4988 0.0000 0.0000 0.0000
# 4 0.0000 0.0000 0.0000 18.4477 0.0000 0.0000
# 5 0.0000 0.0000 0.0000 0.0000 11.7276 0.0000
# 6 0.0000 0.0000 0.0000 0.0000 0.0000 11.9476
#
#
#
# Elastic Compliance Matrix: (Units=1/GPa)
#
#
# Indices 1 2 3 4 5 6 
#
# 1 0.035632 -0.004753 -0.005729 0.000000 0.000000 0.000000
# 2 -0.004753 0.015490 -0.004059 0.000000 0.000000 0.000000
# 3 -0.005729 -0.004059 0.010650 0.000000 0.000000 0.000000
# 4 0.000000 0.000000 0.000000 0.054207 0.000000 0.000000
# 5 0.000000 0.000000 0.000000 0.000000 0.085269 0.000000
# 6 0.000000 0.000000 0.000000 0.000000 0.000000 0.083698
#
#
# Mechanical properties :
#
#
# Convention : Reuss Voigt Hill
#
# Bulk Modulus (GPa) = 30.59003 44.53632 37.56318
# Shear Modulus (GPa) = 15.38816 18.77272 17.08044
#
# Velocity S-wave (km/s) = 3.05480 3.37406 3.21839
# Velocity P-wave (km/s) = 5.56714 6.49516 6.04897
#
# Compressibility (1/GPa) = 0.03269039
#
# Stress axis : x y z
#
# Youngs Moduli (GPa) = 28.06484 64.55911 93.89238
#
# Poissons Ratio (x) = 0.30682 0.53792
# Poissons Ratio (y) = 0.13338 0.38112
# Poissons Ratio (z) = 0.16079 0.26205
#
# Static dielectric constant tensor:
#      x y z
#    x 2.638430 0.000000 0.000000 
#    y 0.000000 3.281840 0.000000 
#    z 0.000000 0.000000 3.563680 
# 
# 
# High freq. dielectric constant tensor:
#      x y z
#    x 1.575500 0.000000 0.000000 
#    y 0.000000 1.639370 0.000000 
#    z 0.000000 0.000000 1.643450 
# 
# From -- ./inp_files/56964.got.cif
#   From: 2010.03.12/outbox.cif.g09.slc.cpg/sg65_29_cif.got.tgz:56964.got - 2010.04.10 20:52:16.
