data_PCOD8265407
_publ_section_title
;
Structure prediction by ZEFSAII (Michael W. Deem and Ramdas Pophale) SiO2 
 PCOD8265407
Probable space group: C M M M
;
_chemical_formula_sum "Si O2"
_cell_formula_units_Z 96
_cell_length_a 28.934585
_cell_length_b 8.962996
_cell_length_c 20.713259
_cell_angle_alpha 90.000000
_cell_angle_beta 90.000000
_cell_angle_gamma 90.000000
_cell_volume 5371.788388
_symmetry_space_group_name_H-M "C M M M"
_symmetry_group_IT_number 65
_symmetry_cell_setting 'orthorhombic'
loop_
_space_group_symop_operation_xyz
x,y,z
-x,-y,z
x,-y,-z
-x,y,-z
-x,-y,-z
x,y,-z
-x,y,z
x,-y,z
1/2+x,1/2+y,z
1/2-x,1/2-y,z
1/2+x,1/2-y,-z
1/2-x,1/2+y,-z
1/2-x,1/2-y,-z
1/2+x,1/2+y,-z
1/2-x,1/2+y,z
1/2+x,1/2-y,z
loop_
_atom_site_type_symbol
_atom_site_label
_atom_site_fract_x
_atom_site_fract_y
_atom_site_fract_z
Si Si1 0.948393 0.177075 0.071528
Si Si2 0.385738 0.328366 0.427554
Si Si3 0.551653 0.322996 0.311651
Si Si4 0.703195 0.825778 0.619278
Si Si5 0.297243 0.175314 0.768671
Si Si6 0.111513 0.177656 0.190202
O O1 0.913268 0.237132 0.125370
O O2 0.000000 0.238682 0.085596
O O3 0.949894 0.000000 0.075189
O O4 0.932096 0.228733 0.000000
O O5 0.405564 0.310681 0.500000
O O6 0.373907 0.500000 0.411592
O O7 0.424090 0.267493 0.377636
O O8 0.339060 0.234709 0.422326
O O9 0.500000 0.254554 0.308519
O O10 0.548379 0.500000 0.310260
O O11 0.581150 0.266013 0.250760
O O12 0.750000 0.750000 0.594074
O O13 0.694416 0.785203 0.693878
O O14 0.708182 0.000000 0.607908
O O15 0.250000 0.250000 0.793295
O O16 0.338725 0.245732 0.809341
O O17 0.294513 0.000000 0.781006
O O18 0.117623 0.000000 0.191408
#
# Coordination Sequence:
#
# PCOD8265407 Si02
#       6
#    16  16  16  16  16  16
#     4   8  14  25  44  75 111 140 168 203 242 286
#     4  10  20  33  49  70  98 130 163 202 247 292
#     4   9  17  29  47  72  98 125 163 206 242 281
#     4  10  20  34  53  73  96 125 159 201 250 301
#     4  10  20  33  51  75 101 128 161 203 250 297
#     4  10  17  28  51  77 102 132 165 203 245 287
#
# _framework density 17.871144000000001
#
# number of rings (size 3 to 8) (size 9 to 14) (size 15 to 20)
#    0.000    2.500    1.667    2.000    0.000    4.333 
#    0.000    1.667    0.000    4.500    0.000    2.333 
#    0.000    0.000    0.000    0.000    0.000    0.000 
#
# Total GULP energy -595201.252805 kJ/mol
# GULP energy per Si atom -12400.026100 kJ/mol
# Density = 1.783047 g / cm^3
# Si number density = 17.871144 Si / 1000 Ang^3
#
#
#
# Elastic Constant Matrix: (Units=GPa)
#
#
# Indices 1 2 3 4 5 6 
#
# 1 148.9789 33.7752 74.7095 0.0000 0.0000 0.0000
# 2 33.7752 42.2006 26.7199 0.0000 0.0000 0.0000
# 3 74.7095 26.7199 124.3807 0.0000 0.0000 0.0000
# 4 0.0000 0.0000 0.0000 11.5454 0.0000 0.0000
# 5 0.0000 0.0000 0.0000 0.0000 30.4497 0.0000
# 6 0.0000 0.0000 0.0000 0.0000 0.0000 23.3052
#
#
#
# Elastic Compliance Matrix: (Units=1/GPa)
#
#
# Indices 1 2 3 4 5 6 
#
# 1 0.010473 -0.005091 -0.005197 0.000000 0.000000 0.000000
# 2 -0.005091 0.029902 -0.003366 0.000000 0.000000 0.000000
# 3 -0.005197 -0.003366 0.011884 0.000000 0.000000 0.000000
# 4 0.000000 0.000000 0.000000 0.086615 0.000000 0.000000
# 5 0.000000 0.000000 0.000000 0.000000 0.032841 0.000000
# 6 0.000000 0.000000 0.000000 0.000000 0.000000 0.042909
#
#
# Mechanical properties :
#
#
# Convention : Reuss Voigt Hill
#
# Bulk Modulus (GPa) = 40.07725 65.10773 52.59249
# Shear Modulus (GPa) = 19.98018 25.08377 22.53198
#
# Velocity S-wave (km/s) = 3.34730 3.75052 3.55463
# Velocity P-wave (km/s) = 6.11666 7.43411 6.80733
#
# Compressibility (1/GPa) = 0.02495181
#
# Stress axis : x y z
#
# Youngs Moduli (GPa) = 95.48685 33.44240 84.14530
#
# Poissons Ratio (x) = 0.17027 0.43727
# Poissons Ratio (y) = 0.48616 0.28319
# Poissons Ratio (z) = 0.49621 0.11255
#
# Static dielectric constant tensor:
#      x y z
#    x 3.415060 0.000000 0.000000 
#    y 0.000000 2.924150 0.000000 
#    z 0.000000 0.000000 3.385660 
# 
# 
# High freq. dielectric constant tensor:
#      x y z
#    x 1.695610 0.000000 0.000000 
#    y 0.000000 1.655700 0.000000 
#    z 0.000000 0.000000 1.681560 
# 
# From -- ./inp_files/60166.got.cif
#   From: 2010.03.12/outbox.cif.g09.slc.cpg/sg65_31_cif.got.tgz:60166.got - 2010.04.10 20:52:16.
