data_PCOD8265072
_publ_section_title
;
Structure prediction by ZEFSAII (Michael W. Deem and Ramdas Pophale) SiO2 
 PCOD8265072
Probable space group: C M M M
;
_chemical_formula_sum "Si O2"
_cell_formula_units_Z 72
_cell_length_a 19.834405
_cell_length_b 8.766647
_cell_length_c 23.535378
_cell_angle_alpha 90.000000
_cell_angle_beta 90.000000
_cell_angle_gamma 90.000000
_cell_volume 4092.360407
_symmetry_space_group_name_H-M "C M M M"
_symmetry_group_IT_number 65
_symmetry_cell_setting 'orthorhombic'
loop_
_space_group_symop_operation_xyz
x,y,z
-x,-y,z
x,-y,-z
-x,y,-z
-x,-y,-z
x,y,-z
-x,y,z
x,-y,z
1/2+x,1/2+y,z
1/2-x,1/2-y,z
1/2+x,1/2-y,-z
1/2-x,1/2+y,-z
1/2-x,1/2-y,-z
1/2+x,1/2+y,-z
1/2-x,1/2+y,z
1/2+x,1/2-y,z
loop_
_atom_site_type_symbol
_atom_site_label
_atom_site_fract_x
_atom_site_fract_y
_atom_site_fract_z
Si Si1 0.423236 0.323031 0.064931
Si Si2 0.822525 0.323625 0.151735
Si Si3 0.676934 0.821710 0.723422
Si Si4 0.324998 0.318682 0.387167
Si Si5 0.675045 0.182026 0.500000
O O1 0.500000 0.271151 0.075601
O O2 0.414826 0.500000 0.079121
O O3 0.375115 0.228678 0.105175
O O4 0.402764 0.289875 0.000000
O O5 0.809095 0.500000 0.143981
O O6 0.750000 0.250000 0.142262
O O7 0.855387 0.291384 0.214407
O O8 0.750000 0.750000 0.728229
O O9 0.637742 0.736532 0.671223
O O10 0.681382 0.000000 0.708834
O O11 0.324070 0.500000 0.391894
O O12 0.250000 0.250000 0.384168
O O13 0.361502 0.246681 0.443012
O O14 0.750000 0.250000 0.500000
O O15 0.675865 0.000000 0.500000
#
# Coordination Sequence:
#
# PCOD8265072 Si02
#       5
#    16  16  16  16   8
#     4   9  19  36  55  73  95 124 156 191 234 283
#     4  10  20  32  49  72  97 125 158 196 235 279
#     4   9  16  26  38  55  79 108 142 179 222 268
#     4  10  16  22  32  47  68  98 137 178 219 263
#     4  10  16  22  30  42  64  96 135 178 219 260
#
# _framework density 17.593758999999999
#
# number of rings (size 3 to 8) (size 9 to 14) (size 15 to 20)
#    0.000    2.444    0.000    7.667    0.000    4.000 
#    0.000    1.111    0.000    0.000    0.000    0.000 
#    0.000    0.000    0.000    1.000    0.000   19.778 
#
# Total GULP energy -445993.648516 kJ/mol
# GULP energy per Si atom -12388.712459 kJ/mol
# Density = 1.755371 g / cm^3
# Si number density = 17.593759 Si / 1000 Ang^3
#
#
#
# Elastic Constant Matrix: (Units=GPa)
#
#
# Indices 1 2 3 4 5 6 
#
# 1 33.1098 25.8464 41.8250 0.0000 0.0000 0.0000
# 2 25.8464 133.2588 73.2683 0.0000 0.0000 0.0000
# 3 41.8250 73.2683 154.2556 0.0000 0.0000 0.0000
# 4 0.0000 0.0000 0.0000 35.2572 0.0000 0.0000
# 5 0.0000 0.0000 0.0000 0.0000 -4.0828 0.0000
# 6 0.0000 0.0000 0.0000 0.0000 0.0000 17.1891
#
#
#
# Elastic Compliance Matrix: (Units=1/GPa)
#
#
# Indices 1 2 3 4 5 6 
#
# 1 0.046716 -0.002838 -0.011319 0.000000 0.000000 0.000000
# 2 -0.002838 0.010329 -0.004137 0.000000 0.000000 0.000000
# 3 -0.011319 -0.004137 0.011517 0.000000 0.000000 0.000000
# 4 0.000000 0.000000 0.000000 0.028363 0.000000 0.000000
# 5 0.000000 0.000000 0.000000 0.000000 -0.244929 0.000000
# 6 0.000000 0.000000 0.000000 0.000000 0.000000 0.058177
#
#
# Mechanical properties :
#
#
# Convention : Reuss Voigt Hill
#
# Bulk Modulus (GPa) = 31.27416 66.94485 49.10951
# Shear Modulus (GPa) = -117.41559 21.65165 -47.88197
#
# Velocity S-wave (km/s) = -8.17814 3.51186 -5.22249
# Velocity P-wave (km/s) = 8.44758 7.38764 2.89694
#
# Compressibility (1/GPa) = 0.03197527
#
# Stress axis : x y z
#
# Youngs Moduli (GPa) = 21.40607 96.81499 86.83133
#
# Poissons Ratio (x) = 0.27472 0.98283
# Poissons Ratio (y) = 0.06074 0.35919
# Poissons Ratio (z) = 0.24229 0.40049
#
# Static dielectric constant tensor:
#      x y z
#    x 2.667400 0.000000 0.000000 
#    y 0.000000 3.339120 0.000000 
#    z 0.000000 0.000000 5.067890 
# 
# 
# High freq. dielectric constant tensor:
#      x y z
#    x 1.588590 0.000000 0.000000 
#    y 0.000000 1.696940 0.000000 
#    z 0.000000 0.000000 1.717630 
# 
# From -- ./inp_files/64364.got.cif
#   From: 2010.03.12/outbox.cif.g09.slc.cpg/sg65_33_cif.got.tgz:64364.got - 2010.04.10 20:52:16.
