data_PCOD8265177
_publ_section_title
;
Structure prediction by ZEFSAII (Michael W. Deem and Ramdas Pophale) SiO2 
 PCOD8265177
Probable space group: C M M M
;
_chemical_formula_sum "Si O2"
_cell_formula_units_Z 72
_cell_length_a 22.976781
_cell_length_b 9.967672
_cell_length_c 18.698941
_cell_angle_alpha 90.000000
_cell_angle_beta 90.000000
_cell_angle_gamma 90.000000
_cell_volume 4282.525273
_symmetry_space_group_name_H-M "C M M M"
_symmetry_group_IT_number 65
_symmetry_cell_setting 'orthorhombic'
loop_
_space_group_symop_operation_xyz
x,y,z
-x,-y,z
x,-y,-z
-x,y,-z
-x,-y,-z
x,y,-z
-x,y,z
x,-y,z
1/2+x,1/2+y,z
1/2-x,1/2-y,z
1/2+x,1/2-y,-z
1/2-x,1/2+y,-z
1/2-x,1/2-y,-z
1/2+x,1/2+y,-z
1/2-x,1/2+y,z
1/2+x,1/2-y,z
loop_
_atom_site_type_symbol
_atom_site_label
_atom_site_fract_x
_atom_site_fract_y
_atom_site_fract_z
Si Si1 0.346950 0.348715 0.150228
Si Si2 0.932504 0.158778 0.265945
Si Si3 0.197122 0.650815 0.500000
Si Si4 0.750000 0.250000 0.250804
Si Si5 0.852399 0.650863 0.347208
Si Si6 0.806896 0.837786 0.000000
O O1 0.362839 0.500000 0.135811
O O2 0.401972 0.287166 0.192910
O O3 0.288560 0.342104 0.198304
O O4 0.340771 0.286607 0.071012
O O5 0.902191 0.241150 0.329307
O O6 0.000000 0.194226 0.262379
O O7 0.921622 0.000000 0.278248
O O8 0.222296 0.500000 0.500000
O O9 0.250000 0.750000 0.500000
O O10 0.158478 0.676583 0.569568
O O11 0.792992 0.334623 0.301383
O O12 0.875615 0.500000 0.333991
O O13 0.750000 0.750000 0.000000
O O14 0.794429 0.000000 0.000000
#
# Coordination Sequence:
#
# PCOD8265177 Si02
#       6
#    16  16   8   8  16   8
#     4   9  17  28  46  70  98 128 161 200 244 289
#     4   9  19  36  54  71  95 130 172 214 251 291
#     4  10  20  34  49  74 107 135 162 196 242 301
#     4  10  16  28  48  70 104 128 162 196 242 296
#     4  10  20  32  51  76 102 131 165 204 248 294
#     4  10  18  30  45  69 103 133 158 193 242 299
#
# _framework density 16.812508999999999
#
# number of rings (size 3 to 8) (size 9 to 14) (size 15 to 20)
#    0.000    2.444    2.222    0.667    0.000    2.222 
#    0.000    1.111    0.000    6.667    0.000    0.000 
#    0.000    4.889    0.000    0.000    0.000    0.000 
#
# Total GULP energy -446045.063448 kJ/mol
# GULP energy per Si atom -12390.140651 kJ/mol
# Density = 1.677424 g / cm^3
# Si number density = 16.812509 Si / 1000 Ang^3
#
#
#
# Elastic Constant Matrix: (Units=GPa)
#
#
# Indices 1 2 3 4 5 6 
#
# 1 123.2935 48.1907 63.5776 0.0000 0.0000 0.0000
# 2 48.1907 69.4079 45.1337 0.0000 0.0000 0.0000
# 3 63.5776 45.1337 151.0060 0.0000 0.0000 0.0000
# 4 0.0000 0.0000 0.0000 23.3733 0.0000 0.0000
# 5 0.0000 0.0000 0.0000 0.0000 12.8662 0.0000
# 6 0.0000 0.0000 0.0000 0.0000 0.0000 25.6523
#
#
#
# Elastic Compliance Matrix: (Units=1/GPa)
#
#
# Indices 1 2 3 4 5 6 
#
# 1 0.012302 -0.006421 -0.003260 0.000000 0.000000 0.000000
# 2 -0.006421 0.021235 -0.003643 0.000000 0.000000 0.000000
# 3 -0.003260 -0.003643 0.009084 0.000000 0.000000 0.000000
# 4 0.000000 0.000000 0.000000 0.042784 0.000000 0.000000
# 5 0.000000 0.000000 0.000000 0.000000 0.077723 0.000000
# 6 0.000000 0.000000 0.000000 0.000000 0.000000 0.038983
#
#
# Mechanical properties :
#
#
# Convention : Reuss Voigt Hill
#
# Bulk Modulus (GPa) = 62.61305 73.05682 67.83494
# Shear Modulus (GPa) = 21.35990 24.83205 23.09598
#
# Velocity S-wave (km/s) = 3.56824 3.84734 3.71042
# Velocity P-wave (km/s) = 7.36880 7.95514 7.66758
#
# Compressibility (1/GPa) = 0.01597111
#
# Stress axis : x y z
#
# Youngs Moduli (GPa) = 81.28983 47.09187 110.08611
#
# Poissons Ratio (x) = 0.30239 0.35889
# Poissons Ratio (y) = 0.52198 0.40108
# Poissons Ratio (z) = 0.26501 0.17157
#
# Static dielectric constant tensor:
#      x y z
#    x 3.020970 0.000000 0.000000 
#    y 0.000000 3.086380 0.000000 
#    z 0.000000 0.000000 3.943110 
# 
# 
# High freq. dielectric constant tensor:
#      x y z
#    x 1.627340 0.000000 0.000000 
#    y 0.000000 1.636950 0.000000 
#    z 0.000000 0.000000 1.661720 
# 
# From -- ./inp_files/55560.got.cif
#   From: 2010.03.12/outbox.cif.g09.slc.cpg/sg65_28_cif.got.tgz:55560.got - 2010.04.10 20:52:16.
