data_PCOD8265474
_publ_section_title
;
Structure prediction by ZEFSAII (Michael W. Deem and Ramdas Pophale) SiO2 
 PCOD8265474
Probable space group: C M M M
;
_chemical_formula_sum "Si O2"
_cell_formula_units_Z 80
_cell_length_a 20.750880
_cell_length_b 15.322381
_cell_length_c 14.246659
_cell_angle_alpha 90.000000
_cell_angle_beta 90.000000
_cell_angle_gamma 90.000000
_cell_volume 4529.766394
_symmetry_space_group_name_H-M "C M M M"
_symmetry_group_IT_number 65
_symmetry_cell_setting 'orthorhombic'
loop_
_space_group_symop_operation_xyz
x,y,z
-x,-y,z
x,-y,-z
-x,y,-z
-x,-y,-z
x,y,-z
-x,y,z
x,-y,z
1/2+x,1/2+y,z
1/2-x,1/2-y,z
1/2+x,1/2-y,-z
1/2-x,1/2+y,-z
1/2-x,1/2-y,-z
1/2+x,1/2+y,-z
1/2-x,1/2+y,z
1/2+x,1/2-y,z
loop_
_atom_site_type_symbol
_atom_site_label
_atom_site_fract_x
_atom_site_fract_y
_atom_site_fract_z
Si Si1 0.822570 0.781188 0.608478
Si Si2 0.889088 0.401322 0.893379
Si Si3 0.928218 0.266580 0.259673
Si Si4 0.245384 0.151598 0.892410
Si Si5 0.361693 0.402857 0.242737
O O1 0.841148 0.787380 0.500000
O O2 0.750000 0.750000 0.623664
O O3 0.873930 0.715411 0.659804
O O4 0.829742 0.876401 0.656693
O O5 0.911531 0.500000 0.871844
O O6 0.924843 0.336577 0.823341
O O7 0.812667 0.396731 0.879892
O O8 0.907539 0.375186 0.000000
O O9 0.916539 0.168819 0.217338
O O10 0.000000 0.270783 0.303295
O O11 0.250000 0.250000 0.851072
O O12 0.192713 0.097068 0.836680
O O13 0.222850 0.155456 0.000000
O O14 0.391281 0.500000 0.249983
#
# Coordination Sequence:
#
# PCOD8265474 Si02
#       5
#    16  16  16  16  16
#     4   9  19  37  59  81 108 141 181 230 282 332
#     4  10  20  34  56  84 112 147 190 232 275 326
#     4  10  22  37  54  80 113 148 182 227 279 328
#     4  10  17  30  53  80 112 146 183 228 275 321
#     4  10  20  33  53  81 111 145 184 224 272 330
#
# _framework density 17.660954
#
# number of rings (size 3 to 8) (size 9 to 14) (size 15 to 20)
#    1.200    1.000    2.000    2.400    0.000    3.200 
#    0.000    1.000    0.000    3.000    0.000    4.200 
#    0.000    0.000    0.000    0.000    0.000    0.000 
#
# Total GULP energy -495685.186164 kJ/mol
# GULP energy per Si atom -12392.129654 kJ/mol
# Density = 1.762076 g / cm^3
# Si number density = 17.660954 Si / 1000 Ang^3
#
#
#
# Elastic Constant Matrix: (Units=GPa)
#
#
# Indices 1 2 3 4 5 6 
#
# 1 100.8245 25.7055 46.1313 0.0000 0.0000 0.0000
# 2 25.7055 111.6336 42.5484 0.0000 0.0000 0.0000
# 3 46.1313 42.5484 97.0239 0.0000 0.0000 0.0000
# 4 0.0000 0.0000 0.0000 11.9715 0.0000 0.0000
# 5 0.0000 0.0000 0.0000 0.0000 11.3475 0.0000
# 6 0.0000 0.0000 0.0000 0.0000 0.0000 4.3476
#
#
#
# Elastic Compliance Matrix: (Units=1/GPa)
#
#
# Indices 1 2 3 4 5 6 
#
# 1 0.012728 -0.000750 -0.005723 0.000000 0.000000 0.000000
# 2 -0.000750 0.010800 -0.004380 0.000000 0.000000 0.000000
# 3 -0.005723 -0.004380 0.014948 0.000000 0.000000 0.000000
# 4 0.000000 0.000000 0.000000 0.083532 0.000000 0.000000
# 5 0.000000 0.000000 0.000000 0.000000 0.088125 0.000000
# 6 0.000000 0.000000 0.000000 0.000000 0.000000 0.230013
#
#
# Mechanical properties :
#
#
# Convention : Reuss Voigt Hill
#
# Bulk Modulus (GPa) = 59.62425 59.80581 59.71503
# Shear Modulus (GPa) = 10.69654 18.53976 14.61815
#
# Velocity S-wave (km/s) = 2.46369 3.24351 2.88012
# Velocity P-wave (km/s) = 6.47509 6.92560 6.70413
#
# Compressibility (1/GPa) = 0.01677170
#
# Stress axis : x y z
#
# Youngs Moduli (GPa) = 78.56826 92.59462 66.89673
#
# Poissons Ratio (x) = 0.06940 0.38284
# Poissons Ratio (y) = 0.05889 0.29299
# Poissons Ratio (z) = 0.44964 0.40554
#
# Static dielectric constant tensor:
#      x y z
#    x 3.075200 0.000000 0.000000 
#    y 0.000000 3.205030 0.000000 
#    z 0.000000 0.000000 3.173630 
# 
# 
# High freq. dielectric constant tensor:
#      x y z
#    x 1.671540 0.000000 0.000000 
#    y 0.000000 1.671570 0.000000 
#    z 0.000000 0.000000 1.671880 
# 
# From -- ./inp_files/45507.got.cif
#   From: 2010.03.12/outbox.cif.g09.slc.cpg/sg65_23_cif.got.tgz:45507.got - 2010.04.10 20:52:16.
