data_PCOD8265384
_publ_section_title
;
Structure prediction by ZEFSAII (Michael W. Deem and Ramdas Pophale) SiO2 
 PCOD8265384
Probable space group: C M M M
;
_chemical_formula_sum "Si O2"
_cell_formula_units_Z 80
_cell_length_a 25.854350
_cell_length_b 7.930814
_cell_length_c 24.166688
_cell_angle_alpha 90.000000
_cell_angle_beta 90.000000
_cell_angle_gamma 90.000000
_cell_volume 4955.283697
_symmetry_space_group_name_H-M "C M M M"
_symmetry_group_IT_number 65
_symmetry_cell_setting 'orthorhombic'
loop_
_space_group_symop_operation_xyz
x,y,z
-x,-y,z
x,-y,-z
-x,y,-z
-x,-y,-z
x,y,-z
-x,y,z
x,-y,z
1/2+x,1/2+y,z
1/2-x,1/2-y,z
1/2+x,1/2-y,-z
1/2-x,1/2+y,-z
1/2-x,1/2-y,-z
1/2+x,1/2+y,-z
1/2-x,1/2+y,z
1/2+x,1/2-y,z
loop_
_atom_site_type_symbol
_atom_site_label
_atom_site_fract_x
_atom_site_fract_y
_atom_site_fract_z
Si Si1 0.500000 0.701561 0.562099
Si Si2 0.693550 0.802288 0.561898
Si Si3 0.061665 0.500000 0.062496
Si Si4 0.557469 0.699707 0.743582
Si Si5 0.438256 0.689682 0.135003
Si Si6 0.096824 0.803349 0.369965
O O1 0.500000 0.500000 0.561592
O O2 0.500000 0.773374 0.500000
O O3 0.551146 0.774565 0.592324
O O4 0.684222 0.727038 0.500000
O O5 0.750000 0.750000 0.583507
O O6 0.652690 0.731105 0.605033
O O7 0.688301 0.000000 0.559978
O O8 0.082664 0.670666 0.091872
O O9 0.000000 0.500000 0.063855
O O10 0.082757 0.500000 0.000000
O O11 0.500000 0.777080 0.736182
O O12 0.553220 0.500000 0.741420
O O13 0.580935 0.747948 0.803734
O O14 0.592997 0.768915 0.692996
O O15 0.500000 0.685685 0.135488
O O16 0.418020 0.500000 0.119699
O O17 0.086987 0.000000 0.367448
#
# Coordination Sequence:
#
# PCOD8265384 Si02
#       6
#     8  16   8  16  16  16
#     4   9  16  24  39  65  91 113 137 168 214 269
#     4  10  21  36  50  63  81 107 142 184 226 271
#     4   9  16  24  34  52  76 104 144 188 222 254
#     4   8  13  24  41  60  83 110 141 175 210 254
#     4   8  14  24  37  52  74 107 143 181 219 254
#     4  10  17  28  47  68  87 110 142 179 217 264
#
# _framework density 16.144383999999999
#
# number of rings (size 3 to 8) (size 9 to 14) (size 15 to 20)
#    0.000    3.000    1.000    2.400    0.000    2.400 
#    1.800    2.500    0.000    1.800    0.000    0.000 
#    0.000    0.000    0.000    0.000    0.000    1.000 
#
# Total GULP energy -495632.933392 kJ/mol
# GULP energy per Si atom -12390.823335 kJ/mol
# Density = 1.610764 g / cm^3
# Si number density = 16.144384 Si / 1000 Ang^3
#
#
#
# Elastic Constant Matrix: (Units=GPa)
#
#
# Indices 1 2 3 4 5 6 
#
# 1 61.3786 5.4596 46.7677 0.0000 0.0000 0.0000
# 2 5.4596 45.6370 46.9077 0.0000 0.0000 0.0000
# 3 46.7677 46.9077 157.4150 0.0000 0.0000 0.0000
# 4 0.0000 0.0000 0.0000 18.3491 0.0000 0.0000
# 5 0.0000 0.0000 0.0000 0.0000 12.2040 0.0000
# 6 0.0000 0.0000 0.0000 0.0000 0.0000 12.2097
#
#
#
# Elastic Compliance Matrix: (Units=1/GPa)
#
#
# Indices 1 2 3 4 5 6 
#
# 1 0.022117 0.005922 -0.008335 0.000000 0.000000 0.000000
# 2 0.005922 0.033172 -0.011644 0.000000 0.000000 0.000000
# 3 -0.008335 -0.011644 0.012299 0.000000 0.000000 0.000000
# 4 0.000000 0.000000 0.000000 0.054498 0.000000 0.000000
# 5 0.000000 0.000000 0.000000 0.000000 0.081941 0.000000
# 6 0.000000 0.000000 0.000000 0.000000 0.000000 0.081902
#
#
# Mechanical properties :
#
#
# Convention : Reuss Voigt Hill
#
# Bulk Modulus (GPa) = 25.33450 51.41117 38.37283
# Shear Modulus (GPa) = 15.28107 19.57226 17.42666
#
# Velocity S-wave (km/s) = 3.07990 3.48562 3.28903
# Velocity P-wave (km/s) = 5.32675 6.93637 6.18415
#
# Compressibility (1/GPa) = 0.03947187
#
# Stress axis : x y z
#
# Youngs Moduli (GPa) = 45.21438 30.14592 81.30808
#
# Poissons Ratio (x) = -0.17851 0.67774
# Poissons Ratio (y) = -0.26775 0.94676
# Poissons Ratio (z) = 0.37688 0.35102
#
# Static dielectric constant tensor:
#      x y z
#    x 2.556880 0.000000 0.000000 
#    y 0.000000 2.973300 0.000000 
#    z 0.000000 0.000000 3.529320 
# 
# 
# High freq. dielectric constant tensor:
#      x y z
#    x 1.555070 0.000000 0.000000 
#    y 0.000000 1.611810 0.000000 
#    z 0.000000 0.000000 1.623120 
# 
# From -- ./inp_files/71640.got.cif
#   From: 2010.03.12/outbox.cif.g09.slc.cpg/sg65_36_cif.got.tgz:71640.got - 2010.04.10 20:52:16.
