data_PCOD8265348
_publ_section_title
;
Structure prediction by ZEFSAII (Michael W. Deem and Ramdas Pophale) SiO2 
 PCOD8265348
Probable space group: C M M M
;
_chemical_formula_sum "Si O2"
_cell_formula_units_Z 56
_cell_length_a 8.619019
_cell_length_b 14.937212
_cell_length_c 20.233643
_cell_angle_alpha 90.000000
_cell_angle_beta 90.000000
_cell_angle_gamma 90.000000
_cell_volume 2604.962442
_symmetry_space_group_name_H-M "C M M M"
_symmetry_group_IT_number 65
_symmetry_cell_setting 'orthorhombic'
loop_
_space_group_symop_operation_xyz
x,y,z
-x,-y,z
x,-y,-z
-x,y,-z
-x,-y,-z
x,y,-z
-x,y,z
x,-y,z
1/2+x,1/2+y,z
1/2-x,1/2-y,z
1/2+x,1/2-y,-z
1/2-x,1/2+y,-z
1/2-x,1/2-y,-z
1/2+x,1/2+y,-z
1/2-x,1/2+y,z
1/2+x,1/2-y,z
loop_
_atom_site_type_symbol
_atom_site_label
_atom_site_fract_x
_atom_site_fract_y
_atom_site_fract_z
Si Si1 0.683283 0.849524 0.298643
Si Si2 0.821179 0.500000 0.922074
Si Si3 0.183545 0.151031 0.163977
Si Si4 0.180983 0.151747 0.571532
O O1 0.500000 0.850812 0.292462
O O2 0.750000 0.750000 0.302853
O O3 0.755038 0.893331 0.232638
O O4 0.736650 0.899622 0.366673
O O5 0.738256 0.411088 0.895627
O O6 0.000000 0.500000 0.900201
O O7 0.801974 0.500000 0.000000
O O8 0.250000 0.250000 0.152965
O O9 0.000000 0.156493 0.165864
O O10 0.208679 0.103246 0.500000
O O11 0.250000 0.250000 0.565881
O O12 0.000000 0.158114 0.587485
#
# Coordination Sequence:
#
# PCOD8265348 Si02
#       4
#    16   8  16  16
#     4  10  17  27  45  70 103 143 189 238 288 342
#     4  11  25  45  67  93 124 155 192 239 291 351
#     4  11  22  39  63  90 122 159 200 244 293 349
#     4   9  15  22  34  57  93 136 182 233 287 340
#
# _framework density 21.497430999999999
#
# number of rings (size 3 to 8) (size 9 to 14) (size 15 to 20)
#    0.000    1.857    0.000    9.857    0.000    3.429 
#    0.000    0.000    0.000    0.000    0.000    1.000 
#    0.000    8.000    0.000    0.000    0.000    0.286 
#
# Total GULP energy -346967.013193 kJ/mol
# GULP energy per Si atom -12391.679043 kJ/mol
# Density = 2.144850 g / cm^3
# Si number density = 21.497431 Si / 1000 Ang^3
#
#
#
# Elastic Constant Matrix: (Units=GPa)
#
#
# Indices 1 2 3 4 5 6 
#
# 1 218.7164 37.5222 82.6554 0.0000 0.0000 0.0000
# 2 37.5222 64.8457 43.5470 0.0000 0.0000 0.0000
# 3 82.6554 43.5470 154.4826 0.0000 0.0000 0.0000
# 4 0.0000 0.0000 0.0000 -35.0779 0.0000 0.0000
# 5 0.0000 0.0000 0.0000 0.0000 39.2944 0.0000
# 6 0.0000 0.0000 0.0000 0.0000 0.0000 17.5955
#
#
#
# Elastic Compliance Matrix: (Units=1/GPa)
#
#
# Indices 1 2 3 4 5 6 
#
# 1 0.005860 -0.001585 -0.002689 0.000000 0.000000 0.000000
# 2 -0.001585 0.019451 -0.004635 0.000000 0.000000 0.000000
# 3 -0.002689 -0.004635 0.009218 0.000000 0.000000 0.000000
# 4 0.000000 0.000000 0.000000 -0.028508 0.000000 0.000000
# 5 0.000000 0.000000 0.000000 0.000000 0.025449 0.000000
# 6 0.000000 0.000000 0.000000 0.000000 0.000000 0.056833
#
#
# Mechanical properties :
#
#
# Convention : Reuss Voigt Hill
#
# Bulk Modulus (GPa) = 59.83737 85.05487 72.44612
# Shear Modulus (GPa) = 44.76625 22.65040 33.70832
#
# Velocity S-wave (km/s) = 4.56828 3.24949 3.96411
# Velocity P-wave (km/s) = 7.46463 7.33007 7.39766
#
# Compressibility (1/GPa) = 0.01671196
#
# Stress axis : x y z
#
# Youngs Moduli (GPa) = 170.64412 51.41104 108.48098
#
# Poissons Ratio (x) = 0.08151 0.29166
# Poissons Ratio (y) = 0.27054 0.50278
# Poissons Ratio (z) = 0.45878 0.23828
#
# Static dielectric constant tensor:
#      x y z
#    x 4.011000 0.000000 0.000000 
#    y 0.000000 3.270660 0.000000 
#    z 0.000000 0.000000 5.134490 
# 
# 
# High freq. dielectric constant tensor:
#      x y z
#    x 1.861700 0.000000 0.000000 
#    y 0.000000 1.793420 0.000000 
#    z 0.000000 0.000000 1.869930 
# 
# From -- ./inp_files/58570.got.cif
#   From: 2010.03.12/outbox.cif.g09.slc.cpg/sg65_30_cif.got.tgz:58570.got - 2010.04.10 20:52:16.
