data_PCOD8265583
_publ_section_title
;
Structure prediction by ZEFSAII (Michael W. Deem and Ramdas Pophale) SiO2 
 PCOD8265583
Probable space group: C M M M
;
_chemical_formula_sum "Si O2"
_cell_formula_units_Z 120
_cell_length_a 22.418579
_cell_length_b 25.949456
_cell_length_c 13.658705
_cell_angle_alpha 90.000000
_cell_angle_beta 90.000000
_cell_angle_gamma 90.000000
_cell_volume 7945.950669
_symmetry_space_group_name_H-M "C M M M"
_symmetry_group_IT_number 65
_symmetry_cell_setting 'orthorhombic'
loop_
_space_group_symop_operation_xyz
x,y,z
-x,-y,z
x,-y,-z
-x,y,-z
-x,-y,-z
x,y,-z
-x,y,z
x,-y,z
1/2+x,1/2+y,z
1/2-x,1/2-y,z
1/2+x,1/2-y,-z
1/2-x,1/2+y,-z
1/2-x,1/2-y,-z
1/2+x,1/2+y,-z
1/2-x,1/2+y,z
1/2+x,1/2-y,z
loop_
_atom_site_type_symbol
_atom_site_label
_atom_site_fract_x
_atom_site_fract_y
_atom_site_fract_z
Si Si1 0.064623 0.000000 0.885096
Si Si2 0.266627 0.190646 0.107297
Si Si3 0.663932 0.056691 0.385022
Si Si4 0.341007 0.673686 0.236361
Si Si5 0.431331 0.137836 0.385489
Si Si6 0.428843 0.611701 0.112319
Si Si7 0.342304 0.792903 0.280273
Si Si8 0.746947 0.356140 0.615157
O O1 0.096812 0.054323 0.858988
O O2 0.000000 0.000000 0.832744
O O3 0.053733 0.000000 0.000000
O O4 0.250000 0.250000 0.099812
O O5 0.209788 0.163209 0.155313
O O6 0.325724 0.183172 0.173721
O O7 0.279361 0.167091 0.000000
O O8 0.668238 0.049887 0.500000
O O9 0.601647 0.084541 0.358022
O O10 0.718789 0.092118 0.349857
O O11 0.666400 0.000000 0.334878
O O12 0.401711 0.651450 0.190785
O O13 0.351248 0.732270 0.268620
O O14 0.318095 0.644327 0.334046
O O15 0.422271 0.151093 0.500000
O O16 0.500000 0.131577 0.357355
O O17 0.403707 0.184058 0.321604
O O18 0.500000 0.613062 0.123342
O O19 0.411365 0.626162 0.000000
O O20 0.286777 0.806538 0.352304
O O21 0.737423 0.354183 0.500000
#
# Coordination Sequence:
#
# PCOD8265583 Si02
#       8
#     8  16  16  16  16  16  16  16
#     4   7  12  26  46  62  77 103 135 165 205 256
#     4   8  14  25  40  58  81 108 135 165 205 250
#     4   8  14  26  43  61  83 109 136 172 219 264
#     4  10  18  26  41  66  86 109 143 178 211 250
#     4   9  17  28  42  61  85 114 146 180 217 250
#     4   9  17  30  47  65  86 111 139 175 220 264
#     4   9  17  27  41  59  85 116 145 173 207 252
#     4   9  17  29  43  61  86 117 149 178 211 253
#
# _framework density 15.102031999999999
#
# number of rings (size 3 to 8) (size 9 to 14) (size 15 to 20)
#    0.000    3.267    0.000    3.600    0.000    2.933 
#    1.200    1.333    0.000    0.800    0.000    0.000 
#    0.000    1.600    0.000   10.800    0.000    1.200 
#
# Total GULP energy -743295.042443 kJ/mol
# GULP energy per Si atom -12388.250707 kJ/mol
# Density = 1.506766 g / cm^3
# Si number density = 15.102032 Si / 1000 Ang^3
#
#
#
# Elastic Constant Matrix: (Units=GPa)
#
#
# Indices 1 2 3 4 5 6 
#
# 1 63.6242 45.4992 35.6577 0.0000 0.0000 0.0000
# 2 45.4992 104.1092 38.2923 0.0000 0.0000 0.0000
# 3 35.6577 38.2923 79.9604 0.0000 0.0000 0.0000
# 4 0.0000 0.0000 0.0000 16.4548 0.0000 0.0000
# 5 0.0000 0.0000 0.0000 0.0000 22.4239 0.0000
# 6 0.0000 0.0000 0.0000 0.0000 0.0000 9.7492
#
#
#
# Elastic Compliance Matrix: (Units=1/GPa)
#
#
# Indices 1 2 3 4 5 6 
#
# 1 0.026107 -0.008651 -0.007499 0.000000 0.000000 0.000000
# 2 -0.008651 0.014526 -0.003098 0.000000 0.000000 0.000000
# 3 -0.007499 -0.003098 0.017334 0.000000 0.000000 0.000000
# 4 0.000000 0.000000 0.000000 0.060772 0.000000 0.000000
# 5 0.000000 0.000000 0.000000 0.000000 0.044595 0.000000
# 6 0.000000 0.000000 0.000000 0.000000 0.000000 0.102572
#
#
# Mechanical properties :
#
#
# Convention : Reuss Voigt Hill
#
# Bulk Modulus (GPa) = 51.36282 54.06578 52.71430
# Shear Modulus (GPa) = 16.08267 18.27524 17.17895
#
# Velocity S-wave (km/s) = 3.26687 3.48245 3.37638
# Velocity P-wave (km/s) = 6.95085 7.21443 7.08387
#
# Compressibility (1/GPa) = 0.01946933
#
# Stress axis : x y z
#
# Youngs Moduli (GPa) = 38.30409 68.84309 57.68982
#
# Poissons Ratio (x) = 0.59558 0.43262
# Poissons Ratio (y) = 0.33138 0.17874
# Poissons Ratio (z) = 0.28725 0.21329
#
# Static dielectric constant tensor:
#      x y z
#    x 2.744700 0.000000 0.000000 
#    y 0.000000 3.097440 0.000000 
#    z 0.000000 0.000000 2.959470 
# 
# 
# High freq. dielectric constant tensor:
#      x y z
#    x 1.556410 0.000000 0.000000 
#    y 0.000000 1.570300 0.000000 
#    z 0.000000 0.000000 1.559480 
# 
# From -- ./inp_files/46176.got.cif
#   From: 2010.03.12/outbox.cif.g09.slc.cpg/sg65_24_cif.got.tgz:46176.got - 2010.04.10 20:52:16.
