data_PCOD8265444
_publ_section_title
;
Structure prediction by ZEFSAII (Michael W. Deem and Ramdas Pophale) SiO2 
 PCOD8265444
Probable space group: C M M M
;
_chemical_formula_sum "Si O2"
_cell_formula_units_Z 88
_cell_length_a 31.038453
_cell_length_b 9.125854
_cell_length_c 16.907479
_cell_angle_alpha 90.000000
_cell_angle_beta 90.000000
_cell_angle_gamma 90.000000
_cell_volume 4789.083843
_symmetry_space_group_name_H-M "C M M M"
_symmetry_group_IT_number 65
_symmetry_cell_setting 'orthorhombic'
loop_
_space_group_symop_operation_xyz
x,y,z
-x,-y,z
x,-y,-z
-x,y,-z
-x,-y,-z
x,y,-z
-x,y,z
x,-y,z
1/2+x,1/2+y,z
1/2-x,1/2-y,z
1/2+x,1/2-y,-z
1/2-x,1/2+y,-z
1/2-x,1/2-y,-z
1/2+x,1/2+y,-z
1/2-x,1/2+y,z
1/2+x,1/2-y,z
loop_
_atom_site_type_symbol
_atom_site_label
_atom_site_fract_x
_atom_site_fract_y
_atom_site_fract_z
Si Si1 0.630323 0.329545 0.258496
Si Si2 0.584140 0.330901 0.411201
Si Si3 0.793895 0.328274 0.830545
Si Si4 0.079757 0.173464 0.000000
Si Si5 0.500000 0.164278 0.405990
Si Si6 0.169223 0.668686 0.000000
Si Si7 0.546947 0.326035 0.166085
O O1 0.638596 0.500000 0.237338
O O2 0.624985 0.305991 0.353167
O O3 0.669046 0.233041 0.226283
O O4 0.585820 0.269989 0.220493
O O5 0.597055 0.279572 0.500000
O O6 0.570399 0.500000 0.410870
O O7 0.543038 0.244955 0.376414
O O8 0.789476 0.500000 0.814835
O O9 0.750000 0.250000 0.805569
O O10 0.803071 0.293732 0.922365
O O11 0.054673 0.230881 0.923108
O O12 0.128052 0.230217 0.000000
O O13 0.083080 0.000000 0.000000
O O14 0.500000 0.167015 0.500000
O O15 0.500000 0.000000 0.372253
O O16 0.154582 0.500000 0.000000
O O17 0.500000 0.265754 0.194604
O O18 0.546246 0.500000 0.167834
#
# Coordination Sequence:
#
# PCOD8265444 Si02
#       7
#    16  16  16   8   8   8  16
#     4  10  20  34  55  80 107 139 178 224 270 317
#     4   9  18  32  51  76 107 143 181 222 269 320
#     4  11  23  39  59  81 108 137 172 216 267 322
#     4  10  17  29  51  73 101 141 182 220 256 305
#     4   9  17  29  47  73 105 142 183 224 265 313
#     4  10  21  36  54  78 108 139 168 212 266 317
#     4   9  17  28  46  74 104 138 181 222 256 297
#
# _framework density 18.375122000000001
#
# number of rings (size 3 to 8) (size 9 to 14) (size 15 to 20)
#    0.000    2.273    1.818    1.364    1.273    3.636 
#    0.000    0.000    0.000    2.727    0.000    0.000 
#    0.000    0.000    0.000    0.000    0.000    0.000 
#
# Total GULP energy -545489.984539 kJ/mol
# GULP energy per Si atom -12397.499649 kJ/mol
# Density = 1.833330 g / cm^3
# Si number density = 18.375122 Si / 1000 Ang^3
#
#
#
# Elastic Constant Matrix: (Units=GPa)
#
#
# Indices 1 2 3 4 5 6 
#
# 1 143.3358 50.7695 56.7084 0.0000 0.0000 0.0000
# 2 50.7695 65.9984 33.5811 0.0000 0.0000 0.0000
# 3 56.7084 33.5811 95.2825 0.0000 0.0000 0.0000
# 4 0.0000 0.0000 0.0000 16.1912 0.0000 0.0000
# 5 0.0000 0.0000 0.0000 0.0000 23.6279 0.0000
# 6 0.0000 0.0000 0.0000 0.0000 0.0000 28.4471
#
#
#
# Elastic Compliance Matrix: (Units=1/GPa)
#
#
# Indices 1 2 3 4 5 6 
#
# 1 0.010859 -0.006172 -0.004288 0.000000 0.000000 0.000000
# 2 -0.006172 0.021970 -0.004070 0.000000 0.000000 0.000000
# 3 -0.004288 -0.004070 0.014481 0.000000 0.000000 0.000000
# 4 0.000000 0.000000 0.000000 0.061762 0.000000 0.000000
# 5 0.000000 0.000000 0.000000 0.000000 0.042323 0.000000
# 6 0.000000 0.000000 0.000000 0.000000 0.000000 0.035153
#
#
# Mechanical properties :
#
#
# Convention : Reuss Voigt Hill
#
# Bulk Modulus (GPa) = 54.78870 65.19273 59.99071
# Shear Modulus (GPa) = 22.55389 24.55709 23.55549
#
# Velocity S-wave (km/s) = 3.50725 3.65969 3.58428
# Velocity P-wave (km/s) = 6.80313 7.30846 7.06032
#
# Compressibility (1/GPa) = 0.01825194
#
# Stress axis : x y z
#
# Youngs Moduli (GPa) = 92.08965 45.51583 69.05397
#
# Poissons Ratio (x) = 0.28091 0.29608
# Poissons Ratio (y) = 0.56835 0.28105
# Poissons Ratio (z) = 0.39485 0.18525
#
# Static dielectric constant tensor:
#      x y z
#    x 3.317940 0.000000 0.000000 
#    y 0.000000 3.204290 0.000000 
#    z 0.000000 0.000000 3.585580 
# 
# 
# High freq. dielectric constant tensor:
#      x y z
#    x 1.699670 0.000000 0.000000 
#    y 0.000000 1.689600 0.000000 
#    z 0.000000 0.000000 1.713860 
# 
# From -- ./inp_files/58078.got.cif
#   From: 2010.03.12/outbox.cif.g09.slc.cpg/sg65_30_cif.got.tgz:58078.got - 2010.04.10 20:52:16.
