data_PCOD8265884
_publ_section_title
;
Structure prediction by ZEFSAII (Michael W. Deem and Ramdas Pophale) SiO2 
 PCOD8265884
Probable space group: C M M M
;
_chemical_formula_sum "Si O2"
_cell_formula_units_Z 72
_cell_length_a 15.523960
_cell_length_b 28.366283
_cell_length_c 9.095307
_cell_angle_alpha 90.000000
_cell_angle_beta 90.000000
_cell_angle_gamma 90.000000
_cell_volume 4005.182492
_symmetry_space_group_name_H-M "C M M M"
_symmetry_group_IT_number 65
_symmetry_cell_setting 'orthorhombic'
loop_
_space_group_symop_operation_xyz
x,y,z
-x,-y,z
x,-y,-z
-x,y,-z
-x,-y,-z
x,y,-z
-x,y,z
x,-y,z
1/2+x,1/2+y,z
1/2-x,1/2-y,z
1/2+x,1/2-y,-z
1/2-x,1/2+y,-z
1/2-x,1/2-y,-z
1/2+x,1/2+y,-z
1/2-x,1/2+y,z
1/2+x,1/2-y,z
loop_
_atom_site_type_symbol
_atom_site_label
_atom_site_fract_x
_atom_site_fract_y
_atom_site_fract_z
Si Si1 0.686808 0.890436 0.665734
Si Si2 0.000000 0.620001 0.333404
Si Si3 0.000000 0.284647 0.827273
Si Si4 0.330414 0.779992 0.329339
Si Si5 0.000000 0.943934 0.333758
Si Si6 0.830546 0.945553 0.171661
O O1 0.719466 0.900483 0.500000
O O2 0.588190 0.909896 0.685325
O O3 0.688054 0.834934 0.699990
O O4 0.746664 0.917064 0.780125
O O5 0.000000 0.660297 0.211529
O O6 0.000000 0.642508 0.500000
O O7 0.913982 0.261617 0.758838
O O8 0.000000 0.276642 0.000000
O O9 0.347261 0.770020 0.500000
O O10 0.250000 0.750000 0.270380
O O11 0.085376 0.924814 0.253181
O O12 0.000000 0.925032 0.500000
O O13 0.000000 0.000000 0.326449
O O14 0.815752 0.000000 0.213042
O O15 0.845590 0.938697 0.000000
#
# Coordination Sequence:
#
# PCOD8265884 Si02
#       6
#    16   8   8  16   8  16
#     4   9  17  31  52  75  96 123 163 205 240 279
#     4   8  16  32  51  70  95 129 167 200 234 285
#     4  10  18  28  47  74 101 128 160 200 242 287
#     4   9  18  34  54  73  96 129 166 201 239 287
#     4   9  17  31  52  73  92 121 163 204 238 281
#     4  10  20  33  49  71 100 131 160 194 241 293
#
# _framework density 17.976709
#
# number of rings (size 3 to 8) (size 9 to 14) (size 15 to 20)
#    0.000    2.778    0.000    3.333    0.000    6.667 
#    0.000    1.667    0.000    6.000    0.000    0.000 
#    0.000    0.000    0.000    0.000    0.000    0.000 
#
# Total GULP energy -446273.706092 kJ/mol
# GULP energy per Si atom -12396.491836 kJ/mol
# Density = 1.793579 g / cm^3
# Si number density = 17.976709 Si / 1000 Ang^3
#
#
#
# Elastic Constant Matrix: (Units=GPa)
#
#
# Indices 1 2 3 4 5 6 
#
# 1 177.6039 45.1268 74.4767 0.0000 0.0000 0.0000
# 2 45.1268 34.2872 28.6817 0.0000 0.0000 0.0000
# 3 74.4767 28.6817 97.0904 0.0000 0.0000 0.0000
# 4 0.0000 0.0000 0.0000 20.2914 0.0000 0.0000
# 5 0.0000 0.0000 0.0000 0.0000 29.2497 0.0000
# 6 0.0000 0.0000 0.0000 0.0000 0.0000 29.0524
#
#
#
# Elastic Compliance Matrix: (Units=1/GPa)
#
#
# Indices 1 2 3 4 5 6 
#
# 1 0.010024 -0.008980 -0.005037 0.000000 0.000000 0.000000
# 2 -0.008980 0.046783 -0.006932 0.000000 0.000000 0.000000
# 3 -0.005037 -0.006932 0.016211 0.000000 0.000000 0.000000
# 4 0.000000 0.000000 0.000000 0.049282 0.000000 0.000000
# 5 0.000000 0.000000 0.000000 0.000000 0.034188 0.000000
# 6 0.000000 0.000000 0.000000 0.000000 0.000000 0.034421
#
#
# Mechanical properties :
#
#
# Convention : Reuss Voigt Hill
#
# Bulk Modulus (GPa) = 32.13242 67.28355 49.70799
# Shear Modulus (GPa) = 20.56088 26.43179 23.49633
#
# Velocity S-wave (km/s) = 3.38561 3.83865 3.61923
# Velocity P-wave (km/s) = 5.76163 7.56019 6.72134
#
# Compressibility (1/GPa) = 0.03112122
#
# Stress axis : x y z
#
# Youngs Moduli (GPa) = 99.75707 21.37524 61.68670
#
# Poissons Ratio (x) = 0.19195 0.31070
# Poissons Ratio (y) = 0.89584 0.42759
# Poissons Ratio (z) = 0.50244 0.14817
#
# Static dielectric constant tensor:
#      x y z
#    x 3.691600 0.000000 0.000000 
#    y 0.000000 2.888410 0.000000 
#    z 0.000000 0.000000 3.232100 
# 
# 
# High freq. dielectric constant tensor:
#      x y z
#    x 1.718170 0.000000 0.000000 
#    y 0.000000 1.642970 0.000000 
#    z 0.000000 0.000000 1.694490 
# 
# From -- ./inp_files/7738.got.cif
#   From: 2010.03.12/outbox.cif.g09.slc.cpg/sg65_4_cif.got.tgz:7738.got - 2010.04.10 20:52:16.
