data_PCOD8265006
_publ_section_title
;
Structure prediction by ZEFSAII (Michael W. Deem and Ramdas Pophale) SiO2 
 PCOD8265006
Probable space group: C M C A
;
_chemical_formula_sum "Si O2"
_cell_formula_units_Z 48
_cell_length_a 9.551420
_cell_length_b 17.342788
_cell_length_c 13.163335
_cell_angle_alpha 90.000000
_cell_angle_beta 90.000000
_cell_angle_gamma 90.000000
_cell_volume 2180.483435
_symmetry_space_group_name_H-M "C M C A"
_symmetry_group_IT_number 64
_symmetry_cell_setting 'orthorhombic'
loop_
_space_group_symop_operation_xyz
x,y,z
-x,1/2-y,1/2+z
x,-y,-z
-x,1/2+y,1/2-z
-x,-y,-z
x,1/2+y,1/2-z
-x,y,z
x,1/2-y,1/2+z
1/2+x,1/2+y,z
1/2-x,-y,1/2+z
1/2+x,1/2-y,-z
1/2-x,y,1/2-z
1/2-x,1/2-y,-z
1/2+x,y,1/2-z
1/2-x,1/2+y,z
1/2+x,-y,1/2+z
loop_
_atom_site_type_symbol
_atom_site_label
_atom_site_fract_x
_atom_site_fract_y
_atom_site_fract_z
Si Si1 0.500000 0.852377 0.310726
Si Si2 0.000000 0.179672 0.369104
Si Si3 0.704605 0.473542 0.105446
Si Si4 0.250000 0.102844 0.250000
Si Si5 0.000000 0.100130 0.588430
O O1 0.500000 0.771594 0.368182
O O2 0.362643 0.897313 0.347555
O O3 0.500000 0.844074 0.187789
O O4 0.859833 0.154371 0.311370
O O5 0.000000 0.151290 0.486009
O O6 0.667624 0.546351 0.174969
O O7 0.869383 0.457786 0.092609
O O8 0.637025 0.500000 0.000000
#
# Coordination Sequence:
#
# PCOD8265006 Si02
#       5
#     8   8  16   8   8
#     4  12  28  46  71 110 148 185 236 301 357 426
#     4  12  30  46  72 108 150 186 231 304 370 421
#     4  12  24  45  77 104 139 193 248 288 345 430
#     4  12  24  46  74 106 138 186 246 292 342 432
#     4  12  24  47  75 101 147 192 234 291 370 415
#
# _framework density 22.013466000000001
#
# number of rings (size 3 to 8) (size 9 to 14) (size 15 to 20)
#    0.000    0.000    6.667    3.000    4.667    4.000 
#    0.000    0.000    0.000    0.000    0.000    0.000 
#    0.000    0.000    0.000    0.000    0.000    0.000 
#
# Total GULP energy -297597.690139 kJ/mol
# GULP energy per Si atom -12399.903756 kJ/mol
# Density = 2.196336 g / cm^3
# Si number density = 22.013466 Si / 1000 Ang^3
#
#
#
# Elastic Constant Matrix: (Units=GPa)
#
#
# Indices 1 2 3 4 5 6 
#
# 1 128.9634 49.1800 38.7019 0.0000 0.0000 0.0000
# 2 49.1800 139.7754 52.4411 0.0000 0.0000 0.0000
# 3 38.7019 52.4411 194.7138 0.0000 0.0000 0.0000
# 4 0.0000 0.0000 0.0000 38.1031 0.0000 0.0000
# 5 0.0000 0.0000 0.0000 0.0000 26.1939 0.0000
# 6 0.0000 0.0000 0.0000 0.0000 0.0000 -136.6935
#
#
#
# Elastic Compliance Matrix: (Units=1/GPa)
#
#
# Indices 1 2 3 4 5 6 
#
# 1 0.009148 -0.002822 -0.001058 0.000000 0.000000 0.000000
# 2 -0.002822 0.008829 -0.001817 0.000000 0.000000 0.000000
# 3 -0.001058 -0.001817 0.005835 0.000000 0.000000 0.000000
# 4 0.000000 0.000000 0.000000 0.026245 0.000000 0.000000
# 5 0.000000 0.000000 0.000000 0.000000 0.038177 0.000000
# 6 0.000000 0.000000 0.000000 0.000000 0.000000 -0.007316
#
#
# Mechanical properties :
#
#
# Convention : Reuss Voigt Hill
#
# Bulk Modulus (GPa) = 80.52661 82.67761 81.60211
# Shear Modulus (GPa) = 51.83984 7.06267 29.45126
#
# Velocity S-wave (km/s) = 4.85801 1.79313 3.66167
# Velocity P-wave (km/s) = 8.25391 6.47506 7.41800
#
# Compressibility (1/GPa) = 0.01241825
#
# Stress axis : x y z
#
# Youngs Moduli (GPa) = 109.31659 113.26566 171.36623
#
# Poissons Ratio (x) = 0.31959 0.18136
# Poissons Ratio (y) = 0.30844 0.31137
# Poissons Ratio (z) = 0.11569 0.20580
#
# Static dielectric constant tensor:
#      x y z
#    x 3.845710 0.000000 0.000000 
#    y 0.000000 3.761520 0.000000 
#    z 0.000000 0.000000 4.487630 
# 
# 
# High freq. dielectric constant tensor:
#      x y z
#    x 1.876550 0.000000 0.000000 
#    y 0.000000 1.854940 0.000000 
#    z 0.000000 0.000000 1.894250 
# 
# From -- ./inp_files/20529.got.cif
#   From: 2010.03.12/outbox.cif.g09.slc.cpg/sg64_11_cif.got.tgz:20529.got - 2010.04.10 20:19:32.
