data_PCOD8265036
_publ_section_title
;
Structure prediction by ZEFSAII (Michael W. Deem and Ramdas Pophale) SiO2 
 PCOD8265036
Probable space group: C M C A
;
_chemical_formula_sum "Si O2"
_cell_formula_units_Z 112
_cell_length_a 9.452537
_cell_length_b 31.835161
_cell_length_c 24.458996
_cell_angle_alpha 90.000000
_cell_angle_beta 90.000000
_cell_angle_gamma 90.000000
_cell_volume 7360.275364
_symmetry_space_group_name_H-M "C M C A"
_symmetry_group_IT_number 64
_symmetry_cell_setting 'orthorhombic'
loop_
_space_group_symop_operation_xyz
x,y,z
-x,1/2-y,1/2+z
x,-y,-z
-x,1/2+y,1/2-z
-x,-y,-z
x,1/2+y,1/2-z
-x,y,z
x,1/2-y,1/2+z
1/2+x,1/2+y,z
1/2-x,-y,1/2+z
1/2+x,1/2-y,-z
1/2-x,y,1/2-z
1/2-x,1/2-y,-z
1/2+x,y,1/2-z
1/2-x,1/2+y,z
1/2+x,-y,1/2+z
loop_
_atom_site_type_symbol
_atom_site_label
_atom_site_fract_x
_atom_site_fract_y
_atom_site_fract_z
Si Si1 0.335107 0.689347 0.019815
Si Si2 0.334719 0.744753 0.917229
Si Si3 0.162628 0.448004 0.401722
Si Si4 0.835784 0.609330 0.698355
Si Si5 0.660220 0.479291 0.559281
Si Si6 0.837101 0.407029 0.518017
Si Si7 0.334859 0.793977 0.302772
O O1 0.500000 0.694666 0.032397
O O2 0.249813 0.713471 0.066852
O O3 0.288319 0.641041 0.022070
O O4 0.298169 0.707486 0.959818
O O5 0.500000 0.755225 0.918810
O O6 0.286835 0.731253 0.856615
O O7 0.211711 0.418001 0.353076
O O8 0.258519 0.489676 0.399472
O O9 0.186370 0.421520 0.456275
O O10 0.000000 0.462145 0.396189
O O11 0.750000 0.592240 0.750000
O O12 0.797631 0.657546 0.685943
O O13 0.000000 0.603951 0.711275
O O14 0.664243 0.500000 0.500000
O O15 0.500000 0.472468 0.579674
O O16 0.740044 0.434577 0.558451
O O17 0.000000 0.412834 0.535553
O O18 0.500000 0.787748 0.290939
O O19 0.250000 0.776973 0.250000
#
# Coordination Sequence:
#
# PCOD8265036 Si02
#       7
#    16  16  16  16  16  16  16
#     4   9  17  28  43  63  86 113 144 176 209 250
#     4   9  17  29  43  61  87 115 142 174 213 253
#     4   9  16  27  43  60  81 112 143 168 199 242
#     4   9  17  28  42  61  84 110 141 173 203 239
#     4   9  17  27  39  59  85 108 133 167 203 238
#     4   9  16  27  43  61  82 110 142 171 201 242
#     4   9  17  29  44  62  85 113 144 177 211 247
#
# _framework density 15.216820999999999
#
# number of rings (size 3 to 8) (size 9 to 14) (size 15 to 20)
#    0.000    3.000    0.000    1.286    0.000    6.857 
#    0.000    0.000    0.000    5.143    0.000    1.000 
#    0.000    6.857    0.000    0.000    0.000    0.000 
#
# Total GULP energy -694384.897725 kJ/mol
# GULP energy per Si atom -12399.730317 kJ/mol
# Density = 1.518219 g / cm^3
# Si number density = 15.216821 Si / 1000 Ang^3
#
#
#
# Elastic Constant Matrix: (Units=GPa)
#
#
# Indices 1 2 3 4 5 6 
#
# 1 67.7032 56.8366 45.9432 0.0000 0.0000 0.0000
# 2 56.8366 113.8246 49.4928 0.0000 0.0000 0.0000
# 3 45.9432 49.4928 91.6425 0.0000 0.0000 0.0000
# 4 0.0000 0.0000 0.0000 24.6752 0.0000 0.0000
# 5 0.0000 0.0000 0.0000 0.0000 24.5528 0.0000
# 6 0.0000 0.0000 0.0000 0.0000 0.0000 25.3759
#
#
#
# Elastic Compliance Matrix: (Units=1/GPa)
#
#
# Indices 1 2 3 4 5 6 
#
# 1 0.030399 -0.011178 -0.009204 0.000000 0.000000 0.000000
# 2 -0.011178 0.015592 -0.002817 0.000000 0.000000 0.000000
# 3 -0.009204 -0.002817 0.017047 0.000000 0.000000 0.000000
# 4 0.000000 0.000000 0.000000 0.040527 0.000000 0.000000
# 5 0.000000 0.000000 0.000000 0.000000 0.040729 0.000000
# 6 0.000000 0.000000 0.000000 0.000000 0.000000 0.039407
#
#
# Mechanical properties :
#
#
# Convention : Reuss Voigt Hill
#
# Bulk Modulus (GPa) = 60.08759 64.19061 62.13910
# Shear Modulus (GPa) = 21.21843 22.98063 22.09953
#
# Velocity S-wave (km/s) = 3.73823 3.89036 3.81505
# Velocity P-wave (km/s) = 7.62927 7.90287 7.76728
#
# Compressibility (1/GPa) = 0.01664237
#
# Stress axis : x y z
#
# Youngs Moduli (GPa) = 32.89535 64.13699 58.66064
#
# Poissons Ratio (x) = 0.71690 0.53988
# Poissons Ratio (y) = 0.36769 0.16523
# Poissons Ratio (z) = 0.30275 0.18066
#
# Static dielectric constant tensor:
#      x y z
#    x 2.959920 0.000000 0.000000 
#    y 0.000000 2.910840 0.000000 
#    z 0.000000 0.000000 2.797070 
# 
# 
# High freq. dielectric constant tensor:
#      x y z
#    x 1.584940 0.000000 0.000000 
#    y 0.000000 1.573910 0.000000 
#    z 0.000000 0.000000 1.557130 
# 
# From -- ./inp_files/44625.got.cif
#   From: 2010.03.12/outbox.cif.g09.slc.cpg/sg64_23_cif.got.tgz:44625.got - 2010.04.10 20:19:32.
