data_PCOD8265133
_publ_section_title
;
Structure prediction by ZEFSAII (Michael W. Deem and Ramdas Pophale) SiO2 
 PCOD8265133
Probable space group: C M M M
;
_chemical_formula_sum "Si O2"
_cell_formula_units_Z 80
_cell_length_a 18.635908
_cell_length_b 8.664441
_cell_length_c 26.192326
_cell_angle_alpha 90.000000
_cell_angle_beta 90.000000
_cell_angle_gamma 90.000000
_cell_volume 4229.267685
_symmetry_space_group_name_H-M "C M M M"
_symmetry_group_IT_number 65
_symmetry_cell_setting 'orthorhombic'
loop_
_space_group_symop_operation_xyz
x,y,z
-x,-y,z
x,-y,-z
-x,y,-z
-x,-y,-z
x,y,-z
-x,y,z
x,-y,z
1/2+x,1/2+y,z
1/2-x,1/2-y,z
1/2+x,1/2-y,-z
1/2-x,1/2+y,-z
1/2-x,1/2-y,-z
1/2+x,1/2+y,-z
1/2-x,1/2+y,z
1/2+x,1/2-y,z
loop_
_atom_site_type_symbol
_atom_site_label
_atom_site_fract_x
_atom_site_fract_y
_atom_site_fract_z
Si Si1 0.085651 0.326118 0.500000
Si Si2 0.415357 0.823715 0.293294
Si Si3 0.829766 0.316849 0.898103
Si Si4 0.585311 0.672958 0.397182
Si Si5 0.669875 0.683213 0.000000
Si Si6 0.328109 0.319023 0.204660
O O1 0.114233 0.500000 0.500000
O O2 0.116500 0.242705 0.449633
O O3 0.000000 0.321717 0.500000
O O4 0.500000 0.800557 0.288468
O O5 0.388429 0.775366 0.349532
O O6 0.378730 0.712835 0.252444
O O7 0.392601 0.000000 0.283440
O O8 0.830054 0.500000 0.901571
O O9 0.750000 0.250000 0.896185
O O10 0.865667 0.259294 0.845337
O O11 0.869116 0.246803 0.948576
O O12 0.500000 0.673230 0.399789
O O13 0.614961 0.500000 0.390515
O O14 0.750000 0.750000 0.000000
O O15 0.670701 0.500000 0.000000
O O16 0.320724 0.500000 0.195025
O O17 0.250000 0.250000 0.215917
#
# Coordination Sequence:
#
# PCOD8265133 Si02
#       6
#     8  16  16  16   8  16
#     4   9  15  23  37  59  88 121 154 191 238 287
#     4  10  20  34  51  72  99 130 164 202 244 290
#     4  10  17  27  42  63  91 122 156 194 239 286
#     4   9  16  26  41  63  91 122 156 195 239 286
#     4  10  16  24  38  60  89 120 153 190 237 286
#     4  11  21  34  51  72  99 130 165 203 244 289
#
# _framework density 18.915804000000001
#
# number of rings (size 3 to 8) (size 9 to 14) (size 15 to 20)
#    0.000    2.100    0.000    8.400    0.000    4.800 
#    0.000    0.000    0.000    0.000    0.000    1.400 
#    0.000    5.600    0.000    0.000    0.000    0.000 
#
# Total GULP energy -495873.055784 kJ/mol
# GULP energy per Si atom -12396.826395 kJ/mol
# Density = 1.887275 g / cm^3
# Si number density = 18.915804 Si / 1000 Ang^3
#
#
#
# Elastic Constant Matrix: (Units=GPa)
#
#
# Indices 1 2 3 4 5 6 
#
# 1 14.0214 17.8167 23.6153 0.0000 0.0000 0.0000
# 2 17.8167 166.0559 58.5560 0.0000 0.0000 0.0000
# 3 23.6153 58.5560 173.5859 0.0000 0.0000 0.0000
# 4 0.0000 0.0000 0.0000 43.0118 0.0000 0.0000
# 5 0.0000 0.0000 0.0000 0.0000 16.2728 0.0000
# 6 0.0000 0.0000 0.0000 0.0000 0.0000 15.1499
#
#
#
# Elastic Compliance Matrix: (Units=1/GPa)
#
#
# Indices 1 2 3 4 5 6 
#
# 1 0.098566 -0.006636 -0.011171 0.000000 0.000000 0.000000
# 2 -0.006636 0.007282 -0.001554 0.000000 0.000000 0.000000
# 3 -0.011171 -0.001554 0.007805 0.000000 0.000000 0.000000
# 4 0.000000 0.000000 0.000000 0.023249 0.000000 0.000000
# 5 0.000000 0.000000 0.000000 0.000000 0.061452 0.000000
# 6 0.000000 0.000000 0.000000 0.000000 0.000000 0.066007
#
#
# Mechanical properties :
#
#
# Convention : Reuss Voigt Hill
#
# Bulk Modulus (GPa) = 13.34557 61.51548 37.43052
# Shear Modulus (GPa) = 15.24114 31.79857 23.51986
#
# Velocity S-wave (km/s) = 2.84163 4.10452 3.53001
# Velocity P-wave (km/s) = 4.22339 7.41984 6.03701
#
# Compressibility (1/GPa) = 0.07493123
#
# Stress axis : x y z
#
# Youngs Moduli (GPa) = 10.14550 137.32590 128.12943
#
# Poissons Ratio (x) = 0.91134 1.43129
# Poissons Ratio (y) = 0.06733 0.19906
# Poissons Ratio (z) = 0.11333 0.21335
#
# Static dielectric constant tensor:
#      x y z
#    x 2.705280 0.000000 0.000000 
#    y 0.000000 3.623060 0.000000 
#    z 0.000000 0.000000 4.430120 
# 
# 
# High freq. dielectric constant tensor:
#      x y z
#    x 1.642040 0.000000 0.000000 
#    y 0.000000 1.757570 0.000000 
#    z 0.000000 0.000000 1.767400 
# 
# From -- ./inp_files/70798.got.cif
#   From: 2010.03.12/outbox.cif.g09.slc.cpg/sg65_36_cif.got.tgz:70798.got - 2010.04.10 20:52:16.
