data_PCOD8265520
_publ_section_title
;
Structure prediction by ZEFSAII (Michael W. Deem and Ramdas Pophale) SiO2 
 PCOD8265520
Probable space group: C M M M
;
_chemical_formula_sum "Si O2"
_cell_formula_units_Z 96
_cell_length_a 16.482299
_cell_length_b 17.797440
_cell_length_c 18.558412
_cell_angle_alpha 90.000000
_cell_angle_beta 90.000000
_cell_angle_gamma 90.000000
_cell_volume 5443.975194
_symmetry_space_group_name_H-M "C M M M"
_symmetry_group_IT_number 65
_symmetry_cell_setting 'orthorhombic'
loop_
_space_group_symop_operation_xyz
x,y,z
-x,-y,z
x,-y,-z
-x,y,-z
-x,-y,-z
x,y,-z
-x,y,z
x,-y,z
1/2+x,1/2+y,z
1/2-x,1/2-y,z
1/2+x,1/2-y,-z
1/2-x,1/2+y,-z
1/2-x,1/2-y,-z
1/2+x,1/2+y,-z
1/2-x,1/2+y,z
1/2+x,1/2-y,z
loop_
_atom_site_type_symbol
_atom_site_label
_atom_site_fract_x
_atom_site_fract_y
_atom_site_fract_z
Si Si1 0.686602 0.682665 0.419211
Si Si2 0.406904 0.150745 0.083549
Si Si3 0.092694 0.273768 0.312106
Si Si4 0.793564 0.584978 0.324007
Si Si5 0.660152 0.719811 0.163234
Si Si6 0.746634 0.917707 0.159910
O O1 0.659989 0.660433 0.500000
O O2 0.750000 0.750000 0.419692
O O3 0.609628 0.713933 0.375390
O O4 0.724814 0.609424 0.381185
O O5 0.500000 0.129915 0.104440
O O6 0.389727 0.238542 0.100109
O O7 0.342933 0.103927 0.130566
O O8 0.391530 0.134453 0.000000
O O9 0.134894 0.354132 0.324665
O O10 0.114630 0.231430 0.238223
O O11 0.000000 0.295244 0.311324
O O12 0.824024 0.500000 0.343341
O O13 0.754207 0.584626 0.245677
O O14 0.750000 0.750000 0.176435
O O15 0.676823 0.634372 0.136857
O O16 0.766561 0.000000 0.129987
#
# Coordination Sequence:
#
# PCOD8265520 Si02
#       6
#    16  16  16  16  16  16
#     4   9  18  34  54  75 101 140 182 215 253 304
#     4  10  21  35  53  80 110 141 175 211 259 318
#     4  11  19  31  53  80 108 140 174 215 266 315
#     4  10  19  33  53  79 108 139 175 214 259 316
#     4  10  17  33  54  73 102 140 183 221 256 300
#     4  10  20  33  53  77 105 140 177 217 262 308
#
# _framework density 17.634173000000001
#
# number of rings (size 3 to 8) (size 9 to 14) (size 15 to 20)
#    0.000    2.000    5.000    1.000    0.000    4.667 
#    0.000    2.500    0.000    3.500    0.000    7.000 
#    0.000    0.000    0.000    0.000    0.000    0.000 
#
# Total GULP energy -594775.800963 kJ/mol
# GULP energy per Si atom -12391.162520 kJ/mol
# Density = 1.759404 g / cm^3
# Si number density = 17.634173 Si / 1000 Ang^3
#
#
#
# Elastic Constant Matrix: (Units=GPa)
#
#
# Indices 1 2 3 4 5 6 
#
# 1 41.5355 35.0415 3.9135 0.0000 0.0000 0.0000
# 2 35.0415 131.4408 21.1592 0.0000 0.0000 0.0000
# 3 3.9135 21.1592 62.5276 0.0000 0.0000 0.0000
# 4 0.0000 0.0000 0.0000 1.8036 0.0000 0.0000
# 5 0.0000 0.0000 0.0000 0.0000 19.4509 0.0000
# 6 0.0000 0.0000 0.0000 0.0000 0.0000 17.0047
#
#
#
# Elastic Compliance Matrix: (Units=1/GPa)
#
#
# Indices 1 2 3 4 5 6 
#
# 1 0.031111 -0.008440 0.000909 0.000000 0.000000 0.000000
# 2 -0.008440 0.010336 -0.002969 0.000000 0.000000 0.000000
# 3 0.000909 -0.002969 0.016941 0.000000 0.000000 0.000000
# 4 0.000000 0.000000 0.000000 0.554447 0.000000 0.000000
# 5 0.000000 0.000000 0.000000 0.000000 0.051412 0.000000
# 6 0.000000 0.000000 0.000000 0.000000 0.000000 0.058807
#
#
# Mechanical properties :
#
#
# Convention : Reuss Voigt Hill
#
# Bulk Modulus (GPa) = 26.74774 39.52581 33.13678
# Shear Modulus (GPa) = 6.60923 19.34448 12.97685
#
# Velocity S-wave (km/s) = 1.93807 3.31567 2.71568
# Velocity P-wave (km/s) = 4.49546 6.09272 5.35399
#
# Compressibility (1/GPa) = 0.03738633
#
# Stress axis : x y z
#
# Youngs Moduli (GPa) = 32.14311 96.74773 59.02872
#
# Poissons Ratio (x) = 0.81658 -0.05366
# Poissons Ratio (y) = 0.27130 0.17528
# Poissons Ratio (z) = -0.02922 0.28729
#
# Static dielectric constant tensor:
#      x y z
#    x 3.147600 0.000000 0.000000 
#    y 0.000000 3.998460 0.000000 
#    z 0.000000 0.000000 3.380030 
# 
# 
# High freq. dielectric constant tensor:
#      x y z
#    x 1.656900 0.000000 0.000000 
#    y 0.000000 1.676900 0.000000 
#    z 0.000000 0.000000 1.681050 
# 
# From -- ./inp_files/54489.got.cif
#   From: 2010.03.12/outbox.cif.g09.slc.cpg/sg65_28_cif.got.tgz:54489.got - 2010.04.10 20:52:16.
