data_PCOD8265300
_publ_section_title
;
Structure prediction by ZEFSAII (Michael W. Deem and Ramdas Pophale) SiO2 
 PCOD8265300
Probable space group: C M M M
;
_chemical_formula_sum "Si O2"
_cell_formula_units_Z 104
_cell_length_a 22.632196
_cell_length_b 23.586798
_cell_length_c 13.459768
_cell_angle_alpha 90.000000
_cell_angle_beta 90.000000
_cell_angle_gamma 90.000000
_cell_volume 7185.107289
_symmetry_space_group_name_H-M "C M M M"
_symmetry_group_IT_number 65
_symmetry_cell_setting 'orthorhombic'
loop_
_space_group_symop_operation_xyz
x,y,z
-x,-y,z
x,-y,-z
-x,y,-z
-x,-y,-z
x,y,-z
-x,y,z
x,-y,z
1/2+x,1/2+y,z
1/2-x,1/2-y,z
1/2+x,1/2-y,-z
1/2-x,1/2+y,-z
1/2-x,1/2-y,-z
1/2+x,1/2+y,-z
1/2-x,1/2+y,z
1/2+x,1/2-y,z
loop_
_atom_site_type_symbol
_atom_site_label
_atom_site_fract_x
_atom_site_fract_y
_atom_site_fract_z
Si Si1 0.844460 0.265167 0.614811
Si Si2 0.065089 0.500000 0.117328
Si Si3 0.140465 0.392712 0.882823
Si Si4 0.603424 0.063017 0.616480
Si Si5 0.567093 0.831466 0.263935
Si Si6 0.276302 0.064246 0.729951
Si Si7 0.230695 0.159724 0.385123
O O1 0.861868 0.262859 0.500000
O O2 0.903320 0.279810 0.676000
O O3 0.819335 0.204257 0.649138
O O4 0.795309 0.313316 0.632935
O O5 0.100195 0.554718 0.152789
O O6 0.000000 0.500000 0.164871
O O7 0.060532 0.500000 0.000000
O O8 0.106398 0.338805 0.836617
O O9 0.204046 0.405773 0.833799
O O10 0.147892 0.385210 0.000000
O O11 0.601281 0.075749 0.500000
O O12 0.565704 0.111153 0.671015
O O13 0.671114 0.065394 0.650451
O O14 0.577461 0.000000 0.640308
O O15 0.500000 0.815057 0.235834
O O16 0.224556 0.102984 0.681957
O O17 0.253617 0.000000 0.749162
O O18 0.221839 0.144107 0.500000
#
# Coordination Sequence:
#
# PCOD8265300 Si02
#       7
#    16   8  16  16  16  16  16
#     4   9  17  29  44  61  80 106 137 168 207 250
#     4   9  16  26  38  48  65 101 145 181 207 232
#     4  10  19  30  40  55  79 109 146 182 212 239
#     4   9  17  27  36  51  79 107 130 160 199 240
#     4  11  21  29  41  58  78 106 143 180 210 242
#     4  10  17  26  43  63  81 103 134 172 211 247
#     4   9  16  28  46  62  80 106 134 166 205 254
#
# _framework density 14.474385
#
# number of rings (size 3 to 8) (size 9 to 14) (size 15 to 20)
#    0.000    2.385    3.846    2.308    1.077    3.385 
#    0.000    0.769    0.000    1.846    0.000    0.000 
#    0.000    0.615    0.000    3.385    0.000    0.000 
#
# Total GULP energy -644565.655157 kJ/mol
# GULP energy per Si atom -12395.493368 kJ/mol
# Density = 1.444144 g / cm^3
# Si number density = 14.474385 Si / 1000 Ang^3
#
#
#
# Elastic Constant Matrix: (Units=GPa)
#
#
# Indices 1 2 3 4 5 6 
#
# 1 32.9558 35.9271 23.9833 0.0000 0.0000 0.0000
# 2 35.9271 71.3745 40.5070 0.0000 0.0000 0.0000
# 3 23.9833 40.5070 75.1643 0.0000 0.0000 0.0000
# 4 0.0000 0.0000 0.0000 16.2229 0.0000 0.0000
# 5 0.0000 0.0000 0.0000 0.0000 11.9542 0.0000
# 6 0.0000 0.0000 0.0000 0.0000 0.0000 19.4343
#
#
#
# Elastic Compliance Matrix: (Units=1/GPa)
#
#
# Indices 1 2 3 4 5 6 
#
# 1 0.068381 -0.031747 -0.004710 0.000000 0.000000 0.000000
# 2 -0.031747 0.034923 -0.008691 0.000000 0.000000 0.000000
# 3 -0.004710 -0.008691 0.019490 0.000000 0.000000 0.000000
# 4 0.000000 0.000000 0.000000 0.061641 0.000000 0.000000
# 5 0.000000 0.000000 0.000000 0.000000 0.083653 0.000000
# 6 0.000000 0.000000 0.000000 0.000000 0.000000 0.051455
#
#
# Mechanical properties :
#
#
# Convention : Reuss Voigt Hill
#
# Bulk Modulus (GPa) = 30.77022 42.25880 36.51451
# Shear Modulus (GPa) = 11.88576 14.79410 13.33993
#
# Velocity S-wave (km/s) = 2.86869 3.20048 3.03912
# Velocity P-wave (km/s) = 5.68129 6.55106 6.13162
#
# Compressibility (1/GPa) = 0.03249896
#
# Stress axis : x y z
#
# Youngs Moduli (GPa) = 14.62403 28.63440 51.30706
#
# Poissons Ratio (x) = 0.90906 0.24165
# Poissons Ratio (y) = 0.46427 0.44589
# Poissons Ratio (z) = 0.06888 0.24885
#
# Static dielectric constant tensor:
#      x y z
#    x 2.474520 0.000000 0.000000 
#    y 0.000000 2.863860 0.000000 
#    z 0.000000 0.000000 2.777100 
# 
# 
# High freq. dielectric constant tensor:
#      x y z
#    x 1.500730 0.000000 0.000000 
#    y 0.000000 1.532820 0.000000 
#    z 0.000000 0.000000 1.554990 
# 
# From -- ./inp_files/44733.got.cif
#   From: 2010.03.12/outbox.cif.g09.slc.cpg/sg65_23_cif.got.tgz:44733.got - 2010.04.10 20:52:16.
