data_PCOD8265886
_publ_section_title
;
Structure prediction by ZEFSAII (Michael W. Deem and Ramdas Pophale) SiO2 
 PCOD8265886
Probable space group: C M M M
;
_chemical_formula_sum "Si O2"
_cell_formula_units_Z 80
_cell_length_a 25.749043
_cell_length_b 19.082699
_cell_length_c 9.141903
_cell_angle_alpha 90.000000
_cell_angle_beta 90.000000
_cell_angle_gamma 90.000000
_cell_volume 4491.976768
_symmetry_space_group_name_H-M "C M M M"
_symmetry_group_IT_number 65
_symmetry_cell_setting 'orthorhombic'
loop_
_space_group_symop_operation_xyz
x,y,z
-x,-y,z
x,-y,-z
-x,y,-z
-x,-y,-z
x,y,-z
-x,y,z
x,-y,z
1/2+x,1/2+y,z
1/2-x,1/2-y,z
1/2+x,1/2-y,-z
1/2-x,1/2+y,-z
1/2-x,1/2-y,-z
1/2+x,1/2+y,-z
1/2-x,1/2+y,z
1/2+x,1/2-y,z
loop_
_atom_site_type_symbol
_atom_site_label
_atom_site_fract_x
_atom_site_fract_y
_atom_site_fract_z
Si Si1 0.303280 0.580306 0.828810
Si Si2 0.602250 0.169898 0.669903
Si Si3 0.500000 0.176745 0.172480
Si Si4 0.199731 0.580735 0.329255
Si Si5 0.112472 0.834171 0.664581
Si Si6 0.000000 0.817949 0.665523
O O1 0.313972 0.500000 0.784278
O O2 0.251006 0.607901 0.752757
O O3 0.351837 0.626116 0.778685
O O4 0.296145 0.589454 0.000000
O O5 0.591993 0.154644 0.500000
O O6 0.552032 0.142734 0.759051
O O7 0.651478 0.126290 0.727591
O O8 0.613332 0.251597 0.698379
O O9 0.500000 0.258476 0.212133
O O10 0.500000 0.165355 0.000000
O O11 0.209369 0.592502 0.500000
O O12 0.188261 0.500000 0.291428
O O13 0.132397 0.849005 0.500000
O O14 0.052959 0.862739 0.683486
O O15 0.000000 0.784038 0.500000
#
# Coordination Sequence:
#
# PCOD8265886 Si02
#       6
#    16  16   8  16  16   8
#     4  10  21  35  49  68  98 132 161 196 245 293
#     4   9  18  33  52  74 100 127 159 202 245 282
#     4  10  18  28  47  74 101 131 163 193 235 290
#     4   9  18  34  55  74  93 125 167 204 240 285
#     4   9  17  31  52  74  96 125 161 199 238 285
#     4   8  16  32  51  72  99 129 159 197 245 284
#
# _framework density 17.809531
#
# number of rings (size 3 to 8) (size 9 to 14) (size 15 to 20)
#    0.000    2.800    0.000    2.700    0.000    6.000 
#    0.000    5.000    0.000    6.000    0.000    0.000 
#    0.000    0.000    0.000    0.000    0.000    0.000 
#
# Total GULP energy -495904.058731 kJ/mol
# GULP energy per Si atom -12397.601468 kJ/mol
# Density = 1.776900 g / cm^3
# Si number density = 17.809531 Si / 1000 Ang^3
#
#
#
# Elastic Constant Matrix: (Units=GPa)
#
#
# Indices 1 2 3 4 5 6 
#
# 1 174.2831 56.7375 63.6937 0.0000 0.0000 0.0000
# 2 56.7375 44.7439 27.9173 0.0000 0.0000 0.0000
# 3 63.6937 27.9173 71.1293 0.0000 0.0000 0.0000
# 4 0.0000 0.0000 0.0000 20.1901 0.0000 0.0000
# 5 0.0000 0.0000 0.0000 0.0000 19.5875 0.0000
# 6 0.0000 0.0000 0.0000 0.0000 0.0000 3.5151
#
#
#
# Elastic Compliance Matrix: (Units=1/GPa)
#
#
# Indices 1 2 3 4 5 6 
#
# 1 0.011437 -0.010744 -0.006025 0.000000 0.000000 0.000000
# 2 -0.010744 0.039690 -0.005957 0.000000 0.000000 0.000000
# 3 -0.006025 -0.005957 0.021792 0.000000 0.000000 0.000000
# 4 0.000000 0.000000 0.000000 0.049529 0.000000 0.000000
# 5 0.000000 0.000000 0.000000 0.000000 0.051053 0.000000
# 6 0.000000 0.000000 0.000000 0.000000 0.000000 0.284486
#
#
# Mechanical properties :
#
#
# Convention : Reuss Voigt Hill
#
# Bulk Modulus (GPa) = 36.40630 65.20591 50.80610
# Shear Modulus (GPa) = 9.75430 18.11241 13.93336
#
# Velocity S-wave (km/s) = 2.34284 3.19251 2.80009
# Velocity P-wave (km/s) = 5.27304 7.09098 6.24848
#
# Compressibility (1/GPa) = 0.02746778
#
# Stress axis : x y z
#
# Youngs Moduli (GPa) = 87.43317 25.19522 45.88852
#
# Poissons Ratio (x) = 0.27070 0.27647
# Poissons Ratio (y) = 0.93938 0.27336
# Poissons Ratio (z) = 0.52677 0.15009
#
# Static dielectric constant tensor:
#      x y z
#    x 3.608510 0.000000 0.000000 
#    y 0.000000 3.025310 0.000000 
#    z 0.000000 0.000000 3.162770 
# 
# 
# High freq. dielectric constant tensor:
#      x y z
#    x 1.707450 0.000000 0.000000 
#    y 0.000000 1.652660 0.000000 
#    z 0.000000 0.000000 1.682280 
# 
# From -- ./inp_files/9738.got.cif
#   From: 2010.03.12/outbox.cif.g09.slc.cpg/sg65_5_cif.got.tgz:9738.got - 2010.04.10 20:52:16.
