data_PCOD8265128
_publ_section_title
;
Structure prediction by ZEFSAII (Michael W. Deem and Ramdas Pophale) SiO2 
 PCOD8265128
Probable space group: C M M M
;
_chemical_formula_sum "Si O2"
_cell_formula_units_Z 64
_cell_length_a 8.647720
_cell_length_b 19.168876
_cell_length_c 21.111680
_cell_angle_alpha 90.000000
_cell_angle_beta 90.000000
_cell_angle_gamma 90.000000
_cell_volume 3499.621386
_symmetry_space_group_name_H-M "C M M M"
_symmetry_group_IT_number 65
_symmetry_cell_setting 'orthorhombic'
loop_
_space_group_symop_operation_xyz
x,y,z
-x,-y,z
x,-y,-z
-x,y,-z
-x,-y,-z
x,y,-z
-x,y,z
x,-y,z
1/2+x,1/2+y,z
1/2-x,1/2-y,z
1/2+x,1/2-y,-z
1/2-x,1/2+y,-z
1/2-x,1/2-y,-z
1/2+x,1/2+y,-z
1/2-x,1/2+y,z
1/2+x,1/2-y,z
loop_
_atom_site_type_symbol
_atom_site_label
_atom_site_fract_x
_atom_site_fract_y
_atom_site_fract_z
Si Si1 0.816128 0.172329 0.373273
Si Si2 0.316245 0.172036 0.500000
Si Si3 0.683875 0.826811 0.244769
Si Si4 0.174718 0.917180 0.000000
Si Si5 0.682501 0.078707 0.128806
O O1 0.750000 0.250000 0.372052
O O2 0.748112 0.134083 0.436292
O O3 0.754136 0.137381 0.308500
O O4 0.000000 0.172102 0.375616
O O5 0.500000 0.172456 0.500000
O O6 0.250000 0.250000 0.500000
O O7 0.500000 0.823269 0.250747
O O8 0.750000 0.750000 0.233388
O O9 0.740717 0.874447 0.186865
O O10 0.255011 0.887976 0.936560
O O11 0.000000 0.890971 0.000000
O O12 0.190522 0.000000 0.000000
O O13 0.500000 0.078436 0.124991
O O14 0.745855 0.000000 0.138682
#
# Coordination Sequence:
#
# PCOD8265128 Si02
#       5
#    16   8  16   8  16
#     4  10  17  26  40  60  88 120 153 188 229 273
#     4  10  16  24  38  58  85 116 153 192 229 269
#     4  10  19  31  47  68  95 125 155 188 230 276
#     4   9  17  29  48  73  96 117 147 191 236 273
#     4   9  18  33  52  71  92 121 156 191 227 272
#
# _framework density 18.287693000000001
#
# number of rings (size 3 to 8) (size 9 to 14) (size 15 to 20)
#    0.000    2.375    0.000    7.500    0.000    3.500 
#    0.000    0.625    0.000    0.000    0.000    0.875 
#    0.000    7.000    0.000    0.000    0.000    0.000 
#
# Total GULP energy -396611.892823 kJ/mol
# GULP energy per Si atom -12394.121651 kJ/mol
# Density = 1.824607 g / cm^3
# Si number density = 18.287693 Si / 1000 Ang^3
#
#
#
# Elastic Constant Matrix: (Units=GPa)
#
#
# Indices 1 2 3 4 5 6 
#
# 1 109.8833 19.9293 69.1266 0.0000 0.0000 0.0000
# 2 19.9293 35.4339 50.5695 0.0000 0.0000 0.0000
# 3 69.1266 50.5695 231.1955 0.0000 0.0000 0.0000
# 4 0.0000 0.0000 0.0000 5.7169 0.0000 0.0000
# 5 0.0000 0.0000 0.0000 0.0000 35.3407 0.0000
# 6 0.0000 0.0000 0.0000 0.0000 0.0000 13.3526
#
#
#
# Elastic Compliance Matrix: (Units=1/GPa)
#
#
# Indices 1 2 3 4 5 6 
#
# 1 0.011329 -0.002235 -0.002898 0.000000 0.000000 0.000000
# 2 -0.002235 0.041470 -0.008402 0.000000 0.000000 0.000000
# 3 -0.002898 -0.008402 0.007030 0.000000 0.000000 0.000000
# 4 0.000000 0.000000 0.000000 0.174919 0.000000 0.000000
# 5 0.000000 0.000000 0.000000 0.000000 0.028296 0.000000
# 6 0.000000 0.000000 0.000000 0.000000 0.000000 0.074892
#
#
# Mechanical properties :
#
#
# Convention : Reuss Voigt Hill
#
# Bulk Modulus (GPa) = 30.52794 72.86261 51.69528
# Shear Modulus (GPa) = 13.30039 26.67453 19.98746
#
# Velocity S-wave (km/s) = 2.69975 3.82331 3.30956
# Velocity P-wave (km/s) = 5.14272 7.70839 6.55236
#
# Compressibility (1/GPa) = 0.03275687
#
# Stress axis : x y z
#
# Youngs Moduli (GPa) = 88.26572 24.11356 142.25055
#
# Poissons Ratio (x) = 0.05391 0.41231
# Poissons Ratio (y) = 0.19732 1.19525
# Poissons Ratio (z) = 0.25584 0.20261
#
# Static dielectric constant tensor:
#      x y z
#    x 3.375360 0.000000 0.000000 
#    y 0.000000 2.879610 0.000000 
#    z 0.000000 0.000000 4.665360 
# 
# 
# High freq. dielectric constant tensor:
#      x y z
#    x 1.720650 0.000000 0.000000 
#    y 0.000000 1.629440 0.000000 
#    z 0.000000 0.000000 1.743800 
# 
# From -- ./inp_files/59133.got.cif
#   From: 2010.03.12/outbox.cif.g09.slc.cpg/sg65_30_cif.got.tgz:59133.got - 2010.04.10 20:52:16.
