data_PCOD8265535
_publ_section_title
;
Structure prediction by ZEFSAII (Michael W. Deem and Ramdas Pophale) SiO2 
 PCOD8265535
Probable space group: C M M M
;
_chemical_formula_sum "Si O2"
_cell_formula_units_Z 84
_cell_length_a 11.634408
_cell_length_b 30.412586
_cell_length_c 11.602449
_cell_angle_alpha 90.000000
_cell_angle_beta 90.000000
_cell_angle_gamma 90.000000
_cell_volume 4105.322768
_symmetry_space_group_name_H-M "C M M M"
_symmetry_group_IT_number 65
_symmetry_cell_setting 'orthorhombic'
loop_
_space_group_symop_operation_xyz
x,y,z
-x,-y,z
x,-y,-z
-x,y,-z
-x,-y,-z
x,y,-z
-x,y,z
x,-y,z
1/2+x,1/2+y,z
1/2-x,1/2-y,z
1/2+x,1/2-y,-z
1/2-x,1/2+y,-z
1/2-x,1/2-y,-z
1/2+x,1/2+y,-z
1/2-x,1/2+y,z
1/2+x,1/2-y,z
loop_
_atom_site_type_symbol
_atom_site_label
_atom_site_fract_x
_atom_site_fract_y
_atom_site_fract_z
Si Si1 0.367156 0.188982 0.500000
Si Si2 0.000000 0.330420 0.869476
Si Si3 0.000000 0.580814 0.500000
Si Si4 0.221717 0.702325 0.258183
Si Si5 0.724854 0.049185 0.867590
Si Si6 0.733977 0.905806 0.500000
Si Si7 0.500000 0.919480 0.238665
Si Si8 0.136404 0.884133 0.270639
O O1 0.500000 0.201119 0.500000
O O2 0.306090 0.210354 0.608773
O O3 0.351994 0.136411 0.500000
O O4 0.112386 0.313450 0.809053
O O5 0.000000 0.382473 0.859221
O O6 0.000000 0.314642 0.000000
O O7 0.870965 0.557055 0.500000
O O8 0.000000 0.601836 0.632253
O O9 0.250000 0.750000 0.204629
O O10 0.322477 0.665908 0.247738
O O11 0.614201 0.052135 0.784338
O O12 0.822146 0.084466 0.832295
O O13 0.775771 0.000000 0.853853
O O14 0.690418 0.058368 0.000000
O O15 0.814162 0.905297 0.611484
O O16 0.000000 0.883677 0.278089
#
# Coordination Sequence:
#
# PCOD8265535 Si02
#       8
#     8   8   4  16  16   8   8  16
#     4  10  17  34  63  96 123 159 206 267 323 377
#     4  12  24  41  67  91 125 174 218 270 329 379
#     4  12  18  34  71 102 126 168 202 260 330 392
#     4  11  24  40  64  94 131 168 216 267 323 385
#     4  11  24  43  68  97 129 167 213 269 326 382
#     4  10  19  37  62  94 133 167 209 265 330 386
#     4  12  21  41  69 103 133 160 208 265 336 392
#     4  11  24  41  64  93 130 176 220 264 317 385
#
# _framework density 20.461241000000001
#
# number of rings (size 3 to 8) (size 9 to 14) (size 15 to 20)
#    0.000    0.952    5.238    2.857    1.333    1.905 
#    0.000    3.333    0.000    1.143    0.000    0.000 
#    0.000    0.000    0.000    0.000    0.000    0.000 
#
# Total GULP energy -520333.933220 kJ/mol
# GULP energy per Si atom -12388.903172 kJ/mol
# Density = 2.041467 g / cm^3
# Si number density = 20.461241 Si / 1000 Ang^3
#
#
#
# Elastic Constant Matrix: (Units=GPa)
#
#
# Indices 1 2 3 4 5 6 
#
# 1 176.1950 46.2546 45.3080 0.0000 0.0000 0.0000
# 2 46.2546 105.0048 31.6360 0.0000 0.0000 0.0000
# 3 45.3080 31.6360 112.8448 0.0000 0.0000 0.0000
# 4 0.0000 0.0000 0.0000 20.0708 0.0000 0.0000
# 5 0.0000 0.0000 0.0000 0.0000 58.9097 0.0000
# 6 0.0000 0.0000 0.0000 0.0000 0.0000 35.7700
#
#
#
# Elastic Compliance Matrix: (Units=1/GPa)
#
#
# Indices 1 2 3 4 5 6 
#
# 1 0.006836 -0.002386 -0.002076 0.000000 0.000000 0.000000
# 2 -0.002386 0.011235 -0.002192 0.000000 0.000000 0.000000
# 3 -0.002076 -0.002192 0.010310 0.000000 0.000000 0.000000
# 4 0.000000 0.000000 0.000000 0.049824 0.000000 0.000000
# 5 0.000000 0.000000 0.000000 0.000000 0.016975 0.000000
# 6 0.000000 0.000000 0.000000 0.000000 0.000000 0.027956
#
#
# Mechanical properties :
#
#
# Convention : Reuss Voigt Hill
#
# Bulk Modulus (GPa) = 66.34166 71.16021 68.75094
# Shear Modulus (GPa) = 35.34429 41.00652 38.17541
#
# Velocity S-wave (km/s) = 4.16068 4.48158 4.32411
# Velocity P-wave (km/s) = 7.45488 7.85067 7.65533
#
# Compressibility (1/GPa) = 0.01507348
#
# Stress axis : x y z
#
# Youngs Moduli (GPa) = 146.29325 89.01072 96.99704
#
# Poissons Ratio (x) = 0.21235 0.20134
# Poissons Ratio (y) = 0.34901 0.21259
# Poissons Ratio (z) = 0.30366 0.19509
#
# Static dielectric constant tensor:
#      x y z
#    x 3.628180 0.000000 0.000000 
#    y 0.000000 3.630580 0.000000 
#    z 0.000000 0.000000 3.830060 
# 
# 
# High freq. dielectric constant tensor:
#      x y z
#    x 1.801990 0.000000 0.000000 
#    y 0.000000 1.778320 0.000000 
#    z 0.000000 0.000000 1.811040 
# 
# From -- ./inp_files/23073.got.cif
#   From: 2010.03.12/outbox.cif.g09.slc.cpg/sg65_12_cif.got.tgz:23073.got - 2010.04.10 20:52:16.
