data_PCOD8265301
_publ_section_title
;
Structure prediction by ZEFSAII (Michael W. Deem and Ramdas Pophale) SiO2 
 PCOD8265301
Probable space group: C M M M
;
_chemical_formula_sum "Si O2"
_cell_formula_units_Z 64
_cell_length_a 38.072743
_cell_length_b 17.364713
_cell_length_c 5.192923
_cell_angle_alpha 90.000000
_cell_angle_beta 90.000000
_cell_angle_gamma 90.000000
_cell_volume 3433.156965
_symmetry_space_group_name_H-M "C M M M"
_symmetry_group_IT_number 65
_symmetry_cell_setting 'orthorhombic'
loop_
_space_group_symop_operation_xyz
x,y,z
-x,-y,z
x,-y,-z
-x,y,-z
-x,-y,-z
x,y,-z
-x,y,z
x,-y,z
1/2+x,1/2+y,z
1/2-x,1/2-y,z
1/2+x,1/2-y,-z
1/2-x,1/2+y,-z
1/2-x,1/2-y,-z
1/2+x,1/2+y,-z
1/2-x,1/2+y,z
1/2+x,1/2-y,z
loop_
_atom_site_type_symbol
_atom_site_label
_atom_site_fract_x
_atom_site_fract_y
_atom_site_fract_z
Si Si1 0.420397 0.712781 0.000000
Si Si2 0.415011 0.914611 0.500000
Si Si3 0.822134 0.091346 0.500000
Si Si4 0.958517 0.735369 0.500000
Si Si5 0.635935 0.408790 0.000000
Si Si6 0.798475 0.591509 0.000000
Si Si7 0.876788 0.636966 0.000000
Si Si8 0.256385 0.091221 0.500000
O O1 0.444606 0.720703 0.249872
O O2 0.402568 0.629065 0.000000
O O3 0.389212 0.774958 0.000000
O O4 0.446603 0.853641 0.500000
O O5 0.390627 0.906370 0.251308
O O6 0.431796 0.000000 0.500000
O O7 0.842703 0.120138 0.248670
O O8 0.782887 0.126630 0.500000
O O9 0.819761 0.000000 0.500000
O O10 0.000000 0.736994 0.500000
O O11 0.630250 0.500000 0.000000
O O12 0.834964 0.636482 0.000000
O O13 0.776839 0.619331 0.752073
O O14 0.805196 0.500000 0.000000
O O15 0.253513 0.000000 0.500000
#
# Coordination Sequence:
#
# PCOD8265301 Si02
#       8
#     8   8   8   8   8   8   8   8
#     4  10  21  37  56  78 103 132 167 205 248 307
#     4  10  19  32  51  76 104 134 175 218 245 276
#     4   9  17  30  49  75 101 125 161 211 264 304
#     4  10  21  37  57  79 106 140 166 193 243 300
#     4  10  19  33  57  80  98 125 164 214 259 299
#     4  10  17  26  43  65  93 132 173 209 245 289
#     4  10  20  32  48  71 103 140 174 212 257 294
#     4   9  17  27  42  67  97 129 167 210 252 296
#
# _framework density 18.641734
#
# number of rings (size 3 to 8) (size 9 to 14) (size 15 to 20)
#    0.000    2.250    0.000    3.750    0.000    4.250 
#    0.000    0.000    0.000   11.250    0.000    0.000 
#    0.000    0.000    0.000    0.000    0.000    0.000 
#
# Total GULP energy -396887.713075 kJ/mol
# GULP energy per Si atom -12402.741034 kJ/mol
# Density = 1.859930 g / cm^3
# Si number density = 18.641734 Si / 1000 Ang^3
#
#
#
# Elastic Constant Matrix: (Units=GPa)
#
#
# Indices 1 2 3 4 5 6 
#
# 1 177.1467 49.1443 88.4514 0.0000 0.0000 0.0000
# 2 49.1443 45.2651 32.6010 0.0000 0.0000 0.0000
# 3 88.4514 32.6010 193.3185 0.0000 0.0000 0.0000
# 4 0.0000 0.0000 0.0000 17.4366 0.0000 0.0000
# 5 0.0000 0.0000 0.0000 0.0000 31.1200 0.0000
# 6 0.0000 0.0000 0.0000 0.0000 0.0000 19.1145
#
#
#
# Elastic Compliance Matrix: (Units=1/GPa)
#
#
# Indices 1 2 3 4 5 6 
#
# 1 0.009327 -0.008028 -0.002914 0.000000 0.000000 0.000000
# 2 -0.008028 0.032056 -0.001733 0.000000 0.000000 0.000000
# 3 -0.002914 -0.001733 0.006798 0.000000 0.000000 0.000000
# 4 0.000000 0.000000 0.000000 0.057351 0.000000 0.000000
# 5 0.000000 0.000000 0.000000 0.000000 0.032134 0.000000
# 6 0.000000 0.000000 0.000000 0.000000 0.000000 0.052316
#
#
# Mechanical properties :
#
#
# Convention : Reuss Voigt Hill
#
# Bulk Modulus (GPa) = 43.79732 84.01375 63.90553
# Shear Modulus (GPa) = 22.42747 29.90313 26.16530
#
# Velocity S-wave (km/s) = 3.47231 4.00946 3.75051
# Velocity P-wave (km/s) = 6.29453 8.16087 7.28769
#
# Compressibility (1/GPa) = 0.02283245
#
# Stress axis : x y z
#
# Youngs Moduli (GPa) = 107.21613 31.19553 147.09860
#
# Poissons Ratio (x) = 0.25043 0.42860
# Poissons Ratio (y) = 0.86071 0.25489
# Poissons Ratio (z) = 0.31239 0.05406
#
# Static dielectric constant tensor:
#      x y z
#    x 3.304550 0.000000 0.000000 
#    y 0.000000 3.047540 0.000000 
#    z 0.000000 0.000000 3.745710 
# 
# 
# High freq. dielectric constant tensor:
#      x y z
#    x 1.718690 0.000000 0.000000 
#    y 0.000000 1.687620 0.000000 
#    z 0.000000 0.000000 1.749220 
# 
# From -- ./inp_files/1761.got.cif
#   From: 2010.03.12/outbox.cif.g09.slc.cpg/sg65_1_cif.got.tgz:1761.got - 2010.04.10 20:52:16.
