data_PCOD8265357
_publ_section_title
;
Structure prediction by ZEFSAII (Michael W. Deem and Ramdas Pophale) SiO2 
 PCOD8265357
Probable space group: C M M M
;
_chemical_formula_sum "Si O2"
_cell_formula_units_Z 128
_cell_length_a 16.596914
_cell_length_b 19.302135
_cell_length_c 21.296122
_cell_angle_alpha 90.000000
_cell_angle_beta 90.000000
_cell_angle_gamma 90.000000
_cell_volume 6822.337789
_symmetry_space_group_name_H-M "C M M M"
_symmetry_group_IT_number 65
_symmetry_cell_setting 'orthorhombic'
loop_
_space_group_symop_operation_xyz
x,y,z
-x,-y,z
x,-y,-z
-x,y,-z
-x,-y,-z
x,y,-z
-x,y,z
x,-y,z
1/2+x,1/2+y,z
1/2-x,1/2-y,z
1/2+x,1/2-y,-z
1/2-x,1/2+y,-z
1/2-x,1/2-y,-z
1/2+x,1/2+y,-z
1/2-x,1/2+y,z
1/2+x,1/2-y,z
loop_
_atom_site_type_symbol
_atom_site_label
_atom_site_fract_x
_atom_site_fract_y
_atom_site_fract_z
Si Si1 0.835660 0.217219 0.880253
Si Si2 0.407717 0.846519 0.689111
Si Si3 0.092520 0.654574 0.931535
Si Si4 0.335203 0.716741 0.732288
Si Si5 0.096179 0.421635 0.811146
Si Si6 0.408764 0.423804 0.732007
Si Si7 0.591281 0.576264 0.119033
Si Si8 0.095659 0.421376 0.431255
O O1 0.750000 0.250000 0.899662
O O2 0.901574 0.264208 0.915159
O O3 0.850627 0.221854 0.806195
O O4 0.848681 0.137875 0.904126
O O5 0.500000 0.869569 0.688012
O O6 0.400206 0.764002 0.695885
O O7 0.366771 0.882207 0.750628
O O8 0.367420 0.873522 0.624234
O O9 0.134082 0.610853 0.874987
O O10 0.000000 0.633208 0.935288
O O11 0.132216 0.638520 0.000000
O O12 0.250000 0.750000 0.713090
O O13 0.348509 0.637547 0.708525
O O14 0.125731 0.500000 0.807050
O O15 0.000000 0.414801 0.812309
O O16 0.500000 0.408360 0.708794
O O17 0.380798 0.500000 0.706744
O O18 0.407879 0.425357 0.806456
O O19 0.500000 0.591361 0.095757
O O20 0.619377 0.500000 0.093874
O O21 0.129263 0.398299 0.500000
O O22 0.121612 0.500000 0.417018
O O23 0.000000 0.415121 0.432780
#
# Coordination Sequence:
#
# PCOD8265357 Si02
#       8
#    16  16  16  16  16  16  16  16
#     4  10  19  31  47  66  95 121 150 191 248 302
#     4  10  17  27  47  70  93 124 159 197 238 283
#     4  10  20  33  49  67  87 118 161 203 241 286
#     4  10  19  29  43  66 100 125 150 192 247 300
#     4   9  17  29  45  66  90 117 153 193 229 269
#     4   8  14  26  44  64  86 118 160 199 234 276
#     4   8  14  26  47  70  88 113 151 193 235 282
#     4   8  14  25  42  67  99 130 159 192 228 271
#
# _framework density 18.761897000000001
#
# number of rings (size 3 to 8) (size 9 to 14) (size 15 to 20)
#    0.000    2.875    1.250    2.250    0.000    3.000 
#    0.000    3.125    0.000    0.750    0.000    1.750 
#    0.000    0.500    0.000    4.625    0.000    0.125 
#
# Total GULP energy -792850.519630 kJ/mol
# GULP energy per Si atom -12388.289369 kJ/mol
# Density = 1.871919 g / cm^3
# Si number density = 18.761897 Si / 1000 Ang^3
#
#
#
# Elastic Constant Matrix: (Units=GPa)
#
#
# Indices 1 2 3 4 5 6 
#
# 1 37.1783 38.0490 12.3391 0.0000 0.0000 0.0000
# 2 38.0490 168.0606 53.3129 0.0000 0.0000 0.0000
# 3 12.3391 53.3129 100.9334 0.0000 0.0000 0.0000
# 4 0.0000 0.0000 0.0000 12.1692 0.0000 0.0000
# 5 0.0000 0.0000 0.0000 0.0000 6.6491 0.0000
# 6 0.0000 0.0000 0.0000 0.0000 0.0000 23.0293
#
#
#
# Elastic Compliance Matrix: (Units=1/GPa)
#
#
# Indices 1 2 3 4 5 6 
#
# 1 0.035010 -0.007891 -0.000112 0.000000 0.000000 0.000000
# 2 -0.007891 0.008926 -0.003750 0.000000 0.000000 0.000000
# 3 -0.000112 -0.003750 0.011902 0.000000 0.000000 0.000000
# 4 0.000000 0.000000 0.000000 0.082175 0.000000 0.000000
# 5 0.000000 0.000000 0.000000 0.000000 0.150396 0.000000
# 6 0.000000 0.000000 0.000000 0.000000 0.000000 0.043423
#
#
# Mechanical properties :
#
#
# Convention : Reuss Voigt Hill
#
# Bulk Modulus (GPa) = 30.92869 57.06383 43.99626
# Shear Modulus (GPa) = 13.65686 21.86760 17.76223
#
# Velocity S-wave (km/s) = 2.70090 3.41769 3.08022
# Velocity P-wave (km/s) = 5.12319 6.78638 6.01257
#
# Compressibility (1/GPa) = 0.03233244
#
# Stress axis : x y z
#
# Youngs Moduli (GPa) = 28.56309 112.02746 84.01869
#
# Poissons Ratio (x) = 0.88398 0.00942
# Poissons Ratio (y) = 0.22538 0.31509
# Poissons Ratio (z) = 0.00320 0.42013
#
# Static dielectric constant tensor:
#      x y z
#    x 3.054470 0.000000 0.000000 
#    y 0.000000 3.807510 0.000000 
#    z 0.000000 0.000000 3.467410 
# 
# 
# High freq. dielectric constant tensor:
#      x y z
#    x 1.682810 0.000000 0.000000 
#    y 0.000000 1.738280 0.000000 
#    z 0.000000 0.000000 1.686560 
# 
# From -- ./inp_files/64892.got.cif
#   From: 2010.03.12/outbox.cif.g09.slc.cpg/sg65_33_cif.got.tgz:64892.got - 2010.04.10 20:52:16.
