data_PCOD8265531
_publ_section_title
;
Structure prediction by ZEFSAII (Michael W. Deem and Ramdas Pophale) SiO2 
 PCOD8265531
Probable space group: C M M M
;
_chemical_formula_sum "Si O2"
_cell_formula_units_Z 90
_cell_length_a 22.776533
_cell_length_b 8.715373
_cell_length_c 22.482302
_cell_angle_alpha 90.000000
_cell_angle_beta 90.000000
_cell_angle_gamma 90.000000
_cell_volume 4462.871408
_symmetry_space_group_name_H-M "C M M M"
_symmetry_group_IT_number 65
_symmetry_cell_setting 'orthorhombic'
loop_
_space_group_symop_operation_xyz
x,y,z
-x,-y,z
x,-y,-z
-x,y,-z
-x,-y,-z
x,y,-z
-x,y,z
x,-y,z
1/2+x,1/2+y,z
1/2-x,1/2-y,z
1/2+x,1/2-y,-z
1/2-x,1/2+y,-z
1/2-x,1/2-y,-z
1/2+x,1/2+y,-z
1/2-x,1/2+y,z
1/2+x,1/2-y,z
loop_
_atom_site_type_symbol
_atom_site_label
_atom_site_fract_x
_atom_site_fract_y
_atom_site_fract_z
Si Si1 0.686600 0.318026 0.603989
Si Si2 0.500000 0.000000 0.500000
Si Si3 0.380025 0.821556 0.289831
Si Si4 0.382979 0.182669 0.933936
Si Si5 0.881364 0.666255 0.500000
Si Si6 0.000000 0.818323 0.738207
Si Si7 0.500000 0.818392 0.131317
Si Si8 0.809993 0.323670 0.173266
O O1 0.690642 0.500000 0.602653
O O2 0.750000 0.250000 0.587499
O O3 0.667329 0.262540 0.669168
O O4 0.637592 0.260704 0.558077
O O5 0.451622 0.138672 0.500000
O O6 0.443965 0.747451 0.296997
O O7 0.360440 0.797706 0.221830
O O8 0.383232 0.000000 0.307640
O O9 0.444987 0.235432 0.907646
O O10 0.332330 0.245514 0.889743
O O11 0.381607 0.000000 0.936357
O O12 0.373685 0.252022 0.000000
O O13 0.848539 0.500000 0.500000
O O14 0.000000 0.766993 0.806237
O O15 0.000000 0.000000 0.734057
O O16 0.500000 0.000000 0.144685
O O17 0.796337 0.500000 0.164776
O O18 0.750000 0.250000 0.194902
#
# Coordination Sequence:
#
# PCOD8265531 Si02
#       8
#    16   2  16  16   8   8   8  16
#     4  12  25  43  69 105 142 180 228 279 331 391
#     4   8  24  44  78 100 140 184 234 270 330 396
#     4  11  23  42  64  91 125 168 218 268 323 385
#     4   9  17  31  55  84 110 144 196 253 309 376
#     4  10  22  46  72 102 137 186 230 273 327 382
#     4  12  24  38  60  91 124 163 204 260 323 400
#     4  10  17  34  59  83 111 147 197 250 310 381
#     4  10  21  36  56  81 114 155 201 255 313 373
#
# _framework density 20.16639
#
# number of rings (size 3 to 8) (size 9 to 14) (size 15 to 20)
#    0.267    1.244    1.778    4.267    0.000    4.978 
#    0.000    1.778    0.000    2.133    0.000    0.000 
#    0.000    0.000    0.000    0.000    0.000    0.000 
#
# Total GULP energy -557521.097559 kJ/mol
# GULP energy per Si atom -12389.357724 kJ/mol
# Density = 2.012049 g / cm^3
# Si number density = 20.166390 Si / 1000 Ang^3
#
#
#
# Elastic Constant Matrix: (Units=GPa)
#
#
# Indices 1 2 3 4 5 6 
#
# 1 137.8656 52.6170 28.3742 0.0000 0.0000 0.0000
# 2 52.6170 117.7074 41.7997 0.0000 0.0000 0.0000
# 3 28.3742 41.7997 86.4500 0.0000 0.0000 0.0000
# 4 0.0000 0.0000 0.0000 23.1068 0.0000 0.0000
# 5 0.0000 0.0000 0.0000 0.0000 24.1844 0.0000
# 6 0.0000 0.0000 0.0000 0.0000 0.0000 30.4140
#
#
#
# Elastic Compliance Matrix: (Units=1/GPa)
#
#
# Indices 1 2 3 4 5 6 
#
# 1 0.008847 -0.003530 -0.001197 0.000000 0.000000 0.000000
# 2 -0.003530 0.011665 -0.004482 0.000000 0.000000 0.000000
# 3 -0.001197 -0.004482 0.014127 0.000000 0.000000 0.000000
# 4 0.000000 0.000000 0.000000 0.043277 0.000000 0.000000
# 5 0.000000 0.000000 0.000000 0.000000 0.041349 0.000000
# 6 0.000000 0.000000 0.000000 0.000000 0.000000 0.032880
#
#
# Mechanical properties :
#
#
# Convention : Reuss Voigt Hill
#
# Bulk Modulus (GPa) = 61.64334 65.28942 63.46638
# Shear Modulus (GPa) = 28.41408 30.15652 29.28530
#
# Velocity S-wave (km/s) = 3.75771 3.87122 3.81489
# Velocity P-wave (km/s) = 7.03285 7.24068 7.13752
#
# Compressibility (1/GPa) = 0.01622235
#
# Stress axis : x y z
#
# Youngs Moduli (GPa) = 113.03394 85.72702 70.78534
#
# Poissons Ratio (x) = 0.30258 0.08474
# Poissons Ratio (y) = 0.39896 0.31724
# Poissons Ratio (z) = 0.13531 0.38420
#
# Static dielectric constant tensor:
#      x y z
#    x 3.740880 0.000000 0.000000 
#    y 0.000000 3.487230 0.000000 
#    z 0.000000 0.000000 3.780910 
# 
# 
# High freq. dielectric constant tensor:
#      x y z
#    x 1.798380 0.000000 0.000000 
#    y 0.000000 1.770050 0.000000 
#    z 0.000000 0.000000 1.787830 
# 
# From -- ./inp_files/65313.got.cif
#   From: 2010.03.12/outbox.cif.g09.slc.cpg/sg65_33_cif.got.tgz:65313.got - 2010.04.10 20:52:16.
