data_PCOD8265161
_publ_section_title
;
Structure prediction by ZEFSAII (Michael W. Deem and Ramdas Pophale) SiO2 
 PCOD8265161
Probable space group: C M M M
;
_chemical_formula_sum "Si O2"
_cell_formula_units_Z 72
_cell_length_a 27.754302
_cell_length_b 19.664486
_cell_length_c 8.298377
_cell_angle_alpha 90.000000
_cell_angle_beta 90.000000
_cell_angle_gamma 90.000000
_cell_volume 4529.039099
_symmetry_space_group_name_H-M "C M M M"
_symmetry_group_IT_number 65
_symmetry_cell_setting 'orthorhombic'
loop_
_space_group_symop_operation_xyz
x,y,z
-x,-y,z
x,-y,-z
-x,y,-z
-x,-y,-z
x,y,-z
-x,y,z
x,-y,z
1/2+x,1/2+y,z
1/2-x,1/2-y,z
1/2+x,1/2-y,-z
1/2-x,1/2+y,-z
1/2-x,1/2-y,-z
1/2+x,1/2+y,-z
1/2-x,1/2+y,z
1/2+x,1/2-y,z
loop_
_atom_site_type_symbol
_atom_site_label
_atom_site_fract_x
_atom_site_fract_y
_atom_site_fract_z
Si Si1 0.838990 0.500000 0.317754
Si Si2 0.236769 0.000000 0.815317
Si Si3 0.600410 0.120410 0.188715
Si Si4 0.500000 0.921144 0.690905
Si Si5 0.772939 0.853527 0.192401
Si Si6 0.821330 0.278045 0.189240
O O1 0.819472 0.500000 0.500000
O O2 0.794694 0.500000 0.195119
O O3 0.872609 0.435582 0.291681
O O4 0.216868 0.929529 0.735277
O O5 0.221444 0.000000 0.000000
O O6 0.544977 0.120670 0.239565
O O7 0.625732 0.192916 0.232689
O O8 0.605595 0.104300 0.000000
O O9 0.500000 0.918415 0.500000
O O10 0.500000 0.000000 0.750420
O O11 0.813458 0.799448 0.253921
O O12 0.720668 0.827879 0.256227
O O13 0.772046 0.859312 0.000000
O O14 0.813834 0.274566 0.000000
#
# Coordination Sequence:
#
# PCOD8265161 Si02
#       6
#     8   8  16   8  16  16
#     4  12  22  29  39  60  90 118 142 181 224 247
#     4  10  16  26  45  65  84 115 155 178 202 253
#     4  11  20  32  49  63  79 112 154 183 206 252
#     4  11  23  35  45  63  90 113 134 177 227 252
#     4   8  13  22  39  65  89 109 137 178 213 242
#     4   8  14  24  40  63  88 108 137 180 216 239
#
# _framework density 15.897411
#
# number of rings (size 3 to 8) (size 9 to 14) (size 15 to 20)
#    0.000    2.333    3.333    3.333    0.000    0.444 
#    0.000    0.000    0.000    4.000    0.000    0.000 
#    0.000    0.889    0.000   11.333    0.000    1.111 
#
# Total GULP energy -445979.782121 kJ/mol
# GULP energy per Si atom -12388.327281 kJ/mol
# Density = 1.586123 g / cm^3
# Si number density = 15.897411 Si / 1000 Ang^3
#
#
#
# Elastic Constant Matrix: (Units=GPa)
#
#
# Indices 1 2 3 4 5 6 
#
# 1 88.6244 63.8228 8.1030 0.0000 0.0000 0.0000
# 2 63.8228 163.1818 11.6620 0.0000 0.0000 0.0000
# 3 8.1030 11.6620 27.7151 0.0000 0.0000 0.0000
# 4 0.0000 0.0000 0.0000 0.6493 0.0000 0.0000
# 5 0.0000 0.0000 0.0000 0.0000 7.0372 0.0000
# 6 0.0000 0.0000 0.0000 0.0000 0.0000 10.7698
#
#
#
# Elastic Compliance Matrix: (Units=1/GPa)
#
#
# Indices 1 2 3 4 5 6 
#
# 1 0.015824 -0.006040 -0.002085 0.000000 0.000000 0.000000
# 2 -0.006040 0.008624 -0.001863 0.000000 0.000000 0.000000
# 3 -0.002085 -0.001863 0.037475 0.000000 0.000000 0.000000
# 4 0.000000 0.000000 0.000000 1.540137 0.000000 0.000000
# 5 0.000000 0.000000 0.000000 0.000000 0.142103 0.000000
# 6 0.000000 0.000000 0.000000 0.000000 0.000000 0.092852
#
#
# Mechanical properties :
#
#
# Convention : Reuss Voigt Hill
#
# Bulk Modulus (GPa) = 23.83960 49.63298 36.73629
# Shear Modulus (GPa) = 2.67241 16.75349 9.71295
#
# Velocity S-wave (km/s) = 1.29795 3.24983 2.47448
# Velocity P-wave (km/s) = 4.15628 6.73576 5.59666
#
# Compressibility (1/GPa) = 0.04194700
#
# Stress axis : x y z
#
# Youngs Moduli (GPa) = 63.19572 115.96131 26.68467
#
# Poissons Ratio (x) = 0.70040 0.05563
# Poissons Ratio (y) = 0.38170 0.04971
# Poissons Ratio (z) = 0.13175 0.21601
#
# Static dielectric constant tensor:
#      x y z
#    x 2.906630 0.000000 0.000000 
#    y 0.000000 3.709600 0.000000 
#    z 0.000000 0.000000 2.698500 
# 
# 
# High freq. dielectric constant tensor:
#      x y z
#    x 1.572060 0.000000 0.000000 
#    y 0.000000 1.609070 0.000000 
#    z 0.000000 0.000000 1.583500 
# 
# From -- ./inp_files/12059.got.cif
#   From: 2010.03.12/outbox.cif.g09.slc.cpg/sg65_7_cif.got.tgz:12059.got - 2010.04.10 20:52:16.
