data_PCOD8265069
_publ_section_title
;
Structure prediction by ZEFSAII (Michael W. Deem and Ramdas Pophale) SiO2 
 PCOD8265069
Probable space group: C M M M
;
_chemical_formula_sum "Si O2"
_cell_formula_units_Z 88
_cell_length_a 19.320739
_cell_length_b 8.575905
_cell_length_c 28.890559
_cell_angle_alpha 90.000000
_cell_angle_beta 90.000000
_cell_angle_gamma 90.000000
_cell_volume 4786.958255
_symmetry_space_group_name_H-M "C M M M"
_symmetry_group_IT_number 65
_symmetry_cell_setting 'orthorhombic'
loop_
_space_group_symop_operation_xyz
x,y,z
-x,-y,z
x,-y,-z
-x,y,-z
-x,-y,-z
x,y,-z
-x,y,z
x,-y,z
1/2+x,1/2+y,z
1/2-x,1/2-y,z
1/2+x,1/2-y,-z
1/2-x,1/2+y,-z
1/2-x,1/2-y,-z
1/2+x,1/2+y,-z
1/2-x,1/2+y,z
1/2+x,1/2-y,z
loop_
_atom_site_type_symbol
_atom_site_label
_atom_site_fract_x
_atom_site_fract_y
_atom_site_fract_z
Si Si1 0.172924 0.315909 0.221268
Si Si2 0.827449 0.315354 0.593032
Si Si3 0.327465 0.684704 0.500000
Si Si4 0.825218 0.181400 0.127988
Si Si5 0.920069 0.320870 0.053212
Si Si6 0.327429 0.684414 0.313988
O O1 0.172314 0.500000 0.226639
O O2 0.250000 0.250000 0.218014
O O3 0.138275 0.262766 0.172920
O O4 0.134970 0.241712 0.266623
O O5 0.827317 0.500000 0.591590
O O6 0.750000 0.250000 0.594002
O O7 0.865024 0.248639 0.546674
O O8 0.864972 0.254332 0.640023
O O9 0.327365 0.500000 0.500000
O O10 0.250000 0.750000 0.500000
O O11 0.750000 0.250000 0.116706
O O12 0.874013 0.207723 0.084164
O O13 0.817169 0.000000 0.138430
O O14 0.902902 0.500000 0.065100
O O15 0.000000 0.284788 0.063242
O O16 0.902325 0.285450 0.000000
O O17 0.327090 0.500000 0.317186
O O18 0.250000 0.750000 0.311814
#
# Coordination Sequence:
#
# PCOD8265069 Si02
#       6
#    16  16   8  16  16  16
#     4  10  17  27  41  58  81 108 138 174 218 266
#     4  10  16  22  29  39  54  77 110 150 197 248
#     4  10  16  22  28  36  50  72 104 148 199 246
#     4  11  21  33  50  73 100 128 159 196 237 280
#     4   9  19  37  58  77  99 128 160 194 234 280
#     4  10  16  23  33  47  66  90 121 158 203 255
#
# _framework density 18.383279999999999
#
# number of rings (size 3 to 8) (size 9 to 14) (size 15 to 20)
#    0.000    2.000    0.000   12.273    0.000    1.091 
#    0.000    0.909    0.000    0.000    0.000    0.000 
#    0.000    0.000    0.000    0.000    0.000    0.000 
#
# Total GULP energy -545288.321267 kJ/mol
# GULP energy per Si atom -12392.916392 kJ/mol
# Density = 1.834144 g / cm^3
# Si number density = 18.383280 Si / 1000 Ang^3
#
#
#
# Elastic Constant Matrix: (Units=GPa)
#
#
# Indices 1 2 3 4 5 6 
#
# 1 20.4747 15.7129 31.7677 0.0000 0.0000 0.0000
# 2 15.7129 172.9504 60.7409 0.0000 0.0000 0.0000
# 3 31.7677 60.7409 167.6569 0.0000 0.0000 0.0000
# 4 0.0000 0.0000 0.0000 36.6897 0.0000 0.0000
# 5 0.0000 0.0000 0.0000 0.0000 -0.7456 0.0000
# 6 0.0000 0.0000 0.0000 0.0000 0.0000 11.7019
#
#
#
# Elastic Compliance Matrix: (Units=1/GPa)
#
#
# Indices 1 2 3 4 5 6 
#
# 1 0.069743 -0.001942 -0.012511 0.000000 0.000000 0.000000
# 2 -0.001942 0.006679 -0.002052 0.000000 0.000000 0.000000
# 3 -0.012511 -0.002052 0.009079 0.000000 0.000000 0.000000
# 4 0.000000 0.000000 0.000000 0.027256 0.000000 0.000000
# 5 0.000000 0.000000 0.000000 0.000000 -1.341288 0.000000
# 6 0.000000 0.000000 0.000000 0.000000 0.000000 0.085456
#
#
# Mechanical properties :
#
#
# Convention : Reuss Voigt Hill
#
# Bulk Modulus (GPa) = 19.05115 64.16944 41.61029
# Shear Modulus (GPa) = -4.57638 26.38656 10.90509
#
# Velocity S-wave (km/s) = -1.57950 3.79272 2.43823
# Velocity P-wave (km/s) = 2.65695 7.35947 5.53268
#
# Compressibility (1/GPa) = 0.05249028
#
# Stress axis : x y z
#
# Youngs Moduli (GPa) = 14.33826 149.72190 110.14982
#
# Poissons Ratio (x) = 0.29081 1.37812
# Poissons Ratio (y) = 0.02785 0.22600
# Poissons Ratio (z) = 0.17939 0.30719
#
# Static dielectric constant tensor:
#      x y z
#    x 2.564490 0.000000 0.000000 
#    y 0.000000 3.416680 0.000000 
#    z 0.000000 0.000000 5.392770 
# 
# 
# High freq. dielectric constant tensor:
#      x y z
#    x 1.604460 0.000000 0.000000 
#    y 0.000000 1.732410 0.000000 
#    z 0.000000 0.000000 1.754770 
# 
# From -- ./inp_files/78139.got.cif
#   From: 2010.03.12/outbox.cif.g09.slc.cpg/sg65_40_cif.got.tgz:78139.got - 2010.04.10 20:52:16.
