data_PCOD8265792
_publ_section_title
;
Structure prediction by ZEFSAII (Michael W. Deem and Ramdas Pophale) SiO2 
 PCOD8265792
Probable space group: C M M M
;
_chemical_formula_sum "Si O2"
_cell_formula_units_Z 96
_cell_length_a 26.286692
_cell_length_b 9.723462
_cell_length_c 22.589920
_cell_angle_alpha 90.000000
_cell_angle_beta 90.000000
_cell_angle_gamma 90.000000
_cell_volume 5773.930483
_symmetry_space_group_name_H-M "C M M M"
_symmetry_group_IT_number 65
_symmetry_cell_setting 'orthorhombic'
loop_
_space_group_symop_operation_xyz
x,y,z
-x,-y,z
x,-y,-z
-x,y,-z
-x,-y,-z
x,y,-z
-x,y,z
x,-y,z
1/2+x,1/2+y,z
1/2-x,1/2-y,z
1/2+x,1/2-y,-z
1/2-x,1/2+y,-z
1/2-x,1/2-y,-z
1/2+x,1/2+y,-z
1/2-x,1/2+y,z
1/2+x,1/2-y,z
loop_
_atom_site_type_symbol
_atom_site_label
_atom_site_fract_x
_atom_site_fract_y
_atom_site_fract_z
Si Si1 0.560312 0.752963 0.355809
Si Si2 0.400724 0.840472 0.233070
Si Si3 0.203348 0.661059 0.831897
Si Si4 0.060151 0.500000 0.435015
Si Si5 0.939778 0.000000 0.566747
Si Si6 0.343330 0.657896 0.931926
Si Si7 0.056549 0.154939 0.133662
O O1 0.500000 0.754312 0.342426
O O2 0.590879 0.763211 0.294829
O O3 0.579066 0.872195 0.398208
O O4 0.578946 0.624914 0.393629
O O5 0.341865 0.826486 0.215341
O O6 0.435796 0.765052 0.185387
O O7 0.417554 0.000000 0.237186
O O8 0.217076 0.500000 0.842839
O O9 0.250000 0.750000 0.805295
O O10 0.188951 0.733734 0.893919
O O11 0.085463 0.500000 0.500000
O O12 0.000000 0.500000 0.442067
O O13 0.916183 0.000000 0.500000
O O14 0.000000 0.000000 0.559728
O O15 0.327233 0.500000 0.917302
O O16 0.403210 0.679045 0.918819
O O17 0.333239 0.692955 0.000000
O O18 0.000000 0.175461 0.107234
O O19 0.062838 0.000000 0.159673
#
# Coordination Sequence:
#
# PCOD8265792 Si02
#       7
#    16  16  16   8   8  16  16
#     4  10  18  28  44  67  97 132 165 196 228 268
#     4  10  20  33  48  69  96 124 160 201 241 287
#     4  10  21  37  55  73  95 121 151 196 250 297
#     4   9  16  26  42  64  93 131 166 193 225 265
#     4   9  18  30  42  62  97 137 170 197 227 263
#     4   9  18  33  52  74  99 127 160 195 233 282
#     4   9  18  30  46  69  98 132 165 198 233 270
#
# _framework density 16.626455
#
# number of rings (size 3 to 8) (size 9 to 14) (size 15 to 20)
#    0.000    2.500    0.833    1.500    1.167    4.667 
#    0.000    1.667    0.000    0.000    0.000    4.667 
#    0.000    4.000    0.000    0.000    0.000    0.000 
#
# Total GULP energy -594933.434819 kJ/mol
# GULP energy per Si atom -12394.446559 kJ/mol
# Density = 1.658861 g / cm^3
# Si number density = 16.626455 Si / 1000 Ang^3
#
#
#
# Elastic Constant Matrix: (Units=GPa)
#
#
# Indices 1 2 3 4 5 6 
#
# 1 58.1599 29.0102 18.4845 0.0000 0.0000 0.0000
# 2 29.0102 122.6858 48.0278 0.0000 0.0000 0.0000
# 3 18.4845 48.0278 105.1751 0.0000 0.0000 0.0000
# 4 0.0000 0.0000 0.0000 36.7996 0.0000 0.0000
# 5 0.0000 0.0000 0.0000 0.0000 14.9169 0.0000
# 6 0.0000 0.0000 0.0000 0.0000 0.0000 22.2327
#
#
#
# Elastic Compliance Matrix: (Units=1/GPa)
#
#
# Indices 1 2 3 4 5 6 
#
# 1 0.019719 -0.004026 -0.001627 0.000000 0.000000 0.000000
# 2 -0.004026 0.010747 -0.004200 0.000000 0.000000 0.000000
# 3 -0.001627 -0.004200 0.011712 0.000000 0.000000 0.000000
# 4 0.000000 0.000000 0.000000 0.027174 0.000000 0.000000
# 5 0.000000 0.000000 0.000000 0.000000 0.067038 0.000000
# 6 0.000000 0.000000 0.000000 0.000000 0.000000 0.044979
#
#
# Mechanical properties :
#
#
# Convention : Reuss Voigt Hill
#
# Bulk Modulus (GPa) = 44.50002 53.00733 48.75367
# Shear Modulus (GPa) = 23.97324 27.48974 25.73149
#
# Velocity S-wave (km/s) = 3.80132 4.07058 3.93825
# Velocity P-wave (km/s) = 6.78892 7.35142 7.07576
#
# Compressibility (1/GPa) = 0.02247190
#
# Stress axis : x y z
#
# Youngs Moduli (GPa) = 50.71195 93.04900 85.38325
#
# Poissons Ratio (x) = 0.37459 0.13894
# Poissons Ratio (y) = 0.20415 0.35862
# Poissons Ratio (z) = 0.08252 0.39081
#
# Static dielectric constant tensor:
#      x y z
#    x 2.924920 0.000000 0.000000 
#    y 0.000000 3.465030 0.000000 
#    z 0.000000 0.000000 3.108990 
# 
# 
# High freq. dielectric constant tensor:
#      x y z
#    x 1.606550 0.000000 0.000000 
#    y 0.000000 1.657000 0.000000 
#    z 0.000000 0.000000 1.634380 
# 
# From -- ./inp_files/71450.got.cif
#   From: 2010.03.12/outbox.cif.g09.slc.cpg/sg65_36_cif.got.tgz:71450.got - 2010.04.10 20:52:16.
