data_PCOD8265262
_publ_section_title
;
Structure prediction by ZEFSAII (Michael W. Deem and Ramdas Pophale) SiO2 
 PCOD8265262
Probable space group: C M M M
;
_chemical_formula_sum "Si O2"
_cell_formula_units_Z 88
_cell_length_a 8.672864
_cell_length_b 28.229915
_cell_length_c 23.669318
_cell_angle_alpha 90.000000
_cell_angle_beta 90.000000
_cell_angle_gamma 90.000000
_cell_volume 5795.058857
_symmetry_space_group_name_H-M "C M M M"
_symmetry_group_IT_number 65
_symmetry_cell_setting 'orthorhombic'
loop_
_space_group_symop_operation_xyz
x,y,z
-x,-y,z
x,-y,-z
-x,y,-z
-x,-y,-z
x,y,-z
-x,y,z
x,-y,z
1/2+x,1/2+y,z
1/2-x,1/2-y,z
1/2+x,1/2-y,-z
1/2-x,1/2+y,-z
1/2-x,1/2-y,-z
1/2+x,1/2+y,-z
1/2-x,1/2+y,z
1/2+x,1/2-y,z
loop_
_atom_site_type_symbol
_atom_site_label
_atom_site_fract_x
_atom_site_fract_y
_atom_site_fract_z
Si Si1 0.681628 0.698067 0.786339
Si Si2 0.678978 0.446358 0.934946
Si Si3 0.682284 0.802586 0.328157
Si Si4 0.681721 0.801746 0.000000
Si Si5 0.179811 0.801850 0.438770
Si Si6 0.180528 0.356621 0.111108
O O1 0.500000 0.703155 0.780666
O O2 0.750000 0.750000 0.798170
O O3 0.749569 0.674380 0.728914
O O4 0.724020 0.663179 0.836669
O O5 0.500000 0.433569 0.927491
O O6 0.711041 0.500000 0.914986
O O7 0.781797 0.412073 0.896234
O O8 0.728771 0.440385 0.000000
O O9 0.500000 0.802552 0.324803
O O10 0.750000 0.750000 0.330808
O O11 0.738644 0.829190 0.385935
O O12 0.750000 0.750000 0.000000
O O13 0.739204 0.829400 0.944692
O O14 0.500000 0.797959 0.000000
O O15 0.207594 0.827423 0.500000
O O16 0.250000 0.750000 0.443223
O O17 0.000000 0.797704 0.425403
O O18 0.000000 0.349330 0.122072
#
# Coordination Sequence:
#
# PCOD8265262 Si02
#       6
#    16  16  16   8  16  16
#     4  11  21  33  46  61  82 112 146 181 217 256
#     4   9  18  33  52  72  91 111 136 167 208 257
#     4  10  17  26  39  54  74 102 136 175 213 251
#     4  10  22  34  45  62  85 111 138 173 211 252
#     4   9  15  22  33  50  72  98 130 170 212 250
#     4  11  21  34  48  67  88 111 142 174 215 259
#
# _framework density 15.185351000000001
#
# number of rings (size 3 to 8) (size 9 to 14) (size 15 to 20)
#    0.000    2.000    0.909    7.636    0.000    4.364 
#    0.000    0.909    0.000    0.000    0.000    0.000 
#    0.000    0.000    0.000    0.000    0.000    0.909 
#
# Total GULP energy -545372.972565 kJ/mol
# GULP energy per Si atom -12394.840286 kJ/mol
# Density = 1.515079 g / cm^3
# Si number density = 15.185351 Si / 1000 Ang^3
#
#
#
# Elastic Constant Matrix: (Units=GPa)
#
#
# Indices 1 2 3 4 5 6 
#
# 1 105.1969 21.5469 52.5404 0.0000 0.0000 0.0000
# 2 21.5469 53.7540 32.1809 0.0000 0.0000 0.0000
# 3 52.5404 32.1809 135.9028 0.0000 0.0000 0.0000
# 4 0.0000 0.0000 0.0000 2.5439 0.0000 0.0000
# 5 0.0000 0.0000 0.0000 0.0000 26.2863 0.0000
# 6 0.0000 0.0000 0.0000 0.0000 0.0000 18.8692
#
#
#
# Elastic Compliance Matrix: (Units=1/GPa)
#
#
# Indices 1 2 3 4 5 6 
#
# 1 0.012036 -0.002376 -0.004090 0.000000 0.000000 0.000000
# 2 -0.002376 0.022145 -0.004325 0.000000 0.000000 0.000000
# 3 -0.004090 -0.004325 0.009964 0.000000 0.000000 0.000000
# 4 0.000000 0.000000 0.000000 0.393098 0.000000 0.000000
# 5 0.000000 0.000000 0.000000 0.000000 0.038043 0.000000
# 6 0.000000 0.000000 0.000000 0.000000 0.000000 0.052996
#
#
# Mechanical properties :
#
#
# Convention : Reuss Voigt Hill
#
# Bulk Modulus (GPa) = 44.32322 56.37667 50.34995
# Shear Modulus (GPa) = 8.97047 22.11225 15.54136
#
# Velocity S-wave (km/s) = 2.43313 3.82010 3.20260
# Velocity P-wave (km/s) = 6.09467 7.52754 6.84868
#
# Compressibility (1/GPa) = 0.02256154
#
# Stress axis : x y z
#
# Youngs Moduli (GPa) = 83.08740 45.15704 100.36324
#
# Poissons Ratio (x) = 0.10727 0.41053
# Poissons Ratio (y) = 0.19737 0.43411
# Poissons Ratio (z) = 0.33987 0.19532
#
# Static dielectric constant tensor:
#      x y z
#    x 3.052900 0.000000 0.000000 
#    y 0.000000 2.462810 0.000000 
#    z 0.000000 0.000000 3.824020 
# 
# 
# High freq. dielectric constant tensor:
#      x y z
#    x 1.599330 0.000000 0.000000 
#    y 0.000000 1.513870 0.000000 
#    z 0.000000 0.000000 1.594560 
# 
# From -- ./inp_files/68432.got.cif
#   From: 2010.03.12/outbox.cif.g09.slc.cpg/sg65_35_cif.got.tgz:68432.got - 2010.04.10 20:52:16.
