data_PCOD8265728
_publ_section_title
;
Structure prediction by ZEFSAII (Michael W. Deem and Ramdas Pophale) SiO2 
 PCOD8265728
Probable space group: C M M M
;
_chemical_formula_sum "Si O2"
_cell_formula_units_Z 96
_cell_length_a 14.157175
_cell_length_b 24.505407
_cell_length_c 16.524150
_cell_angle_alpha 90.000000
_cell_angle_beta 90.000000
_cell_angle_gamma 90.000000
_cell_volume 5732.679328
_symmetry_space_group_name_H-M "C M M M"
_symmetry_group_IT_number 65
_symmetry_cell_setting 'orthorhombic'
loop_
_space_group_symop_operation_xyz
x,y,z
-x,-y,z
x,-y,-z
-x,y,-z
-x,-y,-z
x,y,-z
-x,y,z
x,-y,z
1/2+x,1/2+y,z
1/2-x,1/2-y,z
1/2+x,1/2-y,-z
1/2-x,1/2+y,-z
1/2-x,1/2-y,-z
1/2+x,1/2+y,-z
1/2-x,1/2+y,z
1/2+x,1/2-y,z
loop_
_atom_site_type_symbol
_atom_site_label
_atom_site_fract_x
_atom_site_fract_y
_atom_site_fract_z
Si Si1 0.614396 0.642777 0.000000
Si Si2 0.388972 0.561619 0.697388
Si Si3 0.104929 0.674285 0.839697
Si Si4 0.889053 0.265623 0.000000
Si Si5 0.699105 0.625201 0.831774
Si Si6 0.851830 0.228898 0.733025
Si Si7 0.893420 0.842960 0.588000
O O1 0.661012 0.614259 0.078034
O O2 0.500000 0.637359 0.000000
O O3 0.652750 0.704956 0.000000
O O4 0.500000 0.571715 0.712555
O O5 0.368937 0.500000 0.668519
O O6 0.333489 0.572796 0.780664
O O7 0.346978 0.603787 0.630602
O O8 0.186330 0.629794 0.821704
O O9 0.091205 0.720336 0.770458
O O10 0.000000 0.647433 0.851076
O O11 0.144776 0.702608 0.920713
O O12 0.000000 0.260439 0.000000
O O13 0.648072 0.679579 0.797471
O O14 0.750000 0.250000 0.711814
O O15 0.892693 0.209480 0.646962
O O16 0.844525 0.831269 0.500000
O O17 0.000000 0.858927 0.570522
#
# Coordination Sequence:
#
# PCOD8265728 Si02
#       7
#     8  16  16   8  16  16  16
#     4  11  19  27  43  65  92 123 154 187 220 255
#     4   9  18  33  50  65  84 110 142 184 231 273
#     4  10  18  28  42  63  92 123 154 185 216 252
#     4   9  17  25  39  62  88 121 153 183 211 239
#     4  10  19  29  44  64  88 118 153 185 220 263
#     4   9  17  27  41  61  87 121 151 178 212 253
#     4   9  17  28  43  64  88 113 142 175 215 267
#
# _framework density 16.746096000000001
#
# number of rings (size 3 to 8) (size 9 to 14) (size 15 to 20)
#    0.000    2.500    1.667    1.500    0.000    2.667 
#    0.000    2.083    0.000    2.000    0.000    0.000 
#    0.000    3.333    0.000   13.500    0.000    0.500 
#
# Total GULP energy -594803.857024 kJ/mol
# GULP energy per Si atom -12391.747021 kJ/mol
# Density = 1.670798 g / cm^3
# Si number density = 16.746096 Si / 1000 Ang^3
#
#
#
# Elastic Constant Matrix: (Units=GPa)
#
#
# Indices 1 2 3 4 5 6 
#
# 1 68.0638 11.2414 18.8487 0.0000 0.0000 0.0000
# 2 11.2414 43.8721 30.1391 0.0000 0.0000 0.0000
# 3 18.8487 30.1391 133.5538 0.0000 0.0000 0.0000
# 4 0.0000 0.0000 0.0000 11.4619 0.0000 0.0000
# 5 0.0000 0.0000 0.0000 0.0000 4.6800 0.0000
# 6 0.0000 0.0000 0.0000 0.0000 0.0000 17.3549
#
#
#
# Elastic Compliance Matrix: (Units=1/GPa)
#
#
# Indices 1 2 3 4 5 6 
#
# 1 0.015604 -0.002941 -0.001538 0.000000 0.000000 0.000000
# 2 -0.002941 0.027530 -0.005798 0.000000 0.000000 0.000000
# 3 -0.001538 -0.005798 0.009013 0.000000 0.000000 0.000000
# 4 0.000000 0.000000 0.000000 0.087245 0.000000 0.000000
# 5 0.000000 0.000000 0.000000 0.000000 0.213676 0.000000
# 6 0.000000 0.000000 0.000000 0.000000 0.000000 0.057621
#
#
# Mechanical properties :
#
#
# Convention : Reuss Voigt Hill
#
# Bulk Modulus (GPa) = 31.65328 40.66089 36.15709
# Shear Modulus (GPa) = 11.31797 19.05004 15.18401
#
# Velocity S-wave (km/s) = 2.60255 3.37646 3.01444
# Velocity P-wave (km/s) = 5.28904 6.28762 5.80982
#
# Compressibility (1/GPa) = 0.03159230
#
# Stress axis : x y z
#
# Youngs Moduli (GPa) = 64.08642 36.32399 110.94981
#
# Poissons Ratio (x) = 0.10684 0.17069
# Poissons Ratio (y) = 0.18850 0.64324
# Poissons Ratio (z) = 0.09859 0.21059
#
# Static dielectric constant tensor:
#      x y z
#    x 3.060940 0.000000 0.000000 
#    y 0.000000 2.833620 0.000000 
#    z 0.000000 0.000000 3.427360 
# 
# 
# High freq. dielectric constant tensor:
#      x y z
#    x 1.631790 0.000000 0.000000 
#    y 0.000000 1.598280 0.000000 
#    z 0.000000 0.000000 1.650340 
# 
# From -- ./inp_files/40699.got.cif
#   From: 2010.03.12/outbox.cif.g09.slc.cpg/sg65_21_cif.got.tgz:40699.got - 2010.04.10 20:52:16.
