data_PCOD8265956
_publ_section_title
;
Structure prediction by ZEFSAII (Michael W. Deem and Ramdas Pophale) SiO2 
 PCOD8265956
Probable space group: C M M M
;
_chemical_formula_sum "Si O2"
_cell_formula_units_Z 120
_cell_length_a 27.413957
_cell_length_b 21.263534
_cell_length_c 13.661658
_cell_angle_alpha 90.000000
_cell_angle_beta 90.000000
_cell_angle_gamma 90.000000
_cell_volume 7963.620986
_symmetry_space_group_name_H-M "C M M M"
_symmetry_group_IT_number 65
_symmetry_cell_setting 'orthorhombic'
loop_
_space_group_symop_operation_xyz
x,y,z
-x,-y,z
x,-y,-z
-x,y,-z
-x,-y,-z
x,y,-z
-x,y,z
x,-y,z
1/2+x,1/2+y,z
1/2-x,1/2-y,z
1/2+x,1/2-y,-z
1/2-x,1/2+y,-z
1/2-x,1/2-y,-z
1/2+x,1/2+y,-z
1/2-x,1/2+y,z
1/2+x,1/2-y,z
loop_
_atom_site_type_symbol
_atom_site_label
_atom_site_fract_x
_atom_site_fract_y
_atom_site_fract_z
Si Si1 0.272729 0.319057 0.606523
Si Si2 0.792266 0.431191 0.317413
Si Si3 0.100185 0.427955 0.389309
Si Si4 0.556015 0.873803 0.785725
Si Si5 0.224415 0.609572 0.108311
Si Si6 0.134029 0.296917 0.109392
Si Si7 0.557808 0.000000 0.108829
Si Si8 0.795262 0.797586 0.189664
O O1 0.297372 0.333559 0.500000
O O2 0.250000 0.250000 0.599501
O O3 0.233320 0.373862 0.627227
O O4 0.309263 0.320772 0.699558
O O5 0.777464 0.500000 0.361234
O O6 0.849145 0.419767 0.333363
O O7 0.781050 0.436321 0.200848
O O8 0.103964 0.402739 0.500000
O O9 0.082309 0.500000 0.388494
O O10 0.061366 0.384920 0.330791
O O11 0.500000 0.859137 0.812073
O O12 0.589030 0.816092 0.821687
O O13 0.576156 0.937281 0.837630
O O14 0.178493 0.655363 0.113932
O O15 0.275739 0.646617 0.120470
O O16 0.225464 0.576689 0.000000
O O17 0.155440 0.230109 0.144405
O O18 0.113317 0.290424 0.000000
O O19 0.500000 0.000000 0.106207
O O20 0.580239 0.000000 0.000000
O O21 0.750000 0.750000 0.200344
#
# Coordination Sequence:
#
# PCOD8265956 Si02
#       8
#    16  16  16  16  16  16   8  16
#     4   9  17  28  44  64  85 111 143 179 217 257
#     4  10  19  31  44  64  92 116 144 184 230 273
#     4  10  20  33  47  59  75 105 144 187 233 273
#     4  11  21  32  43  59  79 102 140 184 225 269
#     4   9  16  27  44  64  85 109 136 171 214 262
#     4  10  18  29  45  62  81 108 137 172 220 266
#     4   9  18  32  45  55  73 101 132 174 225 267
#     4   8  15  27  42  62  85 104 131 171 210 256
#
# _framework density 15.068522
#
# number of rings (size 3 to 8) (size 9 to 14) (size 15 to 20)
#    0.000    2.467    2.000    2.000    0.000    3.733 
#    0.000    0.667    0.000    0.000    0.000    0.000 
#    0.000    0.000    0.000    0.000    0.000   10.667 
#
# Total GULP energy -743299.051809 kJ/mol
# GULP energy per Si atom -12388.317530 kJ/mol
# Density = 1.503423 g / cm^3
# Si number density = 15.068522 Si / 1000 Ang^3
#
#
#
# Elastic Constant Matrix: (Units=GPa)
#
#
# Indices 1 2 3 4 5 6 
#
# 1 55.6320 26.4227 25.8239 0.0000 0.0000 0.0000
# 2 26.4227 41.9409 17.4040 0.0000 0.0000 0.0000
# 3 25.8239 17.4040 108.4903 0.0000 0.0000 0.0000
# 4 0.0000 0.0000 0.0000 -14.3826 0.0000 0.0000
# 5 0.0000 0.0000 0.0000 0.0000 12.4815 0.0000
# 6 0.0000 0.0000 0.0000 0.0000 0.0000 17.2521
#
#
#
# Elastic Compliance Matrix: (Units=1/GPa)
#
#
# Indices 1 2 3 4 5 6 
#
# 1 0.027170 -0.015463 -0.003987 0.000000 0.000000 0.000000
# 2 -0.015463 0.034343 -0.001829 0.000000 0.000000 0.000000
# 3 -0.003987 -0.001829 0.010460 0.000000 0.000000 0.000000
# 4 0.000000 0.000000 0.000000 -0.069528 0.000000 0.000000
# 5 0.000000 0.000000 0.000000 0.000000 0.080119 0.000000
# 6 0.000000 0.000000 0.000000 0.000000 0.000000 0.057964
#
#
# Mechanical properties :
#
#
# Convention : Reuss Voigt Hill
#
# Bulk Modulus (GPa) = 33.99428 38.37384 36.18406
# Shear Modulus (GPa) = 25.92162 12.16437 19.04299
#
# Velocity S-wave (km/s) = 4.15209 2.84433 3.55880
# Velocity P-wave (km/s) = 6.75242 6.02565 6.39936
#
# Compressibility (1/GPa) = 0.02941671
#
# Stress axis : x y z
#
# Youngs Moduli (GPa) = 36.80540 29.11767 95.60460
#
# Poissons Ratio (x) = 0.45024 0.38115
# Poissons Ratio (y) = 0.56911 0.17484
# Poissons Ratio (z) = 0.14673 0.05325
#
# Static dielectric constant tensor:
#      x y z
#    x 2.532630 0.000000 0.000000 
#    y 0.000000 2.757140 0.000000 
#    z 0.000000 0.000000 3.347350 
# 
# 
# High freq. dielectric constant tensor:
#      x y z
#    x 1.524900 0.000000 0.000000 
#    y 0.000000 1.542940 0.000000 
#    z 0.000000 0.000000 1.603790 
# 
# From -- ./inp_files/47269.got.cif
#   From: 2010.03.12/outbox.cif.g09.slc.cpg/sg65_24_cif.got.tgz:47269.got - 2010.04.10 20:52:16.
