data_PCOD8265202
_publ_section_title
;
Structure prediction by ZEFSAII (Michael W. Deem and Ramdas Pophale) SiO2 
 PCOD8265202
Probable space group: C M M M
;
_chemical_formula_sum "Si O2"
_cell_formula_units_Z 88
_cell_length_a 25.601951
_cell_length_b 27.830183
_cell_length_c 9.167915
_cell_angle_alpha 90.000000
_cell_angle_beta 90.000000
_cell_angle_gamma 90.000000
_cell_volume 6532.203443
_symmetry_space_group_name_H-M "C M M M"
_symmetry_group_IT_number 65
_symmetry_cell_setting 'orthorhombic'
loop_
_space_group_symop_operation_xyz
x,y,z
-x,-y,z
x,-y,-z
-x,y,-z
-x,-y,-z
x,y,-z
-x,y,z
x,-y,z
1/2+x,1/2+y,z
1/2-x,1/2-y,z
1/2+x,1/2-y,-z
1/2-x,1/2+y,-z
1/2-x,1/2-y,-z
1/2+x,1/2+y,-z
1/2-x,1/2+y,z
1/2+x,1/2-y,z
loop_
_atom_site_type_symbol
_atom_site_label
_atom_site_fract_x
_atom_site_fract_y
_atom_site_fract_z
Si Si1 0.708312 0.445315 0.170116
Si Si2 0.095937 0.098179 0.165514
Si Si3 0.657386 0.686773 0.167579
Si Si4 0.751412 0.639762 0.671631
Si Si5 0.302017 0.217810 0.838110
Si Si6 0.000000 0.945410 0.327697
O O1 0.715514 0.500000 0.220929
O O2 0.649294 0.429207 0.206226
O O3 0.750582 0.413415 0.257981
O O4 0.719728 0.438728 0.000000
O O5 0.104196 0.156009 0.185402
O O6 0.051207 0.081606 0.273315
O O7 0.079183 0.086092 0.000000
O O8 0.698551 0.666057 0.282015
O O9 0.650646 0.744223 0.198045
O O10 0.678256 0.679452 0.000000
O O11 0.755912 0.634897 0.500000
O O12 0.800083 0.672385 0.728852
O O13 0.250000 0.250000 0.826883
O O14 0.309017 0.196548 0.000000
O O15 0.000000 0.943895 0.500000
O O16 0.000000 0.000000 0.269303
#
# Coordination Sequence:
#
# PCOD8265202 Si02
#       6
#    16  16  16  16  16   8
#     4   9  17  29  42  52  64  87 119 150 178 209
#     4   9  17  30  45  56  64  80 112 149 182 216
#     4   8  15  27  40  52  66  85 109 137 169 205
#     4  10  17  22  32  52  74  91 108 133 166 204
#     4   8  13  23  37  50  67  89 109 131 161 198
#     4  11  23  33  39  51  71  91 111 141 184 227
#
# _framework density 13.471717
#
# number of rings (size 3 to 8) (size 9 to 14) (size 15 to 20)
#    0.000    3.000    0.000    4.636    0.000    8.000 
#    0.000    0.000    0.000    0.000    0.000    0.000 
#    0.000    0.000    0.000    0.000    0.000    0.000 
#
# Total GULP energy -545106.031369 kJ/mol
# GULP energy per Si atom -12388.773440 kJ/mol
# Density = 1.344105 g / cm^3
# Si number density = 13.471717 Si / 1000 Ang^3
#
#
#
# Elastic Constant Matrix: (Units=GPa)
#
#
# Indices 1 2 3 4 5 6 
#
# 1 28.4320 42.8308 21.9089 0.0000 0.0000 0.0000
# 2 42.8308 119.3828 54.0096 0.0000 0.0000 0.0000
# 3 21.9089 54.0096 72.1233 0.0000 0.0000 0.0000
# 4 0.0000 0.0000 0.0000 16.9615 0.0000 0.0000
# 5 0.0000 0.0000 0.0000 0.0000 10.8459 0.0000
# 6 0.0000 0.0000 0.0000 0.0000 0.0000 18.6149
#
#
#
# Elastic Compliance Matrix: (Units=1/GPa)
#
#
# Indices 1 2 3 4 5 6 
#
# 1 0.077332 -0.025887 -0.004106 0.000000 0.000000 0.000000
# 2 -0.025887 0.021334 -0.008112 0.000000 0.000000 0.000000
# 3 -0.004106 -0.008112 0.021187 0.000000 0.000000 0.000000
# 4 0.000000 0.000000 0.000000 0.058957 0.000000 0.000000
# 5 0.000000 0.000000 0.000000 0.000000 0.092201 0.000000
# 6 0.000000 0.000000 0.000000 0.000000 0.000000 0.053720
#
#
# Mechanical properties :
#
#
# Convention : Reuss Voigt Hill
#
# Bulk Modulus (GPa) = 22.91295 50.82632 36.86964
# Shear Modulus (GPa) = 12.03401 16.03037 14.03219
#
# Velocity S-wave (km/s) = 2.99202 3.45328 3.23089
# Velocity P-wave (km/s) = 5.38343 7.32873 6.43007
#
# Compressibility (1/GPa) = 0.04364344
#
# Stress axis : x y z
#
# Youngs Moduli (GPa) = 12.93123 46.87389 47.19831
#
# Poissons Ratio (x) = 1.21342 0.19379
# Poissons Ratio (y) = 0.33475 0.38288
# Poissons Ratio (z) = 0.05309 0.38025
#
# Static dielectric constant tensor:
#      x y z
#    x 2.340410 0.000000 0.000000 
#    y 0.000000 3.149540 0.000000 
#    z 0.000000 0.000000 2.610420 
# 
# 
# High freq. dielectric constant tensor:
#      x y z
#    x 1.442120 0.000000 0.000000 
#    y 0.000000 1.519640 0.000000 
#    z 0.000000 0.000000 1.513920 
# 
# From -- ./inp_files/12621.got.cif
#   From: 2010.03.12/outbox.cif.g09.slc.cpg/sg65_7_cif.got.tgz:12621.got - 2010.04.10 20:52:16.
