data_PCOD8265173
_publ_section_title
;
Structure prediction by ZEFSAII (Michael W. Deem and Ramdas Pophale) SiO2 
 PCOD8265173
Probable space group: C M M M
;
_chemical_formula_sum "Si O2"
_cell_formula_units_Z 72
_cell_length_a 21.052490
_cell_length_b 35.647840
_cell_length_c 7.856000
_cell_angle_alpha 90.000000
_cell_angle_beta 90.000000
_cell_angle_gamma 90.000000
_cell_volume 5895.737846
_symmetry_space_group_name_H-M "C M M M"
_symmetry_group_IT_number 65
_symmetry_cell_setting 'orthorhombic'
loop_
_space_group_symop_operation_xyz
x,y,z
-x,-y,z
x,-y,-z
-x,y,-z
-x,-y,-z
x,y,-z
-x,y,z
x,-y,z
1/2+x,1/2+y,z
1/2-x,1/2-y,z
1/2+x,1/2-y,-z
1/2-x,1/2+y,-z
1/2-x,1/2-y,-z
1/2+x,1/2+y,-z
1/2-x,1/2+y,z
1/2+x,1/2-y,z
loop_
_atom_site_type_symbol
_atom_site_label
_atom_site_fract_x
_atom_site_fract_y
_atom_site_fract_z
Si Si1 0.686066 0.724213 0.000000
Si Si2 0.073800 0.406913 0.691547
Si Si3 0.621047 0.174912 0.694062
Si Si4 0.758405 0.794294 0.317553
Si Si5 0.570537 0.779761 0.000000
Si Si6 0.075322 0.541817 0.000000
O O1 0.750000 0.750000 0.000000
O O2 0.689620 0.698168 0.169309
O O3 0.621006 0.746504 0.000000
O O4 0.083927 0.422912 0.500000
O O5 0.114392 0.369465 0.718369
O O6 0.000000 0.397034 0.721903
O O7 0.098471 0.437103 0.828902
O O8 0.602422 0.186606 0.500000
O O9 0.693012 0.186073 0.735626
O O10 0.576463 0.195547 0.829409
O O11 0.782220 0.810408 0.500000
O O12 0.750000 0.750000 0.336266
O O13 0.500000 0.762276 0.000000
O O14 0.104772 0.500000 0.000000
O O15 0.000000 0.539343 0.000000
#
# Coordination Sequence:
#
# PCOD8265173 Si02
#       6
#     8  16  16  16   8   8
#     4  10  16  28  38  48  65  87 115 143 170 210
#     4   9  17  27  37  51  71  89 106 136 179 219
#     4  10  18  28  40  54  71  91 113 141 180 222
#     4   9  15  25  41  53  64  87 117 142 166 206
#     4  12  21  26  36  53  70  90 115 145 180 218
#     4   9  17  28  40  51  63  84 114 140 165 208
#
# _framework density 12.212211999999999
#
# number of rings (size 3 to 8) (size 9 to 14) (size 15 to 20)
#    0.000    2.333    4.444    1.333    0.000    2.667 
#    0.000    2.222    0.000    0.000    0.000    0.000 
#    0.000    0.000    0.000    0.000    0.000    0.000 
#
# Total GULP energy -446065.836172 kJ/mol
# GULP energy per Si atom -12390.717671 kJ/mol
# Density = 1.218442 g / cm^3
# Si number density = 12.212212 Si / 1000 Ang^3
#
#
#
# Elastic Constant Matrix: (Units=GPa)
#
#
# Indices 1 2 3 4 5 6 
#
# 1 49.1543 33.7489 38.7269 0.0000 0.0000 0.0000
# 2 33.7489 56.7242 33.7328 0.0000 0.0000 0.0000
# 3 38.7269 33.7328 113.1488 0.0000 0.0000 0.0000
# 4 0.0000 0.0000 0.0000 32.3943 0.0000 0.0000
# 5 0.0000 0.0000 0.0000 0.0000 6.7212 0.0000
# 6 0.0000 0.0000 0.0000 0.0000 0.0000 10.7391
#
#
#
# Elastic Compliance Matrix: (Units=1/GPa)
#
#
# Indices 1 2 3 4 5 6 
#
# 1 0.039470 -0.018779 -0.007911 0.000000 0.000000 0.000000
# 2 -0.018779 0.030363 -0.002625 0.000000 0.000000 0.000000
# 3 -0.007911 -0.002625 0.012328 0.000000 0.000000 0.000000
# 4 0.000000 0.000000 0.000000 0.030870 0.000000 0.000000
# 5 0.000000 0.000000 0.000000 0.000000 0.148784 0.000000
# 6 0.000000 0.000000 0.000000 0.000000 0.000000 0.093118
#
#
# Mechanical properties :
#
#
# Convention : Reuss Voigt Hill
#
# Bulk Modulus (GPa) = 42.49484 47.93828 45.21656
# Shear Modulus (GPa) = 11.86507 17.49216 14.67862
#
# Velocity S-wave (km/s) = 3.12039 3.78875 3.47069
# Velocity P-wave (km/s) = 6.91773 7.64716 7.29157
#
# Compressibility (1/GPa) = 0.02353227
#
# Stress axis : x y z
#
# Youngs Moduli (GPa) = 25.33557 32.93501 81.11658
#
# Poissons Ratio (x) = 0.61849 0.64169
# Poissons Ratio (y) = 0.47578 0.21290
# Poissons Ratio (z) = 0.20042 0.08644
#
# Static dielectric constant tensor:
#      x y z
#    x 2.229180 0.000000 0.000000 
#    y 0.000000 2.338050 0.000000 
#    z 0.000000 0.000000 3.777560 
# 
# 
# High freq. dielectric constant tensor:
#      x y z
#    x 1.419600 0.000000 0.000000 
#    y 0.000000 1.423530 0.000000 
#    z 0.000000 0.000000 1.498060 
# 
# From -- ./inp_files/12042.got.cif
#   From: 2010.03.12/outbox.cif.g09.slc.cpg/sg65_7_cif.got.tgz:12042.got - 2010.04.10 20:52:16.
