data_PCOD8265485
_publ_section_title
;
Structure prediction by ZEFSAII (Michael W. Deem and Ramdas Pophale) SiO2 
 PCOD8265485
Probable space group: C M M M
;
_chemical_formula_sum "Si O2"
_cell_formula_units_Z 112
_cell_length_a 17.746783
_cell_length_b 19.871090
_cell_length_c 18.630375
_cell_angle_alpha 90.000000
_cell_angle_beta 90.000000
_cell_angle_gamma 90.000000
_cell_volume 6569.963034
_symmetry_space_group_name_H-M "C M M M"
_symmetry_group_IT_number 65
_symmetry_cell_setting 'orthorhombic'
loop_
_space_group_symop_operation_xyz
x,y,z
-x,-y,z
x,-y,-z
-x,y,-z
-x,-y,-z
x,y,-z
-x,y,z
x,-y,z
1/2+x,1/2+y,z
1/2-x,1/2-y,z
1/2+x,1/2-y,-z
1/2-x,1/2+y,-z
1/2-x,1/2-y,-z
1/2+x,1/2+y,-z
1/2-x,1/2+y,z
1/2+x,1/2-y,z
loop_
_atom_site_type_symbol
_atom_site_label
_atom_site_fract_x
_atom_site_fract_y
_atom_site_fract_z
Si Si1 0.734640 0.078833 0.081954
Si Si2 0.309605 0.305913 0.418939
Si Si3 0.585709 0.716544 0.707479
Si Si4 0.280580 0.321823 0.197322
Si Si5 0.698406 0.923263 0.579942
Si Si6 0.638832 0.862835 0.283426
Si Si7 0.081055 0.422367 0.143449
O O1 0.787175 0.124405 0.132603
O O2 0.648550 0.105325 0.093510
O O3 0.742275 0.000000 0.103407
O O4 0.758557 0.090423 0.000000
O O5 0.333232 0.286656 0.500000
O O6 0.250000 0.250000 0.389682
O O7 0.383833 0.305064 0.370451
O O8 0.274388 0.379943 0.415372
O O9 0.500000 0.691387 0.716104
O O10 0.635844 0.683575 0.770333
O O11 0.588090 0.796758 0.713847
O O12 0.250000 0.250000 0.167984
O O13 0.224941 0.346917 0.260345
O O14 0.662616 0.915641 0.500000
O O15 0.638236 0.897826 0.638573
O O16 0.721093 0.000000 0.595941
O O17 0.601251 0.912917 0.226757
O O18 0.072187 0.500000 0.127271
O O19 0.000000 0.387399 0.125291
#
# Coordination Sequence:
#
# PCOD8265485 Si02
#       7
#    16  16  16  16  16  16  16
#     4   9  18  32  52  77 101 130 169 209 249 299
#     4  10  18  33  52  71  99 132 171 216 258 304
#     4  11  20  31  49  75 101 131 169 213 263 305
#     4   9  18  33  51  72 100 130 166 207 251 299
#     4  10  19  30  50  75  97 128 172 218 258 295
#     4  10  17  31  49  70  98 132 171 209 248 298
#     4   9  17  28  44  70 103 136 164 196 246 302
#
# _framework density 17.047280000000001
#
# number of rings (size 3 to 8) (size 9 to 14) (size 15 to 20)
#    0.000    2.286    2.857    1.286    0.000    1.429 
#    0.000    1.429    0.000    3.429    0.000    8.000 
#    0.000    0.000    0.000    0.000    0.000    0.000 
#
# Total GULP energy -694218.113556 kJ/mol
# GULP energy per Si atom -12396.752028 kJ/mol
# Density = 1.700848 g / cm^3
# Si number density = 17.047280 Si / 1000 Ang^3
#
#
#
# Elastic Constant Matrix: (Units=GPa)
#
#
# Indices 1 2 3 4 5 6 
#
# 1 100.5849 29.5106 35.8076 0.0000 0.0000 0.0000
# 2 29.5106 75.2914 40.6289 0.0000 0.0000 0.0000
# 3 35.8076 40.6289 101.0069 0.0000 0.0000 0.0000
# 4 0.0000 0.0000 0.0000 29.3118 0.0000 0.0000
# 5 0.0000 0.0000 0.0000 0.0000 14.3126 0.0000
# 6 0.0000 0.0000 0.0000 0.0000 0.0000 15.4757
#
#
#
# Elastic Compliance Matrix: (Units=1/GPa)
#
#
# Indices 1 2 3 4 5 6 
#
# 1 0.011902 -0.003050 -0.002992 0.000000 0.000000 0.000000
# 2 -0.003050 0.017746 -0.006057 0.000000 0.000000 0.000000
# 3 -0.002992 -0.006057 0.013397 0.000000 0.000000 0.000000
# 4 0.000000 0.000000 0.000000 0.034116 0.000000 0.000000
# 5 0.000000 0.000000 0.000000 0.000000 0.069868 0.000000
# 6 0.000000 0.000000 0.000000 0.000000 0.000000 0.064618
#
#
# Mechanical properties :
#
#
# Convention : Reuss Voigt Hill
#
# Bulk Modulus (GPa) = 53.06061 54.30862 53.68461
# Shear Modulus (GPa) = 20.65027 23.21576 21.93302
#
# Velocity S-wave (km/s) = 3.48423 3.69432 3.59081
# Velocity P-wave (km/s) = 6.88328 7.07984 6.98225
#
# Compressibility (1/GPa) = 0.01884637
#
# Stress axis : x y z
#
# Youngs Moduli (GPa) = 84.01908 56.35202 74.64154
#
# Poissons Ratio (x) = 0.17189 0.22336
# Poissons Ratio (y) = 0.25628 0.45208
# Poissons Ratio (z) = 0.25142 0.34130
#
# Static dielectric constant tensor:
#      x y z
#    x 3.145220 0.000000 0.000000 
#    y 0.000000 3.190830 0.000000 
#    z 0.000000 0.000000 3.212550 
# 
# 
# High freq. dielectric constant tensor:
#      x y z
#    x 1.622430 0.000000 0.000000 
#    y 0.000000 1.649920 0.000000 
#    z 0.000000 0.000000 1.660750 
# 
# From -- ./inp_files/63959.got.cif
#   From: 2010.03.12/outbox.cif.g09.slc.cpg/sg65_32_cif.got.tgz:63959.got - 2010.04.10 20:52:16.
