data_PCOD8265023
_publ_section_title
;
Structure prediction by ZEFSAII (Michael W. Deem and Ramdas Pophale) SiO2 
 PCOD8265023
Probable space group: C M C A
;
_chemical_formula_sum "Si O2"
_cell_formula_units_Z 96
_cell_length_a 9.499713
_cell_length_b 32.458554
_cell_length_c 18.636011
_cell_angle_alpha 90.000000
_cell_angle_beta 90.000000
_cell_angle_gamma 90.000000
_cell_volume 5746.357103
_symmetry_space_group_name_H-M "C M C A"
_symmetry_group_IT_number 64
_symmetry_cell_setting 'orthorhombic'
loop_
_space_group_symop_operation_xyz
x,y,z
-x,1/2-y,1/2+z
x,-y,-z
-x,1/2+y,1/2-z
-x,-y,-z
x,1/2+y,1/2-z
-x,y,z
x,1/2-y,1/2+z
1/2+x,1/2+y,z
1/2-x,-y,1/2+z
1/2+x,1/2-y,-z
1/2-x,y,1/2-z
1/2-x,1/2-y,-z
1/2+x,y,1/2-z
1/2-x,1/2+y,z
1/2+x,-y,1/2+z
loop_
_atom_site_type_symbol
_atom_site_label
_atom_site_fract_x
_atom_site_fract_y
_atom_site_fract_z
Si Si1 0.162295 0.509883 0.680188
Si Si2 0.165541 0.872447 0.959521
Si Si3 0.334305 0.170431 0.679291
Si Si4 0.833631 0.589535 0.601297
Si Si5 0.163688 0.287970 0.470258
Si Si6 0.336124 0.916635 0.678953
O O1 0.250000 0.519386 0.750000
O O2 0.212683 0.543282 0.621514
O O3 0.188572 0.463633 0.652314
O O4 0.000000 0.517059 0.699718
O O5 0.226343 0.886934 0.882861
O O6 0.000000 0.880159 0.956504
O O7 0.231654 0.900390 0.023234
O O8 0.200929 0.825145 0.975566
O O9 0.500000 0.172611 0.696104
O O10 0.250000 0.185066 0.750000
O O11 0.285016 0.123884 0.659283
O O12 0.296891 0.200174 0.611807
O O13 0.000000 0.594206 0.595091
O O14 0.250000 0.250000 0.500000
O O15 0.000000 0.276977 0.474553
O O16 0.500000 0.908752 0.695558
O O17 0.250000 0.906552 0.750000
#
# Coordination Sequence:
#
# PCOD8265023 Si02
#       6
#    16  16  16  16  16  16
#     4   9  16  25  40  63  89 117 148 180 212 248
#     4   8  15  29  47  65  86 113 144 179 220 260
#     4   9  17  29  46  68  93 119 145 176 218 266
#     4   8  14  25  42  65  90 114 144 181 215 252
#     4   9  18  33  51  69  90 116 146 182 224 268
#     4   9  17  29  45  64  87 117 150 182 216 252
#
# _framework density 16.706236000000001
#
# number of rings (size 3 to 8) (size 9 to 14) (size 15 to 20)
#    0.000    3.333    0.000    2.500    0.000    1.333 
#    0.000    5.000    0.000    7.000    0.000    4.667 
#    0.000    0.000    0.000    0.000    0.000    0.000 
#
# Total GULP energy -594822.936218 kJ/mol
# GULP energy per Si atom -12392.144505 kJ/mol
# Density = 1.666821 g / cm^3
# Si number density = 16.706236 Si / 1000 Ang^3
#
#
#
# Elastic Constant Matrix: (Units=GPa)
#
#
# Indices 1 2 3 4 5 6 
#
# 1 38.2509 42.3244 49.2812 0.0000 0.0000 0.0000
# 2 42.3244 103.0941 87.8389 0.0000 0.0000 0.0000
# 3 49.2812 87.8389 142.0532 0.0000 0.0000 0.0000
# 4 0.0000 0.0000 0.0000 24.6278 0.0000 0.0000
# 5 0.0000 0.0000 0.0000 0.0000 24.1167 0.0000
# 6 0.0000 0.0000 0.0000 0.0000 0.0000 18.5012
#
#
#
# Elastic Compliance Matrix: (Units=1/GPa)
#
#
# Indices 1 2 3 4 5 6 
#
# 1 0.054720 -0.013295 -0.010763 0.000000 0.000000 0.000000
# 2 -0.013295 0.023731 -0.010062 0.000000 0.000000 0.000000
# 3 -0.010763 -0.010062 0.016995 0.000000 0.000000 0.000000
# 4 0.000000 0.000000 0.000000 0.040605 0.000000 0.000000
# 5 0.000000 0.000000 0.000000 0.000000 0.041465 0.000000
# 6 0.000000 0.000000 0.000000 0.000000 0.000000 0.054051
#
#
# Mechanical properties :
#
#
# Convention : Reuss Voigt Hill
#
# Bulk Modulus (GPa) = 36.75444 71.36526 54.05985
# Shear Modulus (GPa) = 16.18784 20.37937 18.28361
#
# Velocity S-wave (km/s) = 3.11620 3.49645 3.31179
# Velocity P-wave (km/s) = 5.91573 7.68835 6.85954
#
# Compressibility (1/GPa) = 0.02720759
#
# Stress axis : x y z
#
# Youngs Moduli (GPa) = 18.27484 42.13933 58.84026
#
# Poissons Ratio (x) = 0.56023 0.63328
# Poissons Ratio (y) = 0.24296 0.59204
# Poissons Ratio (z) = 0.19669 0.42400
#
# Static dielectric constant tensor:
#      x y z
#    x 2.796300 0.000000 0.000000 
#    y 0.000000 3.144510 0.000000 
#    z 0.000000 0.000000 3.588980 
# 
# 
# High freq. dielectric constant tensor:
#      x y z
#    x 1.607400 0.000000 0.000000 
#    y 0.000000 1.638920 0.000000 
#    z 0.000000 0.000000 1.644840 
# 
# From -- ./inp_files/31163.got.cif
#   From: 2010.03.12/outbox.cif.g09.slc.cpg/sg64_16_cif.got.tgz:31163.got - 2010.04.10 20:19:32.
