data_PCOD8265832
_publ_section_title
;
Structure prediction by ZEFSAII (Michael W. Deem and Ramdas Pophale) SiO2 
 PCOD8265832
Probable space group: C M M M
;
_chemical_formula_sum "Si O2"
_cell_formula_units_Z 80
_cell_length_a 21.020624
_cell_length_b 12.721507
_cell_length_c 17.146650
_cell_angle_alpha 90.000000
_cell_angle_beta 90.000000
_cell_angle_gamma 90.000000
_cell_volume 4585.254526
_symmetry_space_group_name_H-M "C M M M"
_symmetry_group_IT_number 65
_symmetry_cell_setting 'orthorhombic'
loop_
_space_group_symop_operation_xyz
x,y,z
-x,-y,z
x,-y,-z
-x,y,-z
-x,-y,-z
x,y,-z
-x,y,z
x,-y,z
1/2+x,1/2+y,z
1/2-x,1/2-y,z
1/2+x,1/2-y,-z
1/2-x,1/2+y,-z
1/2-x,1/2-y,-z
1/2+x,1/2+y,-z
1/2-x,1/2+y,z
1/2+x,1/2-y,z
loop_
_atom_site_type_symbol
_atom_site_label
_atom_site_fract_x
_atom_site_fract_y
_atom_site_fract_z
Si Si1 0.924025 0.798633 0.000000
Si Si2 0.576063 0.500000 0.587795
Si Si3 0.633114 0.376494 0.160412
Si Si4 0.424331 0.884033 0.412610
Si Si5 0.327982 0.124945 0.000000
Si Si6 0.425383 0.693961 0.684982
Si Si7 0.250000 0.250000 0.877408
O O1 0.896994 0.859486 0.924851
O O2 0.897867 0.678990 0.000000
O O3 0.000000 0.798074 0.000000
O O4 0.500000 0.500000 0.588287
O O5 0.602474 0.500000 0.500000
O O6 0.603789 0.399291 0.632915
O O7 0.640615 0.500000 0.175586
O O8 0.587749 0.323223 0.224056
O O9 0.700879 0.319068 0.172524
O O10 0.403158 0.850240 0.500000
O O11 0.500000 0.886373 0.408993
O O12 0.396430 0.803005 0.348510
O O13 0.397448 0.000000 0.392664
O O14 0.288425 0.163087 0.074080
O O15 0.336548 0.000000 0.000000
O O16 0.500000 0.696112 0.672949
#
# Coordination Sequence:
#
# PCOD8265832 Si02
#       7
#     8   8  16  16   8  16   8
#     4  10  22  35  51  78 107 141 173 199 247 318
#     4   9  16  26  42  69 105 135 157 192 250 315
#     4  11  21  35  53  73 101 134 173 214 258 301
#     4   8  14  26  44  66  96 134 169 199 238 297
#     4   9  17  34  56  74  95 126 170 223 267 300
#     4  10  18  28  45  74 107 133 162 203 255 310
#     4   9  20  34  52  74  93 124 176 226 259 296
#
# _framework density 17.447232
#
# number of rings (size 3 to 8) (size 9 to 14) (size 15 to 20)
#    0.000    2.500    1.000    3.300    0.000    4.200 
#    0.000    5.000    0.000    4.800    0.000    2.800 
#    0.000    0.000    0.000    0.000    0.000    0.000 
#
# Total GULP energy -495748.917072 kJ/mol
# GULP energy per Si atom -12393.722927 kJ/mol
# Density = 1.740752 g / cm^3
# Si number density = 17.447232 Si / 1000 Ang^3
#
#
#
# Elastic Constant Matrix: (Units=GPa)
#
#
# Indices 1 2 3 4 5 6 
#
# 1 48.7241 25.5343 5.4239 0.0000 0.0000 0.0000
# 2 25.5343 150.3326 58.1024 0.0000 0.0000 0.0000
# 3 5.4239 58.1024 113.7009 0.0000 0.0000 0.0000
# 4 0.0000 0.0000 0.0000 33.3220 0.0000 0.0000
# 5 0.0000 0.0000 0.0000 0.0000 5.8919 0.0000
# 6 0.0000 0.0000 0.0000 0.0000 0.0000 17.8673
#
#
#
# Elastic Compliance Matrix: (Units=1/GPa)
#
#
# Indices 1 2 3 4 5 6 
#
# 1 0.022640 -0.004272 0.001103 0.000000 0.000000 0.000000
# 2 -0.004272 0.009095 -0.004444 0.000000 0.000000 0.000000
# 3 0.001103 -0.004444 0.011013 0.000000 0.000000 0.000000
# 4 0.000000 0.000000 0.000000 0.030010 0.000000 0.000000
# 5 0.000000 0.000000 0.000000 0.000000 0.169725 0.000000
# 6 0.000000 0.000000 0.000000 0.000000 0.000000 0.055968
#
#
# Mechanical properties :
#
#
# Convention : Reuss Voigt Hill
#
# Bulk Modulus (GPa) = 36.33388 54.54210 45.43799
# Shear Modulus (GPa) = 15.48703 26.32939 20.90821
#
# Velocity S-wave (km/s) = 2.98258 3.88891 3.46550
# Velocity P-wave (km/s) = 5.72112 7.17592 6.48942
#
# Compressibility (1/GPa) = 0.02752253
#
# Stress axis : x y z
#
# Youngs Moduli (GPa) = 44.17057 109.95081 90.79967
#
# Poissons Ratio (x) = 0.46967 -0.10014
# Poissons Ratio (y) = 0.18868 0.40350
# Poissons Ratio (z) = -0.04871 0.48861
#
# Static dielectric constant tensor:
#      x y z
#    x 2.911380 0.000000 0.000000 
#    y 0.000000 3.557010 0.000000 
#    z 0.000000 0.000000 3.224630 
# 
# 
# High freq. dielectric constant tensor:
#      x y z
#    x 1.624260 0.000000 0.000000 
#    y 0.000000 1.688700 0.000000 
#    z 0.000000 0.000000 1.671960 
# 
# From -- ./inp_files/55641.got.cif
#   From: 2010.03.12/outbox.cif.g09.slc.cpg/sg65_28_cif.got.tgz:55641.got - 2010.04.10 20:52:16.
