data_PCOD8265056
_publ_section_title
;
Structure prediction by ZEFSAII (Michael W. Deem and Ramdas Pophale) SiO2 
 PCOD8265056
Probable space group: C M M M
;
_chemical_formula_sum "Si O2"
_cell_formula_units_Z 96
_cell_length_a 17.301603
_cell_length_b 16.334592
_cell_length_c 18.846939
_cell_angle_alpha 90.000000
_cell_angle_beta 90.000000
_cell_angle_gamma 90.000000
_cell_volume 5326.420616
_symmetry_space_group_name_H-M "C M M M"
_symmetry_group_IT_number 65
_symmetry_cell_setting 'orthorhombic'
loop_
_space_group_symop_operation_xyz
x,y,z
-x,-y,z
x,-y,-z
-x,y,-z
-x,-y,-z
x,y,-z
-x,y,z
x,-y,z
1/2+x,1/2+y,z
1/2-x,1/2-y,z
1/2+x,1/2-y,-z
1/2-x,1/2+y,-z
1/2-x,1/2-y,-z
1/2+x,1/2+y,-z
1/2-x,1/2+y,z
1/2+x,1/2-y,z
loop_
_atom_site_type_symbol
_atom_site_label
_atom_site_fract_x
_atom_site_fract_y
_atom_site_fract_z
Si Si1 0.414659 0.839743 0.849723
Si Si2 0.592148 0.751996 0.500000
Si Si3 0.218507 0.841920 0.000000
Si Si4 0.714675 0.907225 0.242997
Si Si5 0.881407 0.406258 0.000000
Si Si6 0.820116 0.811245 0.852417
Si Si7 0.699097 0.829111 0.610133
Si Si8 0.195767 0.907232 0.500000
O O1 0.500000 0.855875 0.818584
O O2 0.353147 0.901174 0.814810
O O3 0.414720 0.857213 0.933196
O O4 0.394465 0.744049 0.833629
O O5 0.500000 0.746693 0.500000
O O6 0.620796 0.803131 0.568922
O O7 0.626633 0.659565 0.500000
O O8 0.250000 0.750000 0.000000
O O9 0.288719 0.905886 0.000000
O O10 0.168229 0.858247 0.928027
O O11 0.795718 0.870394 0.212748
O O12 0.680967 0.862112 0.311978
O O13 0.732545 0.000000 0.262037
O O14 0.910593 0.500000 0.000000
O O15 0.750000 0.750000 0.865390
O O16 0.750000 0.750000 0.618513
O O17 0.749082 0.896322 0.568082
O O18 0.161889 0.000000 0.500000
#
# Coordination Sequence:
#
# PCOD8265056 Si02
#       8
#    16   8   8  16   8  16  16   8
#     4  11  22  34  48  71 104 138 168 203 255 316
#     4   9  19  34  54  80 107 139 172 198 240 305
#     4  10  14  30  52  67  91 127 171 217 246 297
#     4  11  21  33  53  78 101 129 169 217 258 292
#     4  12  21  31  48  74 104 132 164 212 266 307
#     4   9  17  32  52  69  93 130 174 209 246 301
#     4   9  18  34  54  75 102 138 174 206 242 296
#     4   9  17  32  56  82 105 129 166 218 260 285
#
# _framework density 18.02336
#
# number of rings (size 3 to 8) (size 9 to 14) (size 15 to 20)
#    0.000    2.000    5.000    3.750    0.000    2.500 
#    0.000    0.000    0.000    9.000    0.000    0.000 
#    0.000    3.333    0.000    0.000    0.000    0.000 
#
# Total GULP energy -594848.395938 kJ/mol
# GULP energy per Si atom -12392.674915 kJ/mol
# Density = 1.798234 g / cm^3
# Si number density = 18.023360 Si / 1000 Ang^3
#
#
#
# Elastic Constant Matrix: (Units=GPa)
#
#
# Indices 1 2 3 4 5 6 
#
# 1 72.0105 31.4125 16.2285 0.0000 0.0000 0.0000
# 2 31.4125 85.7201 33.0898 0.0000 0.0000 0.0000
# 3 16.2285 33.0898 102.5172 0.0000 0.0000 0.0000
# 4 0.0000 0.0000 0.0000 16.1449 0.0000 0.0000
# 5 0.0000 0.0000 0.0000 0.0000 4.9969 0.0000
# 6 0.0000 0.0000 0.0000 0.0000 0.0000 11.2660
#
#
#
# Elastic Compliance Matrix: (Units=1/GPa)
#
#
# Indices 1 2 3 4 5 6 
#
# 1 0.016581 -0.005783 -0.000758 0.000000 0.000000 0.000000
# 2 -0.005783 0.015344 -0.004037 0.000000 0.000000 0.000000
# 3 -0.000758 -0.004037 0.011177 0.000000 0.000000 0.000000
# 4 0.000000 0.000000 0.000000 0.061939 0.000000 0.000000
# 5 0.000000 0.000000 0.000000 0.000000 0.200125 0.000000
# 6 0.000000 0.000000 0.000000 0.000000 0.000000 0.088763
#
#
# Mechanical properties :
#
#
# Convention : Reuss Voigt Hill
#
# Bulk Modulus (GPa) = 45.56875 46.85661 46.21268
# Shear Modulus (GPa) = 11.83710 18.44934 15.14322
#
# Velocity S-wave (km/s) = 2.56552 3.20290 2.90176
# Velocity P-wave (km/s) = 5.84071 6.30335 6.07644
#
# Compressibility (1/GPa) = 0.02194486
#
# Stress axis : x y z
#
# Youngs Moduli (GPa) = 60.31170 65.17380 89.46557
#
# Poissons Ratio (x) = 0.37693 0.06781
# Poissons Ratio (y) = 0.34881 0.36117
# Poissons Ratio (z) = 0.04571 0.26311
#
# Static dielectric constant tensor:
#      x y z
#    x 3.243020 0.000000 0.000000 
#    y 0.000000 3.291870 0.000000 
#    z 0.000000 0.000000 1.420600 
# 
# 
# High freq. dielectric constant tensor:
#      x y z
#    x 1.656100 0.000000 0.000000 
#    y 0.000000 1.685170 0.000000 
#    z 0.000000 0.000000 1.707210 
# 
# From -- ./inp_files/54555.got.cif
#   From: 2010.03.12/outbox.cif.g09.slc.cpg/sg65_28_cif.got.tgz:54555.got - 2010.04.10 20:52:16.
