data_PCOD8265968
_publ_section_title
;
Structure prediction by ZEFSAII (Michael W. Deem and Ramdas Pophale) SiO2 
 PCOD8265968
Probable space group: C M M M
;
_chemical_formula_sum "Si O2"
_cell_formula_units_Z 104
_cell_length_a 16.698292
_cell_length_b 25.876704
_cell_length_c 13.946134
_cell_angle_alpha 90.000000
_cell_angle_beta 90.000000
_cell_angle_gamma 90.000000
_cell_volume 6026.079307
_symmetry_space_group_name_H-M "C M M M"
_symmetry_group_IT_number 65
_symmetry_cell_setting 'orthorhombic'
loop_
_space_group_symop_operation_xyz
x,y,z
-x,-y,z
x,-y,-z
-x,y,-z
-x,-y,-z
x,y,-z
-x,y,z
x,-y,z
1/2+x,1/2+y,z
1/2-x,1/2-y,z
1/2+x,1/2-y,-z
1/2-x,1/2+y,-z
1/2-x,1/2-y,-z
1/2+x,1/2+y,-z
1/2-x,1/2+y,z
1/2+x,1/2-y,z
loop_
_atom_site_type_symbol
_atom_site_label
_atom_site_fract_x
_atom_site_fract_y
_atom_site_fract_z
Si Si1 0.000000 0.060444 0.393976
Si Si2 0.407240 0.251221 0.891247
Si Si3 0.911456 0.802686 0.609927
Si Si4 0.346605 0.560415 0.728295
Si Si5 0.243742 0.131349 0.613040
Si Si6 0.407461 0.370066 0.889618
Si Si7 0.829633 0.717688 0.713149
O O1 0.078323 0.076700 0.336756
O O2 0.000000 0.087778 0.500000
O O3 0.000000 0.000000 0.410809
O O4 0.500000 0.235946 0.882941
O O5 0.394418 0.310622 0.857190
O O6 0.352656 0.213362 0.825762
O O7 0.377637 0.244139 0.000000
O O8 0.903848 0.787574 0.500000
O O9 0.841046 0.841655 0.637753
O O10 0.903194 0.748347 0.665209
O O11 0.000000 0.826674 0.633813
O O12 0.343445 0.500000 0.752508
O O13 0.266697 0.576364 0.667648
O O14 0.351704 0.592051 0.827624
O O15 0.259905 0.124573 0.500000
O O16 0.317198 0.162201 0.662295
O O17 0.500000 0.385747 0.876123
O O18 0.382159 0.376648 0.000000
O O19 0.750000 0.750000 0.695485
#
# Coordination Sequence:
#
# PCOD8265968 Si02
#       7
#     8  16  16  16  16  16  16
#     4   9  18  30  43  61  83 109 150 206 253 283
#     4   9  18  32  51  74  98 126 158 192 233 284
#     4   9  17  28  44  65  88 117 152 190 234 283
#     4  11  21  32  46  64  87 122 166 210 250 283
#     4  10  21  33  45  64  93 127 162 198 242 294
#     4   9  17  30  47  68  94 122 155 196 240 285
#     4  10  18  29  45  65  92 125 155 190 231 281
#
# _framework density 17.258319
#
# number of rings (size 3 to 8) (size 9 to 14) (size 15 to 20)
#    0.000    2.385    0.769    4.154    1.077    4.615 
#    0.000    1.538    0.000    0.000    0.000    0.000 
#    0.000    2.462    0.000    9.231    0.000    0.154 
#
# Total GULP energy -644594.010482 kJ/mol
# GULP energy per Si atom -12396.038663 kJ/mol
# Density = 1.721904 g / cm^3
# Si number density = 17.258319 Si / 1000 Ang^3
#
#
#
# Elastic Constant Matrix: (Units=GPa)
#
#
# Indices 1 2 3 4 5 6 
#
# 1 24.7971 19.6602 20.2904 0.0000 0.0000 0.0000
# 2 19.6602 51.7947 42.3179 0.0000 0.0000 0.0000
# 3 20.2904 42.3179 96.7500 0.0000 0.0000 0.0000
# 4 0.0000 0.0000 0.0000 23.5829 0.0000 0.0000
# 5 0.0000 0.0000 0.0000 0.0000 31.3475 0.0000
# 6 0.0000 0.0000 0.0000 0.0000 0.0000 23.3979
#
#
#
# Elastic Compliance Matrix: (Units=1/GPa)
#
#
# Indices 1 2 3 4 5 6 
#
# 1 0.058661 -0.019008 -0.003988 0.000000 0.000000 0.000000
# 2 -0.019008 0.036203 -0.011848 0.000000 0.000000 0.000000
# 3 -0.003988 -0.011848 0.016355 0.000000 0.000000 0.000000
# 4 0.000000 0.000000 0.000000 0.042404 0.000000 0.000000
# 5 0.000000 0.000000 0.000000 0.000000 0.031900 0.000000
# 6 0.000000 0.000000 0.000000 0.000000 0.000000 0.042739
#
#
# Mechanical properties :
#
#
# Convention : Reuss Voigt Hill
#
# Bulk Modulus (GPa) = 24.07963 37.54212 30.81088
# Shear Modulus (GPa) = 16.03624 21.73723 18.88673
#
# Velocity S-wave (km/s) = 3.05157 3.55282 3.31169
# Velocity P-wave (km/s) = 5.13798 6.21533 5.70216
#
# Compressibility (1/GPa) = 0.04152887
#
# Stress axis : x y z
#
# Youngs Moduli (GPa) = 17.04708 27.62236 61.14400
#
# Poissons Ratio (x) = 0.52504 0.24387
# Poissons Ratio (y) = 0.32403 0.72446
# Poissons Ratio (z) = 0.06799 0.32728
#
# Static dielectric constant tensor:
#      x y z
#    x 3.013040 0.000000 0.000000 
#    y 0.000000 3.046060 0.000000 
#    z 0.000000 0.000000 3.382000 
# 
# 
# High freq. dielectric constant tensor:
#      x y z
#    x 1.621720 0.000000 0.000000 
#    y 0.000000 1.633040 0.000000 
#    z 0.000000 0.000000 1.687980 
# 
# From -- ./inp_files/43090.got.cif
#   From: 2010.03.12/outbox.cif.g09.slc.cpg/sg65_22_cif.got.tgz:43090.got - 2010.04.10 20:52:16.
