data_PCOD8265082
_publ_section_title
;
Structure prediction by ZEFSAII (Michael W. Deem and Ramdas Pophale) SiO2 
 PCOD8265082
Probable space group: C M M M
;
_chemical_formula_sum "Si O2"
_cell_formula_units_Z 60
_cell_length_a 5.314659
_cell_length_b 16.898789
_cell_length_c 33.722315
_cell_angle_alpha 90.000000
_cell_angle_beta 90.000000
_cell_angle_gamma 90.000000
_cell_volume 3028.644984
_symmetry_space_group_name_H-M "C M M M"
_symmetry_group_IT_number 65
_symmetry_cell_setting 'orthorhombic'
loop_
_space_group_symop_operation_xyz
x,y,z
-x,-y,z
x,-y,-z
-x,y,-z
-x,-y,-z
x,y,-z
-x,y,z
x,-y,z
1/2+x,1/2+y,z
1/2-x,1/2-y,z
1/2+x,1/2-y,-z
1/2-x,1/2+y,-z
1/2-x,1/2-y,-z
1/2+x,1/2+y,-z
1/2-x,1/2+y,z
1/2+x,1/2-y,z
loop_
_atom_site_type_symbol
_atom_site_label
_atom_site_fract_x
_atom_site_fract_y
_atom_site_fract_z
Si Si1 0.000000 0.199198 0.000000
Si Si2 0.500000 0.157403 0.704884
Si Si3 0.500000 0.093304 0.791555
Si Si4 0.500000 0.332828 0.579189
Si Si5 0.000000 0.342219 0.546241
Si Si6 0.500000 0.697638 0.914147
Si Si7 0.500000 0.407295 0.161465
Si Si8 0.500000 0.332523 0.671920
O O1 0.250000 0.250000 0.000000
O O2 0.000000 0.153264 0.042359
O O3 0.500000 0.142457 0.751345
O O4 0.500000 0.250720 0.696102
O O5 0.750073 0.119004 0.684797
O O6 0.749414 0.119282 0.815246
O O7 0.500000 0.000000 0.782294
O O8 0.750763 0.380773 0.566345
O O9 0.500000 0.251282 0.554755
O O10 0.500000 0.314081 0.625539
O O11 0.000000 0.360411 0.500000
O O12 0.750000 0.750000 0.909007
O O13 0.500000 0.629783 0.881767
O O14 0.500000 0.500000 0.154874
#
# Coordination Sequence:
#
# PCOD8265082 Si02
#       8
#     4   8   8   8   8   8   8   8
#     4   8  16  30  53  74 111 140 168 206 260 302
#     4  10  18  32  45  65  87 114 156 194 233 284
#     4  10  21  37  54  69  95 134 167 199 254 304
#     4  10  16  25  36  51  78 112 147 175 223 278
#     4  10  16  22  33  51  75 110 155 182 200 255
#     4  10  19  35  54  84 107 140 176 216 253 306
#     4  10  21  38  54  74 105 139 170 210 259 315
#     4  10  19  30  45  65  90 119 150 192 245 284
#
# _framework density 19.810839999999999
#
# number of rings (size 3 to 8) (size 9 to 14) (size 15 to 20)
#    0.000    2.133    0.000    7.600    0.000    0.000 
#   14.400    0.333    0.000    0.000    0.000    8.400 
#    0.000    0.000    0.000    0.000    0.000  375.333 
#
# Total GULP energy -371699.667196 kJ/mol
# GULP energy per Si atom -12389.988907 kJ/mol
# Density = 1.976575 g / cm^3
# Si number density = 19.810840 Si / 1000 Ang^3
#
#
#
# Elastic Constant Matrix: (Units=GPa)
#
#
# Indices 1 2 3 4 5 6 
#
# 1 235.4793 16.1579 79.2990 0.0000 0.0000 0.0000
# 2 16.1579 15.0561 37.5960 0.0000 0.0000 0.0000
# 3 79.2990 37.5960 196.3979 0.0000 0.0000 0.0000
# 4 0.0000 0.0000 0.0000 -2.0489 0.0000 0.0000
# 5 0.0000 0.0000 0.0000 0.0000 36.5883 0.0000
# 6 0.0000 0.0000 0.0000 0.0000 0.0000 5.6544
#
#
#
# Elastic Compliance Matrix: (Units=1/GPa)
#
#
# Indices 1 2 3 4 5 6 
#
# 1 0.004918 -0.000612 -0.001869 0.000000 0.000000 0.000000
# 2 -0.000612 0.127315 -0.024125 0.000000 0.000000 0.000000
# 3 -0.001869 -0.024125 0.010464 0.000000 0.000000 0.000000
# 4 0.000000 0.000000 0.000000 -0.488062 0.000000 0.000000
# 5 0.000000 0.000000 0.000000 0.000000 0.027331 0.000000
# 6 0.000000 0.000000 0.000000 0.000000 0.000000 0.176853
#
#
# Mechanical properties :
#
#
# Convention : Reuss Voigt Hill
#
# Bulk Modulus (GPa) = 11.17476 79.22656 45.20066
# Shear Modulus (GPa) = -85.99696 28.96413 -28.51642
#
# Velocity S-wave (km/s) = -6.59570 3.82780 -3.79810
# Velocity P-wave (km/s) = 7.23543 7.72104 1.90566
#
# Compressibility (1/GPa) = 0.08948738
#
# Stress axis : x y z
#
# Youngs Moduli (GPa) = 203.33932 7.85451 95.56321
#
# Poissons Ratio (x) = 0.00481 0.17856
# Poissons Ratio (y) = 0.12443 2.30542
# Poissons Ratio (z) = 0.37995 0.18949
#
# Static dielectric constant tensor:
#      x y z
#    x 6.555770 0.000000 0.000000 
#    y 0.000000 2.787410 0.000000 
#    z 0.000000 0.000000 3.785470 
# 
# 
# High freq. dielectric constant tensor:
#      x y z
#    x 1.821450 0.000000 0.000000 
#    y 0.000000 1.682620 0.000000 
#    z 0.000000 0.000000 1.790270 
# 
# From -- ./inp_files/72371.got.cif
#   From: 2010.03.12/outbox.cif.g09.slc.cpg/sg65_37_cif.got.tgz:72371.got - 2010.04.10 20:52:16.
