data_PCOD8265789
_publ_section_title
;
Structure prediction by ZEFSAII (Michael W. Deem and Ramdas Pophale) SiO2 
 PCOD8265789
Probable space group: C M M M
;
_chemical_formula_sum "Si O2"
_cell_formula_units_Z 120
_cell_length_a 28.582543
_cell_length_b 9.124552
_cell_length_c 28.332130
_cell_angle_alpha 90.000000
_cell_angle_beta 90.000000
_cell_angle_gamma 90.000000
_cell_volume 7389.101664
_symmetry_space_group_name_H-M "C M M M"
_symmetry_group_IT_number 65
_symmetry_cell_setting 'orthorhombic'
loop_
_space_group_symop_operation_xyz
x,y,z
-x,-y,z
x,-y,-z
-x,y,-z
-x,-y,-z
x,y,-z
-x,y,z
x,-y,z
1/2+x,1/2+y,z
1/2-x,1/2-y,z
1/2+x,1/2-y,-z
1/2-x,1/2+y,-z
1/2-x,1/2-y,-z
1/2+x,1/2+y,-z
1/2-x,1/2+y,z
1/2+x,1/2-y,z
loop_
_atom_site_type_symbol
_atom_site_label
_atom_site_fract_x
_atom_site_fract_y
_atom_site_fract_z
Si Si1 0.296828 0.172466 0.280623
Si Si2 0.946419 0.169198 0.054507
Si Si3 0.887221 0.173098 0.311095
Si Si4 0.054209 0.830708 0.219405
Si Si5 0.203855 0.670486 0.828561
Si Si6 0.604473 0.826606 0.135276
Si Si7 0.447648 0.324696 0.398862
Si Si8 0.944429 0.160591 0.500000
O O1 0.250000 0.250000 0.299144
O O2 0.339041 0.239306 0.310357
O O3 0.304885 0.211623 0.225854
O O4 0.293279 0.000000 0.289335
O O5 0.911717 0.269175 0.084561
O O6 0.000000 0.211433 0.065837
O O7 0.937869 0.000000 0.067293
O O8 0.935104 0.199158 0.000000
O O9 0.918319 0.216761 0.266152
O O10 0.913444 0.229726 0.357864
O O11 0.877510 0.000000 0.312278
O O12 0.071114 0.736324 0.175475
O O13 0.000000 0.798906 0.228794
O O14 0.063075 0.000000 0.207124
O O15 0.212906 0.500000 0.834990
O O16 0.250000 0.750000 0.848608
O O17 0.158194 0.723417 0.857113
O O18 0.600337 0.000000 0.137124
O O19 0.500000 0.267837 0.387460
O O20 0.448275 0.500000 0.401197
O O21 0.430208 0.261145 0.450266
O O22 0.000000 0.144201 0.500000
O O23 0.921023 0.000000 0.500000
#
# Coordination Sequence:
#
# PCOD8265789 Si02
#       8
#    16  16  16  16  16  16  16   8
#     4  10  19  33  49  66  91 121 156 195 235 280
#     4   9  19  36  55  74  97 126 161 197 230 270
#     4  10  18  28  44  67  94 125 158 193 233 276
#     4  10  20  31  43  63  94 131 164 188 217 267
#     4   9  19  33  49  69  93 120 153 192 232 274
#     4  11  21  33  49  73  99 123 154 194 237 277
#     4   8  13  22  38  62  93 126 160 197 234 275
#     4   7  10  18  34  58  88 121 156 197 240 273
#
# _framework density 16.240133
#
# number of rings (size 3 to 8) (size 9 to 14) (size 15 to 20)
#    0.000    2.600    1.333    2.800    0.000    5.600 
#    0.000    0.667    0.000    1.600    0.000    0.933 
#    0.000    1.600    0.000    0.000    0.000    0.000 
#
# Total GULP energy -743832.727397 kJ/mol
# GULP energy per Si atom -12397.212123 kJ/mol
# Density = 1.620317 g / cm^3
# Si number density = 16.240133 Si / 1000 Ang^3
#
#
#
# Elastic Constant Matrix: (Units=GPa)
#
#
# Indices 1 2 3 4 5 6 
#
# 1 123.4827 43.0304 60.9127 0.0000 0.0000 0.0000
# 2 43.0304 44.0649 32.7622 0.0000 0.0000 0.0000
# 3 60.9127 32.7622 101.7021 0.0000 0.0000 0.0000
# 4 0.0000 0.0000 0.0000 9.6633 0.0000 0.0000
# 5 0.0000 0.0000 0.0000 0.0000 15.9112 0.0000
# 6 0.0000 0.0000 0.0000 0.0000 0.0000 27.5809
#
#
#
# Elastic Compliance Matrix: (Units=1/GPa)
#
#
# Indices 1 2 3 4 5 6 
#
# 1 0.014154 -0.009887 -0.005293 0.000000 0.000000 0.000000
# 2 -0.009887 0.036747 -0.005916 0.000000 0.000000 0.000000
# 3 -0.005293 -0.005916 0.014908 0.000000 0.000000 0.000000
# 4 0.000000 0.000000 0.000000 0.103485 0.000000 0.000000
# 5 0.000000 0.000000 0.000000 0.000000 0.062849 0.000000
# 6 0.000000 0.000000 0.000000 0.000000 0.000000 0.036257
#
#
# Mechanical properties :
#
#
# Convention : Reuss Voigt Hill
#
# Bulk Modulus (GPa) = 42.33929 60.29559 51.31744
# Shear Modulus (GPa) = 15.70029 19.46735 17.58382
#
# Velocity S-wave (km/s) = 3.11265 3.46601 3.29407
# Velocity P-wave (km/s) = 6.24864 7.29560 6.79232
#
# Compressibility (1/GPa) = 0.02361872
#
# Stress axis : x y z
#
# Youngs Moduli (GPa) = 70.64908 27.21276 67.07682
#
# Poissons Ratio (x) = 0.26906 0.35501
# Poissons Ratio (y) = 0.69852 0.39683
# Poissons Ratio (z) = 0.37391 0.16099
#
# Static dielectric constant tensor:
#      x y z
#    x 3.080160 0.000000 0.000000 
#    y 0.000000 2.870750 0.000000 
#    z 0.000000 0.000000 3.183560 
# 
# 
# High freq. dielectric constant tensor:
#      x y z
#    x 1.617750 0.000000 0.000000 
#    y 0.000000 1.604690 0.000000 
#    z 0.000000 0.000000 1.615500 
# 
# From -- ./inp_files/76110.got.cif
#   From: 2010.03.12/outbox.cif.g09.slc.cpg/sg65_39_cif.got.tgz:76110.got - 2010.04.10 20:52:16.
