data_PCOD8265418
_publ_section_title
;
Structure prediction by ZEFSAII (Michael W. Deem and Ramdas Pophale) SiO2 
 PCOD8265418
Probable space group: C M M M
;
_chemical_formula_sum "Si O2"
_cell_formula_units_Z 80
_cell_length_a 25.319480
_cell_length_b 18.140101
_cell_length_c 11.934071
_cell_angle_alpha 90.000000
_cell_angle_beta 90.000000
_cell_angle_gamma 90.000000
_cell_volume 5481.294041
_symmetry_space_group_name_H-M "C M M M"
_symmetry_group_IT_number 65
_symmetry_cell_setting 'orthorhombic'
loop_
_space_group_symop_operation_xyz
x,y,z
-x,-y,z
x,-y,-z
-x,y,-z
-x,-y,-z
x,y,-z
-x,y,z
x,-y,z
1/2+x,1/2+y,z
1/2-x,1/2-y,z
1/2+x,1/2-y,-z
1/2-x,1/2+y,-z
1/2-x,1/2-y,-z
1/2+x,1/2+y,-z
1/2-x,1/2+y,z
1/2+x,1/2-y,z
loop_
_atom_site_type_symbol
_atom_site_label
_atom_site_fract_x
_atom_site_fract_y
_atom_site_fract_z
Si Si1 0.726139 0.863117 0.000000
Si Si2 0.803450 0.704171 0.374522
Si Si3 0.248433 0.583964 0.236509
Si Si4 0.335076 0.277724 0.000000
Si Si5 0.144401 0.174236 0.761894
Si Si6 0.561147 0.414852 0.627345
O O1 0.726696 0.913894 0.890198
O O2 0.674302 0.810609 0.000000
O O3 0.777552 0.812808 0.000000
O O4 0.824311 0.690005 0.500000
O O5 0.750000 0.750000 0.375484
O O6 0.793318 0.625991 0.315307
O O7 0.846729 0.750365 0.306382
O O8 0.252145 0.500000 0.277291
O O9 0.305982 0.619818 0.248000
O O10 0.367072 0.303995 0.890658
O O11 0.093127 0.134491 0.714129
O O12 0.579907 0.399015 0.500000
O O13 0.500000 0.394458 0.640638
O O14 0.570810 0.500000 0.656872
#
# Coordination Sequence:
#
# PCOD8265418 Si02
#       6
#     8  16  16   8  16  16
#     4   9  15  28  40  58  82 115 148 177 207 249
#     4   9  17  27  39  57  82 112 145 178 214 255
#     4  10  18  26  40  61  87 116 146 179 212 253
#     4   9  16  26  45  61  80 111 147 182 212 248
#     4  10  17  29  45  62  83 114 152 180 213 254
#     4   9  18  32  48  65  86 113 146 184 221 255
#
# _framework density 14.595094
#
# number of rings (size 3 to 8) (size 9 to 14) (size 15 to 20)
#    0.000    2.600    2.000    2.100    0.000    1.200 
#    0.000    2.000    0.000    1.200    0.000    0.000 
#    0.000    0.800    0.000    6.000    0.000    0.000 
#
# Total GULP energy -495918.218498 kJ/mol
# GULP energy per Si atom -12397.955462 kJ/mol
# Density = 1.456187 g / cm^3
# Si number density = 14.595094 Si / 1000 Ang^3
#
#
#
# Elastic Constant Matrix: (Units=GPa)
#
#
# Indices 1 2 3 4 5 6 
#
# 1 46.5492 27.6378 35.9751 0.0000 0.0000 0.0000
# 2 27.6378 84.1898 40.9334 0.0000 0.0000 0.0000
# 3 35.9751 40.9334 121.7388 0.0000 0.0000 0.0000
# 4 0.0000 0.0000 0.0000 21.8725 0.0000 0.0000
# 5 0.0000 0.0000 0.0000 0.0000 20.0123 0.0000
# 6 0.0000 0.0000 0.0000 0.0000 0.0000 23.8468
#
#
#
# Elastic Compliance Matrix: (Units=1/GPa)
#
#
# Indices 1 2 3 4 5 6 
#
# 1 0.030780 -0.006793 -0.006812 0.000000 0.000000 0.000000
# 2 -0.006793 0.015698 -0.003271 0.000000 0.000000 0.000000
# 3 -0.006812 -0.003271 0.011327 0.000000 0.000000 0.000000
# 4 0.000000 0.000000 0.000000 0.045720 0.000000 0.000000
# 5 0.000000 0.000000 0.000000 0.000000 0.049969 0.000000
# 6 0.000000 0.000000 0.000000 0.000000 0.000000 0.041934
#
#
# Mechanical properties :
#
#
# Convention : Reuss Voigt Hill
#
# Bulk Modulus (GPa) = 41.57241 51.28559 46.42900
# Shear Modulus (GPa) = 21.07945 23.00842 22.04393
#
# Velocity S-wave (km/s) = 3.80450 3.97476 3.89056
# Velocity P-wave (km/s) = 6.91698 7.50201 7.21543
#
# Compressibility (1/GPa) = 0.02405442
#
# Stress axis : x y z
#
# Youngs Moduli (GPa) = 32.48847 63.70157 88.28323
#
# Poissons Ratio (x) = 0.43269 0.60138
# Poissons Ratio (y) = 0.22068 0.28878
# Poissons Ratio (z) = 0.22131 0.20837
#
# Static dielectric constant tensor:
#      x y z
#    x 2.402400 0.000000 0.000000 
#    y 0.000000 2.749220 0.000000 
#    z 0.000000 0.000000 3.091280 
# 
# 
# High freq. dielectric constant tensor:
#      x y z
#    x 1.503450 0.000000 0.000000 
#    y 0.000000 1.551360 0.000000 
#    z 0.000000 0.000000 1.573600 
# 
# From -- ./inp_files/27039.got.cif
#   From: 2010.03.12/outbox.cif.g09.slc.cpg/sg65_14_cif.got.tgz:27039.got - 2010.04.10 20:52:16.
