data_PCOD8265798
_publ_section_title
;
Structure prediction by ZEFSAII (Michael W. Deem and Ramdas Pophale) SiO2 
 PCOD8265798
Probable space group: C M M M
;
_chemical_formula_sum "Si O2"
_cell_formula_units_Z 88
_cell_length_a 7.684600
_cell_length_b 27.138863
_cell_length_c 23.245656
_cell_angle_alpha 90.000000
_cell_angle_beta 90.000000
_cell_angle_gamma 90.000000
_cell_volume 4847.911932
_symmetry_space_group_name_H-M "C M M M"
_symmetry_group_IT_number 65
_symmetry_cell_setting 'orthorhombic'
loop_
_space_group_symop_operation_xyz
x,y,z
-x,-y,z
x,-y,-z
-x,y,-z
-x,-y,-z
x,y,-z
-x,y,z
x,-y,z
1/2+x,1/2+y,z
1/2-x,1/2-y,z
1/2+x,1/2-y,-z
1/2-x,1/2+y,-z
1/2-x,1/2-y,-z
1/2+x,1/2+y,-z
1/2-x,1/2+y,z
1/2+x,1/2-y,z
loop_
_atom_site_type_symbol
_atom_site_label
_atom_site_fract_x
_atom_site_fract_y
_atom_site_fract_z
Si Si1 0.797946 0.806494 0.665272
Si Si2 0.797685 0.693323 0.000000
Si Si3 0.000000 0.443225 0.606034
Si Si4 0.196411 0.806761 0.877057
Si Si5 0.000000 0.557342 0.258377
Si Si6 0.798655 0.124382 0.434462
Si Si7 0.790248 0.129950 0.227449
O O1 0.750000 0.750000 0.668024
O O2 0.731736 0.830779 0.605836
O O3 0.725039 0.835661 0.720135
O O4 0.000000 0.812192 0.668190
O O5 0.750000 0.750000 0.000000
O O6 0.723679 0.670199 0.941015
O O7 0.000000 0.685196 0.000000
O O8 0.000000 0.433701 0.673695
O O9 0.175819 0.421918 0.577969
O O10 0.000000 0.500000 0.590175
O O11 0.250000 0.750000 0.873813
O O12 0.282540 0.842068 0.829641
O O13 0.000000 0.807863 0.859038
O O14 0.178522 0.579879 0.231897
O O15 0.000000 0.500000 0.242334
O O16 0.777042 0.142100 0.500000
O O17 0.000000 0.109683 0.421562
O O18 0.000000 0.118800 0.227548
#
# Coordination Sequence:
#
# PCOD8265798 Si02
#       7
#    16   8   8  16   8  16  16
#     4  10  21  35  54  80 110 147 185 225 271 326
#     4  10  18  28  44  72 114 157 194 231 267 321
#     4  11  23  40  63  88 107 142 188 235 293 340
#     4  10  19  31  50  79 115 157 191 229 275 326
#     4  11  24  39  64  86 110 147 183 235 297 337
#     4  10  22  40  57  79 114 147 182 229 279 337
#     4  10  22  38  57  83 114 145 187 232 280 337
#
# _framework density 18.152145000000001
#
# number of rings (size 3 to 8) (size 9 to 14) (size 15 to 20)
#    0.000    1.818    1.818    3.273    5.091    1.818 
#    0.000    2.727    0.000    0.000    0.000    1.273 
#    0.000    2.909    0.000    0.000    0.000    0.000 
#
# Total GULP energy -545286.294786 kJ/mol
# GULP energy per Si atom -12392.870336 kJ/mol
# Density = 1.811083 g / cm^3
# Si number density = 18.152145 Si / 1000 Ang^3
#
#
#
# Elastic Constant Matrix: (Units=GPa)
#
#
# Indices 1 2 3 4 5 6 
#
# 1 72.6157 41.1547 33.2795 0.0000 0.0000 0.0000
# 2 41.1547 113.9717 65.5635 0.0000 0.0000 0.0000
# 3 33.2795 65.5635 154.1198 0.0000 0.0000 0.0000
# 4 0.0000 0.0000 0.0000 24.2668 0.0000 0.0000
# 5 0.0000 0.0000 0.0000 0.0000 14.6611 0.0000
# 6 0.0000 0.0000 0.0000 0.0000 0.0000 29.7015
#
#
#
# Elastic Compliance Matrix: (Units=1/GPa)
#
#
# Indices 1 2 3 4 5 6 
#
# 1 0.017555 -0.005506 -0.001449 0.000000 0.000000 0.000000
# 2 -0.005506 0.013344 -0.004488 0.000000 0.000000 0.000000
# 3 -0.001449 -0.004488 0.008710 0.000000 0.000000 0.000000
# 4 0.000000 0.000000 0.000000 0.041208 0.000000 0.000000
# 5 0.000000 0.000000 0.000000 0.000000 0.068208 0.000000
# 6 0.000000 0.000000 0.000000 0.000000 0.000000 0.033668
#
#
# Mechanical properties :
#
#
# Convention : Reuss Voigt Hill
#
# Bulk Modulus (GPa) = 59.78926 68.96694 64.37810
# Shear Modulus (GPa) = 23.67946 27.10652 25.39299
#
# Velocity S-wave (km/s) = 3.61570 3.86851 3.74424
# Velocity P-wave (km/s) = 7.10214 7.61775 7.36446
#
# Compressibility (1/GPa) = 0.01672541
#
# Stress axis : x y z
#
# Youngs Moduli (GPa) = 56.96237 74.94100 114.80639
#
# Poissons Ratio (x) = 0.41262 0.16630
# Poissons Ratio (y) = 0.31363 0.51521
# Poissons Ratio (z) = 0.08251 0.33631
#
# Static dielectric constant tensor:
#      x y z
#    x 3.654910 0.000000 0.000000 
#    y 0.000000 2.908870 0.000000 
#    z 0.000000 0.000000 3.882740 
# 
# 
# High freq. dielectric constant tensor:
#      x y z
#    x 1.715080 0.000000 0.000000 
#    y 0.000000 1.665780 0.000000 
#    z 0.000000 0.000000 1.718240 
# 
# From -- ./inp_files/59869.got.cif
#   From: 2010.03.12/outbox.cif.g09.slc.cpg/sg65_30_cif.got.tgz:59869.got - 2010.04.10 20:52:16.
