data_PCOD8265265
_publ_section_title
;
Structure prediction by ZEFSAII (Michael W. Deem and Ramdas Pophale) SiO2 
 PCOD8265265
Probable space group: C M M M
;
_chemical_formula_sum "Si O2"
_cell_formula_units_Z 88
_cell_length_a 31.773681
_cell_length_b 17.729305
_cell_length_c 11.665246
_cell_angle_alpha 90.000000
_cell_angle_beta 90.000000
_cell_angle_gamma 90.000000
_cell_volume 6571.327986
_symmetry_space_group_name_H-M "C M M M"
_symmetry_group_IT_number 65
_symmetry_cell_setting 'orthorhombic'
loop_
_space_group_symop_operation_xyz
x,y,z
-x,-y,z
x,-y,-z
-x,y,-z
-x,-y,-z
x,y,-z
-x,y,z
x,-y,z
1/2+x,1/2+y,z
1/2-x,1/2-y,z
1/2+x,1/2-y,-z
1/2-x,1/2+y,-z
1/2-x,1/2-y,-z
1/2+x,1/2+y,-z
1/2-x,1/2+y,z
1/2+x,1/2-y,z
loop_
_atom_site_type_symbol
_atom_site_label
_atom_site_fract_x
_atom_site_fract_y
_atom_site_fract_z
Si Si1 0.084229 0.910549 0.746371
Si Si2 0.000000 0.089524 0.130082
Si Si3 0.742755 0.412585 0.261687
Si Si4 0.291466 0.799759 0.126113
Si Si5 0.887922 0.910956 0.500000
Si Si6 0.834799 0.846585 0.135164
Si Si7 0.293286 0.410395 0.500000
O O1 0.040622 0.881574 0.800412
O O2 0.086576 0.885244 0.613132
O O3 0.120831 0.870659 0.815814
O O4 0.089400 0.000000 0.759227
O O5 0.000000 0.000000 0.125680
O O6 0.000000 0.121806 0.000000
O O7 0.754914 0.500000 0.262044
O O8 0.783709 0.367582 0.215431
O O9 0.701820 0.400080 0.183740
O O10 0.732045 0.382324 0.388811
O O11 0.250000 0.750000 0.116818
O O12 0.327874 0.741985 0.167454
O O13 0.302028 0.833500 0.000000
O O14 0.840668 0.876196 0.500000
O O15 0.883502 0.000000 0.500000
O O16 0.834474 0.857950 0.000000
O O17 0.296776 0.500000 0.500000
#
# Coordination Sequence:
#
# PCOD8265265 Si02
#       7
#    16   8  16  16   8  16   8
#     4  10  18  28  42  56  74  99 126 156 189 225
#     4   9  18  29  39  57  79  92 116 160 193 218
#     4  10  17  26  40  54  71  97 126 157 190 220
#     4   8  16  28  37  51  75  95 119 157 192 221
#     4   9  16  27  39  54  74  95 126 162 187 214
#     4  10  18  27  39  54  74  99 124 154 192 225
#     4   9  16  26  37  54  76  94 122 165 191 210
#
# _framework density 13.391508999999999
#
# number of rings (size 3 to 8) (size 9 to 14) (size 15 to 20)
#    0.000    2.636    1.818    2.727    0.000    3.636 
#    0.000    6.818    0.000    0.000    0.000    0.000 
#    0.000    0.000    0.000    0.818    0.000    9.091 
#
# Total GULP energy -545367.959322 kJ/mol
# GULP energy per Si atom -12394.726348 kJ/mol
# Density = 1.336103 g / cm^3
# Si number density = 13.391509 Si / 1000 Ang^3
#
#
#
# Elastic Constant Matrix: (Units=GPa)
#
#
# Indices 1 2 3 4 5 6 
#
# 1 64.3080 29.6047 40.5751 0.0000 0.0000 0.0000
# 2 29.6047 40.9905 36.5176 0.0000 0.0000 0.0000
# 3 40.5751 36.5176 112.8008 0.0000 0.0000 0.0000
# 4 0.0000 0.0000 0.0000 11.6535 0.0000 0.0000
# 5 0.0000 0.0000 0.0000 0.0000 20.3751 0.0000
# 6 0.0000 0.0000 0.0000 0.0000 0.0000 14.8782
#
#
#
# Elastic Compliance Matrix: (Units=1/GPa)
#
#
# Indices 1 2 3 4 5 6 
#
# 1 0.024744 -0.013971 -0.004378 0.000000 0.000000 0.000000
# 2 -0.013971 0.042172 -0.008627 0.000000 0.000000 0.000000
# 3 -0.004378 -0.008627 0.013233 0.000000 0.000000 0.000000
# 4 0.000000 0.000000 0.000000 0.085811 0.000000 0.000000
# 5 0.000000 0.000000 0.000000 0.000000 0.049080 0.000000
# 6 0.000000 0.000000 0.000000 0.000000 0.000000 0.067213
#
#
# Mechanical properties :
#
#
# Convention : Reuss Voigt Hill
#
# Bulk Modulus (GPa) = 38.17207 47.94380 43.05793
# Shear Modulus (GPa) = 14.49548 16.80815 15.65181
#
# Velocity S-wave (km/s) = 3.29361 3.54663 3.42246
# Velocity P-wave (km/s) = 6.55976 7.25609 6.91669
#
# Compressibility (1/GPa) = 0.02619717
#
# Stress axis : x y z
#
# Youngs Moduli (GPa) = 40.41412 23.71254 75.57013
#
# Poissons Ratio (x) = 0.33128 0.33082
# Poissons Ratio (y) = 0.56462 0.65195
# Poissons Ratio (z) = 0.17692 0.20457
#
# Static dielectric constant tensor:
#      x y z
#    x 2.628940 0.000000 0.000000 
#    y 0.000000 2.543400 0.000000 
#    z 0.000000 0.000000 2.984630 
# 
# 
# High freq. dielectric constant tensor:
#      x y z
#    x 1.481720 0.000000 0.000000 
#    y 0.000000 1.465240 0.000000 
#    z 0.000000 0.000000 1.529840 
# 
# From -- ./inp_files/34079.got.cif
#   From: 2010.03.12/outbox.cif.g09.slc.cpg/sg65_18_cif.got.tgz:34079.got - 2010.04.10 20:52:16.
