data_PCOD8265896
_publ_section_title
;
Structure prediction by ZEFSAII (Michael W. Deem and Ramdas Pophale) SiO2 
 PCOD8265896
Probable space group: C M M M
;
_chemical_formula_sum "Si O2"
_cell_formula_units_Z 88
_cell_length_a 13.673582
_cell_length_b 16.767399
_cell_length_c 21.303252
_cell_angle_alpha 90.000000
_cell_angle_beta 90.000000
_cell_angle_gamma 90.000000
_cell_volume 4884.205217
_symmetry_space_group_name_H-M "C M M M"
_symmetry_group_IT_number 65
_symmetry_cell_setting 'orthorhombic'
loop_
_space_group_symop_operation_xyz
x,y,z
-x,-y,z
x,-y,-z
-x,y,-z
-x,-y,-z
x,y,-z
-x,y,z
x,-y,z
1/2+x,1/2+y,z
1/2-x,1/2-y,z
1/2+x,1/2-y,-z
1/2-x,1/2+y,-z
1/2-x,1/2-y,-z
1/2+x,1/2+y,-z
1/2-x,1/2+y,z
1/2+x,1/2-y,z
loop_
_atom_site_type_symbol
_atom_site_label
_atom_site_fract_x
_atom_site_fract_y
_atom_site_fract_z
Si Si1 0.388251 0.658091 0.697836
Si Si2 0.218852 0.407640 0.623688
Si Si3 0.610990 0.839499 0.263057
Si Si4 0.609349 0.594679 0.069305
Si Si5 0.610838 0.095070 0.500000
Si Si6 0.223364 0.092782 0.811598
O O1 0.500000 0.639147 0.680058
O O2 0.319910 0.639043 0.637863
O O3 0.372475 0.749418 0.715788
O O4 0.356376 0.603605 0.756494
O O5 0.244533 0.500000 0.615557
O O6 0.142303 0.397444 0.680407
O O7 0.168818 0.373086 0.560877
O O8 0.500000 0.857055 0.244063
O O9 0.678157 0.857852 0.202765
O O10 0.500000 0.628763 0.080109
O O11 0.605226 0.500000 0.074456
O O12 0.680724 0.628034 0.123241
O O13 0.647416 0.620342 0.000000
O O14 0.500000 0.129431 0.500000
O O15 0.606089 0.000000 0.500000
O O16 0.249520 0.000000 0.817435
#
# Coordination Sequence:
#
# PCOD8265896 Si02
#       6
#    16  16  16  16   8  16
#     4  10  20  33  48  68  98 129 155 189 236 288
#     4  10  19  32  52  74  94 119 156 199 237 277
#     4  10  20  33  48  67  95 129 159 191 234 280
#     4   8  14  25  42  67  98 126 153 191 239 286
#     4   9  18  32  50  73  99 125 155 194 238 280
#     4  10  18  28  48  74  95 119 156 200 239 278
#
# _framework density 18.017261999999999
#
# number of rings (size 3 to 8) (size 9 to 14) (size 15 to 20)
#    0.000    2.455    0.000    6.000    0.000    4.364 
#    0.000    2.273    0.000    6.545    0.000    5.091 
#    0.000    0.000    0.000    0.000    0.000    0.000 
#
# Total GULP energy -545514.634138 kJ/mol
# GULP energy per Si atom -12398.059867 kJ/mol
# Density = 1.797625 g / cm^3
# Si number density = 18.017262 Si / 1000 Ang^3
#
#
#
# Elastic Constant Matrix: (Units=GPa)
#
#
# Indices 1 2 3 4 5 6 
#
# 1 177.3923 37.0842 87.5922 0.0000 0.0000 0.0000
# 2 37.0842 43.8458 13.5159 0.0000 0.0000 0.0000
# 3 87.5922 13.5159 138.6966 0.0000 0.0000 0.0000
# 4 0.0000 0.0000 0.0000 9.9045 0.0000 0.0000
# 5 0.0000 0.0000 0.0000 0.0000 33.5985 0.0000
# 6 0.0000 0.0000 0.0000 0.0000 0.0000 20.4907
#
#
#
# Elastic Compliance Matrix: (Units=1/GPa)
#
#
# Indices 1 2 3 4 5 6 
#
# 1 0.009717 -0.006523 -0.005501 0.000000 0.000000 0.000000
# 2 -0.006523 0.027892 0.001401 0.000000 0.000000 0.000000
# 3 -0.005501 0.001401 0.010548 0.000000 0.000000 0.000000
# 4 0.000000 0.000000 0.000000 0.100964 0.000000 0.000000
# 5 0.000000 0.000000 0.000000 0.000000 0.029763 0.000000
# 6 0.000000 0.000000 0.000000 0.000000 0.000000 0.048803
#
#
# Mechanical properties :
#
#
# Convention : Reuss Voigt Hill
#
# Bulk Modulus (GPa) = 37.15857 70.70214 53.93035
# Shear Modulus (GPa) = 19.38718 27.58157 23.48438
#
# Velocity S-wave (km/s) = 3.28385 3.91684 3.61423
# Velocity P-wave (km/s) = 5.92004 7.73189 6.88582
#
# Compressibility (1/GPa) = 0.02691169
#
# Stress axis : x y z
#
# Youngs Moduli (GPa) = 102.91061 35.85235 94.80846
#
# Poissons Ratio (x) = 0.23386 0.52155
# Poissons Ratio (y) = 0.67127 -0.13286
# Poissons Ratio (z) = 0.56612 -0.05024
#
# Static dielectric constant tensor:
#      x y z
#    x 3.478540 0.000000 0.000000 
#    y 0.000000 3.094270 0.000000 
#    z 0.000000 0.000000 3.468710 
# 
# 
# High freq. dielectric constant tensor:
#      x y z
#    x 1.699170 0.000000 0.000000 
#    y 0.000000 1.675310 0.000000 
#    z 0.000000 0.000000 1.686500 
# 
# From -- ./inp_files/62489.got.cif
#   From: 2010.03.12/outbox.cif.g09.slc.cpg/sg65_32_cif.got.tgz:62489.got - 2010.04.10 20:52:16.
