data_PCOD8265070
_publ_section_title
;
Structure prediction by ZEFSAII (Michael W. Deem and Ramdas Pophale) SiO2 
 PCOD8265070
Probable space group: C M M M
;
_chemical_formula_sum "Si O2"
_cell_formula_units_Z 80
_cell_length_a 8.758551
_cell_length_b 25.682312
_cell_length_c 23.377583
_cell_angle_alpha 90.000000
_cell_angle_beta 90.000000
_cell_angle_gamma 90.000000
_cell_volume 5258.549767
_symmetry_space_group_name_H-M "C M M M"
_symmetry_group_IT_number 65
_symmetry_cell_setting 'orthorhombic'
loop_
_space_group_symop_operation_xyz
x,y,z
-x,-y,z
x,-y,-z
-x,y,-z
-x,-y,-z
x,y,-z
-x,y,z
x,-y,z
1/2+x,1/2+y,z
1/2-x,1/2-y,z
1/2+x,1/2-y,-z
1/2-x,1/2+y,-z
1/2-x,1/2-y,-z
1/2+x,1/2+y,-z
1/2-x,1/2+y,z
1/2+x,1/2-y,z
loop_
_atom_site_type_symbol
_atom_site_label
_atom_site_fract_x
_atom_site_fract_y
_atom_site_fract_z
Si Si1 0.819308 0.605642 0.565154
Si Si2 0.317943 0.192106 0.000000
Si Si3 0.322363 0.193732 0.350958
Si Si4 0.318659 0.307928 0.886368
Si Si5 0.177905 0.306303 0.775111
Si Si6 0.671717 0.500000 0.432050
O O1 0.764622 0.614889 0.500000
O O2 0.754298 0.653113 0.603182
O O3 0.754425 0.551820 0.590768
O O4 0.000000 0.602245 0.569131
O O5 0.250000 0.250000 0.000000
O O6 0.253464 0.163906 0.942586
O O7 0.500000 0.192793 0.000000
O O8 0.500000 0.201949 0.361513
O O9 0.250000 0.250000 0.360153
O O10 0.294478 0.168663 0.287538
O O11 0.500000 0.307188 0.891319
O O12 0.250000 0.250000 0.883130
O O13 0.263776 0.336611 0.827487
O O14 0.250000 0.250000 0.769517
O O15 0.000000 0.302423 0.790489
O O16 0.500000 0.500000 0.408892
O O17 0.679749 0.500000 0.500000
#
# Coordination Sequence:
#
# PCOD8265070 Si02
#       6
#    16   8  16  16  16   8
#     4   9  17  30  46  62  81 106 133 162 200 245
#     4  10  16  22  30  42  60  82 110 147 190 227
#     4   9  18  29  41  58  80 106 136 167 199 238
#     4  10  16  22  31  44  61  83 114 151 189 225
#     4   9  15  24  35  47  65  91 123 156 188 224
#     4   9  17  29  45  65  83  99 125 162 201 240
#
# _framework density 15.21332
#
# number of rings (size 3 to 8) (size 9 to 14) (size 15 to 20)
#    0.000    2.700    0.000    6.000    0.000    3.200 
#    0.000    0.000    0.000    0.000    0.000    0.000 
#    0.000    0.000    0.000    0.000    0.000    1.000 
#
# Total GULP energy -495539.710572 kJ/mol
# GULP energy per Si atom -12388.492764 kJ/mol
# Density = 1.517869 g / cm^3
# Si number density = 15.213320 Si / 1000 Ang^3
#
#
#
# Elastic Constant Matrix: (Units=GPa)
#
#
# Indices 1 2 3 4 5 6 
#
# 1 89.9105 24.0521 46.4524 0.0000 0.0000 0.0000
# 2 24.0521 61.9752 49.1968 0.0000 0.0000 0.0000
# 3 46.4524 49.1968 120.8599 0.0000 0.0000 0.0000
# 4 0.0000 0.0000 0.0000 1.1507 0.0000 0.0000
# 5 0.0000 0.0000 0.0000 0.0000 20.9052 0.0000
# 6 0.0000 0.0000 0.0000 0.0000 0.0000 12.7789
#
#
#
# Elastic Compliance Matrix: (Units=1/GPa)
#
#
# Indices 1 2 3 4 5 6 
#
# 1 0.014001 -0.001717 -0.004682 0.000000 0.000000 0.000000
# 2 -0.001717 0.024049 -0.009129 0.000000 0.000000 0.000000
# 3 -0.004682 -0.009129 0.013790 0.000000 0.000000 0.000000
# 4 0.000000 0.000000 0.000000 0.869050 0.000000 0.000000
# 5 0.000000 0.000000 0.000000 0.000000 0.047835 0.000000
# 6 0.000000 0.000000 0.000000 0.000000 0.000000 0.078254
#
#
# Mechanical properties :
#
#
# Convention : Reuss Voigt Hill
#
# Bulk Modulus (GPa) = 48.11754 56.90536 52.51145
# Shear Modulus (GPa) = 4.60845 17.16989 10.88917
#
# Velocity S-wave (km/s) = 1.74235 3.36312 2.67828
# Velocity P-wave (km/s) = 5.97871 7.25031 6.64499
#
# Compressibility (1/GPa) = 0.02078244
#
# Stress axis : x y z
#
# Youngs Moduli (GPa) = 71.42593 41.58224 72.51690
#
# Poissons Ratio (x) = 0.07138 0.33955
# Poissons Ratio (y) = 0.12261 0.66204
# Poissons Ratio (z) = 0.33444 0.37962
#
# Static dielectric constant tensor:
#      x y z
#    x 3.002130 0.000000 0.000000 
#    y 0.000000 2.484430 0.000000 
#    z 0.000000 0.000000 4.336270 
# 
# 
# High freq. dielectric constant tensor:
#      x y z
#    x 1.595430 0.000000 0.000000 
#    y 0.000000 1.501940 0.000000 
#    z 0.000000 0.000000 1.599660 
# 
# From -- ./inp_files/67986.got.cif
#   From: 2010.03.12/outbox.cif.g09.slc.cpg/sg65_34_cif.got.tgz:67986.got - 2010.04.10 20:52:16.
