data_PCOD8265761
_publ_section_title
;
Structure prediction by ZEFSAII (Michael W. Deem and Ramdas Pophale) SiO2 
 PCOD8265761
Probable space group: C M M M
;
_chemical_formula_sum "Si O2"
_cell_formula_units_Z 80
_cell_length_a 23.306389
_cell_length_b 26.151899
_cell_length_c 8.939289
_cell_angle_alpha 90.000000
_cell_angle_beta 90.000000
_cell_angle_gamma 90.000000
_cell_volume 5448.553242
_symmetry_space_group_name_H-M "C M M M"
_symmetry_group_IT_number 65
_symmetry_cell_setting 'orthorhombic'
loop_
_space_group_symop_operation_xyz
x,y,z
-x,-y,z
x,-y,-z
-x,y,-z
-x,-y,-z
x,y,-z
-x,y,z
x,-y,z
1/2+x,1/2+y,z
1/2-x,1/2-y,z
1/2+x,1/2-y,-z
1/2-x,1/2+y,-z
1/2-x,1/2-y,-z
1/2+x,1/2+y,-z
1/2-x,1/2+y,z
1/2+x,1/2-y,z
loop_
_atom_site_type_symbol
_atom_site_label
_atom_site_fract_x
_atom_site_fract_y
_atom_site_fract_z
Si Si1 0.375981 0.764651 0.828502
Si Si2 0.886562 0.559288 0.172222
Si Si3 0.500000 0.206292 0.168995
Si Si4 0.000000 0.599787 0.676845
Si Si5 0.708765 0.298637 0.334400
Si Si6 0.184680 0.641801 0.322753
O O1 0.444252 0.758146 0.806084
O O2 0.344802 0.712379 0.774691
O O3 0.356967 0.813233 0.732239
O O4 0.359228 0.774491 0.000000
O O5 0.871900 0.500000 0.188734
O O6 0.944512 0.571885 0.258878
O O7 0.832884 0.589394 0.242887
O O8 0.894422 0.575450 0.000000
O O9 0.500000 0.159299 0.282529
O O10 0.500000 0.183878 0.000000
O O11 0.000000 0.593873 0.500000
O O12 0.684127 0.309054 0.500000
O O13 0.750000 0.250000 0.337021
O O14 0.748620 0.346117 0.281208
O O15 0.176769 0.637014 0.500000
#
# Coordination Sequence:
#
# PCOD8265761 Si02
#       6
#    16  16   8   8  16  16
#     4  10  18  28  44  63  85 113 143 174 213 258
#     4  11  23  36  48  62  83 111 144 186 228 261
#     4  10  20  31  43  62  90 117 143 181 218 249
#     4  12  23  33  48  63  80 112 150 185 223 261
#     4   8  16  29  43  61  85 107 134 175 215 253
#     4  10  19  31  46  63  83 108 140 180 220 258
#
# _framework density 14.682796
#
# number of rings (size 3 to 8) (size 9 to 14) (size 15 to 20)
#    0.000    2.000    2.000    4.200    0.000    8.000 
#    0.000    0.000    0.000    0.000    0.000    0.000 
#    0.000    0.000    0.000    0.900    0.000   17.600 
#
# Total GULP energy -495896.072734 kJ/mol
# GULP energy per Si atom -12397.401818 kJ/mol
# Density = 1.464938 g / cm^3
# Si number density = 14.682796 Si / 1000 Ang^3
#
#
#
# Elastic Constant Matrix: (Units=GPa)
#
#
# Indices 1 2 3 4 5 6 
#
# 1 91.6927 51.2150 53.4807 0.0000 0.0000 0.0000
# 2 51.2150 62.2384 43.9152 0.0000 0.0000 0.0000
# 3 53.4807 43.9152 105.7624 0.0000 0.0000 0.0000
# 4 0.0000 0.0000 0.0000 17.6900 0.0000 0.0000
# 5 0.0000 0.0000 0.0000 0.0000 21.7138 0.0000
# 6 0.0000 0.0000 0.0000 0.0000 0.0000 18.2101
#
#
#
# Elastic Compliance Matrix: (Units=1/GPa)
#
#
# Indices 1 2 3 4 5 6 
#
# 1 0.021965 -0.014480 -0.005095 0.000000 0.000000 0.000000
# 2 -0.014480 0.032271 -0.006078 0.000000 0.000000 0.000000
# 3 -0.005095 -0.006078 0.014555 0.000000 0.000000 0.000000
# 4 0.000000 0.000000 0.000000 0.056529 0.000000 0.000000
# 5 0.000000 0.000000 0.000000 0.000000 0.046054 0.000000
# 6 0.000000 0.000000 0.000000 0.000000 0.000000 0.054914
#
#
# Mechanical properties :
#
#
# Convention : Reuss Voigt Hill
#
# Bulk Modulus (GPa) = 57.18686 61.87947 59.53317
# Shear Modulus (GPa) = 17.64149 18.92829 18.28489
#
# Velocity S-wave (km/s) = 3.47004 3.59437 3.53275
# Velocity P-wave (km/s) = 7.42211 7.71114 7.56800
#
# Compressibility (1/GPa) = 0.01748653
#
# Stress axis : x y z
#
# Youngs Moduli (GPa) = 45.52598 30.98742 68.70521
#
# Poissons Ratio (x) = 0.44871 0.35003
# Poissons Ratio (y) = 0.65923 0.41756
# Poissons Ratio (z) = 0.23194 0.18833
#
# Static dielectric constant tensor:
#      x y z
#    x 3.083160 0.000000 0.000000 
#    y 0.000000 2.727380 0.000000 
#    z 0.000000 0.000000 3.040380 
# 
# 
# High freq. dielectric constant tensor:
#      x y z
#    x 1.550940 0.000000 0.000000 
#    y 0.000000 1.518020 0.000000 
#    z 0.000000 0.000000 1.579580 
# 
# From -- ./inp_files/14225.got.cif
#   From: 2010.03.12/outbox.cif.g09.slc.cpg/sg65_8_cif.got.tgz:14225.got - 2010.04.10 20:52:16.
