data_PCOD8265578
_publ_section_title
;
Structure prediction by ZEFSAII (Michael W. Deem and Ramdas Pophale) SiO2 
 PCOD8265578
Probable space group: C M M M
;
_chemical_formula_sum "Si O2"
_cell_formula_units_Z 104
_cell_length_a 8.999132
_cell_length_b 27.204086
_cell_length_c 26.735821
_cell_angle_alpha 90.000000
_cell_angle_beta 90.000000
_cell_angle_gamma 90.000000
_cell_volume 6545.280847
_symmetry_space_group_name_H-M "C M M M"
_symmetry_group_IT_number 65
_symmetry_cell_setting 'orthorhombic'
loop_
_space_group_symop_operation_xyz
x,y,z
-x,-y,z
x,-y,-z
-x,y,-z
-x,-y,-z
x,y,-z
-x,y,z
x,-y,z
1/2+x,1/2+y,z
1/2-x,1/2-y,z
1/2+x,1/2-y,-z
1/2-x,1/2+y,-z
1/2-x,1/2-y,-z
1/2+x,1/2+y,-z
1/2-x,1/2+y,z
1/2+x,1/2-y,z
loop_
_atom_site_type_symbol
_atom_site_label
_atom_site_fract_x
_atom_site_fract_y
_atom_site_fract_z
Si Si1 0.830097 0.852437 0.249501
Si Si2 0.670002 0.555539 0.311209
Si Si3 0.825152 0.198352 0.352826
Si Si4 0.323956 0.055241 0.500000
Si Si5 0.824244 0.393117 0.398911
Si Si6 0.673131 0.801864 0.052770
Si Si7 0.825635 0.697359 0.161068
O O1 0.797700 0.908881 0.264373
O O2 0.788974 0.817378 0.296035
O O3 0.727514 0.840771 0.202520
O O4 0.000000 0.844468 0.233599
O O5 0.500000 0.564024 0.329333
O O6 0.697669 0.500000 0.293194
O O7 0.779076 0.567681 0.356684
O O8 0.750000 0.250000 0.364520
O O9 0.757567 0.158636 0.390868
O O10 0.000000 0.201980 0.362137
O O11 0.500000 0.051240 0.500000
O O12 0.269385 0.084895 0.548504
O O13 0.256126 0.000000 0.500000
O O14 0.000000 0.384662 0.397179
O O15 0.500000 0.791360 0.053472
O O16 0.750000 0.750000 0.051210
O O17 0.715868 0.826550 0.106203
O O18 0.714647 0.830549 0.000000
O O19 0.750000 0.750000 0.169178
O O20 0.000000 0.705353 0.167188
#
# Coordination Sequence:
#
# PCOD8265578 Si02
#       7
#    16  16  16   8  16  16  16
#     4   9  18  30  44  63  87 113 141 176 215 257
#     4   9  18  33  50  67  89 116 145 178 218 262
#     4  10  20  34  50  68  91 120 153 185 218 257
#     4   9  18  32  50  73  98 119 142 177 220 263
#     4  10  19  32  51  73  95 119 147 178 215 260
#     4   8  14  24  36  51  74 106 142 176 210 247
#     4  10  18  26  39  59  84 114 146 179 212 249
#
# _framework density 15.889310999999999
#
# number of rings (size 3 to 8) (size 9 to 14) (size 15 to 20)
#    0.000    2.692    0.000    3.231    0.000    5.846 
#    0.000    1.923    0.000    2.769    0.000    0.000 
#    0.000    0.615    0.000    7.692    0.000    0.000 
#
# Total GULP energy -644376.015558 kJ/mol
# GULP energy per Si atom -12391.846453 kJ/mol
# Density = 1.585315 g / cm^3
# Si number density = 15.889311 Si / 1000 Ang^3
#
#
#
# Elastic Constant Matrix: (Units=GPa)
#
#
# Indices 1 2 3 4 5 6 
#
# 1 59.6897 37.9939 48.0855 0.0000 0.0000 0.0000
# 2 37.9939 111.1092 62.3066 0.0000 0.0000 0.0000
# 3 48.0855 62.3066 138.2819 0.0000 0.0000 0.0000
# 4 0.0000 0.0000 0.0000 16.7075 0.0000 0.0000
# 5 0.0000 0.0000 0.0000 0.0000 18.9886 0.0000
# 6 0.0000 0.0000 0.0000 0.0000 0.0000 21.7360
#
#
#
# Elastic Compliance Matrix: (Units=1/GPa)
#
#
# Indices 1 2 3 4 5 6 
#
# 1 0.025152 -0.004946 -0.006518 0.000000 0.000000 0.000000
# 2 -0.004946 0.013016 -0.004145 0.000000 0.000000 0.000000
# 3 -0.006518 -0.004145 0.011366 0.000000 0.000000 0.000000
# 4 0.000000 0.000000 0.000000 0.059853 0.000000 0.000000
# 5 0.000000 0.000000 0.000000 0.000000 0.052663 0.000000
# 6 0.000000 0.000000 0.000000 0.000000 0.000000 0.046007
#
#
# Mechanical properties :
#
#
# Convention : Reuss Voigt Hill
#
# Bulk Modulus (GPa) = 54.59503 67.31697 60.95600
# Shear Modulus (GPa) = 20.37667 22.19941 21.28804
#
# Velocity S-wave (km/s) = 3.58497 3.74187 3.66426
# Velocity P-wave (km/s) = 7.18124 7.81838 7.50657
#
# Compressibility (1/GPa) = 0.01831669
#
# Stress axis : x y z
#
# Youngs Moduli (GPa) = 39.75801 76.83104 87.98490
#
# Poissons Ratio (x) = 0.37999 0.57347
# Poissons Ratio (y) = 0.19663 0.36467
# Poissons Ratio (z) = 0.25914 0.31844
#
# Static dielectric constant tensor:
#      x y z
#    x 2.996510 0.000000 0.000000 
#    y 0.000000 2.863430 0.000000 
#    z 0.000000 0.000000 3.390720 
# 
# 
# High freq. dielectric constant tensor:
#      x y z
#    x 1.615320 0.000000 0.000000 
#    y 0.000000 1.581030 0.000000 
#    z 0.000000 0.000000 1.611710 
# 
# From -- ./inp_files/73769.got.cif
#   From: 2010.03.12/outbox.cif.g09.slc.cpg/sg65_37_cif.got.tgz:73769.got - 2010.04.10 20:52:16.
