data_PCOD8265079
_publ_section_title
;
Structure prediction by ZEFSAII (Michael W. Deem and Ramdas Pophale) SiO2 
 PCOD8265079
Probable space group: C M M M
;
_chemical_formula_sum "Si O2"
_cell_formula_units_Z 104
_cell_length_a 27.692813
_cell_length_b 8.784720
_cell_length_c 27.172721
_cell_angle_alpha 90.000000
_cell_angle_beta 90.000000
_cell_angle_gamma 90.000000
_cell_volume 6610.405883
_symmetry_space_group_name_H-M "C M M M"
_symmetry_group_IT_number 65
_symmetry_cell_setting 'orthorhombic'
loop_
_space_group_symop_operation_xyz
x,y,z
-x,-y,z
x,-y,-z
-x,y,-z
-x,-y,-z
x,y,-z
-x,y,z
x,-y,z
1/2+x,1/2+y,z
1/2-x,1/2-y,z
1/2+x,1/2-y,-z
1/2-x,1/2+y,-z
1/2-x,1/2-y,-z
1/2+x,1/2+y,-z
1/2-x,1/2+y,z
1/2+x,1/2-y,z
loop_
_atom_site_type_symbol
_atom_site_label
_atom_site_fract_x
_atom_site_fract_y
_atom_site_fract_z
Si Si1 0.885976 0.323094 0.555572
Si Si2 0.646624 0.180653 0.300056
Si Si3 0.552881 0.820677 0.353028
Si Si4 0.302505 0.821523 0.095714
Si Si5 0.196261 0.819849 0.000000
Si Si6 0.199331 0.179561 0.390128
Si Si7 0.802066 0.322487 0.796609
O O1 0.902768 0.288517 0.500000
O O2 0.872695 0.500000 0.563083
O O3 0.929353 0.276023 0.592152
O O4 0.838881 0.225134 0.568035
O O5 0.592151 0.237254 0.312847
O O6 0.684421 0.256085 0.336993
O O7 0.660063 0.233410 0.244758
O O8 0.650365 0.000000 0.306828
O O9 0.500000 0.745699 0.343590
O O10 0.547822 0.000000 0.348547
O O11 0.250000 0.750000 0.098372
O O12 0.325631 0.786622 0.149481
O O13 0.299378 0.000000 0.084855
O O14 0.330524 0.740982 0.049824
O O15 0.250000 0.750000 0.000000
O O16 0.197459 0.000000 0.000000
O O17 0.250000 0.250000 0.406197
O O18 0.203779 0.000000 0.386694
O O19 0.792746 0.500000 0.791518
O O20 0.750000 0.250000 0.788337
#
# Coordination Sequence:
#
# PCOD8265079 Si02
#       7
#    16  16  16  16   8  16  16
#     4   9  18  32  48  66  87 108 133 166 200 236
#     4   9  17  30  45  63  86 109 137 171 203 239
#     4   8  14  26  46  69  88 106 130 162 200 241
#     4   9  15  23  33  47  68  97 133 168 201 233
#     4  10  16  22  32  46  66  96 133 170 203 231
#     4  11  21  32  46  63  84 111 140 167 199 239
#     4   9  17  26  38  56  79 107 137 170 203 235
#
# _framework density 15.732771
#
# number of rings (size 3 to 8) (size 9 to 14) (size 15 to 20)
#    0.000    2.769    0.000    4.846    0.000    3.385 
#    0.000    1.538    0.000    7.385    0.000    4.308 
#    0.000    0.000    0.000    0.692    0.000   18.846 
#
# Total GULP energy -644315.143155 kJ/mol
# GULP energy per Si atom -12390.675830 kJ/mol
# Density = 1.569696 g / cm^3
# Si number density = 15.732771 Si / 1000 Ang^3
#
#
#
# Elastic Constant Matrix: (Units=GPa)
#
#
# Indices 1 2 3 4 5 6 
#
# 1 84.3375 18.0366 45.4753 0.0000 0.0000 0.0000
# 2 18.0366 58.3118 31.4998 0.0000 0.0000 0.0000
# 3 45.4753 31.4998 148.9907 0.0000 0.0000 0.0000
# 4 0.0000 0.0000 0.0000 19.6748 0.0000 0.0000
# 5 0.0000 0.0000 0.0000 0.0000 9.3618 0.0000
# 6 0.0000 0.0000 0.0000 0.0000 0.0000 11.2145
#
#
#
# Elastic Compliance Matrix: (Units=1/GPa)
#
#
# Indices 1 2 3 4 5 6 
#
# 1 0.014475 -0.002360 -0.003919 0.000000 0.000000 0.000000
# 2 -0.002360 0.019745 -0.003454 0.000000 0.000000 0.000000
# 3 -0.003919 -0.003454 0.008638 0.000000 0.000000 0.000000
# 4 0.000000 0.000000 0.000000 0.050826 0.000000 0.000000
# 5 0.000000 0.000000 0.000000 0.000000 0.106818 0.000000
# 6 0.000000 0.000000 0.000000 0.000000 0.000000 0.089170
#
#
# Mechanical properties :
#
#
# Convention : Reuss Voigt Hill
#
# Bulk Modulus (GPa) = 42.75049 53.51815 48.13432
# Shear Modulus (GPa) = 15.77600 21.15876 18.46738
#
# Velocity S-wave (km/s) = 3.17005 3.67125 3.42982
# Velocity P-wave (km/s) = 6.37424 7.21537 6.80781
#
# Compressibility (1/GPa) = 0.02339155
#
# Stress axis : x y z
#
# Youngs Moduli (GPa) = 69.08417 50.64529 115.76340
#
# Poissons Ratio (x) = 0.11954 0.45369
# Poissons Ratio (y) = 0.16306 0.39986
# Poissons Ratio (z) = 0.27075 0.17494
#
# Static dielectric constant tensor:
#      x y z
#    x 2.914210 0.000000 0.000000 
#    y 0.000000 2.954940 0.000000 
#    z 0.000000 0.000000 3.909280 
# 
# 
# High freq. dielectric constant tensor:
#      x y z
#    x 1.554010 0.000000 0.000000 
#    y 0.000000 1.596060 0.000000 
#    z 0.000000 0.000000 1.615390 
# 
# From -- ./inp_files/78468.got.cif
#   From: 2010.03.12/outbox.cif.g09.slc.cpg/sg65_40_cif.got.tgz:78468.got - 2010.04.10 20:52:16.
