data_PCOD8265599
_publ_section_title
;
Structure prediction by ZEFSAII (Michael W. Deem and Ramdas Pophale) SiO2 
 PCOD8265599
Probable space group: C M M M
;
_chemical_formula_sum "Si O2"
_cell_formula_units_Z 96
_cell_length_a 26.597781
_cell_length_b 16.297998
_cell_length_c 17.304497
_cell_angle_alpha 90.000000
_cell_angle_beta 90.000000
_cell_angle_gamma 90.000000
_cell_volume 7501.336468
_symmetry_space_group_name_H-M "C M M M"
_symmetry_group_IT_number 65
_symmetry_cell_setting 'orthorhombic'
loop_
_space_group_symop_operation_xyz
x,y,z
-x,-y,z
x,-y,-z
-x,y,-z
-x,-y,-z
x,y,-z
-x,y,z
x,-y,z
1/2+x,1/2+y,z
1/2-x,1/2-y,z
1/2+x,1/2-y,-z
1/2-x,1/2+y,-z
1/2-x,1/2-y,-z
1/2+x,1/2+y,-z
1/2-x,1/2+y,z
1/2+x,1/2-y,z
loop_
_atom_site_type_symbol
_atom_site_label
_atom_site_fract_x
_atom_site_fract_y
_atom_site_fract_z
Si Si1 0.056175 0.908542 0.773031
Si Si2 0.059447 0.000000 0.915260
Si Si3 0.391075 0.000000 0.591575
Si Si4 0.721806 0.000000 0.408410
Si Si5 0.278649 0.665609 0.590774
Si Si6 0.889595 0.177152 0.357796
Si Si7 0.943907 0.903698 0.500000
Si Si8 0.557730 0.834579 0.591435
O O1 0.094954 0.852024 0.727479
O O2 0.000000 0.870478 0.767150
O O3 0.055434 0.000000 0.735623
O O4 0.073305 0.918833 0.863758
O O5 0.000000 0.000000 0.925765
O O6 0.085894 0.000000 0.000000
O O7 0.334642 0.000000 0.626246
O O8 0.422511 0.077882 0.620142
O O9 0.387451 0.000000 0.500000
O O10 0.749045 0.084004 0.380836
O O11 0.719546 0.000000 0.500000
O O12 0.290340 0.660244 0.500000
O O13 0.250000 0.750000 0.610164
O O14 0.330121 0.668528 0.637533
O O15 0.915695 0.123194 0.423272
O O16 0.906520 0.270532 0.366170
O O17 0.000000 0.864562 0.500000
O O18 0.947169 0.000000 0.500000
O O19 0.563960 0.822986 0.500000
O O20 0.500000 0.823770 0.616641
#
# Coordination Sequence:
#
# PCOD8265599 Si02
#       8
#    16   8   8   8  16  16   8  16
#     4   8  16  26  38  58  84 107 130 155 183 223
#     4   7  12  25  42  57  79 113 139 152 175 219
#     4   9  17  30  42  51  61  84 126 181 222 236
#     4   9  18  28  41  48  63  82 120 173 211 229
#     4  10  20  31  40  52  68  98 141 178 206 238
#     4  12  19  27  40  53  79 103 135 165 204 235
#     4  11  22  28  35  51  79 111 136 156 185 241
#     4  10  18  27  39  53  69  93 127 166 205 245
#
# _framework density 12.79772
#
# number of rings (size 3 to 8) (size 9 to 14) (size 15 to 20)
#    0.500    1.833    1.667    3.250    2.333    5.000 
#    0.000    0.000    0.000    0.000    0.000    0.000 
#    0.000    0.667    0.000    0.750    0.000   11.833 
#
# Total GULP energy -594821.041991 kJ/mol
# GULP energy per Si atom -12392.105041 kJ/mol
# Density = 1.276859 g / cm^3
# Si number density = 12.797720 Si / 1000 Ang^3
#
#
#
# Elastic Constant Matrix: (Units=GPa)
#
#
# Indices 1 2 3 4 5 6 
#
# 1 68.8626 22.4689 17.9452 0.0000 0.0000 0.0000
# 2 22.4689 76.8363 17.3715 0.0000 0.0000 0.0000
# 3 17.9452 17.3715 57.5908 0.0000 0.0000 0.0000
# 4 0.0000 0.0000 0.0000 4.4241 0.0000 0.0000
# 5 0.0000 0.0000 0.0000 0.0000 6.0117 0.0000
# 6 0.0000 0.0000 0.0000 0.0000 0.0000 19.7280
#
#
#
# Elastic Compliance Matrix: (Units=1/GPa)
#
#
# Indices 1 2 3 4 5 6 
#
# 1 0.016890 -0.004024 -0.004049 0.000000 0.000000 0.000000
# 2 -0.004024 0.014926 -0.003248 0.000000 0.000000 0.000000
# 3 -0.004049 -0.003248 0.019605 0.000000 0.000000 0.000000
# 4 0.000000 0.000000 0.000000 0.226033 0.000000 0.000000
# 5 0.000000 0.000000 0.000000 0.000000 0.166343 0.000000
# 6 0.000000 0.000000 0.000000 0.000000 0.000000 0.050689
#
#
# Mechanical properties :
#
#
# Convention : Reuss Voigt Hill
#
# Bulk Modulus (GPa) = 34.74803 35.42900 35.08851
# Shear Modulus (GPa) = 9.49268 15.73303 12.61286
#
# Velocity S-wave (km/s) = 2.72646 3.51003 3.14276
# Velocity P-wave (km/s) = 6.09279 6.64613 6.37547
#
# Compressibility (1/GPa) = 0.02877861
#
# Stress axis : x y z
#
# Youngs Moduli (GPa) = 59.20776 66.99856 51.00627
#
# Poissons Ratio (x) = 0.26957 0.20653
# Poissons Ratio (y) = 0.23822 0.16569
# Poissons Ratio (z) = 0.23974 0.21764
#
# Static dielectric constant tensor:
#      x y z
#    x 2.722880 0.000000 0.000000 
#    y 0.000000 2.679950 0.000000 
#    z 0.000000 0.000000 2.348070 
# 
# 
# High freq. dielectric constant tensor:
#      x y z
#    x 1.488620 0.000000 0.000000 
#    y 0.000000 1.490470 0.000000 
#    z 0.000000 0.000000 1.422510 
# 
# From -- ./inp_files/64801.got.cif
#   From: 2010.03.12/outbox.cif.g09.slc.cpg/sg65_33_cif.got.tgz:64801.got - 2010.04.10 20:52:16.
