data_PCOD8265647
_publ_section_title
;
Structure prediction by ZEFSAII (Michael W. Deem and Ramdas Pophale) SiO2 
 PCOD8265647
Probable space group: C M M M
;
_chemical_formula_sum "Si O2"
_cell_formula_units_Z 88
_cell_length_a 30.124031
_cell_length_b 23.741977
_cell_length_c 8.842742
_cell_angle_alpha 90.000000
_cell_angle_beta 90.000000
_cell_angle_gamma 90.000000
_cell_volume 6324.364902
_symmetry_space_group_name_H-M "C M M M"
_symmetry_group_IT_number 65
_symmetry_cell_setting 'orthorhombic'
loop_
_space_group_symop_operation_xyz
x,y,z
-x,-y,z
x,-y,-z
-x,y,-z
-x,-y,-z
x,y,-z
-x,y,z
x,-y,z
1/2+x,1/2+y,z
1/2-x,1/2-y,z
1/2+x,1/2-y,-z
1/2-x,1/2+y,-z
1/2-x,1/2-y,-z
1/2+x,1/2+y,-z
1/2-x,1/2+y,z
1/2+x,1/2-y,z
loop_
_atom_site_type_symbol
_atom_site_label
_atom_site_fract_x
_atom_site_fract_y
_atom_site_fract_z
Si Si1 0.249105 0.115432 0.320617
Si Si2 0.759811 0.000000 0.823100
Si Si3 0.165792 0.175949 0.176735
Si Si4 0.297846 0.777694 0.666629
Si Si5 0.850816 0.000000 0.669040
Si Si6 0.500000 0.563794 0.680141
Si Si7 0.907555 0.110611 0.326338
O O1 0.244317 0.110655 0.500000
O O2 0.201449 0.136376 0.260272
O O3 0.289017 0.158419 0.275697
O O4 0.262172 0.055482 0.249959
O O5 0.812248 0.000000 0.792261
O O6 0.750509 0.000000 0.000000
O O7 0.171883 0.241968 0.218784
O O8 0.116214 0.158525 0.226468
O O9 0.172390 0.167949 0.000000
O O10 0.320232 0.777645 0.500000
O O11 0.250000 0.750000 0.653888
O O12 0.881269 0.053241 0.693923
O O13 0.829749 0.000000 0.500000
O O14 0.500000 0.500000 0.747058
O O15 0.500000 0.558768 0.500000
O O16 0.542859 0.599010 0.735276
O O17 0.908273 0.130708 0.500000
#
# Coordination Sequence:
#
# PCOD8265647 Si02
#       7
#    16   8  16  16   8   8  16
#     4  10  19  31  44  57  77 104 133 162 197 239
#     4  12  22  28  39  61  85 105 131 165 201 242
#     4  11  20  28  41  60  80 100 128 166 206 244
#     4   8  16  30  45  58  73  98 130 162 197 237
#     4  10  18  27  42  56  74 105 133 164 205 247
#     4   9  16  28  45  63  75  95 135 176 209 244
#     4  10  18  29  45  60  76 100 134 171 209 251
#
# _framework density 13.914440000000001
#
# number of rings (size 3 to 8) (size 9 to 14) (size 15 to 20)
#    0.000    2.091    2.727    4.091    0.000    4.000 
#    0.000    0.455    0.000    0.545    0.000    0.000 
#    0.000    0.000    0.000    0.000    0.000    0.909 
#
# Total GULP energy -545439.734647 kJ/mol
# GULP energy per Si atom -12396.357606 kJ/mol
# Density = 1.388277 g / cm^3
# Si number density = 13.914440 Si / 1000 Ang^3
#
#
#
# Elastic Constant Matrix: (Units=GPa)
#
#
# Indices 1 2 3 4 5 6 
#
# 1 55.3297 42.7836 26.9210 0.0000 0.0000 0.0000
# 2 42.7836 105.7807 44.4523 0.0000 0.0000 0.0000
# 3 26.9210 44.4523 78.5052 0.0000 0.0000 0.0000
# 4 0.0000 0.0000 0.0000 15.2010 0.0000 0.0000
# 5 0.0000 0.0000 0.0000 0.0000 4.4325 0.0000
# 6 0.0000 0.0000 0.0000 0.0000 0.0000 191.5317
#
#
#
# Elastic Compliance Matrix: (Units=1/GPa)
#
#
# Indices 1 2 3 4 5 6 
#
# 1 0.027256 -0.009312 -0.004074 0.000000 0.000000 0.000000
# 2 -0.009312 0.015587 -0.005632 0.000000 0.000000 0.000000
# 3 -0.004074 -0.005632 0.017324 0.000000 0.000000 0.000000
# 4 0.000000 0.000000 0.000000 0.065785 0.000000 0.000000
# 5 0.000000 0.000000 0.000000 0.000000 0.225604 0.000000
# 6 0.000000 0.000000 0.000000 0.000000 0.000000 0.005221
#
#
# Mechanical properties :
#
#
# Convention : Reuss Voigt Hill
#
# Bulk Modulus (GPa) = 45.18651 51.99215 48.58933
# Shear Modulus (GPa) = 12.43189 50.59696 31.51443
#
# Velocity S-wave (km/s) = 2.99231 6.03671 4.76423
# Velocity P-wave (km/s) = 6.66960 9.27555 8.07835
#
# Compressibility (1/GPa) = 0.02213050
#
# Stress axis : x y z
#
# Youngs Moduli (GPa) = 36.68905 64.15729 57.72219
#
# Poissons Ratio (x) = 0.59742 0.23516
# Poissons Ratio (y) = 0.34164 0.32512
# Poissons Ratio (z) = 0.14947 0.36136
#
# Static dielectric constant tensor:
#      x y z
#    x 2.584000 0.000000 0.000000 
#    y 0.000000 3.057680 0.000000 
#    z 0.000000 0.000000 2.678620 
# 
# 
# High freq. dielectric constant tensor:
#      x y z
#    x 1.481720 0.000000 0.000000 
#    y 0.000000 1.524840 0.000000 
#    z 0.000000 0.000000 1.528680 
# 
# From -- ./inp_files/18826.got.cif
#   From: 2010.03.12/outbox.cif.g09.slc.cpg/sg65_10_cif.got.tgz:18826.got - 2010.04.10 20:52:16.
