data_PCOD8265253
_publ_section_title
;
Structure prediction by ZEFSAII (Michael W. Deem and Ramdas Pophale) SiO2 
 PCOD8265253
Probable space group: C M M M
;
_chemical_formula_sum "Si O2"
_cell_formula_units_Z 96
_cell_length_a 28.677756
_cell_length_b 26.263623
_cell_length_c 9.035708
_cell_angle_alpha 90.000000
_cell_angle_beta 90.000000
_cell_angle_gamma 90.000000
_cell_volume 6805.530563
_symmetry_space_group_name_H-M "C M M M"
_symmetry_group_IT_number 65
_symmetry_cell_setting 'orthorhombic'
loop_
_space_group_symop_operation_xyz
x,y,z
-x,-y,z
x,-y,-z
-x,y,-z
-x,-y,-z
x,y,-z
-x,y,z
x,-y,z
1/2+x,1/2+y,z
1/2-x,1/2-y,z
1/2+x,1/2-y,-z
1/2-x,1/2+y,-z
1/2-x,1/2-y,-z
1/2+x,1/2+y,-z
1/2-x,1/2+y,z
1/2+x,1/2-y,z
loop_
_atom_site_type_symbol
_atom_site_label
_atom_site_fract_x
_atom_site_fract_y
_atom_site_fract_z
Si Si1 0.718059 0.200212 0.336025
Si Si2 0.139417 0.941728 0.170128
Si Si3 0.447202 0.599746 0.672279
Si Si4 0.647939 0.259837 0.169933
Si Si5 0.806545 0.855090 0.324329
Si Si6 0.448880 0.295733 0.832020
O O1 0.698417 0.189976 0.500000
O O2 0.750000 0.250000 0.334736
O O3 0.673646 0.209010 0.229856
O O4 0.751617 0.153735 0.284872
O O5 0.087875 0.936050 0.238206
O O6 0.177545 0.908587 0.257271
O O7 0.155183 0.000000 0.185138
O O8 0.138053 0.924095 0.000000
O O9 0.434806 0.596165 0.500000
O O10 0.500000 0.581186 0.703582
O O11 0.440523 0.657829 0.721363
O O12 0.662343 0.310240 0.257408
O O13 0.591909 0.253810 0.191128
O O14 0.662169 0.266749 0.000000
O O15 0.813902 0.854790 0.500000
O O16 0.500000 0.270856 0.802519
O O17 0.446188 0.316985 0.000000
#
# Coordination Sequence:
#
# PCOD8265253 Si02
#       6
#    16  16  16  16  16  16
#     4   8  16  28  41  59  81 103 125 155 198 238
#     4  11  23  35  46  60  77 100 130 166 211 254
#     4  10  20  32  46  61  75  97 131 169 208 247
#     4  10  17  25  42  64  82 104 132 161 195 236
#     4  10  19  31  45  59  78 102 128 163 203 242
#     4   9  17  28  41  58  82 109 134 162 198 237
#
# _framework density 14.106175
#
# number of rings (size 3 to 8) (size 9 to 14) (size 15 to 20)
#    0.000    2.333    1.667    3.000    0.000    7.000 
#    0.000    1.667    0.000    0.000    0.000    0.000 
#    0.000    0.000    0.000    0.000    0.000    0.833 
#
# Total GULP energy -594921.063915 kJ/mol
# GULP energy per Si atom -12394.188832 kJ/mol
# Density = 1.407407 g / cm^3
# Si number density = 14.106175 Si / 1000 Ang^3
#
#
#
# Elastic Constant Matrix: (Units=GPa)
#
#
# Indices 1 2 3 4 5 6 
#
# 1 95.4205 46.9338 50.2712 0.0000 0.0000 0.0000
# 2 46.9338 45.7930 33.9920 0.0000 0.0000 0.0000
# 3 50.2712 33.9920 89.4346 0.0000 0.0000 0.0000
# 4 0.0000 0.0000 0.0000 15.6553 0.0000 0.0000
# 5 0.0000 0.0000 0.0000 0.0000 22.4777 0.0000
# 6 0.0000 0.0000 0.0000 0.0000 0.0000 21.2297
#
#
#
# Elastic Compliance Matrix: (Units=1/GPa)
#
#
# Indices 1 2 3 4 5 6 
#
# 1 0.022932 -0.019411 -0.005512 0.000000 0.000000 0.000000
# 2 -0.019411 0.046851 -0.006896 0.000000 0.000000 0.000000
# 3 -0.005512 -0.006896 0.016901 0.000000 0.000000 0.000000
# 4 0.000000 0.000000 0.000000 0.063876 0.000000 0.000000
# 5 0.000000 0.000000 0.000000 0.000000 0.044489 0.000000
# 6 0.000000 0.000000 0.000000 0.000000 0.000000 0.047104
#
#
# Mechanical properties :
#
#
# Convention : Reuss Voigt Hill
#
# Bulk Modulus (GPa) = 43.39375 54.78246 49.08810
# Shear Modulus (GPa) = 15.95039 18.50260 17.22649
#
# Velocity S-wave (km/s) = 3.36629 3.62562 3.49836
# Velocity P-wave (km/s) = 6.77778 7.51312 7.15490
#
# Compressibility (1/GPa) = 0.02304480
#
# Stress axis : x y z
#
# Youngs Moduli (GPa) = 43.60802 21.34425 59.16919
#
# Poissons Ratio (x) = 0.41432 0.32615
# Poissons Ratio (y) = 0.84648 0.40803
# Poissons Ratio (z) = 0.24037 0.14719
#
# Static dielectric constant tensor:
#      x y z
#    x 3.092390 0.000000 0.000000 
#    y 0.000000 2.472480 0.000000 
#    z 0.000000 0.000000 2.944880 
# 
# 
# High freq. dielectric constant tensor:
#      x y z
#    x 1.536380 0.000000 0.000000 
#    y 0.000000 1.479130 0.000000 
#    z 0.000000 0.000000 1.556810 
# 
# From -- ./inp_files/16930.got.cif
#   From: 2010.03.12/outbox.cif.g09.slc.cpg/sg65_9_cif.got.tgz:16930.got - 2010.04.10 20:52:16.
