data_PCOD8265735
_publ_section_title
;
Structure prediction by ZEFSAII (Michael W. Deem and Ramdas Pophale) SiO2 
 PCOD8265735
Probable space group: C M M M
;
_chemical_formula_sum "Si O2"
_cell_formula_units_Z 104
_cell_length_a 25.852690
_cell_length_b 18.613368
_cell_length_c 14.121365
_cell_angle_alpha 90.000000
_cell_angle_beta 90.000000
_cell_angle_gamma 90.000000
_cell_volume 6795.280380
_symmetry_space_group_name_H-M "C M M M"
_symmetry_group_IT_number 65
_symmetry_cell_setting 'orthorhombic'
loop_
_space_group_symop_operation_xyz
x,y,z
-x,-y,z
x,-y,-z
-x,y,-z
-x,-y,-z
x,y,-z
-x,y,z
x,-y,z
1/2+x,1/2+y,z
1/2-x,1/2-y,z
1/2+x,1/2-y,-z
1/2-x,1/2+y,-z
1/2-x,1/2-y,-z
1/2+x,1/2+y,-z
1/2-x,1/2+y,z
1/2+x,1/2-y,z
loop_
_atom_site_type_symbol
_atom_site_label
_atom_site_fract_x
_atom_site_fract_y
_atom_site_fract_z
Si Si1 0.500000 0.914635 0.107517
Si Si2 0.254411 0.419084 0.610637
Si Si3 0.304979 0.710561 0.299654
Si Si4 0.696358 0.083631 0.892541
Si Si5 0.853251 0.658094 0.610180
Si Si6 0.786811 0.183980 0.897885
Si Si7 0.401493 0.914717 0.226199
O O1 0.449996 0.887264 0.164886
O O2 0.500000 0.000000 0.101410
O O3 0.500000 0.883485 0.000000
O O4 0.264356 0.420189 0.500000
O O5 0.258630 0.500000 0.652634
O O6 0.298734 0.367836 0.653714
O O7 0.197352 0.389254 0.632661
O O8 0.250000 0.750000 0.298181
O O9 0.344930 0.758800 0.359258
O O10 0.325189 0.700327 0.190325
O O11 0.750612 0.118408 0.862329
O O12 0.649903 0.112008 0.827778
O O13 0.703540 0.000000 0.879366
O O14 0.682222 0.104499 0.000000
O O15 0.868391 0.655647 0.500000
O O16 0.900279 0.623590 0.670860
O O17 0.750000 0.250000 0.917673
O O18 0.814705 0.166585 0.000000
O O19 0.403883 0.000000 0.239614
#
# Coordination Sequence:
#
# PCOD8265735 Si02
#       7
#     8  16  16  16  16  16  16
#     4   9  18  32  47  63  83 103 125 158 200 244
#     4   9  16  25  38  56  77 104 140 177 205 228
#     4   9  16  26  38  52  74 104 134 166 204 238
#     4   9  16  25  38  56  76  99 130 166 199 231
#     4  10  19  29  40  55  76 103 137 173 203 233
#     4   9  16  24  34  50  72  96 124 159 195 230
#     4  10  18  28  43  60  77 100 130 162 198 237
#
# _framework density 15.304740000000001
#
# number of rings (size 3 to 8) (size 9 to 14) (size 15 to 20)
#    0.000    2.692    0.000    4.154    0.000    6.462 
#    0.000    1.154    0.000    1.385    0.000    0.000 
#    0.000    0.000    0.000    0.692    0.000    7.000 
#
# Total GULP energy -644393.158162 kJ/mol
# GULP energy per Si atom -12392.176119 kJ/mol
# Density = 1.526991 g / cm^3
# Si number density = 15.304740 Si / 1000 Ang^3
#
#
#
# Elastic Constant Matrix: (Units=GPa)
#
#
# Indices 1 2 3 4 5 6 
#
# 1 23.6381 18.7266 36.8660 0.0000 0.0000 0.0000
# 2 18.7266 67.8196 38.2369 0.0000 0.0000 0.0000
# 3 36.8660 38.2369 109.6796 0.0000 0.0000 0.0000
# 4 0.0000 0.0000 0.0000 23.8635 0.0000 0.0000
# 5 0.0000 0.0000 0.0000 0.0000 19.9469 0.0000
# 6 0.0000 0.0000 0.0000 0.0000 0.0000 10.5308
#
#
#
# Elastic Compliance Matrix: (Units=1/GPa)
#
#
# Indices 1 2 3 4 5 6 
#
# 1 0.094221 -0.010158 -0.028129 0.000000 0.000000 0.000000
# 2 -0.010158 0.019447 -0.003366 0.000000 0.000000 0.000000
# 3 -0.028129 -0.003366 0.019746 0.000000 0.000000 0.000000
# 4 0.000000 0.000000 0.000000 0.041905 0.000000 0.000000
# 5 0.000000 0.000000 0.000000 0.000000 0.050133 0.000000
# 6 0.000000 0.000000 0.000000 0.000000 0.000000 0.094959
#
#
# Mechanical properties :
#
#
# Convention : Reuss Voigt Hill
#
# Bulk Modulus (GPa) = 19.95603 43.19958 31.57780
# Shear Modulus (GPa) = 11.89289 18.02209 14.95749
#
# Velocity S-wave (km/s) = 2.79063 3.43527 3.12959
# Velocity P-wave (km/s) = 4.84261 6.63493 5.80832
#
# Compressibility (1/GPa) = 0.05011018
#
# Stress axis : x y z
#
# Youngs Moduli (GPa) = 10.61330 51.42114 50.64418
#
# Poissons Ratio (x) = 0.52231 1.42457
# Poissons Ratio (y) = 0.10780 0.17045
# Poissons Ratio (z) = 0.29854 0.17306
#
# Static dielectric constant tensor:
#      x y z
#    x 2.492390 0.000000 0.000000 
#    y 0.000000 4.195270 0.000000 
#    z 0.000000 0.000000 3.304810 
# 
# 
# High freq. dielectric constant tensor:
#      x y z
#    x 1.502810 0.000000 0.000000 
#    y 0.000000 1.578490 0.000000 
#    z 0.000000 0.000000 1.616370 
# 
# From -- ./inp_files/45934.got.cif
#   From: 2010.03.12/outbox.cif.g09.slc.cpg/sg65_23_cif.got.tgz:45934.got - 2010.04.10 20:52:16.
