data_PCOD8265747
_publ_section_title
;
Structure prediction by ZEFSAII (Michael W. Deem and Ramdas Pophale) SiO2 
 PCOD8265747
Probable space group: C M M M
;
_chemical_formula_sum "Si O2"
_cell_formula_units_Z 80
_cell_length_a 27.238429
_cell_length_b 9.165481
_cell_length_c 18.569843
_cell_angle_alpha 90.000000
_cell_angle_beta 90.000000
_cell_angle_gamma 90.000000
_cell_volume 4636.022650
_symmetry_space_group_name_H-M "C M M M"
_symmetry_group_IT_number 65
_symmetry_cell_setting 'orthorhombic'
loop_
_space_group_symop_operation_xyz
x,y,z
-x,-y,z
x,-y,-z
-x,y,-z
-x,-y,-z
x,y,-z
-x,y,z
x,-y,z
1/2+x,1/2+y,z
1/2-x,1/2-y,z
1/2+x,1/2-y,-z
1/2-x,1/2+y,-z
1/2-x,1/2-y,-z
1/2+x,1/2+y,-z
1/2-x,1/2+y,z
1/2+x,1/2-y,z
loop_
_atom_site_type_symbol
_atom_site_label
_atom_site_fract_x
_atom_site_fract_y
_atom_site_fract_z
Si Si1 0.201216 0.830455 0.709904
Si Si2 0.053667 0.173073 0.216304
Si Si3 0.150091 0.173551 0.146770
Si Si4 0.801863 0.826180 0.000000
Si Si5 0.943529 0.672843 0.500000
Si Si6 0.600879 0.330684 0.634843
O O1 0.250000 0.750000 0.683157
O O2 0.185308 0.770592 0.788917
O O3 0.158041 0.801420 0.652521
O O4 0.213324 0.000000 0.714963
O O5 0.094629 0.233031 0.160388
O O6 0.068143 0.217213 0.297159
O O7 0.000000 0.239312 0.197528
O O8 0.052193 0.000000 0.211068
O O9 0.149198 0.000000 0.149302
O O10 0.168748 0.230165 0.069903
O O11 0.750000 0.750000 0.000000
O O12 0.795176 0.000000 0.000000
O O13 0.940528 0.500000 0.500000
O O14 0.915275 0.731672 0.430822
O O15 0.000000 0.726709 0.500000
O O16 0.592360 0.500000 0.615654
#
# Coordination Sequence:
#
# PCOD8265747 Si02
#       6
#    16  16  16   8   8  16
#     4   9  17  30  48  69  92 119 154 193 228 264
#     4   8  13  24  44  67  89 115 149 188 225 261
#     4   8  15  26  40  63  93 120 149 186 225 266
#     4  10  18  28  43  63  91 123 150 182 225 268
#     4  11  23  35  48  71 100 121 140 179 232 275
#     4   9  18  32  50  70  90 118 157 190 218 266
#
# _framework density 17.256170999999998
#
# number of rings (size 3 to 8) (size 9 to 14) (size 15 to 20)
#    0.000    3.100    0.000    3.900    0.000    2.400 
#    0.000    1.000    0.000    4.200    0.000    0.000 
#    0.000    0.800    0.000    0.000    0.000    0.800 
#
# Total GULP energy -495785.676485 kJ/mol
# GULP energy per Si atom -12394.641912 kJ/mol
# Density = 1.721690 g / cm^3
# Si number density = 17.256171 Si / 1000 Ang^3
#
#
#
# Elastic Constant Matrix: (Units=GPa)
#
#
# Indices 1 2 3 4 5 6 
#
# 1 160.3804 38.0876 71.8627 0.0000 0.0000 0.0000
# 2 38.0876 32.9510 34.4379 0.0000 0.0000 0.0000
# 3 71.8627 34.4379 119.9459 0.0000 0.0000 0.0000
# 4 0.0000 0.0000 0.0000 11.6182 0.0000 0.0000
# 5 0.0000 0.0000 0.0000 0.0000 20.6048 0.0000
# 6 0.0000 0.0000 0.0000 0.0000 0.0000 24.0589
#
#
#
# Elastic Compliance Matrix: (Units=1/GPa)
#
#
# Indices 1 2 3 4 5 6 
#
# 1 0.009605 -0.007269 -0.003667 0.000000 0.000000 0.000000
# 2 -0.007269 0.048860 -0.009673 0.000000 0.000000 0.000000
# 3 -0.003667 -0.009673 0.013312 0.000000 0.000000 0.000000
# 4 0.000000 0.000000 0.000000 0.086071 0.000000 0.000000
# 5 0.000000 0.000000 0.000000 0.000000 0.048532 0.000000
# 6 0.000000 0.000000 0.000000 0.000000 0.000000 0.041565
#
#
# Mechanical properties :
#
#
# Convention : Reuss Voigt Hill
#
# Bulk Modulus (GPa) = 32.72576 66.89487 49.81031
# Shear Modulus (GPa) = 16.70287 22.51568 19.60927
#
# Velocity S-wave (km/s) = 3.11454 3.61611 3.37466
# Velocity P-wave (km/s) = 5.65152 7.50233 6.64171
#
# Compressibility (1/GPa) = 0.03055697
#
# Stress axis : x y z
#
# Youngs Moduli (GPa) = 104.11533 20.46665 75.12229
#
# Poissons Ratio (x) = 0.14877 0.27550
# Poissons Ratio (y) = 0.75682 0.72667
# Poissons Ratio (z) = 0.38183 0.19798
#
# Static dielectric constant tensor:
#      x y z
#    x 3.623720 0.000000 0.000000 
#    y 0.000000 2.759410 0.000000 
#    z 0.000000 0.000000 3.356360 
# 
# 
# High freq. dielectric constant tensor:
#      x y z
#    x 1.680290 0.000000 0.000000 
#    y 0.000000 1.620560 0.000000 
#    z 0.000000 0.000000 1.657850 
# 
# From -- ./inp_files/50168.got.cif
#   From: 2010.03.12/outbox.cif.g09.slc.cpg/sg65_26_cif.got.tgz:50168.got - 2010.04.10 20:52:16.
