data_PCOD8265417
_publ_section_title
;
Structure prediction by ZEFSAII (Michael W. Deem and Ramdas Pophale) SiO2 
 PCOD8265417
Probable space group: C M M M
;
_chemical_formula_sum "Si O2"
_cell_formula_units_Z 72
_cell_length_a 28.116893
_cell_length_b 19.191050
_cell_length_c 9.127675
_cell_angle_alpha 90.000000
_cell_angle_beta 90.000000
_cell_angle_gamma 90.000000
_cell_volume 4925.226793
_symmetry_space_group_name_H-M "C M M M"
_symmetry_group_IT_number 65
_symmetry_cell_setting 'orthorhombic'
loop_
_space_group_symop_operation_xyz
x,y,z
-x,-y,z
x,-y,-z
-x,y,-z
-x,-y,-z
x,y,-z
-x,y,z
x,-y,z
1/2+x,1/2+y,z
1/2-x,1/2-y,z
1/2+x,1/2-y,-z
1/2-x,1/2+y,-z
1/2-x,1/2-y,-z
1/2+x,1/2+y,-z
1/2-x,1/2+y,z
1/2+x,1/2-y,z
loop_
_atom_site_type_symbol
_atom_site_label
_atom_site_fract_x
_atom_site_fract_y
_atom_site_fract_z
Si Si1 0.000000 0.079144 0.326660
Si Si2 0.848172 0.000000 0.831441
Si Si3 0.728771 0.860099 0.326230
Si Si4 0.236297 0.500000 0.168919
Si Si5 0.180579 0.776633 0.671365
Si Si6 0.601300 0.624271 0.672308
O O1 0.953487 0.121909 0.273160
O O2 0.000000 0.073992 0.500000
O O3 0.000000 0.000000 0.262411
O O4 0.869044 0.933017 0.754929
O O5 0.792354 0.000000 0.808932
O O6 0.863241 0.000000 0.000000
O O7 0.728072 0.873791 0.500000
O O8 0.714988 0.931338 0.245275
O O9 0.780045 0.831540 0.269223
O O10 0.689680 0.802254 0.274421
O O11 0.221153 0.500000 0.000000
O O12 0.189478 0.775653 0.500000
O O13 0.126843 0.801889 0.710469
O O14 0.604103 0.608379 0.500000
#
# Coordination Sequence:
#
# PCOD8265417 Si02
#       6
#     8   8  16   8  16  16
#     4   9  16  24  40  66  84 101 138 173 199 234
#     4  11  21  28  36  57  84 110 141 171 200 240
#     4   9  16  28  44  61  77 102 139 171 199 239
#     4  11  21  29  38  60  87 109 135 168 207 246
#     4   8  15  26  43  62  78 101 138 173 200 233
#     4  10  17  29  45  58  79 110 141 172 201 233
#
# _framework density 14.618615999999999
#
# number of rings (size 3 to 8) (size 9 to 14) (size 15 to 20)
#    0.000    2.556    3.333    2.000    0.000    0.889 
#    0.000    4.444    0.000    0.000    0.000    0.000 
#    0.000    0.889    0.000   11.333    0.000    1.111 
#
# Total GULP energy -446062.647794 kJ/mol
# GULP energy per Si atom -12390.629105 kJ/mol
# Density = 1.458534 g / cm^3
# Si number density = 14.618616 Si / 1000 Ang^3
#
#
#
# Elastic Constant Matrix: (Units=GPa)
#
#
# Indices 1 2 3 4 5 6 
#
# 1 89.2332 55.7022 20.2788 0.0000 0.0000 0.0000
# 2 55.7022 126.7905 35.2446 0.0000 0.0000 0.0000
# 3 20.2788 35.2446 39.1000 0.0000 0.0000 0.0000
# 4 0.0000 0.0000 0.0000 -38.5145 0.0000 0.0000
# 5 0.0000 0.0000 0.0000 0.0000 9.3318 0.0000
# 6 0.0000 0.0000 0.0000 0.0000 0.0000 46.0916
#
#
#
# Elastic Compliance Matrix: (Units=1/GPa)
#
#
# Indices 1 2 3 4 5 6 
#
# 1 0.015631 -0.006156 -0.002558 0.000000 0.000000 0.000000
# 2 -0.006156 0.012948 -0.008479 0.000000 0.000000 0.000000
# 3 -0.002558 -0.008479 0.034545 0.000000 0.000000 0.000000
# 4 0.000000 0.000000 0.000000 -0.025964 0.000000 0.000000
# 5 0.000000 0.000000 0.000000 0.000000 0.107161 0.000000
# 6 0.000000 0.000000 0.000000 0.000000 0.000000 0.021696
#
#
# Mechanical properties :
#
#
# Convention : Reuss Voigt Hill
#
# Bulk Modulus (GPa) = 34.79629 53.06388 43.93009
# Shear Modulus (GPa) = 23.81165 12.97497 18.39331
#
# Velocity S-wave (km/s) = 4.04029 2.98243 3.55098
# Velocity P-wave (km/s) = 6.75423 6.94532 6.85044
#
# Compressibility (1/GPa) = 0.02873870
#
# Stress axis : x y z
#
# Youngs Moduli (GPa) = 63.97724 77.22966 28.94784
#
# Poissons Ratio (x) = 0.47542 0.07404
# Poissons Ratio (y) = 0.39384 0.24545
# Poissons Ratio (z) = 0.16364 0.65483
#
# Static dielectric constant tensor:
#      x y z
#    x 2.957200 0.000000 0.000000 
#    y 0.000000 2.671770 0.000000 
#    z 0.000000 0.000000 2.613290 
# 
# 
# High freq. dielectric constant tensor:
#      x y z
#    x 1.533190 0.000000 0.000000 
#    y 0.000000 1.550620 0.000000 
#    z 0.000000 0.000000 1.533870 
# 
# From -- ./inp_files/16210.got.cif
#   From: 2010.03.12/outbox.cif.g09.slc.cpg/sg65_9_cif.got.tgz:16210.got - 2010.04.10 20:52:16.
