data_PCOD8265778
_publ_section_title
;
Structure prediction by ZEFSAII (Michael W. Deem and Ramdas Pophale) SiO2 
 PCOD8265778
Probable space group: C M M M
;
_chemical_formula_sum "Si O2"
_cell_formula_units_Z 88
_cell_length_a 18.473847
_cell_length_b 29.570491
_cell_length_c 8.843263
_cell_angle_alpha 90.000000
_cell_angle_beta 90.000000
_cell_angle_gamma 90.000000
_cell_volume 4830.904136
_symmetry_space_group_name_H-M "C M M M"
_symmetry_group_IT_number 65
_symmetry_cell_setting 'orthorhombic'
loop_
_space_group_symop_operation_xyz
x,y,z
-x,-y,z
x,-y,-z
-x,y,-z
-x,-y,-z
x,y,-z
-x,y,z
x,-y,z
1/2+x,1/2+y,z
1/2-x,1/2-y,z
1/2+x,1/2-y,-z
1/2-x,1/2+y,-z
1/2-x,1/2-y,-z
1/2+x,1/2+y,-z
1/2-x,1/2+y,z
1/2+x,1/2-y,z
loop_
_atom_site_type_symbol
_atom_site_label
_atom_site_fract_x
_atom_site_fract_y
_atom_site_fract_z
Si Si1 0.355426 0.263834 0.175887
Si Si2 0.500000 0.834905 0.824805
Si Si3 0.702902 0.654671 0.322886
Si Si4 0.416678 0.407845 0.178834
Si Si5 0.000000 0.240920 0.322612
Si Si6 0.343443 0.842284 0.171538
Si Si7 0.585624 0.500000 0.669232
O O1 0.295000 0.293257 0.263603
O O2 0.431114 0.281765 0.243257
O O3 0.347568 0.210993 0.207071
O O4 0.349486 0.275386 0.000000
O O5 0.500000 0.794419 0.706144
O O6 0.575134 0.862872 0.799035
O O7 0.500000 0.816082 0.000000
O O8 0.692225 0.651320 0.500000
O O9 0.636340 0.630055 0.242919
O O10 0.782296 0.634669 0.277257
O O11 0.500000 0.398325 0.229168
O O12 0.387902 0.455554 0.243037
O O13 0.410610 0.409281 0.000000
O O14 0.000000 0.230533 0.500000
O O15 0.319678 0.851320 0.000000
O O16 0.500000 0.500000 0.662796
O O17 0.618584 0.500000 0.500000
#
# Coordination Sequence:
#
# PCOD8265778 Si02
#       7
#    16   8  16  16   8  16   8
#     4  10  20  34  49  63  88 129 170 207 250 303
#     4   8  16  32  52  68  86 119 160 201 242 294
#     4  12  24  33  46  71 102 129 161 210 259 297
#     4  10  21  37  56  76 100 135 174 207 244 298
#     4  10  18  28  44  66  88 113 154 205 248 290
#     4   9  18  34  52  69  91 126 169 208 251 303
#     4   9  17  33  57  81 105 130 159 200 249 299
#
# _framework density 18.216052000000001
#
# number of rings (size 3 to 8) (size 9 to 14) (size 15 to 20)
#    0.000    2.091    0.000    5.455    1.273    8.000 
#    0.000    0.000    0.000    0.000    0.000    0.000 
#    0.000    0.727    0.000    7.818    0.000    3.455 
#
# Total GULP energy -545298.587727 kJ/mol
# GULP energy per Si atom -12393.149721 kJ/mol
# Density = 1.817459 g / cm^3
# Si number density = 18.216052 Si / 1000 Ang^3
#
#
#
# Elastic Constant Matrix: (Units=GPa)
#
#
# Indices 1 2 3 4 5 6 
#
# 1 122.1007 14.3029 45.2292 0.0000 0.0000 0.0000
# 2 14.3029 30.5018 19.1808 0.0000 0.0000 0.0000
# 3 45.2292 19.1808 93.4432 0.0000 0.0000 0.0000
# 4 0.0000 0.0000 0.0000 18.9761 0.0000 0.0000
# 5 0.0000 0.0000 0.0000 0.0000 23.5059 0.0000
# 6 0.0000 0.0000 0.0000 0.0000 0.0000 10.1890
#
#
#
# Elastic Compliance Matrix: (Units=1/GPa)
#
#
# Indices 1 2 3 4 5 6 
#
# 1 0.010075 -0.001903 -0.004486 0.000000 0.000000 0.000000
# 2 -0.001903 0.038004 -0.006880 0.000000 0.000000 0.000000
# 3 -0.004486 -0.006880 0.014285 0.000000 0.000000 0.000000
# 4 0.000000 0.000000 0.000000 0.052698 0.000000 0.000000
# 5 0.000000 0.000000 0.000000 0.000000 0.042543 0.000000
# 6 0.000000 0.000000 0.000000 0.000000 0.000000 0.098146
#
#
# Mechanical properties :
#
#
# Convention : Reuss Voigt Hill
#
# Bulk Modulus (GPa) = 27.91274 44.83016 36.37145
# Shear Modulus (GPa) = 16.99360 21.68971 19.34166
#
# Velocity S-wave (km/s) = 3.05764 3.45438 3.26205
# Velocity P-wave (km/s) = 5.27465 6.36978 5.84791
#
# Compressibility (1/GPa) = 0.03582593
#
# Stress axis : x y z
#
# Youngs Moduli (GPa) = 99.26026 26.31327 70.00336
#
# Poissons Ratio (x) = 0.05008 0.31401
# Poissons Ratio (y) = 0.18893 0.48160
# Poissons Ratio (z) = 0.44525 0.18103
#
# Static dielectric constant tensor:
#      x y z
#    x 2.847650 0.000000 0.000000 
#    y 0.000000 2.915920 0.000000 
#    z 0.000000 0.000000 3.361330 
# 
# 
# High freq. dielectric constant tensor:
#      x y z
#    x 1.718550 0.000000 0.000000 
#    y 0.000000 1.637640 0.000000 
#    z 0.000000 0.000000 1.711740 
# 
# From -- ./inp_files/10207.got.cif
#   From: 2010.03.12/outbox.cif.g09.slc.cpg/sg65_6_cif.got.tgz:10207.got - 2010.04.10 20:52:16.
