data_PCOD8265907
_publ_section_title
;
Structure prediction by ZEFSAII (Michael W. Deem and Ramdas Pophale) SiO2 
 PCOD8265907
Probable space group: C M M M
;
_chemical_formula_sum "Si O2"
_cell_formula_units_Z 96
_cell_length_a 18.804167
_cell_length_b 20.260613
_cell_length_c 14.024417
_cell_angle_alpha 90.000000
_cell_angle_beta 90.000000
_cell_angle_gamma 90.000000
_cell_volume 5343.077790
_symmetry_space_group_name_H-M "C M M M"
_symmetry_group_IT_number 65
_symmetry_cell_setting 'orthorhombic'
loop_
_space_group_symop_operation_xyz
x,y,z
-x,-y,z
x,-y,-z
-x,y,-z
-x,-y,-z
x,y,-z
-x,y,z
x,-y,z
1/2+x,1/2+y,z
1/2-x,1/2-y,z
1/2+x,1/2-y,-z
1/2-x,1/2+y,-z
1/2-x,1/2-y,-z
1/2+x,1/2+y,-z
1/2-x,1/2+y,z
1/2+x,1/2-y,z
loop_
_atom_site_type_symbol
_atom_site_label
_atom_site_fract_x
_atom_site_fract_y
_atom_site_fract_z
Si Si1 0.287741 0.574153 0.196841
Si Si2 0.081903 0.873330 0.711796
Si Si3 0.919971 0.322357 0.000000
Si Si4 0.416722 0.339644 0.500000
Si Si5 0.421163 0.769889 0.799326
Si Si6 0.786336 0.422152 0.000000
Si Si7 0.823918 0.286225 0.500000
Si Si8 0.706206 0.818135 0.302147
O O1 0.261637 0.500000 0.214042
O O2 0.372360 0.578706 0.219209
O O3 0.263359 0.596295 0.090913
O O4 0.255219 0.620865 0.276964
O O5 0.105764 0.876526 0.599025
O O6 0.094876 0.800500 0.752918
O O7 0.000000 0.895115 0.721555
O O8 0.912611 0.271205 0.086988
O O9 0.859546 0.379805 0.000000
O O10 0.000000 0.355050 0.000000
O O11 0.500000 0.329985 0.500000
O O12 0.387063 0.266073 0.500000
O O13 0.500000 0.793512 0.768983
O O14 0.362486 0.821211 0.764629
O O15 0.806246 0.500000 0.000000
O O16 0.750000 0.250000 0.500000
O O17 0.825784 0.331315 0.593257
O O18 0.750000 0.750000 0.292446
#
# Coordination Sequence:
#
# PCOD8265907 Si02
#       8
#    16  16   8   8  16   8   8  16
#     4  11  23  39  56  79 111 149 189 230 276 329
#     4  10  20  36  56  82 114 148 185 227 276 329
#     4  10  20  34  55  84 113 139 177 236 288 328
#     4  10  18  32  56  84 112 144 186 233 273 324
#     4  10  19  32  53  82 113 138 174 225 278 325
#     4  10  22  38  56  77 105 145 193 229 267 336
#     4  10  18  28  50  81 110 136 184 224 268 328
#     4  11  19  34  55  80 109 146 184 226 279 327
#
# _framework density 17.967172999999999
#
# number of rings (size 3 to 8) (size 9 to 14) (size 15 to 20)
#    0.000    1.667    5.000    1.000    0.000    1.167 
#    0.000    4.583    0.000    3.500    0.000    0.000 
#    0.000    2.000    0.000    0.000    0.000    0.000 
#
# Total GULP energy -594730.618007 kJ/mol
# GULP energy per Si atom -12390.221208 kJ/mol
# Density = 1.792628 g / cm^3
# Si number density = 17.967173 Si / 1000 Ang^3
#
#
#
# Elastic Constant Matrix: (Units=GPa)
#
#
# Indices 1 2 3 4 5 6 
#
# 1 88.2762 26.0537 54.3207 0.0000 0.0000 0.0000
# 2 26.0537 53.9455 28.4010 0.0000 0.0000 0.0000
# 3 54.3207 28.4010 129.2317 0.0000 0.0000 0.0000
# 4 0.0000 0.0000 0.0000 14.5371 0.0000 0.0000
# 5 0.0000 0.0000 0.0000 0.0000 31.6392 0.0000
# 6 0.0000 0.0000 0.0000 0.0000 0.0000 22.7839
#
#
#
# Elastic Compliance Matrix: (Units=1/GPa)
#
#
# Indices 1 2 3 4 5 6 
#
# 1 0.016322 -0.004830 -0.005799 0.000000 0.000000 0.000000
# 2 -0.004830 0.022392 -0.002891 0.000000 0.000000 0.000000
# 3 -0.005799 -0.002891 0.010811 0.000000 0.000000 0.000000
# 4 0.000000 0.000000 0.000000 0.068790 0.000000 0.000000
# 5 0.000000 0.000000 0.000000 0.000000 0.031606 0.000000
# 6 0.000000 0.000000 0.000000 0.000000 0.000000 0.043891
#
#
# Mechanical properties :
#
#
# Convention : Reuss Voigt Hill
#
# Bulk Modulus (GPa) = 44.47411 54.33378 49.40394
# Shear Modulus (GPa) = 21.89654 24.63724 23.26689
#
# Velocity S-wave (km/s) = 3.49477 3.70704 3.60247
# Velocity P-wave (km/s) = 6.41025 6.97345 6.69777
#
# Compressibility (1/GPa) = 0.02248499
#
# Stress axis : x y z
#
# Youngs Moduli (GPa) = 61.26644 44.65916 92.49808
#
# Poissons Ratio (x) = 0.21569 0.53643
# Poissons Ratio (y) = 0.29590 0.26740
# Poissons Ratio (z) = 0.35531 0.12910
#
# Static dielectric constant tensor:
#      x y z
#    x 3.600700 0.000000 0.000000 
#    y 0.000000 2.943520 0.000000 
#    z 0.000000 0.000000 3.569870 
# 
# 
# High freq. dielectric constant tensor:
#      x y z
#    x 1.710040 0.000000 0.000000 
#    y 0.000000 1.648530 0.000000 
#    z 0.000000 0.000000 1.714280 
# 
# From -- ./inp_files/29124.got.cif
#   From: 2010.03.12/outbox.cif.g09.slc.cpg/sg65_15_cif.got.tgz:29124.got - 2010.04.10 20:52:16.
