data_PCOD8265359
_publ_section_title
;
Structure prediction by ZEFSAII (Michael W. Deem and Ramdas Pophale) SiO2 
 PCOD8265359
Probable space group: C M M M
;
_chemical_formula_sum "Si O2"
_cell_formula_units_Z 104
_cell_length_a 8.962024
_cell_length_b 28.913228
_cell_length_c 23.549328
_cell_angle_alpha 90.000000
_cell_angle_beta 90.000000
_cell_angle_gamma 90.000000
_cell_volume 6102.126439
_symmetry_space_group_name_H-M "C M M M"
_symmetry_group_IT_number 65
_symmetry_cell_setting 'orthorhombic'
loop_
_space_group_symop_operation_xyz
x,y,z
-x,-y,z
x,-y,-z
-x,y,-z
-x,-y,-z
x,y,-z
-x,y,z
x,-y,z
1/2+x,1/2+y,z
1/2-x,1/2-y,z
1/2+x,1/2-y,-z
1/2-x,1/2+y,-z
1/2-x,1/2-y,-z
1/2+x,1/2+y,-z
1/2-x,1/2+y,z
1/2+x,1/2-y,z
loop_
_atom_site_type_symbol
_atom_site_label
_atom_site_fract_x
_atom_site_fract_y
_atom_site_fract_z
Si Si1 0.836667 0.554878 0.500000
Si Si2 0.328349 0.114319 0.063744
Si Si3 0.677498 0.888622 0.272492
Si Si4 0.324623 0.702703 0.236754
Si Si5 0.674270 0.296833 0.105406
Si Si6 0.822935 0.448323 0.165735
Si Si7 0.321577 0.948164 0.378285
O O1 0.854366 0.500000 0.500000
O O2 0.756406 0.568691 0.559806
O O3 0.000000 0.578222 0.500000
O O4 0.500000 0.126228 0.077673
O O5 0.234398 0.160950 0.068609
O O6 0.267943 0.075827 0.107571
O O7 0.310387 0.094572 0.000000
O O8 0.500000 0.882545 0.270778
O O9 0.754550 0.838868 0.272588
O O10 0.734855 0.918779 0.219174
O O11 0.733963 0.913795 0.329497
O O12 0.500000 0.705465 0.247446
O O13 0.250000 0.750000 0.258405
O O14 0.284745 0.694317 0.170988
O O15 0.500000 0.291784 0.095621
O O16 0.750000 0.250000 0.083224
O O17 0.754521 0.500000 0.168422
O O18 0.000000 0.451547 0.167385
O O19 0.500000 0.948592 0.381383
O O20 0.264841 0.000000 0.363899
#
# Coordination Sequence:
#
# PCOD8265359 Si02
#       7
#     8  16  16  16  16  16  16
#     4   7  10  18  32  56  96 135 162 193 228 261
#     4  10  20  33  49  69  93 121 154 190 229 274
#     4  10  17  27  47  72  97 123 154 192 232 273
#     4  10  20  33  50  71  94 120 150 186 233 284
#     4  10  20  34  53  72  92 117 147 185 232 285
#     4   9  17  29  46  68  93 120 152 192 230 263
#     4   8  13  21  37  65  99 133 165 194 226 266
#
# _framework density 17.043239
#
# number of rings (size 3 to 8) (size 9 to 14) (size 15 to 20)
#    0.000    2.692    1.538    2.308    0.000    4.000 
#    0.000    1.538    0.000    3.231    0.000    2.154 
#    0.000    1.846    0.000    0.000    0.000    0.000 
#
# Total GULP energy -644597.403549 kJ/mol
# GULP energy per Si atom -12396.103914 kJ/mol
# Density = 1.700445 g / cm^3
# Si number density = 17.043239 Si / 1000 Ang^3
#
#
#
# Elastic Constant Matrix: (Units=GPa)
#
#
# Indices 1 2 3 4 5 6 
#
# 1 36.2688 28.7432 24.4039 0.0000 0.0000 0.0000
# 2 28.7432 128.7481 68.3200 0.0000 0.0000 0.0000
# 3 24.4039 68.3200 133.0836 0.0000 0.0000 0.0000
# 4 0.0000 0.0000 0.0000 24.2050 0.0000 0.0000
# 5 0.0000 0.0000 0.0000 0.0000 8.6637 0.0000
# 6 0.0000 0.0000 0.0000 0.0000 0.0000 20.7229
#
#
#
# Elastic Compliance Matrix: (Units=1/GPa)
#
#
# Indices 1 2 3 4 5 6 
#
# 1 0.034498 -0.005972 -0.003260 0.000000 0.000000 0.000000
# 2 -0.005972 0.011709 -0.004916 0.000000 0.000000 0.000000
# 3 -0.003260 -0.004916 0.010636 0.000000 0.000000 0.000000
# 4 0.000000 0.000000 0.000000 0.041314 0.000000 0.000000
# 5 0.000000 0.000000 0.000000 0.000000 0.115424 0.000000
# 6 0.000000 0.000000 0.000000 0.000000 0.000000 0.048256
#
#
# Mechanical properties :
#
#
# Convention : Reuss Voigt Hill
#
# Bulk Modulus (GPa) = 35.03015 60.11498 47.57257
# Shear Modulus (GPa) = 16.68626 22.49387 19.59006
#
# Velocity S-wave (km/s) = 3.13238 3.63686 3.39401
# Velocity P-wave (km/s) = 5.80351 7.27903 6.58274
#
# Compressibility (1/GPa) = 0.02854683
#
# Stress axis : x y z
#
# Youngs Moduli (GPa) = 28.98698 85.40537 94.02424
#
# Poissons Ratio (x) = 0.51001 0.30656
# Poissons Ratio (y) = 0.17310 0.46221
# Poissons Ratio (z) = 0.09451 0.41984
#
# Static dielectric constant tensor:
#      x y z
#    x 2.780070 0.000000 0.000000 
#    y 0.000000 3.175030 0.000000 
#    z 0.000000 0.000000 3.408230 
# 
# 
# High freq. dielectric constant tensor:
#      x y z
#    x 1.617710 0.000000 0.000000 
#    y 0.000000 1.648340 0.000000 
#    z 0.000000 0.000000 1.652650 
# 
# From -- ./inp_files/60878.got.cif
#   From: 2010.03.12/outbox.cif.g09.slc.cpg/sg65_31_cif.got.tgz:60878.got - 2010.04.10 20:52:16.
