data_PCOD8265618
_publ_section_title
;
Structure prediction by ZEFSAII (Michael W. Deem and Ramdas Pophale) SiO2 
 PCOD8265618
Probable space group: C M M M
;
_chemical_formula_sum "Si O2"
_cell_formula_units_Z 80
_cell_length_a 14.669260
_cell_length_b 23.883593
_cell_length_c 14.495754
_cell_angle_alpha 90.000000
_cell_angle_beta 90.000000
_cell_angle_gamma 90.000000
_cell_volume 5078.654608
_symmetry_space_group_name_H-M "C M M M"
_symmetry_group_IT_number 65
_symmetry_cell_setting 'orthorhombic'
loop_
_space_group_symop_operation_xyz
x,y,z
-x,-y,z
x,-y,-z
-x,y,-z
-x,-y,-z
x,y,-z
-x,y,z
x,-y,z
1/2+x,1/2+y,z
1/2-x,1/2-y,z
1/2+x,1/2-y,-z
1/2-x,1/2+y,-z
1/2-x,1/2-y,-z
1/2+x,1/2+y,-z
1/2-x,1/2+y,z
1/2+x,1/2-y,z
loop_
_atom_site_type_symbol
_atom_site_label
_atom_site_fract_x
_atom_site_fract_y
_atom_site_fract_z
Si Si1 0.898627 0.153104 0.390866
Si Si2 0.107851 0.437326 0.898884
Si Si3 0.257955 0.437215 0.392781
Si Si4 0.108075 0.723644 0.602545
Si Si5 0.607408 0.883105 0.285858
O O1 0.906136 0.146352 0.500000
O O2 0.832102 0.105645 0.349549
O O3 0.856608 0.214661 0.367469
O O4 0.000000 0.145533 0.347695
O O5 0.144657 0.500000 0.875413
O O6 0.137342 0.392412 0.820862
O O7 0.000000 0.439965 0.902402
O O8 0.145054 0.418354 0.000000
O O9 0.244460 0.425377 0.500000
O O10 0.293055 0.500000 0.374295
O O11 0.159674 0.429131 0.346142
O O12 0.145990 0.707299 0.500000
O O13 0.138293 0.678366 0.678965
O O14 0.000000 0.727548 0.596099
O O15 0.500000 0.892786 0.300486
#
# Coordination Sequence:
#
# PCOD8265618 Si02
#       5
#    16  16  16  16  16
#     4   8  15  29  45  58  76 103 137 180 215 230
#     4   8  14  25  40  56  75 104 141 172 195 224
#     4  10  20  29  38  58  84 110 142 169 194 240
#     4   8  14  25  41  60  80 105 138 167 194 236
#     4  10  18  27  40  59  86 114 134 158 194 235
#
# _framework density 15.752203
#
# number of rings (size 3 to 8) (size 9 to 14) (size 15 to 20)
#    0.000    3.200    0.000    3.000    0.000    3.600 
#    0.000    6.000    0.000    0.000    0.000    2.800 
#    0.000    2.400    0.000    4.200    0.000    0.400 
#
# Total GULP energy -495614.548498 kJ/mol
# GULP energy per Si atom -12390.363712 kJ/mol
# Density = 1.571635 g / cm^3
# Si number density = 15.752203 Si / 1000 Ang^3
#
#
#
# Elastic Constant Matrix: (Units=GPa)
#
#
# Indices 1 2 3 4 5 6 
#
# 1 36.7593 33.5058 27.8383 0.0000 0.0000 0.0000
# 2 33.5058 119.0559 69.3460 0.0000 0.0000 0.0000
# 3 27.8383 69.3460 83.6162 0.0000 0.0000 0.0000
# 4 0.0000 0.0000 0.0000 5.5535 0.0000 0.0000
# 5 0.0000 0.0000 0.0000 0.0000 7.4818 0.0000
# 6 0.0000 0.0000 0.0000 0.0000 0.0000 21.7385
#
#
#
# Elastic Compliance Matrix: (Units=1/GPa)
#
#
# Indices 1 2 3 4 5 6 
#
# 1 0.038869 -0.006580 -0.007484 0.000000 0.000000 0.000000
# 2 -0.006580 0.017362 -0.012209 0.000000 0.000000 0.000000
# 3 -0.007484 -0.012209 0.024576 0.000000 0.000000 0.000000
# 4 0.000000 0.000000 0.000000 0.180066 0.000000 0.000000
# 5 0.000000 0.000000 0.000000 0.000000 0.133658 0.000000
# 6 0.000000 0.000000 0.000000 0.000000 0.000000 0.046001
#
#
# Mechanical properties :
#
#
# Convention : Reuss Voigt Hill
#
# Bulk Modulus (GPa) = 35.38193 55.64575 45.51384
# Shear Modulus (GPa) = 9.95030 14.20417 12.07723
#
# Velocity S-wave (km/s) = 2.51604 3.00613 2.77194
# Velocity P-wave (km/s) = 5.56336 6.88850 6.26109
#
# Compressibility (1/GPa) = 0.02826301
#
# Stress axis : x y z
#
# Youngs Moduli (GPa) = 25.72740 57.59623 40.69024
#
# Poissons Ratio (x) = 0.37898 0.30451
# Poissons Ratio (y) = 0.16928 0.49677
# Poissons Ratio (z) = 0.19254 0.70316
#
# Static dielectric constant tensor:
#      x y z
#    x 2.895960 0.000000 0.000000 
#    y 0.000000 3.264350 0.000000 
#    z 0.000000 0.000000 3.008740 
# 
# 
# High freq. dielectric constant tensor:
#      x y z
#    x 1.580770 0.000000 0.000000 
#    y 0.000000 1.608720 0.000000 
#    z 0.000000 0.000000 1.561070 
# 
# From -- ./inp_files/25005.got.cif
#   From: 2010.03.12/outbox.cif.g09.slc.cpg/sg65_13_cif.got.tgz:25005.got - 2010.04.10 20:52:16.
