data_PCOD8265076
_publ_section_title
;
Structure prediction by ZEFSAII (Michael W. Deem and Ramdas Pophale) SiO2 
 PCOD8265076
Probable space group: C M M M
;
_chemical_formula_sum "Si O2"
_cell_formula_units_Z 72
_cell_length_a 8.617192
_cell_length_b 18.568741
_cell_length_c 24.010037
_cell_angle_alpha 90.000000
_cell_angle_beta 90.000000
_cell_angle_gamma 90.000000
_cell_volume 3841.855778
_symmetry_space_group_name_H-M "C M M M"
_symmetry_group_IT_number 65
_symmetry_cell_setting 'orthorhombic'
loop_
_space_group_symop_operation_xyz
x,y,z
-x,-y,z
x,-y,-z
-x,y,-z
-x,-y,-z
x,y,-z
-x,y,z
x,-y,z
1/2+x,1/2+y,z
1/2-x,1/2-y,z
1/2+x,1/2-y,-z
1/2-x,1/2+y,-z
1/2-x,1/2-y,-z
1/2+x,1/2+y,-z
1/2-x,1/2+y,z
1/2+x,1/2-y,z
loop_
_atom_site_type_symbol
_atom_site_label
_atom_site_fract_x
_atom_site_fract_y
_atom_site_fract_z
Si Si1 0.315657 0.419332 0.500000
Si Si2 0.682982 0.330431 0.830007
Si Si3 0.684301 0.329576 0.394405
Si Si4 0.319068 0.170982 0.060339
Si Si5 0.183904 0.669758 0.281231
O O1 0.247074 0.500000 0.500000
O O2 0.500000 0.421329 0.500000
O O3 0.255711 0.378268 0.554773
O O4 0.500000 0.329734 0.824548
O O5 0.750000 0.250000 0.833131
O O6 0.735815 0.370169 0.887645
O O7 0.754446 0.369697 0.775080
O O8 0.500000 0.325623 0.391120
O O9 0.750000 0.250000 0.403407
O O10 0.750096 0.366328 0.337655
O O11 0.500000 0.176455 0.073955
O O12 0.250000 0.250000 0.055427
O O13 0.291401 0.131971 0.000000
O O14 0.250000 0.750000 0.280252
O O15 0.000000 0.669724 0.282209
#
# Coordination Sequence:
#
# PCOD8265076 Si02
#       5
#     8  16  16  16  16
#     4   9  19  34  51  71  94 121 150 180 216 261
#     4  10  16  22  32  46  66  92 126 167 212 255
#     4  10  18  30  49  70  92 116 147 184 221 263
#     4   9  15  21  28  39  58  87 124 164 206 251
#     4  10  17  26  39  56  79 103 133 172 216 260
#
# _framework density 18.740942
#
# number of rings (size 3 to 8) (size 9 to 14) (size 15 to 20)
#    0.000    2.333    0.000    9.667    0.000    1.333 
#    0.000    1.667    0.000    5.333    0.000    0.000 
#    0.000    0.000    0.000    0.000    0.000    1.111 
#
# Total GULP energy -445986.364597 kJ/mol
# GULP energy per Si atom -12388.510128 kJ/mol
# Density = 1.869829 g / cm^3
# Si number density = 18.740942 Si / 1000 Ang^3
#
#
#
# Elastic Constant Matrix: (Units=GPa)
#
#
# Indices 1 2 3 4 5 6 
#
# 1 141.1902 14.1514 73.2185 0.0000 0.0000 0.0000
# 2 14.1514 32.4315 37.6896 0.0000 0.0000 0.0000
# 3 73.2185 37.6896 241.0990 0.0000 0.0000 0.0000
# 4 0.0000 0.0000 0.0000 0.4458 0.0000 0.0000
# 5 0.0000 0.0000 0.0000 0.0000 -24.5815 0.0000
# 6 0.0000 0.0000 0.0000 0.0000 0.0000 6.0124
#
#
#
# Elastic Compliance Matrix: (Units=1/GPa)
#
#
# Indices 1 2 3 4 5 6 
#
# 1 0.008426 -0.000859 -0.002425 0.000000 0.000000 0.000000
# 2 -0.000859 0.037767 -0.005643 0.000000 0.000000 0.000000
# 3 -0.002425 -0.005643 0.005766 0.000000 0.000000 0.000000
# 4 0.000000 0.000000 0.000000 2.243048 0.000000 0.000000
# 5 0.000000 0.000000 0.000000 0.000000 -0.040681 0.000000
# 6 0.000000 0.000000 0.000000 0.000000 0.000000 0.166324
#
#
# Mechanical properties :
#
#
# Convention : Reuss Voigt Hill
#
# Bulk Modulus (GPa) = 29.32041 73.87108 51.59575
# Shear Modulus (GPa) = 2.04092 15.68608 8.86350
#
# Velocity S-wave (km/s) = 1.04469 2.89623 2.17710
# Velocity P-wave (km/s) = 4.13935 7.11946 5.82327
#
# Compressibility (1/GPa) = 0.03410593
#
# Stress axis : x y z
#
# Youngs Moduli (GPa) = 118.67892 26.47816 173.42633
#
# Poissons Ratio (x) = 0.02274 0.42049
# Poissons Ratio (y) = 0.10195 0.97865
# Poissons Ratio (z) = 0.28775 0.14942
#
# Static dielectric constant tensor:
#      x y z
#    x 3.319500 0.000000 0.000000 
#    y 0.000000 2.665720 0.000000 
#    z 0.000000 0.000000 5.513820 
# 
# 
# High freq. dielectric constant tensor:
#      x y z
#    x 1.738160 0.000000 0.000000 
#    y 0.000000 1.615240 0.000000 
#    z 0.000000 0.000000 1.776410 
# 
# From -- ./inp_files/67218.got.cif
#   From: 2010.03.12/outbox.cif.g09.slc.cpg/sg65_34_cif.got.tgz:67218.got - 2010.04.10 20:52:16.
