data_PCOD8265643
_publ_section_title
;
Structure prediction by ZEFSAII (Michael W. Deem and Ramdas Pophale) SiO2 
 PCOD8265643
Probable space group: C M M M
;
_chemical_formula_sum "Si O2"
_cell_formula_units_Z 104
_cell_length_a 26.828816
_cell_length_b 8.881644
_cell_length_c 26.922409
_cell_angle_alpha 90.000000
_cell_angle_beta 90.000000
_cell_angle_gamma 90.000000
_cell_volume 6415.179108
_symmetry_space_group_name_H-M "C M M M"
_symmetry_group_IT_number 65
_symmetry_cell_setting 'orthorhombic'
loop_
_space_group_symop_operation_xyz
x,y,z
-x,-y,z
x,-y,-z
-x,y,-z
-x,-y,-z
x,y,-z
-x,y,z
x,-y,z
1/2+x,1/2+y,z
1/2-x,1/2-y,z
1/2+x,1/2-y,-z
1/2-x,1/2+y,-z
1/2-x,1/2-y,-z
1/2+x,1/2+y,-z
1/2-x,1/2+y,z
1/2+x,1/2-y,z
loop_
_atom_site_type_symbol
_atom_site_label
_atom_site_fract_x
_atom_site_fract_y
_atom_site_fract_z
Si Si1 0.442994 0.672633 0.693370
Si Si2 0.198765 0.674511 0.348510
Si Si3 0.901633 0.322499 0.598535
Si Si4 0.804376 0.178183 0.839798
Si Si5 0.857477 0.321225 0.250988
Si Si6 0.942364 0.821545 0.500000
Si Si7 0.803046 0.824690 0.947600
O O1 0.500000 0.682316 0.710232
O O2 0.425370 0.500000 0.688004
O O3 0.437133 0.754806 0.640675
O O4 0.411578 0.756227 0.735796
O O5 0.209550 0.500000 0.346664
O O6 0.250000 0.750000 0.365103
O O7 0.155992 0.713070 0.388487
O O8 0.181294 0.729311 0.293923
O O9 0.911379 0.500000 0.595266
O O10 0.914289 0.244416 0.547181
O O11 0.750000 0.250000 0.833498
O O12 0.841706 0.251381 0.801010
O O13 0.828190 0.217527 0.894608
O O14 0.800248 0.000000 0.830577
O O15 0.861059 0.500000 0.247169
O O16 0.000000 0.770837 0.500000
O O17 0.937588 0.000000 0.500000
O O18 0.750000 0.750000 0.948996
O O19 0.792917 0.000000 0.946980
O O20 0.831900 0.781068 0.000000
#
# Coordination Sequence:
#
# PCOD8265643 Si02
#       7
#    16  16  16  16  16   8  16
#     4  10  20  34  52  73  96 121 150 186 229 276
#     4   9  19  33  49  69  92 121 155 188 221 262
#     4  10  21  36  53  75 100 125 155 187 224 274
#     4  10  18  27  41  62  90 123 158 196 235 273
#     4  10  20  32  46  67  94 123 157 193 229 274
#     4  11  23  37  54  77 100 121 152 193 234 275
#     4   8  14  24  37  54  79 114 154 192 230 272
#
# _framework density 16.211551
#
# number of rings (size 3 to 8) (size 9 to 14) (size 15 to 20)
#    0.000    2.385    0.000    3.923    0.000    9.231 
#    0.000    0.385    0.000    0.000    0.000    0.000 
#    0.000    0.615    0.000    7.077    0.000    2.000 
#
# Total GULP energy -644421.897645 kJ/mol
# GULP energy per Si atom -12392.728801 kJ/mol
# Density = 1.617465 g / cm^3
# Si number density = 16.211551 Si / 1000 Ang^3
#
#
#
# Elastic Constant Matrix: (Units=GPa)
#
#
# Indices 1 2 3 4 5 6 
#
# 1 80.0056 41.6956 55.3429 0.0000 0.0000 0.0000
# 2 41.6956 76.7417 52.9743 0.0000 0.0000 0.0000
# 3 55.3429 52.9743 157.2872 0.0000 0.0000 0.0000
# 4 0.0000 0.0000 0.0000 23.6632 0.0000 0.0000
# 5 0.0000 0.0000 0.0000 0.0000 19.0876 0.0000
# 6 0.0000 0.0000 0.0000 0.0000 0.0000 25.8831
#
#
#
# Elastic Compliance Matrix: (Units=1/GPa)
#
#
# Indices 1 2 3 4 5 6 
#
# 1 0.019415 -0.007600 -0.004272 0.000000 0.000000 0.000000
# 2 -0.007600 0.019953 -0.004046 0.000000 0.000000 0.000000
# 3 -0.004272 -0.004046 0.009224 0.000000 0.000000 0.000000
# 4 0.000000 0.000000 0.000000 0.042260 0.000000 0.000000
# 5 0.000000 0.000000 0.000000 0.000000 0.052390 0.000000
# 6 0.000000 0.000000 0.000000 0.000000 0.000000 0.038635
#
#
# Mechanical properties :
#
#
# Convention : Reuss Voigt Hill
#
# Bulk Modulus (GPa) = 59.67977 68.22891 63.95434
# Shear Modulus (GPa) = 22.80019 24.66154 23.73087
#
# Velocity S-wave (km/s) = 3.75429 3.90453 3.83015
# Velocity P-wave (km/s) = 7.46230 7.90602 7.68736
#
# Compressibility (1/GPa) = 0.01675610
#
# Stress axis : x y z
#
# Youngs Moduli (GPa) = 51.50752 50.11817 108.41850
#
# Poissons Ratio (x) = 0.38089 0.46312
# Poissons Ratio (y) = 0.39145 0.43867
# Poissons Ratio (z) = 0.22002 0.20278
#
# Static dielectric constant tensor:
#      x y z
#    x 2.851950 0.000000 0.000000 
#    y 0.000000 3.189530 0.000000 
#    z 0.000000 0.000000 3.471700 
# 
# 
# High freq. dielectric constant tensor:
#      x y z
#    x 1.589720 0.000000 0.000000 
#    y 0.000000 1.640360 0.000000 
#    z 0.000000 0.000000 1.629330 
# 
# From -- ./inp_files/71855.got.cif
#   From: 2010.03.12/outbox.cif.g09.slc.cpg/sg65_36_cif.got.tgz:71855.got - 2010.04.10 20:52:16.
