data_PCOD8265964
_publ_section_title
;
Structure prediction by ZEFSAII (Michael W. Deem and Ramdas Pophale) SiO2 
 PCOD8265964
Probable space group: C M M M
;
_chemical_formula_sum "Si O2"
_cell_formula_units_Z 72
_cell_length_a 23.746832
_cell_length_b 8.940368
_cell_length_c 17.981260
_cell_angle_alpha 90.000000
_cell_angle_beta 90.000000
_cell_angle_gamma 90.000000
_cell_volume 3817.518901
_symmetry_space_group_name_H-M "C M M M"
_symmetry_group_IT_number 65
_symmetry_cell_setting 'orthorhombic'
loop_
_space_group_symop_operation_xyz
x,y,z
-x,-y,z
x,-y,-z
-x,y,-z
-x,-y,-z
x,y,-z
-x,y,z
x,-y,z
1/2+x,1/2+y,z
1/2-x,1/2-y,z
1/2+x,1/2-y,-z
1/2-x,1/2+y,-z
1/2-x,1/2-y,-z
1/2+x,1/2+y,-z
1/2-x,1/2+y,z
1/2+x,1/2-y,z
loop_
_atom_site_type_symbol
_atom_site_label
_atom_site_fract_x
_atom_site_fract_y
_atom_site_fract_z
Si Si1 0.810280 0.677510 0.500000
Si Si2 0.879114 0.678876 0.082904
Si Si3 0.618555 0.177390 0.360455
Si Si4 0.190200 0.322573 0.221754
Si Si5 0.500000 0.837761 0.087646
Si Si6 0.500000 0.178420 0.415080
O O1 0.804322 0.500000 0.500000
O O2 0.750000 0.750000 0.500000
O O3 0.843273 0.736255 0.572141
O O4 0.884182 0.500000 0.083115
O O5 0.832235 0.732953 0.141342
O O6 0.940892 0.745111 0.107742
O O7 0.862246 0.735431 0.000000
O O8 0.645456 0.233933 0.283220
O O9 0.555020 0.239212 0.371280
O O10 0.616873 0.000000 0.362014
O O11 0.197254 0.500000 0.224493
O O12 0.250000 0.250000 0.238312
O O13 0.500000 0.000000 0.127933
O O14 0.500000 0.862700 0.000000
O O15 0.500000 0.238114 0.500000
O O16 0.500000 0.000000 0.416987
#
# Coordination Sequence:
#
# PCOD8265964 Si02
#       6
#     8  16  16  16   8   8
#     4  10  18  29  45  65  89 118 149 176 210 260
#     4   8  14  25  42  64  90 119 149 185 230 273
#     4   9  17  28  44  67  92 116 144 182 228 269
#     4  10  20  32  45  65  93 121 153 190 222 263
#     4   7  10  19  37  61  87 110 134 174 228 272
#     4   9  14  25  45  69  95 117 139 182 237 275
#
# _framework density 18.860417000000002
#
# number of rings (size 3 to 8) (size 9 to 14) (size 15 to 20)
#    0.000    3.111    1.111    2.000    0.000    1.333 
#    0.000    4.444    0.000    0.000    0.000    6.222 
#    0.000    2.667    0.000    0.000    0.000    0.000 
#
# Total GULP energy -446032.969444 kJ/mol
# GULP energy per Si atom -12389.804707 kJ/mol
# Density = 1.881749 g / cm^3
# Si number density = 18.860417 Si / 1000 Ang^3
#
#
#
# Elastic Constant Matrix: (Units=GPa)
#
#
# Indices 1 2 3 4 5 6 
#
# 1 184.2786 16.7112 87.6880 0.0000 0.0000 0.0000
# 2 16.7112 8.5857 13.5467 0.0000 0.0000 0.0000
# 3 87.6880 13.5467 142.9663 0.0000 0.0000 0.0000
# 4 0.0000 0.0000 0.0000 6.6129 0.0000 0.0000
# 5 0.0000 0.0000 0.0000 0.0000 37.6594 0.0000
# 6 0.0000 0.0000 0.0000 0.0000 0.0000 19.0344
#
#
#
# Elastic Compliance Matrix: (Units=1/GPa)
#
#
# Indices 1 2 3 4 5 6 
#
# 1 0.008276 -0.009523 -0.004174 0.000000 0.000000 0.000000
# 2 -0.009523 0.147906 -0.008174 0.000000 0.000000 0.000000
# 3 -0.004174 -0.008174 0.010329 0.000000 0.000000 0.000000
# 4 0.000000 0.000000 0.000000 0.151219 0.000000 0.000000
# 5 0.000000 0.000000 0.000000 0.000000 0.026554 0.000000
# 6 0.000000 0.000000 0.000000 0.000000 0.000000 0.052536
#
#
# Mechanical properties :
#
#
# Convention : Reuss Voigt Hill
#
# Bulk Modulus (GPa) = 8.14531 63.52470 35.83500
# Shear Modulus (GPa) = 10.38451 27.18700 18.78575
#
# Velocity S-wave (km/s) = 2.34903 3.80081 3.15944
# Velocity P-wave (km/s) = 3.41838 7.28122 5.68777
#
# Compressibility (1/GPa) = 0.12277000
#
# Stress axis : x y z
#
# Youngs Moduli (GPa) = 120.82708 6.76103 96.81319
#
# Poissons Ratio (x) = 0.06439 0.40408
# Poissons Ratio (y) = 1.15068 0.79132
# Poissons Ratio (z) = 0.50431 0.05526
#
# Static dielectric constant tensor:
#      x y z
#    x 3.811180 0.000000 0.000000 
#    y 0.000000 2.661980 0.000000 
#    z 0.000000 0.000000 3.668490 
# 
# 
# High freq. dielectric constant tensor:
#      x y z
#    x 1.751830 0.000000 0.000000 
#    y 0.000000 1.643390 0.000000 
#    z 0.000000 0.000000 1.734860 
# 
# From -- ./inp_files/64458.got.cif
#   From: 2010.03.12/outbox.cif.g09.slc.cpg/sg65_33_cif.got.tgz:64458.got - 2010.04.10 20:52:16.
