data_PCOD8265126
_publ_section_title
;
Structure prediction by ZEFSAII (Michael W. Deem and Ramdas Pophale) SiO2 
 PCOD8265126
Probable space group: C M M M
;
_chemical_formula_sum "Si O2"
_cell_formula_units_Z 72
_cell_length_a 19.215729
_cell_length_b 8.664190
_cell_length_c 23.865898
_cell_angle_alpha 90.000000
_cell_angle_beta 90.000000
_cell_angle_gamma 90.000000
_cell_volume 3973.402978
_symmetry_space_group_name_H-M "C M M M"
_symmetry_group_IT_number 65
_symmetry_cell_setting 'orthorhombic'
loop_
_space_group_symop_operation_xyz
x,y,z
-x,-y,z
x,-y,-z
-x,y,-z
-x,-y,-z
x,y,-z
-x,y,z
x,-y,z
1/2+x,1/2+y,z
1/2-x,1/2-y,z
1/2+x,1/2-y,-z
1/2-x,1/2+y,-z
1/2-x,1/2-y,-z
1/2+x,1/2+y,-z
1/2-x,1/2+y,z
1/2+x,1/2-y,z
loop_
_atom_site_type_symbol
_atom_site_label
_atom_site_fract_x
_atom_site_fract_y
_atom_site_fract_z
Si Si1 0.672539 0.683803 0.387940
Si Si2 0.082591 0.175029 0.060736
Si Si3 0.921967 0.681493 0.173265
Si Si4 0.327744 0.183662 0.500000
Si Si5 0.326684 0.183979 0.725744
O O1 0.672278 0.500000 0.389601
O O2 0.750000 0.750000 0.387084
O O3 0.634393 0.751558 0.443716
O O4 0.637648 0.746968 0.330825
O O5 0.111706 0.271859 0.113292
O O6 0.000000 0.186207 0.060472
O O7 0.107486 0.000000 0.068574
O O8 0.110020 0.237615 0.000000
O O9 0.925347 0.500000 0.176283
O O10 0.873764 0.744327 0.223069
O O11 0.000000 0.750916 0.180077
O O12 0.250000 0.250000 0.500000
O O13 0.327374 0.000000 0.500000
O O14 0.250000 0.250000 0.735323
O O15 0.323418 0.000000 0.721427
#
# Coordination Sequence:
#
# PCOD8265126 Si02
#       5
#    16  16  16   8  16
#     4  10  17  26  40  60  86 115 148 183 222 265
#     4   8  14  25  42  65  91 116 143 179 223 267
#     4   9  18  31  47  68  92 118 149 185 223 264
#     4  10  16  24  38  58  85 114 145 182 225 265
#     4  10  19  31  46  65  91 121 152 184 221 266
#
# _framework density 18.120488000000002
#
# number of rings (size 3 to 8) (size 9 to 14) (size 15 to 20)
#    0.000    2.667    0.000    7.000    0.000    2.222 
#    0.000    2.222    0.000    0.667    0.000    0.778 
#    0.000    6.222    0.000    0.000    0.000    0.000 
#
# Total GULP energy -446029.493388 kJ/mol
# GULP energy per Si atom -12389.708150 kJ/mol
# Density = 1.807925 g / cm^3
# Si number density = 18.120488 Si / 1000 Ang^3
#
#
#
# Elastic Constant Matrix: (Units=GPa)
#
#
# Indices 1 2 3 4 5 6 
#
# 1 31.0849 16.9976 46.7240 0.0000 0.0000 0.0000
# 2 16.9976 95.7779 57.2166 0.0000 0.0000 0.0000
# 3 46.7240 57.2166 224.6946 0.0000 0.0000 0.0000
# 4 0.0000 0.0000 0.0000 37.4074 0.0000 0.0000
# 5 0.0000 0.0000 0.0000 0.0000 15.0670 0.0000
# 6 0.0000 0.0000 0.0000 0.0000 0.0000 11.7255
#
#
#
# Elastic Compliance Matrix: (Units=1/GPa)
#
#
# Indices 1 2 3 4 5 6 
#
# 1 0.047509 -0.002983 -0.009119 0.000000 0.000000 0.000000
# 2 -0.002983 0.012501 -0.002563 0.000000 0.000000 0.000000
# 3 -0.009119 -0.002563 0.006999 0.000000 0.000000 0.000000
# 4 0.000000 0.000000 0.000000 0.026733 0.000000 0.000000
# 5 0.000000 0.000000 0.000000 0.000000 0.066370 0.000000
# 6 0.000000 0.000000 0.000000 0.000000 0.000000 0.085284
#
#
# Mechanical properties :
#
#
# Convention : Reuss Voigt Hill
#
# Bulk Modulus (GPa) = 26.54079 65.93710 46.23894
# Shear Modulus (GPa) = 17.40413 28.21459 22.80936
#
# Velocity S-wave (km/s) = 3.10250 3.95023 3.55175
# Velocity P-wave (km/s) = 5.24525 7.56789 6.51098
#
# Compressibility (1/GPa) = 0.03767785
#
# Stress axis : x y z
#
# Youngs Moduli (GPa) = 21.04870 79.99114 142.86794
#
# Poissons Ratio (x) = 0.23865 1.30288
# Poissons Ratio (y) = 0.06280 0.36617
# Poissons Ratio (z) = 0.19195 0.20502
#
# Static dielectric constant tensor:
#      x y z
#    x 2.837980 0.000000 0.000000 
#    y 0.000000 3.311040 0.000000 
#    z 0.000000 0.000000 4.911490 
# 
# 
# High freq. dielectric constant tensor:
#      x y z
#    x 1.616470 0.000000 0.000000 
#    y 0.000000 1.704970 0.000000 
#    z 0.000000 0.000000 1.738890 
# 
# From -- ./inp_files/70736.got.cif
#   From: 2010.03.12/outbox.cif.g09.slc.cpg/sg65_36_cif.got.tgz:70736.got - 2010.04.10 20:52:16.
