data_PCOD8265288
_publ_section_title
;
Structure prediction by ZEFSAII (Michael W. Deem and Ramdas Pophale) SiO2 
 PCOD8265288
Probable space group: C M M M
;
_chemical_formula_sum "Si O2"
_cell_formula_units_Z 88
_cell_length_a 13.667757
_cell_length_b 22.714713
_cell_length_c 18.149436
_cell_angle_alpha 90.000000
_cell_angle_beta 90.000000
_cell_angle_gamma 90.000000
_cell_volume 5634.658975
_symmetry_space_group_name_H-M "C M M M"
_symmetry_group_IT_number 65
_symmetry_cell_setting 'orthorhombic'
loop_
_space_group_symop_operation_xyz
x,y,z
-x,-y,z
x,-y,-z
-x,y,-z
-x,-y,-z
x,y,-z
-x,y,z
x,-y,z
1/2+x,1/2+y,z
1/2-x,1/2-y,z
1/2+x,1/2-y,-z
1/2-x,1/2+y,-z
1/2-x,1/2-y,-z
1/2+x,1/2+y,-z
1/2-x,1/2+y,z
1/2+x,1/2-y,z
loop_
_atom_site_type_symbol
_atom_site_label
_atom_site_fract_x
_atom_site_fract_y
_atom_site_fract_z
Si Si1 0.281860 0.683248 0.580147
Si Si2 0.886337 0.340358 0.914424
Si Si3 0.615328 0.065067 0.799761
Si Si4 0.389618 0.852197 0.667685
Si Si5 0.750000 0.250000 0.835235
Si Si6 0.609208 0.281992 0.282509
O O1 0.322553 0.661860 0.500000
O O2 0.250000 0.750000 0.572923
O O3 0.186146 0.644224 0.599882
O O4 0.362727 0.679885 0.644849
O O5 0.851965 0.399370 0.872420
O O6 0.822385 0.285819 0.887468
O O7 0.000000 0.325841 0.897173
O O8 0.868175 0.351615 0.000000
O O9 0.500000 0.058436 0.799897
O O10 0.647000 0.100401 0.727061
O O11 0.664162 0.000000 0.800209
O O12 0.500000 0.865220 0.639628
O O13 0.384794 0.787862 0.704046
O O14 0.685158 0.294204 0.783851
O O15 0.500000 0.300922 0.259681
#
# Coordination Sequence:
#
# PCOD8265288 Si02
#       6
#    16  16  16  16   8  16
#     4   9  16  26  38  59  86 114 147 180 217 260
#     4  10  20  31  44  65  92 120 148 179 221 268
#     4   9  16  27  44  63  86 119 156 187 212 250
#     4   9  15  26  41  60  84 115 149 178 212 253
#     4  12  17  30  45  62  86 120 150 182 217 268
#     4  10  17  26  42  60  84 118 147 176 214 258
#
# _framework density 15.617627000000001
#
# number of rings (size 3 to 8) (size 9 to 14) (size 15 to 20)
#    0.000    2.364    4.545    0.818    0.000    1.091 
#    0.000    5.455    0.000    0.545    0.000    2.545 
#    0.000   18.182    0.000   23.818    0.000    5.636 
#
# Total GULP energy -545272.888567 kJ/mol
# GULP energy per Si atom -12392.565649 kJ/mol
# Density = 1.558208 g / cm^3
# Si number density = 15.617627 Si / 1000 Ang^3
#
#
#
# Elastic Constant Matrix: (Units=GPa)
#
#
# Indices 1 2 3 4 5 6 
#
# 1 77.6078 25.5304 40.1974 0.0000 0.0000 0.0000
# 2 25.5304 63.0821 45.8761 0.0000 0.0000 0.0000
# 3 40.1974 45.8761 97.9037 0.0000 0.0000 0.0000
# 4 0.0000 0.0000 0.0000 5.7941 0.0000 0.0000
# 5 0.0000 0.0000 0.0000 0.0000 21.6339 0.0000
# 6 0.0000 0.0000 0.0000 0.0000 0.0000 11.0214
#
#
#
# Elastic Compliance Matrix: (Units=1/GPa)
#
#
# Indices 1 2 3 4 5 6 
#
# 1 0.016660 -0.002682 -0.005583 0.000000 0.000000 0.000000
# 2 -0.002682 0.024479 -0.010369 0.000000 0.000000 0.000000
# 3 -0.005583 -0.010369 0.017365 0.000000 0.000000 0.000000
# 4 0.000000 0.000000 0.000000 0.172590 0.000000 0.000000
# 5 0.000000 0.000000 0.000000 0.000000 0.046224 0.000000
# 6 0.000000 0.000000 0.000000 0.000000 0.000000 0.090732
#
#
# Mechanical properties :
#
#
# Convention : Reuss Voigt Hill
#
# Bulk Modulus (GPa) = 47.09283 51.31125 49.20204
# Shear Modulus (GPa) = 12.12423 16.15584 14.14004
#
# Velocity S-wave (km/s) = 2.78927 3.21979 3.01223
# Velocity P-wave (km/s) = 6.37122 6.83731 6.60838
#
# Compressibility (1/GPa) = 0.02123466
#
# Stress axis : x y z
#
# Youngs Moduli (GPa) = 60.02574 40.85186 57.58580
#
# Poissons Ratio (x) = 0.10956 0.32152
# Poissons Ratio (y) = 0.16098 0.59712
# Poissons Ratio (z) = 0.33515 0.42360
#
# Static dielectric constant tensor:
#      x y z
#    x 3.009900 0.000000 0.000000 
#    y 0.000000 2.883710 0.000000 
#    z 0.000000 0.000000 3.210250 
# 
# 
# High freq. dielectric constant tensor:
#      x y z
#    x 1.584790 0.000000 0.000000 
#    y 0.000000 1.548630 0.000000 
#    z 0.000000 0.000000 1.604500 
# 
# From -- ./inp_files/53213.got.cif
#   From: 2010.03.12/outbox.cif.g09.slc.cpg/sg65_27_cif.got.tgz:53213.got - 2010.04.10 20:52:16.
