data_PCOD8265237
_publ_section_title
;
Structure prediction by ZEFSAII (Michael W. Deem and Ramdas Pophale) SiO2 
 PCOD8265237
Probable space group: C M M M
;
_chemical_formula_sum "Si O2"
_cell_formula_units_Z 120
_cell_length_a 23.603453
_cell_length_b 14.024585
_cell_length_c 24.034581
_cell_angle_alpha 90.000000
_cell_angle_beta 90.000000
_cell_angle_gamma 90.000000
_cell_volume 7956.134491
_symmetry_space_group_name_H-M "C M M M"
_symmetry_group_IT_number 65
_symmetry_cell_setting 'orthorhombic'
loop_
_space_group_symop_operation_xyz
x,y,z
-x,-y,z
x,-y,-z
-x,y,-z
-x,-y,-z
x,y,-z
-x,y,z
x,-y,z
1/2+x,1/2+y,z
1/2-x,1/2-y,z
1/2+x,1/2-y,-z
1/2-x,1/2+y,-z
1/2-x,1/2-y,-z
1/2+x,1/2+y,-z
1/2-x,1/2+y,z
1/2+x,1/2-y,z
loop_
_atom_site_type_symbol
_atom_site_label
_atom_site_fract_x
_atom_site_fract_y
_atom_site_fract_z
Si Si1 0.933157 0.604713 0.758273
Si Si2 0.658943 0.271869 0.065410
Si Si3 0.338276 0.209205 0.434122
Si Si4 0.433637 0.812053 0.128508
Si Si5 0.066423 0.500000 0.061708
Si Si6 0.739394 0.895631 0.065778
Si Si7 0.565759 0.887762 0.634096
Si Si8 0.274788 0.606074 0.565986
O O1 0.905948 0.500000 0.768186
O O2 0.914133 0.676708 0.807095
O O3 0.916853 0.642395 0.697009
O O4 0.000000 0.592019 0.762024
O O5 0.600558 0.275324 0.100501
O O6 0.693091 0.178857 0.087129
O O7 0.696679 0.363402 0.081238
O O8 0.645083 0.267915 0.000000
O O9 0.346541 0.203551 0.500000
O O10 0.396686 0.176092 0.406647
O O11 0.322797 0.317779 0.415273
O O12 0.287296 0.140361 0.414040
O O13 0.500000 0.789970 0.123113
O O14 0.415169 0.906724 0.095140
O O15 0.000000 0.500000 0.054202
O O16 0.095294 0.500000 0.000000
O O17 0.727797 0.000000 0.091775
O O18 0.735202 0.897877 0.000000
O O19 0.500000 0.864199 0.622313
O O20 0.576960 0.000000 0.624544
O O21 0.273987 0.603110 0.500000
O O22 0.287636 0.500000 0.590282
#
# Coordination Sequence:
#
# PCOD8265237 Si02
#       8
#    16  16  16  16   8  16  16  16
#     4   8  14  26  39  52  74 108 145 165 182 231
#     4   9  17  26  39  62  82  99 129 160 193 237
#     4   9  16  25  40  64  88 108 134 168 205 242
#     4  10  17  25  38  57  83 109 128 155 196 243
#     4   9  16  22  30  52  84 110 123 141 190 244
#     4   8  15  28  42  54  74 106 137 162 186 221
#     4   9  17  27  40  58  81 109 138 169 202 238
#     4   8  14  25  41  60  84 114 141 163 194 241
#
# _framework density 15.082701999999999
#
# number of rings (size 3 to 8) (size 9 to 14) (size 15 to 20)
#    0.000    3.267    0.667    3.200    0.933    1.867 
#    0.000    0.667    0.000    4.000    0.000    6.533 
#    0.000    3.200    0.000    0.000    0.000    0.000 
#
# Total GULP energy -743395.195645 kJ/mol
# GULP energy per Si atom -12389.919927 kJ/mol
# Density = 1.504837 g / cm^3
# Si number density = 15.082702 Si / 1000 Ang^3
#
#
#
# Elastic Constant Matrix: (Units=GPa)
#
#
# Indices 1 2 3 4 5 6 
#
# 1 65.0839 24.8820 31.1174 0.0000 0.0000 0.0000
# 2 24.8820 68.9108 19.2804 0.0000 0.0000 0.0000
# 3 31.1174 19.2804 58.9220 0.0000 0.0000 0.0000
# 4 0.0000 0.0000 0.0000 9.1750 0.0000 0.0000
# 5 0.0000 0.0000 0.0000 0.0000 9.7141 0.0000
# 6 0.0000 0.0000 0.0000 0.0000 0.0000 21.7709
#
#
#
# Elastic Compliance Matrix: (Units=1/GPa)
#
#
# Indices 1 2 3 4 5 6 
#
# 1 0.022124 -0.005195 -0.009984 0.000000 0.000000 0.000000
# 2 -0.005195 0.017194 -0.002883 0.000000 0.000000 0.000000
# 3 -0.009984 -0.002883 0.023188 0.000000 0.000000 0.000000
# 4 0.000000 0.000000 0.000000 0.108992 0.000000 0.000000
# 5 0.000000 0.000000 0.000000 0.000000 0.102943 0.000000
# 6 0.000000 0.000000 0.000000 0.000000 0.000000 0.045933
#
#
# Mechanical properties :
#
#
# Convention : Reuss Voigt Hill
#
# Bulk Modulus (GPa) = 37.90450 38.16403 38.03427
# Shear Modulus (GPa) = 13.68772 15.97448 14.83110
#
# Velocity S-wave (km/s) = 3.01576 3.25795 3.13919
# Velocity P-wave (km/s) = 6.10836 6.28573 6.19768
#
# Compressibility (1/GPa) = 0.02638209
#
# Stress axis : x y z
#
# Youngs Moduli (GPa) = 45.19878 58.16032 43.12653
#
# Poissons Ratio (x) = 0.30215 0.43059
# Poissons Ratio (y) = 0.23481 0.12431
# Poissons Ratio (z) = 0.45128 0.16765
#
# Static dielectric constant tensor:
#      x y z
#    x 2.767640 0.000000 0.000000 
#    y 0.000000 3.058380 0.000000 
#    z 0.000000 0.000000 2.803940 
# 
# 
# High freq. dielectric constant tensor:
#      x y z
#    x 1.565530 0.000000 0.000000 
#    y 0.000000 1.552970 0.000000 
#    z 0.000000 0.000000 1.548230 
# 
# From -- ./inp_files/71628.got.cif
#   From: 2010.03.12/outbox.cif.g09.slc.cpg/sg65_36_cif.got.tgz:71628.got - 2010.04.10 20:52:16.
