data_PCOD8265369
_publ_section_title
;
Structure prediction by ZEFSAII (Michael W. Deem and Ramdas Pophale) SiO2 
 PCOD8265369
Probable space group: C M M M
;
_chemical_formula_sum "Si O2"
_cell_formula_units_Z 72
_cell_length_a 10.130893
_cell_length_b 22.833840
_cell_length_c 18.583654
_cell_angle_alpha 90.000000
_cell_angle_beta 90.000000
_cell_angle_gamma 90.000000
_cell_volume 4298.904456
_symmetry_space_group_name_H-M "C M M M"
_symmetry_group_IT_number 65
_symmetry_cell_setting 'orthorhombic'
loop_
_space_group_symop_operation_xyz
x,y,z
-x,-y,z
x,-y,-z
-x,y,-z
-x,-y,-z
x,y,-z
-x,y,z
x,-y,z
1/2+x,1/2+y,z
1/2-x,1/2-y,z
1/2+x,1/2-y,-z
1/2-x,1/2+y,-z
1/2-x,1/2-y,-z
1/2+x,1/2+y,-z
1/2-x,1/2+y,z
1/2+x,1/2-y,z
loop_
_atom_site_type_symbol
_atom_site_label
_atom_site_fract_x
_atom_site_fract_y
_atom_site_fract_z
Si Si1 0.350997 0.357800 0.774699
Si Si2 0.654926 0.931965 0.689520
Si Si3 0.350396 0.159683 0.421965
Si Si4 0.851561 0.800927 0.919933
Si Si5 0.750000 0.750000 0.314249
O O1 0.500000 0.378826 0.756442
O O2 0.243995 0.406812 0.754021
O O3 0.332971 0.351215 0.860549
O O4 0.330094 0.295191 0.735418
O O5 0.500000 0.919659 0.706011
O O6 0.704820 0.898506 0.617601
O O7 0.683329 0.000000 0.679088
O O8 0.277703 0.169165 0.500000
O O9 0.500000 0.147513 0.439826
O O10 0.344620 0.214626 0.368216
O O11 0.750000 0.750000 0.902277
O O12 0.000000 0.774984 0.914623
O O13 0.825930 0.827067 0.000000
#
# Coordination Sequence:
#
# PCOD8265369 Si02
#       5
#    16  16  16  16   8
#     4  10  19  30  48  72  97 127 157 192 232 275
#     4   9  19  34  50  68  90 120 160 203 242 280
#     4   9  17  28  44  66  91 120 154 193 234 278
#     4   9  17  29  45  69 100 130 157 185 222 272
#     4  10  17  28  43  68  98 128 152 186 225 288
#
# _framework density 16.748453000000001
#
# number of rings (size 3 to 8) (size 9 to 14) (size 15 to 20)
#    0.000    2.667    1.111    1.000    0.000    2.667 
#    0.000    2.222    0.000    6.667    0.000   10.889 
#    0.000    0.000    0.000    0.000    0.000    0.000 
#
# Total GULP energy -446031.509552 kJ/mol
# GULP energy per Si atom -12389.764154 kJ/mol
# Density = 1.671033 g / cm^3
# Si number density = 16.748453 Si / 1000 Ang^3
#
#
#
# Elastic Constant Matrix: (Units=GPa)
#
#
# Indices 1 2 3 4 5 6 
#
# 1 58.6742 23.8303 30.8165 0.0000 0.0000 0.0000
# 2 23.8303 89.0744 35.7307 0.0000 0.0000 0.0000
# 3 30.8165 35.7307 106.3085 0.0000 0.0000 0.0000
# 4 0.0000 0.0000 0.0000 10.7150 0.0000 0.0000
# 5 0.0000 0.0000 0.0000 0.0000 21.7875 0.0000
# 6 0.0000 0.0000 0.0000 0.0000 0.0000 24.7009
#
#
#
# Elastic Compliance Matrix: (Units=1/GPa)
#
#
# Indices 1 2 3 4 5 6 
#
# 1 0.021103 -0.003689 -0.004877 0.000000 0.000000 0.000000
# 2 -0.003689 0.013621 -0.003509 0.000000 0.000000 0.000000
# 3 -0.004877 -0.003509 0.012000 0.000000 0.000000 0.000000
# 4 0.000000 0.000000 0.000000 0.093327 0.000000 0.000000
# 5 0.000000 0.000000 0.000000 0.000000 0.045898 0.000000
# 6 0.000000 0.000000 0.000000 0.000000 0.000000 0.040484
#
#
# Mechanical properties :
#
#
# Convention : Reuss Voigt Hill
#
# Bulk Modulus (GPa) = 44.30003 48.31246 46.30625
# Shear Modulus (GPa) = 19.37169 22.35264 20.86217
#
# Velocity S-wave (km/s) = 3.40461 3.65719 3.53316
# Velocity P-wave (km/s) = 6.47787 6.83681 6.65976
#
# Compressibility (1/GPa) = 0.02257335
#
# Stress axis : x y z
#
# Youngs Moduli (GPa) = 47.38577 73.41591 83.33550
#
# Poissons Ratio (x) = 0.27086 0.40646
# Poissons Ratio (y) = 0.17482 0.29239
# Poissons Ratio (z) = 0.23112 0.25759
#
# Static dielectric constant tensor:
#      x y z
#    x 3.098220 0.000000 0.000000 
#    y 0.000000 2.910700 0.000000 
#    z 0.000000 0.000000 3.625660 
# 
# 
# High freq. dielectric constant tensor:
#      x y z
#    x 1.637800 0.000000 0.000000 
#    y 0.000000 1.614510 0.000000 
#    z 0.000000 0.000000 1.658930 
# 
# From -- ./inp_files/55531.got.cif
#   From: 2010.03.12/outbox.cif.g09.slc.cpg/sg65_28_cif.got.tgz:55531.got - 2010.04.10 20:52:16.
