data_PCOD8265650
_publ_section_title
;
Structure prediction by ZEFSAII (Michael W. Deem and Ramdas Pophale) SiO2 
 PCOD8265650
Probable space group: C M M M
;
_chemical_formula_sum "Si O2"
_cell_formula_units_Z 72
_cell_length_a 34.660860
_cell_length_b 14.156704
_cell_length_c 9.240349
_cell_angle_alpha 90.000000
_cell_angle_beta 90.000000
_cell_angle_gamma 90.000000
_cell_volume 4534.087116
_symmetry_space_group_name_H-M "C M M M"
_symmetry_group_IT_number 65
_symmetry_cell_setting 'orthorhombic'
loop_
_space_group_symop_operation_xyz
x,y,z
-x,-y,z
x,-y,-z
-x,y,-z
-x,-y,-z
x,y,-z
-x,y,z
x,-y,z
1/2+x,1/2+y,z
1/2-x,1/2-y,z
1/2+x,1/2-y,-z
1/2-x,1/2+y,-z
1/2-x,1/2-y,-z
1/2+x,1/2+y,-z
1/2-x,1/2+y,z
1/2+x,1/2-y,z
loop_
_atom_site_type_symbol
_atom_site_label
_atom_site_fract_x
_atom_site_fract_y
_atom_site_fract_z
Si Si1 0.725747 0.611451 0.835052
Si Si2 0.198838 0.606048 0.333652
Si Si3 0.500000 0.387964 0.658379
Si Si4 0.082562 0.106195 0.327314
Si Si5 0.342426 0.710252 0.332187
O O1 0.721863 0.500000 0.822566
O O2 0.765508 0.644370 0.760656
O O3 0.689586 0.655184 0.755509
O O4 0.726553 0.646278 0.000000
O O5 0.212360 0.607592 0.500000
O O6 0.186147 0.500000 0.287475
O O7 0.162825 0.676919 0.309234
O O8 0.500000 0.500000 0.640804
O O9 0.500000 0.340001 0.500000
O O10 0.540591 0.360168 0.737475
O O11 0.079118 0.106186 0.500000
O O12 0.115527 0.178670 0.273962
O O13 0.092869 0.000000 0.273633
O O14 0.337946 0.682220 0.500000
#
# Coordination Sequence:
#
# PCOD8265650 Si02
#       5
#    16  16   8  16  16
#     4  10  20  31  42  58  81 107 132 161 200 242
#     4   9  18  31  43  55  75 105 139 171 201 233
#     4   7  10  18  32  52  80 106 122 145 187 233
#     4   8  13  21  35  57  82 103 124 154 192 233
#     4  10  18  27  42  62  80 102 134 169 201 231
#
# _framework density 15.879713000000001
#
# number of rings (size 3 to 8) (size 9 to 14) (size 15 to 20)
#    0.000    3.000    0.000    3.333    0.000    5.778 
#    0.000    0.000    0.000    0.000    0.000    1.556 
#    0.000   10.667    0.000    0.000    0.000   12.778 
#
# Total GULP energy -446055.396301 kJ/mol
# GULP energy per Si atom -12390.427675 kJ/mol
# Density = 1.584357 g / cm^3
# Si number density = 15.879713 Si / 1000 Ang^3
#
#
#
# Elastic Constant Matrix: (Units=GPa)
#
#
# Indices 1 2 3 4 5 6 
#
# 1 156.8262 77.3476 32.8624 0.0000 0.0000 0.0000
# 2 77.3476 49.8798 22.0413 0.0000 0.0000 0.0000
# 3 32.8624 22.0413 39.6625 0.0000 0.0000 0.0000
# 4 0.0000 0.0000 0.0000 12.6824 0.0000 0.0000
# 5 0.0000 0.0000 0.0000 0.0000 -1.4138 0.0000
# 6 0.0000 0.0000 0.0000 0.0000 0.0000 23.6601
#
#
#
# Elastic Compliance Matrix: (Units=1/GPa)
#
#
# Indices 1 2 3 4 5 6 
#
# 1 0.027154 -0.042635 0.001195 0.000000 0.000000 0.000000
# 2 -0.042635 0.093516 -0.016644 0.000000 0.000000 0.000000
# 3 0.001195 -0.016644 0.033472 0.000000 0.000000 0.000000
# 4 0.000000 0.000000 0.000000 0.078849 0.000000 0.000000
# 5 0.000000 0.000000 0.000000 0.000000 -0.707327 0.000000
# 6 0.000000 0.000000 0.000000 0.000000 0.000000 0.042265
#
#
# Mechanical properties :
#
#
# Convention : Reuss Voigt Hill
#
# Bulk Modulus (GPa) = 26.33357 56.76345 41.54851
# Shear Modulus (GPa) = -16.48832 14.59358 -0.94737
#
# Velocity S-wave (km/s) = -3.22580 3.03480 -0.77323
# Velocity P-wave (km/s) = 1.65673 6.93567 5.04224
#
# Compressibility (1/GPa) = 0.03797435
#
# Stress axis : x y z
#
# Youngs Moduli (GPa) = 36.82701 10.69336 29.87569
#
# Poissons Ratio (x) = 0.45591 -0.03569
# Poissons Ratio (y) = 1.57012 0.49724
# Poissons Ratio (z) = -0.04400 0.17798
#
# Static dielectric constant tensor:
#      x y z
#    x 3.358020 0.000000 0.000000 
#    y 0.000000 3.080950 0.000000 
#    z 0.000000 0.000000 2.793200 
# 
# 
# High freq. dielectric constant tensor:
#      x y z
#    x 1.604080 0.000000 0.000000 
#    y 0.000000 1.594280 0.000000 
#    z 0.000000 0.000000 1.576370 
# 
# From -- ./inp_files/18016.got.cif
#   From: 2010.03.12/outbox.cif.g09.slc.cpg/sg65_10_cif.got.tgz:18016.got - 2010.04.10 20:52:16.
