data_PCOD8265163
_publ_section_title
;
Structure prediction by ZEFSAII (Michael W. Deem and Ramdas Pophale) SiO2 
 PCOD8265163
Probable space group: C M M M
;
_chemical_formula_sum "Si O2"
_cell_formula_units_Z 72
_cell_length_a 12.090784
_cell_length_b 19.701561
_cell_length_c 17.019662
_cell_angle_alpha 90.000000
_cell_angle_beta 90.000000
_cell_angle_gamma 90.000000
_cell_volume 4054.208047
_symmetry_space_group_name_H-M "C M M M"
_symmetry_group_IT_number 65
_symmetry_cell_setting 'orthorhombic'
loop_
_space_group_symop_operation_xyz
x,y,z
-x,-y,z
x,-y,-z
-x,y,-z
-x,-y,-z
x,y,-z
-x,y,z
x,-y,z
1/2+x,1/2+y,z
1/2-x,1/2-y,z
1/2+x,1/2-y,-z
1/2-x,1/2+y,-z
1/2-x,1/2-y,-z
1/2+x,1/2+y,-z
1/2-x,1/2+y,z
1/2+x,1/2-y,z
loop_
_atom_site_type_symbol
_atom_site_label
_atom_site_fract_x
_atom_site_fract_y
_atom_site_fract_z
Si Si1 0.872361 0.919164 0.000000
Si Si2 0.500000 0.574279 0.751646
Si Si3 0.710356 0.419549 0.835634
Si Si4 0.737063 0.325524 0.589437
Si Si5 0.000000 0.885107 0.414916
Si Si6 0.627924 0.080223 0.294350
O O1 0.804794 0.891001 0.924132
O O2 0.000000 0.893069 0.000000
O O3 0.873559 0.000000 0.000000
O O4 0.500000 0.500000 0.790583
O O5 0.389685 0.611424 0.782603
O O6 0.500000 0.563530 0.657778
O O7 0.704306 0.500000 0.838465
O O8 0.824056 0.398615 0.791890
O O9 0.781458 0.329446 0.500000
O O10 0.750000 0.250000 0.624366
O O11 0.606863 0.338402 0.592739
O O12 0.807109 0.380177 0.638069
O O13 0.000000 0.923348 0.500000
O O14 0.500000 0.100869 0.295691
O O15 0.644914 0.000000 0.309759
#
# Coordination Sequence:
#
# PCOD8265163 Si02
#       6
#     8   8  16  16   8  16
#     4   9  14  22  41  71 102 133 167 207 261 319
#     4  10  16  26  46  70 101 132 159 206 261 306
#     4   9  16  27  44  70 102 132 167 210 257 307
#     4  10  22  37  54  76 104 136 174 222 267 310
#     4  10  20  33  49  73  99 128 169 212 265 315
#     4  10  21  36  53  74 105 145 183 216 257 314
#
# _framework density 17.759326000000001
#
# number of rings (size 3 to 8) (size 9 to 14) (size 15 to 20)
#    0.000    2.333    3.333    0.000    1.556    1.111 
#    0.000    3.889    0.000    3.333    0.000    0.778 
#    0.000    0.000    0.000    0.000    0.000    0.000 
#
# Total GULP energy -445993.597568 kJ/mol
# GULP energy per Si atom -12388.711044 kJ/mol
# Density = 1.771890 g / cm^3
# Si number density = 17.759326 Si / 1000 Ang^3
#
#
#
# Elastic Constant Matrix: (Units=GPa)
#
#
# Indices 1 2 3 4 5 6 
#
# 1 138.6628 32.9126 63.7354 0.0000 0.0000 0.0000
# 2 32.9126 41.2244 24.9717 0.0000 0.0000 0.0000
# 3 63.7354 24.9717 146.1625 0.0000 0.0000 0.0000
# 4 0.0000 0.0000 0.0000 3.5629 0.0000 0.0000
# 5 0.0000 0.0000 0.0000 0.0000 17.6375 0.0000
# 6 0.0000 0.0000 0.0000 0.0000 0.0000 11.7323
#
#
#
# Elastic Compliance Matrix: (Units=1/GPa)
#
#
# Indices 1 2 3 4 5 6 
#
# 1 0.010231 -0.006096 -0.003420 0.000000 0.000000 0.000000
# 2 -0.006096 0.030691 -0.002585 0.000000 0.000000 0.000000
# 3 -0.003420 -0.002585 0.008774 0.000000 0.000000 0.000000
# 4 0.000000 0.000000 0.000000 0.280672 0.000000 0.000000
# 5 0.000000 0.000000 0.000000 0.000000 0.056697 0.000000
# 6 0.000000 0.000000 0.000000 0.000000 0.000000 0.085235
#
#
# Mechanical properties :
#
#
# Convention : Reuss Voigt Hill
#
# Bulk Modulus (GPa) = 39.22558 63.25435 51.23997
# Shear Modulus (GPa) = 9.90101 20.21521 15.05811
#
# Velocity S-wave (km/s) = 2.36373 3.37751 2.91503
# Velocity P-wave (km/s) = 5.43920 7.13477 6.34389
#
# Compressibility (1/GPa) = 0.02549357
#
# Stress axis : x y z
#
# Youngs Moduli (GPa) = 97.74649 32.58321 113.96686
#
# Poissons Ratio (x) = 0.19864 0.38971
# Poissons Ratio (y) = 0.59591 0.29461
# Poissons Ratio (z) = 0.33425 0.08423
#
# Static dielectric constant tensor:
#      x y z
#    x 3.441960 0.000000 0.000000 
#    y 0.000000 2.786000 0.000000 
#    z 0.000000 0.000000 3.682130 
# 
# 
# High freq. dielectric constant tensor:
#      x y z
#    x 1.692820 0.000000 0.000000 
#    y 0.000000 1.626250 0.000000 
#    z 0.000000 0.000000 1.697140 
# 
# From -- ./inp_files/51301.got.cif
#   From: 2010.03.12/outbox.cif.g09.slc.cpg/sg65_26_cif.got.tgz:51301.got - 2010.04.10 20:52:16.
