data_PCOD8265517
_publ_section_title
;
Structure prediction by ZEFSAII (Michael W. Deem and Ramdas Pophale) SiO2 
 PCOD8265517
Probable space group: C M M M
;
_chemical_formula_sum "Si O2"
_cell_formula_units_Z 96
_cell_length_a 17.862824
_cell_length_b 18.718159
_cell_length_c 16.668798
_cell_angle_alpha 90.000000
_cell_angle_beta 90.000000
_cell_angle_gamma 90.000000
_cell_volume 5573.365628
_symmetry_space_group_name_H-M "C M M M"
_symmetry_group_IT_number 65
_symmetry_cell_setting 'orthorhombic'
loop_
_space_group_symop_operation_xyz
x,y,z
-x,-y,z
x,-y,-z
-x,y,-z
-x,-y,-z
x,y,-z
-x,y,z
x,-y,z
1/2+x,1/2+y,z
1/2-x,1/2-y,z
1/2+x,1/2-y,-z
1/2-x,1/2+y,-z
1/2-x,1/2-y,-z
1/2+x,1/2+y,-z
1/2-x,1/2+y,z
1/2+x,1/2-y,z
loop_
_atom_site_type_symbol
_atom_site_label
_atom_site_fract_x
_atom_site_fract_y
_atom_site_fract_z
Si Si1 0.691005 0.686945 0.637796
Si Si2 0.188401 0.585841 0.174337
Si Si3 0.687001 0.309071 0.816596
Si Si4 0.413282 0.202439 0.905548
Si Si5 0.082962 0.220233 0.500000
Si Si6 0.416495 0.888489 0.500000
Si Si7 0.189495 0.420652 0.356580
O O1 0.750000 0.750000 0.628625
O O2 0.656343 0.679635 0.726632
O O3 0.621316 0.693242 0.580101
O O4 0.737835 0.618625 0.609886
O O5 0.184955 0.500000 0.156608
O O6 0.272247 0.617071 0.153491
O O7 0.126962 0.629426 0.123460
O O8 0.168010 0.606148 0.266885
O O9 0.750000 0.250000 0.814255
O O10 0.620712 0.277426 0.871661
O O11 0.500000 0.198255 0.879866
O O12 0.403399 0.206354 0.000000
O O13 0.083658 0.304493 0.500000
O O14 0.000000 0.188652 0.500000
O O15 0.500000 0.919856 0.500000
O O16 0.378694 0.915635 0.581627
O O17 0.217470 0.500000 0.347081
#
# Coordination Sequence:
#
# PCOD8265517 Si02
#       7
#    16  16  16  16   8   8  16
#     4  10  17  33  52  69  93 128 166 208 246 289
#     4   9  19  35  54  78 104 130 166 211 255 296
#     4   8  17  32  53  75  95 128 172 212 246 289
#     4  10  21  35  52  76 106 137 166 198 243 303
#     4  11  22  30  45  73 101 127 163 210 251 286
#     4  11  22  32  44  70 105 138 169 201 240 292
#     4  10  20  34  52  73  97 131 168 205 247 290
#
# _framework density 17.224781
#
# number of rings (size 3 to 8) (size 9 to 14) (size 15 to 20)
#    0.000    2.333    1.667    2.000    0.000    5.667 
#    0.000    2.500    0.000    1.500    0.000    5.833 
#    0.000    0.000    0.000    0.000    0.000    0.000 
#
# Total GULP energy -594787.352021 kJ/mol
# GULP energy per Si atom -12391.403167 kJ/mol
# Density = 1.718558 g / cm^3
# Si number density = 17.224781 Si / 1000 Ang^3
#
#
#
# Elastic Constant Matrix: (Units=GPa)
#
#
# Indices 1 2 3 4 5 6 
#
# 1 115.9526 55.2291 60.3488 0.0000 0.0000 0.0000
# 2 55.2291 78.6254 37.5568 0.0000 0.0000 0.0000
# 3 60.3488 37.5568 86.9354 0.0000 0.0000 0.0000
# 4 0.0000 0.0000 0.0000 31.7402 0.0000 0.0000
# 5 0.0000 0.0000 0.0000 0.0000 16.9245 0.0000
# 6 0.0000 0.0000 0.0000 0.0000 0.0000 17.9432
#
#
#
# Elastic Compliance Matrix: (Units=1/GPa)
#
#
# Indices 1 2 3 4 5 6 
#
# 1 0.016547 -0.007732 -0.008146 0.000000 0.000000 0.000000
# 2 -0.007732 0.019638 -0.003117 0.000000 0.000000 0.000000
# 3 -0.008146 -0.003117 0.018504 0.000000 0.000000 0.000000
# 4 0.000000 0.000000 0.000000 0.031506 0.000000 0.000000
# 5 0.000000 0.000000 0.000000 0.000000 0.059086 0.000000
# 6 0.000000 0.000000 0.000000 0.000000 0.000000 0.055731
#
#
# Mechanical properties :
#
#
# Convention : Reuss Voigt Hill
#
# Bulk Modulus (GPa) = 59.88069 65.30922 62.59495
# Shear Modulus (GPa) = 20.44421 21.88017 21.16219
#
# Velocity S-wave (km/s) = 3.44889 3.56796 3.50893
# Velocity P-wave (km/s) = 7.12036 7.41430 7.26882
#
# Compressibility (1/GPa) = 0.01669988
#
# Stress axis : x y z
#
# Youngs Moduli (GPa) = 60.43496 50.92082 54.04195
#
# Poissons Ratio (x) = 0.39371 0.44024
# Poissons Ratio (y) = 0.46727 0.16843
# Poissons Ratio (z) = 0.49232 0.15870
#
# Static dielectric constant tensor:
#      x y z
#    x 3.258080 0.000000 0.000000 
#    y 0.000000 3.431790 0.000000 
#    z 0.000000 0.000000 3.317800 
# 
# 
# High freq. dielectric constant tensor:
#      x y z
#    x 1.644720 0.000000 0.000000 
#    y 0.000000 1.662330 0.000000 
#    z 0.000000 0.000000 1.670520 
# 
# From -- ./inp_files/54543.got.cif
#   From: 2010.03.12/outbox.cif.g09.slc.cpg/sg65_28_cif.got.tgz:54543.got - 2010.04.10 20:52:16.
