data_PCOD8265031
_publ_section_title
;
Structure prediction by ZEFSAII (Michael W. Deem and Ramdas Pophale) SiO2 
 PCOD8265031
Probable space group: C M C A
;
_chemical_formula_sum "Si O2"
_cell_formula_units_Z 128
_cell_length_a 19.889469
_cell_length_b 19.391812
_cell_length_c 20.089198
_cell_angle_alpha 90.000000
_cell_angle_beta 90.000000
_cell_angle_gamma 90.000000
_cell_volume 7748.259903
_symmetry_space_group_name_H-M "C M C A"
_symmetry_group_IT_number 64
_symmetry_cell_setting 'orthorhombic'
loop_
_space_group_symop_operation_xyz
x,y,z
-x,1/2-y,1/2+z
x,-y,-z
-x,1/2+y,1/2-z
-x,-y,-z
x,1/2+y,1/2-z
-x,y,z
x,1/2-y,1/2+z
1/2+x,1/2+y,z
1/2-x,-y,1/2+z
1/2+x,1/2-y,-z
1/2-x,y,1/2-z
1/2-x,1/2-y,-z
1/2+x,y,1/2-z
1/2-x,1/2+y,z
1/2+x,-y,1/2+z
loop_
_atom_site_type_symbol
_atom_site_label
_atom_site_fract_x
_atom_site_fract_y
_atom_site_fract_z
Si Si1 0.645207 0.948668 0.445435
Si Si2 0.181720 0.207861 0.716979
Si Si3 0.924986 0.951157 0.187514
Si Si4 0.424473 0.712655 0.822262
Si Si5 0.687316 0.798423 0.069357
Si Si6 0.345582 0.206823 0.548471
Si Si7 0.304020 0.954608 0.062356
Si Si8 0.315803 0.456536 0.288534
O O1 0.611677 0.976667 0.378534
O O2 0.626821 0.870210 0.464911
O O3 0.724414 0.954000 0.439131
O O4 0.615820 0.000000 0.500000
O O5 0.250000 0.237643 0.750000
O O6 0.119585 0.237725 0.759617
O O7 0.168599 0.232257 0.641572
O O8 0.188791 0.125727 0.712880
O O9 0.926161 0.869158 0.183273
O O10 0.883308 0.979626 0.250437
O O11 0.000000 0.981489 0.192767
O O12 0.500000 0.743404 0.819008
O O13 0.388532 0.737688 0.890246
O O14 0.767369 0.792367 0.065848
O O15 0.665868 0.877629 0.056397
O O16 0.645041 0.753329 0.016861
O O17 0.322549 0.984873 0.135600
O O18 0.332165 0.000000 0.000000
O O19 0.250000 0.486257 0.250000
#
# Coordination Sequence:
#
# PCOD8265031 Si02
#       8
#    16  16  16  16  16  16  16  16
#     4   9  16  26  41  63  90 117 141 174 217 264
#     4   9  14  24  42  64  85 108 145 184 219 255
#     4   9  16  25  40  64  89 114 146 180 216 256
#     4   9  16  26  41  63  90 115 143 182 220 256
#     4   9  16  26  44  66  87 113 145 182 218 258
#     4   9  16  27  42  64  88 114 145 176 217 264
#     4   9  16  26  43  67  89 112 142 180 223 260
#     4   9  14  24  42  62  85 111 144 183 219 250
#
# _framework density 16.519838
#
# number of rings (size 3 to 8) (size 9 to 14) (size 15 to 20)
#    0.000    3.000    2.500    0.000    0.000    0.250 
#    0.000    0.625    0.000    2.625    0.000    1.750 
#    0.000    0.000    0.000    0.000    0.000    0.000 
#
# Total GULP energy -793045.196395 kJ/mol
# GULP energy per Si atom -12391.331194 kJ/mol
# Density = 1.648224 g / cm^3
# Si number density = 16.519838 Si / 1000 Ang^3
#
#
#
# Elastic Constant Matrix: (Units=GPa)
#
#
# Indices 1 2 3 4 5 6 
#
# 1 50.1958 14.7890 45.3648 0.0000 0.0000 0.0000
# 2 14.7890 33.6549 45.7886 0.0000 0.0000 0.0000
# 3 45.3648 45.7886 176.9593 0.0000 0.0000 0.0000
# 4 0.0000 0.0000 0.0000 24.5159 0.0000 0.0000
# 5 0.0000 0.0000 0.0000 0.0000 21.1651 0.0000
# 6 0.0000 0.0000 0.0000 0.0000 0.0000 6.7516
#
#
#
# Elastic Compliance Matrix: (Units=1/GPa)
#
#
# Indices 1 2 3 4 5 6 
#
# 1 0.026220 -0.003668 -0.005772 0.000000 0.000000 0.000000
# 2 -0.003668 0.046370 -0.011058 0.000000 0.000000 0.000000
# 3 -0.005772 -0.011058 0.009992 0.000000 0.000000 0.000000
# 4 0.000000 0.000000 0.000000 0.040790 0.000000 0.000000
# 5 0.000000 0.000000 0.000000 0.000000 0.047248 0.000000
# 6 0.000000 0.000000 0.000000 0.000000 0.000000 0.148114
#
#
# Mechanical properties :
#
#
# Convention : Reuss Voigt Hill
#
# Bulk Modulus (GPa) = 24.04736 52.52163 38.28450
# Shear Modulus (GPa) = 13.38359 20.81103 17.09731
#
# Velocity S-wave (km/s) = 2.84941 3.55316 3.22056
# Velocity P-wave (km/s) = 5.04121 6.97821 6.08724
#
# Compressibility (1/GPa) = 0.04158460
#
# Stress axis : x y z
#
# Youngs Moduli (GPa) = 38.13945 21.56568 100.07909
#
# Poissons Ratio (x) = 0.07911 0.57770
# Poissons Ratio (y) = 0.13990 1.10667
# Poissons Ratio (z) = 0.22016 0.23847
#
# Static dielectric constant tensor:
#      x y z
#    x 3.064150 0.000000 0.000000 
#    y 0.000000 2.745890 0.000000 
#    z 0.000000 0.000000 3.421340 
# 
# 
# High freq. dielectric constant tensor:
#      x y z
#    x 1.614740 0.000000 0.000000 
#    y 0.000000 1.574930 0.000000 
#    z 0.000000 0.000000 1.652730 
# 
# From -- ./inp_files/34704.got.cif
#   From: 2010.03.12/outbox.cif.g09.slc.cpg/sg64_18_cif.got.tgz:34704.got - 2010.04.10 20:19:32.
