data_PCOD8265702
_publ_section_title
;
Structure prediction by ZEFSAII (Michael W. Deem and Ramdas Pophale) SiO2 
 PCOD8265702
Probable space group: C M M M
;
_chemical_formula_sum "Si O2"
_cell_formula_units_Z 80
_cell_length_a 7.982193
_cell_length_b 26.039320
_cell_length_c 23.728638
_cell_angle_alpha 90.000000
_cell_angle_beta 90.000000
_cell_angle_gamma 90.000000
_cell_volume 4932.018238
_symmetry_space_group_name_H-M "C M M M"
_symmetry_group_IT_number 65
_symmetry_cell_setting 'orthorhombic'
loop_
_space_group_symop_operation_xyz
x,y,z
-x,-y,z
x,-y,-z
-x,y,-z
-x,-y,-z
x,y,-z
-x,y,z
x,-y,z
1/2+x,1/2+y,z
1/2-x,1/2-y,z
1/2+x,1/2-y,-z
1/2-x,1/2+y,-z
1/2-x,1/2-y,-z
1/2+x,1/2+y,-z
1/2-x,1/2+y,z
1/2+x,1/2-y,z
loop_
_atom_site_type_symbol
_atom_site_label
_atom_site_fract_x
_atom_site_fract_y
_atom_site_fract_z
Si Si1 0.197609 0.194851 0.936781
Si Si2 0.800996 0.901897 0.131513
Si Si3 0.699489 0.500000 0.936595
Si Si4 0.305759 0.057926 0.246687
Si Si5 0.000000 0.438678 0.563814
Si Si6 0.814592 0.061001 0.365931
O O1 0.250000 0.250000 0.911500
O O2 0.269913 0.150126 0.896771
O O3 0.000000 0.189991 0.939262
O O4 0.272331 0.188590 0.000000
O O5 0.731771 0.904676 0.194742
O O6 0.000000 0.902448 0.133117
O O7 0.732074 0.949769 0.095328
O O8 0.500000 0.500000 0.937783
O O9 0.770985 0.500000 0.000000
O O10 0.500000 0.057720 0.261899
O O11 0.210439 0.079554 0.301569
O O12 0.244680 0.000000 0.231647
O O13 0.168126 0.416688 0.593899
O O14 0.000000 0.500000 0.565632
O O15 0.000000 0.418290 0.500000
O O16 0.000000 0.078990 0.386599
O O17 0.801526 0.000000 0.366907
#
# Coordination Sequence:
#
# PCOD8265702 Si02
#       6
#    16  16   8  16   8  16
#     4   9  18  32  48  64  82 107 142 184 226 274
#     4  10  18  28  44  65  83 106 144 182 222 276
#     4   9  16  26  41  61  85 107 131 174 227 273
#     4  10  18  28  41  58  85 113 143 181 225 270
#     4   9  16  26  38  56  82 110 148 194 228 258
#     4   9  16  26  40  56  78 112 149 186 227 265
#
# _framework density 16.220541000000001
#
# number of rings (size 3 to 8) (size 9 to 14) (size 15 to 20)
#    0.000    2.600    2.000    1.200    0.000    4.400 
#    0.000    2.000    0.000    2.400    0.000    0.000 
#    0.000    0.000    0.000    0.000    0.000    1.000 
#
# Total GULP energy -495881.226374 kJ/mol
# GULP energy per Si atom -12397.030659 kJ/mol
# Density = 1.618362 g / cm^3
# Si number density = 16.220541 Si / 1000 Ang^3
#
#
#
# Elastic Constant Matrix: (Units=GPa)
#
#
# Indices 1 2 3 4 5 6 
#
# 1 71.2852 17.5621 44.6742 0.0000 0.0000 0.0000
# 2 17.5621 76.6634 39.3594 0.0000 0.0000 0.0000
# 3 44.6742 39.3594 121.9256 0.0000 0.0000 0.0000
# 4 0.0000 0.0000 0.0000 10.6345 0.0000 0.0000
# 5 0.0000 0.0000 0.0000 0.0000 23.6721 0.0000
# 6 0.0000 0.0000 0.0000 0.0000 0.0000 13.2565
#
#
#
# Elastic Compliance Matrix: (Units=1/GPa)
#
#
# Indices 1 2 3 4 5 6 
#
# 1 0.018261 -0.000897 -0.006401 0.000000 0.000000 0.000000
# 2 -0.000897 0.015679 -0.004733 0.000000 0.000000 0.000000
# 3 -0.006401 -0.004733 0.012075 0.000000 0.000000 0.000000
# 4 0.000000 0.000000 0.000000 0.094034 0.000000 0.000000
# 5 0.000000 0.000000 0.000000 0.000000 0.042244 0.000000
# 6 0.000000 0.000000 0.000000 0.000000 0.000000 0.075435
#
#
# Mechanical properties :
#
#
# Convention : Reuss Voigt Hill
#
# Bulk Modulus (GPa) = 45.55154 52.56284 49.05719
# Shear Modulus (GPa) = 17.29462 20.73120 19.01291
#
# Velocity S-wave (km/s) = 3.26884 3.57891 3.42738
# Velocity P-wave (km/s) = 6.51081 7.03943 6.78027
#
# Compressibility (1/GPa) = 0.02195315
#
# Stress axis : x y z
#
# Youngs Moduli (GPa) = 54.76216 63.77805 82.81501
#
# Poissons Ratio (x) = 0.05719 0.53013
# Poissons Ratio (y) = 0.04910 0.39196
# Poissons Ratio (z) = 0.35055 0.30186
#
# Static dielectric constant tensor:
#      x y z
#    x 3.049980 0.000000 0.000000 
#    y 0.000000 2.799750 0.000000 
#    z 0.000000 0.000000 3.114250 
# 
# 
# High freq. dielectric constant tensor:
#      x y z
#    x 1.626070 0.000000 0.000000 
#    y 0.000000 1.560170 0.000000 
#    z 0.000000 0.000000 1.619240 
# 
# From -- ./inp_files/60546.got.cif
#   From: 2010.03.12/outbox.cif.g09.slc.cpg/sg65_31_cif.got.tgz:60546.got - 2010.04.10 20:52:16.
