data_PCOD8265378
_publ_section_title
;
Structure prediction by ZEFSAII (Michael W. Deem and Ramdas Pophale) SiO2 
 PCOD8265378
Probable space group: C M M M
;
_chemical_formula_sum "Si O2"
_cell_formula_units_Z 104
_cell_length_a 33.178011
_cell_length_b 22.822911
_cell_length_c 7.700879
_cell_angle_alpha 90.000000
_cell_angle_beta 90.000000
_cell_angle_gamma 90.000000
_cell_volume 5831.250295
_symmetry_space_group_name_H-M "C M M M"
_symmetry_group_IT_number 65
_symmetry_cell_setting 'orthorhombic'
loop_
_space_group_symop_operation_xyz
x,y,z
-x,-y,z
x,-y,-z
-x,y,-z
-x,-y,-z
x,y,-z
-x,y,z
x,-y,z
1/2+x,1/2+y,z
1/2-x,1/2-y,z
1/2+x,1/2-y,-z
1/2-x,1/2+y,-z
1/2-x,1/2-y,-z
1/2+x,1/2+y,-z
1/2-x,1/2+y,z
1/2+x,1/2-y,z
loop_
_atom_site_type_symbol
_atom_site_label
_atom_site_fract_x
_atom_site_fract_y
_atom_site_fract_z
Si Si1 0.044634 0.153068 0.703919
Si Si2 0.045131 0.500000 0.793707
Si Si3 0.820574 0.432598 0.304905
Si Si4 0.736596 0.069479 0.000000
Si Si5 0.385477 0.568412 0.700604
Si Si6 0.044839 0.280820 0.202555
Si Si7 0.904643 0.389105 0.206599
Si Si8 0.826107 0.930810 0.000000
O O1 0.040831 0.150179 0.500000
O O2 0.074935 0.102691 0.767091
O O3 0.062225 0.216240 0.759597
O O4 0.000000 0.143385 0.787242
O O5 0.068128 0.442649 0.725573
O O6 0.000000 0.500000 0.716737
O O7 0.043482 0.500000 0.000000
O O8 0.803305 0.426967 0.500000
O O9 0.831651 0.500000 0.259904
O O10 0.860427 0.393552 0.288019
O O11 0.786737 0.409008 0.172369
O O12 0.781417 0.097429 0.000000
O O13 0.740071 0.000000 0.000000
O O14 0.374495 0.583164 0.500000
O O15 0.394944 0.500000 0.723832
O O16 0.348948 0.589043 0.824197
O O17 0.075114 0.329464 0.279171
O O18 0.000000 0.286875 0.286170
O O19 0.041378 0.292378 0.000000
O O20 0.900515 0.390121 0.000000
O O21 0.822418 0.000000 0.000000
#
# Coordination Sequence:
#
# PCOD8265378 Si02
#       8
#    16   8  16   8  16  16  16   8
#     4   9  18  32  49  70  99 137 173 203 240 281
#     4   9  16  24  41  65  89 128 171 205 252 305
#     4  10  19  30  47  71  97 127 163 204 254 304
#     4   9  18  32  50  70 100 130 159 196 245 304
#     4   9  18  32  51  77 108 135 162 199 239 284
#     4   9  18  30  45  68  96 129 172 214 246 283
#     4  10  17  28  46  65  95 130 165 211 255 295
#     4   9  18  32  51  77 103 133 163 193 239 302
#
# _framework density 17.834938999999999
#
# number of rings (size 3 to 8) (size 9 to 14) (size 15 to 20)
#    0.000    2.692    1.538    0.462    1.077    3.385 
#    0.000    4.615    0.000    3.231    0.000    2.154 
#    0.000    3.692    0.000    0.000    0.000    0.000 
#
# Total GULP energy -644646.204109 kJ/mol
# GULP energy per Si atom -12397.042387 kJ/mol
# Density = 1.779435 g / cm^3
# Si number density = 17.834939 Si / 1000 Ang^3
#
#
#
# Elastic Constant Matrix: (Units=GPa)
#
#
# Indices 1 2 3 4 5 6 
#
# 1 146.2870 59.0996 52.8386 0.0000 0.0000 0.0000
# 2 59.0996 78.9633 26.0302 0.0000 0.0000 0.0000
# 3 52.8386 26.0302 69.0214 0.0000 0.0000 0.0000
# 4 0.0000 0.0000 0.0000 16.9585 0.0000 0.0000
# 5 0.0000 0.0000 0.0000 0.0000 11.3041 0.0000
# 6 0.0000 0.0000 0.0000 0.0000 0.0000 20.1257
#
#
#
# Elastic Compliance Matrix: (Units=1/GPa)
#
#
# Indices 1 2 3 4 5 6 
#
# 1 0.011955 -0.006773 -0.006598 0.000000 0.000000 0.000000
# 2 -0.006773 0.018299 -0.001716 0.000000 0.000000 0.000000
# 3 -0.006598 -0.001716 0.020187 0.000000 0.000000 0.000000
# 4 0.000000 0.000000 0.000000 0.058968 0.000000 0.000000
# 5 0.000000 0.000000 0.000000 0.000000 0.088463 0.000000
# 6 0.000000 0.000000 0.000000 0.000000 0.000000 0.049688
#
#
# Mechanical properties :
#
#
# Convention : Reuss Voigt Hill
#
# Bulk Modulus (GPa) = 49.34221 63.35649 56.34935
# Shear Modulus (GPa) = 17.57537 20.09787 18.83662
#
# Velocity S-wave (km/s) = 3.14259 3.36055 3.25339
# Velocity P-wave (km/s) = 6.39483 7.11749 6.76582
#
# Compressibility (1/GPa) = 0.02026662
#
# Stress axis : x y z
#
# Youngs Moduli (GPa) = 83.64521 54.64795 49.53795
#
# Poissons Ratio (x) = 0.37012 0.32685
# Poissons Ratio (y) = 0.56651 0.08502
# Poissons Ratio (z) = 0.55189 0.09379
#
# Static dielectric constant tensor:
#      x y z
#    x 3.435260 0.000000 0.000000 
#    y 0.000000 3.193300 0.000000 
#    z 0.000000 0.000000 3.243010 
# 
# 
# High freq. dielectric constant tensor:
#      x y z
#    x 1.677740 0.000000 0.000000 
#    y 0.000000 1.656900 0.000000 
#    z 0.000000 0.000000 1.689450 
# 
# From -- ./inp_files/18715.got.cif
#   From: 2010.03.12/outbox.cif.g09.slc.cpg/sg65_10_cif.got.tgz:18715.got - 2010.04.10 20:52:16.
