data_PCOD8265292
_publ_section_title
;
Structure prediction by ZEFSAII (Michael W. Deem and Ramdas Pophale) SiO2 
 PCOD8265292
Probable space group: C M M M
;
_chemical_formula_sum "Si O2"
_cell_formula_units_Z 72
_cell_length_a 16.659837
_cell_length_b 19.258130
_cell_length_c 13.268912
_cell_angle_alpha 90.000000
_cell_angle_beta 90.000000
_cell_angle_gamma 90.000000
_cell_volume 4257.161989
_symmetry_space_group_name_H-M "C M M M"
_symmetry_group_IT_number 65
_symmetry_cell_setting 'orthorhombic'
loop_
_space_group_symop_operation_xyz
x,y,z
-x,-y,z
x,-y,-z
-x,y,-z
-x,-y,-z
x,y,-z
-x,y,z
x,-y,z
1/2+x,1/2+y,z
1/2-x,1/2-y,z
1/2+x,1/2-y,-z
1/2-x,1/2+y,-z
1/2-x,1/2-y,-z
1/2+x,1/2+y,-z
1/2-x,1/2+y,z
1/2+x,1/2-y,z
loop_
_atom_site_type_symbol
_atom_site_label
_atom_site_fract_x
_atom_site_fract_y
_atom_site_fract_z
Si Si1 0.404194 0.078590 0.500000
Si Si2 0.092345 0.653542 0.303871
Si Si3 0.095312 0.421231 0.889585
Si Si4 0.836276 0.217665 0.617986
Si Si5 0.090855 0.076360 0.619392
O O1 0.500000 0.084098 0.500000
O O2 0.367316 0.115467 0.599238
O O3 0.373864 0.000000 0.500000
O O4 0.131948 0.627408 0.198869
O O5 0.101535 0.735904 0.318089
O O6 0.000000 0.632145 0.300998
O O7 0.121334 0.500000 0.866149
O O8 0.000000 0.415376 0.892127
O O9 0.128796 0.398365 0.000000
O O10 0.856660 0.223791 0.500000
O O11 0.750000 0.250000 0.643466
O O12 0.848610 0.137957 0.655356
O O13 0.091541 0.073675 0.500000
O O14 0.000000 0.092468 0.656557
O O15 0.118269 0.000000 0.660768
#
# Coordination Sequence:
#
# PCOD8265292 Si02
#       5
#     8  16  16  16  16
#     4   9  16  24  35  56  85 113 139 164 192 238
#     4  10  17  26  42  61  82 112 147 179 211 257
#     4   8  14  25  41  61  85 112 143 180 214 242
#     4  10  19  29  40  57  89 117 139 172 222 274
#     4   8  14  26  44  60  74 102 147 189 215 243
#
# _framework density 16.912676000000001
#
# number of rings (size 3 to 8) (size 9 to 14) (size 15 to 20)
#    0.000    3.000    1.111    2.667    0.000    3.556 
#    0.000    2.222    0.000    0.667    0.000    0.000 
#    0.000    0.889    0.000    8.222    0.000    0.222 
#
# Total GULP energy -445977.557921 kJ/mol
# GULP energy per Si atom -12388.265498 kJ/mol
# Density = 1.687418 g / cm^3
# Si number density = 16.912676 Si / 1000 Ang^3
#
#
#
# Elastic Constant Matrix: (Units=GPa)
#
#
# Indices 1 2 3 4 5 6 
#
# 1 29.6897 33.1938 11.3023 0.0000 0.0000 0.0000
# 2 33.1938 155.6599 52.7605 0.0000 0.0000 0.0000
# 3 11.3023 52.7605 100.2328 0.0000 0.0000 0.0000
# 4 0.0000 0.0000 0.0000 16.3544 0.0000 0.0000
# 5 0.0000 0.0000 0.0000 0.0000 5.7371 0.0000
# 6 0.0000 0.0000 0.0000 0.0000 0.0000 18.4207
#
#
#
# Elastic Compliance Matrix: (Units=1/GPa)
#
#
# Indices 1 2 3 4 5 6 
#
# 1 0.044226 -0.009422 -0.000028 0.000000 0.000000 0.000000
# 2 -0.009422 0.009826 -0.004110 0.000000 0.000000 0.000000
# 3 -0.000028 -0.004110 0.012143 0.000000 0.000000 0.000000
# 4 0.000000 0.000000 0.000000 0.061146 0.000000 0.000000
# 5 0.000000 0.000000 0.000000 0.000000 0.174304 0.000000
# 6 0.000000 0.000000 0.000000 0.000000 0.000000 0.054287
#
#
# Mechanical properties :
#
#
# Convention : Reuss Voigt Hill
#
# Bulk Modulus (GPa) = 25.59045 53.34393 39.46719
# Shear Modulus (GPa) = 12.62383 20.65750 16.64066
#
# Velocity S-wave (km/s) = 2.73502 3.49868 3.14015
# Velocity P-wave (km/s) = 5.01374 6.92317 6.04433
#
# Compressibility (1/GPa) = 0.03907707
#
# Stress axis : x y z
#
# Youngs Moduli (GPa) = 22.61127 101.76593 82.34967
#
# Poissons Ratio (x) = 0.95880 0.00227
# Poissons Ratio (y) = 0.21303 0.33846
# Poissons Ratio (z) = 0.00062 0.41826
#
# Static dielectric constant tensor:
#      x y z
#    x 2.746410 0.000000 0.000000 
#    y 0.000000 3.490190 0.000000 
#    z 0.000000 0.000000 3.231500 
# 
# 
# High freq. dielectric constant tensor:
#      x y z
#    x 1.603070 0.000000 0.000000 
#    y 0.000000 1.661340 0.000000 
#    z 0.000000 0.000000 1.609790 
# 
# From -- ./inp_files/28474.got.cif
#   From: 2010.03.12/outbox.cif.g09.slc.cpg/sg65_15_cif.got.tgz:28474.got - 2010.04.10 20:52:16.
