data_PCOD8265268
_publ_section_title
;
Structure prediction by ZEFSAII (Michael W. Deem and Ramdas Pophale) SiO2 
 PCOD8265268
Probable space group: C M M M
;
_chemical_formula_sum "Si O2"
_cell_formula_units_Z 72
_cell_length_a 23.658837
_cell_length_b 23.308824
_cell_length_c 8.512725
_cell_angle_alpha 90.000000
_cell_angle_beta 90.000000
_cell_angle_gamma 90.000000
_cell_volume 4694.424500
_symmetry_space_group_name_H-M "C M M M"
_symmetry_group_IT_number 65
_symmetry_cell_setting 'orthorhombic'
loop_
_space_group_symop_operation_xyz
x,y,z
-x,-y,z
x,-y,-z
-x,y,-z
-x,-y,-z
x,y,-z
-x,y,z
x,-y,z
1/2+x,1/2+y,z
1/2-x,1/2-y,z
1/2+x,1/2-y,-z
1/2-x,1/2+y,-z
1/2-x,1/2-y,-z
1/2+x,1/2+y,-z
1/2-x,1/2+y,z
1/2+x,1/2-y,z
loop_
_atom_site_type_symbol
_atom_site_label
_atom_site_fract_x
_atom_site_fract_y
_atom_site_fract_z
Si Si1 0.328763 0.775963 0.682519
Si Si2 0.389143 0.874665 0.185737
Si Si3 0.000000 0.566432 0.684937
Si Si4 0.275971 0.936622 0.186564
Si Si5 0.216901 0.827480 0.182023
O O1 0.316057 0.785206 0.500000
O O2 0.384509 0.811037 0.735311
O O3 0.278093 0.799403 0.789790
O O4 0.331538 0.707228 0.720701
O O5 0.445683 0.904230 0.241711
O O6 0.336468 0.913082 0.246567
O O7 0.389817 0.867629 0.000000
O O8 0.000000 0.500000 0.732789
O O9 0.000000 0.575236 0.500000
O O10 0.224429 0.894057 0.237419
O O11 0.265213 0.000000 0.258182
O O12 0.278588 0.939444 0.000000
O O13 0.200930 0.824299 0.000000
#
# Coordination Sequence:
#
# PCOD8265268 Si02
#       5
#    16  16   8  16  16
#     4  10  17  26  40  57  78 101 129 168 212 249
#     4  10  19  31  46  60  76 104 143 179 209 244
#     4  11  23  35  45  61  85 109 136 173 214 249
#     4   8  14  24  39  59  80 103 134 170 202 234
#     4   9  15  24  39  58  79 103 133 165 198 245
#
# _framework density 15.337343000000001
#
# number of rings (size 3 to 8) (size 9 to 14) (size 15 to 20)
#    0.000    2.556    0.000    7.000    0.000    1.778 
#    0.000    0.000    0.000   13.333    0.000    0.000 
#    0.000    0.000    0.000    1.000    0.000   20.667 
#
# Total GULP energy -446015.295222 kJ/mol
# GULP energy per Si atom -12389.313756 kJ/mol
# Density = 1.530243 g / cm^3
# Si number density = 15.337343 Si / 1000 Ang^3
#
#
#
# Elastic Constant Matrix: (Units=GPa)
#
#
# Indices 1 2 3 4 5 6 
#
# 1 42.9492 56.9535 22.7702 0.0000 0.0000 0.0000
# 2 56.9535 143.3840 36.9512 0.0000 0.0000 0.0000
# 3 22.7702 36.9512 53.0075 0.0000 0.0000 0.0000
# 4 0.0000 0.0000 0.0000 17.1350 0.0000 0.0000
# 5 0.0000 0.0000 0.0000 0.0000 13.5159 0.0000
# 6 0.0000 0.0000 0.0000 0.0000 0.0000 29.3426
#
#
#
# Elastic Compliance Matrix: (Units=1/GPa)
#
#
# Indices 1 2 3 4 5 6 
#
# 1 0.053133 -0.018557 -0.009889 0.000000 0.000000 0.000000
# 2 -0.018557 0.014982 -0.002473 0.000000 0.000000 0.000000
# 3 -0.009889 -0.002473 0.024837 0.000000 0.000000 0.000000
# 4 0.000000 0.000000 0.000000 0.058360 0.000000 0.000000
# 5 0.000000 0.000000 0.000000 0.000000 0.073987 0.000000
# 6 0.000000 0.000000 0.000000 0.000000 0.000000 0.034080
#
#
# Mechanical properties :
#
#
# Convention : Reuss Voigt Hill
#
# Bulk Modulus (GPa) = 32.13731 52.52116 42.32924
# Shear Modulus (GPa) = 15.07895 20.17643 17.62769
#
# Velocity S-wave (km/s) = 3.13893 3.63093 3.39386
# Velocity P-wave (km/s) = 5.84263 7.20392 6.55869
#
# Compressibility (1/GPa) = 0.03111648
#
# Stress axis : x y z
#
# Youngs Moduli (GPa) = 18.82057 66.74481 40.26279
#
# Poissons Ratio (x) = 1.23856 0.39814
# Poissons Ratio (y) = 0.34925 0.09956
# Poissons Ratio (z) = 0.18611 0.16505
#
# Static dielectric constant tensor:
#      x y z
#    x 2.672330 0.000000 0.000000 
#    y 0.000000 3.809450 0.000000 
#    z 0.000000 0.000000 2.835720 
# 
# 
# High freq. dielectric constant tensor:
#      x y z
#    x 1.524480 0.000000 0.000000 
#    y 0.000000 1.597310 0.000000 
#    z 0.000000 0.000000 1.588630 
# 
# From -- ./inp_files/11988.got.cif
#   From: 2010.03.12/outbox.cif.g09.slc.cpg/sg65_6_cif.got.tgz:11988.got - 2010.04.10 20:52:16.
