data_PCOD8265499
_publ_section_title
;
Structure prediction by ZEFSAII (Michael W. Deem and Ramdas Pophale) SiO2 
 PCOD8265499
Probable space group: C M M M
;
_chemical_formula_sum "Si O2"
_cell_formula_units_Z 112
_cell_length_a 20.257115
_cell_length_b 16.453075
_cell_length_c 20.625647
_cell_angle_alpha 90.000000
_cell_angle_beta 90.000000
_cell_angle_gamma 90.000000
_cell_volume 6874.359683
_symmetry_space_group_name_H-M "C M M M"
_symmetry_group_IT_number 65
_symmetry_cell_setting 'orthorhombic'
loop_
_space_group_symop_operation_xyz
x,y,z
-x,-y,z
x,-y,-z
-x,y,-z
-x,-y,-z
x,y,-z
-x,y,z
x,-y,z
1/2+x,1/2+y,z
1/2-x,1/2-y,z
1/2+x,1/2-y,-z
1/2-x,1/2+y,-z
1/2-x,1/2-y,-z
1/2+x,1/2+y,-z
1/2-x,1/2+y,z
1/2+x,1/2-y,z
loop_
_atom_site_type_symbol
_atom_site_label
_atom_site_fract_x
_atom_site_fract_y
_atom_site_fract_z
Si Si1 0.326248 0.733220 0.074410
Si Si2 0.676165 0.903446 0.236223
Si Si3 0.381284 0.638184 0.262977
Si Si4 0.929878 0.000000 0.346778
Si Si5 0.239873 0.160440 0.649396
Si Si6 0.202802 0.000000 0.423531
Si Si7 0.295279 0.411968 0.149731
Si Si8 0.076034 0.289561 0.818197
O O1 0.250000 0.750000 0.090903
O O2 0.330108 0.638637 0.092826
O O3 0.379639 0.781223 0.117079
O O4 0.343996 0.750074 0.000000
O O5 0.701061 0.859641 0.301167
O O6 0.724684 0.879530 0.176386
O O7 0.603808 0.868220 0.219898
O O8 0.673278 0.000000 0.246778
O O9 0.430284 0.579817 0.301595
O O10 0.328233 0.673413 0.312915
O O11 0.343663 0.582818 0.210925
O O12 0.419819 0.711147 0.228045
O O13 0.872072 0.000000 0.398921
O O14 0.000000 0.000000 0.384146
O O15 0.250000 0.250000 0.615676
O O16 0.237493 0.083684 0.600177
O O17 0.204356 0.000000 0.500000
O O18 0.284931 0.500000 0.119024
O O19 0.000000 0.304746 0.837545
#
# Coordination Sequence:
#
# PCOD8265499 Si02
#       8
#    16  16  16   8  16   8  16  16
#     4  10  20  34  50  68  93 132 177 209 244 305
#     4  10  18  31  51  77 103 128 164 205 267 319
#     4   9  17  28  47  77 101 126 164 209 256 316
#     4  10  18  31  48  70 105 143 167 198 254 313
#     4  10  17  31  56  77 104 140 168 212 266 301
#     4  10  22  35  48  80 111 137 185 219 243 298
#     4   9  16  28  49  73  95 122 160 213 261 300
#     4  11  21  32  50  76 104 131 164 215 265 311
#
# _framework density 16.292427
#
# number of rings (size 3 to 8) (size 9 to 14) (size 15 to 20)
#    0.000    2.143    4.286    0.429    0.000    1.286 
#    0.000    0.000    0.000    0.429    0.000    3.000 
#    0.000    1.143    0.000    0.000    0.000    0.000 
#
# Total GULP energy -693778.636202 kJ/mol
# GULP energy per Si atom -12388.904218 kJ/mol
# Density = 1.625534 g / cm^3
# Si number density = 16.292427 Si / 1000 Ang^3
#
#
#
# Elastic Constant Matrix: (Units=GPa)
#
#
# Indices 1 2 3 4 5 6 
#
# 1 97.9525 30.5867 36.1653 0.0000 0.0000 0.0000
# 2 30.5867 104.4694 38.0915 0.0000 0.0000 0.0000
# 3 36.1653 38.0915 58.0030 0.0000 0.0000 0.0000
# 4 0.0000 0.0000 0.0000 10.0537 0.0000 0.0000
# 5 0.0000 0.0000 0.0000 0.0000 8.8945 0.0000
# 6 0.0000 0.0000 0.0000 0.0000 0.0000 16.3393
#
#
#
# Elastic Compliance Matrix: (Units=1/GPa)
#
#
# Indices 1 2 3 4 5 6 
#
# 1 0.013366 -0.001150 -0.007579 0.000000 0.000000 0.000000
# 2 -0.001150 0.012685 -0.007613 0.000000 0.000000 0.000000
# 3 -0.007579 -0.007613 0.026966 0.000000 0.000000 0.000000
# 4 0.000000 0.000000 0.000000 0.099466 0.000000 0.000000
# 5 0.000000 0.000000 0.000000 0.000000 0.112429 0.000000
# 6 0.000000 0.000000 0.000000 0.000000 0.000000 0.061202
#
#
# Mechanical properties :
#
#
# Convention : Reuss Voigt Hill
#
# Bulk Modulus (GPa) = 49.18194 52.23467 50.70831
# Shear Modulus (GPa) = 13.67708 17.42960 15.55334
#
# Velocity S-wave (km/s) = 2.90051 3.27432 3.09307
# Velocity P-wave (km/s) = 6.43971 6.81361 6.62929
#
# Compressibility (1/GPa) = 0.02033267
#
# Stress axis : x y z
#
# Youngs Moduli (GPa) = 74.81501 78.83427 37.08426
#
# Poissons Ratio (x) = 0.09066 0.28105
# Poissons Ratio (y) = 0.08604 0.28233
# Poissons Ratio (z) = 0.56700 0.60019
#
# Static dielectric constant tensor:
#      x y z
#    x 2.898730 0.000000 0.000000 
#    y 0.000000 3.142250 0.000000 
#    z 0.000000 0.000000 2.761970 
# 
# 
# High freq. dielectric constant tensor:
#      x y z
#    x 1.608840 0.000000 0.000000 
#    y 0.000000 1.637660 0.000000 
#    z 0.000000 0.000000 1.595030 
# 
# From -- ./inp_files/64828.got.cif
#   From: 2010.03.12/outbox.cif.g09.slc.cpg/sg65_33_cif.got.tgz:64828.got - 2010.04.10 20:52:16.
