data_PCOD8265739
_publ_section_title
;
Structure prediction by ZEFSAII (Michael W. Deem and Ramdas Pophale) SiO2 
 PCOD8265739
Probable space group: C M M M
;
_chemical_formula_sum "Si O2"
_cell_formula_units_Z 80
_cell_length_a 24.681915
_cell_length_b 23.874817
_cell_length_c 8.570606
_cell_angle_alpha 90.000000
_cell_angle_beta 90.000000
_cell_angle_gamma 90.000000
_cell_volume 5050.454168
_symmetry_space_group_name_H-M "C M M M"
_symmetry_group_IT_number 65
_symmetry_cell_setting 'orthorhombic'
loop_
_space_group_symop_operation_xyz
x,y,z
-x,-y,z
x,-y,-z
-x,y,-z
-x,-y,-z
x,y,-z
-x,y,z
x,-y,z
1/2+x,1/2+y,z
1/2-x,1/2-y,z
1/2+x,1/2-y,-z
1/2-x,1/2+y,-z
1/2-x,1/2-y,-z
1/2+x,1/2+y,-z
1/2-x,1/2+y,z
1/2+x,1/2-y,z
loop_
_atom_site_type_symbol
_atom_site_label
_atom_site_fract_x
_atom_site_fract_y
_atom_site_fract_z
Si Si1 0.060192 0.122867 0.819117
Si Si2 0.729781 0.331671 0.816071
Si Si3 0.665653 0.438600 0.815313
Si Si4 0.558638 0.743534 0.683702
Si Si5 0.672820 0.223712 0.684252
O O1 0.104961 0.078465 0.761835
O O2 0.069053 0.179360 0.724635
O O3 0.000000 0.097842 0.789660
O O4 0.068915 0.137760 0.000000
O O5 0.709412 0.392617 0.758495
O O6 0.695592 0.284772 0.726721
O O7 0.793137 0.324736 0.771719
O O8 0.721245 0.323595 0.000000
O O9 0.679123 0.500000 0.743458
O O10 0.667748 0.442436 0.000000
O O11 0.556267 0.748253 0.500000
O O12 0.500000 0.763740 0.753776
O O13 0.609993 0.780271 0.742210
O O14 0.677936 0.214939 0.500000
#
# Coordination Sequence:
#
# PCOD8265739 Si02
#       5
#    16  16  16  16  16
#     4   9  16  26  41  59  79 106 142 179 208 235
#     4  10  18  28  43  61  82 108 139 171 206 246
#     4   9  17  28  41  59  83 109 140 177 211 242
#     4   9  17  28  42  60  83 110 136 165 205 249
#     4  10  18  28  44  62  83 107 134 170 207 249
#
# _framework density 15.840159
#
# number of rings (size 3 to 8) (size 9 to 14) (size 15 to 20)
#    0.000    2.600    2.000    2.400    0.000    1.200 
#    0.000    2.000    0.000    5.400    0.000    2.800 
#    0.000    0.800    0.000   10.000    0.000    0.000 
#
# Total GULP energy -495592.522948 kJ/mol
# GULP energy per Si atom -12389.813074 kJ/mol
# Density = 1.580411 g / cm^3
# Si number density = 15.840159 Si / 1000 Ang^3
#
#
#
# Elastic Constant Matrix: (Units=GPa)
#
#
# Indices 1 2 3 4 5 6 
#
# 1 141.9876 73.0053 11.9786 0.0000 0.0000 0.0000
# 2 73.0053 82.5272 4.1952 0.0000 0.0000 0.0000
# 3 11.9786 4.1952 11.3904 0.0000 0.0000 0.0000
# 4 0.0000 0.0000 0.0000 0.9936 0.0000 0.0000
# 5 0.0000 0.0000 0.0000 0.0000 16.8474 0.0000
# 6 0.0000 0.0000 0.0000 0.0000 0.0000 19.3830
#
#
#
# Elastic Compliance Matrix: (Units=1/GPa)
#
#
# Indices 1 2 3 4 5 6 
#
# 1 0.014027 -0.011881 -0.010376 0.000000 0.000000 0.000000
# 2 -0.011881 0.022412 0.004240 0.000000 0.000000 0.000000
# 3 -0.010376 0.004240 0.097143 0.000000 0.000000 0.000000
# 4 0.000000 0.000000 0.000000 1.006474 0.000000 0.000000
# 5 0.000000 0.000000 0.000000 0.000000 0.059356 0.000000
# 6 0.000000 0.000000 0.000000 0.000000 0.000000 0.051591
#
#
# Mechanical properties :
#
#
# Convention : Reuss Voigt Hill
#
# Bulk Modulus (GPa) = 10.25128 46.02926 28.14027
# Shear Modulus (GPa) = 3.78916 17.22654 10.50785
#
# Velocity S-wave (km/s) = 1.54833 3.30134 2.57839
# Velocity P-wave (km/s) = 3.11162 6.60708 5.16409
#
# Compressibility (1/GPa) = 0.09754880
#
# Stress axis : x y z
#
# Youngs Moduli (GPa) = 71.29029 44.61869 10.29415
#
# Poissons Ratio (x) = 0.53013 0.10681
# Poissons Ratio (y) = 0.84702 -0.04365
# Poissons Ratio (z) = 0.73967 -0.18920
#
# Static dielectric constant tensor:
#      x y z
#    x 3.720970 0.000000 0.000000 
#    y 0.000000 2.954450 0.000000 
#    z 0.000000 0.000000 2.877780 
# 
# 
# High freq. dielectric constant tensor:
#      x y z
#    x 1.620050 0.000000 0.000000 
#    y 0.000000 1.558970 0.000000 
#    z 0.000000 0.000000 1.595790 
# 
# From -- ./inp_files/18434.got.cif
#   From: 2010.03.12/outbox.cif.g09.slc.cpg/sg65_10_cif.got.tgz:18434.got - 2010.04.10 20:52:16.
