data_PCOD8265653
_publ_section_title
;
Structure prediction by ZEFSAII (Michael W. Deem and Ramdas Pophale) SiO2 
 PCOD8265653
Probable space group: C M M M
;
_chemical_formula_sum "Si O2"
_cell_formula_units_Z 120
_cell_length_a 9.335364
_cell_length_b 29.796107
_cell_length_c 25.811755
_cell_angle_alpha 90.000000
_cell_angle_beta 90.000000
_cell_angle_gamma 90.000000
_cell_volume 7179.733361
_symmetry_space_group_name_H-M "C M M M"
_symmetry_group_IT_number 65
_symmetry_cell_setting 'orthorhombic'
loop_
_space_group_symop_operation_xyz
x,y,z
-x,-y,z
x,-y,-z
-x,y,-z
-x,-y,-z
x,y,-z
-x,y,z
x,-y,z
1/2+x,1/2+y,z
1/2-x,1/2-y,z
1/2+x,1/2-y,-z
1/2-x,1/2+y,-z
1/2-x,1/2-y,-z
1/2+x,1/2+y,-z
1/2-x,1/2+y,z
1/2+x,1/2-y,z
loop_
_atom_site_type_symbol
_atom_site_label
_atom_site_fract_x
_atom_site_fract_y
_atom_site_fract_z
Si Si1 0.329702 0.549700 0.739159
Si Si2 0.167532 0.793176 0.102000
Si Si3 0.662893 0.291798 0.219783
Si Si4 0.839272 0.293746 0.500000
Si Si5 0.670474 0.386205 0.057130
Si Si6 0.668632 0.202297 0.387032
Si Si7 0.832984 0.050884 0.145722
Si Si8 0.334079 0.640461 0.308950
O O1 0.500000 0.549935 0.743604
O O2 0.278260 0.500000 0.720015
O O3 0.266946 0.559311 0.796912
O O4 0.282271 0.588739 0.699040
O O5 0.250000 0.750000 0.080341
O O6 0.211719 0.803064 0.161524
O O7 0.217272 0.835272 0.068121
O O8 0.000000 0.783994 0.096732
O O9 0.500000 0.276033 0.221198
O O10 0.750000 0.250000 0.243494
O O11 0.687660 0.335886 0.253698
O O12 0.750000 0.250000 0.500000
O O13 0.809075 0.318700 0.445300
O O14 0.000000 0.276355 0.500000
O O15 0.500000 0.390326 0.058642
O O16 0.739107 0.417988 0.101533
O O17 0.727510 0.399961 0.000000
O O18 0.500000 0.209495 0.374544
O O19 0.750000 0.250000 0.379833
O O20 0.734204 0.164191 0.350773
O O21 0.000000 0.062360 0.148514
O O22 0.806306 0.000000 0.128362
O O23 0.500000 0.642989 0.326872
#
# Coordination Sequence:
#
# PCOD8265653 Si02
#       8
#    16  16  16   8  16  16  16  16
#     4   8  14  25  41  60  82 110 144 179 215 259
#     4   9  17  29  42  55  75 106 140 170 203 245
#     4   9  17  27  39  56  80 109 138 168 204 251
#     4   8  16  30  46  62  85 120 155 183 210 245
#     4   9  16  24  35  53  77 104 133 168 211 253
#     4  10  19  31  46  66  93 123 153 182 213 250
#     4   8  13  22  37  57  81 108 136 166 205 257
#     4  10  18  27  42  65  90 115 144 180 221 260
#
# _framework density 16.713712000000001
#
# number of rings (size 3 to 8) (size 9 to 14) (size 15 to 20)
#    0.000    3.067    0.000    2.400    0.000    5.867 
#    0.000    1.333    0.000    0.400    0.000    0.467 
#    0.000    5.333    0.000    1.200    0.000    1.333 
#
# Total GULP energy -743391.573007 kJ/mol
# GULP energy per Si atom -12389.859550 kJ/mol
# Density = 1.667567 g / cm^3
# Si number density = 16.713712 Si / 1000 Ang^3
#
#
#
# Elastic Constant Matrix: (Units=GPa)
#
#
# Indices 1 2 3 4 5 6 
#
# 1 36.0747 30.6345 29.4503 0.0000 0.0000 0.0000
# 2 30.6345 106.5784 58.6911 0.0000 0.0000 0.0000
# 3 29.4503 58.6911 92.3736 0.0000 0.0000 0.0000
# 4 0.0000 0.0000 0.0000 20.8934 0.0000 0.0000
# 5 0.0000 0.0000 0.0000 0.0000 13.4909 0.0000
# 6 0.0000 0.0000 0.0000 0.0000 0.0000 16.2992
#
#
#
# Elastic Compliance Matrix: (Units=1/GPa)
#
#
# Indices 1 2 3 4 5 6 
#
# 1 0.040595 -0.006985 -0.008504 0.000000 0.000000 0.000000
# 2 -0.006985 0.015635 -0.007707 0.000000 0.000000 0.000000
# 3 -0.008504 -0.007707 0.018433 0.000000 0.000000 0.000000
# 4 0.000000 0.000000 0.000000 0.047862 0.000000 0.000000
# 5 0.000000 0.000000 0.000000 0.000000 0.074124 0.000000
# 6 0.000000 0.000000 0.000000 0.000000 0.000000 0.061353
#
#
# Mechanical properties :
#
#
# Convention : Reuss Voigt Hill
#
# Bulk Modulus (GPa) = 35.37245 52.50872 43.94058
# Shear Modulus (GPa) = 15.93286 17.88674 16.90980
#
# Velocity S-wave (km/s) = 3.09087 3.27492 3.18422
# Velocity P-wave (km/s) = 5.82646 6.76645 6.31397
#
# Compressibility (1/GPa) = 0.02827059
#
# Stress axis : x y z
#
# Youngs Moduli (GPa) = 24.63376 63.96104 54.24954
#
# Poissons Ratio (x) = 0.44679 0.46134
# Poissons Ratio (y) = 0.17208 0.41808
# Poissons Ratio (z) = 0.20949 0.49292
#
# Static dielectric constant tensor:
#      x y z
#    x 2.811500 0.000000 0.000000 
#    y 0.000000 3.229520 0.000000 
#    z 0.000000 0.000000 2.275640 
# 
# 
# High freq. dielectric constant tensor:
#      x y z
#    x 1.598960 0.000000 0.000000 
#    y 0.000000 1.634600 0.000000 
#    z 0.000000 0.000000 1.639980 
# 
# From -- ./inp_files/77537.got.cif
#   From: 2010.03.12/outbox.cif.g09.slc.cpg/sg65_39_cif.got.tgz:77537.got - 2010.04.10 20:52:16.
