data_PCOD8265891
_publ_section_title
;
Structure prediction by ZEFSAII (Michael W. Deem and Ramdas Pophale) SiO2 
 PCOD8265891
Probable space group: C M M M
;
_chemical_formula_sum "Si O2"
_cell_formula_units_Z 96
_cell_length_a 9.065473
_cell_length_b 23.782522
_cell_length_c 25.218342
_cell_angle_alpha 90.000000
_cell_angle_beta 90.000000
_cell_angle_gamma 90.000000
_cell_volume 5437.069771
_symmetry_space_group_name_H-M "C M M M"
_symmetry_group_IT_number 65
_symmetry_cell_setting 'orthorhombic'
loop_
_space_group_symop_operation_xyz
x,y,z
-x,-y,z
x,-y,-z
-x,y,-z
-x,-y,-z
x,y,-z
-x,y,z
x,-y,z
1/2+x,1/2+y,z
1/2-x,1/2-y,z
1/2+x,1/2-y,-z
1/2-x,1/2+y,-z
1/2-x,1/2-y,-z
1/2+x,1/2+y,-z
1/2-x,1/2+y,z
1/2+x,1/2-y,z
loop_
_atom_site_type_symbol
_atom_site_label
_atom_site_fract_x
_atom_site_fract_y
_atom_site_fract_z
Si Si1 0.824779 0.936977 0.941299
Si Si2 0.331557 0.616917 0.162748
Si Si3 0.661860 0.500000 0.220156
Si Si4 0.672739 0.000000 0.675719
Si Si5 0.328481 0.692635 0.561051
Si Si6 0.825781 0.690070 0.248300
Si Si7 0.674082 0.879001 0.646586
O O1 0.771888 0.890662 0.897803
O O2 0.000000 0.940805 0.937261
O O3 0.761049 0.000000 0.930822
O O4 0.775571 0.916444 0.000000
O O5 0.500000 0.639204 0.165130
O O6 0.319150 0.554471 0.184823
O O7 0.230349 0.660393 0.194730
O O8 0.500000 0.500000 0.247528
O O9 0.788979 0.500000 0.262973
O O10 0.732009 0.943212 0.648692
O O11 0.500000 0.000000 0.672106
O O12 0.298475 0.677189 0.500000
O O13 0.500000 0.699766 0.573279
O O14 0.250000 0.750000 0.577399
O O15 0.260740 0.644104 0.596452
O O16 0.750000 0.750000 0.255661
O O17 0.781895 0.652351 0.299055
O O18 0.000000 0.698344 0.244066
O O19 0.500000 0.874208 0.636572
#
# Coordination Sequence:
#
# PCOD8265891 Si02
#       7
#    16  16   8   8  16  16  16
#     4   8  13  23  43  73 106 136 167 206 251 300
#     4  10  18  30  50  77 107 137 172 211 253 306
#     4  10  18  28  47  77 107 138 172 206 250 303
#     4  10  20  36  53  76 109 142 174 207 250 309
#     4  10  21  37  58  82 107 137 175 218 261 303
#     4  11  23  37  53  75 103 136 173 216 263 308
#     4  10  21  36  56  80 107 138 172 210 255 307
#
# _framework density 17.656569000000001
#
# number of rings (size 3 to 8) (size 9 to 14) (size 15 to 20)
#    0.000    2.167    2.500    2.000    0.000    4.333 
#    0.000    0.417    0.000    3.500    0.000    1.167 
#    0.000    0.000    0.000    0.000    0.000    0.000 
#
# Total GULP energy -595021.782829 kJ/mol
# GULP energy per Si atom -12396.287142 kJ/mol
# Density = 1.761638 g / cm^3
# Si number density = 17.656569 Si / 1000 Ang^3
#
#
#
# Elastic Constant Matrix: (Units=GPa)
#
#
# Indices 1 2 3 4 5 6 
#
# 1 47.0557 51.6682 42.1916 0.0000 0.0000 0.0000
# 2 51.6682 128.3495 66.8146 0.0000 0.0000 0.0000
# 3 42.1916 66.8146 114.6887 0.0000 0.0000 0.0000
# 4 0.0000 0.0000 0.0000 34.6924 0.0000 0.0000
# 5 0.0000 0.0000 0.0000 0.0000 21.7221 0.0000
# 6 0.0000 0.0000 0.0000 0.0000 0.0000 18.1412
#
#
#
# Elastic Compliance Matrix: (Units=1/GPa)
#
#
# Indices 1 2 3 4 5 6 
#
# 1 0.042866 -0.012985 -0.008205 0.000000 0.000000 0.000000
# 2 -0.012985 0.015116 -0.004029 0.000000 0.000000 0.000000
# 3 -0.008205 -0.004029 0.014085 0.000000 0.000000 0.000000
# 4 0.000000 0.000000 0.000000 0.028825 0.000000 0.000000
# 5 0.000000 0.000000 0.000000 0.000000 0.046036 0.000000
# 6 0.000000 0.000000 0.000000 0.000000 0.000000 0.055123
#
#
# Mechanical properties :
#
#
# Convention : Reuss Voigt Hill
#
# Bulk Modulus (GPa) = 46.23464 67.93806 57.08635
# Shear Modulus (GPa) = 19.25317 23.53913 21.39615
#
# Velocity S-wave (km/s) = 3.30574 3.65522 3.48486
# Velocity P-wave (km/s) = 6.38850 7.50834 6.97094
#
# Compressibility (1/GPa) = 0.02162880
#
# Stress axis : x y z
#
# Youngs Moduli (GPa) = 23.32870 66.15566 70.99764
#
# Poissons Ratio (x) = 0.85902 0.58252
# Poissons Ratio (y) = 0.30292 0.28607
# Poissons Ratio (z) = 0.19141 0.26656
#
# Static dielectric constant tensor:
#      x y z
#    x 3.174430 0.000000 0.000000 
#    y 0.000000 3.315920 0.000000 
#    z 0.000000 0.000000 3.453810 
# 
# 
# High freq. dielectric constant tensor:
#      x y z
#    x 1.665440 0.000000 0.000000 
#    y 0.000000 1.673270 0.000000 
#    z 0.000000 0.000000 1.686230 
# 
# From -- ./inp_files/73483.got.cif
#   From: 2010.03.12/outbox.cif.g09.slc.cpg/sg65_37_cif.got.tgz:73483.got - 2010.04.10 20:52:16.
