data_PCOD8265015
_publ_section_title
;
Structure prediction by ZEFSAII (Michael W. Deem and Ramdas Pophale) SiO2 
 PCOD8265015
Probable space group: C M C A
;
_chemical_formula_sum "Si O2"
_cell_formula_units_Z 64
_cell_length_a 21.835111
_cell_length_b 7.906566
_cell_length_c 14.344138
_cell_angle_alpha 90.000000
_cell_angle_beta 90.000000
_cell_angle_gamma 90.000000
_cell_volume 2476.382688
_symmetry_space_group_name_H-M "C M C A"
_symmetry_group_IT_number 64
_symmetry_cell_setting 'orthorhombic'
loop_
_space_group_symop_operation_xyz
x,y,z
-x,1/2-y,1/2+z
x,-y,-z
-x,1/2+y,1/2-z
-x,-y,-z
x,1/2+y,1/2-z
-x,y,z
x,1/2-y,1/2+z
1/2+x,1/2+y,z
1/2-x,-y,1/2+z
1/2+x,1/2-y,-z
1/2-x,y,1/2-z
1/2-x,1/2-y,-z
1/2+x,y,1/2-z
1/2-x,1/2+y,z
1/2+x,-y,1/2+z
loop_
_atom_site_type_symbol
_atom_site_label
_atom_site_fract_x
_atom_site_fract_y
_atom_site_fract_z
Si Si1 0.846477 0.754135 0.084030
Si Si2 0.262101 0.447984 0.854836
Si Si3 0.072104 0.918992 0.717931
Si Si4 0.873269 0.747352 0.876457
O O1 0.801662 0.588741 0.092110
O O2 0.896889 0.743626 0.166303
O O3 0.804801 0.921030 0.089692
O O4 0.883374 0.750696 0.987175
O O5 0.250000 0.509163 0.750000
O O6 0.300464 0.268530 0.853420
O O7 0.097599 0.081491 0.666541
O O8 0.000000 0.909073 0.707130
O O9 0.091899 0.906543 0.826738
#
# Coordination Sequence:
#
# PCOD8265015 Si02
#       4
#    16  16  16  16
#     4  12  27  49  80 121 156 204 255 320 392 468
#     4  12  25  48  81 117 162 199 250 320 401 468
#     4  12  28  52  79 111 155 211 266 320 379 454
#     4  12  27  49  78 113 157 202 256 321 389 458
#
# _framework density 25.844148000000001
#
# number of rings (size 3 to 8) (size 9 to 14) (size 15 to 20)
#    0.000    0.000    2.500    6.750    0.000    5.000 
#    0.000    1.250    0.000   10.500    0.000    0.000 
#    0.000    0.000    0.000    0.000    0.000    0.000 
#
# Total GULP energy -396854.524742 kJ/mol
# GULP energy per Si atom -12401.703898 kJ/mol
# Density = 2.578533 g / cm^3
# Si number density = 25.844148 Si / 1000 Ang^3
#
#
#
# Elastic Constant Matrix: (Units=GPa)
#
#
# Indices 1 2 3 4 5 6 
#
# 1 168.3484 20.2328 59.8817 0.0000 0.0000 0.0000
# 2 20.2328 39.2478 48.9617 0.0000 0.0000 0.0000
# 3 59.8817 48.9617 186.9890 0.0000 0.0000 0.0000
# 4 0.0000 0.0000 0.0000 38.1039 0.0000 0.0000
# 5 0.0000 0.0000 0.0000 0.0000 22.5139 0.0000
# 6 0.0000 0.0000 0.0000 0.0000 0.0000 18.8964
#
#
#
# Elastic Compliance Matrix: (Units=1/GPa)
#
#
# Indices 1 2 3 4 5 6 
#
# 1 0.006739 -0.001161 -0.001854 0.000000 0.000000 0.000000
# 2 -0.001161 0.038039 -0.009588 0.000000 0.000000 0.000000
# 3 -0.001854 -0.009588 0.008452 0.000000 0.000000 0.000000
# 4 0.000000 0.000000 0.000000 0.026244 0.000000 0.000000
# 5 0.000000 0.000000 0.000000 0.000000 0.044417 0.000000
# 6 0.000000 0.000000 0.000000 0.000000 0.000000 0.052920
#
#
# Mechanical properties :
#
#
# Convention : Reuss Voigt Hill
#
# Bulk Modulus (GPa) = 35.68447 72.52642 54.10544
# Shear Modulus (GPa) = 23.65626 33.60344 28.62985
#
# Velocity S-wave (km/s) = 3.02875 3.60979 3.33196
# Velocity P-wave (km/s) = 5.10574 6.74522 5.98191
#
# Compressibility (1/GPa) = 0.02802340
#
# Stress axis : x y z
#
# Youngs Moduli (GPa) = 148.38725 26.28857 118.31021
#
# Poissons Ratio (x) = 0.03052 0.21936
# Poissons Ratio (y) = 0.17229 1.13442
# Poissons Ratio (z) = 0.27513 0.25207
#
# Static dielectric constant tensor:
#      x y z
#    x 4.803710 0.000000 0.000000 
#    y 0.000000 5.011250 0.000000 
#    z 0.000000 0.000000 4.837570 
# 
# 
# High freq. dielectric constant tensor:
#      x y z
#    x 2.014940 0.000000 0.000000 
#    y 0.000000 2.055700 0.000000 
#    z 0.000000 0.000000 2.041600 
# 
# From -- ./inp_files/26929.got.cif
#   From: 2010.03.12/outbox.cif.g09.slc.cpg/sg64_14_cif.got.tgz:26929.got - 2010.04.10 20:19:32.
