data_PCOD8265551
_publ_section_title
;
Structure prediction by ZEFSAII (Michael W. Deem and Ramdas Pophale) SiO2 
 PCOD8265551
Probable space group: C M M M
;
_chemical_formula_sum "Si O2"
_cell_formula_units_Z 88
_cell_length_a 15.712609
_cell_length_b 20.063563
_cell_length_c 15.542387
_cell_angle_alpha 90.000000
_cell_angle_beta 90.000000
_cell_angle_gamma 90.000000
_cell_volume 4899.751810
_symmetry_space_group_name_H-M "C M M M"
_symmetry_group_IT_number 65
_symmetry_cell_setting 'orthorhombic'
loop_
_space_group_symop_operation_xyz
x,y,z
-x,-y,z
x,-y,-z
-x,y,-z
-x,-y,-z
x,y,-z
-x,y,z
x,-y,z
1/2+x,1/2+y,z
1/2-x,1/2-y,z
1/2+x,1/2-y,-z
1/2-x,1/2+y,-z
1/2-x,1/2-y,-z
1/2+x,1/2+y,-z
1/2-x,1/2+y,z
1/2+x,1/2-y,z
loop_
_atom_site_type_symbol
_atom_site_label
_atom_site_fract_x
_atom_site_fract_y
_atom_site_fract_z
Si Si1 0.667690 0.127381 0.329203
Si Si2 0.000000 0.208297 0.899793
Si Si3 0.145178 0.080629 0.500000
Si Si4 0.650834 0.245309 0.215563
Si Si5 0.363325 0.624985 0.317991
Si Si6 0.204146 0.319834 0.500000
Si Si7 0.500000 0.574128 0.807683
Si Si8 0.096443 0.500000 0.594976
O O1 0.633869 0.170218 0.248624
O O2 0.764881 0.104156 0.314643
O O3 0.651768 0.175242 0.412143
O O4 0.614238 0.061742 0.343198
O O5 0.086074 0.241030 0.862101
O O6 0.000000 0.128837 0.883177
O O7 0.000000 0.222640 0.000000
O O8 0.099025 0.108552 0.586567
O O9 0.238032 0.113525 0.500000
O O10 0.148827 0.000000 0.500000
O O11 0.750000 0.250000 0.185745
O O12 0.630606 0.296802 0.293561
O O13 0.415799 0.581867 0.249988
O O14 0.250000 0.250000 0.500000
O O15 0.500000 0.500000 0.848305
O O16 0.143982 0.500000 0.500000
O O17 0.000000 0.500000 0.570274
#
# Coordination Sequence:
#
# PCOD8265551 Si02
#       8
#    16   8   8  16  16   8   8   8
#     4  10  19  32  54  72 107 145 186 222 264 301
#     4  10  22  39  61  84 105 129 168 215 276 348
#     4  10  18  25  44  66 102 144 190 211 246 283
#     4   9  19  37  56  82 106 137 175 222 268 323
#     4   9  19  31  49  75 108 145 186 217 254 300
#     4  10  18  28  47  73 100 144 188 222 253 295
#     4  10  20  34  52  78 114 139 166 213 259 320
#     4  11  24  36  46  75 107 149 196 234 264 304
#
# _framework density 17.960094000000002
#
# number of rings (size 3 to 8) (size 9 to 14) (size 15 to 20)
#    0.000    2.273    0.909    3.273    7.636    0.909 
#    0.000    0.909    0.000    1.091    0.000    1.273 
#    0.000    0.000    0.000    0.000    0.000    0.000 
#
# Total GULP energy -545123.966914 kJ/mol
# GULP energy per Si atom -12389.181066 kJ/mol
# Density = 1.791922 g / cm^3
# Si number density = 17.960094 Si / 1000 Ang^3
#
#
#
# Elastic Constant Matrix: (Units=GPa)
#
#
# Indices 1 2 3 4 5 6 
#
# 1 76.7682 45.4023 43.9624 0.0000 0.0000 0.0000
# 2 45.4023 130.3645 55.1865 0.0000 0.0000 0.0000
# 3 43.9624 55.1865 110.0439 0.0000 0.0000 0.0000
# 4 0.0000 0.0000 0.0000 14.7360 0.0000 0.0000
# 5 0.0000 0.0000 0.0000 0.0000 19.7245 0.0000
# 6 0.0000 0.0000 0.0000 0.0000 0.0000 19.6938
#
#
#
# Elastic Compliance Matrix: (Units=1/GPa)
#
#
# Indices 1 2 3 4 5 6 
#
# 1 0.018555 -0.004220 -0.005296 0.000000 0.000000 0.000000
# 2 -0.004220 0.010698 -0.003679 0.000000 0.000000 0.000000
# 3 -0.005296 -0.003679 0.013048 0.000000 0.000000 0.000000
# 4 0.000000 0.000000 0.000000 0.067861 0.000000 0.000000
# 5 0.000000 0.000000 0.000000 0.000000 0.050698 0.000000
# 6 0.000000 0.000000 0.000000 0.000000 0.000000 0.050777
#
#
# Mechanical properties :
#
#
# Convention : Reuss Voigt Hill
#
# Bulk Modulus (GPa) = 62.85275 67.36434 65.10854
# Shear Modulus (GPa) = 20.54801 22.33923 21.44362
#
# Velocity S-wave (km/s) = 3.38611 3.53062 3.45912
# Velocity P-wave (km/s) = 7.09644 7.36271 7.23080
#
# Compressibility (1/GPa) = 0.01591020
#
# Stress axis : x y z
#
# Youngs Moduli (GPa) = 53.89336 93.47544 76.63896
#
# Poissons Ratio (x) = 0.39448 0.40591
# Poissons Ratio (y) = 0.22744 0.28196
# Poissons Ratio (z) = 0.28544 0.34390
#
# Static dielectric constant tensor:
#      x y z
#    x 3.295890 0.000000 0.000000 
#    y 0.000000 3.276900 0.000000 
#    z 0.000000 0.000000 3.113660 
# 
# 
# High freq. dielectric constant tensor:
#      x y z
#    x 1.683440 0.000000 0.000000 
#    y 0.000000 1.700830 0.000000 
#    z 0.000000 0.000000 1.658630 
# 
# From -- ./inp_files/42609.got.cif
#   From: 2010.03.12/outbox.cif.g09.slc.cpg/sg65_22_cif.got.tgz:42609.got - 2010.04.10 20:52:16.
