data_PCOD8265619
_publ_section_title
;
Structure prediction by ZEFSAII (Michael W. Deem and Ramdas Pophale) SiO2 
 PCOD8265619
Probable space group: C M M M
;
_chemical_formula_sum "Si O2"
_cell_formula_units_Z 104
_cell_length_a 27.379815
_cell_length_b 8.662370
_cell_length_c 27.016037
_cell_angle_alpha 90.000000
_cell_angle_beta 90.000000
_cell_angle_gamma 90.000000
_cell_volume 6407.503939
_symmetry_space_group_name_H-M "C M M M"
_symmetry_group_IT_number 65
_symmetry_cell_setting 'orthorhombic'
loop_
_space_group_symop_operation_xyz
x,y,z
-x,-y,z
x,-y,-z
-x,y,-z
-x,-y,-z
x,y,-z
-x,y,z
x,-y,z
1/2+x,1/2+y,z
1/2-x,1/2-y,z
1/2+x,1/2-y,-z
1/2-x,1/2+y,-z
1/2-x,1/2-y,-z
1/2+x,1/2+y,-z
1/2-x,1/2+y,z
1/2+x,1/2-y,z
loop_
_atom_site_type_symbol
_atom_site_label
_atom_site_fract_x
_atom_site_fract_y
_atom_site_fract_z
Si Si1 0.196017 0.317248 0.340571
Si Si2 0.944632 0.816355 0.000000
Si Si3 0.649307 0.316905 0.753851
Si Si4 0.053090 0.818035 0.803740
Si Si5 0.696859 0.181086 0.552219
Si Si6 0.107855 0.182351 0.901017
Si Si7 0.698194 0.182551 0.151240
O O1 0.198185 0.500000 0.332469
O O2 0.250000 0.250000 0.334248
O O3 0.160766 0.241044 0.300791
O O4 0.172949 0.271624 0.394928
O O5 0.914842 0.757223 0.952308
O O6 0.000000 0.749719 0.000000
O O7 0.947489 0.000000 0.000000
O O8 0.654350 0.500000 0.757471
O O9 0.593973 0.260323 0.765057
O O10 0.685721 0.245681 0.794152
O O11 0.068978 0.771611 0.858977
O O12 0.000000 0.742673 0.792100
O O13 0.048611 0.000000 0.799961
O O14 0.669516 0.230944 0.500000
O O15 0.750000 0.250000 0.551062
O O16 0.703212 0.000000 0.552646
O O17 0.158986 0.265872 0.889939
O O18 0.117773 0.000000 0.901576
O O19 0.750000 0.250000 0.134368
O O20 0.700841 0.000000 0.153676
#
# Coordination Sequence:
#
# PCOD8265619 Si02
#       7
#    16   8  16  16  16  16  16
#     4  10  18  27  40  59  86 117 148 181 216 254
#     4   9  16  28  52  81 102 121 148 183 218 257
#     4  10  19  30  45  66  90 114 144 180 217 260
#     4   8  14  26  45  66  87 112 141 173 209 252
#     4   8  14  24  37  53  75 107 145 180 213 250
#     4   9  17  30  49  74  98 118 145 178 213 256
#     4  11  21  34  50  66  88 118 152 185 220 259
#
# _framework density 16.230971
#
# number of rings (size 3 to 8) (size 9 to 14) (size 15 to 20)
#    0.000    2.692    0.000    4.154    0.000    2.462 
#    0.000    0.769    0.000   16.154    0.000    0.000 
#    0.000    0.615    0.000    7.692    0.000    0.000 
#
# Total GULP energy -644236.522604 kJ/mol
# GULP energy per Si atom -12389.163896 kJ/mol
# Density = 1.619403 g / cm^3
# Si number density = 16.230971 Si / 1000 Ang^3
#
#
#
# Elastic Constant Matrix: (Units=GPa)
#
#
# Indices 1 2 3 4 5 6 
#
# 1 109.4900 30.6883 65.6275 0.0000 0.0000 0.0000
# 2 30.6883 59.5936 33.1985 0.0000 0.0000 0.0000
# 3 65.6275 33.1985 157.0427 0.0000 0.0000 0.0000
# 4 0.0000 0.0000 0.0000 17.5919 0.0000 0.0000
# 5 0.0000 0.0000 0.0000 0.0000 18.1401 0.0000
# 6 0.0000 0.0000 0.0000 0.0000 0.0000 15.6314
#
#
#
# Elastic Compliance Matrix: (Units=1/GPa)
#
#
# Indices 1 2 3 4 5 6 
#
# 1 0.013040 -0.004170 -0.004568 0.000000 0.000000 0.000000
# 2 -0.004170 0.020354 -0.002560 0.000000 0.000000 0.000000
# 3 -0.004568 -0.002560 0.008818 0.000000 0.000000 0.000000
# 4 0.000000 0.000000 0.000000 0.056844 0.000000 0.000000
# 5 0.000000 0.000000 0.000000 0.000000 0.055126 0.000000
# 6 0.000000 0.000000 0.000000 0.000000 0.000000 0.063974
#
#
# Mechanical properties :
#
#
# Convention : Reuss Voigt Hill
#
# Bulk Modulus (GPa) = 50.98035 65.01721 57.99878
# Shear Modulus (GPa) = 20.21910 23.38017 21.79964
#
# Velocity S-wave (km/s) = 3.53329 3.79947 3.66879
# Velocity P-wave (km/s) = 6.93708 7.70665 7.33196
#
# Compressibility (1/GPa) = 0.01961540
#
# Stress axis : x y z
#
# Youngs Moduli (GPa) = 76.68686 49.13024 113.40805
#
# Poissons Ratio (x) = 0.20490 0.51802
# Poissons Ratio (y) = 0.31982 0.29032
# Poissons Ratio (z) = 0.35029 0.12577
#
# Static dielectric constant tensor:
#      x y z
#    x 3.072460 0.000000 0.000000 
#    y 0.000000 2.891440 0.000000 
#    z 0.000000 0.000000 3.542360 
# 
# 
# High freq. dielectric constant tensor:
#      x y z
#    x 1.596040 0.000000 0.000000 
#    y 0.000000 1.613290 0.000000 
#    z 0.000000 0.000000 1.629970 
# 
# From -- ./inp_files/76056.got.cif
#   From: 2010.03.12/outbox.cif.g09.slc.cpg/sg65_39_cif.got.tgz:76056.got - 2010.04.10 20:52:16.
