data_PCOD8265057
_publ_section_title
;
Structure prediction by ZEFSAII (Michael W. Deem and Ramdas Pophale) SiO2 
 PCOD8265057
Probable space group: C M M M
;
_chemical_formula_sum "Si O2"
_cell_formula_units_Z 64
_cell_length_a 17.327591
_cell_length_b 16.694950
_cell_length_c 12.017008
_cell_angle_alpha 90.000000
_cell_angle_beta 90.000000
_cell_angle_gamma 90.000000
_cell_volume 3476.319314
_symmetry_space_group_name_H-M "C M M M"
_symmetry_group_IT_number 65
_symmetry_cell_setting 'orthorhombic'
loop_
_space_group_symop_operation_xyz
x,y,z
-x,-y,z
x,-y,-z
-x,y,-z
-x,-y,-z
x,y,-z
-x,y,z
x,-y,z
1/2+x,1/2+y,z
1/2-x,1/2-y,z
1/2+x,1/2-y,-z
1/2-x,1/2+y,-z
1/2-x,1/2-y,-z
1/2+x,1/2+y,-z
1/2-x,1/2+y,z
1/2+x,1/2-y,z
loop_
_atom_site_type_symbol
_atom_site_label
_atom_site_fract_x
_atom_site_fract_y
_atom_site_fract_z
Si Si1 0.800059 0.170515 0.269458
Si Si2 0.648871 0.911036 0.260958
Si Si3 0.167459 0.207409 0.500000
Si Si4 0.410191 0.131758 0.500000
Si Si5 0.088712 0.737017 0.126417
O O1 0.750000 0.250000 0.283718
O O2 0.740938 0.099627 0.238460
O O3 0.841031 0.153277 0.388729
O O4 0.863705 0.187320 0.174873
O O5 0.631361 0.904472 0.391924
O O6 0.600396 0.845298 0.193761
O O7 0.626056 0.000000 0.219506
O O8 0.250000 0.250000 0.500000
O O9 0.098967 0.272541 0.500000
O O10 0.500000 0.108433 0.500000
O O11 0.000000 0.761786 0.133424
O O12 0.115591 0.722503 0.000000
#
# Coordination Sequence:
#
# PCOD8265057 Si02
#       5
#    16  16   8   8  16
#     4   9  17  32  54  72  99 133 175 215 250 292
#     4  11  22  34  50  77 110 142 170 202 251 312
#     4  10  14  30  52  73  97 131 173 217 246 285
#     4  12  21  31  50  80 112 138 168 206 252 305
#     4  10  21  36  54  76 101 133 174 219 263 303
#
# _framework density 18.410276
#
# number of rings (size 3 to 8) (size 9 to 14) (size 15 to 20)
#    0.000    1.750    7.500    1.125    0.000    7.500 
#    0.000    1.250    0.000    0.750    0.000    1.750 
#    0.000    5.000    0.000    0.000    0.000    0.000 
#
# Total GULP energy -396611.596251 kJ/mol
# GULP energy per Si atom -12394.112383 kJ/mol
# Density = 1.836837 g / cm^3
# Si number density = 18.410276 Si / 1000 Ang^3
#
#
#
# Elastic Constant Matrix: (Units=GPa)
#
#
# Indices 1 2 3 4 5 6 
#
# 1 91.4383 30.8908 44.2401 0.0000 0.0000 0.0000
# 2 30.8908 28.9510 11.0916 0.0000 0.0000 0.0000
# 3 44.2401 11.0916 127.1153 0.0000 0.0000 0.0000
# 4 0.0000 0.0000 0.0000 6.1741 0.0000 0.0000
# 5 0.0000 0.0000 0.0000 0.0000 27.3279 0.0000
# 6 0.0000 0.0000 0.0000 0.0000 0.0000 14.3041
#
#
#
# Elastic Compliance Matrix: (Units=1/GPa)
#
#
# Indices 1 2 3 4 5 6 
#
# 1 0.020028 -0.019346 -0.005282 0.000000 0.000000 0.000000
# 2 -0.019346 0.054423 0.001984 0.000000 0.000000 0.000000
# 3 -0.005282 0.001984 0.009532 0.000000 0.000000 0.000000
# 4 0.000000 0.000000 0.000000 0.161967 0.000000 0.000000
# 5 0.000000 0.000000 0.000000 0.000000 0.036593 0.000000
# 6 0.000000 0.000000 0.000000 0.000000 0.000000 0.069910
#
#
# Mechanical properties :
#
#
# Convention : Reuss Voigt Hill
#
# Bulk Modulus (GPa) = 25.84309 46.66105 36.25207
# Shear Modulus (GPa) = 12.17616 20.31336 16.24476
#
# Velocity S-wave (km/s) = 2.57452 3.32531 2.97370
# Velocity P-wave (km/s) = 4.78595 6.33590 5.61467
#
# Compressibility (1/GPa) = 0.03869507
#
# Stress axis : x y z
#
# Youngs Moduli (GPa) = 49.93095 18.37460 104.90858
#
# Poissons Ratio (x) = 0.35547 0.55415
# Poissons Ratio (y) = 0.96596 -0.20816
# Poissons Ratio (z) = 0.26375 -0.03646
#
# Static dielectric constant tensor:
#      x y z
#    x 3.472610 0.000000 0.000000 
#    y 0.000000 3.225200 0.000000 
#    z 0.000000 0.000000 3.689200 
# 
# 
# High freq. dielectric constant tensor:
#      x y z
#    x 1.706150 0.000000 0.000000 
#    y 0.000000 1.661380 0.000000 
#    z 0.000000 0.000000 1.724260 
# 
# From -- ./inp_files/26136.got.cif
#   From: 2010.03.12/outbox.cif.g09.slc.cpg/sg65_14_cif.got.tgz:26136.got - 2010.04.10 20:52:16.
