data_PCOD8265669
_publ_section_title
;
Structure prediction by ZEFSAII (Michael W. Deem and Ramdas Pophale) SiO2 
 PCOD8265669
Probable space group: C M M M
;
_chemical_formula_sum "Si O2"
_cell_formula_units_Z 72
_cell_length_a 16.944895
_cell_length_b 19.448399
_cell_length_c 12.208128
_cell_angle_alpha 90.000000
_cell_angle_beta 90.000000
_cell_angle_gamma 90.000000
_cell_volume 4023.201755
_symmetry_space_group_name_H-M "C M M M"
_symmetry_group_IT_number 65
_symmetry_cell_setting 'orthorhombic'
loop_
_space_group_symop_operation_xyz
x,y,z
-x,-y,z
x,-y,-z
-x,y,-z
-x,-y,-z
x,y,-z
-x,y,z
x,-y,z
1/2+x,1/2+y,z
1/2-x,1/2-y,z
1/2+x,1/2-y,-z
1/2-x,1/2+y,-z
1/2-x,1/2-y,-z
1/2+x,1/2+y,-z
1/2-x,1/2+y,z
1/2+x,1/2-y,z
loop_
_atom_site_type_symbol
_atom_site_label
_atom_site_fract_x
_atom_site_fract_y
_atom_site_fract_z
Si Si1 0.305337 0.888887 0.292071
Si Si2 0.086117 0.000000 0.224891
Si Si3 0.583408 0.000000 0.377779
Si Si4 0.909590 0.723792 0.627647
Si Si5 0.132232 0.877421 0.374911
Si Si6 0.247837 0.500000 0.125966
O O1 0.350757 0.815564 0.286986
O O2 0.225871 0.879509 0.359470
O O3 0.366121 0.932720 0.360745
O O4 0.288253 0.929854 0.178494
O O5 0.090046 0.932984 0.300003
O O6 0.157152 0.000000 0.137337
O O7 0.000000 0.000000 0.165890
O O8 0.500000 0.000000 0.309170
O O9 0.555670 0.000000 0.500000
O O10 0.885083 0.711883 0.500000
O O11 0.901532 0.803551 0.658305
O O12 0.000000 0.700505 0.646902
O O13 0.111999 0.894901 0.500000
O O14 0.223646 0.500000 0.000000
#
# Coordination Sequence:
#
# PCOD8265669 Si02
#       6
#    16   8   8  16  16   8
#     4  10  19  31  50  70  95 131 170 208 248 295
#     4  10  20  33  52  76 101 133 169 206 249 293
#     4  10  18  27  43  70 101 130 162 200 242 293
#     4  10  19  30  47  74 108 142 169 195 235 291
#     4  10  19  30  47  75 110 142 169 196 232 290
#     4   9  21  39  56  74  92 120 169 220 264 303
#
# _framework density 17.896194000000001
#
# number of rings (size 3 to 8) (size 9 to 14) (size 15 to 20)
#    0.000    2.111    0.000    5.000    0.000    5.556 
#    0.000    0.000    0.000   22.667    0.000    0.000 
#    0.000    0.000    0.000    0.000    0.000    0.000 
#
# Total GULP energy -446094.119712 kJ/mol
# GULP energy per Si atom -12391.503325 kJ/mol
# Density = 1.785546 g / cm^3
# Si number density = 17.896194 Si / 1000 Ang^3
#
#
#
# Elastic Constant Matrix: (Units=GPa)
#
#
# Indices 1 2 3 4 5 6 
#
# 1 120.3053 27.9188 19.9937 0.0000 0.0000 0.0000
# 2 27.9188 92.3968 33.2144 0.0000 0.0000 0.0000
# 3 19.9937 33.2144 71.1478 0.0000 0.0000 0.0000
# 4 0.0000 0.0000 0.0000 16.0147 0.0000 0.0000
# 5 0.0000 0.0000 0.0000 0.0000 11.2470 0.0000
# 6 0.0000 0.0000 0.0000 0.0000 0.0000 41.5754
#
#
#
# Elastic Compliance Matrix: (Units=1/GPa)
#
#
# Indices 1 2 3 4 5 6 
#
# 1 0.009075 -0.002193 -0.001526 0.000000 0.000000 0.000000
# 2 -0.002193 0.013536 -0.005702 0.000000 0.000000 0.000000
# 3 -0.001526 -0.005702 0.017146 0.000000 0.000000 0.000000
# 4 0.000000 0.000000 0.000000 0.062443 0.000000 0.000000
# 5 0.000000 0.000000 0.000000 0.000000 0.088913 0.000000
# 6 0.000000 0.000000 0.000000 0.000000 0.000000 0.024053
#
#
# Mechanical properties :
#
#
# Convention : Reuss Voigt Hill
#
# Bulk Modulus (GPa) = 47.81854 49.56709 48.69282
# Shear Modulus (GPa) = 20.74860 27.28227 24.01544
#
# Velocity S-wave (km/s) = 3.40867 3.90869 3.66721
# Velocity P-wave (km/s) = 6.50154 6.93740 6.72300
#
# Compressibility (1/GPa) = 0.02091239
#
# Stress axis : x y z
#
# Youngs Moduli (GPa) = 110.19468 73.87943 58.32176
#
# Poissons Ratio (x) = 0.16205 0.08901
# Poissons Ratio (y) = 0.24171 0.33258
# Poissons Ratio (z) = 0.16818 0.42130
#
# Static dielectric constant tensor:
#      x y z
#    x 3.505910 0.000000 0.000000 
#    y 0.000000 2.568590 0.000000 
#    z 0.000000 0.000000 2.751990 
# 
# 
# High freq. dielectric constant tensor:
#      x y z
#    x 1.719570 0.000000 0.000000 
#    y 0.000000 1.707260 0.000000 
#    z 0.000000 0.000000 1.625390 
# 
# From -- ./inp_files/26604.got.cif
#   From: 2010.03.12/outbox.cif.g09.slc.cpg/sg65_14_cif.got.tgz:26604.got - 2010.04.10 20:52:16.
