data_PCOD8265472
_publ_section_title
;
Structure prediction by ZEFSAII (Michael W. Deem and Ramdas Pophale) SiO2 
 PCOD8265472
Probable space group: C M M M
;
_chemical_formula_sum "Si O2"
_cell_formula_units_Z 88
_cell_length_a 19.585612
_cell_length_b 27.691901
_cell_length_c 9.346344
_cell_angle_alpha 90.000000
_cell_angle_beta 90.000000
_cell_angle_gamma 90.000000
_cell_volume 5069.109568
_symmetry_space_group_name_H-M "C M M M"
_symmetry_group_IT_number 65
_symmetry_cell_setting 'orthorhombic'
loop_
_space_group_symop_operation_xyz
x,y,z
-x,-y,z
x,-y,-z
-x,y,-z
-x,-y,-z
x,y,-z
-x,y,z
x,-y,z
1/2+x,1/2+y,z
1/2-x,1/2-y,z
1/2+x,1/2-y,-z
1/2-x,1/2+y,-z
1/2-x,1/2-y,-z
1/2+x,1/2+y,-z
1/2-x,1/2+y,z
1/2+x,1/2-y,z
loop_
_atom_site_type_symbol
_atom_site_label
_atom_site_fract_x
_atom_site_fract_y
_atom_site_fract_z
Si Si1 0.346339 0.711186 0.669470
Si Si2 0.178919 0.419347 0.669555
Si Si3 0.186151 0.945318 0.164150
Si Si4 0.922515 0.133497 0.833876
Si Si5 0.576029 0.000000 0.669740
Si Si6 0.696117 0.813225 0.331446
O O1 0.356173 0.705783 0.500000
O O2 0.406060 0.682239 0.747463
O O3 0.349241 0.767579 0.719768
O O4 0.273941 0.689781 0.724290
O O5 0.188962 0.423365 0.500000
O O6 0.247818 0.437957 0.739583
O O7 0.115933 0.452197 0.722394
O O8 0.163137 0.364075 0.717168
O O9 0.125604 0.910391 0.217162
O O10 0.159662 0.000000 0.182051
O O11 0.205889 0.934455 0.000000
O O12 0.000000 0.118214 0.800668
O O13 0.911760 0.144811 0.000000
O O14 0.500000 0.000000 0.736943
O O15 0.571148 0.000000 0.500000
O O16 0.701107 0.809354 0.500000
#
# Coordination Sequence:
#
# PCOD8265472 Si02
#       6
#    16  16  16  16   8  16
#     4   9  16  30  50  72  99 126 160 203 248 295
#     4  10  17  30  53  76  99 129 163 201 245 292
#     4  10  20  33  50  73  99 127 167 212 250 295
#     4  10  21  35  49  69 101 137 169 206 253 299
#     4   9  18  30  47  75 104 127 154 192 241 293
#     4   8  15  27  48  76 100 122 154 203 249 286
#
# _framework density 17.360052
#
# number of rings (size 3 to 8) (size 9 to 14) (size 15 to 20)
#    0.000    2.636    2.727    1.091    0.000    0.727 
#    0.000    5.455    0.000    4.364    0.000    2.545 
#    0.000    0.000    0.000    0.000    0.000    0.000 
#
# Total GULP energy -545406.172694 kJ/mol
# GULP energy per Si atom -12395.594834 kJ/mol
# Density = 1.732054 g / cm^3
# Si number density = 17.360052 Si / 1000 Ang^3
#
#
#
# Elastic Constant Matrix: (Units=GPa)
#
#
# Indices 1 2 3 4 5 6 
#
# 1 121.5915 72.6134 30.4894 0.0000 0.0000 0.0000
# 2 72.6134 155.6295 29.5638 0.0000 0.0000 0.0000
# 3 30.4894 29.5638 27.9193 0.0000 0.0000 0.0000
# 4 0.0000 0.0000 0.0000 21.0692 0.0000 0.0000
# 5 0.0000 0.0000 0.0000 0.0000 21.3442 0.0000
# 6 0.0000 0.0000 0.0000 0.0000 0.0000 28.8407
#
#
#
# Elastic Compliance Matrix: (Units=1/GPa)
#
#
# Indices 1 2 3 4 5 6 
#
# 1 0.013295 -0.004313 -0.009953 0.000000 0.000000 0.000000
# 2 -0.004313 0.009442 -0.005289 0.000000 0.000000 0.000000
# 3 -0.009953 -0.005289 0.052287 0.000000 0.000000 0.000000
# 4 0.000000 0.000000 0.000000 0.047463 0.000000 0.000000
# 5 0.000000 0.000000 0.000000 0.000000 0.046851 0.000000
# 6 0.000000 0.000000 0.000000 0.000000 0.000000 0.034673
#
#
# Mechanical properties :
#
#
# Convention : Reuss Voigt Hill
#
# Bulk Modulus (GPa) = 27.84263 63.38593 45.61428
# Shear Modulus (GPa) = 19.60079 25.74907 22.67493
#
# Velocity S-wave (km/s) = 3.36382 3.85546 3.61800
# Velocity P-wave (km/s) = 5.58213 7.51074 6.61708
#
# Compressibility (1/GPa) = 0.03591615
#
# Stress axis : x y z
#
# Youngs Moduli (GPa) = 75.21386 105.90484 19.12537
#
# Poissons Ratio (x) = 0.45674 0.19035
# Poissons Ratio (y) = 0.32438 0.10115
# Poissons Ratio (z) = 0.74857 0.56012
#
# Static dielectric constant tensor:
#      x y z
#    x 3.143000 0.000000 0.000000 
#    y 0.000000 3.770170 0.000000 
#    z 0.000000 0.000000 2.927670 
# 
# 
# High freq. dielectric constant tensor:
#      x y z
#    x 1.648440 0.000000 0.000000 
#    y 0.000000 1.689330 0.000000 
#    z 0.000000 0.000000 1.637130 
# 
# From -- ./inp_files/10124.got.cif
#   From: 2010.03.12/outbox.cif.g09.slc.cpg/sg65_6_cif.got.tgz:10124.got - 2010.04.10 20:52:16.
