data_PCOD8265532
_publ_section_title
;
Structure prediction by ZEFSAII (Michael W. Deem and Ramdas Pophale) SiO2 
 PCOD8265532
Probable space group: C M M M
;
_chemical_formula_sum "Si O2"
_cell_formula_units_Z 88
_cell_length_a 18.365147
_cell_length_b 13.047609
_cell_length_c 19.559253
_cell_angle_alpha 90.000000
_cell_angle_beta 90.000000
_cell_angle_gamma 90.000000
_cell_volume 4686.812795
_symmetry_space_group_name_H-M "C M M M"
_symmetry_group_IT_number 65
_symmetry_cell_setting 'orthorhombic'
loop_
_space_group_symop_operation_xyz
x,y,z
-x,-y,z
x,-y,-z
-x,y,-z
-x,-y,-z
x,y,-z
-x,y,z
x,-y,z
1/2+x,1/2+y,z
1/2-x,1/2-y,z
1/2+x,1/2-y,-z
1/2-x,1/2+y,-z
1/2-x,1/2-y,-z
1/2+x,1/2+y,-z
1/2-x,1/2+y,z
1/2+x,1/2-y,z
loop_
_atom_site_type_symbol
_atom_site_label
_atom_site_fract_x
_atom_site_fract_y
_atom_site_fract_z
Si Si1 0.419267 0.771582 0.078172
Si Si2 0.296690 0.116495 0.158130
Si Si3 0.815048 0.613991 0.312767
Si Si4 0.135256 0.879866 0.177819
Si Si5 0.851426 0.167084 0.328755
Si Si6 0.585148 0.500000 0.424225
O O1 0.500000 0.822711 0.085066
O O2 0.354258 0.844479 0.102776
O O3 0.420323 0.668972 0.124021
O O4 0.403709 0.741584 0.000000
O O5 0.332918 0.126340 0.232706
O O6 0.215697 0.168376 0.159977
O O7 0.281258 0.000000 0.138775
O O8 0.841164 0.500000 0.338416
O O9 0.853837 0.711262 0.349480
O O10 0.729299 0.621404 0.324860
O O11 0.111834 0.849634 0.254766
O O12 0.132713 0.000000 0.169431
O O13 0.893233 0.104238 0.386098
O O14 0.500000 0.500000 0.431273
O O15 0.620926 0.500000 0.500000
#
# Coordination Sequence:
#
# PCOD8265532 Si02
#       6
#    16  16  16  16  16   8
#     4  11  24  37  48  71 111 150 183 230 291 350
#     4   9  18  34  56  79 103 136 183 235 284 333
#     4   9  16  30  59  89 114 141 178 239 294 330
#     4  10  19  35  58  82 102 135 189 240 289 339
#     4  10  17  34  59  85 116 147 186 234 281 332
#     4  11  24  40  58  86 125 161 192 225 269 339
#
# _framework density 18.776085999999999
#
# number of rings (size 3 to 8) (size 9 to 14) (size 15 to 20)
#    0.000    2.091    3.636    1.636    0.000    3.636 
#    0.000    5.455    0.000    0.545    0.000    1.273 
#    0.000    0.000    0.000    0.000    0.000    0.000 
#
# Total GULP energy -545240.876784 kJ/mol
# GULP energy per Si atom -12391.838109 kJ/mol
# Density = 1.873335 g / cm^3
# Si number density = 18.776086 Si / 1000 Ang^3
#
#
#
# Elastic Constant Matrix: (Units=GPa)
#
#
# Indices 1 2 3 4 5 6 
#
# 1 52.7681 13.0174 42.3993 0.0000 0.0000 0.0000
# 2 13.0174 82.4779 47.1258 0.0000 0.0000 0.0000
# 3 42.3993 47.1258 114.6765 0.0000 0.0000 0.0000
# 4 0.0000 0.0000 0.0000 -8.5771 0.0000 0.0000
# 5 0.0000 0.0000 0.0000 0.0000 22.2472 0.0000
# 6 0.0000 0.0000 0.0000 0.0000 0.0000 16.9562
#
#
#
# Elastic Compliance Matrix: (Units=1/GPa)
#
#
# Indices 1 2 3 4 5 6 
#
# 1 0.027186 0.001898 -0.010831 0.000000 0.000000 0.000000
# 2 0.001898 0.015977 -0.007268 0.000000 0.000000 0.000000
# 3 -0.010831 -0.007268 0.015711 0.000000 0.000000 0.000000
# 4 0.000000 0.000000 0.000000 -0.116589 0.000000 0.000000
# 5 0.000000 0.000000 0.000000 0.000000 0.044950 0.000000
# 6 0.000000 0.000000 0.000000 0.000000 0.000000 0.058975
#
#
# Mechanical properties :
#
#
# Convention : Reuss Voigt Hill
#
# Bulk Modulus (GPa) = 37.77473 50.55639 44.16556
# Shear Modulus (GPa) = 57.18453 15.95058 36.56756
#
# Velocity S-wave (km/s) = 5.52469 2.91781 4.41790
# Velocity P-wave (km/s) = 7.80118 6.19160 7.04252
#
# Compressibility (1/GPa) = 0.02647272
#
# Stress axis : x y z
#
# Youngs Moduli (GPa) = 36.78415 62.58822 63.64776
#
# Poissons Ratio (x) = -0.11880 0.68939
# Poissons Ratio (y) = -0.06982 0.46257
# Poissons Ratio (z) = 0.39842 0.45487
#
# Static dielectric constant tensor:
#      x y z
#    x 3.247900 0.000000 0.000000 
#    y 0.000000 3.675870 0.000000 
#    z 0.000000 0.000000 3.307710 
# 
# 
# High freq. dielectric constant tensor:
#      x y z
#    x 1.702930 0.000000 0.000000 
#    y 0.000000 1.747160 0.000000 
#    z 0.000000 0.000000 1.696590 
# 
# From -- ./inp_files/54289.got.cif
#   From: 2010.03.12/outbox.cif.g09.slc.cpg/sg65_28_cif.got.tgz:54289.got - 2010.04.10 20:52:16.
