data_PCOD8265540
_publ_section_title
;
Structure prediction by ZEFSAII (Michael W. Deem and Ramdas Pophale) SiO2 
 PCOD8265540
Probable space group: C M M M
;
_chemical_formula_sum "Si O2"
_cell_formula_units_Z 88
_cell_length_a 10.245630
_cell_length_b 28.262859
_cell_length_c 20.539456
_cell_angle_alpha 90.000000
_cell_angle_beta 90.000000
_cell_angle_gamma 90.000000
_cell_volume 5947.626624
_symmetry_space_group_name_H-M "C M M M"
_symmetry_group_IT_number 65
_symmetry_cell_setting 'orthorhombic'
loop_
_space_group_symop_operation_xyz
x,y,z
-x,-y,z
x,-y,-z
-x,y,-z
-x,-y,-z
x,y,-z
-x,y,z
x,-y,z
1/2+x,1/2+y,z
1/2-x,1/2-y,z
1/2+x,1/2-y,-z
1/2-x,1/2+y,-z
1/2-x,1/2-y,-z
1/2+x,1/2+y,-z
1/2-x,1/2+y,z
1/2+x,1/2-y,z
loop_
_atom_site_type_symbol
_atom_site_label
_atom_site_fract_x
_atom_site_fract_y
_atom_site_fract_z
Si Si1 0.756803 0.149787 0.576749
Si Si2 0.657818 0.204324 0.000000
Si Si3 0.500000 0.193012 0.365249
Si Si4 0.853187 0.051426 0.577090
Si Si5 0.500000 0.806044 0.218694
Si Si6 0.500000 0.305124 0.646492
Si Si7 0.500000 0.306493 0.795243
Si Si8 0.759700 0.306443 0.862813
O O1 0.778419 0.154410 0.500000
O O2 0.622826 0.173682 0.596093
O O3 0.759348 0.094462 0.599122
O O4 0.871468 0.177209 0.611771
O O5 0.750000 0.250000 0.000000
O O6 0.699581 0.175407 0.935180
O O7 0.500000 0.215861 0.000000
O O8 0.500000 0.174269 0.291685
O O9 0.500000 0.249054 0.360684
O O10 0.856967 0.049303 0.500000
O O11 0.000000 0.061355 0.603002
O O12 0.803445 0.000000 0.603615
O O13 0.500000 0.749836 0.209878
O O14 0.629809 0.826091 0.185322
O O15 0.500000 0.324277 0.720787
O O16 0.623115 0.326571 0.835934
O O17 0.750000 0.250000 0.862815
#
# Coordination Sequence:
#
# PCOD8265540 Si02
#       8
#    16   8   8  16   8   8   8  16
#     4  11  21  33  47  66  86 108 142 187 230 269
#     4  10  18  24  36  56  76  96 124 168 221 259
#     4  11  23  32  43  60  89 119 148 182 222 260
#     4   8  14  28  50  69  82 100 129 169 219 272
#     4   9  16  30  40  49  70 109 141 169 201 246
#     4  11  21  34  47  60  81 117 160 186 214 256
#     4   9  18  28  40  55  70 101 141 181 207 240
#     4   9  16  25  39  53  73  94 130 172 215 247
#
# _framework density 14.795818000000001
#
# number of rings (size 3 to 8) (size 9 to 14) (size 15 to 20)
#    0.000    2.364    1.818    2.727    3.818    5.091 
#    0.000    0.455    0.000    2.182    0.000    0.000 
#    0.000    0.000    0.000    0.000    0.000    0.000 
#
# Total GULP energy -545151.257968 kJ/mol
# GULP energy per Si atom -12389.801317 kJ/mol
# Density = 1.476214 g / cm^3
# Si number density = 14.795818 Si / 1000 Ang^3
#
#
#
# Elastic Constant Matrix: (Units=GPa)
#
#
# Indices 1 2 3 4 5 6 
#
# 1 126.9017 26.6324 52.1413 0.0000 0.0000 0.0000
# 2 26.6324 55.9405 23.4440 0.0000 0.0000 0.0000
# 3 52.1413 23.4440 100.8472 0.0000 0.0000 0.0000
# 4 0.0000 0.0000 0.0000 -0.3309 0.0000 0.0000
# 5 0.0000 0.0000 0.0000 0.0000 14.4335 0.0000
# 6 0.0000 0.0000 0.0000 0.0000 0.0000 52.6506
#
#
#
# Elastic Compliance Matrix: (Units=1/GPa)
#
#
# Indices 1 2 3 4 5 6 
#
# 1 0.010441 -0.003001 -0.004701 0.000000 0.000000 0.000000
# 2 -0.003001 0.020668 -0.003253 0.000000 0.000000 0.000000
# 3 -0.004701 -0.003253 0.013103 0.000000 0.000000 0.000000
# 4 0.000000 0.000000 0.000000 -3.021675 0.000000 0.000000
# 5 0.000000 0.000000 0.000000 0.000000 0.069283 0.000000
# 6 0.000000 0.000000 0.000000 0.000000 0.000000 0.018993
#
#
# Mechanical properties :
#
#
# Convention : Reuss Voigt Hill
#
# Bulk Modulus (GPa) = 44.83827 54.23610 49.53718
# Shear Modulus (GPa) = -1.74835 25.44876 11.85020
#
# Velocity S-wave (km/s) = -1.08822 4.15178 2.83312
# Velocity P-wave (km/s) = 5.36577 7.72781 6.65246
#
# Compressibility (1/GPa) = 0.02230238
#
# Stress axis : x y z
#
# Youngs Moduli (GPa) = 95.77244 48.38348 76.31963
#
# Poissons Ratio (x) = 0.14519 0.35877
# Poissons Ratio (y) = 0.28740 0.24828
# Poissons Ratio (z) = 0.45022 0.15740
#
# Static dielectric constant tensor:
#      x y z
#    x 2.979030 0.000000 0.000000 
#    y 0.000000 2.718460 0.000000 
#    z 0.000000 0.000000 3.097310 
# 
# 
# High freq. dielectric constant tensor:
#      x y z
#    x 1.578510 0.000000 0.000000 
#    y 0.000000 1.504920 0.000000 
#    z 0.000000 0.000000 1.563840 
# 
# From -- ./inp_files/68459.got.cif
#   From: 2010.03.12/outbox.cif.g09.slc.cpg/sg65_35_cif.got.tgz:68459.got - 2010.04.10 20:52:16.
