data_PCOD8265090
_publ_section_title
;
Structure prediction by ZEFSAII (Michael W. Deem and Ramdas Pophale) SiO2 
 PCOD8265090
Probable space group: C M M M
;
_chemical_formula_sum "Si O2"
_cell_formula_units_Z 80
_cell_length_a 8.815193
_cell_length_b 28.467105
_cell_length_c 21.020648
_cell_angle_alpha 90.000000
_cell_angle_beta 90.000000
_cell_angle_gamma 90.000000
_cell_volume 5274.984991
_symmetry_space_group_name_H-M "C M M M"
_symmetry_group_IT_number 65
_symmetry_cell_setting 'orthorhombic'
loop_
_space_group_symop_operation_xyz
x,y,z
-x,-y,z
x,-y,-z
-x,y,-z
-x,-y,-z
x,y,-z
-x,y,z
x,-y,z
1/2+x,1/2+y,z
1/2-x,1/2-y,z
1/2+x,1/2-y,-z
1/2-x,1/2+y,-z
1/2-x,1/2-y,-z
1/2+x,1/2+y,-z
1/2-x,1/2+y,z
1/2+x,1/2-y,z
loop_
_atom_site_type_symbol
_atom_site_label
_atom_site_fract_x
_atom_site_fract_y
_atom_site_fract_z
Si Si1 0.679509 0.698757 0.000000
Si Si2 0.322107 0.800964 0.623409
Si Si3 0.678042 0.143388 0.884483
Si Si4 0.820214 0.802240 0.500000
Si Si5 0.324408 0.447031 0.925886
Si Si6 0.176272 0.699725 0.237298
O O1 0.750000 0.750000 0.000000
O O2 0.730400 0.670997 0.062141
O O3 0.500000 0.703227 0.000000
O O4 0.500000 0.797841 0.609029
O O5 0.250000 0.750000 0.626944
O O6 0.240893 0.828290 0.564344
O O7 0.287981 0.823276 0.693030
O O8 0.500000 0.149829 0.896575
O O9 0.721033 0.088457 0.885642
O O10 0.730099 0.163081 0.816040
O O11 0.750000 0.750000 0.500000
O O12 0.000000 0.801075 0.500000
O O13 0.500000 0.436463 0.912222
O O14 0.283032 0.500000 0.905018
O O15 0.288846 0.439900 0.000000
O O16 0.250000 0.750000 0.225617
O O17 0.000000 0.709731 0.231392
#
# Coordination Sequence:
#
# PCOD8265090 Si02
#       6
#     8  16  16   8  16  16
#     4  12  24  36  47  62  85 114 148 183 217 253
#     4   9  15  25  38  53  75 105 138 172 208 244
#     4  11  21  33  48  68  88 110 142 180 220 261
#     4  10  16  22  34  54  76 100 135 176 209 240
#     4   9  18  33  51  69  88 109 136 173 218 266
#     4   9  19  31  43  60  84 113 146 179 211 251
#
# _framework density 15.165921000000001
#
# number of rings (size 3 to 8) (size 9 to 14) (size 15 to 20)
#    0.000    2.200    1.000    5.400    0.000    4.400 
#    0.000    1.000    0.000    0.000    0.000    0.000 
#    0.000    0.000    0.000    0.900    0.000   18.900 
#
# Total GULP energy -495721.420520 kJ/mol
# GULP energy per Si atom -12393.035513 kJ/mol
# Density = 1.513140 g / cm^3
# Si number density = 15.165921 Si / 1000 Ang^3
#
#
#
# Elastic Constant Matrix: (Units=GPa)
#
#
# Indices 1 2 3 4 5 6 
#
# 1 86.1126 30.6614 56.0710 0.0000 0.0000 0.0000
# 2 30.6614 72.5243 46.8527 0.0000 0.0000 0.0000
# 3 56.0710 46.8527 142.6252 0.0000 0.0000 0.0000
# 4 0.0000 0.0000 0.0000 2.5458 0.0000 0.0000
# 5 0.0000 0.0000 0.0000 0.0000 18.3503 0.0000
# 6 0.0000 0.0000 0.0000 0.0000 0.0000 21.2415
#
#
#
# Elastic Compliance Matrix: (Units=1/GPa)
#
#
# Indices 1 2 3 4 5 6 
#
# 1 0.016274 -0.003487 -0.005253 0.000000 0.000000 0.000000
# 2 -0.003487 0.018250 -0.004624 0.000000 0.000000 0.000000
# 3 -0.005253 -0.004624 0.010595 0.000000 0.000000 0.000000
# 4 0.000000 0.000000 0.000000 0.392802 0.000000 0.000000
# 5 0.000000 0.000000 0.000000 0.000000 0.054495 0.000000
# 6 0.000000 0.000000 0.000000 0.000000 0.000000 0.047078
#
#
# Mechanical properties :
#
#
# Convention : Reuss Voigt Hill
#
# Bulk Modulus (GPa) = 54.37112 63.15915 58.76514
# Shear Modulus (GPa) = 8.73587 19.60599 14.17093
#
# Velocity S-wave (km/s) = 2.40264 3.59941 3.06010
# Velocity P-wave (km/s) = 6.60497 7.68181 7.16365
#
# Compressibility (1/GPa) = 0.01839212
#
# Stress axis : x y z
#
# Youngs Moduli (GPa) = 61.44598 54.79397 94.38022
#
# Poissons Ratio (x) = 0.19107 0.49574
# Poissons Ratio (y) = 0.21427 0.43644
# Poissons Ratio (z) = 0.32275 0.25338
#
# Static dielectric constant tensor:
#      x y z
#    x 3.022840 0.000000 0.000000 
#    y 0.000000 2.733600 0.000000 
#    z 0.000000 0.000000 4.095370 
# 
# 
# High freq. dielectric constant tensor:
#      x y z
#    x 1.594930 0.000000 0.000000 
#    y 0.000000 1.527770 0.000000 
#    z 0.000000 0.000000 1.588600 
# 
# From -- ./inp_files/60582.got.cif
#   From: 2010.03.12/outbox.cif.g09.slc.cpg/sg65_31_cif.got.tgz:60582.got - 2010.04.10 20:52:16.
