data_PCOD8265487
_publ_section_title
;
Structure prediction by ZEFSAII (Michael W. Deem and Ramdas Pophale) SiO2 
 PCOD8265487
Probable space group: C M M M
;
_chemical_formula_sum "Si O2"
_cell_formula_units_Z 112
_cell_length_a 19.362406
_cell_length_b 19.808959
_cell_length_c 17.476379
_cell_angle_alpha 90.000000
_cell_angle_beta 90.000000
_cell_angle_gamma 90.000000
_cell_volume 6703.049552
_symmetry_space_group_name_H-M "C M M M"
_symmetry_group_IT_number 65
_symmetry_cell_setting 'orthorhombic'
loop_
_space_group_symop_operation_xyz
x,y,z
-x,-y,z
x,-y,-z
-x,y,-z
-x,-y,-z
x,y,-z
-x,y,z
x,-y,z
1/2+x,1/2+y,z
1/2-x,1/2-y,z
1/2+x,1/2-y,-z
1/2-x,1/2+y,-z
1/2-x,1/2-y,-z
1/2+x,1/2+y,-z
1/2-x,1/2+y,z
1/2+x,1/2-y,z
loop_
_atom_site_type_symbol
_atom_site_label
_atom_site_fract_x
_atom_site_fract_y
_atom_site_fract_z
Si Si1 0.423109 0.730722 0.709723
Si Si2 0.078414 0.656597 0.412246
Si Si3 0.215608 0.824453 0.752041
Si Si4 0.195075 0.191985 0.081326
Si Si5 0.076791 0.285220 0.875016
Si Si6 0.079948 0.426516 0.162648
Si Si7 0.325712 0.924414 0.689810
O O1 0.500000 0.696592 0.707592
O O2 0.410585 0.774445 0.634257
O O3 0.361400 0.676028 0.715424
O O4 0.417378 0.779513 0.783098
O O5 0.094966 0.673206 0.500000
O O6 0.131780 0.600013 0.383977
O O7 0.000000 0.629964 0.402021
O O8 0.250000 0.750000 0.749922
O O9 0.208909 0.850510 0.841036
O O10 0.259660 0.876998 0.703776
O O11 0.250000 0.250000 0.076816
O O12 0.121494 0.229230 0.083558
O O13 0.197198 0.150119 0.000000
O O14 0.100236 0.363282 0.892595
O O15 0.000000 0.272551 0.905375
O O16 0.091617 0.500000 0.122215
O O17 0.124318 0.422723 0.238473
O O18 0.000000 0.417693 0.186557
O O19 0.298661 0.000000 0.673844
#
# Coordination Sequence:
#
# PCOD8265487 Si02
#       7
#    16  16  16  16  16  16  16
#     4   9  16  29  48  68  91 122 164 203 240 285
#     4  10  19  31  48  72 103 135 163 194 238 289
#     4  10  17  31  51  69  91 124 161 202 244 287
#     4   9  17  27  42  64  87 111 145 192 244 285
#     4   9  15  25  42  62  86 116 151 192 234 280
#     4   9  15  23  38  59  84 119 161 194 222 269
#     4  11  20  30  45  68  97 130 167 203 237 282
#
# _framework density 16.708812999999999
#
# number of rings (size 3 to 8) (size 9 to 14) (size 15 to 20)
#    0.000    2.429    2.857    2.143    0.000    1.429 
#    0.000    2.143    0.000    1.286    0.000    8.000 
#    0.000    0.000    0.000   13.571    0.000    2.714 
#
# Total GULP energy -693749.388465 kJ/mol
# GULP energy per Si atom -12388.381937 kJ/mol
# Density = 1.667078 g / cm^3
# Si number density = 16.708813 Si / 1000 Ang^3
#
#
#
# Elastic Constant Matrix: (Units=GPa)
#
#
# Indices 1 2 3 4 5 6 
#
# 1 89.0548 32.1770 35.2737 0.0000 0.0000 0.0000
# 2 32.1770 47.1624 25.7701 0.0000 0.0000 0.0000
# 3 35.2737 25.7701 82.6179 0.0000 0.0000 0.0000
# 4 0.0000 0.0000 0.0000 10.1286 0.0000 0.0000
# 5 0.0000 0.0000 0.0000 0.0000 15.6475 0.0000
# 6 0.0000 0.0000 0.0000 0.0000 0.0000 19.4889
#
#
#
# Elastic Compliance Matrix: (Units=1/GPa)
#
#
# Indices 1 2 3 4 5 6 
#
# 1 0.015991 -0.008655 -0.004128 0.000000 0.000000 0.000000
# 2 -0.008655 0.030244 -0.005738 0.000000 0.000000 0.000000
# 3 -0.004128 -0.005738 0.015656 0.000000 0.000000 0.000000
# 4 0.000000 0.000000 0.000000 0.098731 0.000000 0.000000
# 5 0.000000 0.000000 0.000000 0.000000 0.063908 0.000000
# 6 0.000000 0.000000 0.000000 0.000000 0.000000 0.051311
#
#
# Mechanical properties :
#
#
# Convention : Reuss Voigt Hill
#
# Bulk Modulus (GPa) = 40.24291 45.03073 42.63682
# Shear Modulus (GPa) = 15.56829 17.42728 16.49779
#
# Velocity S-wave (km/s) = 3.05576 3.23305 3.14565
# Velocity P-wave (km/s) = 6.04875 6.39888 6.22627
#
# Compressibility (1/GPa) = 0.02484910
#
# Stress axis : x y z
#
# Youngs Moduli (GPa) = 62.53485 33.06488 63.87228
#
# Poissons Ratio (x) = 0.28616 0.26366
# Poissons Ratio (y) = 0.54121 0.36653
# Poissons Ratio (z) = 0.25814 0.18974
#
# Static dielectric constant tensor:
#      x y z
#    x 3.318350 0.000000 0.000000 
#    y 0.000000 2.832910 0.000000 
#    z 0.000000 0.000000 3.232240 
# 
# 
# High freq. dielectric constant tensor:
#      x y z
#    x 1.652130 0.000000 0.000000 
#    y 0.000000 1.590900 0.000000 
#    z 0.000000 0.000000 1.630140 
# 
# From -- ./inp_files/54863.got.cif
#   From: 2010.03.12/outbox.cif.g09.slc.cpg/sg65_28_cif.got.tgz:54863.got - 2010.04.10 20:52:16.
