data_PCOD8265902
_publ_section_title
;
Structure prediction by ZEFSAII (Michael W. Deem and Ramdas Pophale) SiO2 
 PCOD8265902
Probable space group: C M M M
;
_chemical_formula_sum "Si O2"
_cell_formula_units_Z 88
_cell_length_a 22.523282
_cell_length_b 22.209170
_cell_length_c 9.369610
_cell_angle_alpha 90.000000
_cell_angle_beta 90.000000
_cell_angle_gamma 90.000000
_cell_volume 4686.898161
_symmetry_space_group_name_H-M "C M M M"
_symmetry_group_IT_number 65
_symmetry_cell_setting 'orthorhombic'
loop_
_space_group_symop_operation_xyz
x,y,z
-x,-y,z
x,-y,-z
-x,y,-z
-x,-y,-z
x,y,-z
-x,y,z
x,-y,z
1/2+x,1/2+y,z
1/2-x,1/2-y,z
1/2+x,1/2-y,-z
1/2-x,1/2+y,-z
1/2-x,1/2-y,-z
1/2+x,1/2+y,-z
1/2-x,1/2+y,z
1/2+x,1/2-y,z
loop_
_atom_site_type_symbol
_atom_site_label
_atom_site_fract_x
_atom_site_fract_y
_atom_site_fract_z
Si Si1 0.629867 0.147455 0.161572
Si Si2 0.566635 0.500000 0.167386
Si Si3 0.889132 0.214635 0.837726
Si Si4 0.000000 0.341982 0.838995
Si Si5 0.165522 0.092274 0.163796
Si Si6 0.500000 0.723198 0.668478
Si Si7 0.718551 0.067661 0.662910
O O1 0.633898 0.218483 0.200646
O O2 0.561952 0.121837 0.179031
O O3 0.671539 0.112321 0.268031
O O4 0.652193 0.136864 0.000000
O O5 0.500000 0.500000 0.238437
O O6 0.604440 0.559333 0.212590
O O7 0.557090 0.500000 0.000000
O O8 0.838130 0.164694 0.818568
O O9 0.941452 0.192691 0.733246
O O10 0.913013 0.214499 0.000000
O O11 0.000000 0.292184 0.717343
O O12 0.000000 0.313441 0.000000
O O13 0.218444 0.069302 0.260628
O O14 0.179566 0.075088 0.000000
O O15 0.500000 0.717314 0.500000
O O16 0.727525 0.087607 0.500000
O O17 0.693203 0.000000 0.673532
#
# Coordination Sequence:
#
# PCOD8265902 Si02
#       7
#    16   8  16   8  16   8  16
#     4   9  18  35  59  84 111 142 182 225 273 333
#     4   9  18  32  55  89 115 138 185 236 271 311
#     4   9  19  34  54  82 112 144 181 232 285 325
#     4   8  16  34  57  83 113 142 174 223 277 322
#     4  10  20  36  60  83 109 145 188 234 276 324
#     4  10  18  28  48  78 114 152 185 215 261 333
#     4  11  24  40  56  76 109 149 186 226 278 335
#
# _framework density 18.775745000000001
#
# number of rings (size 3 to 8) (size 9 to 14) (size 15 to 20)
#    0.000    2.455    0.909    2.455    1.273    5.455 
#    0.000    4.091    0.000    3.273    0.000    0.000 
#    0.000    0.000    0.000    0.000    0.000    0.000 
#
# Total GULP energy -545267.478592 kJ/mol
# GULP energy per Si atom -12392.442695 kJ/mol
# Density = 1.873301 g / cm^3
# Si number density = 18.775745 Si / 1000 Ang^3
#
#
#
# Elastic Constant Matrix: (Units=GPa)
#
#
# Indices 1 2 3 4 5 6 
#
# 1 114.8957 55.0331 49.9993 0.0000 0.0000 0.0000
# 2 55.0331 94.9756 47.3183 0.0000 0.0000 0.0000
# 3 49.9993 47.3183 101.7625 0.0000 0.0000 0.0000
# 4 0.0000 0.0000 0.0000 18.6448 0.0000 0.0000
# 5 0.0000 0.0000 0.0000 0.0000 6.5976 0.0000
# 6 0.0000 0.0000 0.0000 0.0000 0.0000 27.2405
#
#
#
# Elastic Compliance Matrix: (Units=1/GPa)
#
#
# Indices 1 2 3 4 5 6 
#
# 1 0.013074 -0.005695 -0.003776 0.000000 0.000000 0.000000
# 2 -0.005695 0.016184 -0.004727 0.000000 0.000000 0.000000
# 3 -0.003776 -0.004727 0.013880 0.000000 0.000000 0.000000
# 4 0.000000 0.000000 0.000000 0.053634 0.000000 0.000000
# 5 0.000000 0.000000 0.000000 0.000000 0.151570 0.000000
# 6 0.000000 0.000000 0.000000 0.000000 0.000000 0.036710
#
#
# Mechanical properties :
#
#
# Convention : Reuss Voigt Hill
#
# Bulk Modulus (GPa) = 67.83038 68.48169 68.15603
# Shear Modulus (GPa) = 15.70533 21.11544 18.41039
#
# Velocity S-wave (km/s) = 2.89532 3.35716 3.13476
# Velocity P-wave (km/s) = 6.88347 7.18193 7.03428
#
# Compressibility (1/GPa) = 0.01474266
#
# Stress axis : x y z
#
# Youngs Moduli (GPa) = 76.48561 61.78933 72.04493
#
# Poissons Ratio (x) = 0.35187 0.27204
# Poissons Ratio (y) = 0.43556 0.34059
# Poissons Ratio (z) = 0.28880 0.29210
#
# Static dielectric constant tensor:
#      x y z
#    x 3.533710 0.000000 0.000000 
#    y 0.000000 3.375690 0.000000 
#    z 0.000000 0.000000 3.273680 
# 
# 
# High freq. dielectric constant tensor:
#      x y z
#    x 1.728680 0.000000 0.000000 
#    y 0.000000 1.715950 0.000000 
#    z 0.000000 0.000000 1.711720 
# 
# From -- ./inp_files/14030.got.cif
#   From: 2010.03.12/outbox.cif.g09.slc.cpg/sg65_8_cif.got.tgz:14030.got - 2010.04.10 20:52:16.
