data_PCOD8265855
_publ_section_title
;
Structure prediction by ZEFSAII (Michael W. Deem and Ramdas Pophale) SiO2 
 PCOD8265855
Probable space group: C M M M
;
_chemical_formula_sum "Si O2"
_cell_formula_units_Z 104
_cell_length_a 8.908375
_cell_length_b 30.409667
_cell_length_c 22.756207
_cell_angle_alpha 90.000000
_cell_angle_beta 90.000000
_cell_angle_gamma 90.000000
_cell_volume 6164.672798
_symmetry_space_group_name_H-M "C M M M"
_symmetry_group_IT_number 65
_symmetry_cell_setting 'orthorhombic'
loop_
_space_group_symop_operation_xyz
x,y,z
-x,-y,z
x,-y,-z
-x,y,-z
-x,-y,-z
x,y,-z
-x,y,z
x,-y,z
1/2+x,1/2+y,z
1/2-x,1/2-y,z
1/2+x,1/2-y,-z
1/2-x,1/2+y,-z
1/2-x,1/2-y,-z
1/2+x,1/2+y,-z
1/2-x,1/2+y,z
1/2+x,1/2-y,z
loop_
_atom_site_type_symbol
_atom_site_label
_atom_site_fract_x
_atom_site_fract_y
_atom_site_fract_z
Si Si1 0.669366 0.052195 0.000000
Si Si2 0.664274 0.791735 0.204347
Si Si3 0.167878 0.292593 0.656401
Si Si4 0.321750 0.450973 0.434736
Si Si5 0.673769 0.551959 0.881480
Si Si6 0.178836 0.882579 0.661455
Si Si7 0.820400 0.387868 0.213732
O O1 0.757635 0.069075 0.057215
O O2 0.500000 0.071232 0.000000
O O3 0.665509 0.000000 0.000000
O O4 0.500000 0.789401 0.176249
O O5 0.750000 0.750000 0.176464
O O6 0.657123 0.787135 0.274043
O O7 0.735087 0.839786 0.189962
O O8 0.250000 0.250000 0.628926
O O9 0.265036 0.335118 0.640027
O O10 0.000000 0.296673 0.630029
O O11 0.264567 0.437626 0.500000
O O12 0.500000 0.450355 0.434001
O O13 0.264018 0.500000 0.418964
O O14 0.260436 0.417039 0.386652
O O15 0.500000 0.565483 0.878925
O O16 0.694745 0.500000 0.874462
O O17 0.764767 0.574431 0.829345
O O18 0.249965 0.897284 0.722941
O O19 0.000000 0.882006 0.667528
O O20 0.000000 0.388233 0.219539
#
# Coordination Sequence:
#
# PCOD8265855 Si02
#       7
#     8  16  16  16  16  16  16
#     4   9  17  31  51  71  92 123 160 195 235 281
#     4   8  15  26  41  61  86 117 151 186 223 267
#     4   9  16  27  43  64  91 121 152 186 227 277
#     4   8  15  29  48  68  89 116 154 197 236 278
#     4  10  20  33  49  70  96 126 162 201 236 274
#     4  10  18  28  46  71  96 122 153 192 238 284
#     4  10  20  32  45  67  99 130 159 191 233 284
#
# _framework density 16.870321000000001
#
# number of rings (size 3 to 8) (size 9 to 14) (size 15 to 20)
#    0.000    2.846    0.000    3.462    0.000    6.769 
#    0.000    1.538    0.000    3.692    0.000    4.846 
#    0.000    0.000    0.000    0.000    0.000    0.000 
#
# Total GULP energy -644521.555047 kJ/mol
# GULP energy per Si atom -12394.645289 kJ/mol
# Density = 1.683192 g / cm^3
# Si number density = 16.870321 Si / 1000 Ang^3
#
#
#
# Elastic Constant Matrix: (Units=GPa)
#
#
# Indices 1 2 3 4 5 6 
#
# 1 87.9383 42.2988 38.8957 0.0000 0.0000 0.0000
# 2 42.2988 97.5266 61.8004 0.0000 0.0000 0.0000
# 3 38.8957 61.8004 88.0421 0.0000 0.0000 0.0000
# 4 0.0000 0.0000 0.0000 1.7896 0.0000 0.0000
# 5 0.0000 0.0000 0.0000 0.0000 8.6917 0.0000
# 6 0.0000 0.0000 0.0000 0.0000 0.0000 26.8597
#
#
#
# Elastic Compliance Matrix: (Units=1/GPa)
#
#
# Indices 1 2 3 4 5 6 
#
# 1 0.015015 -0.004158 -0.003714 0.000000 0.000000 0.000000
# 2 -0.004158 0.019620 -0.011935 0.000000 0.000000 0.000000
# 3 -0.003714 -0.011935 0.021377 0.000000 0.000000 0.000000
# 4 0.000000 0.000000 0.000000 0.558793 0.000000 0.000000
# 5 0.000000 0.000000 0.000000 0.000000 0.115052 0.000000
# 6 0.000000 0.000000 0.000000 0.000000 0.000000 0.037230
#
#
# Mechanical properties :
#
#
# Convention : Reuss Voigt Hill
#
# Bulk Modulus (GPa) = 60.99010 62.16631 61.57821
# Shear Modulus (GPa) = 6.15636 16.16901 11.16269
#
# Velocity S-wave (km/s) = 1.91237 3.09921 2.57510
# Velocity P-wave (km/s) = 6.41147 7.05240 6.73956
#
# Compressibility (1/GPa) = 0.01639610
#
# Stress axis : x y z
#
# Youngs Moduli (GPa) = 66.60134 50.96798 46.77967
#
# Poissons Ratio (x) = 0.21195 0.17375
# Poissons Ratio (y) = 0.27696 0.55832
# Poissons Ratio (z) = 0.24738 0.60831
#
# Static dielectric constant tensor:
#      x y z
#    x 3.234420 0.000000 0.000000 
#    y 0.000000 3.344810 0.000000 
#    z 0.000000 0.000000 2.947880 
# 
# 
# High freq. dielectric constant tensor:
#      x y z
#    x 1.651540 0.000000 0.000000 
#    y 0.000000 1.650830 0.000000 
#    z 0.000000 0.000000 1.611650 
# 
# From -- ./inp_files/68505.got.cif
#   From: 2010.03.12/outbox.cif.g09.slc.cpg/sg65_35_cif.got.tgz:68505.got - 2010.04.10 20:52:16.
