data_PCOD8265411
_publ_section_title
;
Structure prediction by ZEFSAII (Michael W. Deem and Ramdas Pophale) SiO2 
 PCOD8265411
Probable space group: C M M M
;
_chemical_formula_sum "Si O2"
_cell_formula_units_Z 96
_cell_length_a 25.151758
_cell_length_b 20.618678
_cell_length_c 11.290775
_cell_angle_alpha 90.000000
_cell_angle_beta 90.000000
_cell_angle_gamma 90.000000
_cell_volume 5855.350744
_symmetry_space_group_name_H-M "C M M M"
_symmetry_group_IT_number 65
_symmetry_cell_setting 'orthorhombic'
loop_
_space_group_symop_operation_xyz
x,y,z
-x,-y,z
x,-y,-z
-x,y,-z
-x,-y,-z
x,y,-z
-x,y,z
x,-y,z
1/2+x,1/2+y,z
1/2-x,1/2-y,z
1/2+x,1/2-y,-z
1/2-x,1/2+y,-z
1/2-x,1/2-y,-z
1/2+x,1/2+y,-z
1/2-x,1/2+y,z
1/2+x,1/2-y,z
loop_
_atom_site_type_symbol
_atom_site_label
_atom_site_fract_x
_atom_site_fract_y
_atom_site_fract_z
Si Si1 0.792113 0.302054 0.138370
Si Si2 0.901559 0.409848 0.365249
Si Si3 0.000000 0.432389 0.213447
Si Si4 0.000000 0.714630 0.861761
Si Si5 0.260397 0.146186 0.500000
Si Si6 0.212634 0.572336 0.727603
Si Si7 0.840555 0.763727 0.500000
Si Si8 0.603578 0.227872 0.719329
O O1 0.750000 0.250000 0.192034
O O2 0.775071 0.375920 0.168068
O O3 0.849678 0.286347 0.189120
O O4 0.795601 0.293343 0.000000
O O5 0.898871 0.434389 0.500000
O O6 0.849757 0.432872 0.295416
O O7 0.910103 0.333174 0.361879
O O8 0.949992 0.441089 0.297780
O O9 0.000000 0.500000 0.134415
O O10 0.000000 0.364537 0.141167
O O11 0.948763 0.746337 0.795711
O O12 0.000000 0.735201 0.000000
O O13 0.258397 0.099366 0.388001
O O14 0.207784 0.187630 0.500000
O O15 0.314406 0.190404 0.500000
O O16 0.234000 0.500000 0.760834
O O17 0.875955 0.778280 0.381592
#
# Coordination Sequence:
#
# PCOD8265411 Si02
#       8
#    16  16   8   8   8  16   8  16
#     4  10  20  34  51  69  93 130 175 214 246 290
#     4  10  17  29  41  60  88 119 157 201 247 285
#     4  10  21  29  40  58  80 118 167 213 245 280
#     4  10  22  35  48  62  90 128 162 207 256 298
#     4  11  19  30  50  74 100 121 157 193 258 300
#     4  11  20  30  46  68  97 129 160 203 252 302
#     4  11  18  31  54  74  92 124 156 209 244 302
#     4  10  18  32  49  71  92 121 163 206 254 297
#
# _framework density 16.395261000000001
#
# number of rings (size 3 to 8) (size 9 to 14) (size 15 to 20)
#    0.000    1.667    5.000    2.500    0.000    2.167 
#    0.000    0.000    0.000    6.000    0.000    0.000 
#    0.000    0.000    0.000   30.750    0.000   61.250 
#
# Total GULP energy -594686.598472 kJ/mol
# GULP energy per Si atom -12389.304135 kJ/mol
# Density = 1.635794 g / cm^3
# Si number density = 16.395261 Si / 1000 Ang^3
#
#
#
# Elastic Constant Matrix: (Units=GPa)
#
#
# Indices 1 2 3 4 5 6 
#
# 1 83.7703 33.0570 42.3627 0.0000 0.0000 0.0000
# 2 33.0570 62.2508 24.4736 0.0000 0.0000 0.0000
# 3 42.3627 24.4736 80.7865 0.0000 0.0000 0.0000
# 4 0.0000 0.0000 0.0000 15.8250 0.0000 0.0000
# 5 0.0000 0.0000 0.0000 0.0000 30.1672 0.0000
# 6 0.0000 0.0000 0.0000 0.0000 0.0000 27.1833
#
#
#
# Elastic Compliance Matrix: (Units=1/GPa)
#
#
# Indices 1 2 3 4 5 6 
#
# 1 0.018485 -0.006817 -0.007628 0.000000 0.000000 0.000000
# 2 -0.006817 0.020750 -0.002711 0.000000 0.000000 0.000000
# 3 -0.007628 -0.002711 0.017200 0.000000 0.000000 0.000000
# 4 0.000000 0.000000 0.000000 0.063191 0.000000 0.000000
# 5 0.000000 0.000000 0.000000 0.000000 0.033149 0.000000
# 6 0.000000 0.000000 0.000000 0.000000 0.000000 0.036787
#
#
# Mechanical properties :
#
#
# Convention : Reuss Voigt Hill
#
# Bulk Modulus (GPa) = 45.20409 47.39936 46.30172
# Shear Modulus (GPa) = 21.62177 23.09606 22.35891
#
# Velocity S-wave (km/s) = 3.63544 3.75734 3.69689
# Velocity P-wave (km/s) = 6.72705 6.91351 6.82092
#
# Compressibility (1/GPa) = 0.02212189
#
# Stress axis : x y z
#
# Youngs Moduli (GPa) = 54.09785 48.19245 58.14098
#
# Poissons Ratio (x) = 0.32854 0.44349
# Poissons Ratio (y) = 0.36880 0.15764
# Poissons Ratio (z) = 0.41265 0.13066
#
# Static dielectric constant tensor:
#      x y z
#    x 3.181080 0.000000 0.000000 
#    y 0.000000 3.019560 0.000000 
#    z 0.000000 0.000000 3.061210 
# 
# 
# High freq. dielectric constant tensor:
#      x y z
#    x 1.621220 0.000000 0.000000 
#    y 0.000000 1.596200 0.000000 
#    z 0.000000 0.000000 1.633750 
# 
# From -- ./inp_files/31024.got.cif
#   From: 2010.03.12/outbox.cif.g09.slc.cpg/sg65_16_cif.got.tgz:31024.got - 2010.04.10 20:52:16.
