data_PCOD8265784
_publ_section_title
;
Structure prediction by ZEFSAII (Michael W. Deem and Ramdas Pophale) SiO2 
 PCOD8265784
Probable space group: C M M M
;
_chemical_formula_sum "Si O2"
_cell_formula_units_Z 80
_cell_length_a 18.683550
_cell_length_b 24.295979
_cell_length_c 9.026830
_cell_angle_alpha 90.000000
_cell_angle_beta 90.000000
_cell_angle_gamma 90.000000
_cell_volume 4097.595326
_symmetry_space_group_name_H-M "C M M M"
_symmetry_group_IT_number 65
_symmetry_cell_setting 'orthorhombic'
loop_
_space_group_symop_operation_xyz
x,y,z
-x,-y,z
x,-y,-z
-x,y,-z
-x,-y,-z
x,y,-z
-x,y,z
x,-y,z
1/2+x,1/2+y,z
1/2-x,1/2-y,z
1/2+x,1/2-y,-z
1/2-x,1/2+y,-z
1/2-x,1/2-y,-z
1/2+x,1/2+y,-z
1/2-x,1/2+y,z
1/2+x,1/2-y,z
loop_
_atom_site_type_symbol
_atom_site_label
_atom_site_fract_x
_atom_site_fract_y
_atom_site_fract_z
Si Si1 0.708827 0.637006 0.825026
Si Si2 0.000000 0.237942 0.174481
Si Si3 0.345456 0.139147 0.332890
Si Si4 0.079405 0.938076 0.824208
Si Si5 0.359287 0.731214 0.328245
Si Si6 0.500000 0.148628 0.328679
O O1 0.786299 0.612250 0.775773
O O2 0.643979 0.599487 0.762445
O O3 0.704886 0.696944 0.747104
O O4 0.706721 0.643171 0.000000
O O5 0.069477 0.209598 0.245475
O O6 0.000000 0.302335 0.211598
O O7 0.000000 0.227432 0.000000
O O8 0.321354 0.126474 0.500000
O O9 0.349794 0.204286 0.303292
O O10 0.426015 0.114343 0.303901
O O11 0.000000 0.916598 0.775384
O O12 0.090713 0.000000 0.763778
O O13 0.083821 0.938398 0.000000
O O14 0.362741 0.716113 0.500000
O O15 0.500000 0.171900 0.500000
#
# Coordination Sequence:
#
# PCOD8265784 Si02
#       6
#    16   8  16  16  16   8
#     4  11  21  29  47  77  99 120 161 212 255 291
#     4  10  18  28  44  66  91 122 163 210 246 274
#     4   9  18  33  49  66  95 135 170 197 234 294
#     4   8  16  33  53  71  96 130 165 203 251 306
#     4  10  20  33  46  63  95 139 173 197 237 297
#     4   8  16  32  50  64  87 130 171 191 226 292
#
# _framework density 19.523644999999998
#
# number of rings (size 3 to 8) (size 9 to 14) (size 15 to 20)
#    0.000    2.600    0.000    4.500    1.400    6.400 
#    0.000    0.000    0.000    2.400    0.000    6.300 
#    0.000    5.600    0.000    0.000    0.000    0.000 
#
# Total GULP energy -495640.701380 kJ/mol
# GULP energy per Si atom -12391.017534 kJ/mol
# Density = 1.947921 g / cm^3
# Si number density = 19.523645 Si / 1000 Ang^3
#
#
#
# Elastic Constant Matrix: (Units=GPa)
#
#
# Indices 1 2 3 4 5 6 
#
# 1 171.9335 25.1172 53.2851 0.0000 0.0000 0.0000
# 2 25.1172 24.0425 13.5934 0.0000 0.0000 0.0000
# 3 53.2851 13.5934 84.4381 0.0000 0.0000 0.0000
# 4 0.0000 0.0000 0.0000 7.0456 0.0000 0.0000
# 5 0.0000 0.0000 0.0000 0.0000 36.5658 0.0000
# 6 0.0000 0.0000 0.0000 0.0000 0.0000 19.5600
#
#
#
# Elastic Compliance Matrix: (Units=1/GPa)
#
#
# Indices 1 2 3 4 5 6 
#
# 1 0.007950 -0.006016 -0.004048 0.000000 0.000000 0.000000
# 2 -0.006016 0.050311 -0.004303 0.000000 0.000000 0.000000
# 3 -0.004048 -0.004303 0.015090 0.000000 0.000000 0.000000
# 4 0.000000 0.000000 0.000000 0.141932 0.000000 0.000000
# 5 0.000000 0.000000 0.000000 0.000000 0.027348 0.000000
# 6 0.000000 0.000000 0.000000 0.000000 0.000000 0.051125
#
#
# Mechanical properties :
#
#
# Convention : Reuss Voigt Hill
#
# Bulk Modulus (GPa) = 22.41325 51.60063 37.00694
# Shear Modulus (GPa) = 14.82087 25.19552 20.00819
#
# Velocity S-wave (km/s) = 2.75821 3.59627 3.20475
# Velocity P-wave (km/s) = 4.65281 6.61297 5.71752
#
# Compressibility (1/GPa) = 0.04461646
#
# Stress axis : x y z
#
# Youngs Moduli (GPa) = 125.79115 19.87643 66.26780
#
# Poissons Ratio (x) = 0.11958 0.26826
# Poissons Ratio (y) = 0.75679 0.28514
# Poissons Ratio (z) = 0.50922 0.08552
#
# Static dielectric constant tensor:
#      x y z
#    x 4.371560 0.000000 0.000000 
#    y 0.000000 3.078880 0.000000 
#    z 0.000000 0.000000 3.280750 
# 
# 
# High freq. dielectric constant tensor:
#      x y z
#    x 1.792030 0.000000 0.000000 
#    y 0.000000 1.691090 0.000000 
#    z 0.000000 0.000000 1.739600 
# 
# From -- ./inp_files/9973.got.cif
#   From: 2010.03.12/outbox.cif.g09.slc.cpg/sg65_5_cif.got.tgz:9973.got - 2010.04.10 20:52:16.
