data_PCOD8265682
_publ_section_title
;
Structure prediction by ZEFSAII (Michael W. Deem and Ramdas Pophale) SiO2 
 PCOD8265682
Probable space group: C M M M
;
_chemical_formula_sum "Si O2"
_cell_formula_units_Z 96
_cell_length_a 24.861906
_cell_length_b 19.050294
_cell_length_c 11.960675
_cell_angle_alpha 90.000000
_cell_angle_beta 90.000000
_cell_angle_gamma 90.000000
_cell_volume 5664.894058
_symmetry_space_group_name_H-M "C M M M"
_symmetry_group_IT_number 65
_symmetry_cell_setting 'orthorhombic'
loop_
_space_group_symop_operation_xyz
x,y,z
-x,-y,z
x,-y,-z
-x,y,-z
-x,-y,-z
x,y,-z
-x,y,z
x,-y,z
1/2+x,1/2+y,z
1/2-x,1/2-y,z
1/2+x,1/2-y,-z
1/2-x,1/2+y,-z
1/2-x,1/2-y,-z
1/2+x,1/2+y,-z
1/2-x,1/2+y,z
1/2+x,1/2-y,z
loop_
_atom_site_type_symbol
_atom_site_label
_atom_site_fract_x
_atom_site_fract_y
_atom_site_fract_z
Si Si1 0.938112 0.680472 0.869151
Si Si2 0.941731 0.272530 0.500000
Si Si3 0.636113 0.581349 0.630478
Si Si4 0.062700 0.803921 0.286035
Si Si5 0.139471 0.421383 0.734899
Si Si6 0.916206 0.574583 0.500000
Si Si7 0.756832 0.416555 0.623933
O O1 0.926833 0.759504 0.826537
O O2 0.897548 0.626110 0.812659
O O3 0.000000 0.659106 0.839849
O O4 0.927477 0.679090 0.000000
O O5 0.913825 0.245305 0.386842
O O6 0.952187 0.356143 0.500000
O O7 0.000000 0.236947 0.500000
O O8 0.622661 0.595257 0.500000
O O9 0.627795 0.500000 0.659342
O O10 0.596125 0.624227 0.711412
O O11 0.696685 0.606225 0.658916
O O12 0.000000 0.822744 0.297122
O O13 0.138809 0.500000 0.786779
O O14 0.120523 0.423529 0.608064
O O15 0.200684 0.391524 0.719907
O O16 0.949179 0.500000 0.500000
O O17 0.769763 0.385283 0.500000
O O18 0.759255 0.500000 0.615247
#
# Coordination Sequence:
#
# PCOD8265682 Si02
#       7
#    16   8  16  16  16   8  16
#     4  10  22  38  53  68  91 131 177 213 248 291
#     4  10  18  29  44  67  99 134 162 196 247 301
#     4   9  17  29  49  79 109 133 159 193 241 305
#     4  10  19  32  50  71 102 137 164 201 252 300
#     4  10  18  30  51  74  99 130 163 204 247 288
#     4  10  18  27  45  72  98 129 166 200 240 296
#     4   8  14  27  47  72 104 136 161 190 236 297
#
# _framework density 16.946477000000002
#
# number of rings (size 3 to 8) (size 9 to 14) (size 15 to 20)
#    0.000    2.500    3.333    1.000    0.000    1.167 
#    0.000    4.167    0.000    5.500    0.000    4.667 
#    0.000    0.000    0.000    0.000    0.000    0.000 
#
# Total GULP energy -594626.312102 kJ/mol
# GULP energy per Si atom -12388.048169 kJ/mol
# Density = 1.690791 g / cm^3
# Si number density = 16.946477 Si / 1000 Ang^3
#
#
#
# Elastic Constant Matrix: (Units=GPa)
#
#
# Indices 1 2 3 4 5 6 
#
# 1 114.8463 61.3497 51.4046 0.0000 0.0000 0.0000
# 2 61.3497 88.1104 40.7059 0.0000 0.0000 0.0000
# 3 51.4046 40.7059 79.3311 0.0000 0.0000 0.0000
# 4 0.0000 0.0000 0.0000 -22.9979 0.0000 0.0000
# 5 0.0000 0.0000 0.0000 0.0000 17.5543 0.0000
# 6 0.0000 0.0000 0.0000 0.0000 0.0000 5.6510
#
#
#
# Elastic Compliance Matrix: (Units=1/GPa)
#
#
# Indices 1 2 3 4 5 6 
#
# 1 0.015787 -0.008213 -0.006015 0.000000 0.000000 0.000000
# 2 -0.008213 0.019149 -0.004503 0.000000 0.000000 0.000000
# 3 -0.006015 -0.004503 0.018814 0.000000 0.000000 0.000000
# 4 0.000000 0.000000 0.000000 -0.043482 0.000000 0.000000
# 5 0.000000 0.000000 0.000000 0.000000 0.056966 0.000000
# 6 0.000000 0.000000 0.000000 0.000000 0.000000 0.176960
#
#
# Mechanical properties :
#
#
# Convention : Reuss Voigt Hill
#
# Bulk Modulus (GPa) = 61.40371 65.46759 63.43565
# Shear Modulus (GPa) = 17.41632 8.62997 13.02314
#
# Velocity S-wave (km/s) = 3.20929 2.25910 2.77517
# Velocity P-wave (km/s) = 7.07427 6.74689 6.91252
#
# Compressibility (1/GPa) = 0.01628566
#
# Stress axis : x y z
#
# Youngs Moduli (GPa) = 63.34238 52.22278 53.15197
#
# Poissons Ratio (x) = 0.42892 0.31973
# Poissons Ratio (y) = 0.52025 0.23937
# Poissons Ratio (z) = 0.38103 0.23518
#
# Static dielectric constant tensor:
#      x y z
#    x 3.296990 0.000000 0.000000 
#    y 0.000000 3.065910 0.000000 
#    z 0.000000 0.000000 2.964720 
# 
# 
# High freq. dielectric constant tensor:
#      x y z
#    x 1.652080 0.000000 0.000000 
#    y 0.000000 1.637830 0.000000 
#    z 0.000000 0.000000 1.617990 
# 
# From -- ./inp_files/32438.got.cif
#   From: 2010.03.12/outbox.cif.g09.slc.cpg/sg65_17_cif.got.tgz:32438.got - 2010.04.10 20:52:16.
