data_PCOD8265471
_publ_section_title
;
Structure prediction by ZEFSAII (Michael W. Deem and Ramdas Pophale) SiO2 
 PCOD8265471
Probable space group: C M M M
;
_chemical_formula_sum "Si O2"
_cell_formula_units_Z 88
_cell_length_a 9.007330
_cell_length_b 23.709184
_cell_length_c 23.103328
_cell_angle_alpha 90.000000
_cell_angle_beta 90.000000
_cell_angle_gamma 90.000000
_cell_volume 4933.864580
_symmetry_space_group_name_H-M "C M M M"
_symmetry_group_IT_number 65
_symmetry_cell_setting 'orthorhombic'
loop_
_space_group_symop_operation_xyz
x,y,z
-x,-y,z
x,-y,-z
-x,y,-z
-x,-y,-z
x,y,-z
-x,y,z
x,-y,z
1/2+x,1/2+y,z
1/2-x,1/2-y,z
1/2+x,1/2-y,-z
1/2-x,1/2+y,-z
1/2-x,1/2-y,-z
1/2+x,1/2+y,-z
1/2-x,1/2+y,z
1/2+x,1/2-y,z
loop_
_atom_site_type_symbol
_atom_site_label
_atom_site_fract_x
_atom_site_fract_y
_atom_site_fract_z
Si Si1 0.175131 0.435576 0.885162
Si Si2 0.332709 0.567000 0.000000
Si Si3 0.175820 0.121461 0.436943
Si Si4 0.167860 0.615722 0.232915
Si Si5 0.323601 0.689545 0.325731
Si Si6 0.827203 0.000000 0.409780
Si Si7 0.661867 0.000000 0.702340
O O1 0.228614 0.500000 0.872505
O O2 0.251338 0.410483 0.942571
O O3 0.219776 0.392481 0.833481
O O4 0.000000 0.435413 0.894390
O O5 0.325903 0.500000 0.000000
O O6 0.500000 0.589927 0.000000
O O7 0.218694 0.147872 0.500000
O O8 0.239072 0.157813 0.383413
O O9 0.241818 0.057592 0.435876
O O10 0.000000 0.118525 0.429504
O O11 0.277146 0.656857 0.267642
O O12 0.175923 0.553625 0.257828
O O13 0.000000 0.639897 0.236789
O O14 0.500000 0.695364 0.327155
O O15 0.250000 0.750000 0.325296
O O16 0.797696 0.000000 0.341698
O O17 0.000000 0.000000 0.422621
O O18 0.500000 0.000000 0.670755
#
# Coordination Sequence:
#
# PCOD8265471 Si02
#       7
#    16   8  16  16  16   8   8
#     4   9  16  28  47  71 101 140 177 205 242 298
#     4   9  17  27  39  65 106 145 176 209 245 284
#     4   9  18  32  52  77 102 130 165 206 254 309
#     4  10  19  33  53  77 104 135 171 211 257 306
#     4  11  23  38  55  74  98 130 172 219 264 308
#     4  10  17  30  52  78 103 131 165 202 248 309
#     4  10  18  29  49  76 107 134 160 204 259 308
#
# _framework density 17.835916000000001
#
# number of rings (size 3 to 8) (size 9 to 14) (size 15 to 20)
#    0.000    2.273    2.727    1.091    0.000    3.273 
#    0.000    0.000    0.000    4.909    0.000    0.636 
#    0.000    0.000    0.000    0.000    0.000    0.000 
#
# Total GULP energy -545304.016750 kJ/mol
# GULP energy per Si atom -12393.273108 kJ/mol
# Density = 1.779532 g / cm^3
# Si number density = 17.835916 Si / 1000 Ang^3
#
#
#
# Elastic Constant Matrix: (Units=GPa)
#
#
# Indices 1 2 3 4 5 6 
#
# 1 45.9765 32.6980 43.2646 0.0000 0.0000 0.0000
# 2 32.6980 96.6697 52.9007 0.0000 0.0000 0.0000
# 3 43.2646 52.9007 159.1933 0.0000 0.0000 0.0000
# 4 0.0000 0.0000 0.0000 8.3878 0.0000 0.0000
# 5 0.0000 0.0000 0.0000 0.0000 24.6541 0.0000
# 6 0.0000 0.0000 0.0000 0.0000 0.0000 19.3688
#
#
#
# Elastic Compliance Matrix: (Units=1/GPa)
#
#
# Indices 1 2 3 4 5 6 
#
# 1 0.033362 -0.007728 -0.006499 0.000000 0.000000 0.000000
# 2 -0.007728 0.014434 -0.002696 0.000000 0.000000 0.000000
# 3 -0.006499 -0.002696 0.008944 0.000000 0.000000 0.000000
# 4 0.000000 0.000000 0.000000 0.119221 0.000000 0.000000
# 5 0.000000 0.000000 0.000000 0.000000 0.040561 0.000000
# 6 0.000000 0.000000 0.000000 0.000000 0.000000 0.051630
#
#
# Mechanical properties :
#
#
# Convention : Reuss Voigt Hill
#
# Bulk Modulus (GPa) = 43.68061 62.17402 52.92732
# Shear Modulus (GPa) = 16.14835 22.01388 19.08111
#
# Velocity S-wave (km/s) = 3.01222 3.51699 3.27435
# Velocity P-wave (km/s) = 6.05322 7.17125 6.63582
#
# Compressibility (1/GPa) = 0.02289345
#
# Stress axis : x y z
#
# Youngs Moduli (GPa) = 29.97431 69.28124 111.80903
#
# Poissons Ratio (x) = 0.53542 0.72662
# Poissons Ratio (y) = 0.23165 0.30145
# Poissons Ratio (z) = 0.19480 0.18679
#
# Static dielectric constant tensor:
#      x y z
#    x 3.187010 0.000000 0.000000 
#    y 0.000000 3.134640 0.000000 
#    z 0.000000 0.000000 3.567320 
# 
# 
# High freq. dielectric constant tensor:
#      x y z
#    x 1.668220 0.000000 0.000000 
#    y 0.000000 1.656230 0.000000 
#    z 0.000000 0.000000 1.701260 
# 
# From -- ./inp_files/67623.got.cif
#   From: 2010.03.12/outbox.cif.g09.slc.cpg/sg65_34_cif.got.tgz:67623.got - 2010.04.10 20:52:16.
