data_PCOD8265695
_publ_section_title
;
Structure prediction by ZEFSAII (Michael W. Deem and Ramdas Pophale) SiO2 
 PCOD8265695
Probable space group: C M M M
;
_chemical_formula_sum "Si O2"
_cell_formula_units_Z 88
_cell_length_a 25.433452
_cell_length_b 27.755943
_cell_length_c 9.142555
_cell_angle_alpha 90.000000
_cell_angle_beta 90.000000
_cell_angle_gamma 90.000000
_cell_volume 6453.998768
_symmetry_space_group_name_H-M "C M M M"
_symmetry_group_IT_number 65
_symmetry_cell_setting 'orthorhombic'
loop_
_space_group_symop_operation_xyz
x,y,z
-x,-y,z
x,-y,-z
-x,y,-z
-x,-y,-z
x,y,-z
-x,y,z
x,-y,z
1/2+x,1/2+y,z
1/2-x,1/2-y,z
1/2+x,1/2-y,-z
1/2-x,1/2+y,-z
1/2-x,1/2-y,-z
1/2+x,1/2+y,-z
1/2-x,1/2+y,z
1/2+x,1/2-y,z
loop_
_atom_site_type_symbol
_atom_site_label
_atom_site_fract_x
_atom_site_fract_y
_atom_site_fract_z
Si Si1 0.806519 0.724925 0.835880
Si Si2 0.893416 0.895783 0.173973
Si Si3 0.000000 0.053889 0.826911
Si Si4 0.262397 0.856317 0.661779
Si Si5 0.149015 0.192197 0.335633
Si Si6 0.299033 0.554795 0.670164
O O1 0.750000 0.750000 0.832780
O O2 0.801969 0.670863 0.770924
O O3 0.848237 0.755710 0.742139
O O4 0.828092 0.720747 0.000000
O O5 0.948712 0.917565 0.226319
O O6 0.889055 0.842787 0.244192
O O7 0.848633 0.931848 0.230686
O O8 0.888616 0.891162 0.000000
O O9 0.000000 0.000000 0.759224
O O10 0.000000 0.050028 0.000000
O O11 0.287514 0.854373 0.500000
O O12 0.206524 0.830213 0.660623
O O13 0.251247 0.911565 0.710957
O O14 0.127063 0.198781 0.500000
O O15 0.314248 0.563354 0.500000
O O16 0.282505 0.500000 0.701134
#
# Coordination Sequence:
#
# PCOD8265695 Si02
#       6
#    16  16   8  16  16  16
#     4   9  15  22  34  52  70  86 106 132 162 199
#     4  10  18  28  41  54  67  85 113 147 182 219
#     4   9  18  30  41  53  69  89 113 145 186 225
#     4   8  14  23  34  48  67  90 111 133 165 202
#     4   9  16  26  38  51  68  87 106 132 170 212
#     4   9  17  28  39  51  69  92 117 145 177 211
#
# _framework density 13.634957
#
# number of rings (size 3 to 8) (size 9 to 14) (size 15 to 20)
#    0.000    3.000    0.000    3.273    0.000    7.636 
#    0.000    1.818    0.000    3.273    0.000    0.000 
#    0.000    0.000    0.000    0.000    0.000    0.000 
#
# Total GULP energy -545384.667885 kJ/mol
# GULP energy per Si atom -12395.106088 kJ/mol
# Density = 1.360392 g / cm^3
# Si number density = 13.634957 Si / 1000 Ang^3
#
#
#
# Elastic Constant Matrix: (Units=GPa)
#
#
# Indices 1 2 3 4 5 6 
#
# 1 29.4318 44.1389 25.6785 0.0000 0.0000 0.0000
# 2 44.1389 119.6076 56.3326 0.0000 0.0000 0.0000
# 3 25.6785 56.3326 89.4786 0.0000 0.0000 0.0000
# 4 0.0000 0.0000 0.0000 21.9590 0.0000 0.0000
# 5 0.0000 0.0000 0.0000 0.0000 9.2817 0.0000
# 6 0.0000 0.0000 0.0000 0.0000 0.0000 17.7628
#
#
#
# Elastic Compliance Matrix: (Units=1/GPa)
#
#
# Indices 1 2 3 4 5 6 
#
# 1 0.078350 -0.026047 -0.006087 0.000000 0.000000 0.000000
# 2 -0.026047 0.020544 -0.005459 0.000000 0.000000 0.000000
# 3 -0.006087 -0.005459 0.016359 0.000000 0.000000 0.000000
# 4 0.000000 0.000000 0.000000 0.045539 0.000000 0.000000
# 5 0.000000 0.000000 0.000000 0.000000 0.107739 0.000000
# 6 0.000000 0.000000 0.000000 0.000000 0.000000 0.056297
#
#
# Mechanical properties :
#
#
# Convention : Reuss Voigt Hill
#
# Bulk Modulus (GPa) = 24.95725 54.53533 39.74629
# Shear Modulus (GPa) = 12.09573 17.29190 14.69381
#
# Velocity S-wave (km/s) = 2.98167 3.56505 3.28633
# Velocity P-wave (km/s) = 5.49522 7.55180 6.60405
#
# Compressibility (1/GPa) = 0.04006852
#
# Stress axis : x y z
#
# Youngs Moduli (GPa) = 12.76325 48.67659 61.12777
#
# Poissons Ratio (x) = 1.26788 0.37205
# Poissons Ratio (y) = 0.33244 0.33368
# Poissons Ratio (z) = 0.07768 0.26571
#
# Static dielectric constant tensor:
#      x y z
#    x 2.289240 0.000000 0.000000 
#    y 0.000000 2.934420 0.000000 
#    z 0.000000 0.000000 2.827680 
# 
# 
# High freq. dielectric constant tensor:
#      x y z
#    x 1.448530 0.000000 0.000000 
#    y 0.000000 1.520360 0.000000 
#    z 0.000000 0.000000 1.529370 
# 
# From -- ./inp_files/12641.got.cif
#   From: 2010.03.12/outbox.cif.g09.slc.cpg/sg65_7_cif.got.tgz:12641.got - 2010.04.10 20:52:16.
