data_PCOD8265225
_publ_section_title
;
Structure prediction by ZEFSAII (Michael W. Deem and Ramdas Pophale) SiO2 
 PCOD8265225
Probable space group: C M M M
;
_chemical_formula_sum "Si O2"
_cell_formula_units_Z 72
_cell_length_a 25.314303
_cell_length_b 8.772838
_cell_length_c 20.755832
_cell_angle_alpha 90.000000
_cell_angle_beta 90.000000
_cell_angle_gamma 90.000000
_cell_volume 4609.419456
_symmetry_space_group_name_H-M "C M M M"
_symmetry_group_IT_number 65
_symmetry_cell_setting 'orthorhombic'
loop_
_space_group_symop_operation_xyz
x,y,z
-x,-y,z
x,-y,-z
-x,y,-z
-x,-y,-z
x,y,-z
-x,y,z
x,-y,z
1/2+x,1/2+y,z
1/2-x,1/2-y,z
1/2+x,1/2-y,-z
1/2-x,1/2+y,-z
1/2-x,1/2-y,-z
1/2+x,1/2+y,-z
1/2-x,1/2+y,z
1/2+x,1/2-y,z
loop_
_atom_site_type_symbol
_atom_site_label
_atom_site_fract_x
_atom_site_fract_y
_atom_site_fract_z
Si Si1 0.692544 0.680665 0.675341
Si Si2 0.192582 0.822235 0.930090
Si Si3 0.606398 0.320836 0.572723
Si Si4 0.808519 0.318973 0.195062
Si Si5 0.500000 0.171634 0.423462
O O1 0.697380 0.500000 0.683045
O O2 0.750000 0.750000 0.662104
O O3 0.655936 0.729407 0.615758
O O4 0.665618 0.751222 0.739924
O O5 0.250000 0.750000 0.935509
O O6 0.161894 0.739400 0.870490
O O7 0.197930 0.000000 0.914046
O O8 0.163935 0.797854 0.000000
O O9 0.616727 0.260972 0.500000
O O10 0.598898 0.500000 0.573204
O O11 0.552922 0.251323 0.602891
O O12 0.808196 0.500000 0.197874
O O13 0.750000 0.250000 0.192737
O O14 0.500000 0.184136 0.500000
O O15 0.500000 0.000000 0.398292
#
# Coordination Sequence:
#
# PCOD8265225 Si02
#       5
#    16  16  16  16   8
#     4  10  19  30  43  59  82 112 144 175 208 248
#     4   9  15  22  33  49  69  94 127 166 203 238
#     4   9  18  32  48  64  83 109 139 171 210 255
#     4  10  17  25  37  51  72 102 135 169 203 242
#     4   9  17  29  47  69  87 103 128 167 212 253
#
# _framework density 15.620188000000001
#
# number of rings (size 3 to 8) (size 9 to 14) (size 15 to 20)
#    0.000    2.556    0.000    6.333    0.000    4.889 
#    0.000    0.000    0.000    0.000    0.000    0.000 
#    0.000    0.000    0.000    1.000    0.000   19.778 
#
# Total GULP energy -446044.878588 kJ/mol
# GULP energy per Si atom -12390.135516 kJ/mol
# Density = 1.558464 g / cm^3
# Si number density = 15.620188 Si / 1000 Ang^3
#
#
#
# Elastic Constant Matrix: (Units=GPa)
#
#
# Indices 1 2 3 4 5 6 
#
# 1 60.9785 32.0797 49.7395 0.0000 0.0000 0.0000
# 2 32.0797 92.6217 54.5468 0.0000 0.0000 0.0000
# 3 49.7395 54.5468 128.2363 0.0000 0.0000 0.0000
# 4 0.0000 0.0000 0.0000 24.2442 0.0000 0.0000
# 5 0.0000 0.0000 0.0000 0.0000 0.7271 0.0000
# 6 0.0000 0.0000 0.0000 0.0000 0.0000 15.8784
#
#
#
# Elastic Compliance Matrix: (Units=1/GPa)
#
#
# Indices 1 2 3 4 5 6 
#
# 1 0.025020 -0.003937 -0.008030 0.000000 0.000000 0.000000
# 2 -0.003937 0.015025 -0.004864 0.000000 0.000000 0.000000
# 3 -0.008030 -0.004864 0.012982 0.000000 0.000000 0.000000
# 4 0.000000 0.000000 0.000000 0.041247 0.000000 0.000000
# 5 0.000000 0.000000 0.000000 0.000000 1.375282 0.000000
# 6 0.000000 0.000000 0.000000 0.000000 0.000000 0.062979
#
#
# Mechanical properties :
#
#
# Convention : Reuss Voigt Hill
#
# Bulk Modulus (GPa) = 51.63960 61.61874 56.62917
# Shear Modulus (GPa) = 3.17934 17.86798 10.52366
#
# Velocity S-wave (km/s) = 1.42822 3.38583 2.59843
# Velocity P-wave (km/s) = 5.98758 7.40398 6.73313
#
# Compressibility (1/GPa) = 0.01936499
#
# Stress axis : x y z
#
# Youngs Moduli (GPa) = 39.96734 66.55764 77.03121
#
# Poissons Ratio (x) = 0.26202 0.61858
# Poissons Ratio (y) = 0.15734 0.37467
# Poissons Ratio (z) = 0.32095 0.32373
#
# Static dielectric constant tensor:
#      x y z
#    x 2.274070 0.000000 0.000000 
#    y 0.000000 3.101970 0.000000 
#    z 0.000000 0.000000 4.146990 
# 
# 
# High freq. dielectric constant tensor:
#      x y z
#    x 1.526070 0.000000 0.000000 
#    y 0.000000 1.616960 0.000000 
#    z 0.000000 0.000000 1.612420 
# 
# From -- ./inp_files/59998.got.cif
#   From: 2010.03.12/outbox.cif.g09.slc.cpg/sg65_30_cif.got.tgz:59998.got - 2010.04.10 20:52:16.
