data_PCOD8265596
_publ_section_title
;
Structure prediction by ZEFSAII (Michael W. Deem and Ramdas Pophale) SiO2 
 PCOD8265596
Probable space group: C M M M
;
_chemical_formula_sum "Si O2"
_cell_formula_units_Z 104
_cell_length_a 36.314847
_cell_length_b 27.454390
_cell_length_c 9.022438
_cell_angle_alpha 90.000000
_cell_angle_beta 90.000000
_cell_angle_gamma 90.000000
_cell_volume 8995.388481
_symmetry_space_group_name_H-M "C M M M"
_symmetry_group_IT_number 65
_symmetry_cell_setting 'orthorhombic'
loop_
_space_group_symop_operation_xyz
x,y,z
-x,-y,z
x,-y,-z
-x,y,-z
-x,-y,-z
x,y,-z
-x,y,z
x,-y,z
1/2+x,1/2+y,z
1/2-x,1/2-y,z
1/2+x,1/2-y,-z
1/2-x,1/2+y,-z
1/2-x,1/2-y,-z
1/2+x,1/2+y,-z
1/2-x,1/2+y,z
1/2+x,1/2-y,z
loop_
_atom_site_type_symbol
_atom_site_label
_atom_site_fract_x
_atom_site_fract_y
_atom_site_fract_z
Si Si1 0.500000 0.942165 0.167333
Si Si2 0.211436 0.777869 0.167358
Si Si3 0.926412 0.443022 0.673472
Si Si4 0.783056 0.555634 0.172934
Si Si5 0.253927 0.361213 0.666565
Si Si6 0.823079 0.305888 0.332445
Si Si7 0.641597 0.891652 0.825613
O O1 0.535962 0.923411 0.253721
O O2 0.500000 0.000000 0.165698
O O3 0.500000 0.921406 0.000000
O O4 0.250000 0.750000 0.168853
O O5 0.215579 0.830609 0.243729
O O6 0.180955 0.746875 0.256294
O O7 0.197525 0.785418 0.000000
O O8 0.927744 0.431828 0.500000
O O9 0.920807 0.500000 0.705462
O O10 0.893397 0.414269 0.747316
O O11 0.779743 0.500000 0.224571
O O12 0.752024 0.586270 0.258615
O O13 0.823835 0.574039 0.212684
O O14 0.775392 0.562120 0.000000
O O15 0.268298 0.368875 0.500000
O O16 0.216005 0.332144 0.668157
O O17 0.837554 0.299219 0.500000
O O18 0.852011 0.337659 0.238820
O O19 0.634676 0.887996 0.000000
#
# Coordination Sequence:
#
# PCOD8265596 Si02
#       7
#     8  16  16  16  16  16  16
#     4   9  17  29  43  55  65  79 101 127 153 183
#     4   9  15  23  35  48  61  78  99 122 148 179
#     4  10  19  29  40  53  68  84 102 126 156 188
#     4   9  17  27  36  46  62  83 105 129 156 187
#     4   9  16  24  34  47  61  78 100 125 152 182
#     4   9  16  25  35  48  65  81  98 122 151 182
#     4  10  18  27  38  51  66  84 105 126 152 189
#
# _framework density 11.56148
#
# number of rings (size 3 to 8) (size 9 to 14) (size 15 to 20)
#    0.000    2.692    0.000    3.000    0.000    8.923 
#    0.000    0.000    0.000    0.000    0.000    0.000 
#    0.000    0.000    0.000    0.000    0.000    0.000 
#
# Total GULP energy -644761.904715 kJ/mol
# GULP energy per Si atom -12399.267398 kJ/mol
# Density = 1.153517 g / cm^3
# Si number density = 11.561480 Si / 1000 Ang^3
#
#
#
# Elastic Constant Matrix: (Units=GPa)
#
#
# Indices 1 2 3 4 5 6 
#
# 1 38.8277 40.0048 37.4204 0.0000 0.0000 0.0000
# 2 40.0048 73.6997 46.8643 0.0000 0.0000 0.0000
# 3 37.4204 46.8643 89.9826 0.0000 0.0000 0.0000
# 4 0.0000 0.0000 0.0000 20.4841 0.0000 0.0000
# 5 0.0000 0.0000 0.0000 0.0000 17.3632 0.0000
# 6 0.0000 0.0000 0.0000 0.0000 0.0000 12.1538
#
#
#
# Elastic Compliance Matrix: (Units=1/GPa)
#
#
# Indices 1 2 3 4 5 6 
#
# 1 0.067902 -0.028261 -0.013519 0.000000 0.000000 0.000000
# 2 -0.028261 0.032050 -0.004939 0.000000 0.000000 0.000000
# 3 -0.013519 -0.004939 0.019308 0.000000 0.000000 0.000000
# 4 0.000000 0.000000 0.000000 0.048818 0.000000 0.000000
# 5 0.000000 0.000000 0.000000 0.000000 0.057593 0.000000
# 6 0.000000 0.000000 0.000000 0.000000 0.000000 0.082278
#
#
# Mechanical properties :
#
#
# Convention : Reuss Voigt Hill
#
# Bulk Modulus (GPa) = 38.72891 50.12101 44.42496
# Shear Modulus (GPa) = 12.19526 15.21492 13.70509
#
# Velocity S-wave (km/s) = 3.25132 3.63161 3.44671
# Velocity P-wave (km/s) = 6.90404 7.81221 7.37212
#
# Compressibility (1/GPa) = 0.02582051
#
# Stress axis : x y z
#
# Youngs Moduli (GPa) = 14.72711 31.20150 51.79275
#
# Poissons Ratio (x) = 0.88179 0.70019
# Poissons Ratio (y) = 0.41621 0.25581
# Poissons Ratio (z) = 0.19910 0.15411
#
# Static dielectric constant tensor:
#      x y z
#    x 2.151320 0.000000 0.000000 
#    y 0.000000 2.380270 0.000000 
#    z 0.000000 0.000000 2.628740 
# 
# 
# High freq. dielectric constant tensor:
#      x y z
#    x 1.387600 0.000000 0.000000 
#    y 0.000000 1.416480 0.000000 
#    z 0.000000 0.000000 1.459230 
# 
# From -- ./inp_files/17016.got.cif
#   From: 2010.03.12/outbox.cif.g09.slc.cpg/sg65_9_cif.got.tgz:17016.got - 2010.04.10 20:52:16.
