data_PCOD8265570
_publ_section_title
;
Structure prediction by ZEFSAII (Michael W. Deem and Ramdas Pophale) SiO2 
 PCOD8265570
Probable space group: C M M M
;
_chemical_formula_sum "Si O2"
_cell_formula_units_Z 104
_cell_length_a 8.957792
_cell_length_b 27.079801
_cell_length_c 26.810836
_cell_angle_alpha 90.000000
_cell_angle_beta 90.000000
_cell_angle_gamma 90.000000
_cell_volume 6503.644569
_symmetry_space_group_name_H-M "C M M M"
_symmetry_group_IT_number 65
_symmetry_cell_setting 'orthorhombic'
loop_
_space_group_symop_operation_xyz
x,y,z
-x,-y,z
x,-y,-z
-x,y,-z
-x,-y,-z
x,y,-z
-x,y,z
x,-y,z
1/2+x,1/2+y,z
1/2-x,1/2-y,z
1/2+x,1/2-y,-z
1/2-x,1/2+y,-z
1/2-x,1/2-y,-z
1/2+x,1/2+y,-z
1/2-x,1/2+y,z
1/2+x,1/2-y,z
loop_
_atom_site_type_symbol
_atom_site_label
_atom_site_fract_x
_atom_site_fract_y
_atom_site_fract_z
Si Si1 0.826348 0.847633 0.254263
Si Si2 0.672328 0.554531 0.306437
Si Si3 0.676136 0.199815 0.345760
Si Si4 0.322157 0.056155 0.500000
Si Si5 0.823902 0.399553 0.397398
Si Si6 0.674899 0.803199 0.054152
Si Si7 0.675933 0.696750 0.150068
O O1 0.784020 0.904759 0.264982
O O2 0.732728 0.811846 0.290070
O O3 0.783544 0.837154 0.197228
O O4 0.000000 0.836788 0.264371
O O5 0.500000 0.559689 0.320667
O O6 0.709038 0.500000 0.284971
O O7 0.762608 0.562125 0.357135
O O8 0.500000 0.206483 0.344036
O O9 0.750000 0.250000 0.365776
O O10 0.725648 0.156205 0.383538
O O11 0.500000 0.055686 0.500000
O O12 0.261044 0.085388 0.548378
O O13 0.261294 0.000000 0.500000
O O14 0.000000 0.404272 0.396227
O O15 0.500000 0.797708 0.065076
O O16 0.750000 0.750000 0.051893
O O17 0.754439 0.830614 0.100873
O O18 0.700954 0.829620 0.000000
O O19 0.500000 0.703073 0.143205
O O20 0.750000 0.750000 0.158034
#
# Coordination Sequence:
#
# PCOD8265570 Si02
#       7
#    16  16  16   8  16  16  16
#     4   9  18  30  43  62  86 111 141 173 206 248
#     4   9  17  30  47  65  87 113 137 166 208 253
#     4  10  19  30  45  63  84 112 143 174 207 244
#     4   9  16  28  48  69  87 107 133 171 214 251
#     4   9  18  31  47  67  87 109 140 173 205 246
#     4   9  16  25  37  53  75 105 139 171 203 240
#     4  10  18  26  38  56  80 109 139 171 203 237
#
# _framework density 15.991033
#
# number of rings (size 3 to 8) (size 9 to 14) (size 15 to 20)
#    0.000    2.692    0.000    3.231    0.000    4.923 
#    0.000    0.769    0.000    1.385    0.000    0.000 
#    0.000    0.615    0.000    7.692    0.000    1.231 
#
# Total GULP energy -644503.276552 kJ/mol
# GULP energy per Si atom -12394.293780 kJ/mol
# Density = 1.595464 g / cm^3
# Si number density = 15.991033 Si / 1000 Ang^3
#
#
#
# Elastic Constant Matrix: (Units=GPa)
#
#
# Indices 1 2 3 4 5 6 
#
# 1 51.5673 27.7570 40.5113 0.0000 0.0000 0.0000
# 2 27.7570 92.4998 56.1395 0.0000 0.0000 0.0000
# 3 40.5113 56.1395 149.1750 0.0000 0.0000 0.0000
# 4 0.0000 0.0000 0.0000 16.9454 0.0000 0.0000
# 5 0.0000 0.0000 0.0000 0.0000 22.6723 0.0000
# 6 0.0000 0.0000 0.0000 0.0000 0.0000 16.5898
#
#
#
# Elastic Compliance Matrix: (Units=1/GPa)
#
#
# Indices 1 2 3 4 5 6 
#
# 1 0.026060 -0.004568 -0.005358 0.000000 0.000000 0.000000
# 2 -0.004568 0.014812 -0.004334 0.000000 0.000000 0.000000
# 3 -0.005358 -0.004334 0.009789 0.000000 0.000000 0.000000
# 4 0.000000 0.000000 0.000000 0.059013 0.000000 0.000000
# 5 0.000000 0.000000 0.000000 0.000000 0.044107 0.000000
# 6 0.000000 0.000000 0.000000 0.000000 0.000000 0.060278
#
#
# Mechanical properties :
#
#
# Convention : Reuss Voigt Hill
#
# Bulk Modulus (GPa) = 45.16316 60.22863 52.69589
# Shear Modulus (GPa) = 20.00323 22.49711 21.25017
#
# Velocity S-wave (km/s) = 3.54065 3.75488 3.64934
# Velocity P-wave (km/s) = 6.70962 7.51961 7.12614
#
# Compressibility (1/GPa) = 0.02214194
#
# Stress axis : x y z
#
# Youngs Moduli (GPa) = 38.37256 67.51402 102.15061
#
# Poissons Ratio (x) = 0.30842 0.54732
# Poissons Ratio (y) = 0.17529 0.44268
# Poissons Ratio (z) = 0.20560 0.29258
#
# Static dielectric constant tensor:
#      x y z
#    x 3.039640 0.000000 0.000000 
#    y 0.000000 2.980060 0.000000 
#    z 0.000000 0.000000 3.528970 
# 
# 
# High freq. dielectric constant tensor:
#      x y z
#    x 1.616710 0.000000 0.000000 
#    y 0.000000 1.584130 0.000000 
#    z 0.000000 0.000000 1.614460 
# 
# From -- ./inp_files/73771.got.cif
#   From: 2010.03.12/outbox.cif.g09.slc.cpg/sg65_37_cif.got.tgz:73771.got - 2010.04.10 20:52:16.
