data_PCOD8265396
_publ_section_title
;
Structure prediction by ZEFSAII (Michael W. Deem and Ramdas Pophale) SiO2 
 PCOD8265396
Probable space group: C M M M
;
_chemical_formula_sum "Si O2"
_cell_formula_units_Z 88
_cell_length_a 24.540187
_cell_length_b 22.258672
_cell_length_c 9.616225
_cell_angle_alpha 90.000000
_cell_angle_beta 90.000000
_cell_angle_gamma 90.000000
_cell_volume 5252.689557
_symmetry_space_group_name_H-M "C M M M"
_symmetry_group_IT_number 65
_symmetry_cell_setting 'orthorhombic'
loop_
_space_group_symop_operation_xyz
x,y,z
-x,-y,z
x,-y,-z
-x,y,-z
-x,-y,-z
x,y,-z
-x,y,z
x,-y,z
1/2+x,1/2+y,z
1/2-x,1/2-y,z
1/2+x,1/2-y,-z
1/2-x,1/2+y,-z
1/2-x,1/2-y,-z
1/2+x,1/2+y,-z
1/2-x,1/2+y,z
1/2+x,1/2-y,z
loop_
_atom_site_type_symbol
_atom_site_label
_atom_site_fract_x
_atom_site_fract_y
_atom_site_fract_z
Si Si1 0.561194 0.000000 0.165006
Si Si2 0.644027 0.570808 0.840167
Si Si3 0.937272 0.285672 0.660046
Si Si4 0.937769 0.852838 0.660363
Si Si5 0.875950 0.618262 0.164753
Si Si6 0.235720 0.566339 0.164622
O O1 0.591805 0.940520 0.217888
O O2 0.500000 0.000000 0.225645
O O3 0.560763 0.000000 0.000000
O O4 0.636326 0.500000 0.819481
O O5 0.600120 0.605150 0.750569
O O6 0.704777 0.590168 0.788627
O O7 0.635296 0.588955 0.000000
O O8 0.925724 0.302180 0.500000
O O9 0.923486 0.216403 0.688561
O O10 0.898533 0.323502 0.759415
O O11 0.000000 0.299310 0.697014
O O12 0.928305 0.868757 0.500000
O O13 0.000000 0.865753 0.702686
O O14 0.812572 0.611263 0.209650
O O15 0.882631 0.627086 0.000000
O O16 0.224709 0.500000 0.228258
O O17 0.235756 0.559429 0.000000
#
# Coordination Sequence:
#
# PCOD8265396 Si02
#       6
#     8  16  16  16  16  16
#     4   9  16  24  39  69 101 121 150 201 244 272
#     4   9  18  32  52  77 102 125 153 193 240 288
#     4   9  19  35  50  65  93 131 164 198 243 289
#     4   9  19  36  54  70  93 128 164 195 235 290
#     4  10  17  28  49  73  95 125 165 203 237 278
#     4   8  14  28  48  70  98 131 160 190 236 287
#
# _framework density 16.753322000000001
#
# number of rings (size 3 to 8) (size 9 to 14) (size 15 to 20)
#    0.000    3.000    0.909    2.727    0.000    2.909 
#    0.000    5.909    0.000    8.182    0.000    0.000 
#    0.000    0.000    0.000    0.000    0.000    0.000 
#
# Total GULP energy -545416.758226 kJ/mol
# GULP energy per Si atom -12395.835414 kJ/mol
# Density = 1.671519 g / cm^3
# Si number density = 16.753322 Si / 1000 Ang^3
#
#
#
# Elastic Constant Matrix: (Units=GPa)
#
#
# Indices 1 2 3 4 5 6 
#
# 1 142.9741 71.6053 58.2804 0.0000 0.0000 0.0000
# 2 71.6053 72.7529 44.3505 0.0000 0.0000 0.0000
# 3 58.2804 44.3505 52.7801 0.0000 0.0000 0.0000
# 4 0.0000 0.0000 0.0000 88.1943 0.0000 0.0000
# 5 0.0000 0.0000 0.0000 0.0000 14.7675 0.0000
# 6 0.0000 0.0000 0.0000 0.0000 0.0000 25.4314
#
#
#
# Elastic Compliance Matrix: (Units=1/GPa)
#
#
# Indices 1 2 3 4 5 6 
#
# 1 0.015580 -0.009937 -0.008854 0.000000 0.000000 0.000000
# 2 -0.009937 0.034518 -0.018033 0.000000 0.000000 0.000000
# 3 -0.008854 -0.018033 0.043876 0.000000 0.000000 0.000000
# 4 0.000000 0.000000 0.000000 0.011339 0.000000 0.000000
# 5 0.000000 0.000000 0.000000 0.000000 0.067716 0.000000
# 6 0.000000 0.000000 0.000000 0.000000 0.000000 0.039322
#
#
# Mechanical properties :
#
#
# Convention : Reuss Voigt Hill
#
# Bulk Modulus (GPa) = 49.19562 68.55325 58.87443
# Shear Modulus (GPa) = 17.07808 31.96336 24.52072
#
# Velocity S-wave (km/s) = 3.19624 4.37267 3.82990
# Velocity P-wave (km/s) = 6.56123 8.15486 7.40106
#
# Compressibility (1/GPa) = 0.02032701
#
# Stress axis : x y z
#
# Youngs Moduli (GPa) = 64.18480 28.97016 22.79171
#
# Poissons Ratio (x) = 0.28788 0.20179
# Poissons Ratio (y) = 0.63780 0.41100
# Poissons Ratio (z) = 0.56827 0.52241
#
# Static dielectric constant tensor:
#      x y z
#    x 3.405090 0.000000 0.000000 
#    y 0.000000 2.996800 0.000000 
#    z 0.000000 0.000000 2.813610 
# 
# 
# High freq. dielectric constant tensor:
#      x y z
#    x 1.656370 0.000000 0.000000 
#    y 0.000000 1.636100 0.000000 
#    z 0.000000 0.000000 1.614680 
# 
# From -- ./inp_files/11714.got.cif
#   From: 2010.03.12/outbox.cif.g09.slc.cpg/sg65_6_cif.got.tgz:11714.got - 2010.04.10 20:52:16.
