data_PCOD8265657
_publ_section_title
;
Structure prediction by ZEFSAII (Michael W. Deem and Ramdas Pophale) SiO2 
 PCOD8265657
Probable space group: C M M M
;
_chemical_formula_sum "Si O2"
_cell_formula_units_Z 104
_cell_length_a 8.987901
_cell_length_b 27.518812
_cell_length_c 26.413608
_cell_angle_alpha 90.000000
_cell_angle_beta 90.000000
_cell_angle_gamma 90.000000
_cell_volume 6533.045602
_symmetry_space_group_name_H-M "C M M M"
_symmetry_group_IT_number 65
_symmetry_cell_setting 'orthorhombic'
loop_
_space_group_symop_operation_xyz
x,y,z
-x,-y,z
x,-y,-z
-x,y,-z
-x,-y,-z
x,y,-z
-x,y,z
x,-y,z
1/2+x,1/2+y,z
1/2-x,1/2-y,z
1/2+x,1/2-y,-z
1/2-x,1/2+y,-z
1/2-x,1/2-y,-z
1/2+x,1/2+y,-z
1/2-x,1/2+y,z
1/2+x,1/2-y,z
loop_
_atom_site_type_symbol
_atom_site_label
_atom_site_fract_x
_atom_site_fract_y
_atom_site_fract_z
Si Si1 0.162963 0.442305 0.500000
Si Si2 0.671272 0.444713 0.793854
Si Si3 0.822301 0.445624 0.391608
Si Si4 0.170333 0.855522 0.858954
Si Si5 0.673853 0.200255 0.942336
Si Si6 0.674608 0.698658 0.756296
Si Si7 0.676153 0.110061 0.706735
O O1 0.146230 0.500000 0.500000
O O2 0.243031 0.427671 0.553328
O O3 0.000000 0.417870 0.500000
O O4 0.500000 0.436476 0.776979
O O5 0.702778 0.500000 0.809938
O O6 0.705429 0.410788 0.842300
O O7 0.776492 0.430423 0.747487
O O8 0.763720 0.500000 0.378829
O O9 0.770397 0.408659 0.348171
O O10 0.000000 0.447032 0.395034
O O11 0.272207 0.843607 0.907017
O O12 0.209781 0.819540 0.812857
O O13 0.000000 0.849270 0.875469
O O14 0.500000 0.207453 0.935852
O O15 0.750000 0.250000 0.924335
O O16 0.717864 0.187684 0.000000
O O17 0.500000 0.702753 0.746532
O O18 0.750000 0.750000 0.747131
O O19 0.742886 0.661003 0.716226
O O20 0.500000 0.117327 0.709870
#
# Coordination Sequence:
#
# PCOD8265657 Si02
#       7
#     8  16  16  16  16  16  16
#     4   7  10  18  32  52  82 117 146 175 214 253
#     4   9  18  32  47  64  89 120 152 184 218 256
#     4   8  13  21  35  58  88 118 147 179 213 252
#     4   9  18  31  48  68  88 113 144 177 213 255
#     4  10  20  32  47  68  92 116 142 174 214 259
#     4  10  20  33  47  65  89 116 146 179 218 262
#     4  10  18  27  42  66  92 117 147 181 218 261
#
# _framework density 15.919067999999999
#
# number of rings (size 3 to 8) (size 9 to 14) (size 15 to 20)
#    0.000    2.846    0.000    4.154    0.000    6.154 
#    0.000    0.000    0.000    0.462    0.000    5.923 
#    0.000    8.615    0.000    0.000    0.000    0.000 
#
# Total GULP energy -644561.907211 kJ/mol
# GULP energy per Si atom -12395.421293 kJ/mol
# Density = 1.588284 g / cm^3
# Si number density = 15.919068 Si / 1000 Ang^3
#
#
#
# Elastic Constant Matrix: (Units=GPa)
#
#
# Indices 1 2 3 4 5 6 
#
# 1 55.3336 39.1616 41.8292 0.0000 0.0000 0.0000
# 2 39.1616 118.3872 63.5270 0.0000 0.0000 0.0000
# 3 41.8292 63.5270 114.6591 0.0000 0.0000 0.0000
# 4 0.0000 0.0000 0.0000 23.5972 0.0000 0.0000
# 5 0.0000 0.0000 0.0000 0.0000 12.8723 0.0000
# 6 0.0000 0.0000 0.0000 0.0000 0.0000 22.8948
#
#
#
# Elastic Compliance Matrix: (Units=1/GPa)
#
#
# Indices 1 2 3 4 5 6 
#
# 1 0.027026 -0.005193 -0.006982 0.000000 0.000000 0.000000
# 2 -0.005193 0.013019 -0.005318 0.000000 0.000000 0.000000
# 3 -0.006982 -0.005318 0.014215 0.000000 0.000000 0.000000
# 4 0.000000 0.000000 0.000000 0.042378 0.000000 0.000000
# 5 0.000000 0.000000 0.000000 0.000000 0.077686 0.000000
# 6 0.000000 0.000000 0.000000 0.000000 0.000000 0.043678
#
#
# Mechanical properties :
#
#
# Convention : Reuss Voigt Hill
#
# Bulk Modulus (GPa) = 51.88812 64.15728 58.02270
# Shear Modulus (GPa) = 19.27427 21.46367 20.36897
#
# Velocity S-wave (km/s) = 3.48338 3.67590 3.58094
# Velocity P-wave (km/s) = 6.98887 7.64238 7.32292
#
# Compressibility (1/GPa) = 0.01927223
#
# Stress axis : x y z
#
# Youngs Moduli (GPa) = 37.00174 76.81281 70.34679
#
# Poissons Ratio (x) = 0.39892 0.49116
# Poissons Ratio (y) = 0.19216 0.37413
# Poissons Ratio (z) = 0.25835 0.40852
#
# Static dielectric constant tensor:
#      x y z
#    x 2.883850 0.000000 0.000000 
#    y 0.000000 2.939610 0.000000 
#    z 0.000000 0.000000 3.194670 
# 
# 
# High freq. dielectric constant tensor:
#      x y z
#    x 1.599500 0.000000 0.000000 
#    y 0.000000 1.593730 0.000000 
#    z 0.000000 0.000000 1.606670 
# 
# From -- ./inp_files/73737.got.cif
#   From: 2010.03.12/outbox.cif.g09.slc.cpg/sg65_37_cif.got.tgz:73737.got - 2010.04.10 20:52:16.
