data_PCOD8265323
_publ_section_title
;
Structure prediction by ZEFSAII (Michael W. Deem and Ramdas Pophale) SiO2 
 PCOD8265323
Probable space group: C M M M
;
_chemical_formula_sum "Si O2"
_cell_formula_units_Z 80
_cell_length_a 14.467515
_cell_length_b 27.487292
_cell_length_c 13.528462
_cell_angle_alpha 90.000000
_cell_angle_beta 90.000000
_cell_angle_gamma 90.000000
_cell_volume 5379.901489
_symmetry_space_group_name_H-M "C M M M"
_symmetry_group_IT_number 65
_symmetry_cell_setting 'orthorhombic'
loop_
_space_group_symop_operation_xyz
x,y,z
-x,-y,z
x,-y,-z
-x,y,-z
-x,-y,-z
x,y,-z
-x,y,z
x,-y,z
1/2+x,1/2+y,z
1/2-x,1/2-y,z
1/2+x,1/2-y,-z
1/2-x,1/2+y,-z
1/2-x,1/2-y,-z
1/2+x,1/2+y,-z
1/2-x,1/2+y,z
1/2+x,1/2-y,z
loop_
_atom_site_type_symbol
_atom_site_label
_atom_site_fract_x
_atom_site_fract_y
_atom_site_fract_z
Si Si1 0.157550 0.141658 0.240130
Si Si2 0.315090 0.791578 0.719590
Si Si3 0.107914 0.055566 0.887183
Si Si4 0.000000 0.724364 0.614539
Si Si5 0.106316 0.767710 0.888579
Si Si6 0.000000 0.161529 0.383563
O O1 0.259739 0.157668 0.275636
O O2 0.165752 0.089639 0.186661
O O3 0.116438 0.180061 0.162620
O O4 0.091214 0.137874 0.335651
O O5 0.250000 0.750000 0.668334
O O6 0.408310 0.800213 0.658629
O O7 0.336921 0.773654 0.830837
O O8 0.000000 0.067476 0.874709
O O9 0.128727 0.000000 0.858041
O O10 0.138295 0.065335 0.000000
O O11 0.000000 0.781162 0.640786
O O12 0.000000 0.713719 0.500000
O O13 0.000000 0.752107 0.886555
O O14 0.144127 0.770724 0.000000
O O15 0.000000 0.150865 0.500000
#
# Coordination Sequence:
#
# PCOD8265323 Si02
#       6
#    16  16  16   8  16   8
#     4  11  18  30  46  65  92 121 154 185 225 272
#     4  10  19  30  43  66  89 121 157 187 223 271
#     4   9  17  29  48  73  97 122 151 183 224 274
#     4  11  20  34  46  61  94 125 157 200 231 256
#     4  10  17  27  42  60  89 122 148 178 217 264
#     4  11  20  30  45  65  92 122 156 194 227 264
#
# _framework density 14.87016
#
# number of rings (size 3 to 8) (size 9 to 14) (size 15 to 20)
#    0.000    1.800    7.000    1.200    0.000    7.200 
#    0.000    0.000    0.000    1.200    0.000    0.700 
#    0.000    2.400    0.000    0.000    0.000    0.000 
#
# Total GULP energy -495994.841414 kJ/mol
# GULP energy per Si atom -12399.871035 kJ/mol
# Density = 1.483632 g / cm^3
# Si number density = 14.870160 Si / 1000 Ang^3
#
#
#
# Elastic Constant Matrix: (Units=GPa)
#
#
# Indices 1 2 3 4 5 6 
#
# 1 95.7849 35.6017 43.0491 0.0000 0.0000 0.0000
# 2 35.6017 76.9840 38.1381 0.0000 0.0000 0.0000
# 3 43.0491 38.1381 93.1909 0.0000 0.0000 0.0000
# 4 0.0000 0.0000 0.0000 17.9678 0.0000 0.0000
# 5 0.0000 0.0000 0.0000 0.0000 9.0182 0.0000
# 6 0.0000 0.0000 0.0000 0.0000 0.0000 16.6957
#
#
#
# Elastic Compliance Matrix: (Units=1/GPa)
#
#
# Indices 1 2 3 4 5 6 
#
# 1 0.014158 -0.004149 -0.004843 0.000000 0.000000 0.000000
# 2 -0.004149 0.017509 -0.005249 0.000000 0.000000 0.000000
# 3 -0.004843 -0.005249 0.015116 0.000000 0.000000 0.000000
# 4 0.000000 0.000000 0.000000 0.055655 0.000000 0.000000
# 5 0.000000 0.000000 0.000000 0.000000 0.110887 0.000000
# 6 0.000000 0.000000 0.000000 0.000000 0.000000 0.059896
#
#
# Mechanical properties :
#
#
# Convention : Reuss Voigt Hill
#
# Bulk Modulus (GPa) = 54.63719 55.50418 55.07069
# Shear Modulus (GPa) = 16.24423 18.68106 17.46265
#
# Velocity S-wave (km/s) = 3.30874 3.54825 3.43058
# Velocity P-wave (km/s) = 7.17075 7.36163 7.26682
#
# Compressibility (1/GPa) = 0.01830255
#
# Stress axis : x y z
#
# Youngs Moduli (GPa) = 70.62906 57.11477 66.15590
#
# Poissons Ratio (x) = 0.23695 0.32037
# Poissons Ratio (y) = 0.29301 0.34725
# Poissons Ratio (z) = 0.34203 0.29979
#
# Static dielectric constant tensor:
#      x y z
#    x 2.895090 0.000000 0.000000 
#    y 0.000000 2.584090 0.000000 
#    z 0.000000 0.000000 2.903080 
# 
# 
# High freq. dielectric constant tensor:
#      x y z
#    x 1.562850 0.000000 0.000000 
#    y 0.000000 1.524380 0.000000 
#    z 0.000000 0.000000 1.570670 
# 
# From -- ./inp_files/41213.got.cif
#   From: 2010.03.12/outbox.cif.g09.slc.cpg/sg65_21_cif.got.tgz:41213.got - 2010.04.10 20:52:16.
