data_PCOD8265097
_publ_section_title
;
Structure prediction by ZEFSAII (Michael W. Deem and Ramdas Pophale) SiO2 
 PCOD8265097
Probable space group: C M M M
;
_chemical_formula_sum "Si O2"
_cell_formula_units_Z 72
_cell_length_a 19.029764
_cell_length_b 8.882507
_cell_length_c 23.143354
_cell_angle_alpha 90.000000
_cell_angle_beta 90.000000
_cell_angle_gamma 90.000000
_cell_volume 3911.967690
_symmetry_space_group_name_H-M "C M M M"
_symmetry_group_IT_number 65
_symmetry_cell_setting 'orthorhombic'
loop_
_space_group_symop_operation_xyz
x,y,z
-x,-y,z
x,-y,-z
-x,y,-z
-x,-y,-z
x,y,-z
-x,y,z
x,-y,z
1/2+x,1/2+y,z
1/2-x,1/2-y,z
1/2+x,1/2-y,-z
1/2-x,1/2+y,-z
1/2-x,1/2-y,-z
1/2+x,1/2+y,-z
1/2-x,1/2+y,z
1/2+x,1/2-y,z
loop_
_atom_site_type_symbol
_atom_site_label
_atom_site_fract_x
_atom_site_fract_y
_atom_site_fract_z
Si Si1 0.919675 0.677983 0.157063
Si Si2 0.674319 0.823948 0.611343
Si Si3 0.822098 0.176052 0.933104
Si Si4 0.325116 0.175050 0.261724
Si Si5 0.328060 0.678990 0.500000
O O1 0.912955 0.500000 0.149767
O O2 0.887684 0.756222 0.100859
O O3 0.879640 0.736205 0.214346
O O4 0.000000 0.729206 0.162731
O O5 0.750000 0.750000 0.615599
O O6 0.640264 0.795578 0.674598
O O7 0.633167 0.740813 0.558348
O O8 0.680309 0.000000 0.596863
O O9 0.750000 0.250000 0.910435
O O10 0.816729 0.000000 0.921650
O O11 0.834378 0.214813 0.000000
O O12 0.250000 0.250000 0.252799
O O13 0.311424 0.000000 0.253194
O O14 0.326553 0.500000 0.500000
O O15 0.250000 0.750000 0.500000
#
# Coordination Sequence:
#
# PCOD8265097 Si02
#       5
#    16  16  16  16   8
#     4  10  21  36  53  75 104 136 169 206 250 297
#     4   9  15  24  38  58  86 118 152 190 236 287
#     4  10  21  37  57  80 105 133 167 206 247 294
#     4   9  18  31  48  70  95 126 163 203 245 291
#     4  10  16  22  34  56  87 118 149 187 235 287
#
# _framework density 18.405061
#
# number of rings (size 3 to 8) (size 9 to 14) (size 15 to 20)
#    0.000    2.444    0.000    4.333    0.000    5.778 
#    0.000    2.222    0.000    0.000    0.000    0.778 
#    0.000    6.222    0.000    0.000    0.000    0.000 
#
# Total GULP energy -446182.280889 kJ/mol
# GULP energy per Si atom -12393.952247 kJ/mol
# Density = 1.836317 g / cm^3
# Si number density = 18.405061 Si / 1000 Ang^3
#
#
#
# Elastic Constant Matrix: (Units=GPa)
#
#
# Indices 1 2 3 4 5 6 
#
# 1 95.8255 37.7178 68.8385 0.0000 0.0000 0.0000
# 2 37.7178 82.2376 53.7880 0.0000 0.0000 0.0000
# 3 68.8385 53.7880 138.9473 0.0000 0.0000 0.0000
# 4 0.0000 0.0000 0.0000 29.6186 0.0000 0.0000
# 5 0.0000 0.0000 0.0000 0.0000 5.8081 0.0000
# 6 0.0000 0.0000 0.0000 0.0000 0.0000 19.2983
#
#
#
# Elastic Compliance Matrix: (Units=1/GPa)
#
#
# Indices 1 2 3 4 5 6 
#
# 1 0.016743 -0.003018 -0.007127 0.000000 0.000000 0.000000
# 2 -0.003018 0.016826 -0.005019 0.000000 0.000000 0.000000
# 3 -0.007127 -0.005019 0.012671 0.000000 0.000000 0.000000
# 4 0.000000 0.000000 0.000000 0.033763 0.000000 0.000000
# 5 0.000000 0.000000 0.000000 0.000000 0.172173 0.000000
# 6 0.000000 0.000000 0.000000 0.000000 0.000000 0.051818
#
#
# Mechanical properties :
#
#
# Convention : Reuss Voigt Hill
#
# Bulk Modulus (GPa) = 62.83882 70.85542 66.84712
# Shear Modulus (GPa) = 14.72211 21.38940 18.05575
#
# Velocity S-wave (km/s) = 2.83131 3.41273 3.13552
# Velocity P-wave (km/s) = 6.70110 7.35597 7.03616
#
# Compressibility (1/GPa) = 0.01591373
#
# Stress axis : x y z
#
# Youngs Moduli (GPa) = 59.72565 59.43037 78.92304
#
# Poissons Ratio (x) = 0.17935 0.56247
# Poissons Ratio (y) = 0.18024 0.39608
# Poissons Ratio (z) = 0.42566 0.29826
#
# Static dielectric constant tensor:
#      x y z
#    x 2.973840 0.000000 0.000000 
#    y 0.000000 3.572790 0.000000 
#    z 0.000000 0.000000 4.521010 
# 
# 
# High freq. dielectric constant tensor:
#      x y z
#    x 1.654900 0.000000 0.000000 
#    y 0.000000 1.718870 0.000000 
#    z 0.000000 0.000000 1.743840 
# 
# From -- ./inp_files/70354.got.cif
#   From: 2010.03.12/outbox.cif.g09.slc.cpg/sg65_36_cif.got.tgz:70354.got - 2010.04.10 20:52:16.
