data_PCOD8265706
_publ_section_title
;
Structure prediction by ZEFSAII (Michael W. Deem and Ramdas Pophale) SiO2 
 PCOD8265706
Probable space group: C M M M
;
_chemical_formula_sum "Si O2"
_cell_formula_units_Z 80
_cell_length_a 10.411923
_cell_length_b 27.270871
_cell_length_c 19.010610
_cell_angle_alpha 90.000000
_cell_angle_beta 90.000000
_cell_angle_gamma 90.000000
_cell_volume 5397.914598
_symmetry_space_group_name_H-M "C M M M"
_symmetry_group_IT_number 65
_symmetry_cell_setting 'orthorhombic'
loop_
_space_group_symop_operation_xyz
x,y,z
-x,-y,z
x,-y,-z
-x,y,-z
-x,-y,-z
x,y,-z
-x,y,z
x,-y,z
1/2+x,1/2+y,z
1/2-x,1/2-y,z
1/2+x,1/2-y,-z
1/2-x,1/2+y,-z
1/2-x,1/2-y,-z
1/2+x,1/2+y,-z
1/2-x,1/2+y,z
1/2+x,1/2-y,z
loop_
_atom_site_type_symbol
_atom_site_label
_atom_site_fract_x
_atom_site_fract_y
_atom_site_fract_z
Si Si1 0.500000 0.864699 0.083149
Si Si2 0.750117 0.695244 0.916710
Si Si3 0.000000 0.558433 0.799940
Si Si4 0.247381 0.941938 0.279416
Si Si5 0.500000 0.637732 0.916871
Si Si6 0.500000 0.557669 0.192173
Si Si7 0.354700 0.441649 0.576755
O O1 0.376591 0.833693 0.107249
O O2 0.500000 0.916598 0.123402
O O3 0.500000 0.876120 0.000000
O O4 0.750000 0.750000 0.884166
O O5 0.624159 0.667192 0.889924
O O6 0.746928 0.699103 0.000000
O O7 0.122769 0.577495 0.756136
O O8 0.000000 0.500000 0.811986
O O9 0.233931 0.921326 0.359540
O O10 0.124721 0.924911 0.234889
O O11 0.252136 0.000000 0.281753
O O12 0.500000 0.583924 0.883149
O O13 0.500000 0.629978 0.000000
O O14 0.500000 0.500000 0.177436
O O15 0.302426 0.424007 0.500000
O O16 0.500000 0.422564 0.587632
O O17 0.356064 0.500000 0.579299
#
# Coordination Sequence:
#
# PCOD8265706 Si02
#       7
#     8  16   8  16   8   8  16
#     4  10  19  31  46  62  80 108 146 179 210 250
#     4   9  17  30  47  64  80  97 124 170 223 267
#     4  10  20  30  40  56  84 118 149 178 202 234
#     4   9  16  27  39  54  76 107 143 174 205 240
#     4  10  19  29  42  62  82 102 136 175 208 246
#     4  10  18  28  42  56  78 112 145 172 200 236
#     4   8  12  20  37  58  75  95 133 180 211 235
#
# _framework density 14.820538000000001
#
# number of rings (size 3 to 8) (size 9 to 14) (size 15 to 20)
#    0.000    2.800    1.000    2.400    0.000    2.800 
#    0.000    0.500    0.000   10.200    0.000    0.000 
#    0.000    0.000    0.000    0.000    0.000   70.000 
#
# Total GULP energy -495744.561611 kJ/mol
# GULP energy per Si atom -12393.614040 kJ/mol
# Density = 1.478681 g / cm^3
# Si number density = 14.820538 Si / 1000 Ang^3
#
#
#
# Elastic Constant Matrix: (Units=GPa)
#
#
# Indices 1 2 3 4 5 6 
#
# 1 128.7369 33.3174 47.2094 0.0000 0.0000 0.0000
# 2 33.3174 51.8036 39.0492 0.0000 0.0000 0.0000
# 3 47.2094 39.0492 89.4847 0.0000 0.0000 0.0000
# 4 0.0000 0.0000 0.0000 3.1449 0.0000 0.0000
# 5 0.0000 0.0000 0.0000 0.0000 12.6247 0.0000
# 6 0.0000 0.0000 0.0000 0.0000 0.0000 10.7938
#
#
#
# Elastic Compliance Matrix: (Units=1/GPa)
#
#
# Indices 1 2 3 4 5 6 
#
# 1 0.010083 -0.003688 -0.003710 0.000000 0.000000 0.000000
# 2 -0.003688 0.030115 -0.011196 0.000000 0.000000 0.000000
# 3 -0.003710 -0.011196 0.018018 0.000000 0.000000 0.000000
# 4 0.000000 0.000000 0.000000 0.317976 0.000000 0.000000
# 5 0.000000 0.000000 0.000000 0.000000 0.079210 0.000000
# 6 0.000000 0.000000 0.000000 0.000000 0.000000 0.092646
#
#
# Mechanical properties :
#
#
# Convention : Reuss Voigt Hill
#
# Bulk Modulus (GPa) = 47.55574 56.57523 52.06549
# Shear Modulus (GPa) = 8.44247 15.34263 11.89255
#
# Velocity S-wave (km/s) = 2.38932 3.22099 2.83580
# Velocity P-wave (km/s) = 6.30628 7.21730 6.77711
#
# Compressibility (1/GPa) = 0.02102796
#
# Stress axis : x y z
#
# Youngs Moduli (GPa) = 99.17909 33.20602 55.50031
#
# Poissons Ratio (x) = 0.12247 0.20590
# Poissons Ratio (y) = 0.36579 0.62137
# Poissons Ratio (z) = 0.36795 0.37177
#
# Static dielectric constant tensor:
#      x y z
#    x 3.164360 0.000000 0.000000 
#    y 0.000000 2.525370 0.000000 
#    z 0.000000 0.000000 2.940320 
# 
# 
# High freq. dielectric constant tensor:
#      x y z
#    x 1.577540 0.000000 0.000000 
#    y 0.000000 1.517160 0.000000 
#    z 0.000000 0.000000 1.552540 
# 
# From -- ./inp_files/50267.got.cif
#   From: 2010.03.12/outbox.cif.g09.slc.cpg/sg65_26_cif.got.tgz:50267.got - 2010.04.10 20:52:16.
