data_PCOD8265336
_publ_section_title
;
Structure prediction by ZEFSAII (Michael W. Deem and Ramdas Pophale) SiO2 
 PCOD8265336
Probable space group: C M M M
;
_chemical_formula_sum "Si O2"
_cell_formula_units_Z 120
_cell_length_a 24.905603
_cell_length_b 23.070608
_cell_length_c 13.145598
_cell_angle_alpha 90.000000
_cell_angle_beta 90.000000
_cell_angle_gamma 90.000000
_cell_volume 7553.295026
_symmetry_space_group_name_H-M "C M M M"
_symmetry_group_IT_number 65
_symmetry_cell_setting 'orthorhombic'
loop_
_space_group_symop_operation_xyz
x,y,z
-x,-y,z
x,-y,-z
-x,y,-z
-x,-y,-z
x,y,-z
-x,y,z
x,-y,z
1/2+x,1/2+y,z
1/2-x,1/2-y,z
1/2+x,1/2-y,-z
1/2-x,1/2+y,-z
1/2-x,1/2-y,-z
1/2+x,1/2+y,-z
1/2-x,1/2+y,z
1/2+x,1/2-y,z
loop_
_atom_site_type_symbol
_atom_site_label
_atom_site_fract_x
_atom_site_fract_y
_atom_site_fract_z
Si Si1 0.891083 0.432855 0.779326
Si Si2 0.441928 0.329106 0.380274
Si Si3 0.376246 0.435401 0.618346
Si Si4 0.335359 0.269682 0.379782
Si Si5 0.224586 0.122224 0.702443
Si Si6 0.000000 0.431211 0.113942
Si Si7 0.779975 0.566693 0.116869
Si Si8 0.333959 0.862286 0.616164
O O1 0.896029 0.500000 0.746844
O O2 0.946494 0.409898 0.828125
O O3 0.842890 0.423732 0.859239
O O4 0.880118 0.394630 0.679146
O O5 0.449088 0.330410 0.500000
O O6 0.500000 0.314721 0.329818
O O7 0.422484 0.392350 0.342032
O O8 0.397296 0.282054 0.350186
O O9 0.364679 0.424014 0.500000
O O10 0.396439 0.500000 0.640476
O O11 0.320864 0.424040 0.676038
O O12 0.324443 0.280364 0.500000
O O13 0.296283 0.312086 0.316192
O O14 0.325393 0.203947 0.347124
O O15 0.242742 0.110808 0.818750
O O16 0.276199 0.107697 0.632087
O O17 0.000000 0.500000 0.107163
O O18 0.000000 0.405019 0.000000
O O19 0.764305 0.500000 0.140754
O O20 0.769929 0.582137 0.000000
O O21 0.352614 0.864898 0.500000
#
# Coordination Sequence:
#
# PCOD8265336 Si02
#       8
#    16  16  16  16  16   8  16  16
#     4   9  18  31  47  68  90 112 144 186 227 271
#     4   8  14  25  39  55  79 110 143 178 212 246
#     4   9  16  24  36  59  88 114 141 173 212 257
#     4   9  17  29  44  63  86 116 154 187 214 254
#     4  10  17  27  44  62  86 116 150 184 217 253
#     4   9  16  30  53  71  83 107 144 184 228 273
#     4   9  17  29  45  66  91 116 144 182 229 277
#     4  10  19  30  44  64  90 122 153 178 215 265
#
# _framework density 15.887105999999999
#
# number of rings (size 3 to 8) (size 9 to 14) (size 15 to 20)
#    0.000    2.867    0.000    3.200    0.000    3.733 
#    1.200    1.667    0.000    8.400    0.000    0.000 
#    0.000    5.200    0.000   29.333    0.000    0.533 
#
# Total GULP energy -743695.986203 kJ/mol
# GULP energy per Si atom -12394.933103 kJ/mol
# Density = 1.585095 g / cm^3
# Si number density = 15.887106 Si / 1000 Ang^3
#
#
#
# Elastic Constant Matrix: (Units=GPa)
#
#
# Indices 1 2 3 4 5 6 
#
# 1 107.8331 20.5702 40.6914 0.0000 0.0000 0.0000
# 2 20.5702 54.4322 38.7206 0.0000 0.0000 0.0000
# 3 40.6914 38.7206 81.5857 0.0000 0.0000 0.0000
# 4 0.0000 0.0000 0.0000 18.5826 0.0000 0.0000
# 5 0.0000 0.0000 0.0000 0.0000 19.6822 0.0000
# 6 0.0000 0.0000 0.0000 0.0000 0.0000 20.2967
#
#
#
# Elastic Compliance Matrix: (Units=1/GPa)
#
#
# Indices 1 2 3 4 5 6 
#
# 1 0.011429 -0.000399 -0.005511 0.000000 0.000000 0.000000
# 2 -0.000399 0.027749 -0.012971 0.000000 0.000000 0.000000
# 3 -0.005511 -0.012971 0.021162 0.000000 0.000000 0.000000
# 4 0.000000 0.000000 0.000000 0.053814 0.000000 0.000000
# 5 0.000000 0.000000 0.000000 0.000000 0.050807 0.000000
# 6 0.000000 0.000000 0.000000 0.000000 0.000000 0.049269
#
#
# Mechanical properties :
#
#
# Convention : Reuss Voigt Hill
#
# Bulk Modulus (GPa) = 44.28984 49.31283 46.80134
# Shear Modulus (GPa) = 19.26649 21.30356 20.28502
#
# Velocity S-wave (km/s) = 3.48618 3.66585 3.57714
# Velocity P-wave (km/s) = 6.64402 7.00177 6.82524
#
# Compressibility (1/GPa) = 0.02257854
#
# Stress axis : x y z
#
# Youngs Moduli (GPa) = 87.49405 36.03732 47.25516
#
# Poissons Ratio (x) = 0.01437 0.26043
# Poissons Ratio (y) = 0.03489 0.61294
# Poissons Ratio (z) = 0.48220 0.46743
#
# Static dielectric constant tensor:
#      x y z
#    x 3.555360 0.000000 0.000000 
#    y 0.000000 2.962930 0.000000 
#    z 0.000000 0.000000 2.717690 
# 
# 
# High freq. dielectric constant tensor:
#      x y z
#    x 1.615320 0.000000 0.000000 
#    y 0.000000 1.601210 0.000000 
#    z 0.000000 0.000000 1.569270 
# 
# From -- ./inp_files/31327.got.cif
#   From: 2010.03.12/outbox.cif.g09.slc.cpg/sg65_16_cif.got.tgz:31327.got - 2010.04.10 20:52:16.
