data_PCOD8265759
_publ_section_title
;
Structure prediction by ZEFSAII (Michael W. Deem and Ramdas Pophale) SiO2 
 PCOD8265759
Probable space group: C M M M
;
_chemical_formula_sum "Si O2"
_cell_formula_units_Z 88
_cell_length_a 17.599496
_cell_length_b 30.589434
_cell_length_c 11.845443
_cell_angle_alpha 90.000000
_cell_angle_beta 90.000000
_cell_angle_gamma 90.000000
_cell_volume 6377.096362
_symmetry_space_group_name_H-M "C M M M"
_symmetry_group_IT_number 65
_symmetry_cell_setting 'orthorhombic'
loop_
_space_group_symop_operation_xyz
x,y,z
-x,-y,z
x,-y,-z
-x,y,-z
-x,-y,-z
x,y,-z
-x,y,z
x,-y,z
1/2+x,1/2+y,z
1/2-x,1/2-y,z
1/2+x,1/2-y,-z
1/2-x,1/2+y,-z
1/2-x,1/2-y,-z
1/2+x,1/2+y,-z
1/2-x,1/2+y,z
1/2+x,1/2-y,z
loop_
_atom_site_type_symbol
_atom_site_label
_atom_site_fract_x
_atom_site_fract_y
_atom_site_fract_z
Si Si1 0.085356 0.854070 0.000000
Si Si2 0.199605 0.293426 0.623562
Si Si3 0.652810 0.663052 0.634147
Si Si4 0.590856 0.500000 0.128674
Si Si5 0.836357 0.232871 0.000000
Si Si6 0.586655 0.409638 0.223678
Si Si7 0.411264 0.254365 0.235226
O O1 0.154381 0.819609 0.000000
O O2 0.094660 0.883300 0.891126
O O3 0.000000 0.832197 0.000000
O O4 0.166923 0.303334 0.500000
O O5 0.250000 0.250000 0.623887
O O6 0.257266 0.331771 0.661724
O O7 0.127177 0.286996 0.702748
O O8 0.636964 0.668718 0.500000
O O9 0.631116 0.614578 0.675398
O O10 0.604892 0.699360 0.703260
O O11 0.500000 0.500000 0.121472
O O12 0.620204 0.457822 0.198557
O O13 0.622876 0.500000 0.000000
O O14 0.750000 0.250000 0.000000
O O15 0.878913 0.249439 0.889812
O O16 0.500000 0.413093 0.263368
O O17 0.500000 0.246355 0.233194
#
# Coordination Sequence:
#
# PCOD8265759 Si02
#       7
#     8  16  16   8   8  16  16
#     4  10  18  29  44  62  79 104 145 184 204 234
#     4   8  16  30  43  56  77 106 140 173 205 244
#     4  10  19  30  43  59  81 110 143 175 208 246
#     4   9  16  28  43  61  81 105 133 171 222 256
#     4  12  22  30  41  59  86 113 140 174 213 249
#     4  10  18  28  44  62  82 104 138 179 213 248
#     4  11  20  29  42  60  82 107 141 180 212 243
#
# _framework density 13.799383000000001
#
# number of rings (size 3 to 8) (size 9 to 14) (size 15 to 20)
#    0.000    2.091    2.727    4.636    0.000    2.545 
#    0.000    0.455    0.000    1.636    0.000    0.000 
#    0.000    0.000    0.000    0.818    0.000    9.909 
#
# Total GULP energy -545255.432880 kJ/mol
# GULP energy per Si atom -12392.168929 kJ/mol
# Density = 1.376798 g / cm^3
# Si number density = 13.799383 Si / 1000 Ang^3
#
#
#
# Elastic Constant Matrix: (Units=GPa)
#
#
# Indices 1 2 3 4 5 6 
#
# 1 91.5087 44.0621 51.6660 0.0000 0.0000 0.0000
# 2 44.0621 78.7150 35.5117 0.0000 0.0000 0.0000
# 3 51.6660 35.5117 90.7890 0.0000 0.0000 0.0000
# 4 0.0000 0.0000 0.0000 16.8839 0.0000 0.0000
# 5 0.0000 0.0000 0.0000 0.0000 13.2629 0.0000
# 6 0.0000 0.0000 0.0000 0.0000 0.0000 15.7095
#
#
#
# Elastic Compliance Matrix: (Units=1/GPa)
#
#
# Indices 1 2 3 4 5 6 
#
# 1 0.018751 -0.006900 -0.007972 0.000000 0.000000 0.000000
# 2 -0.006900 0.017965 -0.003100 0.000000 0.000000 0.000000
# 3 -0.007972 -0.003100 0.016764 0.000000 0.000000 0.000000
# 4 0.000000 0.000000 0.000000 0.059228 0.000000 0.000000
# 5 0.000000 0.000000 0.000000 0.000000 0.075398 0.000000
# 6 0.000000 0.000000 0.000000 0.000000 0.000000 0.063656
#
#
# Mechanical properties :
#
#
# Convention : Reuss Voigt Hill
#
# Bulk Modulus (GPa) = 57.02655 58.16582 57.59618
# Shear Modulus (GPa) = 17.03273 17.82278 17.42775
#
# Velocity S-wave (km/s) = 3.51709 3.59773 3.55764
# Velocity P-wave (km/s) = 7.60975 7.71367 7.66189
#
# Compressibility (1/GPa) = 0.01753569
#
# Stress axis : x y z
#
# Youngs Moduli (GPa) = 53.32960 55.66353 59.65146
#
# Poissons Ratio (x) = 0.38407 0.47555
# Poissons Ratio (y) = 0.36796 0.18495
# Poissons Ratio (z) = 0.42515 0.17258
#
# Static dielectric constant tensor:
#      x y z
#    x 2.704220 0.000000 0.000000 
#    y 0.000000 2.720670 0.000000 
#    z 0.000000 0.000000 2.746090 
# 
# 
# High freq. dielectric constant tensor:
#      x y z
#    x 1.498460 0.000000 0.000000 
#    y 0.000000 1.492850 0.000000 
#    z 0.000000 0.000000 1.542780 
# 
# From -- ./inp_files/27665.got.cif
#   From: 2010.03.12/outbox.cif.g09.slc.cpg/sg65_14_cif.got.tgz:27665.got - 2010.04.10 20:52:16.
