data_PCOD8265083
_publ_section_title
;
Structure prediction by ZEFSAII (Michael W. Deem and Ramdas Pophale) SiO2 
 PCOD8265083
Probable space group: C M M M
;
_chemical_formula_sum "Si O2"
_cell_formula_units_Z 104
_cell_length_a 27.799473
_cell_length_b 8.959637
_cell_length_c 26.895462
_cell_angle_alpha 90.000000
_cell_angle_beta 90.000000
_cell_angle_gamma 90.000000
_cell_volume 6698.938433
_symmetry_space_group_name_H-M "C M M M"
_symmetry_group_IT_number 65
_symmetry_cell_setting 'orthorhombic'
loop_
_space_group_symop_operation_xyz
x,y,z
-x,-y,z
x,-y,-z
-x,y,-z
-x,-y,-z
x,y,-z
-x,y,z
x,-y,z
1/2+x,1/2+y,z
1/2-x,1/2-y,z
1/2+x,1/2-y,-z
1/2-x,1/2+y,-z
1/2-x,1/2-y,-z
1/2+x,1/2+y,-z
1/2-x,1/2+y,z
1/2+x,1/2-y,z
loop_
_atom_site_type_symbol
_atom_site_label
_atom_site_fract_x
_atom_site_fract_y
_atom_site_fract_z
Si Si1 0.855317 0.674937 0.290893
Si Si2 0.392678 0.177813 0.554956
Si Si3 0.200224 0.674184 0.389098
Si Si4 0.698533 0.672430 0.204886
Si Si5 0.801096 0.826900 0.094767
Si Si6 0.553225 0.177735 0.349991
Si Si7 0.303388 0.821980 0.000000
O O1 0.856057 0.500000 0.279353
O O2 0.816472 0.713661 0.333284
O O3 0.841493 0.761544 0.241225
O O4 0.908174 0.730813 0.308765
O O5 0.404321 0.242244 0.500000
O O6 0.339795 0.231678 0.571989
O O7 0.431648 0.236565 0.595068
O O8 0.393648 0.000000 0.554222
O O9 0.207730 0.500000 0.394738
O O10 0.250000 0.750000 0.402413
O O11 0.707158 0.500000 0.217141
O O12 0.750000 0.750000 0.211856
O O13 0.675691 0.692315 0.149431
O O14 0.750000 0.750000 0.099546
O O15 0.795556 0.000000 0.080203
O O16 0.829733 0.740605 0.050178
O O17 0.500000 0.239596 0.336975
O O18 0.553610 0.000000 0.351217
O O19 0.250000 0.750000 0.000000
O O20 0.302614 0.000000 0.000000
#
# Coordination Sequence:
#
# PCOD8265083 Si02
#       7
#    16  16  16  16  16  16   8
#     4   9  17  28  41  57  79 104 129 163 203 241
#     4   8  14  24  37  55  79 102 125 158 197 234
#     4   9  17  27  38  54  76 103 132 159 192 233
#     4  10  19  28  40  58  80 107 139 172 203 237
#     4   9  16  25  35  49  71 100 134 170 203 231
#     4   8  14  25  41  60  79 100 128 160 198 245
#     4  10  16  22  34  50  70 100 137 172 201 230
#
# _framework density 15.524848
#
# number of rings (size 3 to 8) (size 9 to 14) (size 15 to 20)
#    0.000    3.077    0.000    4.846    0.000    4.308 
#    0.000    1.538    0.000    0.462    0.000    0.000 
#    0.000    0.000    0.000    7.462    0.000   20.846 
#
# Total GULP energy -644254.359350 kJ/mol
# GULP energy per Si atom -12389.506911 kJ/mol
# Density = 1.548951 g / cm^3
# Si number density = 15.524848 Si / 1000 Ang^3
#
#
#
# Elastic Constant Matrix: (Units=GPa)
#
#
# Indices 1 2 3 4 5 6 
#
# 1 87.0726 21.8353 44.4905 0.0000 0.0000 0.0000
# 2 21.8353 60.2811 46.1511 0.0000 0.0000 0.0000
# 3 44.4905 46.1511 130.2137 0.0000 0.0000 0.0000
# 4 0.0000 0.0000 0.0000 17.4188 0.0000 0.0000
# 5 0.0000 0.0000 0.0000 0.0000 9.2678 0.0000
# 6 0.0000 0.0000 0.0000 0.0000 0.0000 12.4377
#
#
#
# Elastic Compliance Matrix: (Units=1/GPa)
#
#
# Indices 1 2 3 4 5 6 
#
# 1 0.014078 -0.001944 -0.004121 0.000000 0.000000 0.000000
# 2 -0.001944 0.023035 -0.007500 0.000000 0.000000 0.000000
# 3 -0.004121 -0.007500 0.011746 0.000000 0.000000 0.000000
# 4 0.000000 0.000000 0.000000 0.057409 0.000000 0.000000
# 5 0.000000 0.000000 0.000000 0.000000 0.107900 0.000000
# 6 0.000000 0.000000 0.000000 0.000000 0.000000 0.080401
#
#
# Mechanical properties :
#
#
# Convention : Reuss Voigt Hill
#
# Bulk Modulus (GPa) = 46.02258 55.83569 50.92913
# Shear Modulus (GPa) = 15.20023 18.83089 17.01556
#
# Velocity S-wave (km/s) = 3.13244 3.48652 3.31421
# Velocity P-wave (km/s) = 6.54154 7.22850 6.89358
#
# Compressibility (1/GPa) = 0.02172847
#
# Stress axis : x y z
#
# Youngs Moduli (GPa) = 71.03349 43.41193 85.13672
#
# Poissons Ratio (x) = 0.08441 0.35084
# Poissons Ratio (y) = 0.13812 0.63852
# Poissons Ratio (z) = 0.29272 0.32558
#
# Static dielectric constant tensor:
#      x y z
#    x 3.555010 0.000000 0.000000 
#    y 0.000000 2.740760 0.000000 
#    z 0.000000 0.000000 3.703660 
# 
# 
# High freq. dielectric constant tensor:
#      x y z
#    x 1.548340 0.000000 0.000000 
#    y 0.000000 1.575680 0.000000 
#    z 0.000000 0.000000 1.606310 
# 
# From -- ./inp_files/76228.got.cif
#   From: 2010.03.12/outbox.cif.g09.slc.cpg/sg65_39_cif.got.tgz:76228.got - 2010.04.10 20:52:16.
