data_PCOD8265322
_publ_section_title
;
Structure prediction by ZEFSAII (Michael W. Deem and Ramdas Pophale) SiO2 
 PCOD8265322
Probable space group: C M M M
;
_chemical_formula_sum "Si O2"
_cell_formula_units_Z 128
_cell_length_a 21.839518
_cell_length_b 19.643407
_cell_length_c 17.786476
_cell_angle_alpha 90.000000
_cell_angle_beta 90.000000
_cell_angle_gamma 90.000000
_cell_volume 7630.443395
_symmetry_space_group_name_H-M "C M M M"
_symmetry_group_IT_number 65
_symmetry_cell_setting 'orthorhombic'
loop_
_space_group_symop_operation_xyz
x,y,z
-x,-y,z
x,-y,-z
-x,y,-z
-x,-y,-z
x,y,-z
-x,y,z
x,-y,z
1/2+x,1/2+y,z
1/2-x,1/2-y,z
1/2+x,1/2-y,-z
1/2-x,1/2+y,-z
1/2-x,1/2-y,-z
1/2+x,1/2+y,-z
1/2-x,1/2+y,z
1/2+x,1/2-y,z
loop_
_atom_site_type_symbol
_atom_site_label
_atom_site_fract_x
_atom_site_fract_y
_atom_site_fract_z
Si Si1 0.788754 0.578666 0.581254
Si Si2 0.368181 0.146337 0.692604
Si Si3 0.813059 0.579144 0.087444
Si Si4 0.931247 0.101571 0.415586
Si Si5 0.568401 0.761737 0.582310
Si Si6 0.932084 0.578675 0.823901
Si Si7 0.751892 0.669425 0.206005
Si Si8 0.681346 0.421937 0.687123
O O1 0.792120 0.615794 0.500000
O O2 0.783140 0.500000 0.567647
O O3 0.850366 0.591963 0.628713
O O4 0.727870 0.604183 0.623244
O O5 0.389325 0.214013 0.650318
O O6 0.421170 0.118791 0.746477
O O7 0.308164 0.161939 0.738883
O O8 0.798659 0.500000 0.105441
O O9 0.882320 0.597755 0.112840
O O10 0.764568 0.627227 0.129739
O O11 0.807307 0.595021 0.000000
O O12 0.911463 0.076450 0.500000
O O13 0.931895 0.181706 0.414409
O O14 0.886259 0.076449 0.349380
O O15 0.000000 0.074302 0.398117
O O16 0.592610 0.785592 0.500000
O O17 0.500000 0.790611 0.593957
O O18 0.926951 0.500000 0.803123
O O19 0.000000 0.597067 0.854412
O O20 0.750000 0.750000 0.187266
O O21 0.691669 0.632956 0.244271
O O22 0.696375 0.500000 0.714068
#
# Coordination Sequence:
#
# PCOD8265322 Si02
#       8
#    16  16  16  16  16  16  16  16
#     4   9  17  27  39  57  81 112 152 196 236 268
#     4  10  17  27  42  59  84 118 154 188 224 265
#     4   9  18  33  52  73  97 122 146 176 216 261
#     4   9  18  31  45  63  88 116 148 190 237 278
#     4   9  17  28  41  57  80 114 155 195 232 269
#     4   9  17  28  43  65  91 118 148 181 218 260
#     4  10  20  32  48  70  94 120 149 181 218 263
#     4  10  19  31  47  66  90 118 149 187 229 272
#
# _framework density 16.774909000000001
#
# number of rings (size 3 to 8) (size 9 to 14) (size 15 to 20)
#    0.000    2.625    0.000    3.375    0.000    4.500 
#    0.000    1.875    0.000    6.000    0.000    5.250 
#    0.000    0.500    0.000    2.625    0.000    0.000 
#
# Total GULP energy -792928.027998 kJ/mol
# GULP energy per Si atom -12389.500437 kJ/mol
# Density = 1.673673 g / cm^3
# Si number density = 16.774909 Si / 1000 Ang^3
#
#
#
# Elastic Constant Matrix: (Units=GPa)
#
#
# Indices 1 2 3 4 5 6 
#
# 1 61.6857 23.8655 36.0842 0.0000 0.0000 0.0000
# 2 23.8655 65.7538 43.1466 0.0000 0.0000 0.0000
# 3 36.0842 43.1466 103.4590 0.0000 0.0000 0.0000
# 4 0.0000 0.0000 0.0000 19.2941 0.0000 0.0000
# 5 0.0000 0.0000 0.0000 0.0000 11.2969 0.0000
# 6 0.0000 0.0000 0.0000 0.0000 0.0000 20.7894
#
#
#
# Elastic Compliance Matrix: (Units=1/GPa)
#
#
# Indices 1 2 3 4 5 6 
#
# 1 0.021065 -0.003889 -0.005725 0.000000 0.000000 0.000000
# 2 -0.003889 0.021656 -0.007675 0.000000 0.000000 0.000000
# 3 -0.005725 -0.007675 0.014863 0.000000 0.000000 0.000000
# 4 0.000000 0.000000 0.000000 0.051829 0.000000 0.000000
# 5 0.000000 0.000000 0.000000 0.000000 0.088520 0.000000
# 6 0.000000 0.000000 0.000000 0.000000 0.000000 0.048101
#
#
# Mechanical properties :
#
#
# Convention : Reuss Voigt Hill
#
# Bulk Modulus (GPa) = 43.46694 48.56569 46.01632
# Shear Modulus (GPa) = 17.34416 18.79622 18.07019
#
# Velocity S-wave (km/s) = 3.21897 3.35101 3.28566
# Velocity P-wave (km/s) = 6.30744 6.63224 6.47188
#
# Compressibility (1/GPa) = 0.02300599
#
# Stress axis : x y z
#
# Youngs Moduli (GPa) = 47.47267 46.17667 67.27980
#
# Poissons Ratio (x) = 0.17957 0.38519
# Poissons Ratio (y) = 0.18461 0.51638
# Poissons Ratio (z) = 0.27179 0.35441
#
# Static dielectric constant tensor:
#      x y z
#    x 3.290770 0.000000 0.000000 
#    y 0.000000 3.099180 0.000000 
#    z 0.000000 0.000000 3.323050 
# 
# 
# High freq. dielectric constant tensor:
#      x y z
#    x 1.635900 0.000000 0.000000 
#    y 0.000000 1.638880 0.000000 
#    z 0.000000 0.000000 1.629910 
# 
# From -- ./inp_files/55137.got.cif
#   From: 2010.03.12/outbox.cif.g09.slc.cpg/sg65_28_cif.got.tgz:55137.got - 2010.04.10 20:52:16.
