data_PCOD8265970
_publ_section_title
;
Structure prediction by ZEFSAII (Michael W. Deem and Ramdas Pophale) SiO2 
 PCOD8265970
Probable space group: C M M M
;
_chemical_formula_sum "Si O2"
_cell_formula_units_Z 104
_cell_length_a 14.565479
_cell_length_b 21.904228
_cell_length_c 19.005821
_cell_angle_alpha 90.000000
_cell_angle_beta 90.000000
_cell_angle_gamma 90.000000
_cell_volume 6063.723050
_symmetry_space_group_name_H-M "C M M M"
_symmetry_group_IT_number 65
_symmetry_cell_setting 'orthorhombic'
loop_
_space_group_symop_operation_xyz
x,y,z
-x,-y,z
x,-y,-z
-x,y,-z
-x,-y,-z
x,y,-z
-x,y,z
x,-y,z
1/2+x,1/2+y,z
1/2-x,1/2-y,z
1/2+x,1/2-y,-z
1/2-x,1/2+y,-z
1/2-x,1/2-y,-z
1/2+x,1/2+y,-z
1/2-x,1/2+y,z
1/2+x,1/2-y,z
loop_
_atom_site_type_symbol
_atom_site_label
_atom_site_fract_x
_atom_site_fract_y
_atom_site_fract_z
Si Si1 0.898708 0.364808 0.923295
Si Si2 0.109178 0.000000 0.077614
Si Si3 0.604839 0.386288 0.833570
Si Si4 0.217874 0.071486 0.708473
Si Si5 0.648027 0.731472 0.079741
Si Si6 0.895807 0.429178 0.213686
Si Si7 0.897324 0.927710 0.422120
O O1 0.910862 0.292591 0.910797
O O2 0.851255 0.396262 0.855612
O O3 0.000000 0.393622 0.927339
O O4 0.848851 0.376386 0.000000
O O5 0.144960 0.060758 0.116285
O O6 0.000000 0.000000 0.073242
O O7 0.152591 0.000000 0.000000
O O8 0.500000 0.400509 0.814105
O O9 0.662483 0.386604 0.762447
O O10 0.610719 0.320620 0.869742
O O11 0.327368 0.083417 0.720219
O O12 0.182936 0.093480 0.631655
O O13 0.194602 0.000000 0.720494
O O14 0.750000 0.750000 0.101277
O O15 0.642482 0.706495 0.000000
O O16 0.898221 0.500000 0.195590
O O17 0.000000 0.405924 0.231521
O O18 0.873795 0.901671 0.500000
O O19 0.000000 0.905299 0.399124
O O20 0.898277 0.000000 0.425281
#
# Coordination Sequence:
#
# PCOD8265970 Si02
#       7
#    16   8  16  16  16  16  16
#     4   9  17  30  46  61  79 109 153 202 247 284
#     4   9  18  30  42  60  90 126 160 189 224 280
#     4  11  20  30  46  68  93 123 157 193 237 286
#     4  10  18  29  45  65  95 124 152 188 234 283
#     4  10  20  32  45  60  84 119 160 201 239 278
#     4   9  18  31  47  66  89 119 157 201 249 293
#     4   8  14  25  43  67  93 122 152 179 215 273
#
# _framework density 17.15118
#
# number of rings (size 3 to 8) (size 9 to 14) (size 15 to 20)
#    0.000    2.538    0.769    2.769    0.000    2.462 
#    0.000    2.308    0.000    0.462    0.000    3.231 
#    0.000    5.538    0.000    7.692    0.000    3.231 
#
# Total GULP energy -644316.407792 kJ/mol
# GULP energy per Si atom -12390.700150 kJ/mol
# Density = 1.711214 g / cm^3
# Si number density = 17.151180 Si / 1000 Ang^3
#
#
#
# Elastic Constant Matrix: (Units=GPa)
#
#
# Indices 1 2 3 4 5 6 
#
# 1 84.8294 16.5929 57.5804 0.0000 0.0000 0.0000
# 2 16.5929 38.2770 26.8946 0.0000 0.0000 0.0000
# 3 57.5804 26.8946 118.9181 0.0000 0.0000 0.0000
# 4 0.0000 0.0000 0.0000 11.1762 0.0000 0.0000
# 5 0.0000 0.0000 0.0000 0.0000 26.3515 0.0000
# 6 0.0000 0.0000 0.0000 0.0000 0.0000 15.3158
#
#
#
# Elastic Compliance Matrix: (Units=1/GPa)
#
#
# Indices 1 2 3 4 5 6 
#
# 1 0.017683 -0.001961 -0.008118 0.000000 0.000000 0.000000
# 2 -0.001961 0.031279 -0.006124 0.000000 0.000000 0.000000
# 3 -0.008118 -0.006124 0.013725 0.000000 0.000000 0.000000
# 4 0.000000 0.000000 0.000000 0.089476 0.000000 0.000000
# 5 0.000000 0.000000 0.000000 0.000000 0.037949 0.000000
# 6 0.000000 0.000000 0.000000 0.000000 0.000000 0.065292
#
#
# Mechanical properties :
#
#
# Convention : Reuss Voigt Hill
#
# Bulk Modulus (GPa) = 33.02666 49.35115 41.18891
# Shear Modulus (GPa) = 16.78394 19.96580 18.37487
#
# Velocity S-wave (km/s) = 3.13163 3.41560 3.27670
# Velocity P-wave (km/s) = 5.68983 6.66272 6.19540
#
# Compressibility (1/GPa) = 0.03027857
#
# Stress axis : x y z
#
# Youngs Moduli (GPa) = 56.55287 31.97068 72.85863
#
# Poissons Ratio (x) = 0.06270 0.59150
# Poissons Ratio (y) = 0.11090 0.44622
# Poissons Ratio (z) = 0.45912 0.19580
#
# Static dielectric constant tensor:
#      x y z
#    x 3.288020 0.000000 0.000000 
#    y 0.000000 2.969730 0.000000 
#    z 0.000000 0.000000 3.286730 
# 
# 
# High freq. dielectric constant tensor:
#      x y z
#    x 1.663890 0.000000 0.000000 
#    y 0.000000 1.628330 0.000000 
#    z 0.000000 0.000000 1.635850 
# 
# From -- ./inp_files/53471.got.cif
#   From: 2010.03.12/outbox.cif.g09.slc.cpg/sg65_27_cif.got.tgz:53471.got - 2010.04.10 20:52:16.
