data_PCOD8265882
_publ_section_title
;
Structure prediction by ZEFSAII (Michael W. Deem and Ramdas Pophale) SiO2 
 PCOD8265882
Probable space group: C M M M
;
_chemical_formula_sum "Si O2"
_cell_formula_units_Z 96
_cell_length_a 30.722273
_cell_length_b 9.006268
_cell_length_c 19.774974
_cell_angle_alpha 90.000000
_cell_angle_beta 90.000000
_cell_angle_gamma 90.000000
_cell_volume 5471.597360
_symmetry_space_group_name_H-M "C M M M"
_symmetry_group_IT_number 65
_symmetry_cell_setting 'orthorhombic'
loop_
_space_group_symop_operation_xyz
x,y,z
-x,-y,z
x,-y,-z
-x,y,-z
-x,-y,-z
x,y,-z
-x,y,z
x,-y,z
1/2+x,1/2+y,z
1/2-x,1/2-y,z
1/2+x,1/2-y,-z
1/2-x,1/2+y,-z
1/2-x,1/2-y,-z
1/2+x,1/2+y,-z
1/2-x,1/2+y,z
1/2+x,1/2-y,z
loop_
_atom_site_type_symbol
_atom_site_label
_atom_site_fract_x
_atom_site_fract_y
_atom_site_fract_z
Si Si1 0.114555 0.823630 0.175985
Si Si2 0.548448 0.176257 0.575357
Si Si3 0.949743 0.330616 0.921760
Si Si4 0.380929 0.177275 0.682109
Si Si5 0.291899 0.333607 0.324589
Si Si6 0.709401 0.337677 0.164357
O O1 0.078198 0.783411 0.121755
O O2 0.104355 0.740727 0.245711
O O3 0.161793 0.769443 0.147458
O O4 0.115605 0.000000 0.189389
O O5 0.560507 0.233568 0.500000
O O6 0.500000 0.232723 0.595303
O O7 0.583320 0.236219 0.628965
O O8 0.549001 0.000000 0.575953
O O9 0.936834 0.500000 0.904494
O O10 0.000000 0.303320 0.904136
O O11 0.940826 0.296768 0.000000
O O12 0.334820 0.240658 0.657139
O O13 0.378078 0.000000 0.686224
O O14 0.295175 0.500000 0.355018
O O15 0.250000 0.250000 0.356180
O O16 0.286179 0.344100 0.244638
O O17 0.712657 0.500000 0.132084
O O18 0.750000 0.250000 0.132061
#
# Coordination Sequence:
#
# PCOD8265882 Si02
#       6
#    16  16  16  16  16  16
#     4  10  20  32  47  72 103 130 159 197 239 285
#     4   8  15  29  48  69  93 123 161 202 242 288
#     4   9  19  36  55  73  94 123 161 202 243 291
#     4  10  18  28  47  74 100 127 160 200 245 287
#     4   9  16  27  43  65  95 127 159 196 238 286
#     4   8  15  26  41  63  91 122 154 188 226 270
#
# _framework density 17.54515
#
# number of rings (size 3 to 8) (size 9 to 14) (size 15 to 20)
#    0.000    3.000    0.000    3.500    0.000    6.000 
#    0.000    2.500    0.000    4.500    0.000    4.667 
#    0.000    0.000    0.000    0.000    0.000    0.000 
#
# Total GULP energy -594930.101354 kJ/mol
# GULP energy per Si atom -12394.377112 kJ/mol
# Density = 1.750522 g / cm^3
# Si number density = 17.545150 Si / 1000 Ang^3
#
#
#
# Elastic Constant Matrix: (Units=GPa)
#
#
# Indices 1 2 3 4 5 6 
#
# 1 141.3641 52.1440 65.2044 0.0000 0.0000 0.0000
# 2 52.1440 80.0940 33.0072 0.0000 0.0000 0.0000
# 3 65.2044 33.0072 59.9225 0.0000 0.0000 0.0000
# 4 0.0000 0.0000 0.0000 7.9628 0.0000 0.0000
# 5 0.0000 0.0000 0.0000 0.0000 1.4969 0.0000
# 6 0.0000 0.0000 0.0000 0.0000 0.0000 29.6833
#
#
#
# Elastic Compliance Matrix: (Units=1/GPa)
#
#
# Indices 1 2 3 4 5 6 
#
# 1 0.015115 -0.003962 -0.014265 0.000000 0.000000 0.000000
# 2 -0.003962 0.017190 -0.005158 0.000000 0.000000 0.000000
# 3 -0.014265 -0.005158 0.035052 0.000000 0.000000 0.000000
# 4 0.000000 0.000000 0.000000 0.125583 0.000000 0.000000
# 5 0.000000 0.000000 0.000000 0.000000 0.668032 0.000000
# 6 0.000000 0.000000 0.000000 0.000000 0.000000 0.033689
#
#
# Mechanical properties :
#
#
# Convention : Reuss Voigt Hill
#
# Bulk Modulus (GPa) = 48.57309 64.67686 56.62497
# Shear Modulus (GPa) = 5.27263 16.56362 10.91812
#
# Velocity S-wave (km/s) = 1.73543 3.07588 2.49727
# Velocity P-wave (km/s) = 5.63563 7.03974 6.37645
#
# Compressibility (1/GPa) = 0.02058753
#
# Stress axis : x y z
#
# Youngs Moduli (GPa) = 66.15893 58.17285 28.52895
#
# Poissons Ratio (x) = 0.23046 0.40697
# Poissons Ratio (y) = 0.26210 0.14715
# Poissons Ratio (z) = 0.94377 0.30006
#
# Static dielectric constant tensor:
#      x y z
#    x 3.550690 0.000000 0.000000 
#    y 0.000000 3.226540 0.000000 
#    z 0.000000 0.000000 2.931730 
# 
# 
# High freq. dielectric constant tensor:
#      x y z
#    x 1.693210 0.000000 0.000000 
#    y 0.000000 1.670000 0.000000 
#    z 0.000000 0.000000 1.633710 
# 
# From -- ./inp_files/71667.got.cif
#   From: 2010.03.12/outbox.cif.g09.slc.cpg/sg65_36_cif.got.tgz:71667.got - 2010.04.10 20:52:16.
