data_PCOD8265525
_publ_section_title
;
Structure prediction by ZEFSAII (Michael W. Deem and Ramdas Pophale) SiO2 
 PCOD8265525
Probable space group: C M M M
;
_chemical_formula_sum "Si O2"
_cell_formula_units_Z 76
_cell_length_a 18.610501
_cell_length_b 13.255104
_cell_length_c 18.612967
_cell_angle_alpha 90.000000
_cell_angle_beta 90.000000
_cell_angle_gamma 90.000000
_cell_volume 4591.523501
_symmetry_space_group_name_H-M "C M M M"
_symmetry_group_IT_number 65
_symmetry_cell_setting 'orthorhombic'
loop_
_space_group_symop_operation_xyz
x,y,z
-x,-y,z
x,-y,-z
-x,y,-z
-x,-y,-z
x,y,-z
-x,y,z
x,-y,z
1/2+x,1/2+y,z
1/2-x,1/2-y,z
1/2+x,1/2-y,-z
1/2-x,1/2+y,-z
1/2-x,1/2-y,-z
1/2+x,1/2+y,-z
1/2-x,1/2+y,z
1/2+x,1/2-y,z
loop_
_atom_site_type_symbol
_atom_site_label
_atom_site_fract_x
_atom_site_fract_y
_atom_site_fract_z
Si Si1 0.000000 0.387111 0.757616
Si Si2 0.080903 0.380194 0.000000
Si Si3 0.859270 0.616585 0.150293
Si Si4 0.500000 0.338711 0.500000
Si Si5 0.250000 0.750000 0.762852
Si Si6 0.500000 0.706760 0.654300
Si Si7 0.846490 0.120077 0.342710
Si Si8 0.344482 0.391120 0.500000
O O1 0.068612 0.366650 0.805778
O O2 0.000000 0.315330 0.689820
O O3 0.000000 0.500000 0.726624
O O4 0.125312 0.344256 0.069647
O O5 0.073349 0.500000 0.000000
O O6 0.000000 0.334075 0.000000
O O7 0.835231 0.500000 0.150577
O O8 0.797299 0.682179 0.185111
O O9 0.500000 0.267369 0.569824
O O10 0.430427 0.409775 0.500000
O O11 0.203426 0.823816 0.713678
O O12 0.570513 0.643045 0.676099
O O13 0.825116 0.161952 0.423611
O O14 0.834157 0.000000 0.338160
O O15 0.306644 0.500000 0.500000
#
# Coordination Sequence:
#
# PCOD8265525 Si02
#       8
#     8   8  16   4   8   8  16   8
#     4  10  18  32  54  76  99 128 168 213 250 285
#     4   9  16  31  56  78  95 123 167 209 243 283
#     4  10  20  34  53  77 102 129 165 207 246 292
#     4   8  15  24  49  72  94 120 166 218 254 282
#     4  12  22  32  48  74 112 136 158 194 254 316
#     4  10  17  34  52  75  96 129 171 215 253 293
#     4  10  20  33  51  73  98 132 171 213 252 295
#     4   8  15  29  47  68  93 124 170 216 251 283
#
# _framework density 16.552240000000001
#
# number of rings (size 3 to 8) (size 9 to 14) (size 15 to 20)
#    0.000    2.211    3.158    1.105    0.000    3.368 
#    0.000    0.263    0.000    0.000    0.000    0.000 
#    0.000    3.368    0.000    0.000    0.000    0.000 
#
# Total GULP energy -470864.776304 kJ/mol
# GULP energy per Si atom -12391.178324 kJ/mol
# Density = 1.651457 g / cm^3
# Si number density = 16.552240 Si / 1000 Ang^3
#
#
#
# Elastic Constant Matrix: (Units=GPa)
#
#
# Indices 1 2 3 4 5 6 
#
# 1 106.6155 49.5254 68.2128 0.0000 0.0000 0.0000
# 2 49.5254 79.6508 67.2883 0.0000 0.0000 0.0000
# 3 68.2128 67.2883 144.0401 0.0000 0.0000 0.0000
# 4 0.0000 0.0000 0.0000 18.5461 0.0000 0.0000
# 5 0.0000 0.0000 0.0000 0.0000 31.8899 0.0000
# 6 0.0000 0.0000 0.0000 0.0000 0.0000 27.3820
#
#
#
# Elastic Compliance Matrix: (Units=1/GPa)
#
#
# Indices 1 2 3 4 5 6 
#
# 1 0.014740 -0.005398 -0.004458 0.000000 0.000000 0.000000
# 2 -0.005398 0.022717 -0.008056 0.000000 0.000000 0.000000
# 3 -0.004458 -0.008056 0.012817 0.000000 0.000000 0.000000
# 4 0.000000 0.000000 0.000000 0.053920 0.000000 0.000000
# 5 0.000000 0.000000 0.000000 0.000000 0.031358 0.000000
# 6 0.000000 0.000000 0.000000 0.000000 0.000000 0.036520
#
#
# Mechanical properties :
#
#
# Convention : Reuss Voigt Hill
#
# Bulk Modulus (GPa) = 69.21075 77.81771 73.51423
# Shear Modulus (GPa) = 23.50592 25.24893 24.37743
#
# Velocity S-wave (km/s) = 3.77252 3.90989 3.84181
# Velocity P-wave (km/s) = 7.80257 8.21574 8.01182
#
# Compressibility (1/GPa) = 0.01444862
#
# Stress axis : x y z
#
# Youngs Moduli (GPa) = 67.84412 44.02037 78.02138
#
# Poissons Ratio (x) = 0.23764 0.34785
# Poissons Ratio (y) = 0.36626 0.62851
# Poissons Ratio (z) = 0.30247 0.35461
#
# Static dielectric constant tensor:
#      x y z
#    x 3.129870 0.000000 0.000000 
#    y 0.000000 2.877620 0.000000 
#    z 0.000000 0.000000 3.383470 
# 
# 
# High freq. dielectric constant tensor:
#      x y z
#    x 1.634200 0.000000 0.000000 
#    y 0.000000 1.610630 0.000000 
#    z 0.000000 0.000000 1.648790 
# 
# From -- ./inp_files/54276.got.cif
#   From: 2010.03.12/outbox.cif.g09.slc.cpg/sg65_28_cif.got.tgz:54276.got - 2010.04.10 20:52:16.
