data_PCOD8265356
_publ_section_title
;
Structure prediction by ZEFSAII (Michael W. Deem and Ramdas Pophale) SiO2 
 PCOD8265356
Probable space group: C M M M
;
_chemical_formula_sum "Si O2"
_cell_formula_units_Z 104
_cell_length_a 23.401515
_cell_length_b 16.815058
_cell_length_c 14.336837
_cell_angle_alpha 90.000000
_cell_angle_beta 90.000000
_cell_angle_gamma 90.000000
_cell_volume 5641.514277
_symmetry_space_group_name_H-M "C M M M"
_symmetry_group_IT_number 65
_symmetry_cell_setting 'orthorhombic'
loop_
_space_group_symop_operation_xyz
x,y,z
-x,-y,z
x,-y,-z
-x,y,-z
-x,-y,-z
x,y,-z
-x,y,z
x,-y,z
1/2+x,1/2+y,z
1/2-x,1/2-y,z
1/2+x,1/2-y,-z
1/2-x,1/2+y,-z
1/2-x,1/2-y,-z
1/2+x,1/2+y,-z
1/2-x,1/2+y,z
1/2+x,1/2-y,z
loop_
_atom_site_type_symbol
_atom_site_label
_atom_site_fract_x
_atom_site_fract_y
_atom_site_fract_z
Si Si1 0.227465 0.336774 0.106141
Si Si2 0.000000 0.905095 0.394442
Si Si3 0.887355 0.095179 0.706518
Si Si4 0.346821 0.592224 0.100784
Si Si5 0.168071 0.594563 0.273042
Si Si6 0.563743 0.094512 0.395420
Si Si7 0.274917 0.405548 0.395843
O O1 0.250000 0.250000 0.133292
O O2 0.279632 0.397795 0.121359
O O3 0.175280 0.363358 0.172570
O O4 0.204629 0.338590 0.000000
O O5 0.055518 0.871431 0.341391
O O6 0.000000 0.872715 0.500000
O O7 0.000000 0.000000 0.394439
O O8 0.883918 0.127470 0.813516
O O9 0.832840 0.128037 0.650278
O O10 0.886965 0.000000 0.705798
O O11 0.360079 0.500000 0.093541
O O12 0.362425 0.632778 0.000000
O O13 0.166721 0.500000 0.259895
O O14 0.109928 0.626861 0.321082
O O15 0.220559 0.622971 0.337254
O O16 0.578034 0.125680 0.500000
O O17 0.500000 0.122753 0.365897
O O18 0.566817 0.000000 0.396873
O O19 0.269884 0.370654 0.500000
O O20 0.277089 0.500000 0.399096
#
# Coordination Sequence:
#
# PCOD8265356 Si02
#       7
#    16   8  16  16  16  16  16
#     4  10  20  32  46  67  93 121 153 191 236 285
#     4   9  16  24  35  55  87 121 148 178 220 271
#     4   9  15  24  37  58  86 116 146 179 221 268
#     4   9  16  28  46  66  88 113 143 183 229 274
#     4  10  17  27  46  72  97 122 157 195 234 279
#     4   8  14  25  43  71 105 133 156 188 231 280
#     4   9  15  22  36  61  89 114 144 182 219 259
#
# _framework density 18.434767000000001
#
# number of rings (size 3 to 8) (size 9 to 14) (size 15 to 20)
#    0.000    2.846    1.538    1.846    0.000    4.615 
#    0.000    0.385    0.000    4.615    2.000    2.154 
#    0.000    0.000    0.000    0.000    0.000    0.000 
#
# Total GULP energy -644471.362860 kJ/mol
# GULP energy per Si atom -12393.680055 kJ/mol
# Density = 1.839281 g / cm^3
# Si number density = 18.434767 Si / 1000 Ang^3
#
#
#
# Elastic Constant Matrix: (Units=GPa)
#
#
# Indices 1 2 3 4 5 6 
#
# 1 144.1607 13.3487 90.1046 0.0000 0.0000 0.0000
# 2 13.3487 12.6706 21.2594 0.0000 0.0000 0.0000
# 3 90.1046 21.2594 173.3474 0.0000 0.0000 0.0000
# 4 0.0000 0.0000 0.0000 9.0761 0.0000 0.0000
# 5 0.0000 0.0000 0.0000 0.0000 35.5518 0.0000
# 6 0.0000 0.0000 0.0000 0.0000 0.0000 6.3202
#
#
#
# Elastic Compliance Matrix: (Units=1/GPa)
#
#
# Indices 1 2 3 4 5 6 
#
# 1 0.010331 -0.002359 -0.005080 0.000000 0.000000 0.000000
# 2 -0.002359 0.099909 -0.011027 0.000000 0.000000 0.000000
# 3 -0.005080 -0.011027 0.009762 0.000000 0.000000 0.000000
# 4 0.000000 0.000000 0.000000 0.110180 0.000000 0.000000
# 5 0.000000 0.000000 0.000000 0.000000 0.028128 0.000000
# 6 0.000000 0.000000 0.000000 0.000000 0.000000 0.158223
#
#
# Mechanical properties :
#
#
# Convention : Reuss Voigt Hill
#
# Bulk Modulus (GPa) = 12.03817 64.40045 38.21931
# Shear Modulus (GPa) = 10.39168 23.88735 17.13951
#
# Velocity S-wave (km/s) = 2.37681 3.60360 3.05247
# Velocity P-wave (km/s) = 3.75188 7.23358 5.76200
#
# Compressibility (1/GPa) = 0.08306909
#
# Stress axis : x y z
#
# Youngs Moduli (GPa) = 96.80021 10.00909 102.43990
#
# Poissons Ratio (x) = 0.02361 0.52044
# Poissons Ratio (y) = 0.22837 1.12956
# Poissons Ratio (z) = 0.49178 0.11037
#
# Static dielectric constant tensor:
#      x y z
#    x 3.450390 0.000000 0.000000 
#    y 0.000000 2.763100 0.000000 
#    z 0.000000 0.000000 3.825070 
# 
# 
# High freq. dielectric constant tensor:
#      x y z
#    x 1.695590 0.000000 0.000000 
#    y 0.000000 1.654030 0.000000 
#    z 0.000000 0.000000 1.729990 
# 
# From -- ./inp_files/44595.got.cif
#   From: 2010.03.12/outbox.cif.g09.slc.cpg/sg65_23_cif.got.tgz:44595.got - 2010.04.10 20:52:16.
