data_PCOD8265708
_publ_section_title
;
Structure prediction by ZEFSAII (Michael W. Deem and Ramdas Pophale) SiO2 
 PCOD8265708
Probable space group: C M M M
;
_chemical_formula_sum "Si O2"
_cell_formula_units_Z 72
_cell_length_a 18.260382
_cell_length_b 31.326192
_cell_length_c 8.977537
_cell_angle_alpha 90.000000
_cell_angle_beta 90.000000
_cell_angle_gamma 90.000000
_cell_volume 5135.404623
_symmetry_space_group_name_H-M "C M M M"
_symmetry_group_IT_number 65
_symmetry_cell_setting 'orthorhombic'
loop_
_space_group_symop_operation_xyz
x,y,z
-x,-y,z
x,-y,-z
-x,y,-z
-x,-y,-z
x,y,-z
-x,y,z
x,-y,z
1/2+x,1/2+y,z
1/2-x,1/2-y,z
1/2+x,1/2-y,-z
1/2-x,1/2+y,-z
1/2-x,1/2-y,-z
1/2+x,1/2+y,-z
1/2-x,1/2+y,z
1/2+x,1/2-y,z
loop_
_atom_site_type_symbol
_atom_site_label
_atom_site_fract_x
_atom_site_fract_y
_atom_site_fract_z
Si Si1 0.336535 0.335920 0.674733
Si Si2 0.913021 0.000000 0.668024
Si Si3 0.708597 0.794616 0.832177
Si Si4 0.415071 0.414489 0.824841
Si Si5 0.083814 0.251487 0.673737
O O1 0.333660 0.345100 0.500000
O O2 0.254271 0.328356 0.734402
O O3 0.369225 0.376071 0.758388
O O4 0.387591 0.295634 0.713376
O O5 0.884521 0.958094 0.753189
O O6 0.882172 0.000000 0.500000
O O7 0.000000 0.000000 0.668873
O O8 0.750000 0.750000 0.829049
O O9 0.628424 0.787872 0.761636
O O10 0.700423 0.812007 0.000000
O O11 0.500000 0.407430 0.784245
O O12 0.402737 0.417020 0.000000
O O13 0.093962 0.260577 0.500000
O O14 0.000000 0.254614 0.724666
#
# Coordination Sequence:
#
# PCOD8265708 Si02
#       5
#    16   8  16  16  16
#     4  10  18  28  42  58  77 103 135 167 198 234
#     4   9  17  29  43  57  75 101 132 163 196 235
#     4   9  17  28  40  55  76 101 129 162 201 239
#     4  10  19  29  41  58  80 104 131 165 202 236
#     4   9  17  28  41  57  77 102 133 167 200 235
#
# _framework density 14.020315999999999
#
# number of rings (size 3 to 8) (size 9 to 14) (size 15 to 20)
#    0.000    2.556    0.000    3.000    0.000    7.556 
#    0.000    0.000    0.000    0.000    0.000    0.000 
#    0.000    0.000    0.000    1.000    0.000   18.444 
#
# Total GULP energy -446416.840072 kJ/mol
# GULP energy per Si atom -12400.467780 kJ/mol
# Density = 1.398841 g / cm^3
# Si number density = 14.020316 Si / 1000 Ang^3
#
#
#
# Elastic Constant Matrix: (Units=GPa)
#
#
# Indices 1 2 3 4 5 6 
#
# 1 85.4240 41.3412 38.5952 0.0000 0.0000 0.0000
# 2 41.3412 73.4182 42.1291 0.0000 0.0000 0.0000
# 3 38.5952 42.1291 74.6225 0.0000 0.0000 0.0000
# 4 0.0000 0.0000 0.0000 26.1954 0.0000 0.0000
# 5 0.0000 0.0000 0.0000 0.0000 23.1625 0.0000
# 6 0.0000 0.0000 0.0000 0.0000 0.0000 14.8218
#
#
#
# Elastic Compliance Matrix: (Units=1/GPa)
#
#
# Indices 1 2 3 4 5 6 
#
# 1 0.017313 -0.006820 -0.005104 0.000000 0.000000 0.000000
# 2 -0.006820 0.022834 -0.009364 0.000000 0.000000 0.000000
# 3 -0.005104 -0.009364 0.021327 0.000000 0.000000 0.000000
# 4 0.000000 0.000000 0.000000 0.038175 0.000000 0.000000
# 5 0.000000 0.000000 0.000000 0.000000 0.043173 0.000000
# 6 0.000000 0.000000 0.000000 0.000000 0.000000 0.067468
#
#
# Mechanical properties :
#
#
# Convention : Reuss Voigt Hill
#
# Bulk Modulus (GPa) = 52.91491 53.06618 52.99054
# Shear Modulus (GPa) = 19.29270 20.26256 19.77763
#
# Velocity S-wave (km/s) = 3.71354 3.80574 3.75992
# Velocity P-wave (km/s) = 7.49738 7.56592 7.53173
#
# Compressibility (1/GPa) = 0.01889827
#
# Stress axis : x y z
#
# Youngs Moduli (GPa) = 57.76046 43.79418 46.88844
#
# Poissons Ratio (x) = 0.29867 0.23932
# Poissons Ratio (y) = 0.39392 0.43906
# Poissons Ratio (z) = 0.29481 0.41009
#
# Static dielectric constant tensor:
#      x y z
#    x 2.687070 0.000000 0.000000 
#    y 0.000000 2.618190 0.000000 
#    z 0.000000 0.000000 2.930580 
# 
# 
# High freq. dielectric constant tensor:
#      x y z
#    x 1.508490 0.000000 0.000000 
#    y 0.000000 1.507850 0.000000 
#    z 0.000000 0.000000 1.553830 
# 
# From -- ./inp_files/9439.got.cif
#   From: 2010.03.12/outbox.cif.g09.slc.cpg/sg65_5_cif.got.tgz:9439.got - 2010.04.10 20:52:16.
