data_PCOD8265974
_publ_section_title
;
Structure prediction by ZEFSAII (Michael W. Deem and Ramdas Pophale) SiO2 
 PCOD8265974
Probable space group: C M M M
;
_chemical_formula_sum "Si O2"
_cell_formula_units_Z 88
_cell_length_a 27.777652
_cell_length_b 11.916300
_cell_length_c 17.586722
_cell_angle_alpha 90.000000
_cell_angle_beta 90.000000
_cell_angle_gamma 90.000000
_cell_volume 5821.325179
_symmetry_space_group_name_H-M "C M M M"
_symmetry_group_IT_number 65
_symmetry_cell_setting 'orthorhombic'
loop_
_space_group_symop_operation_xyz
x,y,z
-x,-y,z
x,-y,-z
-x,y,-z
-x,-y,-z
x,y,-z
-x,y,z
x,-y,z
1/2+x,1/2+y,z
1/2-x,1/2-y,z
1/2+x,1/2-y,-z
1/2-x,1/2+y,-z
1/2-x,1/2-y,-z
1/2+x,1/2+y,-z
1/2-x,1/2+y,z
1/2+x,1/2-y,z
loop_
_atom_site_type_symbol
_atom_site_label
_atom_site_fract_x
_atom_site_fract_y
_atom_site_fract_z
Si Si1 0.305036 0.231591 0.589996
Si Si2 0.057092 0.374520 0.916439
Si Si3 0.349242 0.000000 0.411262
Si Si4 0.946062 0.866497 0.500000
Si Si5 0.444861 0.773546 0.236276
Si Si6 0.946585 0.500000 0.329088
Si Si7 0.389126 0.632733 0.352823
O O1 0.312972 0.246025 0.500000
O O2 0.250000 0.250000 0.612650
O O3 0.334723 0.326573 0.634737
O O4 0.322739 0.110588 0.620755
O O5 0.078468 0.500000 0.905180
O O6 0.074801 0.290337 0.850094
O O7 0.000000 0.383258 0.910129
O O8 0.072376 0.328177 0.000000
O O9 0.342476 0.000000 0.500000
O O10 0.405934 0.000000 0.393500
O O11 0.920048 0.821143 0.575530
O O12 0.000000 0.818163 0.500000
O O13 0.945788 0.000000 0.500000
O O14 0.500000 0.730676 0.237842
O O15 0.439867 0.892324 0.276913
O O16 0.411602 0.680812 0.275673
O O17 0.000000 0.500000 0.366858
O O18 0.389821 0.500000 0.347407
#
# Coordination Sequence:
#
# PCOD8265974 Si02
#       7
#    16  16   8   8  16   8  16
#     4  10  21  35  51  67  87 116 154 203 249 283
#     4   8  13  23  42  67  92 120 156 192 227 273
#     4  10  20  35  48  67  91 120 160 195 237 289
#     4   9  18  32  45  59  83 119 163 202 225 256
#     4  10  18  29  45  66  96 127 155 191 234 274
#     4  10  18  29  45  66  94 129 155 184 236 282
#     4  11  21  32  47  66  89 123 164 199 233 277
#
# _framework density 15.116832
#
# number of rings (size 3 to 8) (size 9 to 14) (size 15 to 20)
#    0.000    2.273    3.636    1.091    1.273    1.273 
#    0.000    0.000    0.000    0.545    0.000    2.545 
#    0.000    0.727    0.000    1.273    0.000    0.000 
#
# Total GULP energy -545466.611395 kJ/mol
# GULP energy per Si atom -12396.968441 kJ/mol
# Density = 1.508243 g / cm^3
# Si number density = 15.116832 Si / 1000 Ang^3
#
#
#
# Elastic Constant Matrix: (Units=GPa)
#
#
# Indices 1 2 3 4 5 6 
#
# 1 96.1996 40.4156 36.4216 0.0000 0.0000 0.0000
# 2 40.4156 78.0474 38.4476 0.0000 0.0000 0.0000
# 3 36.4216 38.4476 86.1996 0.0000 0.0000 0.0000
# 4 0.0000 0.0000 0.0000 20.6540 0.0000 0.0000
# 5 0.0000 0.0000 0.0000 0.0000 7.7461 0.0000
# 6 0.0000 0.0000 0.0000 0.0000 0.0000 16.6172
#
#
#
# Elastic Compliance Matrix: (Units=1/GPa)
#
#
# Indices 1 2 3 4 5 6 
#
# 1 0.014042 -0.005573 -0.003447 0.000000 0.000000 0.000000
# 2 -0.005573 0.018633 -0.005956 0.000000 0.000000 0.000000
# 3 -0.003447 -0.005956 0.015714 0.000000 0.000000 0.000000
# 4 0.000000 0.000000 0.000000 0.048417 0.000000 0.000000
# 5 0.000000 0.000000 0.000000 0.000000 0.129096 0.000000
# 6 0.000000 0.000000 0.000000 0.000000 0.000000 0.060179
#
#
# Mechanical properties :
#
#
# Convention : Reuss Voigt Hill
#
# Bulk Modulus (GPa) = 54.24211 54.55738 54.39974
# Shear Modulus (GPa) = 15.51938 18.68092 17.10015
#
# Velocity S-wave (km/s) = 3.20758 3.51916 3.36698
# Velocity P-wave (km/s) = 7.04826 7.25820 7.15400
#
# Compressibility (1/GPa) = 0.01843586
#
# Stress axis : x y z
#
# Youngs Moduli (GPa) = 71.21734 53.66925 63.63736
#
# Poissons Ratio (x) = 0.29910 0.21937
# Poissons Ratio (y) = 0.39690 0.37902
# Poissons Ratio (z) = 0.24550 0.31965
#
# Static dielectric constant tensor:
#      x y z
#    x 2.772280 0.000000 0.000000 
#    y 0.000000 2.885110 0.000000 
#    z 0.000000 0.000000 2.985750 
# 
# 
# High freq. dielectric constant tensor:
#      x y z
#    x 1.553910 0.000000 0.000000 
#    y 0.000000 1.573500 0.000000 
#    z 0.000000 0.000000 1.557660 
# 
# From -- ./inp_files/58189.got.cif
#   From: 2010.03.12/outbox.cif.g09.slc.cpg/sg65_30_cif.got.tgz:58189.got - 2010.04.10 20:52:16.
