data_PCOD8265915
_publ_section_title
;
Structure prediction by ZEFSAII (Michael W. Deem and Ramdas Pophale) SiO2 
 PCOD8265915
Probable space group: C M M M
;
_chemical_formula_sum "Si O2"
_cell_formula_units_Z 72
_cell_length_a 22.520684
_cell_length_b 22.785506
_cell_length_c 9.378492
_cell_angle_alpha 90.000000
_cell_angle_beta 90.000000
_cell_angle_gamma 90.000000
_cell_volume 4812.527969
_symmetry_space_group_name_H-M "C M M M"
_symmetry_group_IT_number 65
_symmetry_cell_setting 'orthorhombic'
loop_
_space_group_symop_operation_xyz
x,y,z
-x,-y,z
x,-y,-z
-x,y,-z
-x,-y,-z
x,y,-z
-x,y,z
x,-y,z
1/2+x,1/2+y,z
1/2-x,1/2-y,z
1/2+x,1/2-y,-z
1/2-x,1/2+y,-z
1/2-x,1/2-y,-z
1/2+x,1/2+y,-z
1/2-x,1/2+y,z
1/2+x,1/2-y,z
loop_
_atom_site_type_symbol
_atom_site_label
_atom_site_fract_x
_atom_site_fract_y
_atom_site_fract_z
Si Si1 0.198727 0.669866 0.159415
Si Si2 0.835231 0.205364 0.161315
Si Si3 0.070233 0.000000 0.836681
Si Si4 0.635448 0.401234 0.333747
Si Si5 0.228732 0.434774 0.335852
O O1 0.160238 0.726360 0.210861
O O2 0.267198 0.686684 0.164535
O O3 0.187642 0.612801 0.256242
O O4 0.179598 0.653060 0.000000
O O5 0.871737 0.164613 0.270683
O O6 0.859925 0.198021 0.000000
O O7 0.091679 0.942456 0.753989
O O8 0.000000 0.000000 0.836028
O O9 0.094297 0.000000 0.000000
O O10 0.617781 0.401094 0.500000
O O11 0.701715 0.424563 0.310319
O O12 0.212747 0.428476 0.500000
O O13 0.213097 0.500000 0.279745
#
# Coordination Sequence:
#
# PCOD8265915 Si02
#       5
#    16  16   8  16  16
#     4   8  14  23  35  52  72  95 123 153 182 216
#     4   8  14  25  38  53  73  93 118 152 187 222
#     4  11  23  35  45  57  73  95 125 161 203 243
#     4  10  18  29  43  57  72  92 122 156 194 236
#     4   9  16  25  35  51  76 100 125 156 189 225
#
# _framework density 14.960953
#
# number of rings (size 3 to 8) (size 9 to 14) (size 15 to 20)
#    0.000    3.000    1.111    2.333    0.000    3.111 
#    0.000    4.444    0.000    0.000    0.000    0.000 
#    0.000    0.000    0.000    0.000    0.000    1.111 
#
# Total GULP energy -446131.331007 kJ/mol
# GULP energy per Si atom -12392.536972 kJ/mol
# Density = 1.492690 g / cm^3
# Si number density = 14.960953 Si / 1000 Ang^3
#
#
#
# Elastic Constant Matrix: (Units=GPa)
#
#
# Indices 1 2 3 4 5 6 
#
# 1 16.6817 23.3811 22.9782 0.0000 0.0000 0.0000
# 2 23.3811 157.2789 80.3886 0.0000 0.0000 0.0000
# 3 22.9782 80.3886 102.9513 0.0000 0.0000 0.0000
# 4 0.0000 0.0000 0.0000 32.8713 0.0000 0.0000
# 5 0.0000 0.0000 0.0000 0.0000 11.3967 0.0000
# 6 0.0000 0.0000 0.0000 0.0000 0.0000 7.0291
#
#
#
# Elastic Compliance Matrix: (Units=1/GPa)
#
#
# Indices 1 2 3 4 5 6 
#
# 1 0.088968 -0.005120 -0.015859 0.000000 0.000000 0.000000
# 2 -0.005120 0.010876 -0.007349 0.000000 0.000000 0.000000
# 3 -0.015859 -0.007349 0.018992 0.000000 0.000000 0.000000
# 4 0.000000 0.000000 0.000000 0.030422 0.000000 0.000000
# 5 0.000000 0.000000 0.000000 0.000000 0.087745 0.000000
# 6 0.000000 0.000000 0.000000 0.000000 0.000000 0.142266
#
#
# Mechanical properties :
#
#
# Convention : Reuss Voigt Hill
#
# Bulk Modulus (GPa) = 16.08291 58.93417 37.50854
# Shear Modulus (GPa) = 10.94928 20.27035 15.60981
#
# Velocity S-wave (km/s) = 2.70822 3.68487 3.23363
# Velocity P-wave (km/s) = 4.53349 7.58827 6.25037
#
# Compressibility (1/GPa) = 0.06217780
#
# Stress axis : x y z
#
# Youngs Moduli (GPa) = 11.24006 91.94787 52.65435
#
# Poissons Ratio (x) = 0.47077 0.83506
# Poissons Ratio (y) = 0.05755 0.38698
# Poissons Ratio (z) = 0.17826 0.67577
#
# Static dielectric constant tensor:
#      x y z
#    x 2.257580 0.000000 0.000000 
#    y 0.000000 3.341860 0.000000 
#    z 0.000000 0.000000 3.050790 
# 
# 
# High freq. dielectric constant tensor:
#      x y z
#    x 1.485910 0.000000 0.000000 
#    y 0.000000 1.588720 0.000000 
#    z 0.000000 0.000000 1.580900 
# 
# From -- ./inp_files/11427.got.cif
#   From: 2010.03.12/outbox.cif.g09.slc.cpg/sg65_6_cif.got.tgz:11427.got - 2010.04.10 20:52:16.
