data_PCOD8265923
_publ_section_title
;
Structure prediction by ZEFSAII (Michael W. Deem and Ramdas Pophale) SiO2 
 PCOD8265923
Probable space group: C M M M
;
_chemical_formula_sum "Si O2"
_cell_formula_units_Z 80
_cell_length_a 23.351132
_cell_length_b 25.778082
_cell_length_c 9.207342
_cell_angle_alpha 90.000000
_cell_angle_beta 90.000000
_cell_angle_gamma 90.000000
_cell_volume 5542.335536
_symmetry_space_group_name_H-M "C M M M"
_symmetry_group_IT_number 65
_symmetry_cell_setting 'orthorhombic'
loop_
_space_group_symop_operation_xyz
x,y,z
-x,-y,z
x,-y,-z
-x,y,-z
-x,-y,-z
x,y,-z
-x,y,z
x,-y,z
1/2+x,1/2+y,z
1/2-x,1/2-y,z
1/2+x,1/2-y,-z
1/2-x,1/2+y,-z
1/2-x,1/2-y,-z
1/2+x,1/2+y,-z
1/2-x,1/2+y,z
1/2+x,1/2-y,z
loop_
_atom_site_type_symbol
_atom_site_label
_atom_site_fract_x
_atom_site_fract_y
_atom_site_fract_z
Si Si1 0.000000 0.605654 0.329201
Si Si2 0.380179 0.939770 0.668519
Si Si3 0.285739 0.302524 0.335976
Si Si4 0.876717 0.746853 0.166727
Si Si5 0.000000 0.712853 0.833143
Si Si6 0.808999 0.643265 0.170165
O O1 0.944177 0.574077 0.278060
O O2 0.000000 0.662430 0.263937
O O3 0.000000 0.612316 0.500000
O O4 0.372192 0.924847 0.500000
O O5 0.334120 0.909123 0.763310
O O6 0.369160 0.000000 0.695746
O O7 0.294694 0.322350 0.500000
O O8 0.250000 0.250000 0.331441
O O9 0.347466 0.291181 0.264421
O O10 0.252359 0.346028 0.244475
O O11 0.944335 0.747704 0.200361
O O12 0.852999 0.689739 0.204719
O O13 0.863006 0.760122 0.000000
O O14 0.000000 0.694255 0.000000
O O15 0.799045 0.635838 0.000000
#
# Coordination Sequence:
#
# PCOD8265923 Si02
#       6
#     8  16  16  16   8  16
#     4  10  19  30  44  58  78 110 148 185 219 253
#     4  10  20  32  44  59  81 110 145 184 223 257
#     4   9  17  28  43  61  81 103 133 170 210 255
#     4   9  17  28  42  60  83 109 138 170 209 252
#     4  10  18  29  43  61  86 114 141 175 214 251
#     4  10  18  29  45  61  80 105 138 177 216 256
#
# _framework density 14.434347000000001
#
# number of rings (size 3 to 8) (size 9 to 14) (size 15 to 20)
#    0.000    2.400    2.000    1.500    0.000    5.600 
#    0.000    0.000    0.000    1.800    0.000    0.000 
#    0.000    0.000    0.000    0.900    0.000   17.400 
#
# Total GULP energy -496041.521571 kJ/mol
# GULP energy per Si atom -12401.038039 kJ/mol
# Density = 1.440149 g / cm^3
# Si number density = 14.434347 Si / 1000 Ang^3
#
#
#
# Elastic Constant Matrix: (Units=GPa)
#
#
# Indices 1 2 3 4 5 6 
#
# 1 91.8853 45.1099 42.1071 0.0000 0.0000 0.0000
# 2 45.1099 55.3476 37.5753 0.0000 0.0000 0.0000
# 3 42.1071 37.5753 64.0771 0.0000 0.0000 0.0000
# 4 0.0000 0.0000 0.0000 20.8115 0.0000 0.0000
# 5 0.0000 0.0000 0.0000 0.0000 23.5496 0.0000
# 6 0.0000 0.0000 0.0000 0.0000 0.0000 12.0911
#
#
#
# Elastic Compliance Matrix: (Units=1/GPa)
#
#
# Indices 1 2 3 4 5 6 
#
# 1 0.019342 -0.011855 -0.005758 0.000000 0.000000 0.000000
# 2 -0.011855 0.037284 -0.014074 0.000000 0.000000 0.000000
# 3 -0.005758 -0.014074 0.027643 0.000000 0.000000 0.000000
# 4 0.000000 0.000000 0.000000 0.048050 0.000000 0.000000
# 5 0.000000 0.000000 0.000000 0.000000 0.042464 0.000000
# 6 0.000000 0.000000 0.000000 0.000000 0.000000 0.082706
#
#
# Mechanical properties :
#
#
# Convention : Reuss Voigt Hill
#
# Bulk Modulus (GPa) = 47.85705 51.21049 49.53377
# Shear Modulus (GPa) = 15.25192 17.05828 16.15510
#
# Velocity S-wave (km/s) = 3.25413 3.44144 3.34909
# Velocity P-wave (km/s) = 6.88085 7.16565 7.02469
#
# Compressibility (1/GPa) = 0.02089556
#
# Stress axis : x y z
#
# Youngs Moduli (GPa) = 51.70106 26.82106 36.17544
#
# Poissons Ratio (x) = 0.31796 0.20831
# Poissons Ratio (y) = 0.61291 0.50912
# Poissons Ratio (z) = 0.29772 0.37747
#
# Static dielectric constant tensor:
#      x y z
#    x 2.882940 0.000000 0.000000 
#    y 0.000000 2.484720 0.000000 
#    z 0.000000 0.000000 2.902890 
# 
# 
# High freq. dielectric constant tensor:
#      x y z
#    x 1.543810 0.000000 0.000000 
#    y 0.000000 1.506800 0.000000 
#    z 0.000000 0.000000 1.561830 
# 
# From -- ./inp_files/11569.got.cif
#   From: 2010.03.12/outbox.cif.g09.slc.cpg/sg65_6_cif.got.tgz:11569.got - 2010.04.10 20:52:16.
