data_PCOD8265772
_publ_section_title
;
Structure prediction by ZEFSAII (Michael W. Deem and Ramdas Pophale) SiO2 
 PCOD8265772
Probable space group: C M M M
;
_chemical_formula_sum "Si O2"
_cell_formula_units_Z 72
_cell_length_a 9.288908
_cell_length_b 36.164525
_cell_length_c 14.145131
_cell_angle_alpha 90.000000
_cell_angle_beta 90.000000
_cell_angle_gamma 90.000000
_cell_volume 4751.758942
_symmetry_space_group_name_H-M "C M M M"
_symmetry_group_IT_number 65
_symmetry_cell_setting 'orthorhombic'
loop_
_space_group_symop_operation_xyz
x,y,z
-x,-y,z
x,-y,-z
-x,y,-z
-x,-y,-z
x,y,-z
-x,y,z
x,-y,z
1/2+x,1/2+y,z
1/2-x,1/2-y,z
1/2+x,1/2-y,-z
1/2-x,1/2+y,-z
1/2-x,1/2-y,-z
1/2+x,1/2+y,-z
1/2-x,1/2+y,z
1/2+x,1/2-y,z
loop_
_atom_site_type_symbol
_atom_site_label
_atom_site_fract_x
_atom_site_fract_y
_atom_site_fract_z
Si Si1 0.832882 0.143175 0.390564
Si Si2 0.828745 0.000000 0.394211
Si Si3 0.667438 0.957626 0.892648
Si Si4 0.330211 0.570423 0.278119
Si Si5 0.162638 0.714975 0.387500
O O1 0.801052 0.134245 0.500000
O O2 0.784815 0.107977 0.329904
O O3 0.740407 0.177670 0.353275
O O4 0.000000 0.152873 0.376008
O O5 0.772109 0.036335 0.340669
O O6 0.764688 0.000000 0.500000
O O7 0.000000 0.000000 0.398540
O O8 0.500000 0.953306 0.869539
O O9 0.757072 0.930816 0.824490
O O10 0.716251 0.000000 0.877287
O O11 0.699881 0.945479 0.000000
O O12 0.500000 0.567921 0.264298
O O13 0.162219 0.716658 0.500000
O O14 0.250000 0.750000 0.346466
O O15 0.000000 0.715836 0.347847
#
# Coordination Sequence:
#
# PCOD8265772 Si02
#       5
#    16   8  16  16  16
#     4   9  17  28  41  60  88 119 147 176 212 254
#     4   9  16  26  40  59  84 114 147 179 210 247
#     4   9  18  32  47  61  80 108 140 178 228 275
#     4  10  18  28  44  65  85 110 146 184 217 251
#     4   9  16  26  41  60  82 111 146 181 215 251
#
# _framework density 15.152284
#
# number of rings (size 3 to 8) (size 9 to 14) (size 15 to 20)
#    0.000    2.778    1.111    2.000    0.000    6.667 
#    0.000    1.111    0.000    2.667    0.000    0.000 
#    0.000    0.889    0.000    2.889    0.000    4.222 
#
# Total GULP energy -446396.767383 kJ/mol
# GULP energy per Si atom -12399.910205 kJ/mol
# Density = 1.511780 g / cm^3
# Si number density = 15.152284 Si / 1000 Ang^3
#
#
#
# Elastic Constant Matrix: (Units=GPa)
#
#
# Indices 1 2 3 4 5 6 
#
# 1 64.9262 60.8733 35.7754 0.0000 0.0000 0.0000
# 2 60.8733 133.4344 51.2305 0.0000 0.0000 0.0000
# 3 35.7754 51.2305 76.5302 0.0000 0.0000 0.0000
# 4 0.0000 0.0000 0.0000 8.1385 0.0000 0.0000
# 5 0.0000 0.0000 0.0000 0.0000 19.7356 0.0000
# 6 0.0000 0.0000 0.0000 0.0000 0.0000 25.6555
#
#
#
# Elastic Compliance Matrix: (Units=1/GPa)
#
#
# Indices 1 2 3 4 5 6 
#
# 1 0.029028 -0.010811 -0.006332 0.000000 0.000000 0.000000
# 2 -0.010811 0.014113 -0.004394 0.000000 0.000000 0.000000
# 3 -0.006332 -0.004394 0.018968 0.000000 0.000000 0.000000
# 4 0.000000 0.000000 0.000000 0.122872 0.000000 0.000000
# 5 0.000000 0.000000 0.000000 0.000000 0.050670 0.000000
# 6 0.000000 0.000000 0.000000 0.000000 0.000000 0.038978
#
#
# Mechanical properties :
#
#
# Convention : Reuss Voigt Hill
#
# Bulk Modulus (GPa) = 52.53611 63.40547 57.97079
# Shear Modulus (GPa) = 15.42975 19.17337 17.30156
#
# Velocity S-wave (km/s) = 3.19456 3.56107 3.38279
# Velocity P-wave (km/s) = 6.95373 7.67103 7.32117
#
# Compressibility (1/GPa) = 0.01903453
#
# Stress axis : x y z
#
# Youngs Moduli (GPa) = 34.44970 70.85428 52.72007
#
# Poissons Ratio (x) = 0.76604 0.33384
# Poissons Ratio (y) = 0.37245 0.23164
# Poissons Ratio (z) = 0.21814 0.31132
#
# Static dielectric constant tensor:
#      x y z
#    x 2.836150 0.000000 0.000000 
#    y 0.000000 2.923020 0.000000 
#    z 0.000000 0.000000 2.674860 
# 
# 
# High freq. dielectric constant tensor:
#      x y z
#    x 1.575000 0.000000 0.000000 
#    y 0.000000 1.574880 0.000000 
#    z 0.000000 0.000000 1.545390 
# 
# From -- ./inp_files/36937.got.cif
#   From: 2010.03.12/outbox.cif.g09.slc.cpg/sg65_19_cif.got.tgz:36937.got - 2010.04.10 20:52:16.
