data_PCOD8265773
_publ_section_title
;
Structure prediction by ZEFSAII (Michael W. Deem and Ramdas Pophale) SiO2 
 PCOD8265773
Probable space group: C M M M
;
_chemical_formula_sum "Si O2"
_cell_formula_units_Z 96
_cell_length_a 26.122719
_cell_length_b 28.316331
_cell_length_c 8.920335
_cell_angle_alpha 90.000000
_cell_angle_beta 90.000000
_cell_angle_gamma 90.000000
_cell_volume 6598.367855
_symmetry_space_group_name_H-M "C M M M"
_symmetry_group_IT_number 65
_symmetry_cell_setting 'orthorhombic'
loop_
_space_group_symop_operation_xyz
x,y,z
-x,-y,z
x,-y,-z
-x,y,-z
-x,-y,-z
x,y,-z
-x,y,z
x,-y,z
1/2+x,1/2+y,z
1/2-x,1/2-y,z
1/2+x,1/2-y,-z
1/2-x,1/2+y,-z
1/2-x,1/2-y,-z
1/2+x,1/2+y,-z
1/2-x,1/2+y,z
1/2+x,1/2-y,z
loop_
_atom_site_type_symbol
_atom_site_label
_atom_site_fract_x
_atom_site_fract_y
_atom_site_fract_z
Si Si1 0.400058 0.946574 0.673757
Si Si2 0.252920 0.859941 0.674940
Si Si3 0.801622 0.220296 0.169060
Si Si4 0.854571 0.301376 0.675004
Si Si5 0.058299 0.359341 0.172122
Si Si6 0.791352 0.553168 0.173192
O O1 0.398930 0.932036 0.500000
O O2 0.438011 0.912162 0.761791
O O3 0.343332 0.940551 0.735808
O O4 0.419975 0.000000 0.695937
O O5 0.243687 0.867093 0.500000
O O6 0.207068 0.827924 0.739336
O O7 0.307848 0.836592 0.710197
O O8 0.250297 0.910474 0.758084
O O9 0.750000 0.250000 0.172528
O O10 0.846195 0.250850 0.246176
O O11 0.818072 0.207954 0.000000
O O12 0.859900 0.291980 0.500000
O O13 0.906606 0.323465 0.736314
O O14 0.000000 0.342107 0.187636
O O15 0.076147 0.360005 0.000000
O O16 0.769872 0.500000 0.191901
O O17 0.801839 0.565132 0.000000
#
# Coordination Sequence:
#
# PCOD8265773 Si02
#       6
#    16  16  16  16  16  16
#     4  10  20  33  47  61  77 101 135 176 221 263
#     4  10  18  28  44  65  86 108 136 170 206 249
#     4   9  17  28  44  64  85 108 132 163 203 248
#     4  10  19  31  46  63  83 106 133 171 211 253
#     4  11  23  35  47  62  80 105 138 176 218 262
#     4  10  19  29  43  62  84 111 141 173 210 252
#
# _framework density 14.549053000000001
#
# number of rings (size 3 to 8) (size 9 to 14) (size 15 to 20)
#    0.000    2.000    1.667    3.000    0.000    7.000 
#    0.000    1.667    0.000    0.000    0.000    0.000 
#    0.000    0.000    0.000    0.000    0.000    0.833 
#
# Total GULP energy -595288.756337 kJ/mol
# GULP energy per Si atom -12401.849090 kJ/mol
# Density = 1.451594 g / cm^3
# Si number density = 14.549053 Si / 1000 Ang^3
#
#
#
# Elastic Constant Matrix: (Units=GPa)
#
#
# Indices 1 2 3 4 5 6 
#
# 1 38.2319 33.9284 22.3252 0.0000 0.0000 0.0000
# 2 33.9284 72.6965 32.0776 0.0000 0.0000 0.0000
# 3 22.3252 32.0776 76.8013 0.0000 0.0000 0.0000
# 4 0.0000 0.0000 0.0000 29.1068 0.0000 0.0000
# 5 0.0000 0.0000 0.0000 0.0000 17.7811 0.0000
# 6 0.0000 0.0000 0.0000 0.0000 0.0000 21.1334
#
#
#
# Elastic Compliance Matrix: (Units=1/GPa)
#
#
# Indices 1 2 3 4 5 6 
#
# 1 0.046439 -0.019268 -0.005451 0.000000 0.000000 0.000000
# 2 -0.019268 0.024858 -0.004782 0.000000 0.000000 0.000000
# 3 -0.005451 -0.004782 0.016602 0.000000 0.000000 0.000000
# 4 0.000000 0.000000 0.000000 0.034356 0.000000 0.000000
# 5 0.000000 0.000000 0.000000 0.000000 0.056239 0.000000
# 6 0.000000 0.000000 0.000000 0.000000 0.000000 0.047319
#
#
# Mechanical properties :
#
#
# Convention : Reuss Voigt Hill
#
# Bulk Modulus (GPa) = 34.60538 40.48802 37.54670
# Shear Modulus (GPa) = 16.98089 20.23083 18.60586
#
# Velocity S-wave (km/s) = 3.42006 3.73302 3.57996
# Velocity P-wave (km/s) = 6.27955 6.81686 6.55371
#
# Compressibility (1/GPa) = 0.02889724
#
# Stress axis : x y z
#
# Youngs Moduli (GPa) = 21.53373 40.22780 60.23222
#
# Poissons Ratio (x) = 0.77511 0.32835
# Poissons Ratio (y) = 0.41491 0.28801
# Poissons Ratio (z) = 0.11739 0.19235
#
# Static dielectric constant tensor:
#      x y z
#    x 2.429360 0.000000 0.000000 
#    y 0.000000 2.955630 0.000000 
#    z 0.000000 0.000000 3.030460 
# 
# 
# High freq. dielectric constant tensor:
#      x y z
#    x 1.497490 0.000000 0.000000 
#    y 0.000000 1.550630 0.000000 
#    z 0.000000 0.000000 1.581440 
# 
# From -- ./inp_files/12182.got.cif
#   From: 2010.03.12/outbox.cif.g09.slc.cpg/sg65_7_cif.got.tgz:12182.got - 2010.04.10 20:52:16.
