data_PCOD8265894
_publ_section_title
;
Structure prediction by ZEFSAII (Michael W. Deem and Ramdas Pophale) SiO2 
 PCOD8265894
Probable space group: C M M M
;
_chemical_formula_sum "Si O2"
_cell_formula_units_Z 80
_cell_length_a 23.403855
_cell_length_b 19.573488
_cell_length_c 10.286381
_cell_angle_alpha 90.000000
_cell_angle_beta 90.000000
_cell_angle_gamma 90.000000
_cell_volume 4712.140476
_symmetry_space_group_name_H-M "C M M M"
_symmetry_group_IT_number 65
_symmetry_cell_setting 'orthorhombic'
loop_
_space_group_symop_operation_xyz
x,y,z
-x,-y,z
x,-y,-z
-x,y,-z
-x,-y,-z
x,y,-z
-x,y,z
x,-y,z
1/2+x,1/2+y,z
1/2-x,1/2-y,z
1/2+x,1/2-y,-z
1/2-x,1/2+y,-z
1/2-x,1/2-y,-z
1/2+x,1/2+y,-z
1/2-x,1/2+y,z
1/2+x,1/2-y,z
loop_
_atom_site_type_symbol
_atom_site_label
_atom_site_fract_x
_atom_site_fract_y
_atom_site_fract_z
Si Si1 0.564182 0.179690 0.846712
Si Si2 0.387436 0.674555 0.148720
Si Si3 0.433213 0.574931 0.358487
Si Si4 0.341005 0.077015 0.155164
Si Si5 0.243507 0.824411 0.149795
O O1 0.500000 0.178849 0.785199
O O2 0.599073 0.247879 0.808575
O O3 0.601191 0.115088 0.796495
O O4 0.558347 0.175328 0.000000
O O5 0.421812 0.626051 0.242433
O O6 0.321680 0.653329 0.165298
O O7 0.407325 0.662893 0.000000
O O8 0.409197 0.600162 0.500000
O O9 0.500000 0.567823 0.370812
O O10 0.407053 0.500000 0.326563
O O11 0.285783 0.118500 0.210617
O O12 0.340309 0.000000 0.212173
O O13 0.339000 0.074283 0.000000
O O14 0.250000 0.750000 0.217582
O O15 0.261986 0.816315 0.000000
#
# Coordination Sequence:
#
# PCOD8265894 Si02
#       5
#    16  16  16  16  16
#     4   9  16  25  38  60  89 119 151 189 234 277
#     4  10  18  28  48  73  96 120 153 198 240 277
#     4   9  19  35  50  65  93 131 162 191 234 285
#     4   9  16  25  37  56  85 122 159 190 225 277
#     4   9  15  26  42  61  90 125 153 185 235 284
#
# _framework density 16.977423000000002
#
# number of rings (size 3 to 8) (size 9 to 14) (size 15 to 20)
#    0.000    2.800    2.000    1.200    0.000    2.800 
#    0.000    5.000    0.000    0.600    0.000    0.000 
#    0.000    0.800    0.000    4.200    0.000    4.000 
#
# Total GULP energy -495603.606298 kJ/mol
# GULP energy per Si atom -12390.090157 kJ/mol
# Density = 1.693878 g / cm^3
# Si number density = 16.977423 Si / 1000 Ang^3
#
#
#
# Elastic Constant Matrix: (Units=GPa)
#
#
# Indices 1 2 3 4 5 6 
#
# 1 101.9175 58.7549 12.6617 0.0000 0.0000 0.0000
# 2 58.7549 143.8064 36.8440 0.0000 0.0000 0.0000
# 3 12.6617 36.8440 36.7510 0.0000 0.0000 0.0000
# 4 0.0000 0.0000 0.0000 -0.9530 0.0000 0.0000
# 5 0.0000 0.0000 0.0000 0.0000 4.8734 0.0000
# 6 0.0000 0.0000 0.0000 0.0000 0.0000 30.9464
#
#
#
# Elastic Compliance Matrix: (Units=1/GPa)
#
#
# Indices 1 2 3 4 5 6 
#
# 1 0.012870 -0.005547 0.001127 0.000000 0.000000 0.000000
# 2 -0.005547 0.011748 -0.009867 0.000000 0.000000 0.000000
# 3 0.001127 -0.009867 0.036713 0.000000 0.000000 0.000000
# 4 0.000000 0.000000 0.000000 -1.049309 0.000000 0.000000
# 5 0.000000 0.000000 0.000000 0.000000 0.205196 0.000000
# 6 0.000000 0.000000 0.000000 0.000000 0.000000 0.032314
#
#
# Mechanical properties :
#
#
# Convention : Reuss Voigt Hill
#
# Bulk Modulus (GPa) = 30.52693 55.44402 42.98547
# Shear Modulus (GPa) = -7.03258 18.58763 5.77753
#
# Velocity S-wave (km/s) = -2.03748 3.31243 1.84674
# Velocity P-wave (km/s) = 3.53339 6.88172 5.47005
#
# Compressibility (1/GPa) = 0.03275797
#
# Stress axis : x y z
#
# Youngs Moduli (GPa) = 77.70255 85.12110 27.23796
#
# Poissons Ratio (x) = 0.47216 -0.03070
# Poissons Ratio (y) = 0.43101 0.26875
# Poissons Ratio (z) = -0.08757 0.83986
#
# Static dielectric constant tensor:
#      x y z
#    x 3.301020 0.000000 0.000000 
#    y 0.000000 3.377920 0.000000 
#    z 0.000000 0.000000 2.609730 
# 
# 
# High freq. dielectric constant tensor:
#      x y z
#    x 1.660560 0.000000 0.000000 
#    y 0.000000 1.662290 0.000000 
#    z 0.000000 0.000000 1.576610 
# 
# From -- ./inp_files/9660.got.cif
#   From: 2010.03.12/outbox.cif.g09.slc.cpg/sg65_5_cif.got.tgz:9660.got - 2010.04.10 20:52:16.
