data_PCOD8265722
_publ_section_title
;
Structure prediction by ZEFSAII (Michael W. Deem and Ramdas Pophale) SiO2 
 PCOD8265722
Probable space group: C M M M
;
_chemical_formula_sum "Si O2"
_cell_formula_units_Z 104
_cell_length_a 27.536609
_cell_length_b 8.835312
_cell_length_c 26.219763
_cell_angle_alpha 90.000000
_cell_angle_beta 90.000000
_cell_angle_gamma 90.000000
_cell_volume 6379.124967
_symmetry_space_group_name_H-M "C M M M"
_symmetry_group_IT_number 65
_symmetry_cell_setting 'orthorhombic'
loop_
_space_group_symop_operation_xyz
x,y,z
-x,-y,z
x,-y,-z
-x,y,-z
-x,-y,-z
x,y,-z
-x,y,z
x,-y,z
1/2+x,1/2+y,z
1/2-x,1/2-y,z
1/2+x,1/2-y,-z
1/2-x,1/2+y,-z
1/2-x,1/2-y,-z
1/2+x,1/2+y,-z
1/2-x,1/2+y,z
1/2+x,1/2-y,z
loop_
_atom_site_type_symbol
_atom_site_label
_atom_site_fract_x
_atom_site_fract_y
_atom_site_fract_z
Si Si1 0.888381 0.322939 0.146738
Si Si2 0.802787 0.820238 0.398179
Si Si3 0.359116 0.322662 0.297291
Si Si4 0.944237 0.174102 0.058491
Si Si5 0.301907 0.678372 0.801799
Si Si6 0.445588 0.178430 0.246467
Si Si7 0.303577 0.181043 0.500000
O O1 0.877760 0.500000 0.148862
O O2 0.910529 0.280526 0.092371
O O3 0.837753 0.235494 0.153885
O O4 0.925771 0.272451 0.191029
O O5 0.750000 0.750000 0.388073
O O6 0.837111 0.774746 0.351394
O O7 0.828106 0.746318 0.448457
O O8 0.797578 0.000000 0.404767
O O9 0.367131 0.500000 0.293387
O O10 0.322463 0.267250 0.253037
O O11 0.411564 0.245436 0.290857
O O12 0.000000 0.221445 0.066747
O O13 0.936578 0.000000 0.074216
O O14 0.929141 0.199601 0.000000
O O15 0.296940 0.500000 0.804701
O O16 0.250000 0.750000 0.811206
O O17 0.500000 0.243739 0.252643
O O18 0.445679 0.000000 0.252223
O O19 0.250000 0.250000 0.500000
O O20 0.303511 0.000000 0.500000
#
# Coordination Sequence:
#
# PCOD8265722 Si02
#       7
#    16  16  16  16  16  16   8
#     4  10  19  31  48  70  95 123 155 189 226 269
#     4  10  18  29  44  64  91 120 151 186 224 264
#     4   9  19  31  45  67  92 120 153 187 224 268
#     4   9  18  32  49  70  96 124 153 187 229 274
#     4  10  19  32  48  68  94 123 156 190 226 268
#     4   9  18  31  46  66  93 122 151 185 224 266
#     4  10  18  28  42  62  87 118 153 184 222 267
#
# _framework density 16.303176000000001
#
# number of rings (size 3 to 8) (size 9 to 14) (size 15 to 20)
#    0.000    2.462    0.000    4.385    0.000    4.000 
#    0.000    0.769    0.000    0.462    0.000    0.538 
#    0.000    4.308    0.000    0.000    0.000    0.000 
#
# Total GULP energy -644810.993252 kJ/mol
# GULP energy per Si atom -12400.211409 kJ/mol
# Density = 1.626607 g / cm^3
# Si number density = 16.303176 Si / 1000 Ang^3
#
#
#
# Elastic Constant Matrix: (Units=GPa)
#
#
# Indices 1 2 3 4 5 6 
#
# 1 117.5090 38.7860 53.8562 0.0000 0.0000 0.0000
# 2 38.7860 63.8572 37.4035 0.0000 0.0000 0.0000
# 3 53.8562 37.4035 102.5650 0.0000 0.0000 0.0000
# 4 0.0000 0.0000 0.0000 27.7349 0.0000 0.0000
# 5 0.0000 0.0000 0.0000 0.0000 24.1856 0.0000
# 6 0.0000 0.0000 0.0000 0.0000 0.0000 27.7753
#
#
#
# Elastic Compliance Matrix: (Units=1/GPa)
#
#
# Indices 1 2 3 4 5 6 
#
# 1 0.012206 -0.004653 -0.004712 0.000000 0.000000 0.000000
# 2 -0.004653 0.021688 -0.005466 0.000000 0.000000 0.000000
# 3 -0.004712 -0.005466 0.014217 0.000000 0.000000 0.000000
# 4 0.000000 0.000000 0.000000 0.036056 0.000000 0.000000
# 5 0.000000 0.000000 0.000000 0.000000 0.041347 0.000000
# 6 0.000000 0.000000 0.000000 0.000000 0.000000 0.036003
#
#
# Mechanical properties :
#
#
# Convention : Reuss Voigt Hill
#
# Bulk Modulus (GPa) = 54.20495 60.44695 57.32595
# Shear Modulus (GPa) = 25.33848 26.19818 25.76833
#
# Velocity S-wave (km/s) = 3.94662 4.01301 3.97995
# Velocity P-wave (km/s) = 7.35445 7.65700 7.50725
#
# Compressibility (1/GPa) = 0.01844850
#
# Stress axis : x y z
#
# Youngs Moduli (GPa) = 81.92995 46.10880 70.33652
#
# Poissons Ratio (x) = 0.21457 0.33143
# Poissons Ratio (y) = 0.38126 0.38443
# Poissons Ratio (z) = 0.38605 0.25201
#
# Static dielectric constant tensor:
#      x y z
#    x 2.988110 0.000000 0.000000 
#    y 0.000000 3.067820 0.000000 
#    z 0.000000 0.000000 3.272160 
# 
# 
# High freq. dielectric constant tensor:
#      x y z
#    x 1.606160 0.000000 0.000000 
#    y 0.000000 1.635510 0.000000 
#    z 0.000000 0.000000 1.621350 
# 
# From -- ./inp_files/76024.got.cif
#   From: 2010.03.12/outbox.cif.g09.slc.cpg/sg65_39_cif.got.tgz:76024.got - 2010.04.10 20:52:16.
