data_PCOD8265279
_publ_section_title
;
Structure prediction by ZEFSAII (Michael W. Deem and Ramdas Pophale) SiO2 
 PCOD8265279
Probable space group: C M M M
;
_chemical_formula_sum "Si O2"
_cell_formula_units_Z 112
_cell_length_a 26.055985
_cell_length_b 33.688700
_cell_length_c 9.029390
_cell_angle_alpha 90.000000
_cell_angle_beta 90.000000
_cell_angle_gamma 90.000000
_cell_volume 7925.928671
_symmetry_space_group_name_H-M "C M M M"
_symmetry_group_IT_number 65
_symmetry_cell_setting 'orthorhombic'
loop_
_space_group_symop_operation_xyz
x,y,z
-x,-y,z
x,-y,-z
-x,y,-z
-x,-y,-z
x,y,-z
-x,y,z
x,-y,z
1/2+x,1/2+y,z
1/2-x,1/2-y,z
1/2+x,1/2-y,-z
1/2-x,1/2+y,-z
1/2-x,1/2-y,-z
1/2+x,1/2+y,-z
1/2-x,1/2+y,z
1/2+x,1/2-y,z
loop_
_atom_site_type_symbol
_atom_site_label
_atom_site_fract_x
_atom_site_fract_y
_atom_site_fract_z
Si Si1 0.744711 0.157959 0.325908
Si Si2 0.401498 0.922499 0.171350
Si Si3 0.218311 0.500000 0.668790
Si Si4 0.940899 0.338193 0.170502
Si Si5 0.217891 0.579157 0.173961
Si Si6 0.300989 0.724151 0.832821
Si Si7 0.355003 0.791076 0.673200
Si Si8 0.403857 0.000000 0.666096
O O1 0.752951 0.153026 0.500000
O O2 0.747944 0.115478 0.247707
O O3 0.790991 0.184209 0.260047
O O4 0.690067 0.177943 0.288764
O O5 0.432225 0.883507 0.222229
O O6 0.342058 0.915671 0.209708
O O7 0.424940 0.960253 0.256562
O O8 0.409392 0.931717 0.000000
O O9 0.238138 0.500000 0.500000
O O10 0.239330 0.461217 0.753214
O O11 0.157220 0.500000 0.675667
O O12 0.908616 0.308558 0.271476
O O13 0.000000 0.326817 0.191144
O O14 0.923082 0.333766 0.000000
O O15 0.228966 0.578242 0.000000
O O16 0.250000 0.750000 0.832276
O O17 0.345977 0.749258 0.755225
O O18 0.317486 0.713287 0.000000
O O19 0.357814 0.782413 0.500000
O O20 0.424475 0.000000 0.500000
#
# Coordination Sequence:
#
# PCOD8265279 Si02
#       8
#    16  16   8  16  16  16  16   8
#     4  10  18  27  41  62  84 104 126 155 195 237
#     4   9  17  29  43  57  73  94 122 157 198 241
#     4   9  17  27  37  54  78 101 128 161 197 235
#     4  10  20  33  47  61  76  98 130 164 198 241
#     4  10  17  26  41  58  77 102 132 162 195 237
#     4   9  17  28  43  61  81 103 127 153 185 230
#     4  10  19  30  44  60  81 103 124 155 197 239
#     4   9  17  27  42  58  71  90 118 153 197 246
#
# _framework density 14.130837
#
# number of rings (size 3 to 8) (size 9 to 14) (size 15 to 20)
#    0.000    2.429    1.429    2.143    0.000    6.000 
#    0.000    0.357    0.000    2.143    0.000    0.000 
#    0.000    0.000    0.000    0.000    0.000    0.000 
#
# Total GULP energy -694473.118188 kJ/mol
# GULP energy per Si atom -12401.305682 kJ/mol
# Density = 1.409867 g / cm^3
# Si number density = 14.130837 Si / 1000 Ang^3
#
#
#
# Elastic Constant Matrix: (Units=GPa)
#
#
# Indices 1 2 3 4 5 6 
#
# 1 32.0505 34.2519 24.8105 0.0000 0.0000 0.0000
# 2 34.2519 96.9642 54.5502 0.0000 0.0000 0.0000
# 3 24.8105 54.5502 88.9480 0.0000 0.0000 0.0000
# 4 0.0000 0.0000 0.0000 27.7391 0.0000 0.0000
# 5 0.0000 0.0000 0.0000 0.0000 14.4459 0.0000
# 6 0.0000 0.0000 0.0000 0.0000 0.0000 13.8824
#
#
#
# Elastic Compliance Matrix: (Units=1/GPa)
#
#
# Indices 1 2 3 4 5 6 
#
# 1 0.051482 -0.015431 -0.004896 0.000000 0.000000 0.000000
# 2 -0.015431 0.020371 -0.008189 0.000000 0.000000 0.000000
# 3 -0.004896 -0.008189 0.017630 0.000000 0.000000 0.000000
# 4 0.000000 0.000000 0.000000 0.036050 0.000000 0.000000
# 5 0.000000 0.000000 0.000000 0.000000 0.069224 0.000000
# 6 0.000000 0.000000 0.000000 0.000000 0.000000 0.072034
#
#
# Mechanical properties :
#
#
# Convention : Reuss Voigt Hill
#
# Bulk Modulus (GPa) = 30.81604 49.46531 40.14068
# Shear Modulus (GPa) = 14.94141 18.17016 16.55578
#
# Velocity S-wave (km/s) = 3.25524 3.58977 3.42659
# Velocity P-wave (km/s) = 5.99865 7.22932 6.64255
#
# Compressibility (1/GPa) = 0.03245064
#
# Stress axis : x y z
#
# Youngs Moduli (GPa) = 19.42426 49.08964 56.72021
#
# Poissons Ratio (x) = 0.75750 0.27773
# Poissons Ratio (y) = 0.29974 0.46448
# Poissons Ratio (z) = 0.09511 0.40199
#
# Static dielectric constant tensor:
#      x y z
#    x 2.312770 0.000000 0.000000 
#    y 0.000000 2.837840 0.000000 
#    z 0.000000 0.000000 2.885810 
# 
# 
# High freq. dielectric constant tensor:
#      x y z
#    x 1.472210 0.000000 0.000000 
#    y 0.000000 1.538360 0.000000 
#    z 0.000000 0.000000 1.555890 
# 
# From -- ./inp_files/19239.got.cif
#   From: 2010.03.12/outbox.cif.g09.slc.cpg/sg65_10_cif.got.tgz:19239.got - 2010.04.10 20:52:16.
