data_PCOD8265558
_publ_section_title
;
Structure prediction by ZEFSAII (Michael W. Deem and Ramdas Pophale) SiO2 
 PCOD8265558
Probable space group: C M M M
;
_chemical_formula_sum "Si O2"
_cell_formula_units_Z 88
_cell_length_a 25.441738
_cell_length_b 38.665407
_cell_length_c 7.838275
_cell_angle_alpha 90.000000
_cell_angle_beta 90.000000
_cell_angle_gamma 90.000000
_cell_volume 7710.629903
_symmetry_space_group_name_H-M "C M M M"
_symmetry_group_IT_number 65
_symmetry_cell_setting 'orthorhombic'
loop_
_space_group_symop_operation_xyz
x,y,z
-x,-y,z
x,-y,-z
-x,y,-z
-x,-y,-z
x,y,-z
-x,y,z
x,-y,z
1/2+x,1/2+y,z
1/2-x,1/2-y,z
1/2+x,1/2-y,-z
1/2-x,1/2+y,-z
1/2-x,1/2-y,-z
1/2+x,1/2+y,-z
1/2-x,1/2+y,z
1/2+x,1/2-y,z
loop_
_atom_site_type_symbol
_atom_site_label
_atom_site_fract_x
_atom_site_fract_y
_atom_site_fract_z
Si Si1 0.876165 0.154930 0.000000
Si Si2 0.937582 0.038763 0.689547
Si Si3 0.561554 0.273571 0.000000
Si Si4 0.281108 0.214287 0.192769
Si Si5 0.062677 0.084737 0.000000
Si Si6 0.122356 0.750825 0.688159
Si Si7 0.684401 0.322055 0.311841
O O1 0.910727 0.189388 0.000000
O O2 0.915471 0.123125 0.000000
O O3 0.839183 0.152768 0.832446
O O4 0.919308 0.050793 0.500000
O O5 0.915717 0.064859 0.832442
O O6 0.000000 0.038296 0.698245
O O7 0.916552 0.000000 0.726946
O O8 0.577413 0.251488 0.832428
O O9 0.500000 0.279757 0.000000
O O10 0.250000 0.250000 0.198540
O O11 0.337482 0.218872 0.283965
O O12 0.246603 0.184598 0.283968
O O13 0.291290 0.202599 0.000000
O O14 0.000000 0.086869 0.000000
O O15 0.096584 0.747185 0.500000
O O16 0.154946 0.785848 0.702944
O O17 0.676150 0.338525 0.500000
#
# Coordination Sequence:
#
# PCOD8265558 Si02
#       7
#     8  16   8  16   8  16  16
#     4  10  19  28  34  45  64  86 110 124 138 174
#     4   8  14  25  40  55  66  74  90 122 161 191
#     4  10  19  29  36  42  59  85 109 130 147 171
#     4   9  13  21  37  53  64  72  87 119 159 188
#     4  10  18  26  37  50  64  84 106 126 147 175
#     4   9  16  25  37  50  60  73  96 125 156 185
#     4   9  16  25  36  48  63  80  96 119 150 181
#
# _framework density 11.412815999999999
#
# number of rings (size 3 to 8) (size 9 to 14) (size 15 to 20)
#    0.000    2.909    1.818    1.636    0.000    4.364 
#    0.000    0.000    0.000    3.273    0.000    0.000 
#    0.000    0.000    0.000    0.000    0.000    0.000 
#
# Total GULP energy -545242.831380 kJ/mol
# GULP energy per Si atom -12391.882531 kJ/mol
# Density = 1.138684 g / cm^3
# Si number density = 11.412816 Si / 1000 Ang^3
#
#
#
# Elastic Constant Matrix: (Units=GPa)
#
#
# Indices 1 2 3 4 5 6 
#
# 1 32.3354 19.8353 29.8942 0.0000 0.0000 0.0000
# 2 19.8353 24.7365 26.3132 0.0000 0.0000 0.0000
# 3 29.8942 26.3132 111.5607 0.0000 0.0000 0.0000
# 4 0.0000 0.0000 0.0000 8.0978 0.0000 0.0000
# 5 0.0000 0.0000 0.0000 0.0000 8.2755 0.0000
# 6 0.0000 0.0000 0.0000 0.0000 0.0000 6.6535
#
#
#
# Elastic Compliance Matrix: (Units=1/GPa)
#
#
# Indices 1 2 3 4 5 6 
#
# 1 0.064497 -0.044498 -0.006787 0.000000 0.000000 0.000000
# 2 -0.044498 0.084666 -0.008046 0.000000 0.000000 0.000000
# 3 -0.006787 -0.008046 0.012680 0.000000 0.000000 0.000000
# 4 0.000000 0.000000 0.000000 0.123491 0.000000 0.000000
# 5 0.000000 0.000000 0.000000 0.000000 0.120838 0.000000
# 6 0.000000 0.000000 0.000000 0.000000 0.000000 0.150296
#
#
# Mechanical properties :
#
#
# Convention : Reuss Voigt Hill
#
# Bulk Modulus (GPa) = 23.15830 35.63533 29.39682
# Shear Modulus (GPa) = 7.25138 10.77803 9.01470
#
# Velocity S-wave (km/s) = 2.52339 3.07641 2.81352
# Velocity P-wave (km/s) = 5.36894 6.62652 6.03060
#
# Compressibility (1/GPa) = 0.04318106
#
# Stress axis : x y z
#
# Youngs Moduli (GPa) = 15.50465 11.81110 78.86289
#
# Poissons Ratio (x) = 0.52557 0.53527
# Poissons Ratio (y) = 0.68992 0.63453
# Poissons Ratio (z) = 0.10524 0.09503
#
# Static dielectric constant tensor:
#      x y z
#    x 2.190550 0.000000 0.000000 
#    y 0.000000 2.080610 0.000000 
#    z 0.000000 0.000000 2.749600 
# 
# 
# High freq. dielectric constant tensor:
#      x y z
#    x 1.394940 0.000000 0.000000 
#    y 0.000000 1.376940 0.000000 
#    z 0.000000 0.000000 1.456710 
# 
# From -- ./inp_files/14990.got.cif
#   From: 2010.03.12/outbox.cif.g09.slc.cpg/sg65_8_cif.got.tgz:14990.got - 2010.04.10 20:52:16.
