data_PCOD8265875
_publ_section_title
;
Structure prediction by ZEFSAII (Michael W. Deem and Ramdas Pophale) SiO2 
 PCOD8265875
Probable space group: C M M M
;
_chemical_formula_sum "Si O2"
_cell_formula_units_Z 96
_cell_length_a 19.919074
_cell_length_b 29.860748
_cell_length_c 9.269496
_cell_angle_alpha 90.000000
_cell_angle_beta 90.000000
_cell_angle_gamma 90.000000
_cell_volume 5513.481845
_symmetry_space_group_name_H-M "C M M M"
_symmetry_group_IT_number 65
_symmetry_cell_setting 'orthorhombic'
loop_
_space_group_symop_operation_xyz
x,y,z
-x,-y,z
x,-y,-z
-x,y,-z
-x,-y,-z
x,y,-z
-x,y,z
x,-y,z
1/2+x,1/2+y,z
1/2-x,1/2-y,z
1/2+x,1/2-y,-z
1/2-x,1/2+y,-z
1/2-x,1/2-y,-z
1/2+x,1/2+y,-z
1/2-x,1/2+y,z
1/2+x,1/2-y,z
loop_
_atom_site_type_symbol
_atom_site_label
_atom_site_fract_x
_atom_site_fract_y
_atom_site_fract_z
Si Si1 0.298402 0.947124 0.333978
Si Si2 0.573074 0.240408 0.828483
Si Si3 0.289449 0.619239 0.171477
Si Si4 0.573423 0.658907 0.828994
Si Si5 0.574018 0.946804 0.161707
Si Si6 0.211314 0.706549 0.171405
O O1 0.296219 0.933079 0.500000
O O2 0.236409 0.925232 0.249592
O O3 0.368738 0.928772 0.268734
O O4 0.291691 0.000000 0.312927
O O5 0.500000 0.222281 0.775314
O O6 0.584441 0.290813 0.769220
O O7 0.633720 0.208717 0.773963
O O8 0.574187 0.242050 0.000000
O O9 0.366383 0.626826 0.223637
O O10 0.245116 0.661104 0.227650
O O11 0.284124 0.612835 0.000000
O O12 0.500000 0.640657 0.778083
O O13 0.576057 0.661265 0.000000
O O14 0.500000 0.929684 0.211079
O O15 0.574058 0.000000 0.161762
O O16 0.589549 0.929119 0.000000
O O17 0.250000 0.750000 0.233088
O O18 0.215778 0.707289 0.000000
#
# Coordination Sequence:
#
# PCOD8265875 Si02
#       6
#    16  16  16  16  16  16
#     4  10  21  35  49  66  92 127 165 202 239 285
#     4   8  12  19  33  56  90 126 152 178 218 271
#     4  10  18  28  47  72  95 122 156 198 244 285
#     4   8  13  22  39  66  95 119 149 191 236 281
#     4   8  14  27  49  74  95 115 146 192 240 281
#     4   9  14  22  37  62  93 120 147 183 230 283
#
# _framework density 17.411864999999999
#
# number of rings (size 3 to 8) (size 9 to 14) (size 15 to 20)
#    0.000    3.167    1.667    2.000    0.000    1.333 
#    0.000    2.500    0.000    4.500    0.000    3.500 
#    0.000    0.000    0.000    0.000    0.000    0.000 
#
# Total GULP energy -594726.509996 kJ/mol
# GULP energy per Si atom -12390.135625 kJ/mol
# Density = 1.737223 g / cm^3
# Si number density = 17.411865 Si / 1000 Ang^3
#
#
#
# Elastic Constant Matrix: (Units=GPa)
#
#
# Indices 1 2 3 4 5 6 
#
# 1 172.1249 43.8192 40.0531 0.0000 0.0000 0.0000
# 2 43.8192 41.0473 24.0887 0.0000 0.0000 0.0000
# 3 40.0531 24.0887 43.4238 0.0000 0.0000 0.0000
# 4 0.0000 0.0000 0.0000 7.6040 0.0000 0.0000
# 5 0.0000 0.0000 0.0000 0.0000 7.9008 0.0000
# 6 0.0000 0.0000 0.0000 0.0000 0.0000 28.1916
#
#
#
# Elastic Compliance Matrix: (Units=1/GPa)
#
#
# Indices 1 2 3 4 5 6 
#
# 1 0.008451 -0.006594 -0.004137 0.000000 0.000000 0.000000
# 2 -0.006594 0.041266 -0.016810 0.000000 0.000000 0.000000
# 3 -0.004137 -0.016810 0.036170 0.000000 0.000000 0.000000
# 4 0.000000 0.000000 0.000000 0.131510 0.000000 0.000000
# 5 0.000000 0.000000 0.000000 0.000000 0.126570 0.000000
# 6 0.000000 0.000000 0.000000 0.000000 0.000000 0.035471
#
#
# Mechanical properties :
#
#
# Convention : Reuss Voigt Hill
#
# Bulk Modulus (GPa) = 32.46180 52.50200 42.48190
# Shear Modulus (GPa) = 11.24130 18.64828 14.94479
#
# Velocity S-wave (km/s) = 2.54365 3.27618 2.93287
# Velocity P-wave (km/s) = 5.22597 6.67305 5.99335
#
# Compressibility (1/GPa) = 0.03080544
#
# Stress axis : x y z
#
# Youngs Moduli (GPa) = 118.32751 24.23302 27.64730
#
# Poissons Ratio (x) = 0.15979 0.11439
# Poissons Ratio (y) = 0.78023 0.46474
# Poissons Ratio (z) = 0.48956 0.40735
#
# Static dielectric constant tensor:
#      x y z
#    x 3.830230 0.000000 0.000000 
#    y 0.000000 2.965660 0.000000 
#    z 0.000000 0.000000 2.717640 
# 
# 
# High freq. dielectric constant tensor:
#      x y z
#    x 1.692400 0.000000 0.000000 
#    y 0.000000 1.638140 0.000000 
#    z 0.000000 0.000000 1.608880 
# 
# From -- ./inp_files/12288.got.cif
#   From: 2010.03.12/outbox.cif.g09.slc.cpg/sg65_7_cif.got.tgz:12288.got - 2010.04.10 20:52:16.
