data_PCOD8265044
_publ_section_title
;
Structure prediction by ZEFSAII (Michael W. Deem and Ramdas Pophale) SiO2 
 PCOD8265044
Probable space group: C M C A
;
_chemical_formula_sum "Si O2"
_cell_formula_units_Z 56
_cell_length_a 15.000000
_cell_length_b 15.000000
_cell_length_c 27.000000
_cell_angle_alpha 90.000000
_cell_angle_beta 90.000000
_cell_angle_gamma 90.000000
_cell_volume 6075.000000
_symmetry_space_group_name_H-M "C M C A"
_symmetry_group_IT_number 64
_symmetry_cell_setting 'orthorhombic'
loop_
_space_group_symop_operation_xyz
x,y,z
-x,1/2-y,1/2+z
x,-y,-z
-x,1/2+y,1/2-z
-x,-y,-z
x,1/2+y,1/2-z
-x,y,z
x,1/2-y,1/2+z
1/2+x,1/2+y,z
1/2-x,-y,1/2+z
1/2+x,1/2-y,-z
1/2-x,y,1/2-z
1/2-x,1/2-y,-z
1/2+x,y,1/2-z
1/2-x,1/2+y,z
1/2+x,-y,1/2+z
loop_
_atom_site_type_symbol
_atom_site_label
_atom_site_fract_x
_atom_site_fract_y
_atom_site_fract_z
Si Si1 0.746666 0.387396 0.098895
Si Si2 0.603793 0.960382 0.794848
Si Si3 0.242396 0.413309 0.875122
Si Si4 0.699538 0.724535 0.048650
Si Si5 0.604400 0.850035 0.694680
Si Si6 0.602335 0.401504 0.017697
Si Si7 0.810454 0.655101 0.797176
O O1 0.767860 0.492337 0.096220
O O2 0.822636 0.319846 0.075637
O O3 0.656569 0.371618 0.067047
O O4 0.742535 0.358008 0.156502
O O5 0.500000 0.955423 0.809405
O O6 0.660877 0.908199 0.836424
O O7 0.622765 0.905640 0.744692
O O8 0.630353 0.065144 0.790752
O O9 0.236358 0.334565 0.915548
O O10 0.337542 0.400451 0.847284
O O11 0.750000 0.750000 0.000000
O O12 0.615946 0.665387 0.029533
O O13 0.500000 0.855692 0.680127
O O14 0.630220 0.745014 0.698010
O O15 0.500000 0.399587 0.033546
O O16 0.631893 0.500000 0.000000
O O17 0.750000 0.668898 0.750000
#
# Coordination Sequence:
#
# PCOD8265044 Si02
#       7
#    16  16  16  16  16  16  16
#     4  10  21  37  59  89 116 162 198 246 304 372
#     4  10  22  39  58  86 122 163 204 251 300 356
#     4  11  20  38  61  86 121 159 201 249 308 365
#     4  10  21  37  58  85 117 152 198 239 308 371
#     4  11  23  38  60  90 124 160 206 254 303 365
#     4  10  20  37  61  91 123 153 198 261 315 360
#     4  11  21  38  64  89 123 162 207 243 306 372
#
# _framework density 9.2181069999999998
#
# number of rings (size 3 to 8) (size 9 to 14) (size 15 to 20)
#    0.000    1.571    2.857    3.429    0.000    1.143 
#    0.000    5.000    0.000    0.000    0.000    8.000 
#    0.000    0.000    0.000    0.000    0.000    0.000 
#
# Total GULP energy -693805.953223 kJ/mol
# GULP energy per Si atom -12389.392022 kJ/mol
# Density = 0.919713 g / cm^3
# Si number density = 9.218107 Si / 1000 Ang^3
#
#
#
# Elastic Constant Matrix: (Units=GPa)
#
#
# Indices 1 2 3 4 5 6 
#
# 1 99.5961 41.6525 47.7549 0.0000 0.0000 0.0000
# 2 41.6525 154.1490 56.8423 0.0000 0.0000 0.0000
# 3 47.7549 56.8423 119.2687 0.0000 0.0000 0.0000
# 4 0.0000 0.0000 0.0000 48.4304 0.0000 0.0000
# 5 0.0000 0.0000 0.0000 0.0000 29.7278 0.0000
# 6 0.0000 0.0000 0.0000 0.0000 0.0000 29.1149
#
#
#
# Elastic Compliance Matrix: (Units=1/GPa)
#
#
# Indices 1 2 3 4 5 6 
#
# 1 0.012876 -0.001915 -0.004243 0.000000 0.000000 0.000000
# 2 -0.001915 0.008155 -0.003120 0.000000 0.000000 0.000000
# 3 -0.004243 -0.003120 0.011570 0.000000 0.000000 0.000000
# 4 0.000000 0.000000 0.000000 0.020648 0.000000 0.000000
# 5 0.000000 0.000000 0.000000 0.000000 0.033639 0.000000
# 6 0.000000 0.000000 0.000000 0.000000 0.000000 0.034347
#
#
# Mechanical properties :
#
#
# Convention : Reuss Voigt Hill
#
# Bulk Modulus (GPa) = 71.19485 73.94591 72.57038
# Shear Modulus (GPa) = 34.60891 36.57223 35.59057
#
# Velocity S-wave (km/s) = 4.33740 4.45873 4.39848
# Velocity P-wave (km/s) = 7.98653 8.16720 8.07737
#
# Compressibility (1/GPa) = 0.01404596
#
# Stress axis : x y z
#
# Youngs Moduli (GPa) = 77.66585 122.62302 86.42840
#
# Poissons Ratio (x) = 0.23477 0.36671
# Poissons Ratio (y) = 0.14870 0.26966
# Poissons Ratio (z) = 0.32953 0.38259
#
# Static dielectric constant tensor:
#      x y z
#    x 3.304990 0.000000 0.000000 
#    y 0.000000 4.166940 0.000000 
#    z 0.000000 0.000000 3.840760 
# 
# 
# High freq. dielectric constant tensor:
#      x y z
#    x 1.691320 0.000000 0.000000 
#    y 0.000000 1.754180 0.000000 
#    z 0.000000 0.000000 1.737150 
# 
# From -- ./inp_files/50089.got.cif
#   From: 2010.03.12/outbox.ucp.g09.slc.cvg/sg64_26_cif.got.tgz:50089.got - 2010.05.04 19:41:48.
