data_PCOD8265697
_publ_section_title
;
Structure prediction by ZEFSAII (Michael W. Deem and Ramdas Pophale) SiO2 
 PCOD8265697
Probable space group: C M M M
;
_chemical_formula_sum "Si O2"
_cell_formula_units_Z 88
_cell_length_a 9.118846
_cell_length_b 27.596093
_cell_length_c 21.587945
_cell_angle_alpha 90.000000
_cell_angle_beta 90.000000
_cell_angle_gamma 90.000000
_cell_volume 5432.488106
_symmetry_space_group_name_H-M "C M M M"
_symmetry_group_IT_number 65
_symmetry_cell_setting 'orthorhombic'
loop_
_space_group_symop_operation_xyz
x,y,z
-x,-y,z
x,-y,-z
-x,y,-z
-x,-y,-z
x,y,-z
-x,y,z
x,-y,z
1/2+x,1/2+y,z
1/2-x,1/2-y,z
1/2+x,1/2-y,-z
1/2-x,1/2+y,-z
1/2-x,1/2-y,-z
1/2+x,1/2+y,-z
1/2-x,1/2+y,z
1/2+x,1/2-y,z
loop_
_atom_site_type_symbol
_atom_site_label
_atom_site_fract_x
_atom_site_fract_y
_atom_site_fract_z
Si Si1 0.826108 0.851706 0.375343
Si Si2 0.325145 0.446332 0.688545
Si Si3 0.174509 0.945243 0.932095
Si Si4 0.824734 0.801949 0.500000
Si Si5 0.172673 0.799166 0.252728
Si Si6 0.826166 0.895213 0.188796
O O1 0.769622 0.906732 0.362126
O O2 0.767058 0.831974 0.440635
O O3 0.772369 0.816058 0.320656
O O4 0.000000 0.852430 0.375605
O O5 0.500000 0.447155 0.688764
O O6 0.263229 0.500000 0.672536
O O7 0.267926 0.430273 0.756451
O O8 0.240739 0.911592 0.877445
O O9 0.000000 0.943980 0.930081
O O10 0.229300 0.000000 0.921032
O O11 0.228496 0.926902 0.000000
O O12 0.750000 0.750000 0.500000
O O13 0.000000 0.795560 0.500000
O O14 0.250000 0.750000 0.232740
O O15 0.219254 0.839875 0.202697
O O16 0.000000 0.790728 0.252862
O O17 0.000000 0.899491 0.187361
#
# Coordination Sequence:
#
# PCOD8265697 Si02
#       6
#    16  16  16   8  16  16
#     4   8  15  25  36  53  75  97 120 149 184 217
#     4   8  12  19  32  49  71  97 120 142 175 221
#     4   8  12  17  27  46  72  98 120 143 176 218
#     4  10  18  28  41  55  75  99 122 152 187 218
#     4   9  16  26  39  54  73  96 123 153 183 214
#     4   8  13  20  31  48  70  96 122 148 179 214
#
# _framework density 16.198839
#
# number of rings (size 3 to 8) (size 9 to 14) (size 15 to 20)
#    0.000    3.636    0.000    3.818    0.000    2.182 
#    0.000    0.455    0.000    3.273    0.000    0.000 
#    0.000   25.455    0.000    2.000    0.000    1.818 
#
# Total GULP energy -545110.426035 kJ/mol
# GULP energy per Si atom -12388.873319 kJ/mol
# Density = 1.616197 g / cm^3
# Si number density = 16.198839 Si / 1000 Ang^3
#
#
#
# Elastic Constant Matrix: (Units=GPa)
#
#
# Indices 1 2 3 4 5 6 
#
# 1 7.6091 16.4909 10.8078 0.0000 0.0000 0.0000
# 2 16.4909 157.2247 88.3444 0.0000 0.0000 0.0000
# 3 10.8078 88.3444 152.2833 0.0000 0.0000 0.0000
# 4 0.0000 0.0000 0.0000 26.5626 0.0000 0.0000
# 5 0.0000 0.0000 0.0000 0.0000 5.2734 0.0000
# 6 0.0000 0.0000 0.0000 0.0000 0.0000 16.6427
#
#
#
# Elastic Compliance Matrix: (Units=1/GPa)
#
#
# Indices 1 2 3 4 5 6 
#
# 1 0.170758 -0.016469 -0.002565 0.000000 0.000000 0.000000
# 2 -0.016469 0.011025 -0.005227 0.000000 0.000000 0.000000
# 3 -0.002565 -0.005227 0.009781 0.000000 0.000000 0.000000
# 4 0.000000 0.000000 0.000000 0.037647 0.000000 0.000000
# 5 0.000000 0.000000 0.000000 0.000000 0.189632 0.000000
# 6 0.000000 0.000000 0.000000 0.000000 0.000000 0.060086
#
#
# Mechanical properties :
#
#
# Convention : Reuss Voigt Hill
#
# Bulk Modulus (GPa) = 6.99096 60.93369 33.96233
# Shear Modulus (GPa) = 8.69367 23.12734 15.91051
#
# Velocity S-wave (km/s) = 2.31916 3.78261 3.13741
# Velocity P-wave (km/s) = 3.39064 7.53494 5.84259
#
# Compressibility (1/GPa) = 0.14304180
#
# Stress axis : x y z
#
# Youngs Moduli (GPa) = 5.85625 90.70486 102.23843
#
# Poissons Ratio (x) = 1.49384 0.26220
# Poissons Ratio (y) = 0.09645 0.53440
# Poissons Ratio (z) = 0.01502 0.47411
#
# Static dielectric constant tensor:
#      x y z
#    x 2.361100 0.000000 0.000000 
#    y 0.000000 3.301360 0.000000 
#    z 0.000000 0.000000 3.528630 
# 
# 
# High freq. dielectric constant tensor:
#      x y z
#    x 1.546520 0.000000 0.000000 
#    y 0.000000 1.626470 0.000000 
#    z 0.000000 0.000000 1.621420 
# 
# From -- ./inp_files/60709.got.cif
#   From: 2010.03.12/outbox.cif.g09.slc.cpg/sg65_31_cif.got.tgz:60709.got - 2010.04.10 20:52:16.
