data_PCOD8265887
_publ_section_title
;
Structure prediction by ZEFSAII (Michael W. Deem and Ramdas Pophale) SiO2 
 PCOD8265887
Probable space group: C M M M
;
_chemical_formula_sum "Si O2"
_cell_formula_units_Z 88
_cell_length_a 23.223463
_cell_length_b 26.669196
_cell_length_c 7.673327
_cell_angle_alpha 90.000000
_cell_angle_beta 90.000000
_cell_angle_gamma 90.000000
_cell_volume 4752.483415
_symmetry_space_group_name_H-M "C M M M"
_symmetry_group_IT_number 65
_symmetry_cell_setting 'orthorhombic'
loop_
_space_group_symop_operation_xyz
x,y,z
-x,-y,z
x,-y,-z
-x,y,-z
-x,-y,-z
x,y,-z
-x,y,z
x,-y,z
1/2+x,1/2+y,z
1/2-x,1/2-y,z
1/2+x,1/2-y,-z
1/2-x,1/2+y,-z
1/2-x,1/2-y,-z
1/2+x,1/2+y,-z
1/2-x,1/2+y,z
1/2+x,1/2-y,z
loop_
_atom_site_type_symbol
_atom_site_label
_atom_site_fract_x
_atom_site_fract_y
_atom_site_fract_z
Si Si1 0.068342 0.383220 0.000000
Si Si2 0.872019 0.558005 0.695914
Si Si3 0.432082 0.770750 0.000000
Si Si4 0.871184 0.903057 0.296528
Si Si5 0.434857 0.500000 0.291729
Si Si6 0.432340 0.696789 0.700930
Si Si7 0.247003 0.943595 0.797197
O O1 0.089713 0.409785 0.174469
O O2 0.093563 0.326707 0.000000
O O3 0.000000 0.384446 0.000000
O O4 0.894975 0.566912 0.500000
O O5 0.877480 0.500000 0.751292
O O6 0.805039 0.574111 0.701866
O O7 0.412063 0.742504 0.823682
O O8 0.500000 0.774344 0.000000
O O9 0.881857 0.904282 0.500000
O O10 0.903399 0.950968 0.212782
O O11 0.898424 0.851666 0.226058
O O12 0.803654 0.905278 0.251767
O O13 0.500000 0.500000 0.224269
O O14 0.432077 0.500000 0.500000
O O15 0.416716 0.709690 0.500000
O O16 0.500000 0.685642 0.720088
O O17 0.229646 0.000000 0.736756
O O18 0.260364 0.942061 0.000000
#
# Coordination Sequence:
#
# PCOD8265887 Si02
#       7
#     8  16   8  16   8  16  16
#     4  11  23  40  62  90 118 141 171 213 266 326
#     4  10  21  38  61  88 119 152 178 206 253 317
#     4   9  20  37  57  78 103 140 182 226 274 323
#     4  10  18  28  47  74 104 143 191 237 278 326
#     4   9  16  26  41  67 107 147 183 232 289 333
#     4   9  18  33  52  75 105 144 191 238 283 327
#     4  10  19  32  51  76 111 149 190 229 265 314
#
# _framework density 18.516635000000001
#
# number of rings (size 3 to 8) (size 9 to 14) (size 15 to 20)
#    0.000    2.273    1.818    1.364    1.273    4.727 
#    0.000    2.727    0.000    2.727    0.000    3.818 
#    0.000    0.000    0.000    0.000    0.000    0.000 
#
# Total GULP energy -545589.482697 kJ/mol
# GULP energy per Si atom -12399.760970 kJ/mol
# Density = 1.847449 g / cm^3
# Si number density = 18.516635 Si / 1000 Ang^3
#
#
#
# Elastic Constant Matrix: (Units=GPa)
#
#
# Indices 1 2 3 4 5 6 
#
# 1 83.9118 58.4383 32.6025 0.0000 0.0000 0.0000
# 2 58.4383 132.8557 63.6674 0.0000 0.0000 0.0000
# 3 32.6025 63.6674 80.8391 0.0000 0.0000 0.0000
# 4 0.0000 0.0000 0.0000 18.9508 0.0000 0.0000
# 5 0.0000 0.0000 0.0000 0.0000 25.2246 0.0000
# 6 0.0000 0.0000 0.0000 0.0000 0.0000 15.5749
#
#
#
# Elastic Compliance Matrix: (Units=1/GPa)
#
#
# Indices 1 2 3 4 5 6 
#
# 1 0.017305 -0.006854 -0.001581 0.000000 0.000000 0.000000
# 2 -0.006854 0.014805 -0.008896 0.000000 0.000000 0.000000
# 3 -0.001581 -0.008896 0.020014 0.000000 0.000000 0.000000
# 4 0.000000 0.000000 0.000000 0.052768 0.000000 0.000000
# 5 0.000000 0.000000 0.000000 0.000000 0.039644 0.000000
# 6 0.000000 0.000000 0.000000 0.000000 0.000000 0.064206
#
#
# Mechanical properties :
#
#
# Convention : Reuss Voigt Hill
#
# Bulk Modulus (GPa) = 57.26672 67.44698 62.35685
# Shear Modulus (GPa) = 20.06223 21.47660 20.76942
#
# Velocity S-wave (km/s) = 3.29518 3.40936 3.35276
# Velocity P-wave (km/s) = 6.74329 7.21127 6.98120
#
# Compressibility (1/GPa) = 0.01746215
#
# Stress axis : x y z
#
# Youngs Moduli (GPa) = 57.78698 67.54499 49.96512
#
# Poissons Ratio (x) = 0.46297 0.07899
# Poissons Ratio (y) = 0.39609 0.44448
# Poissons Ratio (z) = 0.09135 0.60087
#
# Static dielectric constant tensor:
#      x y z
#    x 3.231010 0.000000 0.000000 
#    y 0.000000 3.597140 0.000000 
#    z 0.000000 0.000000 3.392520 
# 
# 
# High freq. dielectric constant tensor:
#      x y z
#    x 1.703070 0.000000 0.000000 
#    y 0.000000 1.696880 0.000000 
#    z 0.000000 0.000000 1.723190 
# 
# From -- ./inp_files/11850.got.cif
#   From: 2010.03.12/outbox.cif.g09.slc.cpg/sg65_6_cif.got.tgz:11850.got - 2010.04.10 20:52:16.
