data_PCOD8265983
_publ_section_title
;
Structure prediction by ZEFSAII (Michael W. Deem and Ramdas Pophale) SiO2 
 PCOD8265983
Probable space group: C M M M
;
_chemical_formula_sum "Si O2"
_cell_formula_units_Z 88
_cell_length_a 8.728593
_cell_length_b 27.591148
_cell_length_c 21.724270
_cell_angle_alpha 90.000000
_cell_angle_beta 90.000000
_cell_angle_gamma 90.000000
_cell_volume 5231.897248
_symmetry_space_group_name_H-M "C M M M"
_symmetry_group_IT_number 65
_symmetry_cell_setting 'orthorhombic'
loop_
_space_group_symop_operation_xyz
x,y,z
-x,-y,z
x,-y,-z
-x,y,-z
-x,-y,-z
x,y,-z
-x,y,z
x,-y,z
1/2+x,1/2+y,z
1/2-x,1/2-y,z
1/2+x,1/2-y,-z
1/2-x,1/2+y,-z
1/2-x,1/2-y,-z
1/2+x,1/2+y,-z
1/2-x,1/2+y,z
1/2+x,1/2-y,z
loop_
_atom_site_type_symbol
_atom_site_label
_atom_site_fract_x
_atom_site_fract_y
_atom_site_fract_z
Si Si1 0.181961 0.352938 0.247669
Si Si2 0.180927 0.196404 0.866530
Si Si3 0.322828 0.301491 0.000000
Si Si4 0.819520 0.553069 0.316038
Si Si5 0.178020 0.613844 0.430367
Si Si6 0.180509 0.199349 0.638477
O O1 0.245270 0.341428 0.180388
O O2 0.238706 0.407041 0.266749
O O3 0.247202 0.314361 0.295848
O O4 0.000000 0.349243 0.248401
O O5 0.250000 0.250000 0.857761
O O6 0.000000 0.199836 0.855292
O O7 0.221331 0.173593 0.934646
O O8 0.250000 0.250000 0.000000
O O9 0.500000 0.291430 0.000000
O O10 0.744645 0.500000 0.303553
O O11 0.775148 0.569983 0.385086
O O12 0.000000 0.548501 0.310254
O O13 0.212645 0.597410 0.500000
O O14 0.277655 0.660771 0.414092
O O15 0.000000 0.627426 0.420769
O O16 0.250000 0.250000 0.616521
O O17 0.000000 0.203352 0.645991
#
# Coordination Sequence:
#
# PCOD8265983 Si02
#       6
#    16  16   8  16  16  16
#     4  10  19  31  47  69  94 119 151 189 228 270
#     4  10  18  29  45  67  96 128 159 188 221 261
#     4   8  16  28  42  62  91 126 159 189 218 255
#     4   8  15  29  49  71  92 114 144 185 230 273
#     4   9  18  32  49  70  94 117 145 182 224 273
#     4  11  21  33  48  65  89 121 155 189 224 264
#
# _framework density 16.819901999999999
#
# number of rings (size 3 to 8) (size 9 to 14) (size 15 to 20)
#    0.000    2.545    0.000    4.364    0.000    1.818 
#    0.000    1.818    0.000   13.636    0.000    5.727 
#    0.000    5.091    0.000    0.000    0.000    0.000 
#
# Total GULP energy -545285.107864 kJ/mol
# GULP energy per Si atom -12392.843361 kJ/mol
# Density = 1.678162 g / cm^3
# Si number density = 16.819902 Si / 1000 Ang^3
#
#
#
# Elastic Constant Matrix: (Units=GPa)
#
#
# Indices 1 2 3 4 5 6 
#
# 1 70.1365 28.8882 37.3178 0.0000 0.0000 0.0000
# 2 28.8882 109.1674 53.7886 0.0000 0.0000 0.0000
# 3 37.3178 53.7886 138.8180 0.0000 0.0000 0.0000
# 4 0.0000 0.0000 0.0000 16.3819 0.0000 0.0000
# 5 0.0000 0.0000 0.0000 0.0000 24.6665 0.0000
# 6 0.0000 0.0000 0.0000 0.0000 0.0000 15.4775
#
#
#
# Elastic Compliance Matrix: (Units=1/GPa)
#
#
# Indices 1 2 3 4 5 6 
#
# 1 0.017317 -0.002829 -0.003559 0.000000 0.000000 0.000000
# 2 -0.002829 0.011784 -0.003805 0.000000 0.000000 0.000000
# 3 -0.003559 -0.003805 0.009635 0.000000 0.000000 0.000000
# 4 0.000000 0.000000 0.000000 0.061043 0.000000 0.000000
# 5 0.000000 0.000000 0.000000 0.000000 0.040541 0.000000
# 6 0.000000 0.000000 0.000000 0.000000 0.000000 0.064610
#
#
# Mechanical properties :
#
#
# Convention : Reuss Voigt Hill
#
# Bulk Modulus (GPa) = 54.49943 62.01235 58.25589
# Shear Modulus (GPa) = 21.60458 24.51366 23.05912
#
# Velocity S-wave (km/s) = 3.58783 3.82176 3.70664
# Velocity P-wave (km/s) = 7.04525 7.51152 7.28212
#
# Compressibility (1/GPa) = 0.01834882
#
# Stress axis : x y z
#
# Youngs Moduli (GPa) = 57.74750 84.86202 103.78838
#
# Poissons Ratio (x) = 0.24006 0.36939
# Poissons Ratio (y) = 0.16336 0.39497
# Poissons Ratio (z) = 0.20553 0.32294
#
# Static dielectric constant tensor:
#      x y z
#    x 3.073020 0.000000 0.000000 
#    y 0.000000 3.181950 0.000000 
#    z 0.000000 0.000000 3.224040 
# 
# 
# High freq. dielectric constant tensor:
#      x y z
#    x 1.642800 0.000000 0.000000 
#    y 0.000000 1.622380 0.000000 
#    z 0.000000 0.000000 1.651010 
# 
# From -- ./inp_files/60306.got.cif
#   From: 2010.03.12/outbox.cif.g09.slc.cpg/sg65_31_cif.got.tgz:60306.got - 2010.04.10 20:52:16.
