data_PCOD8265756
_publ_section_title
;
Structure prediction by ZEFSAII (Michael W. Deem and Ramdas Pophale) SiO2 
 PCOD8265756
Probable space group: C M M M
;
_chemical_formula_sum "Si O2"
_cell_formula_units_Z 104
_cell_length_a 9.566428
_cell_length_b 28.234430
_cell_length_c 21.283999
_cell_angle_alpha 90.000000
_cell_angle_beta 90.000000
_cell_angle_gamma 90.000000
_cell_volume 5748.864356
_symmetry_space_group_name_H-M "C M M M"
_symmetry_group_IT_number 65
_symmetry_cell_setting 'orthorhombic'
loop_
_space_group_symop_operation_xyz
x,y,z
-x,-y,z
x,-y,-z
-x,y,-z
-x,-y,-z
x,y,-z
-x,y,z
x,-y,z
1/2+x,1/2+y,z
1/2-x,1/2-y,z
1/2+x,1/2-y,-z
1/2-x,1/2+y,-z
1/2-x,1/2-y,-z
1/2+x,1/2+y,-z
1/2-x,1/2+y,z
1/2+x,1/2-y,z
loop_
_atom_site_type_symbol
_atom_site_label
_atom_site_fract_x
_atom_site_fract_y
_atom_site_fract_z
Si Si1 0.660613 0.446073 0.763818
Si Si2 0.652207 0.788902 0.262876
Si Si3 0.338335 0.295996 0.429018
Si Si4 0.841415 0.138983 0.315734
Si Si5 0.347863 0.789814 0.880439
Si Si6 0.667059 0.103369 0.126246
Si Si7 0.834502 0.447538 0.000000
O O1 0.500000 0.444140 0.786955
O O2 0.708631 0.500000 0.751406
O O3 0.674921 0.417411 0.697118
O O4 0.757202 0.422664 0.816579
O O5 0.500000 0.791353 0.296166
O O6 0.750000 0.750000 0.297807
O O7 0.732525 0.838561 0.266519
O O8 0.630336 0.774290 0.191300
O O9 0.300437 0.311380 0.500000
O O10 0.500000 0.281937 0.423001
O O11 0.250000 0.250000 0.408758
O O12 0.302457 0.342012 0.385505
O O13 0.000000 0.154947 0.299518
O O14 0.500000 0.789509 0.914230
O O15 0.250000 0.750000 0.913487
O O16 0.282632 0.842365 0.882191
O O17 0.500000 0.101191 0.137995
O O18 0.716978 0.078430 0.062515
O O19 0.769742 0.500000 0.000000
O O20 0.000000 0.449544 0.000000
#
# Coordination Sequence:
#
# PCOD8265756 Si02
#       7
#    16  16  16  16  16  16   8
#     4  10  21  35  51  73 101 131 163 205 258 305
#     4  10  18  28  43  68  99 128 159 194 237 286
#     4   9  18  32  49  71 100 133 166 200 241 289
#     4  10  19  31  48  70  97 131 166 203 246 293
#     4   9  18  30  46  69  98 129 158 193 236 288
#     4  10  19  35  55  77 101 130 168 208 250 297
#     4   9  18  32  54  79  99 125 165 213 258 297
#
# _framework density 18.090530000000001
#
# number of rings (size 3 to 8) (size 9 to 14) (size 15 to 20)
#    0.000    2.385    1.538    1.385    0.000    4.000 
#    0.000    0.769    0.000    1.846    0.000    3.231 
#    0.000    0.000    0.000    6.615    0.000    7.077 
#
# Total GULP energy -644286.620855 kJ/mol
# GULP energy per Si atom -12390.127324 kJ/mol
# Density = 1.804935 g / cm^3
# Si number density = 18.090530 Si / 1000 Ang^3
#
#
#
# Elastic Constant Matrix: (Units=GPa)
#
#
# Indices 1 2 3 4 5 6 
#
# 1 75.6064 55.4582 24.6600 0.0000 0.0000 0.0000
# 2 55.4582 168.9673 55.5893 0.0000 0.0000 0.0000
# 3 24.6600 55.5893 85.0988 0.0000 0.0000 0.0000
# 4 0.0000 0.0000 0.0000 20.1037 0.0000 0.0000
# 5 0.0000 0.0000 0.0000 0.0000 12.2220 0.0000
# 6 0.0000 0.0000 0.0000 0.0000 0.0000 25.0775
#
#
#
# Elastic Compliance Matrix: (Units=1/GPa)
#
#
# Indices 1 2 3 4 5 6 
#
# 1 0.017609 -0.005223 -0.001691 0.000000 0.000000 0.000000
# 2 -0.005223 0.009088 -0.004423 0.000000 0.000000 0.000000
# 3 -0.001691 -0.004423 0.015130 0.000000 0.000000 0.000000
# 4 0.000000 0.000000 0.000000 0.049742 0.000000 0.000000
# 5 0.000000 0.000000 0.000000 0.000000 0.081820 0.000000
# 6 0.000000 0.000000 0.000000 0.000000 0.000000 0.039876
#
#
# Mechanical properties :
#
#
# Convention : Reuss Voigt Hill
#
# Bulk Modulus (GPa) = 52.21038 66.78751 59.49894
# Shear Modulus (GPa) = 20.63354 24.41164 22.52259
#
# Velocity S-wave (km/s) = 3.38090 3.67742 3.53227
# Velocity P-wave (km/s) = 6.64559 7.41821 7.04251
#
# Compressibility (1/GPa) = 0.01915328
#
# Stress axis : x y z
#
# Youngs Moduli (GPa) = 56.78815 110.03741 66.09346
#
# Poissons Ratio (x) = 0.57478 0.11174
# Poissons Ratio (y) = 0.29663 0.29232
# Poissons Ratio (z) = 0.09601 0.48667
#
# Static dielectric constant tensor:
#      x y z
#    x 3.579940 0.000000 0.000000 
#    y 0.000000 3.459970 0.000000 
#    z 0.000000 0.000000 3.225960 
# 
# 
# High freq. dielectric constant tensor:
#      x y z
#    x 1.697790 0.000000 0.000000 
#    y 0.000000 1.694880 0.000000 
#    z 0.000000 0.000000 1.677600 
# 
# From -- ./inp_files/60929.got.cif
#   From: 2010.03.12/outbox.cif.g09.slc.cpg/sg65_31_cif.got.tgz:60929.got - 2010.04.10 20:52:16.
