data_PCOD8265952
_publ_section_title
;
Structure prediction by ZEFSAII (Michael W. Deem and Ramdas Pophale) SiO2 
 PCOD8265952
Probable space group: C M M M
;
_chemical_formula_sum "Si O2"
_cell_formula_units_Z 104
_cell_length_a 9.696508
_cell_length_b 26.176116
_cell_length_c 25.409830
_cell_angle_alpha 90.000000
_cell_angle_beta 90.000000
_cell_angle_gamma 90.000000
_cell_volume 6449.444743
_symmetry_space_group_name_H-M "C M M M"
_symmetry_group_IT_number 65
_symmetry_cell_setting 'orthorhombic'
loop_
_space_group_symop_operation_xyz
x,y,z
-x,-y,z
x,-y,-z
-x,y,-z
-x,-y,-z
x,y,-z
-x,y,z
x,-y,z
1/2+x,1/2+y,z
1/2-x,1/2-y,z
1/2+x,1/2-y,-z
1/2-x,1/2+y,-z
1/2-x,1/2-y,-z
1/2+x,1/2+y,-z
1/2-x,1/2+y,z
1/2+x,1/2-y,z
loop_
_atom_site_type_symbol
_atom_site_label
_atom_site_fract_x
_atom_site_fract_y
_atom_site_fract_z
Si Si1 0.338961 0.598134 0.888864
Si Si2 0.246895 0.810468 0.371613
Si Si3 0.000000 0.193222 0.557666
Si Si4 0.337289 0.443212 0.000000
Si Si5 0.000000 0.685965 0.559450
Si Si6 0.660611 0.940914 0.795401
Si Si7 0.345211 0.702987 0.162697
Si Si8 0.836684 0.861371 0.264500
O O1 0.500000 0.582585 0.878570
O O2 0.238179 0.566475 0.850938
O O3 0.319812 0.658329 0.879543
O O4 0.289504 0.586883 0.948078
O O5 0.250000 0.750000 0.359732
O O6 0.374850 0.831592 0.404292
O O7 0.228628 0.840157 0.317587
O O8 0.128082 0.826851 0.410566
O O9 0.000000 0.168191 0.500000
O O10 0.000000 0.253760 0.552253
O O11 0.272100 0.500000 0.000000
O O12 0.500000 0.447629 0.000000
O O13 0.000000 0.661771 0.500000
O O14 0.500000 0.922300 0.798723
O O15 0.746996 0.910810 0.750915
O O16 0.664878 0.000000 0.779681
O O17 0.500000 0.723646 0.159545
O O18 0.250000 0.750000 0.147846
O O19 0.313801 0.682064 0.220850
O O20 0.000000 0.874802 0.269470
#
# Coordination Sequence:
#
# PCOD8265952 Si02
#       8
#    16  16   8   8   8  16  16  16
#     4   9  18  33  52  75  99 126 161 199 235 282
#     4  10  18  29  44  67  98 130 164 200 235 278
#     4   9  16  28  44  62  93 133 167 198 232 275
#     4   9  16  28  52  79  97 119 159 205 246 285
#     4   9  18  28  42  64  93 133 169 194 232 281
#     4  10  21  35  51  72  98 125 153 190 243 296
#     4   9  18  31  46  66  95 129 163 197 234 278
#     4  10  20  33  48  70  95 124 163 201 238 283
#
# _framework density 16.125419999999998
#
# number of rings (size 3 to 8) (size 9 to 14) (size 15 to 20)
#    0.000    2.538    0.769    2.769    1.077    6.154 
#    0.000    0.769    0.000    1.385    0.000    0.000 
#    0.000    3.692    0.000    0.000    0.000    0.000 
#
# Total GULP energy -644478.690683 kJ/mol
# GULP energy per Si atom -12393.820975 kJ/mol
# Density = 1.608872 g / cm^3
# Si number density = 16.125420 Si / 1000 Ang^3
#
#
#
# Elastic Constant Matrix: (Units=GPa)
#
#
# Indices 1 2 3 4 5 6 
#
# 1 119.5615 47.7849 61.5656 0.0000 0.0000 0.0000
# 2 47.7849 75.1068 52.8378 0.0000 0.0000 0.0000
# 3 61.5656 52.8378 157.9505 0.0000 0.0000 0.0000
# 4 0.0000 0.0000 0.0000 17.7439 0.0000 0.0000
# 5 0.0000 0.0000 0.0000 0.0000 29.0851 0.0000
# 6 0.0000 0.0000 0.0000 0.0000 0.0000 25.9033
#
#
#
# Elastic Compliance Matrix: (Units=1/GPa)
#
#
# Indices 1 2 3 4 5 6 
#
# 1 0.012093 -0.005725 -0.002798 0.000000 0.000000 0.000000
# 2 -0.005725 0.020123 -0.004500 0.000000 0.000000 0.000000
# 3 -0.002798 -0.004500 0.008927 0.000000 0.000000 0.000000
# 4 0.000000 0.000000 0.000000 0.056357 0.000000 0.000000
# 5 0.000000 0.000000 0.000000 0.000000 0.034382 0.000000
# 6 0.000000 0.000000 0.000000 0.000000 0.000000 0.038605
#
#
# Mechanical properties :
#
#
# Convention : Reuss Voigt Hill
#
# Bulk Modulus (GPa) = 66.24356 75.22171 70.73264
# Shear Modulus (GPa) = 24.80577 27.24183 26.02380
#
# Velocity S-wave (km/s) = 3.92637 4.11466 4.02162
# Velocity P-wave (km/s) = 7.85650 8.32605 8.09468
#
# Compressibility (1/GPa) = 0.01509581
#
# Stress axis : x y z
#
# Youngs Moduli (GPa) = 82.69202 49.69539 112.01785
#
# Poissons Ratio (x) = 0.28452 0.31347
# Poissons Ratio (y) = 0.47343 0.50407
# Poissons Ratio (z) = 0.23140 0.22362
#
# Static dielectric constant tensor:
#      x y z
#    x 3.282990 0.000000 0.000000 
#    y 0.000000 2.768120 0.000000 
#    z 0.000000 0.000000 3.176730 
# 
# 
# High freq. dielectric constant tensor:
#      x y z
#    x 1.627930 0.000000 0.000000 
#    y 0.000000 1.585100 0.000000 
#    z 0.000000 0.000000 1.623540 
# 
# From -- ./inp_files/73620.got.cif
#   From: 2010.03.12/outbox.cif.g09.slc.cpg/sg65_37_cif.got.tgz:73620.got - 2010.04.10 20:52:16.
