data_PCOD8265862
_publ_section_title
;
Structure prediction by ZEFSAII (Michael W. Deem and Ramdas Pophale) SiO2 
 PCOD8265862
Probable space group: C M M M
;
_chemical_formula_sum "Si O2"
_cell_formula_units_Z 72
_cell_length_a 9.894649
_cell_length_b 29.404823
_cell_length_c 14.235679
_cell_angle_alpha 90.000000
_cell_angle_beta 90.000000
_cell_angle_gamma 90.000000
_cell_volume 4141.876535
_symmetry_space_group_name_H-M "C M M M"
_symmetry_group_IT_number 65
_symmetry_cell_setting 'orthorhombic'
loop_
_space_group_symop_operation_xyz
x,y,z
-x,-y,z
x,-y,-z
-x,y,-z
-x,-y,-z
x,y,-z
-x,y,z
x,-y,z
1/2+x,1/2+y,z
1/2-x,1/2-y,z
1/2+x,1/2-y,-z
1/2-x,1/2+y,-z
1/2-x,1/2-y,-z
1/2+x,1/2+y,-z
1/2-x,1/2+y,z
1/2+x,1/2-y,z
loop_
_atom_site_type_symbol
_atom_site_label
_atom_site_fract_x
_atom_site_fract_y
_atom_site_fract_z
Si Si1 0.760633 0.448180 0.891459
Si Si2 0.500000 0.550498 0.204525
Si Si3 0.500000 0.586262 0.397422
Si Si4 0.227893 0.159711 0.393753
Si Si5 0.500000 0.730504 0.611274
Si Si6 0.000000 0.325850 0.708635
Si Si7 0.000000 0.379843 0.891659
O O1 0.798652 0.500000 0.858740
O O2 0.634826 0.426362 0.835030
O O3 0.876611 0.412765 0.869618
O O4 0.722961 0.449045 0.000000
O O5 0.500000 0.500000 0.162927
O O6 0.500000 0.548499 0.317341
O O7 0.500000 0.562873 0.500000
O O8 0.634866 0.615641 0.385159
O O9 0.277385 0.167017 0.500000
O O10 0.362139 0.152584 0.332127
O O11 0.136025 0.202771 0.363731
O O12 0.500000 0.743643 0.500000
O O13 0.500000 0.772874 0.681899
O O14 0.000000 0.336497 0.820968
O O15 0.000000 0.362194 0.000000
#
# Coordination Sequence:
#
# PCOD8265862 Si02
#       7
#    16   8   8  16   8   8   8
#     4   9  17  31  50  69  89 114 147 191 237 270
#     4  10  18  28  46  72  95 116 151 192 223 262
#     4   9  18  32  44  60  95 133 155 176 215 267
#     4   9  18  31  48  70  93 117 149 189 228 265
#     4   9  18  32  49  71  96 117 141 183 236 275
#     4  12  19  27  48  71  92 116 147 185 228 271
#     4  10  21  33  45  66  95 124 151 180 221 274
#
# _framework density 17.383424999999999
#
# number of rings (size 3 to 8) (size 9 to 14) (size 15 to 20)
#    0.000    2.444    0.000    5.000    0.000    4.667 
#    0.000    0.000    0.000    2.667    0.000    3.111 
#    0.000   20.444    0.000    0.000    0.000    0.000 
#
# Total GULP energy -446074.533446 kJ/mol
# GULP energy per Si atom -12390.959262 kJ/mol
# Density = 1.734386 g / cm^3
# Si number density = 17.383425 Si / 1000 Ang^3
#
#
#
# Elastic Constant Matrix: (Units=GPa)
#
#
# Indices 1 2 3 4 5 6 
#
# 1 126.0633 18.9057 57.3519 0.0000 0.0000 0.0000
# 2 18.9057 40.4677 35.0966 0.0000 0.0000 0.0000
# 3 57.3519 35.0966 100.8913 0.0000 0.0000 0.0000
# 4 0.0000 0.0000 0.0000 30.4028 0.0000 0.0000
# 5 0.0000 0.0000 0.0000 0.0000 21.7136 0.0000
# 6 0.0000 0.0000 0.0000 0.0000 0.0000 2.5651
#
#
#
# Elastic Compliance Matrix: (Units=1/GPa)
#
#
# Indices 1 2 3 4 5 6 
#
# 1 0.010704 0.000396 -0.006222 0.000000 0.000000 0.000000
# 2 0.000396 0.035402 -0.012540 0.000000 0.000000 0.000000
# 3 -0.006222 -0.012540 0.017811 0.000000 0.000000 0.000000
# 4 0.000000 0.000000 0.000000 0.032892 0.000000 0.000000
# 5 0.000000 0.000000 0.000000 0.000000 0.046054 0.000000
# 6 0.000000 0.000000 0.000000 0.000000 0.000000 0.389846
#
#
# Mechanical properties :
#
#
# Convention : Reuss Voigt Hill
#
# Bulk Modulus (GPa) = 36.78691 54.45896 45.62294
# Shear Modulus (GPa) = 8.64300 21.34085 14.99192
#
# Velocity S-wave (km/s) = 2.23221 3.50759 2.93990
# Velocity P-wave (km/s) = 5.27747 6.91378 6.15029
#
# Compressibility (1/GPa) = 0.02718358
#
# Stress axis : x y z
#
# Youngs Moduli (GPa) = 93.42287 28.24710 56.14484
#
# Poissons Ratio (x) = -0.01118 0.34936
# Poissons Ratio (y) = -0.03698 0.70406
# Poissons Ratio (z) = 0.58132 0.35422
#
# Static dielectric constant tensor:
#      x y z
#    x 3.447620 0.000000 0.000000 
#    y 0.000000 2.963210 0.000000 
#    z 0.000000 0.000000 3.167070 
# 
# 
# High freq. dielectric constant tensor:
#      x y z
#    x 1.690290 0.000000 0.000000 
#    y 0.000000 1.641720 0.000000 
#    z 0.000000 0.000000 1.658500 
# 
# From -- ./inp_files/36737.got.cif
#   From: 2010.03.12/outbox.cif.g09.slc.cpg/sg65_19_cif.got.tgz:36737.got - 2010.04.10 20:52:16.
