data_PCOD8265195
_publ_section_title
;
Structure prediction by ZEFSAII (Michael W. Deem and Ramdas Pophale) SiO2 
 PCOD8265195
Probable space group: C M M M
;
_chemical_formula_sum "Si O2"
_cell_formula_units_Z 56
_cell_length_a 7.664378
_cell_length_b 35.966520
_cell_length_c 10.408200
_cell_angle_alpha 90.000000
_cell_angle_beta 90.000000
_cell_angle_gamma 90.000000
_cell_volume 2869.134868
_symmetry_space_group_name_H-M "C M M M"
_symmetry_group_IT_number 65
_symmetry_cell_setting 'orthorhombic'
loop_
_space_group_symop_operation_xyz
x,y,z
-x,-y,z
x,-y,-z
-x,y,-z
-x,-y,-z
x,y,-z
-x,y,z
x,-y,z
1/2+x,1/2+y,z
1/2-x,1/2-y,z
1/2+x,1/2-y,-z
1/2-x,1/2+y,-z
1/2-x,1/2-y,-z
1/2+x,1/2+y,-z
1/2-x,1/2+y,z
1/2+x,1/2-y,z
loop_
_atom_site_type_symbol
_atom_site_label
_atom_site_fract_x
_atom_site_fract_y
_atom_site_fract_z
Si Si1 0.294714 0.207247 0.500000
Si Si2 0.193712 0.958761 0.347849
Si Si3 0.500000 0.158184 0.139212
Si Si4 0.500000 0.094812 0.653768
Si Si5 0.197059 0.206930 0.226304
O O1 0.500000 0.200167 0.500000
O O2 0.250000 0.250000 0.500000
O O3 0.211185 0.190118 0.371240
O O4 0.199547 0.960625 0.500000
O O5 0.331626 0.928451 0.300756
O O6 0.000000 0.947092 0.300597
O O7 0.240648 0.000000 0.294362
O O8 0.500000 0.131891 0.262978
O O9 0.328460 0.183971 0.138290
O O10 0.500000 0.137343 0.000000
O O11 0.500000 0.103813 0.500000
O O12 0.250000 0.250000 0.224110
O O13 0.000000 0.201918 0.175612
#
# Coordination Sequence:
#
# PCOD8265195 Si02
#       5
#     8  16   8   8  16
#     4  10  16  30  58  89 117 130 167 227 299 355
#     4   8  14  28  55  91 123 150 187 235 283 334
#     4  12  28  43  57  83 118 158 202 250 305 361
#     4  10  21  36  58  84 120 156 194 234 288 351
#     4  11  21  40  63  87 108 143 189 251 306 360
#
# _framework density 19.518077000000002
#
# number of rings (size 3 to 8) (size 9 to 14) (size 15 to 20)
#    0.000    2.000    2.857    4.286    2.000    4.000 
#    0.000    0.000    0.000    1.714    0.000    2.000 
#    0.000    0.000    0.000    0.000    0.000    0.000 
#
# Total GULP energy -346986.529037 kJ/mol
# GULP energy per Si atom -12392.376037 kJ/mol
# Density = 1.947365 g / cm^3
# Si number density = 19.518077 Si / 1000 Ang^3
#
#
#
# Elastic Constant Matrix: (Units=GPa)
#
#
# Indices 1 2 3 4 5 6 
#
# 1 173.7599 59.1836 24.7564 0.0000 0.0000 0.0000
# 2 59.1836 86.2877 31.2824 0.0000 0.0000 0.0000
# 3 24.7564 31.2824 71.4670 0.0000 0.0000 0.0000
# 4 0.0000 0.0000 0.0000 5.4088 0.0000 0.0000
# 5 0.0000 0.0000 0.0000 0.0000 0.9801 0.0000
# 6 0.0000 0.0000 0.0000 0.0000 0.0000 17.6996
#
#
#
# Elastic Compliance Matrix: (Units=1/GPa)
#
#
# Indices 1 2 3 4 5 6 
#
# 1 0.007520 -0.005008 -0.000413 0.000000 0.000000 0.000000
# 2 -0.005008 0.017110 -0.005755 0.000000 0.000000 0.000000
# 3 -0.000413 -0.005755 0.016654 0.000000 0.000000 0.000000
# 4 0.000000 0.000000 0.000000 0.184883 0.000000 0.000000
# 5 0.000000 0.000000 0.000000 0.000000 1.020265 0.000000
# 6 0.000000 0.000000 0.000000 0.000000 0.000000 0.056498
#
#
# Mechanical properties :
#
#
# Convention : Reuss Voigt Hill
#
# Bulk Modulus (GPa) = 52.81652 62.43993 57.62822
# Shear Modulus (GPa) = 3.75490 19.23720 11.49605
#
# Velocity S-wave (km/s) = 1.38852 3.14285 2.42956
# Velocity P-wave (km/s) = 5.44883 6.72534 6.12046
#
# Compressibility (1/GPa) = 0.01893347
#
# Stress axis : x y z
#
# Youngs Moduli (GPa) = 132.98550 58.44422 60.04423
#
# Poissons Ratio (x) = 0.29269 0.02478
# Poissons Ratio (y) = 0.66599 0.34554
# Poissons Ratio (z) = 0.05489 0.33633
#
# Static dielectric constant tensor:
#      x y z
#    x 3.963610 0.000000 0.000000 
#    y 0.000000 3.436140 0.000000 
#    z 0.000000 0.000000 3.436180 
# 
# 
# High freq. dielectric constant tensor:
#      x y z
#    x 1.778880 0.000000 0.000000 
#    y 0.000000 1.734070 0.000000 
#    z 0.000000 0.000000 1.716640 
# 
# From -- ./inp_files/20859.got.cif
#   From: 2010.03.12/outbox.cif.g09.slc.cpg/sg65_11_cif.got.tgz:20859.got - 2010.04.10 20:52:16.
