data_PCOD8265186
_publ_section_title
;
Structure prediction by ZEFSAII (Michael W. Deem and Ramdas Pophale) SiO2 
 PCOD8265186
Probable space group: C M M M
;
_chemical_formula_sum "Si O2"
_cell_formula_units_Z 80
_cell_length_a 23.821704
_cell_length_b 9.019924
_cell_length_c 20.739991
_cell_angle_alpha 90.000000
_cell_angle_beta 90.000000
_cell_angle_gamma 90.000000
_cell_volume 4456.401029
_symmetry_space_group_name_H-M "C M M M"
_symmetry_group_IT_number 65
_symmetry_cell_setting 'orthorhombic'
loop_
_space_group_symop_operation_xyz
x,y,z
-x,-y,z
x,-y,-z
-x,y,-z
-x,-y,-z
x,y,-z
-x,y,z
x,-y,z
1/2+x,1/2+y,z
1/2-x,1/2-y,z
1/2+x,1/2-y,-z
1/2-x,1/2+y,-z
1/2-x,1/2-y,-z
1/2+x,1/2+y,-z
1/2-x,1/2+y,z
1/2+x,1/2-y,z
loop_
_atom_site_type_symbol
_atom_site_label
_atom_site_fract_x
_atom_site_fract_y
_atom_site_fract_z
Si Si1 0.936527 0.676866 0.571220
Si Si2 0.000000 0.663640 0.228525
Si Si3 0.310078 0.177184 0.811314
Si Si4 0.000000 0.173178 0.100911
Si Si5 0.614511 0.831710 0.697439
Si Si6 0.887299 0.330143 0.071121
O O1 0.914969 0.724381 0.500000
O O2 0.938285 0.500000 0.577549
O O3 0.893075 0.740928 0.625733
O O4 0.000000 0.737325 0.581713
O O5 0.053675 0.681497 0.272272
O O6 0.000000 0.500000 0.195512
O O7 0.000000 0.792441 0.176461
O O8 0.250000 0.250000 0.816658
O O9 0.339885 0.240999 0.745923
O O10 0.345544 0.230290 0.873677
O O11 0.305042 0.000000 0.810376
O O12 0.055336 0.239548 0.068817
O O13 0.000000 0.000000 0.088554
O O14 0.633898 0.000000 0.689146
O O15 0.902223 0.500000 0.086998
O O16 0.859007 0.315196 0.000000
#
# Coordination Sequence:
#
# PCOD8265186 Si02
#       6
#    16   8  16   8  16  16
#     4   8  12  18  34  67 105 130 151 191 246 294
#     4  10  16  29  52  74  98 132 170 202 241 301
#     4  10  21  36  53  72  94 127 172 215 252 291
#     4  12  23  33  50  80 113 134 156 198 250 295
#     4   9  15  26  47  70  96 131 165 199 245 298
#     4  10  21  38  58  76  97 131 168 199 242 306
#
# _framework density 17.951706000000001
#
# number of rings (size 3 to 8) (size 9 to 14) (size 15 to 20)
#    0.000    2.400    3.000    1.800    0.000    2.800 
#    0.000    0.000    0.000    0.600    0.000    0.000 
#    0.000    3.200    0.000    0.000    0.000    0.000 
#
# Total GULP energy -495551.871765 kJ/mol
# GULP energy per Si atom -12388.796794 kJ/mol
# Density = 1.791085 g / cm^3
# Si number density = 17.951706 Si / 1000 Ang^3
#
#
#
# Elastic Constant Matrix: (Units=GPa)
#
#
# Indices 1 2 3 4 5 6 
#
# 1 116.4529 26.3380 68.2625 0.0000 0.0000 0.0000
# 2 26.3380 33.1871 21.9385 0.0000 0.0000 0.0000
# 3 68.2625 21.9385 173.7627 0.0000 0.0000 0.0000
# 4 0.0000 0.0000 0.0000 6.9569 0.0000 0.0000
# 5 0.0000 0.0000 0.0000 0.0000 17.3941 0.0000
# 6 0.0000 0.0000 0.0000 0.0000 0.0000 24.7434
#
#
#
# Elastic Compliance Matrix: (Units=1/GPa)
#
#
# Indices 1 2 3 4 5 6 
#
# 1 0.012608 -0.007345 -0.004026 0.000000 0.000000 0.000000
# 2 -0.007345 0.037155 -0.001806 0.000000 0.000000 0.000000
# 3 -0.004026 -0.001806 0.007564 0.000000 0.000000 0.000000
# 4 0.000000 0.000000 0.000000 0.143742 0.000000 0.000000
# 5 0.000000 0.000000 0.000000 0.000000 0.057491 0.000000
# 6 0.000000 0.000000 0.000000 0.000000 0.000000 0.040415
#
#
# Mechanical properties :
#
#
# Convention : Reuss Voigt Hill
#
# Bulk Modulus (GPa) = 32.28405 61.83119 47.05762
# Shear Modulus (GPa) = 14.89638 23.60981 19.25309
#
# Velocity S-wave (km/s) = 2.88376 3.63048 3.27845
# Velocity P-wave (km/s) = 5.39545 7.21746 6.37192
#
# Compressibility (1/GPa) = 0.03097505
#
# Stress axis : x y z
#
# Youngs Moduli (GPa) = 79.31359 26.91438 132.19704
#
# Poissons Ratio (x) = 0.19768 0.53220
# Poissons Ratio (y) = 0.58255 0.23869
# Poissons Ratio (z) = 0.31930 0.04860
#
# Static dielectric constant tensor:
#      x y z
#    x 3.149090 0.000000 0.000000 
#    y 0.000000 2.834300 0.000000 
#    z 0.000000 0.000000 3.896660 
# 
# 
# High freq. dielectric constant tensor:
#      x y z
#    x 1.668970 0.000000 0.000000 
#    y 0.000000 1.637250 0.000000 
#    z 0.000000 0.000000 1.719110 
# 
# From -- ./inp_files/65078.got.cif
#   From: 2010.03.12/outbox.cif.g09.slc.cpg/sg65_33_cif.got.tgz:65078.got - 2010.04.10 20:52:16.
