data_PCOD8265767
_publ_section_title
;
Structure prediction by ZEFSAII (Michael W. Deem and Ramdas Pophale) SiO2 
 PCOD8265767
Probable space group: C M M M
;
_chemical_formula_sum "Si O2"
_cell_formula_units_Z 88
_cell_length_a 22.742788
_cell_length_b 18.946897
_cell_length_c 13.359279
_cell_angle_alpha 90.000000
_cell_angle_beta 90.000000
_cell_angle_gamma 90.000000
_cell_volume 5756.583614
_symmetry_space_group_name_H-M "C M M M"
_symmetry_group_IT_number 65
_symmetry_cell_setting 'orthorhombic'
loop_
_space_group_symop_operation_xyz
x,y,z
-x,-y,z
x,-y,-z
-x,y,-z
-x,-y,-z
x,y,-z
-x,y,z
x,-y,z
1/2+x,1/2+y,z
1/2-x,1/2-y,z
1/2+x,1/2-y,-z
1/2-x,1/2+y,-z
1/2-x,1/2-y,-z
1/2+x,1/2+y,-z
1/2-x,1/2+y,z
1/2+x,1/2-y,z
loop_
_atom_site_type_symbol
_atom_site_label
_atom_site_fract_x
_atom_site_fract_y
_atom_site_fract_z
Si Si1 0.767304 0.825335 0.882053
Si Si2 0.167017 0.576876 0.115295
Si Si3 0.400281 0.684361 0.117981
Si Si4 0.000000 0.078322 0.118051
Si Si5 0.068870 0.333968 0.200225
Si Si6 0.569545 0.078977 0.389487
O O1 0.750000 0.750000 0.834936
O O2 0.722905 0.882947 0.834543
O O3 0.834877 0.842635 0.857259
O O4 0.756599 0.822456 0.000000
O O5 0.160591 0.500000 0.166840
O O6 0.106620 0.620587 0.122356
O O7 0.181184 0.566439 0.000000
O O8 0.442299 0.620832 0.152096
O O9 0.416484 0.751893 0.185132
O O10 0.407841 0.703329 0.000000
O O11 0.000000 0.000000 0.167091
O O12 0.000000 0.070444 0.000000
O O13 0.089532 0.361356 0.310075
O O14 0.000000 0.348040 0.180792
O O15 0.594256 0.098931 0.500000
O O16 0.500000 0.077769 0.393483
O O17 0.591702 0.000000 0.359047
#
# Coordination Sequence:
#
# PCOD8265767 Si02
#       6
#    16  16  16   8  16  16
#     4   9  16  28  43  55  75 113 153 181 207 239
#     4  10  20  30  40  60  88 115 148 185 211 245
#     4  10  18  28  44  64  86 115 148 180 217 257
#     4   9  18  30  42  60  86 113 144 182 216 247
#     4  11  19  27  43  65  89 116 144 169 212 267
#     4   8  15  28  43  59  83 114 145 177 210 248
#
# _framework density 15.286844
#
# number of rings (size 3 to 8) (size 9 to 14) (size 15 to 20)
#    0.000    2.455    2.727    1.636    0.000    2.909 
#    0.000    4.545    0.000    0.000    0.000    2.545 
#    0.000    1.455    0.000    0.000    0.000    0.000 
#
# Total GULP energy -545233.420322 kJ/mol
# GULP energy per Si atom -12391.668644 kJ/mol
# Density = 1.525205 g / cm^3
# Si number density = 15.286844 Si / 1000 Ang^3
#
#
#
# Elastic Constant Matrix: (Units=GPa)
#
#
# Indices 1 2 3 4 5 6 
#
# 1 109.1522 55.9764 10.7081 0.0000 0.0000 0.0000
# 2 55.9764 136.7241 26.8588 0.0000 0.0000 0.0000
# 3 10.7081 26.8588 41.2006 0.0000 0.0000 0.0000
# 4 0.0000 0.0000 0.0000 15.6041 0.0000 0.0000
# 5 0.0000 0.0000 0.0000 0.0000 5.7655 0.0000
# 6 0.0000 0.0000 0.0000 0.0000 0.0000 19.6087
#
#
#
# Elastic Compliance Matrix: (Units=1/GPa)
#
#
# Indices 1 2 3 4 5 6 
#
# 1 0.011597 -0.004766 0.000093 0.000000 0.000000 0.000000
# 2 -0.004766 0.010347 -0.005507 0.000000 0.000000 0.000000
# 3 0.000093 -0.005507 0.027837 0.000000 0.000000 0.000000
# 4 0.000000 0.000000 0.000000 0.064086 0.000000 0.000000
# 5 0.000000 0.000000 0.000000 0.000000 0.173447 0.000000
# 6 0.000000 0.000000 0.000000 0.000000 0.000000 0.050998
#
#
# Mechanical properties :
#
#
# Convention : Reuss Voigt Hill
#
# Bulk Modulus (GPa) = 33.98871 52.68483 43.33677
# Shear Modulus (GPa) = 13.56937 21.09791 17.33364
#
# Velocity S-wave (km/s) = 2.98258 3.71905 3.37099
# Velocity P-wave (km/s) = 5.84322 7.27879 6.60015
#
# Compressibility (1/GPa) = 0.02942153
#
# Stress axis : x y z
#
# Youngs Moduli (GPa) = 86.23250 96.64635 35.92334
#
# Poissons Ratio (x) = 0.46062 -0.00334
# Poissons Ratio (y) = 0.41099 0.19781
# Poissons Ratio (z) = -0.00802 0.53219
#
# Static dielectric constant tensor:
#      x y z
#    x 2.956230 0.000000 0.000000 
#    y 0.000000 3.239510 0.000000 
#    z 0.000000 0.000000 2.715680 
# 
# 
# High freq. dielectric constant tensor:
#      x y z
#    x 1.584720 0.000000 0.000000 
#    y 0.000000 1.591370 0.000000 
#    z 0.000000 0.000000 1.524680 
# 
# From -- ./inp_files/42746.got.cif
#   From: 2010.03.12/outbox.cif.g09.slc.cpg/sg65_22_cif.got.tgz:42746.got - 2010.04.10 20:52:16.
