data_PCOD8265302
_publ_section_title
;
Structure prediction by ZEFSAII (Michael W. Deem and Ramdas Pophale) SiO2 
 PCOD8265302
Probable space group: C M M M
;
_chemical_formula_sum "Si O2"
_cell_formula_units_Z 104
_cell_length_a 22.975405
_cell_length_b 29.888258
_cell_length_c 9.226805
_cell_angle_alpha 90.000000
_cell_angle_beta 90.000000
_cell_angle_gamma 90.000000
_cell_volume 6335.999312
_symmetry_space_group_name_H-M "C M M M"
_symmetry_group_IT_number 65
_symmetry_cell_setting 'orthorhombic'
loop_
_space_group_symop_operation_xyz
x,y,z
-x,-y,z
x,-y,-z
-x,y,-z
-x,-y,-z
x,y,-z
-x,y,z
x,-y,z
1/2+x,1/2+y,z
1/2-x,1/2-y,z
1/2+x,1/2-y,-z
1/2-x,1/2+y,-z
1/2-x,1/2-y,-z
1/2+x,1/2+y,-z
1/2-x,1/2+y,z
1/2+x,1/2-y,z
loop_
_atom_site_type_symbol
_atom_site_label
_atom_site_fract_x
_atom_site_fract_y
_atom_site_fract_z
Si Si1 0.566022 0.116136 0.172917
Si Si2 0.652304 0.947493 0.333881
Si Si3 0.433061 0.309171 0.827447
Si Si4 0.000000 0.949785 0.328123
Si Si5 0.282279 0.450518 0.328120
Si Si6 0.931126 0.712475 0.158291
Si Si7 0.889705 0.107053 0.672272
O O1 0.500000 0.105421 0.221529
O O2 0.607170 0.078186 0.234343
O O3 0.585823 0.165397 0.236059
O O4 0.570341 0.116821 0.000000
O O5 0.642616 0.933289 0.500000
O O6 0.717639 0.934858 0.282153
O O7 0.641582 0.000000 0.314100
O O8 0.500000 0.318982 0.786029
O O9 0.413744 0.259730 0.766258
O O10 0.392511 0.344815 0.747653
O O11 0.424502 0.311650 0.000000
O O12 0.057138 0.923841 0.273590
O O13 0.000000 0.952518 0.500000
O O14 0.000000 0.000000 0.262911
O O15 0.285371 0.453846 0.500000
O O16 0.295564 0.500000 0.264192
O O17 0.330165 0.415631 0.271552
O O18 0.000000 0.712722 0.138452
O O19 0.901670 0.712470 0.000000
O O20 0.890959 0.113416 0.500000
#
# Coordination Sequence:
#
# PCOD8265302 Si02
#       7
#    16  16  16   8  16  16  16
#     4   9  17  30  49  72  94 114 142 180 219 257
#     4   9  18  32  48  66  90 120 151 179 211 258
#     4   9  16  27  43  62  88 119 146 174 219 274
#     4   9  16  24  37  61  89 113 139 179 228 267
#     4   8  15  29  47  63  82 116 157 187 213 254
#     4   7  12  25  44  63  84 115 148 174 207 260
#     4  10  17  26  43  66  88 110 146 193 228 256
#
# _framework density 16.414142999999999
#
# number of rings (size 3 to 8) (size 9 to 14) (size 15 to 20)
#    0.000    3.308    0.769    3.231    0.000    2.769 
#    0.000    3.077    0.000    6.923    0.000    6.462 
#    0.000    0.000    0.000    0.000    0.000    0.000 
#
# Total GULP energy -644198.338904 kJ/mol
# GULP energy per Si atom -12388.429594 kJ/mol
# Density = 1.637678 g / cm^3
# Si number density = 16.414143 Si / 1000 Ang^3
#
#
#
# Elastic Constant Matrix: (Units=GPa)
#
#
# Indices 1 2 3 4 5 6 
#
# 1 100.3265 69.6819 25.0582 0.0000 0.0000 0.0000
# 2 69.6819 116.5503 28.8267 0.0000 0.0000 0.0000
# 3 25.0582 28.8267 21.8406 0.0000 0.0000 0.0000
# 4 0.0000 0.0000 0.0000 -9.2244 0.0000 0.0000
# 5 0.0000 0.0000 0.0000 0.0000 13.8643 0.0000
# 6 0.0000 0.0000 0.0000 0.0000 0.0000 19.3509
#
#
#
# Elastic Compliance Matrix: (Units=1/GPa)
#
#
# Indices 1 2 3 4 5 6 
#
# 1 0.018347 -0.008556 -0.009757 0.000000 0.000000 0.000000
# 2 -0.008556 0.016728 -0.012263 0.000000 0.000000 0.000000
# 3 -0.009757 -0.012263 0.073166 0.000000 0.000000 0.000000
# 4 0.000000 0.000000 0.000000 -0.108408 0.000000 0.000000
# 5 0.000000 0.000000 0.000000 0.000000 0.072128 0.000000
# 6 0.000000 0.000000 0.000000 0.000000 0.000000 0.051677
#
#
# Mechanical properties :
#
#
# Convention : Reuss Voigt Hill
#
# Bulk Modulus (GPa) = 21.23608 53.98344 37.60976
# Shear Modulus (GPa) = 24.93935 12.47488 18.70712
#
# Velocity S-wave (km/s) = 3.90215 2.75982 3.37960
# Velocity P-wave (km/s) = 5.76786 6.56622 6.17994
#
# Compressibility (1/GPa) = 0.04708966
#
# Stress axis : x y z
#
# Youngs Moduli (GPa) = 54.50497 59.77927 13.66747
#
# Poissons Ratio (x) = 0.51146 0.13336
# Poissons Ratio (y) = 0.46633 0.16760
# Poissons Ratio (z) = 0.53183 0.73306
#
# Static dielectric constant tensor:
#      x y z
#    x 3.001910 0.000000 0.000000 
#    y 0.000000 3.449080 0.000000 
#    z 0.000000 0.000000 2.645510 
# 
# 
# High freq. dielectric constant tensor:
#      x y z
#    x 1.607340 0.000000 0.000000 
#    y 0.000000 1.646530 0.000000 
#    z 0.000000 0.000000 1.586820 
# 
# From -- ./inp_files/15030.got.cif
#   From: 2010.03.12/outbox.cif.g09.slc.cpg/sg65_8_cif.got.tgz:15030.got - 2010.04.10 20:52:16.
