data_PCOD8265033
_publ_section_title
;
Structure prediction by ZEFSAII (Michael W. Deem and Ramdas Pophale) SiO2 
 PCOD8265033
Probable space group: C M C A
;
_chemical_formula_sum "Si O2"
_cell_formula_units_Z 96
_cell_length_a 15.340156
_cell_length_b 28.751050
_cell_length_c 10.545673
_cell_angle_alpha 90.000000
_cell_angle_beta 90.000000
_cell_angle_gamma 90.000000
_cell_volume 4651.122593
_symmetry_space_group_name_H-M "C M C A"
_symmetry_group_IT_number 64
_symmetry_cell_setting 'orthorhombic'
loop_
_space_group_symop_operation_xyz
x,y,z
-x,1/2-y,1/2+z
x,-y,-z
-x,1/2+y,1/2-z
-x,-y,-z
x,1/2+y,1/2-z
-x,y,z
x,1/2-y,1/2+z
1/2+x,1/2+y,z
1/2-x,-y,1/2+z
1/2+x,1/2-y,-z
1/2-x,y,1/2-z
1/2-x,1/2-y,-z
1/2+x,y,1/2-z
1/2-x,1/2+y,z
1/2+x,-y,1/2+z
loop_
_atom_site_type_symbol
_atom_site_label
_atom_site_fract_x
_atom_site_fract_y
_atom_site_fract_z
Si Si1 0.843253 0.225033 0.990464
Si Si2 0.150974 0.781756 0.734239
Si Si3 0.896399 0.029104 0.881657
Si Si4 0.604219 0.479324 0.631581
Si Si5 0.099487 0.617589 0.228572
Si Si6 0.399978 0.374316 0.018858
O O1 0.893761 0.227130 0.127335
O O2 0.750000 0.250000 0.000000
O O3 0.894986 0.251419 0.876990
O O4 0.837558 0.170169 0.955908
O O5 0.250000 0.765237 0.750000
O O6 0.151255 0.835704 0.693014
O O7 0.870111 0.083483 0.890632
O O8 0.000000 0.024000 0.884914
O O9 0.859220 0.009868 0.748480
O O10 0.856832 0.000000 0.000000
O O11 0.641271 0.500000 0.500000
O O12 0.500000 0.480024 0.632497
O O13 0.636849 0.426026 0.648667
O O14 0.108746 0.605872 0.376653
O O15 0.000000 0.627184 0.191670
O O16 0.500000 0.359309 0.045528
#
# Coordination Sequence:
#
# PCOD8265033 Si02
#       6
#    16  16  16  16  16  16
#     4   9  18  33  50  68  92 122 163 198 239 287
#     4   9  18  33  51  69  87 125 161 199 237 288
#     4   9  14  24  43  66  95 127 156 188 227 279
#     4   9  16  26  41  66 100 128 151 184 229 283
#     4   9  16  28  47  71  96 125 159 192 234 285
#     4   9  16  27  47  73  98 125 162 202 235 276
#
# _framework density 20.640179
#
# number of rings (size 3 to 8) (size 9 to 14) (size 15 to 20)
#    0.000    3.000    1.667    0.000    0.000    0.667 
#    3.000    0.000    0.000    0.000   13.000    0.000 
#    0.000    0.000    0.000    0.000    0.000    0.167 
#
# Total GULP energy -594709.206755 kJ/mol
# GULP energy per Si atom -12389.775141 kJ/mol
# Density = 2.059320 g / cm^3
# Si number density = 20.640179 Si / 1000 Ang^3
#
#
#
# Elastic Constant Matrix: (Units=GPa)
#
#
# Indices 1 2 3 4 5 6 
#
# 1 18.0007 13.5315 1.1296 0.0000 0.0000 0.0000
# 2 13.5315 174.9059 109.3649 0.0000 0.0000 0.0000
# 3 1.1296 109.3649 173.7843 0.0000 0.0000 0.0000
# 4 0.0000 0.0000 0.0000 43.0360 0.0000 0.0000
# 5 0.0000 0.0000 0.0000 0.0000 5.3541 0.0000
# 6 0.0000 0.0000 0.0000 0.0000 0.0000 19.5366
#
#
#
# Elastic Compliance Matrix: (Units=1/GPa)
#
#
# Indices 1 2 3 4 5 6 
#
# 1 0.060813 -0.007350 0.004230 0.000000 0.000000 0.000000
# 2 -0.007350 0.010315 -0.006444 0.000000 0.000000 0.000000
# 3 0.004230 -0.006444 0.009782 0.000000 0.000000 0.000000
# 4 0.000000 0.000000 0.000000 0.023236 0.000000 0.000000
# 5 0.000000 0.000000 0.000000 0.000000 0.186772 0.000000
# 6 0.000000 0.000000 0.000000 0.000000 0.000000 0.051186
#
#
# Mechanical properties :
#
#
# Convention : Reuss Voigt Hill
#
# Bulk Modulus (GPa) = 16.18566 68.30474 42.24520
# Shear Modulus (GPa) = 13.09502 29.76301 21.42901
#
# Velocity S-wave (km/s) = 2.52155 3.80148 3.22564
# Velocity P-wave (km/s) = 4.04184 7.24108 5.86386
#
# Compressibility (1/GPa) = 0.06178310
#
# Stress axis : x y z
#
# Youngs Moduli (GPa) = 16.44389 96.94606 102.23046
#
# Poissons Ratio (x) = 0.71252 -0.43243
# Poissons Ratio (y) = 0.12086 0.65873
# Poissons Ratio (z) = -0.06956 0.62468
#
# Static dielectric constant tensor:
#      x y z
#    x 3.108830 0.000000 0.000000 
#    y 0.000000 3.836370 0.000000 
#    z 0.000000 0.000000 4.582260 
# 
# 
# High freq. dielectric constant tensor:
#      x y z
#    x 1.751310 0.000000 0.000000 
#    y 0.000000 1.814780 0.000000 
#    z 0.000000 0.000000 1.802740 
# 
# From -- ./inp_files/16320.got.cif
#   From: 2010.03.12/outbox.cif.g09.slc.cpg/sg64_9_cif.got.tgz:16320.got - 2010.04.10 20:19:32.
