data_PCOD8265493
_publ_section_title
;
Structure prediction by ZEFSAII (Michael W. Deem and Ramdas Pophale) SiO2 
 PCOD8265493
Probable space group: C M M M
;
_chemical_formula_sum "Si O2"
_cell_formula_units_Z 104
_cell_length_a 26.956746
_cell_length_b 8.735316
_cell_length_c 24.470182
_cell_angle_alpha 90.000000
_cell_angle_beta 90.000000
_cell_angle_gamma 90.000000
_cell_volume 5762.133104
_symmetry_space_group_name_H-M "C M M M"
_symmetry_group_IT_number 65
_symmetry_cell_setting 'orthorhombic'
loop_
_space_group_symop_operation_xyz
x,y,z
-x,-y,z
x,-y,-z
-x,y,-z
-x,-y,-z
x,y,-z
-x,y,z
x,-y,z
1/2+x,1/2+y,z
1/2-x,1/2-y,z
1/2+x,1/2-y,-z
1/2-x,1/2+y,-z
1/2-x,1/2-y,-z
1/2+x,1/2+y,-z
1/2-x,1/2+y,z
1/2+x,1/2-y,z
loop_
_atom_site_type_symbol
_atom_site_label
_atom_site_fract_x
_atom_site_fract_y
_atom_site_fract_z
Si Si1 0.400957 0.319279 0.623945
Si Si2 0.553976 0.318243 0.264376
Si Si3 0.303038 0.818231 0.651782
Si Si4 0.000000 0.818789 0.437316
Si Si5 0.392933 0.677215 0.840435
Si Si6 0.699901 0.678798 0.769297
Si Si7 0.555459 0.819271 0.060975
O O1 0.395293 0.500000 0.614399
O O2 0.410013 0.272397 0.686730
O O3 0.347776 0.239053 0.611234
O O4 0.448485 0.256249 0.589370
O O5 0.500000 0.251191 0.277499
O O6 0.552995 0.500000 0.260279
O O7 0.571897 0.251389 0.206618
O O8 0.250000 0.750000 0.632087
O O9 0.315033 0.763321 0.713344
O O10 0.299907 0.000000 0.649459
O O11 0.000000 0.767618 0.500000
O O12 0.000000 0.000000 0.429232
O O13 0.404093 0.500000 0.849529
O O14 0.337597 0.706007 0.819133
O O15 0.403008 0.759359 0.897550
O O16 0.704884 0.500000 0.754852
O O17 0.750000 0.750000 0.792708
O O18 0.500000 0.761856 0.077311
O O19 0.556625 0.000000 0.061736
O O20 0.568474 0.759795 0.000000
#
# Coordination Sequence:
#
# PCOD8265493 Si02
#       7
#    16  16  16   8  16  16  16
#     4  10  17  31  53  76 110 146 176 217 261 306
#     4   9  15  25  43  69 100 136 165 194 248 305
#     4  11  21  33  51  76 107 141 181 221 266 322
#     4   9  18  32  57  89 113 145 190 223 256 310
#     4  10  19  30  48  72  99 128 167 207 247 305
#     4  10  19  32  49  72 103 135 168 205 255 311
#     4   9  19  35  51  68  95 130 165 203 253 305
#
# _framework density 18.048870999999998
#
# number of rings (size 3 to 8) (size 9 to 14) (size 15 to 20)
#    0.000    2.231    2.308    3.692    0.000    2.462 
#    0.000    1.154    0.000    1.846    0.000    0.000 
#    0.000    0.000    0.000    0.000    0.000    0.000 
#
# Total GULP energy -644344.250681 kJ/mol
# GULP energy per Si atom -12391.235590 kJ/mol
# Density = 1.800779 g / cm^3
# Si number density = 18.048871 Si / 1000 Ang^3
#
#
#
# Elastic Constant Matrix: (Units=GPa)
#
#
# Indices 1 2 3 4 5 6 
#
# 1 147.3156 46.2349 52.7581 0.0000 0.0000 0.0000
# 2 46.2349 67.2050 25.1161 0.0000 0.0000 0.0000
# 3 52.7581 25.1161 79.5112 0.0000 0.0000 0.0000
# 4 0.0000 0.0000 0.0000 13.3444 0.0000 0.0000
# 5 0.0000 0.0000 0.0000 0.0000 48.0379 0.0000
# 6 0.0000 0.0000 0.0000 0.0000 0.0000 27.5506
#
#
#
# Elastic Compliance Matrix: (Units=1/GPa)
#
#
# Indices 1 2 3 4 5 6 
#
# 1 0.010250 -0.005114 -0.005186 0.000000 0.000000 0.000000
# 2 -0.005114 0.019423 -0.002742 0.000000 0.000000 0.000000
# 3 -0.005186 -0.002742 0.016884 0.000000 0.000000 0.000000
# 4 0.000000 0.000000 0.000000 0.074938 0.000000 0.000000
# 5 0.000000 0.000000 0.000000 0.000000 0.020817 0.000000
# 6 0.000000 0.000000 0.000000 0.000000 0.000000 0.036297
#
#
# Mechanical properties :
#
#
# Convention : Reuss Voigt Hill
#
# Bulk Modulus (GPa) = 48.84411 60.24999 54.54705
# Shear Modulus (GPa) = 23.63875 29.11477 26.37676
#
# Velocity S-wave (km/s) = 3.62292 4.02071 3.82698
# Velocity P-wave (km/s) = 6.67994 7.41679 7.05799
#
# Compressibility (1/GPa) = 0.02047330
#
# Stress axis : x y z
#
# Youngs Moduli (GPa) = 97.55714 51.48594 59.22714
#
# Poissons Ratio (x) = 0.26329 0.30716
# Poissons Ratio (y) = 0.49889 0.16241
# Poissons Ratio (z) = 0.50594 0.14118
#
# Static dielectric constant tensor:
#      x y z
#    x 3.659160 0.000000 0.000000 
#    y 0.000000 3.045660 0.000000 
#    z 0.000000 0.000000 3.196460 
# 
# 
# High freq. dielectric constant tensor:
#      x y z
#    x 1.711950 0.000000 0.000000 
#    y 0.000000 1.671940 0.000000 
#    z 0.000000 0.000000 1.669670 
# 
# From -- ./inp_files/71861.got.cif
#   From: 2010.03.12/outbox.cif.g09.slc.cpg/sg65_36_cif.got.tgz:71861.got - 2010.04.10 20:52:16.
