data_PCOD8265382
_publ_section_title
;
Structure prediction by ZEFSAII (Michael W. Deem and Ramdas Pophale) SiO2 
 PCOD8265382
Probable space group: C M M M
;
_chemical_formula_sum "Si O2"
_cell_formula_units_Z 104
_cell_length_a 23.477389
_cell_length_b 18.902801
_cell_length_c 13.667101
_cell_angle_alpha 90.000000
_cell_angle_beta 90.000000
_cell_angle_gamma 90.000000
_cell_volume 6065.301053
_symmetry_space_group_name_H-M "C M M M"
_symmetry_group_IT_number 65
_symmetry_cell_setting 'orthorhombic'
loop_
_space_group_symop_operation_xyz
x,y,z
-x,-y,z
x,-y,-z
-x,y,-z
-x,-y,-z
x,y,-z
-x,y,z
x,-y,z
1/2+x,1/2+y,z
1/2-x,1/2-y,z
1/2+x,1/2-y,-z
1/2-x,1/2+y,-z
1/2-x,1/2-y,-z
1/2+x,1/2+y,-z
1/2-x,1/2+y,z
1/2+x,1/2-y,z
loop_
_atom_site_type_symbol
_atom_site_label
_atom_site_fract_x
_atom_site_fract_y
_atom_site_fract_z
Si Si1 0.755722 0.500000 0.683553
Si Si2 0.765671 0.000000 0.106189
Si Si3 0.829697 0.780228 0.696427
Si Si4 0.775952 0.349641 0.388929
Si Si5 0.433934 0.354728 0.385009
Si Si6 0.372839 0.500000 0.615407
Si Si7 0.170918 0.851299 0.109579
Si Si8 0.061660 0.923029 0.115520
O O1 0.774309 0.500000 0.798486
O O2 0.784067 0.568090 0.634562
O O3 0.686986 0.500000 0.673634
O O4 0.802652 0.929092 0.112444
O O5 0.733319 0.000000 0.000000
O O6 0.817499 0.697251 0.679333
O O7 0.789999 0.827573 0.625382
O O8 0.895473 0.796743 0.671743
O O9 0.807808 0.797224 0.807644
O O10 0.793626 0.335683 0.500000
O O11 0.427923 0.341912 0.500000
O O12 0.500000 0.347836 0.352887
O O13 0.410430 0.432016 0.355094
O O14 0.358380 0.500000 0.500000
O O15 0.105570 0.862018 0.143572
O O16 0.177539 0.818502 0.000000
O O17 0.000000 0.898928 0.155103
O O18 0.077874 0.000000 0.160598
O O19 0.061117 0.931640 0.000000
#
# Coordination Sequence:
#
# PCOD8265382 Si02
#       8
#     8   8  16  16  16   8  16  16
#     4  12  20  35  56  78  96 130 176 211 256 304
#     4  10  18  30  44  66  99 133 168 204 243 292
#     4  11  21  34  49  72 103 132 169 211 255 305
#     4  11  22  36  55  75  98 128 164 215 265 308
#     4  10  19  31  48  70 101 139 171 200 245 305
#     4  10  17  28  46  72 104 133 168 209 242 292
#     4  10  18  30  46  64  94 137 177 212 247 293
#     4   8  13  22  38  60  88 126 173 217 246 271
#
# _framework density 17.146716999999999
#
# number of rings (size 3 to 8) (size 9 to 14) (size 15 to 20)
#    0.000    1.846    3.846    3.231    0.000    1.538 
#    0.000    2.308    0.000    0.000    0.000    0.538 
#    0.000    2.462    0.000    0.000    0.000    9.615 
#
# Total GULP energy -644370.389823 kJ/mol
# GULP energy per Si atom -12391.738266 kJ/mol
# Density = 1.710769 g / cm^3
# Si number density = 17.146717 Si / 1000 Ang^3
#
#
#
# Elastic Constant Matrix: (Units=GPa)
#
#
# Indices 1 2 3 4 5 6 
#
# 1 55.3126 34.0212 22.6417 0.0000 0.0000 0.0000
# 2 34.0212 103.7042 43.4493 0.0000 0.0000 0.0000
# 3 22.6417 43.4493 103.9982 0.0000 0.0000 0.0000
# 4 0.0000 0.0000 0.0000 23.7004 0.0000 0.0000
# 5 0.0000 0.0000 0.0000 0.0000 9.9358 0.0000
# 6 0.0000 0.0000 0.0000 0.0000 0.0000 24.1815
#
#
#
# Elastic Compliance Matrix: (Units=1/GPa)
#
#
# Indices 1 2 3 4 5 6 
#
# 1 0.023078 -0.006626 -0.002256 0.000000 0.000000 0.000000
# 2 -0.006626 0.013591 -0.004236 0.000000 0.000000 0.000000
# 3 -0.002256 -0.004236 0.011876 0.000000 0.000000 0.000000
# 4 0.000000 0.000000 0.000000 0.042193 0.000000 0.000000
# 5 0.000000 0.000000 0.000000 0.000000 0.100646 0.000000
# 6 0.000000 0.000000 0.000000 0.000000 0.000000 0.041354
#
#
# Mechanical properties :
#
#
# Convention : Reuss Voigt Hill
#
# Bulk Modulus (GPa) = 44.82257 51.47105 48.14681
# Shear Modulus (GPa) = 18.76803 22.42372 20.59588
#
# Velocity S-wave (km/s) = 3.31200 3.62021 3.46953
# Velocity P-wave (km/s) = 6.38930 6.89622 6.64759
#
# Compressibility (1/GPa) = 0.02231019
#
# Stress axis : x y z
#
# Youngs Moduli (GPa) = 43.33156 73.57776 84.20066
#
# Poissons Ratio (x) = 0.48750 0.18998
# Poissons Ratio (y) = 0.28710 0.35665
# Poissons Ratio (z) = 0.09777 0.31165
#
# Static dielectric constant tensor:
#      x y z
#    x 3.120200 0.000000 0.000000 
#    y 0.000000 3.087150 0.000000 
#    z 0.000000 0.000000 3.492760 
# 
# 
# High freq. dielectric constant tensor:
#      x y z
#    x 1.618150 0.000000 0.000000 
#    y 0.000000 1.627760 0.000000 
#    z 0.000000 0.000000 1.686820 
# 
# From -- ./inp_files/46073.got.cif
#   From: 2010.03.12/outbox.cif.g09.slc.cpg/sg65_24_cif.got.tgz:46073.got - 2010.04.10 20:52:16.
