data_PCOD8265235
_publ_section_title
;
Structure prediction by ZEFSAII (Michael W. Deem and Ramdas Pophale) SiO2 
 PCOD8265235
Probable space group: C M M M
;
_chemical_formula_sum "Si O2"
_cell_formula_units_Z 72
_cell_length_a 19.126732
_cell_length_b 8.751153
_cell_length_c 23.810304
_cell_angle_alpha 90.000000
_cell_angle_beta 90.000000
_cell_angle_gamma 90.000000
_cell_volume 3985.391497
_symmetry_space_group_name_H-M "C M M M"
_symmetry_group_IT_number 65
_symmetry_cell_setting 'orthorhombic'
loop_
_space_group_symop_operation_xyz
x,y,z
-x,-y,z
x,-y,-z
-x,y,-z
-x,-y,-z
x,y,-z
-x,y,z
x,-y,z
1/2+x,1/2+y,z
1/2-x,1/2-y,z
1/2+x,1/2-y,-z
1/2-x,1/2+y,-z
1/2-x,1/2-y,-z
1/2+x,1/2+y,-z
1/2-x,1/2+y,z
1/2+x,1/2-y,z
loop_
_atom_site_type_symbol
_atom_site_label
_atom_site_fract_x
_atom_site_fract_y
_atom_site_fract_z
Si Si1 0.827546 0.318636 0.329755
Si Si2 0.173489 0.181609 0.216720
Si Si3 0.416949 0.827445 0.000000
Si Si4 0.579163 0.319884 0.113315
Si Si5 0.826099 0.821794 0.560927
O O1 0.827111 0.500000 0.326781
O O2 0.750000 0.250000 0.331992
O O3 0.862313 0.249878 0.273368
O O4 0.866623 0.261174 0.387068
O O5 0.250000 0.250000 0.206996
O O6 0.125369 0.235962 0.165425
O O7 0.178374 0.000000 0.221723
O O8 0.387773 0.747680 0.056174
O O9 0.500000 0.812966 0.000000
O O10 0.390359 0.000000 0.000000
O O11 0.500000 0.260621 0.122782
O O12 0.580539 0.500000 0.107543
O O13 0.864038 0.797149 0.500000
O O14 0.750000 0.750000 0.556130
O O15 0.819303 0.000000 0.574925
#
# Coordination Sequence:
#
# PCOD8265235 Si02
#       5
#    16  16   8  16  16
#     4  10  17  25  38  55  80 113 147 181 219 265
#     4  10  19  31  47  66  91 121 152 185 222 266
#     4   9  17  29  48  73  96 117 143 181 226 267
#     4   9  18  33  52  71  91 118 151 185 221 263
#     4   9  15  22  33  50  74 105 142 182 221 261
#
# _framework density 18.065978000000001
#
# number of rings (size 3 to 8) (size 9 to 14) (size 15 to 20)
#    0.000    2.556    0.000    6.333    0.000    4.444 
#    0.000    0.556    0.000    0.000    0.000    0.000 
#    0.000    0.889    0.000   10.222    0.000    8.000 
#
# Total GULP energy -446065.924995 kJ/mol
# GULP energy per Si atom -12390.720139 kJ/mol
# Density = 1.802486 g / cm^3
# Si number density = 18.065978 Si / 1000 Ang^3
#
#
#
# Elastic Constant Matrix: (Units=GPa)
#
#
# Indices 1 2 3 4 5 6 
#
# 1 29.0893 18.4425 43.3086 0.0000 0.0000 0.0000
# 2 18.4425 100.7307 72.4671 0.0000 0.0000 0.0000
# 3 43.3086 72.4671 226.3545 0.0000 0.0000 0.0000
# 4 0.0000 0.0000 0.0000 33.6648 0.0000 0.0000
# 5 0.0000 0.0000 0.0000 0.0000 2.3796 0.0000
# 6 0.0000 0.0000 0.0000 0.0000 0.0000 11.7818
#
#
#
# Elastic Compliance Matrix: (Units=1/GPa)
#
#
# Indices 1 2 3 4 5 6 
#
# 1 0.048703 -0.002875 -0.008398 0.000000 0.000000 0.000000
# 2 -0.002875 0.013068 -0.003634 0.000000 0.000000 0.000000
# 3 -0.008398 -0.003634 0.007188 0.000000 0.000000 0.000000
# 4 0.000000 0.000000 0.000000 0.029705 0.000000 0.000000
# 5 0.000000 0.000000 0.000000 0.000000 0.420242 0.000000
# 6 0.000000 0.000000 0.000000 0.000000 0.000000 0.084877
#
#
# Mechanical properties :
#
#
# Convention : Reuss Voigt Hill
#
# Bulk Modulus (GPa) = 25.54598 69.40121 47.47359
# Shear Modulus (GPa) = 7.73224 24.36233 16.04728
#
# Velocity S-wave (km/s) = 2.07106 3.67620 2.98360
# Velocity P-wave (km/s) = 4.45984 7.51785 6.18095
#
# Compressibility (1/GPa) = 0.03914511
#
# Stress axis : x y z
#
# Youngs Moduli (GPa) = 20.53279 76.52332 139.12307
#
# Poissons Ratio (x) = 0.22003 1.16833
# Poissons Ratio (y) = 0.05904 0.50551
# Poissons Ratio (z) = 0.17243 0.27805
#
# Static dielectric constant tensor:
#      x y z
#    x 2.720640 0.000000 0.000000 
#    y 0.000000 3.418070 0.000000 
#    z 0.000000 0.000000 4.637480 
# 
# 
# High freq. dielectric constant tensor:
#      x y z
#    x 1.609590 0.000000 0.000000 
#    y 0.000000 1.712660 0.000000 
#    z 0.000000 0.000000 1.737690 
# 
# From -- ./inp_files/59999.got.cif
#   From: 2010.03.12/outbox.cif.g09.slc.cpg/sg65_30_cif.got.tgz:59999.got - 2010.04.10 20:52:16.
