data_PCOD8265947
_publ_section_title
;
Structure prediction by ZEFSAII (Michael W. Deem and Ramdas Pophale) SiO2 
 PCOD8265947
Probable space group: C M M M
;
_chemical_formula_sum "Si O2"
_cell_formula_units_Z 96
_cell_length_a 27.033924
_cell_length_b 8.932796
_cell_length_c 24.133391
_cell_angle_alpha 90.000000
_cell_angle_beta 90.000000
_cell_angle_gamma 90.000000
_cell_volume 5827.937072
_symmetry_space_group_name_H-M "C M M M"
_symmetry_group_IT_number 65
_symmetry_cell_setting 'orthorhombic'
loop_
_space_group_symop_operation_xyz
x,y,z
-x,-y,z
x,-y,-z
-x,y,-z
-x,-y,-z
x,y,-z
-x,y,z
x,-y,z
1/2+x,1/2+y,z
1/2-x,1/2-y,z
1/2+x,1/2-y,-z
1/2-x,1/2+y,-z
1/2-x,1/2-y,-z
1/2+x,1/2+y,-z
1/2-x,1/2+y,z
1/2+x,1/2-y,z
loop_
_atom_site_type_symbol
_atom_site_label
_atom_site_fract_x
_atom_site_fract_y
_atom_site_fract_z
Si Si1 0.151361 0.676350 0.223145
Si Si2 0.301384 0.328591 0.000000
Si Si3 0.899224 0.823878 0.613696
Si Si4 0.556395 0.321525 0.500000
Si Si5 0.800419 0.822362 0.326732
Si Si6 0.696123 0.323347 0.879953
Si Si7 0.445186 0.828165 0.714427
O O1 0.162052 0.500000 0.222227
O O2 0.188396 0.753086 0.266611
O O3 0.159173 0.746848 0.163029
O O4 0.094763 0.715203 0.238932
O O5 0.250000 0.250000 0.000000
O O6 0.328095 0.290478 0.941343
O O7 0.287297 0.500000 0.000000
O O8 0.914317 0.759027 0.553667
O O9 0.843356 0.776284 0.629833
O O10 0.937779 0.765087 0.658732
O O11 0.904331 0.000000 0.613449
O O12 0.556313 0.500000 0.500000
O O13 0.500000 0.261536 0.500000
O O14 0.750000 0.750000 0.349722
O O15 0.795110 0.000000 0.321041
O O16 0.700475 0.500000 0.868069
O O17 0.750000 0.250000 0.874191
O O18 0.500000 0.795262 0.738205
O O19 0.438493 0.000000 0.697544
#
# Coordination Sequence:
#
# PCOD8265947 Si02
#       7
#    16   8  16   8  16  16  16
#     4  10  19  30  45  66  90 116 147 181 219 261
#     4   8  16  28  42  60  85 118 149 179 214 253
#     4   9  18  31  48  69  90 114 146 181 216 260
#     4   9  16  28  48  71  91 111 139 179 224 265
#     4  10  19  31  46  64  88 118 150 182 217 257
#     4  10  18  29  44  64  91 120 150 181 215 255
#     4   9  18  32  48  66  90 117 143 177 222 266
#
# _framework density 16.472382
#
# number of rings (size 3 to 8) (size 9 to 14) (size 15 to 20)
#    0.000    2.583    0.000    2.500    0.000    3.000 
#    0.000    0.833    0.000    1.500    0.000    0.583 
#    0.000    4.667    0.000    0.000    0.000    0.000 
#
# Total GULP energy -594941.770718 kJ/mol
# GULP energy per Si atom -12394.620223 kJ/mol
# Density = 1.643489 g / cm^3
# Si number density = 16.472382 Si / 1000 Ang^3
#
#
#
# Elastic Constant Matrix: (Units=GPa)
#
#
# Indices 1 2 3 4 5 6 
#
# 1 105.4702 32.0961 61.8834 0.0000 0.0000 0.0000
# 2 32.0961 50.5473 39.7231 0.0000 0.0000 0.0000
# 3 61.8834 39.7231 145.5110 0.0000 0.0000 0.0000
# 4 0.0000 0.0000 0.0000 17.1744 0.0000 0.0000
# 5 0.0000 0.0000 0.0000 0.0000 18.8604 0.0000
# 6 0.0000 0.0000 0.0000 0.0000 0.0000 19.7608
#
#
#
# Elastic Compliance Matrix: (Units=1/GPa)
#
#
# Indices 1 2 3 4 5 6 
#
# 1 0.013637 -0.005222 -0.004374 0.000000 0.000000 0.000000
# 2 -0.005222 0.027186 -0.005201 0.000000 0.000000 0.000000
# 3 -0.004374 -0.005201 0.010152 0.000000 0.000000 0.000000
# 4 0.000000 0.000000 0.000000 0.058226 0.000000 0.000000
# 5 0.000000 0.000000 0.000000 0.000000 0.053021 0.000000
# 6 0.000000 0.000000 0.000000 0.000000 0.000000 0.050605
#
#
# Mechanical properties :
#
#
# Convention : Reuss Voigt Hill
#
# Bulk Modulus (GPa) = 46.76782 63.21484 54.99133
# Shear Modulus (GPa) = 20.03620 22.34752 21.19186
#
# Velocity S-wave (km/s) = 3.49141 3.68729 3.59068
# Velocity P-wave (km/s) = 6.68629 7.52248 7.11668
#
# Compressibility (1/GPa) = 0.02138223
#
# Stress axis : x y z
#
# Youngs Moduli (GPa) = 73.33111 36.78336 98.49939
#
# Poissons Ratio (x) = 0.19207 0.43084
# Poissons Ratio (y) = 0.38290 0.51229
# Poissons Ratio (z) = 0.32075 0.19131
#
# Static dielectric constant tensor:
#      x y z
#    x 3.088990 0.000000 0.000000 
#    y 0.000000 3.095370 0.000000 
#    z 0.000000 0.000000 3.493700 
# 
# 
# High freq. dielectric constant tensor:
#      x y z
#    x 1.616370 0.000000 0.000000 
#    y 0.000000 1.637260 0.000000 
#    z 0.000000 0.000000 1.630350 
# 
# From -- ./inp_files/71703.got.cif
#   From: 2010.03.12/outbox.cif.g09.slc.cpg/sg65_36_cif.got.tgz:71703.got - 2010.04.10 20:52:16.
