data_PCOD8265064
_publ_section_title
;
Structure prediction by ZEFSAII (Michael W. Deem and Ramdas Pophale) SiO2 
 PCOD8265064
Probable space group: C M M M
;
_chemical_formula_sum "Si O2"
_cell_formula_units_Z 96
_cell_length_a 19.839716
_cell_length_b 18.643190
_cell_length_c 16.752441
_cell_angle_alpha 90.000000
_cell_angle_beta 90.000000
_cell_angle_gamma 90.000000
_cell_volume 6196.319081
_symmetry_space_group_name_H-M "C M M M"
_symmetry_group_IT_number 65
_symmetry_cell_setting 'orthorhombic'
loop_
_space_group_symop_operation_xyz
x,y,z
-x,-y,z
x,-y,-z
-x,y,-z
-x,-y,-z
x,y,-z
-x,y,z
x,-y,z
1/2+x,1/2+y,z
1/2-x,1/2-y,z
1/2+x,1/2-y,-z
1/2-x,1/2+y,-z
1/2-x,1/2-y,-z
1/2+x,1/2+y,-z
1/2-x,1/2+y,z
1/2+x,1/2-y,z
loop_
_atom_site_type_symbol
_atom_site_label
_atom_site_fract_x
_atom_site_fract_y
_atom_site_fract_z
Si Si1 0.128498 0.417040 0.409669
Si Si2 0.922733 0.672389 0.266766
Si Si3 0.170132 0.420057 0.830509
Si Si4 0.180775 0.204463 0.249519
Si Si5 0.739575 0.578436 0.673283
Si Si6 0.224068 0.829615 0.085985
O O1 0.109158 0.396604 0.500000
O O2 0.111559 0.500000 0.391065
O O3 0.084388 0.368647 0.350751
O O4 0.208933 0.403954 0.398694
O O5 0.896635 0.624857 0.192250
O O6 0.882403 0.747015 0.271126
O O7 0.000000 0.691143 0.251124
O O8 0.149561 0.500000 0.858159
O O9 0.215661 0.422497 0.752341
O O10 0.211790 0.381495 0.900184
O O11 0.250000 0.250000 0.250822
O O12 0.184050 0.141104 0.316269
O O13 0.172239 0.168323 0.161057
O O14 0.705165 0.500000 0.660618
O O15 0.250000 0.750000 0.077458
O O16 0.190905 0.852094 0.000000
#
# Coordination Sequence:
#
# PCOD8265064 Si02
#       6
#    16  16  16  16  16  16
#     4   9  17  29  45  67  94 122 153 187 226 274
#     4  11  20  30  44  64  91 126 162 189 220 269
#     4   9  16  27  42  64  90 116 147 181 217 266
#     4  10  15  30  48  66  88 116 154 191 226 269
#     4   8  14  26  46  66  86 113 146 188 231 269
#     4   9  15  26  47  67  83 110 148 190 229 261
#
# _framework density 15.493069
#
# number of rings (size 3 to 8) (size 9 to 14) (size 15 to 20)
#    0.000    2.667    6.667    1.500    0.000    2.000 
#    0.000    2.500    0.000    2.500    0.000    1.167 
#    0.000    0.000    0.000   14.000    0.000    0.000 
#
# Total GULP energy -594710.630594 kJ/mol
# GULP energy per Si atom -12389.804804 kJ/mol
# Density = 1.545781 g / cm^3
# Si number density = 15.493069 Si / 1000 Ang^3
#
#
#
# Elastic Constant Matrix: (Units=GPa)
#
#
# Indices 1 2 3 4 5 6 
#
# 1 69.5375 48.9051 15.6578 0.0000 0.0000 0.0000
# 2 48.9051 87.0070 10.0244 0.0000 0.0000 0.0000
# 3 15.6578 10.0244 50.6639 0.0000 0.0000 0.0000
# 4 0.0000 0.0000 0.0000 23.4192 0.0000 0.0000
# 5 0.0000 0.0000 0.0000 0.0000 7.4420 0.0000
# 6 0.0000 0.0000 0.0000 0.0000 0.0000 16.1443
#
#
#
# Elastic Compliance Matrix: (Units=1/GPa)
#
#
# Indices 1 2 3 4 5 6 
#
# 1 0.024988 -0.013462 -0.005059 0.000000 0.000000 0.000000
# 2 -0.013462 0.019014 0.000398 0.000000 0.000000 0.000000
# 3 -0.005059 0.000398 0.021223 0.000000 0.000000 0.000000
# 4 0.000000 0.000000 0.000000 0.042700 0.000000 0.000000
# 5 0.000000 0.000000 0.000000 0.000000 0.134373 0.000000
# 6 0.000000 0.000000 0.000000 0.000000 0.000000 0.061941
#
#
# Mechanical properties :
#
#
# Convention : Reuss Voigt Hill
#
# Bulk Modulus (GPa) = 34.50769 39.59810 37.05289
# Shear Modulus (GPa) = 14.27983 18.24251 16.26117
#
# Velocity S-wave (km/s) = 3.03923 3.43514 3.24323
# Velocity P-wave (km/s) = 5.88534 6.43021 6.16380
#
# Compressibility (1/GPa) = 0.02897905
#
# Stress axis : x y z
#
# Youngs Moduli (GPa) = 40.01956 52.59175 47.11970
#
# Poissons Ratio (x) = 0.70801 0.23837
# Poissons Ratio (y) = 0.53876 -0.01877
# Poissons Ratio (z) = 0.20245 -0.02095
#
# Static dielectric constant tensor:
#      x y z
#    x 2.523040 0.000000 0.000000 
#    y 0.000000 3.419170 0.000000 
#    z 0.000000 0.000000 3.251110 
# 
# 
# High freq. dielectric constant tensor:
#      x y z
#    x 1.531740 0.000000 0.000000 
#    y 0.000000 1.599810 0.000000 
#    z 0.000000 0.000000 1.586240 
# 
# From -- ./inp_files/54735.got.cif
#   From: 2010.03.12/outbox.cif.g09.slc.cpg/sg65_28_cif.got.tgz:54735.got - 2010.04.10 20:52:16.
