data_PCOD8265752
_publ_section_title
;
Structure prediction by ZEFSAII (Michael W. Deem and Ramdas Pophale) SiO2 
 PCOD8265752
Probable space group: C M M M
;
_chemical_formula_sum "Si O2"
_cell_formula_units_Z 72
_cell_length_a 21.530160
_cell_length_b 20.155894
_cell_length_c 10.370151
_cell_angle_alpha 90.000000
_cell_angle_beta 90.000000
_cell_angle_gamma 90.000000
_cell_volume 4500.226816
_symmetry_space_group_name_H-M "C M M M"
_symmetry_group_IT_number 65
_symmetry_cell_setting 'orthorhombic'
loop_
_space_group_symop_operation_xyz
x,y,z
-x,-y,z
x,-y,-z
-x,y,-z
-x,-y,-z
x,y,-z
-x,y,z
x,-y,z
1/2+x,1/2+y,z
1/2-x,1/2-y,z
1/2+x,1/2-y,-z
1/2-x,1/2+y,-z
1/2-x,1/2-y,-z
1/2+x,1/2+y,-z
1/2-x,1/2+y,z
1/2+x,1/2-y,z
loop_
_atom_site_type_symbol
_atom_site_label
_atom_site_fract_x
_atom_site_fract_y
_atom_site_fract_z
Si Si1 0.850211 0.281203 0.000000
Si Si2 0.752974 0.578018 0.246828
Si Si3 0.717256 0.650149 0.000000
Si Si4 0.845633 0.274736 0.500000
Si Si5 0.780898 0.143812 0.500000
Si Si6 0.500000 0.078493 0.350321
Si Si7 0.117370 0.653082 0.744489
O O1 0.782298 0.312338 0.000000
O O2 0.840373 0.201639 0.000000
O O3 0.888832 0.304489 0.124715
O O4 0.759987 0.500000 0.235150
O O5 0.715414 0.597185 0.375165
O O6 0.821464 0.608351 0.251614
O O7 0.713158 0.604830 0.126786
O O8 0.837988 0.195299 0.500000
O O9 0.780828 0.312759 0.500000
O O10 0.882902 0.294717 0.627608
O O11 0.500000 0.101383 0.500000
O O12 0.440339 0.104550 0.273905
O O13 0.500000 0.000000 0.341737
#
# Coordination Sequence:
#
# PCOD8265752 Si02
#       7
#     8  16   8   8   8   8  16
#     4   9  18  31  49  66  88 114 157 198 235 273
#     4  10  18  28  43  66  95 125 155 185 226 281
#     4   9  17  30  46  66  89 122 150 185 233 287
#     4   9  16  29  45  62  84 116 161 198 235 277
#     4   9  17  26  42  64  87 116 154 197 233 271
#     4  11  22  35  49  67  93 129 168 202 233 262
#     4  10  19  32  47  66  88 125 164 200 230 261
#
# _framework density 15.999193999999999
#
# number of rings (size 3 to 8) (size 9 to 14) (size 15 to 20)
#    0.000    2.333    1.111    2.667    0.000    5.778 
#    0.000    2.222    0.000    0.000    0.000    0.000 
#    0.000    0.000    0.000   70.000    0.000    0.000 
#
# Total GULP energy -446372.768933 kJ/mol
# GULP energy per Si atom -12399.243581 kJ/mol
# Density = 1.596278 g / cm^3
# Si number density = 15.999194 Si / 1000 Ang^3
#
#
#
# Elastic Constant Matrix: (Units=GPa)
#
#
# Indices 1 2 3 4 5 6 
#
# 1 40.4683 35.8911 34.4854 0.0000 0.0000 0.0000
# 2 35.8911 98.8566 63.7036 0.0000 0.0000 0.0000
# 3 34.4854 63.7036 164.3205 0.0000 0.0000 0.0000
# 4 0.0000 0.0000 0.0000 26.4563 0.0000 0.0000
# 5 0.0000 0.0000 0.0000 0.0000 2.3062 0.0000
# 6 0.0000 0.0000 0.0000 0.0000 0.0000 26.0902
#
#
#
# Elastic Compliance Matrix: (Units=1/GPa)
#
#
# Indices 1 2 3 4 5 6 
#
# 1 0.037891 -0.011507 -0.003491 0.000000 0.000000 0.000000
# 2 -0.011507 0.016979 -0.004167 0.000000 0.000000 0.000000
# 3 -0.003491 -0.004167 0.008434 0.000000 0.000000 0.000000
# 4 0.000000 0.000000 0.000000 0.037798 0.000000 0.000000
# 5 0.000000 0.000000 0.000000 0.000000 0.433612 0.000000
# 6 0.000000 0.000000 0.000000 0.000000 0.000000 0.038329
#
#
# Mechanical properties :
#
#
# Convention : Reuss Voigt Hill
#
# Bulk Modulus (GPa) = 40.04347 63.53396 51.78871
# Shear Modulus (GPa) = 8.06844 22.27491 15.17168
#
# Velocity S-wave (km/s) = 2.24811 3.73534 3.08275
# Velocity P-wave (km/s) = 5.64105 7.64203 6.71647
#
# Compressibility (1/GPa) = 0.02497286
#
# Stress axis : x y z
#
# Youngs Moduli (GPa) = 26.39132 58.89630 118.56874
#
# Poissons Ratio (x) = 0.67773 0.41392
# Poissons Ratio (y) = 0.30369 0.49412
# Poissons Ratio (z) = 0.09213 0.24544
#
# Static dielectric constant tensor:
#      x y z
#    x 2.638330 0.000000 0.000000 
#    y 0.000000 3.029300 0.000000 
#    z 0.000000 0.000000 3.342290 
# 
# 
# High freq. dielectric constant tensor:
#      x y z
#    x 1.558770 0.000000 0.000000 
#    y 0.000000 1.612530 0.000000 
#    z 0.000000 0.000000 1.636310 
# 
# From -- ./inp_files/11364.got.cif
#   From: 2010.03.12/outbox.cif.g09.slc.cpg/sg65_6_cif.got.tgz:11364.got - 2010.04.10 20:52:16.
