data_PCOD8265325
_publ_section_title
;
Structure prediction by ZEFSAII (Michael W. Deem and Ramdas Pophale) SiO2 
 PCOD8265325
Probable space group: C M M M
;
_chemical_formula_sum "Si O2"
_cell_formula_units_Z 128
_cell_length_a 22.957979
_cell_length_b 20.012512
_cell_length_c 17.750782
_cell_angle_alpha 90.000000
_cell_angle_beta 90.000000
_cell_angle_gamma 90.000000
_cell_volume 8155.540524
_symmetry_space_group_name_H-M "C M M M"
_symmetry_group_IT_number 65
_symmetry_cell_setting 'orthorhombic'
loop_
_space_group_symop_operation_xyz
x,y,z
-x,-y,z
x,-y,-z
-x,y,-z
-x,-y,-z
x,y,-z
-x,y,z
x,-y,z
1/2+x,1/2+y,z
1/2-x,1/2-y,z
1/2+x,1/2-y,-z
1/2-x,1/2+y,-z
1/2-x,1/2-y,-z
1/2+x,1/2+y,-z
1/2-x,1/2+y,z
1/2+x,1/2-y,z
loop_
_atom_site_type_symbol
_atom_site_label
_atom_site_fract_x
_atom_site_fract_y
_atom_site_fract_z
Si Si1 0.563384 0.421984 0.362886
Si Si2 0.876580 0.924185 0.912845
Si Si3 0.193179 0.295027 0.081158
Si Si4 0.244214 0.573846 0.136306
Si Si5 0.565084 0.345702 0.783241
Si Si6 0.837331 0.249030 0.763856
Si Si7 0.812339 0.077947 0.585796
Si Si8 0.256754 0.144777 0.283460
O O1 0.500000 0.392723 0.392024
O O2 0.562023 0.500000 0.376604
O O3 0.569530 0.407632 0.274312
O O4 0.621234 0.394178 0.405054
O O5 0.811224 0.919181 0.884692
O O6 0.913291 0.871590 0.863980
O O7 0.900098 0.000000 0.902555
O O8 0.881122 0.902430 0.000000
O O9 0.250000 0.250000 0.084614
O O10 0.208190 0.373192 0.088233
O O11 0.152897 0.273618 0.150339
O O12 0.161757 0.284868 0.000000
O O13 0.221404 0.500000 0.115652
O O14 0.234613 0.583321 0.226470
O O15 0.500000 0.318882 0.792714
O O16 0.600837 0.284354 0.744644
O O17 0.788915 0.191627 0.759871
O O18 0.816931 0.311117 0.709725
O O19 0.792721 0.088616 0.500000
O O20 0.766718 0.120060 0.636004
O O21 0.809289 0.000000 0.609046
#
# Coordination Sequence:
#
# PCOD8265325 Si02
#       8
#    16  16  16  16  16  16  16  16
#     4   9  17  29  45  63  87 123 161 191 215 242
#     4  10  19  28  38  57  89 123 154 191 232 266
#     4  10  17  27  42  61  87 118 150 189 232 273
#     4  10  17  27  45  67  89 119 155 190 227 267
#     4  11  20  31  46  60  80 114 160 201 223 255
#     4  10  18  31  45  64  82 118 156 185 226 277
#     4  10  19  30  47  71  96 119 144 179 223 266
#     4  10  17  31  47  64  90 115 146 187 225 277
#
# _framework density 15.694851999999999
#
# number of rings (size 3 to 8) (size 9 to 14) (size 15 to 20)
#    0.000    2.000    5.000    1.125    0.000    5.500 
#    0.000    3.125    0.000    0.000    0.000    0.000 
#    0.000   12.500    0.000    5.875    0.000    0.000 
#
# Total GULP energy -792884.456111 kJ/mol
# GULP energy per Si atom -12388.819627 kJ/mol
# Density = 1.565913 g / cm^3
# Si number density = 15.694852 Si / 1000 Ang^3
#
#
#
# Elastic Constant Matrix: (Units=GPa)
#
#
# Indices 1 2 3 4 5 6 
#
# 1 49.2353 24.6243 15.5706 0.0000 0.0000 0.0000
# 2 24.6243 62.8518 23.0607 0.0000 0.0000 0.0000
# 3 15.5706 23.0607 75.7264 0.0000 0.0000 0.0000
# 4 0.0000 0.0000 0.0000 18.0716 0.0000 0.0000
# 5 0.0000 0.0000 0.0000 0.0000 -28.1017 0.0000
# 6 0.0000 0.0000 0.0000 0.0000 0.0000 18.8657
#
#
#
# Elastic Compliance Matrix: (Units=1/GPa)
#
#
# Indices 1 2 3 4 5 6 
#
# 1 0.025672 -0.009143 -0.002494 0.000000 0.000000 0.000000
# 2 -0.009143 0.021168 -0.004566 0.000000 0.000000 0.000000
# 3 -0.002494 -0.004566 0.015109 0.000000 0.000000 0.000000
# 4 0.000000 0.000000 0.000000 0.055335 0.000000 0.000000
# 5 0.000000 0.000000 0.000000 0.000000 -0.035585 0.000000
# 6 0.000000 0.000000 0.000000 0.000000 0.000000 0.053006
#
#
# Mechanical properties :
#
#
# Convention : Reuss Voigt Hill
#
# Bulk Modulus (GPa) = 33.85011 34.92497 34.38754
# Shear Modulus (GPa) = 28.25506 10.07098 19.16302
#
# Velocity S-wave (km/s) = 4.24757 2.53588 3.49804
# Velocity P-wave (km/s) = 6.75798 5.55653 6.18649
#
# Compressibility (1/GPa) = 0.02954200
#
# Stress axis : x y z
#
# Youngs Moduli (GPa) = 38.95287 47.24149 66.18620
#
# Poissons Ratio (x) = 0.43192 0.16509
# Poissons Ratio (y) = 0.35613 0.30223
# Poissons Ratio (z) = 0.09716 0.21572
#
# Static dielectric constant tensor:
#      x y z
#    x 2.913760 0.000000 0.000000 
#    y 0.000000 3.108980 0.000000 
#    z 0.000000 0.000000 2.974240 
# 
# 
# High freq. dielectric constant tensor:
#      x y z
#    x 1.558480 0.000000 0.000000 
#    y 0.000000 1.590010 0.000000 
#    z 0.000000 0.000000 1.598880 
# 
# From -- ./inp_files/56322.got.cif
#   From: 2010.03.12/outbox.cif.g09.slc.cpg/sg65_29_cif.got.tgz:56322.got - 2010.04.10 20:52:16.
