data_PCOD8265342
_publ_section_title
;
Structure prediction by ZEFSAII (Michael W. Deem and Ramdas Pophale) SiO2 
 PCOD8265342
Probable space group: C M M M
;
_chemical_formula_sum "Si O2"
_cell_formula_units_Z 72
_cell_length_a 25.683998
_cell_length_b 7.652690
_cell_length_c 21.091580
_cell_angle_alpha 90.000000
_cell_angle_beta 90.000000
_cell_angle_gamma 90.000000
_cell_volume 4145.585370
_symmetry_space_group_name_H-M "C M M M"
_symmetry_group_IT_number 65
_symmetry_cell_setting 'orthorhombic'
loop_
_space_group_symop_operation_xyz
x,y,z
-x,-y,z
x,-y,-z
-x,y,-z
-x,-y,-z
x,y,-z
-x,y,z
x,-y,z
1/2+x,1/2+y,z
1/2-x,1/2-y,z
1/2+x,1/2-y,-z
1/2-x,1/2+y,-z
1/2-x,1/2-y,-z
1/2+x,1/2+y,-z
1/2-x,1/2+y,z
1/2+x,1/2-y,z
loop_
_atom_site_type_symbol
_atom_site_label
_atom_site_fract_x
_atom_site_fract_y
_atom_site_fract_z
Si Si1 0.129571 0.694005 0.242033
Si Si2 0.061239 0.000000 0.197190
Si Si3 0.190542 0.299328 0.118612
Si Si4 0.689607 0.294265 0.637002
Si Si5 0.309543 0.296036 0.500000
Si Si6 0.378953 0.500000 0.070030
O O1 0.106672 0.500000 0.231057
O O2 0.082836 0.829588 0.232968
O O3 0.175365 0.734676 0.191803
O O4 0.154198 0.700285 0.311522
O O5 0.076095 0.000000 0.122922
O O6 0.000000 0.000000 0.203861
O O7 0.180706 0.500000 0.098449
O O8 0.250000 0.250000 0.109082
O O9 0.155991 0.173945 0.075012
O O10 0.682027 0.500000 0.643898
O O11 0.750000 0.250000 0.647303
O O12 0.668663 0.225061 0.567569
O O13 0.318010 0.500000 0.500000
O O14 0.250000 0.250000 0.500000
O O15 0.404631 0.500000 0.000000
#
# Coordination Sequence:
#
# PCOD8265342 Si02
#       6
#    16   8  16  16   8   8
#     4  10  20  33  53  78 102 131 174 215 262 311
#     4  10  22  41  60  77 100 126 165 224 271 307
#     4  10  19  32  49  74 108 142 170 204 242 293
#     4  10  17  27  44  72 109 148 178 209 247 298
#     4   8  16  26  38  62 104 147 182 207 237 287
#     4  10  22  37  54  78 105 135 171 202 245 309
#
# _framework density 17.367874
#
# number of rings (size 3 to 8) (size 9 to 14) (size 15 to 20)
#    0.000    2.222    2.222    1.333    0.000    4.222 
#    0.000    0.000    0.000    0.000    0.000    7.778 
#    0.000    1.778    0.000    0.000    0.000    0.000 
#
# Total GULP energy -446156.184429 kJ/mol
# GULP energy per Si atom -12393.227345 kJ/mol
# Density = 1.732834 g / cm^3
# Si number density = 17.367874 Si / 1000 Ang^3
#
#
#
# Elastic Constant Matrix: (Units=GPa)
#
#
# Indices 1 2 3 4 5 6 
#
# 1 80.8649 31.9598 33.2457 0.0000 0.0000 0.0000
# 2 31.9598 104.5751 28.5188 0.0000 0.0000 0.0000
# 3 33.2457 28.5188 127.0548 0.0000 0.0000 0.0000
# 4 0.0000 0.0000 0.0000 12.0029 0.0000 0.0000
# 5 0.0000 0.0000 0.0000 0.0000 10.4558 0.0000
# 6 0.0000 0.0000 0.0000 0.0000 0.0000 14.5043
#
#
#
# Elastic Compliance Matrix: (Units=1/GPa)
#
#
# Indices 1 2 3 4 5 6 
#
# 1 0.015139 -0.003778 -0.003113 0.000000 0.000000 0.000000
# 2 -0.003778 0.011129 -0.001509 0.000000 0.000000 0.000000
# 3 -0.003113 -0.001509 0.009024 0.000000 0.000000 0.000000
# 4 0.000000 0.000000 0.000000 0.083313 0.000000 0.000000
# 5 0.000000 0.000000 0.000000 0.000000 0.095641 0.000000
# 6 0.000000 0.000000 0.000000 0.000000 0.000000 0.068945
#
#
# Mechanical properties :
#
#
# Convention : Reuss Voigt Hill
#
# Bulk Modulus (GPa) = 54.08086 55.54927 54.81506
# Shear Modulus (GPa) = 16.33156 21.97731 19.15443
#
# Velocity S-wave (km/s) = 3.06981 3.56111 3.32455
# Velocity P-wave (km/s) = 6.61597 6.99728 6.80930
#
# Compressibility (1/GPa) = 0.01849083
#
# Stress axis : x y z
#
# Youngs Moduli (GPa) = 66.05281 89.85779 110.81416
#
# Poissons Ratio (x) = 0.33946 0.34502
# Poissons Ratio (y) = 0.24953 0.16727
# Poissons Ratio (z) = 0.20565 0.13564
#
# Static dielectric constant tensor:
#      x y z
#    x 2.698050 0.000000 0.000000 
#    y 0.000000 3.518390 0.000000 
#    z 0.000000 0.000000 3.584210 
# 
# 
# High freq. dielectric constant tensor:
#      x y z
#    x 1.608940 0.000000 0.000000 
#    y 0.000000 1.690150 0.000000 
#    z 0.000000 0.000000 1.683360 
# 
# From -- ./inp_files/64395.got.cif
#   From: 2010.03.12/outbox.cif.g09.slc.cpg/sg65_33_cif.got.tgz:64395.got - 2010.04.10 20:52:16.
