data_PCOD8265813
_publ_section_title
;
Structure prediction by ZEFSAII (Michael W. Deem and Ramdas Pophale) SiO2 
 PCOD8265813
Probable space group: C M M M
;
_chemical_formula_sum "Si O2"
_cell_formula_units_Z 88
_cell_length_a 19.307989
_cell_length_b 7.778470
_cell_length_c 32.024730
_cell_angle_alpha 90.000000
_cell_angle_beta 90.000000
_cell_angle_gamma 90.000000
_cell_volume 4809.685737
_symmetry_space_group_name_H-M "C M M M"
_symmetry_group_IT_number 65
_symmetry_cell_setting 'orthorhombic'
loop_
_space_group_symop_operation_xyz
x,y,z
-x,-y,z
x,-y,-z
-x,y,-z
-x,-y,-z
x,y,-z
-x,y,z
x,-y,z
1/2+x,1/2+y,z
1/2-x,1/2-y,z
1/2+x,1/2-y,-z
1/2-x,1/2+y,-z
1/2-x,1/2-y,-z
1/2+x,1/2+y,-z
1/2-x,1/2+y,z
1/2+x,1/2-y,z
loop_
_atom_site_type_symbol
_atom_site_label
_atom_site_fract_x
_atom_site_fract_y
_atom_site_fract_z
Si Si1 0.081002 0.799629 0.164807
Si Si2 0.829396 0.699538 0.000000
Si Si3 0.670346 0.303754 0.911140
Si Si4 0.917960 0.500000 0.681449
Si Si5 0.081262 0.801920 0.378576
Si Si6 0.581717 0.000000 0.225802
Si Si7 0.174055 0.201368 0.453988
O O1 0.122486 0.722349 0.124786
O O2 0.104803 0.676146 0.202692
O O3 0.000000 0.778231 0.154845
O O4 0.097886 0.000000 0.175663
O O5 0.750000 0.750000 0.000000
O O6 0.862656 0.769145 0.042928
O O7 0.838872 0.500000 0.000000
O O8 0.666554 0.500000 0.901297
O O9 0.750000 0.250000 0.908258
O O10 0.893704 0.674872 0.658293
O O11 0.885019 0.500000 0.727886
O O12 0.000000 0.500000 0.684287
O O13 0.117879 0.733676 0.420689
O O14 0.000000 0.785572 0.386533
O O15 0.101486 0.000000 0.367426
O O16 0.500000 0.000000 0.229595
O O17 0.161046 0.285259 0.500000
O O18 0.250000 0.250000 0.437348
O O19 0.167084 0.000000 0.458219
#
# Coordination Sequence:
#
# PCOD8265813 Si02
#       7
#    16   8  16   8  16   8  16
#     4   9  19  34  52  76 101 129 166 204 247 297
#     4  10  18  28  45  68  99 129 166 204 234 288
#     4  10  19  31  50  73  98 131 164 203 245 290
#     4   9  18  32  51  78 100 126 164 202 254 304
#     4   9  18  32  50  74 102 130 163 207 250 292
#     4   9  18  32  54  76 100 128 159 207 251 298
#     4   9  18  31  48  72  99 133 172 205 242 291
#
# _framework density 18.296415
#
# number of rings (size 3 to 8) (size 9 to 14) (size 15 to 20)
#    0.000    2.727    0.000    2.455    3.818    1.091 
#    0.000    5.909    0.000    5.455    0.000    0.000 
#    0.000    0.000    0.000    0.000    0.000    0.000 
#
# Total GULP energy -545194.129540 kJ/mol
# GULP energy per Si atom -12390.775671 kJ/mol
# Density = 1.825477 g / cm^3
# Si number density = 18.296415 Si / 1000 Ang^3
#
#
#
# Elastic Constant Matrix: (Units=GPa)
#
#
# Indices 1 2 3 4 5 6 
#
# 1 43.8091 24.5264 53.3040 0.0000 0.0000 0.0000
# 2 24.5264 82.9998 65.0497 0.0000 0.0000 0.0000
# 3 53.3040 65.0497 178.8638 0.0000 0.0000 0.0000
# 4 0.0000 0.0000 0.0000 27.8215 0.0000 0.0000
# 5 0.0000 0.0000 0.0000 0.0000 23.8298 0.0000
# 6 0.0000 0.0000 0.0000 0.0000 0.0000 17.8155
#
#
#
# Elastic Compliance Matrix: (Units=1/GPa)
#
#
# Indices 1 2 3 4 5 6 
#
# 1 0.036392 -0.003153 -0.009699 0.000000 0.000000 0.000000
# 2 -0.003153 0.017124 -0.005288 0.000000 0.000000 0.000000
# 3 -0.009699 -0.005288 0.010405 0.000000 0.000000 0.000000
# 4 0.000000 0.000000 0.000000 0.035943 0.000000 0.000000
# 5 0.000000 0.000000 0.000000 0.000000 0.041964 0.000000
# 6 0.000000 0.000000 0.000000 0.000000 0.000000 0.056131
#
#
# Mechanical properties :
#
#
# Convention : Reuss Voigt Hill
#
# Bulk Modulus (GPa) = 36.17734 65.71479 50.94606
# Shear Modulus (GPa) = 20.53783 24.74620 22.64201
#
# Velocity S-wave (km/s) = 3.35402 3.68165 3.52164
# Velocity P-wave (km/s) = 5.90043 7.35306 6.66643
#
# Compressibility (1/GPa) = 0.02764161
#
# Stress axis : x y z
#
# Youngs Moduli (GPa) = 27.47845 58.39598 96.11187
#
# Poissons Ratio (x) = 0.18410 0.93218
# Poissons Ratio (y) = 0.08663 0.50828
# Poissons Ratio (z) = 0.26651 0.30882
#
# Static dielectric constant tensor:
#      x y z
#    x 2.940470 0.000000 0.000000 
#    y 0.000000 3.497190 0.000000 
#    z 0.000000 0.000000 3.873210 
# 
# 
# High freq. dielectric constant tensor:
#      x y z
#    x 1.668770 0.000000 0.000000 
#    y 0.000000 1.719510 0.000000 
#    z 0.000000 0.000000 1.712670 
# 
# From -- ./inp_files/77988.got.cif
#   From: 2010.03.12/outbox.cif.g09.slc.cpg/sg65_39_cif.got.tgz:77988.got - 2010.04.10 20:52:16.
