data_PCOD8265550
_publ_section_title
;
Structure prediction by ZEFSAII (Michael W. Deem and Ramdas Pophale) SiO2 
 PCOD8265550
Probable space group: C M M M
;
_chemical_formula_sum "Si O2"
_cell_formula_units_Z 88
_cell_length_a 30.069127
_cell_length_b 23.657327
_cell_length_c 9.211289
_cell_angle_alpha 90.000000
_cell_angle_beta 90.000000
_cell_angle_gamma 90.000000
_cell_volume 6552.498053
_symmetry_space_group_name_H-M "C M M M"
_symmetry_group_IT_number 65
_symmetry_cell_setting 'orthorhombic'
loop_
_space_group_symop_operation_xyz
x,y,z
-x,-y,z
x,-y,-z
-x,y,-z
-x,-y,-z
x,y,-z
-x,y,z
x,-y,z
1/2+x,1/2+y,z
1/2-x,1/2-y,z
1/2+x,1/2-y,-z
1/2-x,1/2+y,-z
1/2-x,1/2-y,-z
1/2+x,1/2+y,-z
1/2-x,1/2+y,z
1/2+x,1/2-y,z
loop_
_atom_site_type_symbol
_atom_site_label
_atom_site_fract_x
_atom_site_fract_y
_atom_site_fract_z
Si Si1 0.796696 0.218661 0.663808
Si Si2 0.000000 0.435949 0.672573
Si Si3 0.838180 0.316497 0.829525
Si Si4 0.746173 0.376970 0.169865
Si Si5 0.907498 0.388042 0.666100
Si Si6 0.351832 0.000000 0.340458
Si Si7 0.235697 0.500000 0.829739
O O1 0.814192 0.209661 0.500000
O O2 0.750000 0.250000 0.663956
O O3 0.831736 0.255652 0.754109
O O4 0.790314 0.158119 0.740753
O O5 0.957303 0.399781 0.723859
O O6 0.000000 0.500000 0.737952
O O7 0.000000 0.441717 0.500000
O O8 0.796512 0.357439 0.793171
O O9 0.883657 0.342116 0.767271
O O10 0.843179 0.306829 0.000000
O O11 0.739878 0.442331 0.220357
O O12 0.736621 0.368163 0.000000
O O13 0.907248 0.366058 0.500000
O O14 0.882495 0.446565 0.680308
O O15 0.329423 0.000000 0.500000
O O16 0.314551 0.000000 0.220765
O O17 0.232085 0.500000 0.000000
#
# Coordination Sequence:
#
# PCOD8265550 Si02
#       7
#    16   8  16  16  16   8   8
#     4   9  17  28  41  56  74  94 122 159 195 229
#     4   9  16  28  43  57  75 101 131 164 203 244
#     4  10  18  28  42  56  74  98 126 160 198 237
#     4   9  17  27  39  55  76 101 127 154 190 232
#     4  10  18  28  42  58  74  97 131 167 203 240
#     4  10  18  25  38  56  74  96 128 168 201 233
#     4  10  18  28  39  55  79 106 130 155 191 238
#
# _framework density 13.429993
#
# number of rings (size 3 to 8) (size 9 to 14) (size 15 to 20)
#    0.000    2.455    2.727    1.091    0.000    3.636 
#    0.000    0.455    0.000    0.545    0.000    0.000 
#    0.000    0.000    0.000    0.000    0.000    0.909 
#
# Total GULP energy -545451.703827 kJ/mol
# GULP energy per Si atom -12396.629632 kJ/mol
# Density = 1.339943 g / cm^3
# Si number density = 13.429993 Si / 1000 Ang^3
#
#
#
# Elastic Constant Matrix: (Units=GPa)
#
#
# Indices 1 2 3 4 5 6 
#
# 1 59.1104 46.5505 32.8527 0.0000 0.0000 0.0000
# 2 46.5505 103.6479 48.4408 0.0000 0.0000 0.0000
# 3 32.8527 48.4408 58.8686 0.0000 0.0000 0.0000
# 4 0.0000 0.0000 0.0000 22.5559 0.0000 0.0000
# 5 0.0000 0.0000 0.0000 0.0000 14.0650 0.0000
# 6 0.0000 0.0000 0.0000 0.0000 0.0000 48.2995
#
#
#
# Elastic Compliance Matrix: (Units=1/GPa)
#
#
# Indices 1 2 3 4 5 6 
#
# 1 0.028732 -0.008791 -0.008800 0.000000 0.000000 0.000000
# 2 -0.008791 0.018367 -0.010207 0.000000 0.000000 0.000000
# 3 -0.008800 -0.010207 0.030298 0.000000 0.000000 0.000000
# 4 0.000000 0.000000 0.000000 0.044334 0.000000 0.000000
# 5 0.000000 0.000000 0.000000 0.000000 0.071098 0.000000
# 6 0.000000 0.000000 0.000000 0.000000 0.000000 0.020704
#
#
# Mechanical properties :
#
#
# Convention : Reuss Voigt Hill
#
# Bulk Modulus (GPa) = 45.87506 53.03499 49.45502
# Shear Modulus (GPa) = 18.08993 23.23628 20.66310
#
# Velocity S-wave (km/s) = 3.67410 4.16405 3.92673
# Velocity P-wave (km/s) = 7.22714 7.91801 7.58045
#
# Compressibility (1/GPa) = 0.02179834
#
# Stress axis : x y z
#
# Youngs Moduli (GPa) = 34.80462 54.44594 33.00602
#
# Poissons Ratio (x) = 0.47864 0.29047
# Poissons Ratio (y) = 0.30597 0.33690
# Poissons Ratio (z) = 0.30630 0.55575
#
# Static dielectric constant tensor:
#      x y z
#    x 2.468670 0.000000 0.000000 
#    y 0.000000 2.773900 0.000000 
#    z 0.000000 0.000000 2.720580 
# 
# 
# High freq. dielectric constant tensor:
#      x y z
#    x 1.465100 0.000000 0.000000 
#    y 0.000000 1.502250 0.000000 
#    z 0.000000 0.000000 1.514180 
# 
# From -- ./inp_files/15013.got.cif
#   From: 2010.03.12/outbox.cif.g09.slc.cpg/sg65_8_cif.got.tgz:15013.got - 2010.04.10 20:52:16.
