data_PCOD8265385
_publ_section_title
;
Structure prediction by ZEFSAII (Michael W. Deem and Ramdas Pophale) SiO2 
 PCOD8265385
Probable space group: C M M M
;
_chemical_formula_sum "Si O2"
_cell_formula_units_Z 80
_cell_length_a 9.200513
_cell_length_b 25.504724
_cell_length_c 22.397691
_cell_angle_alpha 90.000000
_cell_angle_beta 90.000000
_cell_angle_gamma 90.000000
_cell_volume 5255.764780
_symmetry_space_group_name_H-M "C M M M"
_symmetry_group_IT_number 65
_symmetry_cell_setting 'orthorhombic'
loop_
_space_group_symop_operation_xyz
x,y,z
-x,-y,z
x,-y,-z
-x,y,-z
-x,-y,-z
x,y,-z
-x,y,z
x,-y,z
1/2+x,1/2+y,z
1/2-x,1/2-y,z
1/2+x,1/2-y,-z
1/2-x,1/2+y,-z
1/2-x,1/2-y,-z
1/2+x,1/2+y,-z
1/2-x,1/2+y,z
1/2+x,1/2-y,z
loop_
_atom_site_type_symbol
_atom_site_label
_atom_site_fract_x
_atom_site_fract_y
_atom_site_fract_z
Si Si1 0.827905 0.103780 0.634726
Si Si2 0.169909 0.696329 0.431169
Si Si3 0.327752 0.500000 0.433255
Si Si4 0.172257 0.058107 0.757616
Si Si5 0.837833 0.062536 0.112610
Si Si6 0.662706 0.062606 0.000000
O O1 0.738485 0.152242 0.610214
O O2 0.774010 0.051811 0.600559
O O3 0.784431 0.097382 0.704390
O O4 0.000000 0.113134 0.625925
O O5 0.196846 0.681006 0.500000
O O6 0.250000 0.750000 0.415145
O O7 0.000000 0.702581 0.417107
O O8 0.500000 0.500000 0.434764
O O9 0.262472 0.500000 0.500000
O O10 0.225292 0.080017 0.822297
O O11 0.000000 0.052360 0.760347
O O12 0.237757 0.000000 0.745173
O O13 0.000000 0.084696 0.102701
O O14 0.840861 0.000000 0.111032
O O15 0.739017 0.085145 0.059464
O O16 0.500000 0.084064 0.000000
O O17 0.668269 0.000000 0.000000
#
# Coordination Sequence:
#
# PCOD8265385 Si02
#       6
#    16  16   8  16  16   8
#     4  10  17  28  47  68  90 114 143 177 213 255
#     4  10  21  36  51  66  84 108 141 181 224 267
#     4   9  16  24  39  65  91 114 141 170 204 251
#     4   8  13  23  39  60  83 110 143 176 205 244
#     4   8  13  21  34  49  69 100 139 175 205 237
#     4   9  15  21  29  45  69  97 134 177 216 245
#
# _framework density 15.221380999999999
#
# number of rings (size 3 to 8) (size 9 to 14) (size 15 to 20)
#    0.000    3.000    1.000    2.700    0.000    3.200 
#    0.000    1.500    0.000    3.000    0.000    0.000 
#    0.000    0.000    0.000    0.900    0.000   10.100 
#
# Total GULP energy -495737.669630 kJ/mol
# GULP energy per Si atom -12393.441741 kJ/mol
# Density = 1.518674 g / cm^3
# Si number density = 15.221381 Si / 1000 Ang^3
#
#
#
# Elastic Constant Matrix: (Units=GPa)
#
#
# Indices 1 2 3 4 5 6 
#
# 1 70.2579 37.2594 56.3955 0.0000 0.0000 0.0000
# 2 37.2594 69.5703 55.9992 0.0000 0.0000 0.0000
# 3 56.3955 55.9992 153.8927 0.0000 0.0000 0.0000
# 4 0.0000 0.0000 0.0000 9.2476 0.0000 0.0000
# 5 0.0000 0.0000 0.0000 0.0000 15.1981 0.0000
# 6 0.0000 0.0000 0.0000 0.0000 0.0000 18.2573
#
#
#
# Elastic Compliance Matrix: (Units=1/GPa)
#
#
# Indices 1 2 3 4 5 6 
#
# 1 0.022781 -0.007751 -0.005528 0.000000 0.000000 0.000000
# 2 -0.007751 0.022965 -0.005516 0.000000 0.000000 0.000000
# 3 -0.005528 -0.005516 0.010531 0.000000 0.000000 0.000000
# 4 0.000000 0.000000 0.000000 0.108136 0.000000 0.000000
# 5 0.000000 0.000000 0.000000 0.000000 0.065798 0.000000
# 6 0.000000 0.000000 0.000000 0.000000 0.000000 0.054773
#
#
# Mechanical properties :
#
#
# Convention : Reuss Voigt Hill
#
# Bulk Modulus (GPa) = 53.51329 65.89213 59.70271
# Shear Modulus (GPa) = 15.20665 18.14505 16.67585
#
# Velocity S-wave (km/s) = 3.16418 3.45639 3.31351
# Velocity P-wave (km/s) = 6.97010 7.70143 7.34487
#
# Compressibility (1/GPa) = 0.01868695
#
# Stress axis : x y z
#
# Youngs Moduli (GPa) = 43.89607 43.54365 94.95752
#
# Poissons Ratio (x) = 0.33752 0.52490
# Poissons Ratio (y) = 0.34025 0.52381
# Poissons Ratio (z) = 0.24265 0.24020
#
# Static dielectric constant tensor:
#      x y z
#    x 2.748590 0.000000 0.000000 
#    y 0.000000 2.539090 0.000000 
#    z 0.000000 0.000000 3.385870 
# 
# 
# High freq. dielectric constant tensor:
#      x y z
#    x 1.560250 0.000000 0.000000 
#    y 0.000000 1.526590 0.000000 
#    z 0.000000 0.000000 1.598210 
# 
# From -- ./inp_files/67380.got.cif
#   From: 2010.03.12/outbox.cif.g09.slc.cpg/sg65_34_cif.got.tgz:67380.got - 2010.04.10 20:52:16.
