data_PCOD8265811
_publ_section_title
;
Structure prediction by ZEFSAII (Michael W. Deem and Ramdas Pophale) SiO2 
 PCOD8265811
Probable space group: C M M M
;
_chemical_formula_sum "Si O2"
_cell_formula_units_Z 88
_cell_length_a 22.710068
_cell_length_b 18.650106
_cell_length_c 13.673988
_cell_angle_alpha 90.000000
_cell_angle_beta 90.000000
_cell_angle_gamma 90.000000
_cell_volume 5791.551647
_symmetry_space_group_name_H-M "C M M M"
_symmetry_group_IT_number 65
_symmetry_cell_setting 'orthorhombic'
loop_
_space_group_symop_operation_xyz
x,y,z
-x,-y,z
x,-y,-z
-x,y,-z
-x,-y,-z
x,y,-z
-x,y,z
x,-y,z
1/2+x,1/2+y,z
1/2-x,1/2-y,z
1/2+x,1/2-y,-z
1/2-x,1/2+y,-z
1/2-x,1/2-y,-z
1/2+x,1/2+y,-z
1/2-x,1/2+y,z
1/2+x,1/2-y,z
loop_
_atom_site_type_symbol
_atom_site_label
_atom_site_fract_x
_atom_site_fract_y
_atom_site_fract_z
Si Si1 0.931693 0.303766 0.887511
Si Si2 0.230197 0.829396 0.115407
Si Si3 0.569020 0.581975 0.388013
Si Si4 0.340188 0.920641 0.115688
Si Si5 0.894335 0.840384 0.792279
Si Si6 0.500000 0.416096 0.893079
O O1 0.896352 0.373724 0.852283
O O2 0.914687 0.240365 0.814072
O O3 0.000000 0.322214 0.878748
O O4 0.914759 0.283054 0.000000
O O5 0.250000 0.750000 0.146880
O O6 0.280267 0.883753 0.152397
O O7 0.170718 0.853497 0.167781
O O8 0.219738 0.833119 0.000000
O O9 0.583792 0.600127 0.500000
O O10 0.500000 0.591238 0.366872
O O11 0.587667 0.500000 0.363900
O O12 0.604939 0.639616 0.322739
O O13 0.345660 0.000000 0.162339
O O14 0.338404 0.926338 0.000000
O O15 0.940354 0.894357 0.840381
O O16 0.500000 0.500000 0.902384
O O17 0.500000 0.379097 0.000000
#
# Coordination Sequence:
#
# PCOD8265811 Si02
#       6
#    16  16  16  16  16   8
#     4  10  18  28  45  68  93 123 156 193 239 284
#     4  10  19  31  47  67  95 133 168 193 225 280
#     4   9  18  33  50  68  94 126 160 200 245 292
#     4   9  18  31  44  62  90 124 164 202 228 264
#     4  12  19  29  49  69  93 126 163 195 234 283
#     4  11  22  30  39  67 106 132 153 188 231 283
#
# _framework density 15.194546000000001
#
# number of rings (size 3 to 8) (size 9 to 14) (size 15 to 20)
#    0.000    1.909    3.636    2.727    0.000    1.818 
#    0.000    3.636    0.000    0.545    0.000    0.000 
#    0.000    0.727    0.000    3.818    0.000    0.182 
#
# Total GULP energy -545532.493737 kJ/mol
# GULP energy per Si atom -12398.465767 kJ/mol
# Density = 1.515996 g / cm^3
# Si number density = 15.194546 Si / 1000 Ang^3
#
#
#
# Elastic Constant Matrix: (Units=GPa)
#
#
# Indices 1 2 3 4 5 6 
#
# 1 114.1660 54.4537 37.3260 0.0000 0.0000 0.0000
# 2 54.4537 118.1245 43.4560 0.0000 0.0000 0.0000
# 3 37.3260 43.4560 64.9761 0.0000 0.0000 0.0000
# 4 0.0000 0.0000 0.0000 13.9308 0.0000 0.0000
# 5 0.0000 0.0000 0.0000 0.0000 13.0698 0.0000
# 6 0.0000 0.0000 0.0000 0.0000 0.0000 24.7177
#
#
#
# Elastic Compliance Matrix: (Units=1/GPa)
#
#
# Indices 1 2 3 4 5 6 
#
# 1 0.012054 -0.003991 -0.004255 0.000000 0.000000 0.000000
# 2 -0.003991 0.012550 -0.006100 0.000000 0.000000 0.000000
# 3 -0.004255 -0.006100 0.021915 0.000000 0.000000 0.000000
# 4 0.000000 0.000000 0.000000 0.071784 0.000000 0.000000
# 5 0.000000 0.000000 0.000000 0.000000 0.076512 0.000000
# 6 0.000000 0.000000 0.000000 0.000000 0.000000 0.040457
#
#
# Mechanical properties :
#
#
# Convention : Reuss Voigt Hill
#
# Bulk Modulus (GPa) = 56.10203 63.08201 59.59202
# Shear Modulus (GPa) = 18.52489 21.14570 19.83530
#
# Velocity S-wave (km/s) = 3.49546 3.73455 3.61698
# Velocity P-wave (km/s) = 7.30025 7.75900 7.53312
#
# Compressibility (1/GPa) = 0.01782467
#
# Stress axis : x y z
#
# Youngs Moduli (GPa) = 82.95895 79.68193 45.63150
#
# Poissons Ratio (x) = 0.31804 0.19417
# Poissons Ratio (y) = 0.33112 0.27837
# Poissons Ratio (z) = 0.35300 0.48610
#
# Static dielectric constant tensor:
#      x y z
#    x 3.130150 0.000000 0.000000 
#    y 0.000000 3.084520 0.000000 
#    z 0.000000 0.000000 2.726980 
# 
# 
# High freq. dielectric constant tensor:
#      x y z
#    x 1.585720 0.000000 0.000000 
#    y 0.000000 1.584670 0.000000 
#    z 0.000000 0.000000 1.535970 
# 
# From -- ./inp_files/42998.got.cif
#   From: 2010.03.12/outbox.cif.g09.slc.cpg/sg65_22_cif.got.tgz:42998.got - 2010.04.10 20:52:16.
