data_PCOD8265771
_publ_section_title
;
Structure prediction by ZEFSAII (Michael W. Deem and Ramdas Pophale) SiO2 
 PCOD8265771
Probable space group: C M M M
;
_chemical_formula_sum "Si O2"
_cell_formula_units_Z 88
_cell_length_a 29.198220
_cell_length_b 7.768215
_cell_length_c 22.220081
_cell_angle_alpha 90.000000
_cell_angle_beta 90.000000
_cell_angle_gamma 90.000000
_cell_volume 5039.915456
_symmetry_space_group_name_H-M "C M M M"
_symmetry_group_IT_number 65
_symmetry_cell_setting 'orthorhombic'
loop_
_space_group_symop_operation_xyz
x,y,z
-x,-y,z
x,-y,-z
-x,y,-z
-x,-y,-z
x,y,-z
-x,y,z
x,-y,z
1/2+x,1/2+y,z
1/2-x,1/2-y,z
1/2+x,1/2-y,-z
1/2-x,1/2+y,-z
1/2-x,1/2-y,-z
1/2+x,1/2+y,-z
1/2-x,1/2+y,z
1/2+x,1/2-y,z
loop_
_atom_site_type_symbol
_atom_site_label
_atom_site_fract_x
_atom_site_fract_y
_atom_site_fract_z
Si Si1 0.200479 0.201536 0.433169
Si Si2 0.197509 0.195286 0.871183
Si Si3 0.949322 0.500000 0.646614
Si Si4 0.550914 0.000000 0.211240
Si Si5 0.382987 0.699187 0.647230
Si Si6 0.118133 0.200568 0.787943
Si Si7 0.197573 0.700692 0.000000
O O1 0.194630 0.284596 0.500000
O O2 0.250000 0.250000 0.406107
O O3 0.161448 0.268108 0.388286
O O4 0.195969 0.000000 0.438433
O O5 0.250000 0.250000 0.864417
O O6 0.162865 0.276902 0.822628
O O7 0.196924 0.000000 0.854671
O O8 0.176637 0.225690 0.938216
O O9 0.953240 0.500000 0.717681
O O10 0.924010 0.324275 0.626200
O O11 0.000000 0.500000 0.617399
O O12 0.576497 0.823989 0.191220
O O13 0.500000 0.000000 0.182247
O O14 0.395699 0.500000 0.632213
O O15 0.371917 0.720681 0.717452
O O16 0.106645 0.000000 0.803915
O O17 0.250000 0.750000 0.000000
O O18 0.190392 0.500000 0.000000
#
# Coordination Sequence:
#
# PCOD8265771 Si02
#       7
#    16  16   8   8  16  16   8
#     4   9  18  31  48  70  95 128 168 203 239 284
#     4  10  19  30  45  67  97 131 162 196 235 283
#     4   9  18  32  51  76  96 124 165 199 248 299
#     4   9  18  32  52  72  98 128 160 207 246 288
#     4   9  18  33  49  70 100 128 158 201 245 289
#     4   9  19  32  48  72 100 127 160 198 244 295
#     4  10  18  28  44  64  90 127 166 199 231 275
#
# _framework density 17.460611
#
# number of rings (size 3 to 8) (size 9 to 14) (size 15 to 20)
#    0.000    2.727    0.000    2.455    3.818    1.455 
#    0.000    3.636    0.000    1.091    0.000    3.818 
#    0.000    2.909    0.000    0.000    0.000    0.000 
#
# Total GULP energy -545177.316453 kJ/mol
# GULP energy per Si atom -12390.393556 kJ/mol
# Density = 1.742087 g / cm^3
# Si number density = 17.460611 Si / 1000 Ang^3
#
#
#
# Elastic Constant Matrix: (Units=GPa)
#
#
# Indices 1 2 3 4 5 6 
#
# 1 151.9874 59.4119 57.7899 0.0000 0.0000 0.0000
# 2 59.4119 77.5848 27.3593 0.0000 0.0000 0.0000
# 3 57.7899 27.3593 60.3034 0.0000 0.0000 0.0000
# 4 0.0000 0.0000 0.0000 15.4537 0.0000 0.0000
# 5 0.0000 0.0000 0.0000 0.0000 -30.7861 0.0000
# 6 0.0000 0.0000 0.0000 0.0000 0.0000 27.9793
#
#
#
# Elastic Compliance Matrix: (Units=1/GPa)
#
#
# Indices 1 2 3 4 5 6 
#
# 1 0.012547 -0.006390 -0.009125 0.000000 0.000000 0.000000
# 2 -0.006390 0.018599 -0.002314 0.000000 0.000000 0.000000
# 3 -0.009125 -0.002314 0.026377 0.000000 0.000000 0.000000
# 4 0.000000 0.000000 0.000000 0.064710 0.000000 0.000000
# 5 0.000000 0.000000 0.000000 0.000000 -0.032482 0.000000
# 6 0.000000 0.000000 0.000000 0.000000 0.000000 0.035741
#
#
# Mechanical properties :
#
#
# Convention : Reuss Voigt Hill
#
# Bulk Modulus (GPa) = 45.73657 64.33309 55.03483
# Shear Modulus (GPa) = 29.68461 12.21699 20.95080
#
# Velocity S-wave (km/s) = 4.12769 2.64803 3.46770
# Velocity P-wave (km/s) = 6.99772 6.80251 6.90080
#
# Compressibility (1/GPa) = 0.02186434
#
# Stress axis : x y z
#
# Youngs Moduli (GPa) = 79.70068 53.76726 37.91167
#
# Poissons Ratio (x) = 0.34359 0.34593
# Poissons Ratio (y) = 0.50931 0.08773
# Poissons Ratio (z) = 0.72725 0.12443
#
# Static dielectric constant tensor:
#      x y z
#    x 2.928450 0.000000 0.000000 
#    y 0.000000 3.351890 0.000000 
#    z 0.000000 0.000000 3.399970 
# 
# 
# High freq. dielectric constant tensor:
#      x y z
#    x 1.655530 0.000000 0.000000 
#    y 0.000000 1.686380 0.000000 
#    z 0.000000 0.000000 1.653900 
# 
# From -- ./inp_files/65258.got.cif
#   From: 2010.03.12/outbox.cif.g09.slc.cpg/sg65_33_cif.got.tgz:65258.got - 2010.04.10 20:52:16.
