data_PCOD8265509
_publ_section_title
;
Structure prediction by ZEFSAII (Michael W. Deem and Ramdas Pophale) SiO2 
 PCOD8265509
Probable space group: C M M M
;
_chemical_formula_sum "Si O2"
_cell_formula_units_Z 80
_cell_length_a 9.052026
_cell_length_b 23.787228
_cell_length_c 20.455765
_cell_angle_alpha 90.000000
_cell_angle_beta 90.000000
_cell_angle_gamma 90.000000
_cell_volume 4404.588634
_symmetry_space_group_name_H-M "C M M M"
_symmetry_group_IT_number 65
_symmetry_cell_setting 'orthorhombic'
loop_
_space_group_symop_operation_xyz
x,y,z
-x,-y,z
x,-y,-z
-x,y,-z
-x,-y,-z
x,y,-z
-x,y,z
x,-y,z
1/2+x,1/2+y,z
1/2-x,1/2-y,z
1/2+x,1/2-y,-z
1/2-x,1/2+y,-z
1/2-x,1/2-y,-z
1/2+x,1/2+y,-z
1/2-x,1/2+y,z
1/2+x,1/2-y,z
loop_
_atom_site_type_symbol
_atom_site_label
_atom_site_fract_x
_atom_site_fract_y
_atom_site_fract_z
Si Si1 0.168632 0.000000 0.886903
Si Si2 0.173947 0.190362 0.194815
Si Si3 0.173234 0.894712 0.306356
Si Si4 0.828354 0.122734 0.070394
Si Si5 0.327268 0.000000 0.756476
Si Si6 0.172076 0.564980 0.574512
O O1 0.196059 0.055736 0.928862
O O2 0.293338 0.000000 0.832425
O O3 0.000000 0.000000 0.858079
O O4 0.250000 0.250000 0.195126
O O5 0.210405 0.160586 0.263973
O O6 0.240792 0.154220 0.133614
O O7 0.000000 0.198229 0.186995
O O8 0.256747 0.945312 0.273419
O O9 0.234635 0.891672 0.380593
O O10 0.000000 0.906632 0.307181
O O11 0.000000 0.136643 0.071883
O O12 0.762393 0.143842 0.000000
O O13 0.500000 0.000000 0.742174
O O14 0.220197 0.575870 0.500000
O O15 0.205293 0.500000 0.593770
O O16 0.000000 0.577805 0.583886
#
# Coordination Sequence:
#
# PCOD8265509 Si02
#       6
#     8  16  16  16   8  16
#     4  10  17  32  54  79 109 137 174 217 263 327
#     4  10  22  38  55  77 104 137 183 233 273 315
#     4  11  21  35  55  80 109 141 181 227 265 310
#     4   9  17  31  54  81 107 138 175 217 268 323
#     4  12  22  31  50  80 110 143 176 214 272 328
#     4   9  18  32  51  81 119 150 174 205 255 319
#
# _framework density 18.162877999999999
#
# number of rings (size 3 to 8) (size 9 to 14) (size 15 to 20)
#    0.000    2.000    3.000    2.400    0.000    3.600 
#    0.000    1.000    0.000    3.000    0.000    0.000 
#    0.000    0.000    0.000    0.000    0.000    0.000 
#
# Total GULP energy -495734.281616 kJ/mol
# GULP energy per Si atom -12393.357040 kJ/mol
# Density = 1.812154 g / cm^3
# Si number density = 18.162878 Si / 1000 Ang^3
#
#
#
# Elastic Constant Matrix: (Units=GPa)
#
#
# Indices 1 2 3 4 5 6 
#
# 1 55.7664 43.3285 48.5695 0.0000 0.0000 0.0000
# 2 43.3285 113.7097 62.8033 0.0000 0.0000 0.0000
# 3 48.5695 62.8033 149.8657 0.0000 0.0000 0.0000
# 4 0.0000 0.0000 0.0000 17.7632 0.0000 0.0000
# 5 0.0000 0.0000 0.0000 0.0000 19.9909 0.0000
# 6 0.0000 0.0000 0.0000 0.0000 0.0000 33.7923
#
#
#
# Elastic Compliance Matrix: (Units=1/GPa)
#
#
# Indices 1 2 3 4 5 6 
#
# 1 0.029424 -0.007735 -0.006294 0.000000 0.000000 0.000000
# 2 -0.007735 0.013476 -0.003141 0.000000 0.000000 0.000000
# 3 -0.006294 -0.003141 0.010029 0.000000 0.000000 0.000000
# 4 0.000000 0.000000 0.000000 0.056296 0.000000 0.000000
# 5 0.000000 0.000000 0.000000 0.000000 0.050023 0.000000
# 6 0.000000 0.000000 0.000000 0.000000 0.000000 0.029593
#
#
# Mechanical properties :
#
#
# Convention : Reuss Voigt Hill
#
# Bulk Modulus (GPa) = 53.79653 69.86046 61.82850
# Shear Modulus (GPa) = 21.79814 25.28532 23.54173
#
# Velocity S-wave (km/s) = 3.46807 3.73519 3.60411
# Velocity P-wave (km/s) = 6.76165 7.55970 7.17178
#
# Compressibility (1/GPa) = 0.01858856
#
# Stress axis : x y z
#
# Youngs Moduli (GPa) = 33.98574 74.20359 99.71469
#
# Poissons Ratio (x) = 0.57400 0.62763
# Poissons Ratio (y) = 0.26290 0.31316
# Poissons Ratio (z) = 0.21392 0.23304
#
# Static dielectric constant tensor:
#      x y z
#    x 3.292520 0.000000 0.000000 
#    y 0.000000 3.086840 0.000000 
#    z 0.000000 0.000000 3.920610 
# 
# 
# High freq. dielectric constant tensor:
#      x y z
#    x 1.679550 0.000000 0.000000 
#    y 0.000000 1.676070 0.000000 
#    z 0.000000 0.000000 1.722320 
# 
# From -- ./inp_files/59669.got.cif
#   From: 2010.03.12/outbox.cif.g09.slc.cpg/sg65_30_cif.got.tgz:59669.got - 2010.04.10 20:52:16.
