data_PCOD8265666
_publ_section_title
;
Structure prediction by ZEFSAII (Michael W. Deem and Ramdas Pophale) SiO2 
 PCOD8265666
Probable space group: C M M M
;
_chemical_formula_sum "Si O2"
_cell_formula_units_Z 104
_cell_length_a 8.828661
_cell_length_b 24.060495
_cell_length_c 26.056376
_cell_angle_alpha 90.000000
_cell_angle_beta 90.000000
_cell_angle_gamma 90.000000
_cell_volume 5534.946300
_symmetry_space_group_name_H-M "C M M M"
_symmetry_group_IT_number 65
_symmetry_cell_setting 'orthorhombic'
loop_
_space_group_symop_operation_xyz
x,y,z
-x,-y,z
x,-y,-z
-x,y,-z
-x,-y,-z
x,y,-z
-x,y,z
x,-y,z
1/2+x,1/2+y,z
1/2-x,1/2-y,z
1/2+x,1/2-y,-z
1/2-x,1/2+y,-z
1/2-x,1/2-y,-z
1/2+x,1/2+y,-z
1/2-x,1/2+y,z
1/2+x,1/2-y,z
loop_
_atom_site_type_symbol
_atom_site_label
_atom_site_fract_x
_atom_site_fract_y
_atom_site_fract_z
Si Si1 0.820675 0.809344 0.197275
Si Si2 0.321321 0.691890 0.686951
Si Si3 0.179727 0.189672 0.500000
Si Si4 0.680667 0.500000 0.441479
Si Si5 0.822649 0.388265 0.113427
Si Si6 0.679532 0.000000 0.059556
Si Si7 0.334628 0.698987 0.941580
Si Si8 0.320166 0.617381 0.595310
O O1 0.750000 0.750000 0.180851
O O2 0.770513 0.823822 0.255356
O O3 0.763712 0.860533 0.161756
O O4 0.000000 0.804457 0.192992
O O5 0.500000 0.699019 0.682753
O O6 0.250000 0.750000 0.669177
O O7 0.263255 0.642800 0.649418
O O8 0.250000 0.250000 0.500000
O O9 0.239122 0.156534 0.450343
O O10 0.000000 0.194964 0.500000
O O11 0.500000 0.500000 0.441856
O O12 0.740170 0.500000 0.500000
O O13 0.743303 0.554741 0.412112
O O14 0.766131 0.448905 0.095442
O O15 0.777087 0.352886 0.063472
O O16 0.000000 0.387297 0.124947
O O17 0.500000 0.000000 0.054003
O O18 0.745024 0.000000 0.000000
O O19 0.500000 0.689371 0.915215
O O20 0.250000 0.750000 0.913513
O O21 0.362340 0.713596 0.000000
O O22 0.500000 0.615192 0.593551
#
# Coordination Sequence:
#
# PCOD8265666 Si02
#       8
#    16  16   8   8  16   8  16  16
#     4  10  20  35  54  77 105 136 172 214 264 316
#     4   9  18  32  50  73 102 134 167 208 256 310
#     4  10  18  27  43  69  99 126 159 206 256 310
#     4   9  14  24  43  68  98 132 166 206 253 298
#     4  11  21  35  56  78 101 132 171 213 254 299
#     4   9  20  38  58  79 103 135 173 208 247 300
#     4  10  20  33  50  75 106 136 165 201 248 301
#     4   9  16  27  44  69  99 130 168 211 256 304
#
# _framework density 18.789702999999999
#
# number of rings (size 3 to 8) (size 9 to 14) (size 15 to 20)
#    0.000    2.308    0.769    2.769    0.000    2.154 
#    0.000    2.308    0.000    4.615    0.000    2.692 
#    0.000    0.000    0.000    0.000    0.000    0.000 
#
# Total GULP energy -644250.924847 kJ/mol
# GULP energy per Si atom -12389.440862 kJ/mol
# Density = 1.874694 g / cm^3
# Si number density = 18.789703 Si / 1000 Ang^3
#
#
#
# Elastic Constant Matrix: (Units=GPa)
#
#
# Indices 1 2 3 4 5 6 
#
# 1 40.8342 33.7722 20.2834 0.0000 0.0000 0.0000
# 2 33.7722 183.9829 79.8167 0.0000 0.0000 0.0000
# 3 20.2834 79.8167 139.6341 0.0000 0.0000 0.0000
# 4 0.0000 0.0000 0.0000 34.6849 0.0000 0.0000
# 5 0.0000 0.0000 0.0000 0.0000 11.9792 0.0000
# 6 0.0000 0.0000 0.0000 0.0000 0.0000 22.7785
#
#
#
# Elastic Compliance Matrix: (Units=1/GPa)
#
#
# Indices 1 2 3 4 5 6 
#
# 1 0.029127 -0.004669 -0.001562 0.000000 0.000000 0.000000
# 2 -0.004669 0.007976 -0.003881 0.000000 0.000000 0.000000
# 3 -0.001562 -0.003881 0.009607 0.000000 0.000000 0.000000
# 4 0.000000 0.000000 0.000000 0.028831 0.000000 0.000000
# 5 0.000000 0.000000 0.000000 0.000000 0.083478 0.000000
# 6 0.000000 0.000000 0.000000 0.000000 0.000000 0.043901
#
#
# Mechanical properties :
#
#
# Convention : Reuss Voigt Hill
#
# Bulk Modulus (GPa) = 37.75647 70.24398 54.00023
# Shear Modulus (GPa) = 21.55434 29.26047 25.40740
#
# Velocity S-wave (km/s) = 3.39061 3.95050 3.68121
# Velocity P-wave (km/s) = 5.95535 7.63374 6.84617
#
# Compressibility (1/GPa) = 0.02648553
#
# Stress axis : x y z
#
# Youngs Moduli (GPa) = 34.33287 125.37657 104.09162
#
# Poissons Ratio (x) = 0.58536 0.16261
# Poissons Ratio (y) = 0.16029 0.40398
# Poissons Ratio (z) = 0.05364 0.48658
#
# Static dielectric constant tensor:
#      x y z
#    x 3.338230 0.000000 0.000000 
#    y 0.000000 3.649530 0.000000 
#    z 0.000000 0.000000 3.657920 
# 
# 
# High freq. dielectric constant tensor:
#      x y z
#    x 1.702940 0.000000 0.000000 
#    y 0.000000 1.727190 0.000000 
#    z 0.000000 0.000000 1.736160 
# 
# From -- ./inp_files/73644.got.cif
#   From: 2010.03.12/outbox.cif.g09.slc.cpg/sg65_37_cif.got.tgz:73644.got - 2010.04.10 20:52:16.
