data_PCOD8265605
_publ_section_title
;
Structure prediction by ZEFSAII (Michael W. Deem and Ramdas Pophale) SiO2 
 PCOD8265605
Probable space group: C M M M
;
_chemical_formula_sum "Si O2"
_cell_formula_units_Z 104
_cell_length_a 27.383892
_cell_length_b 17.774409
_cell_length_c 14.784167
_cell_angle_alpha 90.000000
_cell_angle_beta 90.000000
_cell_angle_gamma 90.000000
_cell_volume 7195.934511
_symmetry_space_group_name_H-M "C M M M"
_symmetry_group_IT_number 65
_symmetry_cell_setting 'orthorhombic'
loop_
_space_group_symop_operation_xyz
x,y,z
-x,-y,z
x,-y,-z
-x,y,-z
-x,-y,-z
x,y,-z
-x,y,z
x,-y,z
1/2+x,1/2+y,z
1/2-x,1/2-y,z
1/2+x,1/2-y,-z
1/2-x,1/2+y,-z
1/2-x,1/2-y,-z
1/2+x,1/2+y,-z
1/2-x,1/2+y,z
1/2+x,1/2-y,z
loop_
_atom_site_type_symbol
_atom_site_label
_atom_site_fract_x
_atom_site_fract_y
_atom_site_fract_z
Si Si1 0.277261 0.323573 0.394446
Si Si2 0.903013 0.411052 0.283557
Si Si3 0.313863 0.087626 0.599568
Si Si4 0.054812 0.711086 0.601516
Si Si5 0.056585 0.000000 0.607789
Si Si6 0.885310 0.852930 0.607855
Si Si7 0.554725 0.088986 0.098670
O O1 0.285858 0.309349 0.500000
O O2 0.250000 0.250000 0.352659
O O3 0.241373 0.392937 0.373431
O O4 0.329990 0.345348 0.352432
O O5 0.912364 0.500000 0.296783
O O6 0.850733 0.383754 0.322844
O O7 0.942931 0.365142 0.340102
O O8 0.907877 0.386828 0.178139
O O9 0.326132 0.123654 0.500000
O O10 0.318957 0.000000 0.591254
O O11 0.071771 0.691025 0.500000
O O12 0.087403 0.778149 0.642406
O O13 0.000000 0.741707 0.602138
O O14 0.086217 0.073183 0.644701
O O15 0.055999 0.000000 0.500000
O O16 0.000000 0.000000 0.642884
O O17 0.885213 0.857412 0.500000
O O18 0.500000 0.119572 0.119341
O O19 0.552454 0.000000 0.094940
O O20 0.572550 0.119507 0.000000
#
# Coordination Sequence:
#
# PCOD8265605 Si02
#       7
#    16  16  16  16   8  16  16
#     4   9  16  25  37  51  69  96 131 166 197 231
#     4  10  18  27  39  55  77 108 139 162 189 227
#     4   9  17  26  36  51  75 102 129 162 193 219
#     4  10  19  28  37  52  78 108 136 166 197 231
#     4   9  16  26  40  56  72  94 133 181 220 253
#     4   9  17  27  40  54  72 100 136 173 210 245
#     4   8  14  25  40  56  73  95 128 169 205 232
#
# _framework density 14.452603999999999
#
# number of rings (size 3 to 8) (size 9 to 14) (size 15 to 20)
#    0.000    2.846    0.000    2.769    1.077    6.154 
#    0.000    0.769    0.000    0.000    0.000    0.000 
#    0.000    5.538    0.000    0.692    0.000    7.692 
#
# Total GULP energy -644195.784552 kJ/mol
# GULP energy per Si atom -12388.380472 kJ/mol
# Density = 1.441971 g / cm^3
# Si number density = 14.452604 Si / 1000 Ang^3
#
#
#
# Elastic Constant Matrix: (Units=GPa)
#
#
# Indices 1 2 3 4 5 6 
#
# 1 114.1201 34.4447 39.4320 0.0000 0.0000 0.0000
# 2 34.4447 53.9166 23.6588 0.0000 0.0000 0.0000
# 3 39.4320 23.6588 68.3838 0.0000 0.0000 0.0000
# 4 0.0000 0.0000 0.0000 4.3212 0.0000 0.0000
# 5 0.0000 0.0000 0.0000 0.0000 -22.3193 0.0000
# 6 0.0000 0.0000 0.0000 0.0000 0.0000 26.1023
#
#
#
# Elastic Compliance Matrix: (Units=1/GPa)
#
#
# Indices 1 2 3 4 5 6 
#
# 1 0.012207 -0.005553 -0.005118 0.000000 0.000000 0.000000
# 2 -0.005553 0.024393 -0.005237 0.000000 0.000000 0.000000
# 3 -0.005118 -0.005237 0.019386 0.000000 0.000000 0.000000
# 4 0.000000 0.000000 0.000000 0.231417 0.000000 0.000000
# 5 0.000000 0.000000 0.000000 0.000000 -0.044804 0.000000
# 6 0.000000 0.000000 0.000000 0.000000 0.000000 0.038311
#
#
# Mechanical properties :
#
#
# Convention : Reuss Voigt Hill
#
# Bulk Modulus (GPa) = 41.37299 47.94350 44.65825
# Shear Modulus (GPa) = 15.58688 10.87983 13.23335
#
# Velocity S-wave (km/s) = 3.28759 2.74669 3.02923
# Velocity P-wave (km/s) = 6.56504 6.58058 6.57281
#
# Compressibility (1/GPa) = 0.02417036
#
# Stress axis : x y z
#
# Youngs Moduli (GPa) = 81.91993 40.99587 51.58261
#
# Poissons Ratio (x) = 0.22764 0.26399
# Poissons Ratio (y) = 0.45488 0.27015
# Poissons Ratio (z) = 0.41925 0.21471
#
# Static dielectric constant tensor:
#      x y z
#    x 3.027310 0.000000 0.000000 
#    y 0.000000 2.759240 0.000000 
#    z 0.000000 0.000000 2.653520 
# 
# 
# High freq. dielectric constant tensor:
#      x y z
#    x 1.560410 0.000000 0.000000 
#    y 0.000000 1.543190 0.000000 
#    z 0.000000 0.000000 1.485370 
# 
# From -- ./inp_files/45960.got.cif
#   From: 2010.03.12/outbox.cif.g09.slc.cpg/sg65_23_cif.got.tgz:45960.got - 2010.04.10 20:52:16.
