data_PCOD8265675
_publ_section_title
;
Structure prediction by ZEFSAII (Michael W. Deem and Ramdas Pophale) SiO2 
 PCOD8265675
Probable space group: C M M M
;
_chemical_formula_sum "Si O2"
_cell_formula_units_Z 80
_cell_length_a 33.600386
_cell_length_b 14.683780
_cell_length_c 9.297313
_cell_angle_alpha 90.000000
_cell_angle_beta 90.000000
_cell_angle_gamma 90.000000
_cell_volume 4587.114572
_symmetry_space_group_name_H-M "C M M M"
_symmetry_group_IT_number 65
_symmetry_cell_setting 'orthorhombic'
loop_
_space_group_symop_operation_xyz
x,y,z
-x,-y,z
x,-y,-z
-x,y,-z
-x,-y,-z
x,y,-z
-x,y,z
x,-y,z
1/2+x,1/2+y,z
1/2-x,1/2-y,z
1/2+x,1/2-y,-z
1/2-x,1/2+y,-z
1/2-x,1/2-y,-z
1/2+x,1/2+y,-z
1/2-x,1/2+y,z
1/2+x,1/2-y,z
loop_
_atom_site_type_symbol
_atom_site_label
_atom_site_fract_x
_atom_site_fract_y
_atom_site_fract_z
Si Si1 0.188372 0.245821 0.170929
Si Si2 0.544812 0.606982 0.663037
Si Si3 0.747958 0.897479 0.171080
Si Si4 0.544344 0.100734 0.170946
Si Si5 0.401103 0.261487 0.828614
O O1 0.212497 0.156289 0.223730
O O2 0.209721 0.339056 0.224268
O O3 0.143753 0.241690 0.232664
O O4 0.187703 0.246696 0.000000
O O5 0.552598 0.639619 0.500000
O O6 0.500000 0.634373 0.710115
O O7 0.550435 0.500000 0.674966
O O8 0.576755 0.650271 0.769501
O O9 0.746979 0.000000 0.236795
O O10 0.747824 0.903523 0.000000
O O11 0.500000 0.126353 0.225806
O O12 0.576133 0.172428 0.231479
O O13 0.556125 0.000000 0.226518
O O14 0.544779 0.102053 0.000000
O O15 0.401528 0.266181 0.000000
#
# Coordination Sequence:
#
# PCOD8265675 Si02
#       5
#    16  16  16  16  16
#     4   8  15  24  34  57  87 110 140 179 216 258
#     4   9  19  35  50  63  85 120 155 181 213 265
#     4   8  13  23  37  51  78 120 150 169 206 261
#     4   8  14  24  37  56  85 117 143 170 213 266
#     4  10  18  27  44  70  94 113 142 190 235 261
#
# _framework density 17.440158
#
# number of rings (size 3 to 8) (size 9 to 14) (size 15 to 20)
#    0.000    3.400    0.000    3.000    0.000    3.200 
#    0.000    7.000    0.000    0.600    0.000    5.600 
#    0.000    1.600    0.000    0.000    0.000    0.000 
#
# Total GULP energy -495700.836419 kJ/mol
# GULP energy per Si atom -12392.520910 kJ/mol
# Density = 1.740046 g / cm^3
# Si number density = 17.440158 Si / 1000 Ang^3
#
#
#
# Elastic Constant Matrix: (Units=GPa)
#
#
# Indices 1 2 3 4 5 6 
#
# 1 165.1014 79.7225 20.7481 0.0000 0.0000 0.0000
# 2 79.7225 126.8745 16.0518 0.0000 0.0000 0.0000
# 3 20.7481 16.0518 11.6094 0.0000 0.0000 0.0000
# 4 0.0000 0.0000 0.0000 7.1181 0.0000 0.0000
# 5 0.0000 0.0000 0.0000 0.0000 8.9974 0.0000
# 6 0.0000 0.0000 0.0000 0.0000 0.0000 16.3362
#
#
#
# Elastic Compliance Matrix: (Units=1/GPa)
#
#
# Indices 1 2 3 4 5 6 
#
# 1 0.009696 -0.004727 -0.010792 0.000000 0.000000 0.000000
# 2 -0.004727 0.011857 -0.007947 0.000000 0.000000 0.000000
# 3 -0.010792 -0.007947 0.116412 0.000000 0.000000 0.000000
# 4 0.000000 0.000000 0.000000 0.140487 0.000000 0.000000
# 5 0.000000 0.000000 0.000000 0.000000 0.111144 0.000000
# 6 0.000000 0.000000 0.000000 0.000000 0.000000 0.061214
#
#
# Mechanical properties :
#
#
# Convention : Reuss Voigt Hill
#
# Bulk Modulus (GPa) = 10.98499 59.62558 35.30529
# Shear Modulus (GPa) = 9.46815 18.96118 14.21467
#
# Velocity S-wave (km/s) = 2.33254 3.30087 2.85801
# Velocity P-wave (km/s) = 3.68329 6.98502 5.58378
#
# Compressibility (1/GPa) = 0.09103327
#
# Stress axis : x y z
#
# Youngs Moduli (GPa) = 103.13972 84.33541 8.59019
#
# Poissons Ratio (x) = 0.39865 0.09271
# Poissons Ratio (y) = 0.48753 0.06827
# Poissons Ratio (z) = 1.11309 0.67020
#
# Static dielectric constant tensor:
#      x y z
#    x 3.544220 0.000000 0.000000 
#    y 0.000000 3.488180 0.000000 
#    z 0.000000 0.000000 2.576920 
# 
# 
# High freq. dielectric constant tensor:
#      x y z
#    x 1.679160 0.000000 0.000000 
#    y 0.000000 1.683450 0.000000 
#    z 0.000000 0.000000 1.599950 
# 
# From -- ./inp_files/25290.got.cif
#   From: 2010.03.12/outbox.cif.g09.slc.cpg/sg65_13_cif.got.tgz:25290.got - 2010.04.10 20:52:16.
