data_PCOD8265402
_publ_section_title
;
Structure prediction by ZEFSAII (Michael W. Deem and Ramdas Pophale) SiO2 
 PCOD8265402
Probable space group: C M M M
;
_chemical_formula_sum "Si O2"
_cell_formula_units_Z 96
_cell_length_a 8.940011
_cell_length_b 25.729316
_cell_length_c 23.567729
_cell_angle_alpha 90.000000
_cell_angle_beta 90.000000
_cell_angle_gamma 90.000000
_cell_volume 5421.057699
_symmetry_space_group_name_H-M "C M M M"
_symmetry_group_IT_number 65
_symmetry_cell_setting 'orthorhombic'
loop_
_space_group_symop_operation_xyz
x,y,z
-x,-y,z
x,-y,-z
-x,y,-z
-x,-y,-z
x,y,-z
-x,y,z
x,-y,z
1/2+x,1/2+y,z
1/2-x,1/2-y,z
1/2+x,1/2-y,-z
1/2-x,1/2+y,-z
1/2-x,1/2-y,-z
1/2+x,1/2+y,-z
1/2-x,1/2+y,z
1/2+x,1/2-y,z
loop_
_atom_site_type_symbol
_atom_site_label
_atom_site_fract_x
_atom_site_fract_y
_atom_site_fract_z
Si Si1 0.675406 0.696419 0.372050
Si Si2 0.172929 0.397191 0.566472
Si Si3 0.677533 0.897825 0.821612
Si Si4 0.175977 0.803791 0.757782
Si Si5 0.322677 0.000000 0.244037
Si Si6 0.177954 0.500000 0.371606
Si Si7 0.322718 0.058141 0.938003
O O1 0.500000 0.702745 0.379613
O O2 0.750000 0.750000 0.391712
O O3 0.732715 0.651464 0.412721
O O4 0.719147 0.683205 0.307182
O O5 0.195338 0.404594 0.500000
O O6 0.237114 0.448744 0.596630
O O7 0.000000 0.387911 0.582341
O O8 0.500000 0.890312 0.815421
O O9 0.760811 0.848139 0.797896
O O10 0.729623 0.904209 0.887236
O O11 0.734131 0.948574 0.787809
O O12 0.250000 0.750000 0.776953
O O13 0.000000 0.799048 0.766019
O O14 0.258094 0.000000 0.307770
O O15 0.500000 0.000000 0.244757
O O16 0.000000 0.500000 0.372682
O O17 0.500000 0.054266 0.935880
O O18 0.257929 0.000000 0.928719
O O19 0.270493 0.079568 0.000000
#
# Coordination Sequence:
#
# PCOD8265402 Si02
#       7
#    16  16  16  16   8   8  16
#     4  10  21  37  56  76  99 127 162 205 256 307
#     4  10  20  34  53  76 101 132 169 206 245 291
#     4  10  17  28  49  77 106 135 170 208 246 294
#     4  10  21  36  53  74  99 130 166 207 255 304
#     4   9  16  25  44  76 105 131 164 201 244 292
#     4   9  17  30  48  71 102 135 166 201 240 288
#     4   8  13  23  42  71 107 141 172 207 244 286
#
# _framework density 17.708721000000001
#
# number of rings (size 3 to 8) (size 9 to 14) (size 15 to 20)
#    0.000    2.500    0.833    2.750    0.000    5.000 
#    0.000    0.833    0.000    5.000    0.000    1.167 
#    0.000    0.000    0.000    0.000    0.000    0.000 
#
# Total GULP energy -595150.436991 kJ/mol
# GULP energy per Si atom -12398.967437 kJ/mol
# Density = 1.766842 g / cm^3
# Si number density = 17.708721 Si / 1000 Ang^3
#
#
#
# Elastic Constant Matrix: (Units=GPa)
#
#
# Indices 1 2 3 4 5 6 
#
# 1 43.3471 35.4973 30.7198 0.0000 0.0000 0.0000
# 2 35.4973 124.7331 65.8510 0.0000 0.0000 0.0000
# 3 30.7198 65.8510 119.5638 0.0000 0.0000 0.0000
# 4 0.0000 0.0000 0.0000 16.4282 0.0000 0.0000
# 5 0.0000 0.0000 0.0000 0.0000 17.3818 0.0000
# 6 0.0000 0.0000 0.0000 0.0000 0.0000 25.9487
#
#
#
# Elastic Compliance Matrix: (Units=1/GPa)
#
#
# Indices 1 2 3 4 5 6 
#
# 1 0.031693 -0.006656 -0.004477 0.000000 0.000000 0.000000
# 2 -0.006656 0.012702 -0.005285 0.000000 0.000000 0.000000
# 3 -0.004477 -0.005285 0.012425 0.000000 0.000000 0.000000
# 4 0.000000 0.000000 0.000000 0.060871 0.000000 0.000000
# 5 0.000000 0.000000 0.000000 0.000000 0.057531 0.000000
# 6 0.000000 0.000000 0.000000 0.000000 0.000000 0.038538
#
#
# Mechanical properties :
#
#
# Convention : Reuss Voigt Hill
#
# Bulk Modulus (GPa) = 41.69643 61.30891 51.50267
# Shear Modulus (GPa) = 19.63934 22.32346 20.98140
#
# Velocity S-wave (km/s) = 3.33381 3.55433 3.44584
# Velocity P-wave (km/s) = 6.19805 7.17916 6.70657
#
# Compressibility (1/GPa) = 0.02398287
#
# Stress axis : x y z
#
# Youngs Moduli (GPa) = 31.55272 78.73001 80.48206
#
# Poissons Ratio (x) = 0.52400 0.36034
# Poissons Ratio (y) = 0.21001 0.42539
# Poissons Ratio (z) = 0.14127 0.41613
#
# Static dielectric constant tensor:
#      x y z
#    x 2.944400 0.000000 0.000000 
#    y 0.000000 3.303660 0.000000 
#    z 0.000000 0.000000 3.573240 
# 
# 
# High freq. dielectric constant tensor:
#      x y z
#    x 1.650730 0.000000 0.000000 
#    y 0.000000 1.682620 0.000000 
#    z 0.000000 0.000000 1.691670 
# 
# From -- ./inp_files/67918.got.cif
#   From: 2010.03.12/outbox.cif.g09.slc.cpg/sg65_34_cif.got.tgz:67918.got - 2010.04.10 20:52:16.
