data_PCOD8265309
_publ_section_title
;
Structure prediction by ZEFSAII (Michael W. Deem and Ramdas Pophale) SiO2 
 PCOD8265309
Probable space group: C M M M
;
_chemical_formula_sum "Si O2"
_cell_formula_units_Z 112
_cell_length_a 17.531647
_cell_length_b 17.110085
_cell_length_c 19.604343
_cell_angle_alpha 90.000000
_cell_angle_beta 90.000000
_cell_angle_gamma 90.000000
_cell_volume 5880.674980
_symmetry_space_group_name_H-M "C M M M"
_symmetry_group_IT_number 65
_symmetry_cell_setting 'orthorhombic'
loop_
_space_group_symop_operation_xyz
x,y,z
-x,-y,z
x,-y,-z
-x,y,-z
-x,-y,-z
x,y,-z
-x,y,z
x,-y,z
1/2+x,1/2+y,z
1/2-x,1/2-y,z
1/2+x,1/2-y,-z
1/2-x,1/2+y,-z
1/2-x,1/2-y,-z
1/2+x,1/2+y,-z
1/2-x,1/2+y,z
1/2+x,1/2-y,z
loop_
_atom_site_type_symbol
_atom_site_label
_atom_site_fract_x
_atom_site_fract_y
_atom_site_fract_z
Si Si1 0.656860 0.333008 0.925276
Si Si2 0.415325 0.677336 0.788509
Si Si3 0.087816 0.728085 0.420478
Si Si4 0.658237 0.088363 0.655905
Si Si5 0.197064 0.821433 0.673661
Si Si6 0.913436 0.636557 0.793748
Si Si7 0.672882 0.147996 0.074750
O O1 0.600720 0.357329 0.863970
O O2 0.665182 0.240554 0.923539
O O3 0.738657 0.373641 0.913037
O O4 0.624353 0.358365 0.000000
O O5 0.500000 0.650037 0.767442
O O6 0.353299 0.644206 0.735553
O O7 0.409404 0.770648 0.785067
O O8 0.106107 0.726729 0.500000
O O9 0.104314 0.642688 0.389990
O O10 0.141452 0.793387 0.386725
O O11 0.000000 0.749478 0.405364
O O12 0.747346 0.110801 0.646314
O O13 0.635529 0.096124 0.734950
O O14 0.646849 0.000000 0.630852
O O15 0.250000 0.750000 0.700184
O O16 0.878618 0.609661 0.866385
O O17 0.000000 0.606411 0.790079
O O18 0.646607 0.116885 0.000000
#
# Coordination Sequence:
#
# PCOD8265309 Si02
#       7
#    16  16  16  16  16  16  16
#     4   8  14  22  35  59  95 131 162 206 266 322
#     4  10  17  26  46  72  97 130 171 215 265 313
#     4  10  21  38  61  87 111 137 170 209 255 305
#     4  11  23  36  53  79 110 145 179 212 255 307
#     4  10  19  33  55  76 103 137 176 218 253 299
#     4  10  18  28  45  70 101 135 173 216 263 312
#     4   8  14  24  39  60  90 131 174 213 258 310
#
# _framework density 19.045432999999999
#
# number of rings (size 3 to 8) (size 9 to 14) (size 15 to 20)
#    0.000    2.429    2.857    2.571    2.000    4.571 
#    0.000    3.571    0.000    2.143    0.000    2.000 
#    0.000    0.000    0.000    5.143    0.000    1.286 
#
# Total GULP energy -694190.307370 kJ/mol
# GULP energy per Si atom -12396.255489 kJ/mol
# Density = 1.900208 g / cm^3
# Si number density = 19.045433 Si / 1000 Ang^3
#
#
#
# Elastic Constant Matrix: (Units=GPa)
#
#
# Indices 1 2 3 4 5 6 
#
# 1 113.2893 16.4852 62.2952 0.0000 0.0000 0.0000
# 2 16.4852 33.7044 19.1371 0.0000 0.0000 0.0000
# 3 62.2952 19.1371 129.8595 0.0000 0.0000 0.0000
# 4 0.0000 0.0000 0.0000 5.9831 0.0000 0.0000
# 5 0.0000 0.0000 0.0000 0.0000 36.7270 0.0000
# 6 0.0000 0.0000 0.0000 0.0000 0.0000 9.3183
#
#
#
# Elastic Compliance Matrix: (Units=1/GPa)
#
#
# Indices 1 2 3 4 5 6 
#
# 1 0.012243 -0.002896 -0.005446 0.000000 0.000000 0.000000
# 2 -0.002896 0.033064 -0.003483 0.000000 0.000000 0.000000
# 3 -0.005446 -0.003483 0.010827 0.000000 0.000000 0.000000
# 4 0.000000 0.000000 0.000000 0.167138 0.000000 0.000000
# 5 0.000000 0.000000 0.000000 0.000000 0.027228 0.000000
# 6 0.000000 0.000000 0.000000 0.000000 0.000000 0.107316
#
#
# Mechanical properties :
#
#
# Convention : Reuss Voigt Hill
#
# Bulk Modulus (GPa) = 30.78583 52.52091 41.65337
# Shear Modulus (GPa) = 12.74551 22.33471 17.54011
#
# Velocity S-wave (km/s) = 2.58973 3.42820 3.03803
# Velocity P-wave (km/s) = 5.01416 6.58077 5.85014
#
# Compressibility (1/GPa) = 0.03248248
#
# Stress axis : x y z
#
# Youngs Moduli (GPa) = 81.67777 30.24443 92.36417
#
# Poissons Ratio (x) = 0.08758 0.50306
# Poissons Ratio (y) = 0.23652 0.32174
# Poissons Ratio (z) = 0.44486 0.10535
#
# Static dielectric constant tensor:
#      x y z
#    x 3.692910 0.000000 0.000000 
#    y 0.000000 2.885940 0.000000 
#    z 0.000000 0.000000 3.707180 
# 
# 
# High freq. dielectric constant tensor:
#      x y z
#    x 1.748390 0.000000 0.000000 
#    y 0.000000 1.667740 0.000000 
#    z 0.000000 0.000000 1.747990 
# 
# From -- ./inp_files/54880.got.cif
#   From: 2010.03.12/outbox.cif.g09.slc.cpg/sg65_28_cif.got.tgz:54880.got - 2010.04.10 20:52:16.
