data_PCOD8265501
_publ_section_title
;
Structure prediction by ZEFSAII (Michael W. Deem and Ramdas Pophale) SiO2 
 PCOD8265501
Probable space group: C M M M
;
_chemical_formula_sum "Si O2"
_cell_formula_units_Z 96
_cell_length_a 23.396406
_cell_length_b 15.309068
_cell_length_c 13.781366
_cell_angle_alpha 90.000000
_cell_angle_beta 90.000000
_cell_angle_gamma 90.000000
_cell_volume 4936.170678
_symmetry_space_group_name_H-M "C M M M"
_symmetry_group_IT_number 65
_symmetry_cell_setting 'orthorhombic'
loop_
_space_group_symop_operation_xyz
x,y,z
-x,-y,z
x,-y,-z
-x,y,-z
-x,-y,-z
x,y,-z
-x,y,z
x,-y,z
1/2+x,1/2+y,z
1/2-x,1/2-y,z
1/2+x,1/2-y,-z
1/2-x,1/2+y,-z
1/2-x,1/2-y,-z
1/2+x,1/2+y,-z
1/2-x,1/2+y,z
1/2+x,1/2-y,z
loop_
_atom_site_type_symbol
_atom_site_label
_atom_site_fract_x
_atom_site_fract_y
_atom_site_fract_z
Si Si1 0.621071 0.598172 0.888456
Si Si2 0.000000 0.138394 0.808489
Si Si3 0.182596 0.253027 0.219343
Si Si4 0.500000 0.828988 0.886243
Si Si5 0.888696 0.316467 0.609854
Si Si6 0.500000 0.300330 0.606580
Si Si7 0.435365 0.000000 0.615974
Si Si8 0.620529 0.904037 0.114277
O O1 0.645853 0.500000 0.878211
O O2 0.555393 0.595042 0.855190
O O3 0.658104 0.662545 0.822494
O O4 0.624012 0.630134 0.000000
O O5 0.000000 0.241356 0.825072
O O6 0.000000 0.126121 0.691026
O O7 0.250000 0.250000 0.222563
O O8 0.159636 0.268654 0.327501
O O9 0.164744 0.333436 0.152487
O O10 0.444334 0.882657 0.855201
O O11 0.500000 0.805745 0.000000
O O12 0.865773 0.321523 0.500000
O O13 0.945842 0.261411 0.616977
O O14 0.901378 0.413703 0.651768
O O15 0.500000 0.346151 0.500000
O O16 0.500000 0.000000 0.657419
O O17 0.438491 0.000000 0.500000
O O18 0.635246 0.000000 0.156138
O O19 0.626146 0.904019 0.000000
#
# Coordination Sequence:
#
# PCOD8265501 Si02
#       8
#    16   8  16   8  16   8   8  16
#     4  11  24  42  65  91 119 155 204 262 314 360
#     4  12  19  36  64  93 122 155 195 246 311 367
#     4  12  26  42  60  84 116 165 214 258 297 348
#     4  10  17  31  59  90 124 155 185 232 303 380
#     4  10  20  37  61  90 124 160 195 240 300 363
#     4  10  18  32  61  94 123 156 192 235 304 375
#     4   9  16  30  58  96 129 151 181 230 292 369
#     4  10  21  37  59  89 123 156 190 237 303 378
#
# _framework density 19.448274000000001
#
# number of rings (size 3 to 8) (size 9 to 14) (size 15 to 20)
#    0.000    1.417    4.167    1.750    1.167    4.000 
#    0.000    1.667    0.000    2.500    0.000    0.000 
#    0.000    0.000    0.000    0.000    0.000    0.000 
#
# Total GULP energy -595275.979845 kJ/mol
# GULP energy per Si atom -12401.582913 kJ/mol
# Density = 1.940401 g / cm^3
# Si number density = 19.448274 Si / 1000 Ang^3
#
#
#
# Elastic Constant Matrix: (Units=GPa)
#
#
# Indices 1 2 3 4 5 6 
#
# 1 146.2435 51.6413 46.5226 0.0000 0.0000 0.0000
# 2 51.6413 114.5434 51.6495 0.0000 0.0000 0.0000
# 3 46.5226 51.6495 91.1204 0.0000 0.0000 0.0000
# 4 0.0000 0.0000 0.0000 20.9843 0.0000 0.0000
# 5 0.0000 0.0000 0.0000 0.0000 50.6405 0.0000
# 6 0.0000 0.0000 0.0000 0.0000 0.0000 5.1903
#
#
#
# Elastic Compliance Matrix: (Units=1/GPa)
#
#
# Indices 1 2 3 4 5 6 
#
# 1 0.008696 -0.002577 -0.002979 0.000000 0.000000 0.000000
# 2 -0.002577 0.012492 -0.005765 0.000000 0.000000 0.000000
# 3 -0.002979 -0.005765 0.015763 0.000000 0.000000 0.000000
# 4 0.000000 0.000000 0.000000 0.047655 0.000000 0.000000
# 5 0.000000 0.000000 0.000000 0.000000 0.019747 0.000000
# 6 0.000000 0.000000 0.000000 0.000000 0.000000 0.192668
#
#
# Mechanical properties :
#
#
# Convention : Reuss Voigt Hill
#
# Bulk Modulus (GPa) = 69.88774 72.39268 71.14021
# Shear Modulus (GPa) = 15.41158 28.83594 22.12376
#
# Velocity S-wave (km/s) = 2.81808 3.85476 3.37645
# Velocity P-wave (km/s) = 6.82657 7.55753 7.20133
#
# Compressibility (1/GPa) = 0.01430866
#
# Stress axis : x y z
#
# Youngs Moduli (GPa) = 115.00111 80.05337 63.43968
#
# Poissons Ratio (x) = 0.20631 0.18898
# Poissons Ratio (y) = 0.29638 0.36572
# Poissons Ratio (z) = 0.34257 0.46149
#
# Static dielectric constant tensor:
#      x y z
#    x 3.282020 0.000000 0.000000 
#    y 0.000000 3.680900 0.000000 
#    z 0.000000 0.000000 3.842550 
# 
# 
# High freq. dielectric constant tensor:
#      x y z
#    x 1.729530 0.000000 0.000000 
#    y 0.000000 1.756800 0.000000 
#    z 0.000000 0.000000 1.771660 
# 
# From -- ./inp_files/44206.got.cif
#   From: 2010.03.12/outbox.cif.g09.slc.cpg/sg65_23_cif.got.tgz:44206.got - 2010.04.10 20:52:16.
