data_PCOD8265834
_publ_section_title
;
Structure prediction by ZEFSAII (Michael W. Deem and Ramdas Pophale) SiO2 
 PCOD8265834
Probable space group: C M M M
;
_chemical_formula_sum "Si O2"
_cell_formula_units_Z 64
_cell_length_a 18.944162
_cell_length_b 8.758889
_cell_length_c 20.863611
_cell_angle_alpha 90.000000
_cell_angle_beta 90.000000
_cell_angle_gamma 90.000000
_cell_volume 3461.895054
_symmetry_space_group_name_H-M "C M M M"
_symmetry_group_IT_number 65
_symmetry_cell_setting 'orthorhombic'
loop_
_space_group_symop_operation_xyz
x,y,z
-x,-y,z
x,-y,-z
-x,y,-z
-x,-y,-z
x,y,-z
-x,y,z
x,-y,z
1/2+x,1/2+y,z
1/2-x,1/2-y,z
1/2+x,1/2-y,-z
1/2-x,1/2+y,-z
1/2-x,1/2-y,-z
1/2+x,1/2+y,-z
1/2-x,1/2+y,z
1/2+x,1/2-y,z
loop_
_atom_site_type_symbol
_atom_site_label
_atom_site_fract_x
_atom_site_fract_y
_atom_site_fract_z
Si Si1 0.326805 0.821334 0.569408
Si Si2 0.327757 0.680985 0.696175
Si Si3 0.324038 0.680347 0.072078
Si Si4 0.421053 0.318444 0.814436
O O1 0.365106 0.793641 0.500000
O O2 0.250000 0.750000 0.564942
O O3 0.364618 0.739205 0.629712
O O4 0.320629 0.000000 0.584018
O O5 0.322188 0.500000 0.695568
O O6 0.250000 0.750000 0.704830
O O7 0.376700 0.741065 0.753726
O O8 0.316438 0.500000 0.076038
O O9 0.250000 0.750000 0.094304
O O10 0.384424 0.739930 0.120135
O O11 0.343794 0.733413 0.000000
O O12 0.500000 0.250012 0.811518
O O13 0.423962 0.500000 0.813716
#
# Coordination Sequence:
#
# PCOD8265834 Si02
#       4
#    16  16  16  16
#     4   9  16  26  42  65  92 118 146 185 229 271
#     4  10  18  28  46  68  91 120 151 188 230 271
#     4   9  17  30  50  73  95 121 152 188 229 271
#     4   9  18  31  46  67  94 122 155 193 228 264
#
# _framework density 18.486986000000002
#
# number of rings (size 3 to 8) (size 9 to 14) (size 15 to 20)
#    0.000    2.750    0.000    3.750    0.000    2.000 
#    0.000    3.750    0.000    7.500    0.000    8.750 
#    0.000    0.000    0.000    0.000    0.000    0.000 
#
# Total GULP energy -396542.309535 kJ/mol
# GULP energy per Si atom -12391.947173 kJ/mol
# Density = 1.844491 g / cm^3
# Si number density = 18.486986 Si / 1000 Ang^3
#
#
#
# Elastic Constant Matrix: (Units=GPa)
#
#
# Indices 1 2 3 4 5 6 
#
# 1 106.9903 21.9363 86.0879 0.0000 0.0000 0.0000
# 2 21.9363 50.0914 32.3998 0.0000 0.0000 0.0000
# 3 86.0879 32.3998 181.7398 0.0000 0.0000 0.0000
# 4 0.0000 0.0000 0.0000 23.2931 0.0000 0.0000
# 5 0.0000 0.0000 0.0000 0.0000 8.1498 0.0000
# 6 0.0000 0.0000 0.0000 0.0000 0.0000 15.8143
#
#
#
# Elastic Compliance Matrix: (Units=1/GPa)
#
#
# Indices 1 2 3 4 5 6 
#
# 1 0.015330 -0.002279 -0.006855 0.000000 0.000000 0.000000
# 2 -0.002279 0.022904 -0.003004 0.000000 0.000000 0.000000
# 3 -0.006855 -0.003004 0.009285 0.000000 0.000000 0.000000
# 4 0.000000 0.000000 0.000000 0.042931 0.000000 0.000000
# 5 0.000000 0.000000 0.000000 0.000000 0.122702 0.000000
# 6 0.000000 0.000000 0.000000 0.000000 0.000000 0.063234
#
#
# Mechanical properties :
#
#
# Convention : Reuss Voigt Hill
#
# Bulk Modulus (GPa) = 43.02349 68.85218 55.93784
# Shear Modulus (GPa) = 16.21216 22.67793 19.44505
#
# Velocity S-wave (km/s) = 2.96455 3.50622 3.24670
# Velocity P-wave (km/s) = 5.91953 7.32911 6.66171
#
# Compressibility (1/GPa) = 0.02324312
#
# Stress axis : x y z
#
# Youngs Moduli (GPa) = 65.23184 43.65958 107.69940
#
# Poissons Ratio (x) = 0.09951 0.73831
# Poissons Ratio (y) = 0.14868 0.32349
# Poissons Ratio (z) = 0.44718 0.13114
#
# Static dielectric constant tensor:
#      x y z
#    x 3.260740 0.000000 0.000000 
#    y 0.000000 3.203640 0.000000 
#    z 0.000000 0.000000 4.298700 
# 
# 
# High freq. dielectric constant tensor:
#      x y z
#    x 1.671760 0.000000 0.000000 
#    y 0.000000 1.698200 0.000000 
#    z 0.000000 0.000000 1.746330 
# 
# From -- ./inp_files/59108.got.cif
#   From: 2010.03.12/outbox.cif.g09.slc.cpg/sg65_30_cif.got.tgz:59108.got - 2010.04.10 20:52:16.
