data_PCOD8265321
_publ_section_title
;
Structure prediction by ZEFSAII (Michael W. Deem and Ramdas Pophale) SiO2 
 PCOD8265321
Probable space group: C M M M
;
_chemical_formula_sum "Si O2"
_cell_formula_units_Z 104
_cell_length_a 10.348392
_cell_length_b 31.739433
_cell_length_c 19.160941
_cell_angle_alpha 90.000000
_cell_angle_beta 90.000000
_cell_angle_gamma 90.000000
_cell_volume 6293.451205
_symmetry_space_group_name_H-M "C M M M"
_symmetry_group_IT_number 65
_symmetry_cell_setting 'orthorhombic'
loop_
_space_group_symop_operation_xyz
x,y,z
-x,-y,z
x,-y,-z
-x,y,-z
-x,-y,-z
x,y,-z
-x,y,z
x,-y,z
1/2+x,1/2+y,z
1/2-x,1/2-y,z
1/2+x,1/2-y,-z
1/2-x,1/2+y,-z
1/2-x,1/2-y,-z
1/2+x,1/2+y,-z
1/2-x,1/2+y,z
1/2+x,1/2-y,z
loop_
_atom_site_type_symbol
_atom_site_label
_atom_site_fract_x
_atom_site_fract_y
_atom_site_fract_z
Si Si1 0.500000 0.710531 0.081899
Si Si2 0.346633 0.379107 0.422097
Si Si3 0.846673 0.000000 0.923459
Si Si4 0.762087 0.846139 0.917474
Si Si5 0.153104 0.923430 0.832492
Si Si6 0.146758 0.784743 0.583154
Si Si7 0.846237 0.048063 0.319893
Si Si8 0.000000 0.697895 0.918300
O O1 0.371661 0.686605 0.104706
O O2 0.500000 0.756306 0.118423
O O3 0.500000 0.716039 0.000000
O O4 0.289737 0.385081 0.500000
O O5 0.500000 0.382042 0.424246
O O6 0.310361 0.332207 0.392721
O O7 0.291372 0.417852 0.375604
O O8 0.797363 0.959915 0.882490
O O9 0.000000 0.000000 0.927903
O O10 0.784002 0.000000 0.000000
O O11 0.774874 0.883840 0.863845
O O12 0.625791 0.827207 0.896218
O O13 0.772780 0.858815 0.000000
O O14 0.200051 0.934779 0.754957
O O15 0.000000 0.916598 0.835609
O O16 0.145931 0.784224 0.500000
O O17 0.250000 0.750000 0.611880
O O18 0.000000 0.774496 0.609872
O O19 0.000000 0.046639 0.322085
O O20 0.794496 0.000000 0.333518
O O21 0.000000 0.705162 0.000000
#
# Coordination Sequence:
#
# PCOD8265321 Si02
#       8
#     8  16   8  16  16  16  16   8
#     4   9  16  28  46  67  89 117 154 192 227 269
#     4   8  14  24  39  62  90 121 152 182 223 271
#     4   9  16  24  38  59  86 112 138 186 232 265
#     4  10  18  28  45  68  92 118 151 190 228 270
#     4  10  17  27  41  63  89 115 149 186 230 276
#     4   8  13  22  38  62  91 119 146 177 214 257
#     4   9  16  26  40  61  90 119 150 186 229 276
#     4   9  18  30  44  65  93 121 150 188 233 273
#
# _framework density 16.525113999999999
#
# number of rings (size 3 to 8) (size 9 to 14) (size 15 to 20)
#    0.000    3.000    1.538    1.846    0.000    2.769 
#    0.000    1.538    0.000    2.308    2.000    2.154 
#    0.000    0.000    0.000    6.000    0.000    6.154 
#
# Total GULP energy -644241.792374 kJ/mol
# GULP energy per Si atom -12389.265238 kJ/mol
# Density = 1.648750 g / cm^3
# Si number density = 16.525114 Si / 1000 Ang^3
#
#
#
# Elastic Constant Matrix: (Units=GPa)
#
#
# Indices 1 2 3 4 5 6 
#
# 1 71.1434 52.6367 20.3676 0.0000 0.0000 0.0000
# 2 52.6367 174.7090 64.5546 0.0000 0.0000 0.0000
# 3 20.3676 64.5546 77.0242 0.0000 0.0000 0.0000
# 4 0.0000 0.0000 0.0000 39.5041 0.0000 0.0000
# 5 0.0000 0.0000 0.0000 0.0000 8.8020 0.0000
# 6 0.0000 0.0000 0.0000 0.0000 0.0000 171.3922
#
#
#
# Elastic Compliance Matrix: (Units=1/GPa)
#
#
# Indices 1 2 3 4 5 6 
#
# 1 0.018093 -0.005336 -0.000313 0.000000 0.000000 0.000000
# 2 -0.005336 0.009865 -0.006857 0.000000 0.000000 0.000000
# 3 -0.000313 -0.006857 0.018813 0.000000 0.000000 0.000000
# 4 0.000000 0.000000 0.000000 0.025314 0.000000 0.000000
# 5 0.000000 0.000000 0.000000 0.000000 0.113611 0.000000
# 6 0.000000 0.000000 0.000000 0.000000 0.000000 0.005835
#
#
# Mechanical properties :
#
#
# Convention : Reuss Voigt Hill
#
# Bulk Modulus (GPa) = 45.95525 66.44383 56.19954
# Shear Modulus (GPa) = 22.34199 56.29417 39.31808
#
# Velocity S-wave (km/s) = 3.68095 5.84293 4.88309
# Velocity P-wave (km/s) = 6.77758 9.26363 8.11635
#
# Compressibility (1/GPa) = 0.02176030
#
# Stress axis : x y z
#
# Youngs Moduli (GPa) = 55.26904 101.36838 53.15614
#
# Poissons Ratio (x) = 0.54087 0.01661
# Poissons Ratio (y) = 0.29490 0.36449
# Poissons Ratio (z) = 0.01727 0.69508
#
# Static dielectric constant tensor:
#      x y z
#    x 2.674760 0.000000 0.000000 
#    y 0.000000 3.422470 0.000000 
#    z 0.000000 0.000000 2.999100 
# 
# 
# High freq. dielectric constant tensor:
#      x y z
#    x 1.583740 0.000000 0.000000 
#    y 0.000000 1.655620 0.000000 
#    z 0.000000 0.000000 1.605540 
# 
# From -- ./inp_files/60958.got.cif
#   From: 2010.03.12/outbox.cif.g09.slc.cpg/sg65_31_cif.got.tgz:60958.got - 2010.04.10 20:52:16.
