data_PCOD8265680
_publ_section_title
;
Structure prediction by ZEFSAII (Michael W. Deem and Ramdas Pophale) SiO2 
 PCOD8265680
Probable space group: C M M M
;
_chemical_formula_sum "Si O2"
_cell_formula_units_Z 92
_cell_length_a 24.942305
_cell_length_b 21.183525
_cell_length_c 9.418061
_cell_angle_alpha 90.000000
_cell_angle_beta 90.000000
_cell_angle_gamma 90.000000
_cell_volume 4976.182668
_symmetry_space_group_name_H-M "C M M M"
_symmetry_group_IT_number 65
_symmetry_cell_setting 'orthorhombic'
loop_
_space_group_symop_operation_xyz
x,y,z
-x,-y,z
x,-y,-z
-x,y,-z
-x,-y,-z
x,y,-z
-x,y,z
x,-y,z
1/2+x,1/2+y,z
1/2-x,1/2-y,z
1/2+x,1/2-y,-z
1/2-x,1/2+y,-z
1/2-x,1/2-y,-z
1/2+x,1/2+y,-z
1/2-x,1/2+y,z
1/2+x,1/2-y,z
loop_
_atom_site_type_symbol
_atom_site_label
_atom_site_fract_x
_atom_site_fract_y
_atom_site_fract_z
Si Si1 0.600364 0.713679 0.334302
Si Si2 0.395854 0.854411 0.330246
Si Si3 0.881207 0.000000 0.158737
Si Si4 0.000000 0.571378 0.669014
Si Si5 0.823804 0.894031 0.334404
Si Si6 0.706271 0.929113 0.668475
Si Si7 0.000000 0.861083 0.663700
Si Si8 0.000000 0.000000 0.232609
O O1 0.589500 0.721958 0.500000
O O2 0.602533 0.783505 0.266498
O O3 0.656626 0.677654 0.308587
O O4 0.552412 0.671738 0.266053
O O5 0.394517 0.853751 0.500000
O O6 0.447516 0.892427 0.274288
O O7 0.342573 0.888099 0.269332
O O8 0.861688 0.939070 0.243596
O O9 0.945688 0.000000 0.141087
O O10 0.856898 0.000000 0.000000
O O11 0.000000 0.500000 0.728594
O O12 0.000000 0.570288 0.500000
O O13 0.829655 0.913439 0.500000
O O14 0.762489 0.898568 0.283074
O O15 0.702651 0.930750 0.500000
O O16 0.702490 0.000000 0.729637
O O17 0.000000 0.844197 0.500000
O O18 0.000000 0.936530 0.674367
#
# Coordination Sequence:
#
# PCOD8265680 Si02
#       8
#    16  16   8   8  16  16   8   4
#     4   9  17  27  41  64  94 128 164 203 248 294
#     4   9  16  25  38  62  96 132 169 206 243 295
#     4  12  24  37  52  75 104 130 165 211 256 295
#     4   9  15  23  36  54  89 140 175 194 238 304
#     4  10  19  33  52  72  99 133 168 205 249 301
#     4   9  16  26  43  66  94 128 168 209 246 289
#     4  10  18  27  45  70  95 126 164 206 247 289
#     4  12  22  34  50  68  95 122 163 202 245 296
#
# _framework density 18.488067000000001
#
# number of rings (size 3 to 8) (size 9 to 14) (size 15 to 20)
#    0.000    2.348    2.609    1.565    0.000    5.565 
#    0.000    3.478    0.000    0.000    0.000    2.435 
#    0.000    0.000    0.000    0.957    0.000    1.043 
#
# Total GULP energy -570155.019072 kJ/mol
# GULP energy per Si atom -12394.674328 kJ/mol
# Density = 1.844599 g / cm^3
# Si number density = 18.488067 Si / 1000 Ang^3
#
#
#
# Elastic Constant Matrix: (Units=GPa)
#
#
# Indices 1 2 3 4 5 6 
#
# 1 174.3600 96.7873 15.0015 0.0000 0.0000 0.0000
# 2 96.7873 186.1213 11.9445 0.0000 0.0000 0.0000
# 3 15.0015 11.9445 25.3669 0.0000 0.0000 0.0000
# 4 0.0000 0.0000 0.0000 -0.0953 0.0000 0.0000
# 5 0.0000 0.0000 0.0000 0.0000 5.0599 0.0000
# 6 0.0000 0.0000 0.0000 0.0000 0.0000 34.1800
#
#
#
# Elastic Compliance Matrix: (Units=1/GPa)
#
#
# Indices 1 2 3 4 5 6 
#
# 1 0.008272 -0.004112 -0.002956 0.000000 0.000000 0.000000
# 2 -0.004112 0.007584 -0.001139 0.000000 0.000000 0.000000
# 3 -0.002956 -0.001139 0.041706 0.000000 0.000000 0.000000
# 4 0.000000 0.000000 0.000000-10.493942 0.000000 0.000000
# 5 0.000000 0.000000 0.000000 0.000000 0.197633 0.000000
# 6 0.000000 0.000000 0.000000 0.000000 0.000000 0.029257
#
#
# Mechanical properties :
#
#
# Convention : Reuss Voigt Hill
#
# Bulk Modulus (GPa) = 24.30254 70.36832 47.33543
# Shear Modulus (GPa) = -0.49119 25.30324 12.40603
#
# Velocity S-wave (km/s) = -0.51600 3.70351 2.59323
# Velocity P-wave (km/s) = 3.58030 7.51213 5.88433
#
# Compressibility (1/GPa) = 0.04114795
#
# Stress axis : x y z
#
# Youngs Moduli (GPa) = 120.88758 131.85123 23.97738
#
# Poissons Ratio (x) = 0.54217 0.07087
# Poissons Ratio (y) = 0.49709 0.02732
# Poissons Ratio (z) = 0.35732 0.15024
#
# Static dielectric constant tensor:
#      x y z
#    x 3.708590 0.000000 0.000000 
#    y 0.000000 3.648020 0.000000 
#    z 0.000000 0.000000 2.557860 
# 
# 
# High freq. dielectric constant tensor:
#      x y z
#    x 1.734170 0.000000 0.000000 
#    y 0.000000 1.730050 0.000000 
#    z 0.000000 0.000000 1.621000 
# 
# From -- ./inp_files/14127.got.cif
#   From: 2010.03.12/outbox.cif.g09.slc.cpg/sg65_8_cif.got.tgz:14127.got - 2010.04.10 20:52:16.
