data_PCOD8265068
_publ_section_title
;
Structure prediction by ZEFSAII (Michael W. Deem and Ramdas Pophale) SiO2 
 PCOD8265068
Probable space group: C M M M
;
_chemical_formula_sum "Si O2"
_cell_formula_units_Z 104
_cell_length_a 8.665992
_cell_length_b 23.541770
_cell_length_c 31.715741
_cell_angle_alpha 90.000000
_cell_angle_beta 90.000000
_cell_angle_gamma 90.000000
_cell_volume 6470.416824
_symmetry_space_group_name_H-M "C M M M"
_symmetry_group_IT_number 65
_symmetry_cell_setting 'orthorhombic'
loop_
_space_group_symop_operation_xyz
x,y,z
-x,-y,z
x,-y,-z
-x,y,-z
-x,-y,-z
x,y,-z
-x,y,z
x,-y,z
1/2+x,1/2+y,z
1/2-x,1/2-y,z
1/2+x,1/2-y,-z
1/2-x,1/2+y,-z
1/2-x,1/2-y,-z
1/2+x,1/2+y,-z
1/2-x,1/2+y,z
1/2+x,1/2-y,z
loop_
_atom_site_type_symbol
_atom_site_label
_atom_site_fract_x
_atom_site_fract_y
_atom_site_fract_z
Si Si1 0.817495 0.813331 0.168499
Si Si2 0.681649 0.811870 0.500000
Si Si3 0.817010 0.385259 0.421288
Si Si4 0.817870 0.000000 0.452038
Si Si5 0.183564 0.813387 0.000000
Si Si6 0.320190 0.811996 0.656206
Si Si7 0.316611 0.813353 0.915645
Si Si8 0.680177 0.811937 0.251188
O O1 0.750000 0.750000 0.171383
O O2 0.743798 0.844144 0.127166
O O3 0.764889 0.844682 0.212120
O O4 0.000000 0.812695 0.163946
O O5 0.500000 0.806491 0.500000
O O6 0.750000 0.750000 0.500000
O O7 0.740588 0.845274 0.540907
O O8 0.739666 0.446108 0.425996
O O9 0.756639 0.356684 0.377965
O O10 0.000000 0.393312 0.421767
O O11 0.750680 0.000000 0.500000
O O12 0.000000 0.000000 0.453633
O O13 0.250000 0.750000 0.000000
O O14 0.248224 0.844175 0.042381
O O15 0.000000 0.813047 0.000000
O O16 0.500000 0.802914 0.649261
O O17 0.250000 0.750000 0.649486
O O18 0.287838 0.839329 0.702766
O O19 0.500000 0.812947 0.917418
O O20 0.250000 0.750000 0.914401
O O21 0.500000 0.808743 0.240616
O O22 0.750000 0.750000 0.254971
#
# Coordination Sequence:
#
# PCOD8265068 Si02
#       8
#    16   8  16   8   8  16  16  16
#     4  10  16  22  31  44  60  82 112 146 183 228
#     4  10  20  31  48  71  95 120 146 172 207 248
#     4  10  20  35  52  70  91 120 148 174 209 254
#     4  11  23  37  53  73  91 113 147 185 217 244
#     4  10  16  22  28  36  50  70  98 136 182 231
#     4   9  18  30  46  67  91 115 141 169 207 253
#     4  10  16  22  29  38  52  73 102 139 183 230
#     4   9  15  24  36  52  73  97 122 152 187 232
#
# _framework density 16.073153000000001
#
# number of rings (size 3 to 8) (size 9 to 14) (size 15 to 20)
#    0.000    2.231    0.769    7.385    0.000    2.154 
#    0.000    0.000    0.000    0.000    0.000    0.000 
#    0.000    0.000    0.000    0.000    0.000    0.000 
#
# Total GULP energy -644315.126639 kJ/mol
# GULP energy per Si atom -12390.675512 kJ/mol
# Density = 1.603657 g / cm^3
# Si number density = 16.073153 Si / 1000 Ang^3
#
#
#
# Elastic Constant Matrix: (Units=GPa)
#
#
# Indices 1 2 3 4 5 6 
#
# 1 101.4126 19.6277 58.0216 0.0000 0.0000 0.0000
# 2 19.6277 57.0282 41.0514 0.0000 0.0000 0.0000
# 3 58.0216 41.0514 183.8773 0.0000 0.0000 0.0000
# 4 0.0000 0.0000 0.0000 34.2663 0.0000 0.0000
# 5 0.0000 0.0000 0.0000 0.0000 23.9140 0.0000
# 6 0.0000 0.0000 0.0000 0.0000 0.0000 14.1195
#
#
#
# Elastic Compliance Matrix: (Units=1/GPa)
#
#
# Indices 1 2 3 4 5 6 
#
# 1 0.012169 -0.001697 -0.003461 0.000000 0.000000 0.000000
# 2 -0.001697 0.021129 -0.004182 0.000000 0.000000 0.000000
# 3 -0.003461 -0.004182 0.007464 0.000000 0.000000 0.000000
# 4 0.000000 0.000000 0.000000 0.029183 0.000000 0.000000
# 5 0.000000 0.000000 0.000000 0.000000 0.041816 0.000000
# 6 0.000000 0.000000 0.000000 0.000000 0.000000 0.070824
#
#
# Mechanical properties :
#
#
# Convention : Reuss Voigt Hill
#
# Bulk Modulus (GPa) = 45.28306 64.41326 54.84816
# Shear Modulus (GPa) = 23.96616 29.36779 26.66698
#
# Velocity S-wave (km/s) = 3.86562 4.27914 4.07762
# Velocity P-wave (km/s) = 6.93962 8.03596 7.50783
#
# Compressibility (1/GPa) = 0.02208331
#
# Stress axis : x y z
#
# Youngs Moduli (GPa) = 82.17351 47.32725 133.97354
#
# Poissons Ratio (x) = 0.08031 0.46370
# Poissons Ratio (y) = 0.13944 0.56025
# Poissons Ratio (z) = 0.28441 0.19791
#
# Static dielectric constant tensor:
#      x y z
#    x 3.083100 0.000000 0.000000 
#    y 0.000000 2.395270 0.000000 
#    z 0.000000 0.000000 4.947660 
# 
# 
# High freq. dielectric constant tensor:
#      x y z
#    x 1.630370 0.000000 0.000000 
#    y 0.000000 1.521190 0.000000 
#    z 0.000000 0.000000 1.653780 
# 
# From -- ./inp_files/77051.got.cif
#   From: 2010.03.12/outbox.cif.g09.slc.cpg/sg65_39_cif.got.tgz:77051.got - 2010.04.10 20:52:16.
