data_PCOD8265836
_publ_section_title
;
Structure prediction by ZEFSAII (Michael W. Deem and Ramdas Pophale) SiO2 
 PCOD8265836
Probable space group: C M M M
;
_chemical_formula_sum "Si O2"
_cell_formula_units_Z 80
_cell_length_a 19.899920
_cell_length_b 8.753313
_cell_length_c 25.973766
_cell_angle_alpha 90.000000
_cell_angle_beta 90.000000
_cell_angle_gamma 90.000000
_cell_volume 4524.376233
_symmetry_space_group_name_H-M "C M M M"
_symmetry_group_IT_number 65
_symmetry_cell_setting 'orthorhombic'
loop_
_space_group_symop_operation_xyz
x,y,z
-x,-y,z
x,-y,-z
-x,y,-z
-x,-y,-z
x,y,-z
-x,y,z
x,-y,z
1/2+x,1/2+y,z
1/2-x,1/2-y,z
1/2+x,1/2-y,-z
1/2-x,1/2+y,-z
1/2-x,1/2-y,-z
1/2+x,1/2+y,-z
1/2-x,1/2+y,z
1/2+x,1/2-y,z
loop_
_atom_site_type_symbol
_atom_site_label
_atom_site_fract_x
_atom_site_fract_y
_atom_site_fract_z
Si Si1 0.322878 0.678750 0.641191
Si Si2 0.324147 0.818614 0.143727
Si Si3 0.924997 0.681503 0.057401
Si Si4 0.677263 0.321526 0.245692
Si Si5 0.074949 0.181595 0.442568
O O1 0.313712 0.500000 0.632247
O O2 0.250000 0.750000 0.634046
O O3 0.355495 0.708873 0.698081
O O4 0.373406 0.751047 0.599121
O O5 0.250000 0.750000 0.136755
O O6 0.370994 0.754013 0.097960
O O7 0.358691 0.762588 0.197573
O O8 0.319625 0.000000 0.143231
O O9 0.924748 0.500000 0.059143
O O10 0.000000 0.740783 0.071362
O O11 0.905111 0.737882 0.000000
O O12 0.681764 0.500000 0.233108
O O13 0.750000 0.250000 0.249459
O O14 0.097363 0.232244 0.500000
O O15 0.000000 0.243934 0.430909
O O16 0.074260 0.000000 0.438574
#
# Coordination Sequence:
#
# PCOD8265836 Si02
#       5
#    16  16  16  16  16
#     4   9  17  28  44  66  88 112 144 179 215 254
#     4  10  18  28  46  69  90 113 143 179 215 253
#     4   8  15  29  47  65  86 114 147 179 211 251
#     4   9  16  27  42  61  88 118 144 173 212 256
#     4   8  14  26  44  64  86 113 145 179 213 253
#
# _framework density 17.681996000000002
#
# number of rings (size 3 to 8) (size 9 to 14) (size 15 to 20)
#    0.000    3.200    0.000    3.600    0.000    1.600 
#    0.000    1.000    0.000    6.000    0.000    7.000 
#    0.000    0.000    0.000    0.000    0.000    0.000 
#
# Total GULP energy -495539.799045 kJ/mol
# GULP energy per Si atom -12388.494976 kJ/mol
# Density = 1.764175 g / cm^3
# Si number density = 17.681996 Si / 1000 Ang^3
#
#
#
# Elastic Constant Matrix: (Units=GPa)
#
#
# Indices 1 2 3 4 5 6 
#
# 1 92.0331 20.4519 93.6210 0.0000 0.0000 0.0000
# 2 20.4519 40.3754 32.6683 0.0000 0.0000 0.0000
# 3 93.6210 32.6683 186.0618 0.0000 0.0000 0.0000
# 4 0.0000 0.0000 0.0000 14.2755 0.0000 0.0000
# 5 0.0000 0.0000 0.0000 0.0000 19.7981 0.0000
# 6 0.0000 0.0000 0.0000 0.0000 0.0000 12.2574
#
#
#
# Elastic Compliance Matrix: (Units=1/GPa)
#
#
# Indices 1 2 3 4 5 6 
#
# 1 0.022492 -0.002606 -0.010860 0.000000 0.000000 0.000000
# 2 -0.002606 0.029171 -0.003810 0.000000 0.000000 0.000000
# 3 -0.010860 -0.003810 0.011508 0.000000 0.000000 0.000000
# 4 0.000000 0.000000 0.000000 0.070050 0.000000 0.000000
# 5 0.000000 0.000000 0.000000 0.000000 0.050510 0.000000
# 6 0.000000 0.000000 0.000000 0.000000 0.000000 0.081583
#
#
# Mechanical properties :
#
#
# Convention : Reuss Voigt Hill
#
# Bulk Modulus (GPa) = 34.94333 67.99474 51.46904
# Shear Modulus (GPa) = 16.16001 20.71480 18.43740
#
# Velocity S-wave (km/s) = 3.02640 3.42646 3.23262
# Velocity P-wave (km/s) = 5.65837 7.36151 6.56540
#
# Compressibility (1/GPa) = 0.02861776
#
# Stress axis : x y z
#
# Youngs Moduli (GPa) = 44.46050 34.28096 86.89757
#
# Poissons Ratio (x) = 0.08935 0.94368
# Poissons Ratio (y) = 0.11588 0.33110
# Poissons Ratio (z) = 0.48282 0.13062
#
# Static dielectric constant tensor:
#      x y z
#    x 3.263400 0.000000 0.000000 
#    y 0.000000 2.965480 0.000000 
#    z 0.000000 0.000000 4.198530 
# 
# 
# High freq. dielectric constant tensor:
#      x y z
#    x 1.654290 0.000000 0.000000 
#    y 0.000000 1.650910 0.000000 
#    z 0.000000 0.000000 1.705570 
# 
# From -- ./inp_files/77769.got.cif
#   From: 2010.03.12/outbox.cif.g09.slc.cpg/sg65_39_cif.got.tgz:77769.got - 2010.04.10 20:52:16.
