data_PCOD8265018
_publ_section_title
;
Structure prediction by ZEFSAII (Michael W. Deem and Ramdas Pophale) SiO2 
 PCOD8265018
Probable space group: C M C A
;
_chemical_formula_sum "Si O2"
_cell_formula_units_Z 112
_cell_length_a 9.911016
_cell_length_b 23.086784
_cell_length_c 32.048111
_cell_angle_alpha 90.000000
_cell_angle_beta 90.000000
_cell_angle_gamma 90.000000
_cell_volume 7333.039985
_symmetry_space_group_name_H-M "C M C A"
_symmetry_group_IT_number 64
_symmetry_cell_setting 'orthorhombic'
loop_
_space_group_symop_operation_xyz
x,y,z
-x,1/2-y,1/2+z
x,-y,-z
-x,1/2+y,1/2-z
-x,-y,-z
x,1/2+y,1/2-z
-x,y,z
x,1/2-y,1/2+z
1/2+x,1/2+y,z
1/2-x,-y,1/2+z
1/2+x,1/2-y,-z
1/2-x,y,1/2-z
1/2-x,1/2-y,-z
1/2+x,y,1/2-z
1/2-x,1/2+y,z
1/2+x,-y,1/2+z
loop_
_atom_site_type_symbol
_atom_site_label
_atom_site_fract_x
_atom_site_fract_y
_atom_site_fract_z
Si Si1 0.848403 0.004601 0.286075
Si Si2 0.339127 0.514997 0.378314
Si Si3 0.648708 0.142609 0.216373
Si Si4 0.659973 0.458943 0.463191
Si Si5 0.345901 0.734015 0.441234
Si Si6 0.840700 0.356355 0.875592
Si Si7 0.346707 0.827260 0.029506
O O1 0.750000 0.978919 0.250000
O O2 0.000000 0.979953 0.278828
O O3 0.794582 0.988647 0.333004
O O4 0.852210 0.073513 0.283013
O O5 0.500000 0.518027 0.377675
O O6 0.284882 0.477312 0.417321
O O7 0.279557 0.579884 0.384437
O O8 0.500000 0.166178 0.226995
O O9 0.750000 0.169412 0.250000
O O10 0.695571 0.164210 0.171012
O O11 0.719615 0.500000 0.500000
O O12 0.500000 0.464810 0.463506
O O13 0.705045 0.393277 0.471851
O O14 0.500000 0.752555 0.431373
O O15 0.281580 0.691562 0.406668
O O16 0.338971 0.698556 0.483694
O O17 0.253440 0.791158 0.440937
O O18 0.000000 0.360145 0.882356
O O19 0.500000 0.823824 0.046886
#
# Coordination Sequence:
#
# PCOD8265018 Si02
#       7
#    16  16  16  16  16  16  16
#     4   8  13  21  34  52  75 101 125 152 188 228
#     4   8  13  21  35  57  81 102 127 160 195 228
#     4   8  13  21  33  51  75  99 122 150 185 225
#     4   9  15  23  38  60  83 104 127 159 196 229
#     4   9  16  27  42  57  76 104 132 156 186 225
#     4   8  13  22  37  56  77 102 131 157 183 225
#     4   9  17  27  40  60  81  99 126 163 194 221
#
# _framework density 15.273337
#
# number of rings (size 3 to 8) (size 9 to 14) (size 15 to 20)
#    0.000    3.571    0.000    2.571    0.000    3.429 
#    0.000    0.714    0.000    2.143    0.000    1.000 
#    0.000    6.857    0.000    0.000    0.000    0.000 
#
# Total GULP energy -693869.292437 kJ/mol
# GULP energy per Si atom -12390.523079 kJ/mol
# Density = 1.523857 g / cm^3
# Si number density = 15.273337 Si / 1000 Ang^3
#
#
#
# Elastic Constant Matrix: (Units=GPa)
#
#
# Indices 1 2 3 4 5 6 
#
# 1 39.9420 26.2369 28.5368 0.0000 0.0000 0.0000
# 2 26.2369 75.1585 30.7517 0.0000 0.0000 0.0000
# 3 28.5368 30.7517 83.1905 0.0000 0.0000 0.0000
# 4 0.0000 0.0000 0.0000 18.6534 0.0000 0.0000
# 5 0.0000 0.0000 0.0000 0.0000 18.7341 0.0000
# 6 0.0000 0.0000 0.0000 0.0000 0.0000 13.9821
#
#
#
# Elastic Compliance Matrix: (Units=1/GPa)
#
#
# Indices 1 2 3 4 5 6 
#
# 1 0.038030 -0.009353 -0.009588 0.000000 0.000000 0.000000
# 2 -0.009353 0.017976 -0.003437 0.000000 0.000000 0.000000
# 3 -0.009588 -0.003437 0.016580 0.000000 0.000000 0.000000
# 4 0.000000 0.000000 0.000000 0.053609 0.000000 0.000000
# 5 0.000000 0.000000 0.000000 0.000000 0.053379 0.000000
# 6 0.000000 0.000000 0.000000 0.000000 0.000000 0.071520
#
#
# Mechanical properties :
#
#
# Convention : Reuss Voigt Hill
#
# Bulk Modulus (GPa) = 35.93096 41.03799 38.48448
# Shear Modulus (GPa) = 16.38658 17.79161 17.08909
#
# Velocity S-wave (km/s) = 3.27905 3.41674 3.34860
# Velocity P-wave (km/s) = 6.15732 6.51865 6.34056
#
# Compressibility (1/GPa) = 0.02783115
#
# Stress axis : x y z
#
# Youngs Moduli (GPa) = 26.29479 55.62866 60.31340
#
# Poissons Ratio (x) = 0.52029 0.57830
# Poissons Ratio (y) = 0.24593 0.20728
# Poissons Ratio (z) = 0.25212 0.19118
#
# Static dielectric constant tensor:
#      x y z
#    x 2.764520 0.000000 0.000000 
#    y 0.000000 2.759520 0.000000 
#    z 0.000000 0.000000 3.255000 
# 
# 
# High freq. dielectric constant tensor:
#      x y z
#    x 1.543080 0.000000 0.000000 
#    y 0.000000 1.547440 0.000000 
#    z 0.000000 0.000000 1.593180 
# 
# From -- ./inp_files/49505.got.cif
#   From: 2010.03.12/outbox.cif.g09.slc.cpg/sg64_25_cif.got.tgz:49505.got - 2010.04.10 20:19:32.
