data_PCOD8265107
_publ_section_title
;
Structure prediction by ZEFSAII (Michael W. Deem and Ramdas Pophale) SiO2 
 PCOD8265107
Probable space group: C M M M
;
_chemical_formula_sum "Si O2"
_cell_formula_units_Z 72
_cell_length_a 8.763456
_cell_length_b 23.443399
_cell_length_c 20.700262
_cell_angle_alpha 90.000000
_cell_angle_beta 90.000000
_cell_angle_gamma 90.000000
_cell_volume 4252.769376
_symmetry_space_group_name_H-M "C M M M"
_symmetry_group_IT_number 65
_symmetry_cell_setting 'orthorhombic'
loop_
_space_group_symop_operation_xyz
x,y,z
-x,-y,z
x,-y,-z
-x,y,-z
-x,-y,-z
x,y,-z
-x,y,z
x,-y,z
1/2+x,1/2+y,z
1/2-x,1/2-y,z
1/2+x,1/2-y,-z
1/2-x,1/2+y,-z
1/2-x,1/2-y,-z
1/2+x,1/2+y,-z
1/2-x,1/2+y,z
1/2+x,1/2-y,z
loop_
_atom_site_type_symbol
_atom_site_label
_atom_site_fract_x
_atom_site_fract_y
_atom_site_fract_z
Si Si1 0.822445 0.312491 0.231886
Si Si2 0.324362 0.811179 0.624740
Si Si3 0.179494 0.188405 0.000000
Si Si4 0.819239 0.115056 0.878869
Si Si5 0.319123 0.000000 0.925904
Si Si6 0.180063 0.813624 0.500000
O O1 0.750000 0.250000 0.224015
O O2 0.804025 0.338787 0.304365
O O3 0.736257 0.357452 0.187481
O O4 0.000000 0.307578 0.212905
O O5 0.500000 0.804919 0.605703
O O6 0.250000 0.750000 0.630946
O O7 0.240146 0.844951 0.565749
O O8 0.250000 0.250000 0.000000
O O9 0.237051 0.155079 0.062884
O O10 0.000000 0.194802 0.000000
O O11 0.742849 0.054019 0.887381
O O12 0.000000 0.107713 0.878335
O O13 0.500000 0.000000 0.924262
O O14 0.258833 0.000000 0.000000
O O15 0.250000 0.750000 0.500000
O O16 0.000000 0.812688 0.500000
#
# Coordination Sequence:
#
# PCOD8265107 Si02
#       6
#    16  16   8  16   8   8
#     4  10  20  33  49  72 101 134 170 206 249 300
#     4   9  16  26  40  59  89 126 163 201 240 285
#     4  10  22  35  50  73  99 128 160 196 239 290
#     4  11  22  37  55  74  99 130 164 205 250 299
#     4  11  23  39  59  79  97 124 161 206 253 299
#     4  10  16  22  36  58  86 121 164 203 236 282
#
# _framework density 16.930143999999999
#
# number of rings (size 3 to 8) (size 9 to 14) (size 15 to 20)
#    0.000    1.889    1.111    5.333    0.000    6.667 
#    0.000    0.000    0.000    0.000    0.000    0.000 
#    0.000    0.889    0.000    9.333    0.000    5.111 
#
# Total GULP energy -446237.771183 kJ/mol
# GULP energy per Si atom -12395.493644 kJ/mol
# Density = 1.689161 g / cm^3
# Si number density = 16.930144 Si / 1000 Ang^3
#
#
#
# Elastic Constant Matrix: (Units=GPa)
#
#
# Indices 1 2 3 4 5 6 
#
# 1 103.4681 31.8666 53.3590 0.0000 0.0000 0.0000
# 2 31.8666 88.7688 46.4409 0.0000 0.0000 0.0000
# 3 53.3590 46.4409 136.1523 0.0000 0.0000 0.0000
# 4 0.0000 0.0000 0.0000 1.4749 0.0000 0.0000
# 5 0.0000 0.0000 0.0000 0.0000 31.5248 0.0000
# 6 0.0000 0.0000 0.0000 0.0000 0.0000 24.4937
#
#
#
# Elastic Compliance Matrix: (Units=1/GPa)
#
#
# Indices 1 2 3 4 5 6 
#
# 1 0.012501 -0.002343 -0.004100 0.000000 0.000000 0.000000
# 2 -0.002343 0.014151 -0.003909 0.000000 0.000000 0.000000
# 3 -0.004100 -0.003909 0.010285 0.000000 0.000000 0.000000
# 4 0.000000 0.000000 0.000000 0.678031 0.000000 0.000000
# 5 0.000000 0.000000 0.000000 0.000000 0.031721 0.000000
# 6 0.000000 0.000000 0.000000 0.000000 0.000000 0.040827
#
#
# Mechanical properties :
#
#
# Convention : Reuss Voigt Hill
#
# Bulk Modulus (GPa) = 61.59991 65.74692 63.67341
# Shear Modulus (GPa) = 6.14530 24.61352 15.37941
#
# Velocity S-wave (km/s) = 1.90727 3.81705 3.01724
# Velocity P-wave (km/s) = 6.42759 7.63839 7.05900
#
# Compressibility (1/GPa) = 0.01623379
#
# Stress axis : x y z
#
# Youngs Moduli (GPa) = 79.99548 70.66582 97.23050
#
# Poissons Ratio (x) = 0.16554 0.39865
# Poissons Ratio (y) = 0.18739 0.38006
# Poissons Ratio (z) = 0.32799 0.27622
#
# Static dielectric constant tensor:
#      x y z
#    x 2.680760 0.000000 0.000000 
#    y 0.000000 2.718030 0.000000 
#    z 0.000000 0.000000 4.233000 
# 
# 
# High freq. dielectric constant tensor:
#      x y z
#    x 1.673050 0.000000 0.000000 
#    y 0.000000 1.592850 0.000000 
#    z 0.000000 0.000000 1.675710 
# 
# From -- ./inp_files/59426.got.cif
#   From: 2010.03.12/outbox.cif.g09.slc.cpg/sg65_30_cif.got.tgz:59426.got - 2010.04.10 20:52:16.
