data_PCOD8265515
_publ_section_title
;
Structure prediction by ZEFSAII (Michael W. Deem and Ramdas Pophale) SiO2 
 PCOD8265515
Probable space group: C M M M
;
_chemical_formula_sum "Si O2"
_cell_formula_units_Z 80
_cell_length_a 8.765483
_cell_length_b 23.836310
_cell_length_c 20.216189
_cell_angle_alpha 90.000000
_cell_angle_beta 90.000000
_cell_angle_gamma 90.000000
_cell_volume 4223.905233
_symmetry_space_group_name_H-M "C M M M"
_symmetry_group_IT_number 65
_symmetry_cell_setting 'orthorhombic'
loop_
_space_group_symop_operation_xyz
x,y,z
-x,-y,z
x,-y,-z
-x,y,-z
-x,-y,-z
x,y,-z
-x,y,z
x,-y,z
1/2+x,1/2+y,z
1/2-x,1/2-y,z
1/2+x,1/2-y,-z
1/2-x,1/2+y,-z
1/2-x,1/2-y,-z
1/2+x,1/2+y,-z
1/2-x,1/2+y,z
1/2+x,1/2-y,z
loop_
_atom_site_type_symbol
_atom_site_label
_atom_site_fract_x
_atom_site_fract_y
_atom_site_fract_z
Si Si1 0.176836 0.378798 0.313322
Si Si2 0.819363 0.189226 0.194757
Si Si3 0.181522 0.883539 0.926511
Si Si4 0.679489 0.500000 0.127904
Si Si5 0.321496 0.308708 0.576580
Si Si6 0.327235 0.000000 0.266623
O O1 0.266892 0.350764 0.253412
O O2 0.243735 0.358563 0.382968
O O3 0.202658 0.445573 0.311588
O O4 0.000000 0.362383 0.307782
O O5 0.750000 0.250000 0.204353
O O6 0.760479 0.163169 0.125288
O O7 0.000000 0.193786 0.196583
O O8 0.248954 0.944429 0.906406
O O9 0.000000 0.886272 0.924689
O O10 0.240353 0.867679 0.000000
O O11 0.500000 0.500000 0.118280
O O12 0.713784 0.500000 0.205268
O O13 0.285709 0.320004 0.500000
O O14 0.500000 0.306770 0.591536
O O15 0.250000 0.250000 0.600103
O O16 0.500000 0.000000 0.239009
#
# Coordination Sequence:
#
# PCOD8265515 Si02
#       6
#    16  16  16   8  16   8
#     4  11  22  38  59  83 113 148 186 228 274 327
#     4  11  22  36  55  79 109 145 187 232 280 332
#     4   9  18  32  53  81 109 139 180 230 282 335
#     4  10  17  32  58  83 105 137 182 232 279 332
#     4  10  21  38  61  89 119 150 185 226 271 320
#     4  10  22  37  56  82 114 146 180 227 280 328
#
# _framework density 18.939819
#
# number of rings (size 3 to 8) (size 9 to 14) (size 15 to 20)
#    0.000    1.800    2.000    2.700    0.000    3.600 
#    0.000    0.500    0.000    8.400    0.000    0.000 
#    0.000    0.000    0.000    0.000    0.000    0.000 
#
# Total GULP energy -496092.904555 kJ/mol
# GULP energy per Si atom -12402.322614 kJ/mol
# Density = 1.889671 g / cm^3
# Si number density = 18.939819 Si / 1000 Ang^3
#
#
#
# Elastic Constant Matrix: (Units=GPa)
#
#
# Indices 1 2 3 4 5 6 
#
# 1 59.4134 38.9565 30.9972 0.0000 0.0000 0.0000
# 2 38.9565 139.1213 59.1235 0.0000 0.0000 0.0000
# 3 30.9972 59.1235 109.2430 0.0000 0.0000 0.0000
# 4 0.0000 0.0000 0.0000 37.9085 0.0000 0.0000
# 5 0.0000 0.0000 0.0000 0.0000 19.4182 0.0000
# 6 0.0000 0.0000 0.0000 0.0000 0.0000 19.1105
#
#
#
# Elastic Compliance Matrix: (Units=1/GPa)
#
#
# Indices 1 2 3 4 5 6 
#
# 1 0.021727 -0.004499 -0.003730 0.000000 0.000000 0.000000
# 2 -0.004499 0.010267 -0.004280 0.000000 0.000000 0.000000
# 3 -0.003730 -0.004280 0.012529 0.000000 0.000000 0.000000
# 4 0.000000 0.000000 0.000000 0.026379 0.000000 0.000000
# 5 0.000000 0.000000 0.000000 0.000000 0.051498 0.000000
# 6 0.000000 0.000000 0.000000 0.000000 0.000000 0.052327
#
#
# Mechanical properties :
#
#
# Convention : Reuss Voigt Hill
#
# Bulk Modulus (GPa) = 51.26975 62.88135 57.07555
# Shear Modulus (GPa) = 24.24287 27.20080 25.72183
#
# Velocity S-wave (km/s) = 3.58158 3.79379 3.68921
# Velocity P-wave (km/s) = 6.65073 7.24315 6.95325
#
# Compressibility (1/GPa) = 0.01950468
#
# Stress axis : x y z
#
# Youngs Moduli (GPa) = 46.02545 97.40372 79.81703
#
# Poissons Ratio (x) = 0.43819 0.29773
# Poissons Ratio (y) = 0.20706 0.34161
# Poissons Ratio (z) = 0.17168 0.41688
#
# Static dielectric constant tensor:
#      x y z
#    x 3.373860 0.000000 0.000000 
#    y 0.000000 3.644130 0.000000 
#    z 0.000000 0.000000 3.560160 
# 
# 
# High freq. dielectric constant tensor:
#      x y z
#    x 1.724140 0.000000 0.000000 
#    y 0.000000 1.742090 0.000000 
#    z 0.000000 0.000000 1.738250 
# 
# From -- ./inp_files/59651.got.cif
#   From: 2010.03.12/outbox.cif.g09.slc.cpg/sg65_30_cif.got.tgz:59651.got - 2010.04.10 20:52:16.
