data_PCOD8265187
_publ_section_title
;
Structure prediction by ZEFSAII (Michael W. Deem and Ramdas Pophale) SiO2 
 PCOD8265187
Probable space group: C M M M
;
_chemical_formula_sum "Si O2"
_cell_formula_units_Z 88
_cell_length_a 8.579788
_cell_length_b 24.036690
_cell_length_c 22.756413
_cell_angle_alpha 90.000000
_cell_angle_beta 90.000000
_cell_angle_gamma 90.000000
_cell_volume 4693.048327
_symmetry_space_group_name_H-M "C M M M"
_symmetry_group_IT_number 65
_symmetry_cell_setting 'orthorhombic'
loop_
_space_group_symop_operation_xyz
x,y,z
-x,-y,z
x,-y,-z
-x,y,-z
-x,-y,-z
x,y,-z
-x,y,z
x,-y,z
1/2+x,1/2+y,z
1/2-x,1/2-y,z
1/2+x,1/2-y,-z
1/2-x,1/2+y,-z
1/2-x,1/2-y,-z
1/2+x,1/2+y,-z
1/2-x,1/2+y,z
1/2+x,1/2-y,z
loop_
_atom_site_type_symbol
_atom_site_label
_atom_site_fract_x
_atom_site_fract_y
_atom_site_fract_z
Si Si1 0.672559 0.000000 0.307121
Si Si2 0.319285 0.190145 0.067687
Si Si3 0.312356 0.064372 0.500000
Si Si4 0.314417 0.188213 0.721100
Si Si5 0.184379 0.879187 0.168880
Si Si6 0.677430 0.110420 0.379852
Si Si7 0.322374 0.500000 0.189094
O O1 0.694000 0.052943 0.346877
O O2 0.500000 0.000000 0.277633
O O3 0.807098 0.000000 0.259174
O O4 0.500000 0.190105 0.085088
O O5 0.250000 0.250000 0.081897
O O6 0.225542 0.146325 0.106172
O O7 0.293585 0.173864 0.000000
O O8 0.500000 0.062529 0.500000
O O9 0.246125 0.099365 0.556089
O O10 0.252177 0.000000 0.500000
O O11 0.500000 0.189129 0.720358
O O12 0.250000 0.250000 0.724795
O O13 0.263367 0.154160 0.778276
O O14 0.247453 0.158770 0.661373
O O15 0.000000 0.878641 0.179620
O O16 0.252584 0.942386 0.165706
O O17 0.500000 0.127551 0.390261
O O18 0.500000 0.500000 0.169826
#
# Coordination Sequence:
#
# PCOD8265187 Si02
#       7
#     8  16   8  16  16  16   8
#     4  10  16  29  52  79 105 134 173 221 269 316
#     4  10  21  38  60  85 112 144 182 223 266 311
#     4   9  14  24  45  76 108 132 164 217 272 319
#     4  11  22  36  53  76 106 141 181 224 270 318
#     4  11  22  37  57  82 111 143 179 219 266 318
#     4   9  17  28  48  77 107 135 170 219 272 320
#     4  10  22  36  52  80 113 145 175 212 267 324
#
# _framework density 18.751139999999999
#
# number of rings (size 3 to 8) (size 9 to 14) (size 15 to 20)
#    0.000    1.909    2.727    2.182    0.000    1.818 
#    0.000    0.909    0.000    2.727    0.000    5.727 
#    0.000    0.000    0.000    0.000    0.000    0.000 
#
# Total GULP energy -545288.652712 kJ/mol
# GULP energy per Si atom -12392.923925 kJ/mol
# Density = 1.870846 g / cm^3
# Si number density = 18.751140 Si / 1000 Ang^3
#
#
#
# Elastic Constant Matrix: (Units=GPa)
#
#
# Indices 1 2 3 4 5 6 
#
# 1 42.1288 31.6734 22.9227 0.0000 0.0000 0.0000
# 2 31.6734 157.1673 75.7902 0.0000 0.0000 0.0000
# 3 22.9227 75.7902 120.0445 0.0000 0.0000 0.0000
# 4 0.0000 0.0000 0.0000 45.1579 0.0000 0.0000
# 5 0.0000 0.0000 0.0000 0.0000 15.5931 0.0000
# 6 0.0000 0.0000 0.0000 0.0000 0.0000 9.0996
#
#
#
# Elastic Compliance Matrix: (Units=1/GPa)
#
#
# Indices 1 2 3 4 5 6 
#
# 1 0.028535 -0.004490 -0.002614 0.000000 0.000000 0.000000
# 2 -0.004490 0.009854 -0.005364 0.000000 0.000000 0.000000
# 3 -0.002614 -0.005364 0.012216 0.000000 0.000000 0.000000
# 4 0.000000 0.000000 0.000000 0.022145 0.000000 0.000000
# 5 0.000000 0.000000 0.000000 0.000000 0.064131 0.000000
# 6 0.000000 0.000000 0.000000 0.000000 0.000000 0.109895
#
#
# Mechanical properties :
#
#
# Convention : Reuss Voigt Hill
#
# Bulk Modulus (GPa) = 38.95779 64.45702 51.70741
# Shear Modulus (GPa) = 17.84007 26.56706 22.20356
#
# Velocity S-wave (km/s) = 3.08784 3.76816 3.44483
# Velocity P-wave (km/s) = 5.79089 7.30627 6.59227
#
# Compressibility (1/GPa) = 0.02566881
#
# Stress axis : x y z
#
# Youngs Moduli (GPa) = 35.04501 101.47957 81.85968
#
# Poissons Ratio (x) = 0.45564 0.21398
# Poissons Ratio (y) = 0.15735 0.43910
# Poissons Ratio (z) = 0.09161 0.54435
#
# Static dielectric constant tensor:
#      x y z
#    x 3.283440 0.000000 0.000000 
#    y 0.000000 3.683790 0.000000 
#    z 0.000000 0.000000 3.610570 
# 
# 
# High freq. dielectric constant tensor:
#      x y z
#    x 1.702080 0.000000 0.000000 
#    y 0.000000 1.732940 0.000000 
#    z 0.000000 0.000000 1.731810 
# 
# From -- ./inp_files/59928.got.cif
#   From: 2010.03.12/outbox.cif.g09.slc.cpg/sg65_30_cif.got.tgz:59928.got - 2010.04.10 20:52:16.
