data_PCOD8265990
_publ_section_title
;
Structure prediction by ZEFSAII (Michael W. Deem and Ramdas Pophale) SiO2 
 PCOD8265990
Probable space group: C M M M
;
_chemical_formula_sum "Si O2"
_cell_formula_units_Z 56
_cell_length_a 9.660196
_cell_length_b 25.359108
_cell_length_c 13.461410
_cell_angle_alpha 90.000000
_cell_angle_beta 90.000000
_cell_angle_gamma 90.000000
_cell_volume 3297.694830
_symmetry_space_group_name_H-M "C M M M"
_symmetry_group_IT_number 65
_symmetry_cell_setting 'orthorhombic'
loop_
_space_group_symop_operation_xyz
x,y,z
-x,-y,z
x,-y,-z
-x,y,-z
-x,-y,-z
x,y,-z
-x,y,z
x,-y,z
1/2+x,1/2+y,z
1/2-x,1/2-y,z
1/2+x,1/2-y,-z
1/2-x,1/2+y,-z
1/2-x,1/2-y,-z
1/2+x,1/2+y,-z
1/2-x,1/2+y,z
1/2+x,1/2-y,z
loop_
_atom_site_type_symbol
_atom_site_label
_atom_site_fract_x
_atom_site_fract_y
_atom_site_fract_z
Si Si1 0.160384 0.198779 0.886352
Si Si2 0.212630 0.139093 0.700387
Si Si3 0.000000 0.061951 0.616353
Si Si4 0.500000 0.718648 0.616563
Si Si5 0.500000 0.162319 0.381994
O O1 0.250000 0.250000 0.859513
O O2 0.208839 0.149172 0.819152
O O3 0.000000 0.212348 0.864418
O O4 0.183570 0.181595 0.000000
O O5 0.134812 0.085587 0.670036
O O6 0.367239 0.132503 0.661070
O O7 0.138854 0.189794 0.651713
O O8 0.000000 0.077585 0.500000
O O9 0.000000 0.000000 0.632175
O O10 0.500000 0.719544 0.500000
O O11 0.500000 0.777859 0.657895
O O12 0.500000 0.158680 0.500000
#
# Coordination Sequence:
#
# PCOD8265990 Si02
#       5
#    16  16   8   8   8
#     4  10  20  33  51  77 111 146 179 213 253 309
#     4  11  20  33  51  74 103 140 176 219 261 313
#     4  10  21  39  59  75  97 134 181 231 284 333
#     4  10  18  29  45  69 105 140 169 197 247 319
#     4  11  21  30  47  77 109 137 170 210 259 319
#
# _framework density 16.981558
#
# number of rings (size 3 to 8) (size 9 to 14) (size 15 to 20)
#    0.000    1.571    2.857    6.000    2.000    2.286 
#    0.000    0.714    0.000    4.286    0.000    0.000 
#    0.000    2.286    0.000    0.000    0.000    0.000 
#
# Total GULP energy -347256.603882 kJ/mol
# GULP energy per Si atom -12402.021567 kJ/mol
# Density = 1.694291 g / cm^3
# Si number density = 16.981558 Si / 1000 Ang^3
#
#
#
# Elastic Constant Matrix: (Units=GPa)
#
#
# Indices 1 2 3 4 5 6 
#
# 1 142.1398 40.4654 43.9835 0.0000 0.0000 0.0000
# 2 40.4654 87.8868 43.7408 0.0000 0.0000 0.0000
# 3 43.9835 43.7408 105.6231 0.0000 0.0000 0.0000
# 4 0.0000 0.0000 0.0000 20.3229 0.0000 0.0000
# 5 0.0000 0.0000 0.0000 0.0000 27.6973 0.0000
# 6 0.0000 0.0000 0.0000 0.0000 0.0000 11.5928
#
#
#
# Elastic Compliance Matrix: (Units=1/GPa)
#
#
# Indices 1 2 3 4 5 6 
#
# 1 0.008567 -0.002732 -0.002436 0.000000 0.000000 0.000000
# 2 -0.002732 0.015203 -0.005158 0.000000 0.000000 0.000000
# 3 -0.002436 -0.005158 0.012618 0.000000 0.000000 0.000000
# 4 0.000000 0.000000 0.000000 0.049206 0.000000 0.000000
# 5 0.000000 0.000000 0.000000 0.000000 0.036105 0.000000
# 6 0.000000 0.000000 0.000000 0.000000 0.000000 0.086260
#
#
# Mechanical properties :
#
#
# Convention : Reuss Voigt Hill
#
# Bulk Modulus (GPa) = 63.54985 65.78101 64.66543
# Shear Modulus (GPa) = 21.38056 25.75326 23.56691
#
# Velocity S-wave (km/s) = 3.55215 3.89851 3.72935
# Velocity P-wave (km/s) = 7.37074 7.68670 7.53038
#
# Compressibility (1/GPa) = 0.01573568
#
# Stress axis : x y z
#
# Youngs Moduli (GPa) = 116.72832 65.77442 79.25031
#
# Poissons Ratio (x) = 0.17970 0.19306
# Poissons Ratio (y) = 0.31890 0.40881
# Poissons Ratio (z) = 0.28435 0.33929
#
# Static dielectric constant tensor:
#      x y z
#    x 3.422510 0.000000 0.000000 
#    y 0.000000 2.793260 0.000000 
#    z 0.000000 0.000000 3.420430 
# 
# 
# High freq. dielectric constant tensor:
#      x y z
#    x 1.665290 0.000000 0.000000 
#    y 0.000000 1.604890 0.000000 
#    z 0.000000 0.000000 1.668960 
# 
# From -- ./inp_files/35850.got.cif
#   From: 2010.03.12/outbox.cif.g09.slc.cpg/sg65_18_cif.got.tgz:35850.got - 2010.04.10 20:52:16.
