data_PCOD8265346
_publ_section_title
;
Structure prediction by ZEFSAII (Michael W. Deem and Ramdas Pophale) SiO2 
 PCOD8265346
Probable space group: C M M M
;
_chemical_formula_sum "Si O2"
_cell_formula_units_Z 64
_cell_length_a 8.887714
_cell_length_b 25.759098
_cell_length_c 17.302505
_cell_angle_alpha 90.000000
_cell_angle_beta 90.000000
_cell_angle_gamma 90.000000
_cell_volume 3961.226773
_symmetry_space_group_name_H-M "C M M M"
_symmetry_group_IT_number 65
_symmetry_cell_setting 'orthorhombic'
loop_
_space_group_symop_operation_xyz
x,y,z
-x,-y,z
x,-y,-z
-x,y,-z
-x,-y,-z
x,y,-z
-x,y,z
x,-y,z
1/2+x,1/2+y,z
1/2-x,1/2-y,z
1/2+x,1/2-y,-z
1/2-x,1/2+y,-z
1/2-x,1/2-y,-z
1/2+x,1/2+y,-z
1/2-x,1/2+y,z
1/2+x,1/2-y,z
loop_
_atom_site_type_symbol
_atom_site_label
_atom_site_fract_x
_atom_site_fract_y
_atom_site_fract_z
Si Si1 0.834370 0.938136 0.000000
Si Si2 0.678711 0.500000 0.413107
Si Si3 0.321744 0.601984 0.675572
Si Si4 0.820628 0.058042 0.164893
Si Si5 0.176928 0.696083 0.588288
O O1 0.754074 0.921692 0.081464
O O2 0.000000 0.912926 0.000000
O O3 0.846901 0.000000 0.000000
O O4 0.500000 0.500000 0.412599
O O5 0.743104 0.500000 0.500000
O O6 0.737092 0.551405 0.370132
O O7 0.500000 0.608746 0.665733
O O8 0.273830 0.596022 0.765469
O O9 0.238820 0.651919 0.643701
O O10 0.000000 0.055556 0.158204
O O11 0.760589 0.000000 0.183242
O O12 0.221946 0.682932 0.500000
O O13 0.250000 0.750000 0.614509
O O14 0.000000 0.700872 0.598373
#
# Coordination Sequence:
#
# PCOD8265346 Si02
#       5
#     8   8  16  16  16
#     4   7  10  16  30  54  88 123 150 179 216 250
#     4   9  16  24  37  60  90 122 151 177 211 259
#     4  10  17  27  45  68  93 120 152 186 220 260
#     4   8  12  20  35  60  92 123 152 182 214 255
#     4  10  21  36  51  66  85 112 149 191 232 271
#
# _framework density 16.156611000000002
#
# number of rings (size 3 to 8) (size 9 to 14) (size 15 to 20)
#    0.000    3.000    1.250    3.000    0.000    2.500 
#    0.000    0.625    0.000    2.250    0.000    1.750 
#    0.000    3.000    0.000    0.000    0.000    0.000 
#
# Total GULP energy -396472.265117 kJ/mol
# GULP energy per Si atom -12389.758285 kJ/mol
# Density = 1.611984 g / cm^3
# Si number density = 16.156611 Si / 1000 Ang^3
#
#
#
# Elastic Constant Matrix: (Units=GPa)
#
#
# Indices 1 2 3 4 5 6 
#
# 1 28.8969 29.1378 28.9435 0.0000 0.0000 0.0000
# 2 29.1378 108.8901 77.1013 0.0000 0.0000 0.0000
# 3 28.9435 77.1013 162.6494 0.0000 0.0000 0.0000
# 4 0.0000 0.0000 0.0000 12.1772 0.0000 0.0000
# 5 0.0000 0.0000 0.0000 0.0000 10.6793 0.0000
# 6 0.0000 0.0000 0.0000 0.0000 0.0000 20.9606
#
#
#
# Elastic Compliance Matrix: (Units=1/GPa)
#
#
# Indices 1 2 3 4 5 6 
#
# 1 0.048875 -0.010416 -0.003760 0.000000 0.000000 0.000000
# 2 -0.010416 0.016043 -0.005751 0.000000 0.000000 0.000000
# 3 -0.003760 -0.005751 0.009544 0.000000 0.000000 0.000000
# 4 0.000000 0.000000 0.000000 0.082121 0.000000 0.000000
# 5 0.000000 0.000000 0.000000 0.000000 0.093639 0.000000
# 6 0.000000 0.000000 0.000000 0.000000 0.000000 0.047709
#
#
# Mechanical properties :
#
#
# Convention : Reuss Voigt Hill
#
# Bulk Modulus (GPa) = 28.89610 63.42242 46.15926
# Shear Modulus (GPa) = 14.31355 19.78035 17.04695
#
# Velocity S-wave (km/s) = 2.97968 3.50278 3.25176
# Velocity P-wave (km/s) = 5.45544 7.46319 6.53686
#
# Compressibility (1/GPa) = 0.03460674
#
# Stress axis : x y z
#
# Youngs Moduli (GPa) = 20.46056 62.33145 104.78224
#
# Poissons Ratio (x) = 0.64926 0.39394
# Poissons Ratio (y) = 0.21312 0.60265
# Poissons Ratio (z) = 0.07692 0.35850
#
# Static dielectric constant tensor:
#      x y z
#    x 2.605660 0.000000 0.000000 
#    y 0.000000 2.830250 0.000000 
#    z 0.000000 0.000000 3.607480 
# 
# 
# High freq. dielectric constant tensor:
#      x y z
#    x 1.573370 0.000000 0.000000 
#    y 0.000000 1.588640 0.000000 
#    z 0.000000 0.000000 1.638490 
# 
# From -- ./inp_files/49051.got.cif
#   From: 2010.03.12/outbox.cif.g09.slc.cpg/sg65_25_cif.got.tgz:49051.got - 2010.04.10 20:52:16.
