data_PCOD8265663
_publ_section_title
;
Structure prediction by ZEFSAII (Michael W. Deem and Ramdas Pophale) SiO2 
 PCOD8265663
Probable space group: C M M M
;
_chemical_formula_sum "Si O2"
_cell_formula_units_Z 104
_cell_length_a 23.994268
_cell_length_b 8.163524
_cell_length_c 29.619940
_cell_angle_alpha 90.000000
_cell_angle_beta 90.000000
_cell_angle_gamma 90.000000
_cell_volume 5801.888170
_symmetry_space_group_name_H-M "C M M M"
_symmetry_group_IT_number 65
_symmetry_cell_setting 'orthorhombic'
loop_
_space_group_symop_operation_xyz
x,y,z
-x,-y,z
x,-y,-z
-x,y,-z
-x,-y,-z
x,y,-z
-x,y,z
x,-y,z
1/2+x,1/2+y,z
1/2-x,1/2-y,z
1/2+x,1/2-y,-z
1/2-x,1/2+y,-z
1/2-x,1/2-y,-z
1/2+x,1/2+y,-z
1/2-x,1/2+y,z
1/2+x,1/2-y,z
loop_
_atom_site_type_symbol
_atom_site_label
_atom_site_fract_x
_atom_site_fract_y
_atom_site_fract_z
Si Si1 0.622000 0.811119 0.549533
Si Si2 0.000000 0.314019 0.575882
Si Si3 0.500000 0.685279 0.670538
Si Si4 0.933637 0.500000 0.051659
Si Si5 0.934330 0.818253 0.103621
Si Si6 0.111397 0.195794 0.288456
Si Si7 0.436459 0.189905 0.799779
Si Si8 0.811468 0.811710 0.633833
O O1 0.645086 0.757669 0.500000
O O2 0.555553 0.780898 0.547144
O O3 0.650920 0.711545 0.589473
O O4 0.635918 0.000000 0.558571
O O5 0.000000 0.500000 0.594485
O O6 0.000000 0.188899 0.616906
O O7 0.500000 0.500000 0.687487
O O8 0.444491 0.770243 0.689156
O O9 0.909023 0.667116 0.074379
O O10 0.000000 0.500000 0.056777
O O11 0.914346 0.500000 0.000000
O O12 0.919915 0.791781 0.156085
O O13 0.000000 0.816997 0.096314
O O14 0.911181 0.000000 0.089326
O O15 0.110373 0.265977 0.237703
O O16 0.161284 0.265876 0.320398
O O17 0.112573 0.000000 0.287304
O O18 0.500000 0.235617 0.784104
O O19 0.433230 0.000000 0.812397
O O20 0.750000 0.750000 0.624475
O O21 0.807597 0.000000 0.644010
#
# Coordination Sequence:
#
# PCOD8265663 Si02
#       8
#    16   8   8   8  16  16  16  16
#     4  10  21  37  57  80 104 129 157 192 240 295
#     4  10  19  32  54  80 108 130 152 186 237 293
#     4  10  18  31  49  73 104 126 150 193 243 294
#     4   9  16  26  38  54  82 120 172 224 257 299
#     4   9  16  26  39  56  85 122 162 212 263 302
#     4  10  20  33  50  72  97 125 156 193 245 302
#     4  10  18  27  43  68  97 125 157 200 249 301
#     4  11  24  41  58  74  96 127 165 208 245 290
#
# _framework density 17.925198999999999
#
# number of rings (size 3 to 8) (size 9 to 14) (size 15 to 20)
#    0.000    2.077    3.077    1.154    0.000    4.308 
#    0.000    1.538    0.000    1.385    0.000    0.000 
#    0.000    0.000    0.000    0.000    0.000    0.769 
#
# Total GULP energy -644346.363732 kJ/mol
# GULP energy per Si atom -12391.276226 kJ/mol
# Density = 1.788440 g / cm^3
# Si number density = 17.925199 Si / 1000 Ang^3
#
#
#
# Elastic Constant Matrix: (Units=GPa)
#
#
# Indices 1 2 3 4 5 6 
#
# 1 65.9946 18.6783 25.3507 0.0000 0.0000 0.0000
# 2 18.6783 77.7073 42.4401 0.0000 0.0000 0.0000
# 3 25.3507 42.4401 107.5569 0.0000 0.0000 0.0000
# 4 0.0000 0.0000 0.0000 26.1257 0.0000 0.0000
# 5 0.0000 0.0000 0.0000 0.0000 6.7435 0.0000
# 6 0.0000 0.0000 0.0000 0.0000 0.0000 10.2993
#
#
#
# Elastic Compliance Matrix: (Units=1/GPa)
#
#
# Indices 1 2 3 4 5 6 
#
# 1 0.017011 -0.002421 -0.003054 0.000000 0.000000 0.000000
# 2 -0.002421 0.016748 -0.006038 0.000000 0.000000 0.000000
# 3 -0.003054 -0.006038 0.012400 0.000000 0.000000 0.000000
# 4 0.000000 0.000000 0.000000 0.038276 0.000000 0.000000
# 5 0.000000 0.000000 0.000000 0.000000 0.148290 0.000000
# 6 0.000000 0.000000 0.000000 0.000000 0.000000 0.097094
#
#
# Mechanical properties :
#
#
# Convention : Reuss Voigt Hill
#
# Bulk Modulus (GPa) = 43.22816 47.13302 45.18059
# Shear Modulus (GPa) = 13.86743 19.61970 16.74357
#
# Velocity S-wave (km/s) = 2.78443 3.31196 3.05959
# Velocity P-wave (km/s) = 5.87415 6.40131 6.14339
#
# Compressibility (1/GPa) = 0.02313307
#
# Stress axis : x y z
#
# Youngs Moduli (GPa) = 58.78499 59.70726 80.64665
#
# Poissons Ratio (x) = 0.14454 0.24631
# Poissons Ratio (y) = 0.14231 0.48695
# Poissons Ratio (z) = 0.17954 0.36051
#
# Static dielectric constant tensor:
#      x y z
#    x 2.459500 0.000000 0.000000 
#    y 0.000000 3.385210 0.000000 
#    z 0.000000 0.000000 3.308470 
# 
# 
# High freq. dielectric constant tensor:
#      x y z
#    x 1.631020 0.000000 0.000000 
#    y 0.000000 1.697000 0.000000 
#    z 0.000000 0.000000 1.693370 
# 
# From -- ./inp_files/75823.got.cif
#   From: 2010.03.12/outbox.cif.g09.slc.cpg/sg65_38_cif.got.tgz:75823.got - 2010.04.10 20:52:16.
