data_PCOD8265850
_publ_section_title
;
Structure prediction by ZEFSAII (Michael W. Deem and Ramdas Pophale) SiO2 
 PCOD8265850
Probable space group: C M M M
;
_chemical_formula_sum "Si O2"
_cell_formula_units_Z 120
_cell_length_a 14.039822
_cell_length_b 23.546261
_cell_length_c 19.757774
_cell_angle_alpha 90.000000
_cell_angle_beta 90.000000
_cell_angle_gamma 90.000000
_cell_volume 6531.629906
_symmetry_space_group_name_H-M "C M M M"
_symmetry_group_IT_number 65
_symmetry_cell_setting 'orthorhombic'
loop_
_space_group_symop_operation_xyz
x,y,z
-x,-y,z
x,-y,-z
-x,y,-z
-x,-y,-z
x,y,-z
-x,y,z
x,-y,z
1/2+x,1/2+y,z
1/2-x,1/2-y,z
1/2+x,1/2-y,-z
1/2-x,1/2+y,-z
1/2-x,1/2-y,-z
1/2+x,1/2+y,-z
1/2-x,1/2+y,z
1/2+x,1/2-y,z
loop_
_atom_site_type_symbol
_atom_site_label
_atom_site_fract_x
_atom_site_fract_y
_atom_site_fract_z
Si Si1 0.606298 0.218932 0.395475
Si Si2 0.362164 0.744295 0.254215
Si Si3 0.750669 0.155381 0.925338
Si Si4 0.179982 0.065698 0.164177
Si Si5 0.108437 0.882007 0.296613
Si Si6 0.797015 0.161440 0.425126
Si Si7 0.500000 0.566746 0.075505
Si Si8 0.395152 0.754025 0.894828
O O1 0.500000 0.207315 0.425894
O O2 0.596959 0.217195 0.314383
O O3 0.683082 0.172137 0.418934
O O4 0.643776 0.280479 0.418248
O O5 0.250000 0.750000 0.254503
O O6 0.393541 0.679701 0.263810
O O7 0.404159 0.767126 0.184797
O O8 0.738225 0.106097 0.868072
O O9 0.654872 0.192300 0.929178
O O10 0.838041 0.196268 0.906299
O O11 0.767092 0.128546 0.000000
O O12 0.160478 0.076043 0.243615
O O13 0.090678 0.085666 0.118758
O O14 0.207323 0.000000 0.154238
O O15 0.166597 0.882417 0.367724
O O16 0.000000 0.902729 0.309562
O O17 0.816143 0.135888 0.500000
O O18 0.500000 0.500000 0.067929
O O19 0.500000 0.594334 0.000000
O O20 0.500000 0.747229 0.926454
#
# Coordination Sequence:
#
# PCOD8265850 Si02
#       8
#    16  16  16  16  16  16   8  16
#     4  10  18  28  46  71 103 141 180 221 266 317
#     4  11  16  30  48  72 107 142 183 221 260 311
#     4  11  24  37  53  82 112 144 187 227 275 336
#     4  11  22  38  58  79 107 142 182 232 281 324
#     4  11  20  33  52  73 103 141 179 218 263 320
#     4  10  20  31  46  72 105 141 179 217 263 321
#     4   9  18  32  52  80 107 131 167 217 275 327
#     4  11  21  35  55  78 113 152 185 225 271 329
#
# _framework density 18.372136999999999
#
# number of rings (size 3 to 8) (size 9 to 14) (size 15 to 20)
#    0.000    1.400    6.000    4.400    0.933    3.733 
#    0.000    0.000    0.000    0.800    0.000    1.867 
#    0.000    0.000    0.000    1.200    0.000    0.000 
#
# Total GULP energy -743700.896110 kJ/mol
# GULP energy per Si atom -12395.014935 kJ/mol
# Density = 1.833032 g / cm^3
# Si number density = 18.372137 Si / 1000 Ang^3
#
#
#
# Elastic Constant Matrix: (Units=GPa)
#
#
# Indices 1 2 3 4 5 6 
#
# 1 113.2151 21.1942 19.9175 0.0000 0.0000 0.0000
# 2 21.1942 67.5653 28.3379 0.0000 0.0000 0.0000
# 3 19.9175 28.3379 144.8036 0.0000 0.0000 0.0000
# 4 0.0000 0.0000 0.0000 15.3782 0.0000 0.0000
# 5 0.0000 0.0000 0.0000 0.0000 5.4955 0.0000
# 6 0.0000 0.0000 0.0000 0.0000 0.0000 12.5269
#
#
#
# Elastic Compliance Matrix: (Units=1/GPa)
#
#
# Indices 1 2 3 4 5 6 
#
# 1 0.009465 -0.002640 -0.000785 0.000000 0.000000 0.000000
# 2 -0.002640 0.016860 -0.002936 0.000000 0.000000 0.000000
# 3 -0.000785 -0.002936 0.007589 0.000000 0.000000 0.000000
# 4 0.000000 0.000000 0.000000 0.065027 0.000000 0.000000
# 5 0.000000 0.000000 0.000000 0.000000 0.181966 0.000000
# 6 0.000000 0.000000 0.000000 0.000000 0.000000 0.079828
#
#
# Mechanical properties :
#
#
# Convention : Reuss Voigt Hill
#
# Bulk Modulus (GPa) = 47.19005 51.60926 49.39966
# Shear Modulus (GPa) = 13.13986 23.75575 18.44781
#
# Velocity S-wave (km/s) = 2.67724 3.59978 3.17222
# Velocity P-wave (km/s) = 5.94123 6.74017 6.35327
#
# Compressibility (1/GPa) = 0.02119091
#
# Stress axis : x y z
#
# Youngs Moduli (GPa) = 105.65180 59.31165 131.77696
#
# Poissons Ratio (x) = 0.15656 0.10349
# Poissons Ratio (y) = 0.27889 0.38695
# Poissons Ratio (z) = 0.08297 0.17416
#
# Static dielectric constant tensor:
#      x y z
#    x 3.465440 0.000000 0.000000 
#    y 0.000000 2.888720 0.000000 
#    z 0.000000 0.000000 4.092060 
# 
# 
# High freq. dielectric constant tensor:
#      x y z
#    x 1.704090 0.000000 0.000000 
#    y 0.000000 1.648990 0.000000 
#    z 0.000000 0.000000 1.733960 
# 
# From -- ./inp_files/63122.got.cif
#   From: 2010.03.12/outbox.cif.g09.slc.cpg/sg65_32_cif.got.tgz:63122.got - 2010.04.10 20:52:16.
