data_PCOD8265174
_publ_section_title
;
Structure prediction by ZEFSAII (Michael W. Deem and Ramdas Pophale) SiO2 
 PCOD8265174
Probable space group: C M M M
;
_chemical_formula_sum "Si O2"
_cell_formula_units_Z 80
_cell_length_a 20.378390
_cell_length_b 21.610651
_cell_length_c 11.576487
_cell_angle_alpha 90.000000
_cell_angle_beta 90.000000
_cell_angle_gamma 90.000000
_cell_volume 5098.172285
_symmetry_space_group_name_H-M "C M M M"
_symmetry_group_IT_number 65
_symmetry_cell_setting 'orthorhombic'
loop_
_space_group_symop_operation_xyz
x,y,z
-x,-y,z
x,-y,-z
-x,y,-z
-x,-y,-z
x,y,-z
-x,y,z
x,-y,z
1/2+x,1/2+y,z
1/2-x,1/2-y,z
1/2+x,1/2-y,-z
1/2-x,1/2+y,-z
1/2-x,1/2-y,-z
1/2+x,1/2+y,-z
1/2-x,1/2+y,z
1/2+x,1/2-y,z
loop_
_atom_site_type_symbol
_atom_site_label
_atom_site_fract_x
_atom_site_fract_y
_atom_site_fract_z
Si Si1 0.264515 0.068360 0.000000
Si Si2 0.348109 0.737216 0.135469
Si Si3 0.689256 0.571889 0.636359
Si Si4 0.730456 0.848189 0.800862
Si Si5 0.573622 0.365120 0.231710
Si Si6 0.607833 0.431083 0.000000
O O1 0.294831 0.099619 0.112789
O O2 0.186023 0.071159 0.000000
O O3 0.292107 0.000000 0.000000
O O4 0.327744 0.797751 0.211085
O O5 0.290941 0.686144 0.137352
O O6 0.408424 0.706904 0.205709
O O7 0.363400 0.752592 0.000000
O O8 0.693517 0.574619 0.500000
O O9 0.695779 0.500000 0.679374
O O10 0.747715 0.616205 0.684190
O O11 0.620081 0.600321 0.676436
O O12 0.500000 0.367655 0.281606
O O13 0.577852 0.398897 0.110467
O O14 0.581216 0.500000 0.000000
#
# Coordination Sequence:
#
# PCOD8265174 Si02
#       6
#     8  16  16  16  16   8
#     4  11  16  23  43  67  91 112 139 187 236 280
#     4  10  16  28  45  66  91 119 146 185 236 277
#     4  10  21  35  48  64  91 126 158 190 231 273
#     4  10  16  28  45  66  87 114 149 187 231 278
#     4  11  21  32  45  65  92 123 162 194 221 262
#     4  11  19  27  41  65  93 118 150 194 234 264
#
# _framework density 15.691897000000001
#
# number of rings (size 3 to 8) (size 9 to 14) (size 15 to 20)
#    0.000    1.600    7.000    2.100    0.000    2.400 
#    0.000    9.000    0.000    0.000    0.000    0.000 
#    0.000    4.000    0.000    2.200    0.000    0.000 
#
# Total GULP energy -495657.644380 kJ/mol
# GULP energy per Si atom -12391.441109 kJ/mol
# Density = 1.565618 g / cm^3
# Si number density = 15.691897 Si / 1000 Ang^3
#
#
#
# Elastic Constant Matrix: (Units=GPa)
#
#
# Indices 1 2 3 4 5 6 
#
# 1 37.8373 45.7922 19.1154 0.0000 0.0000 0.0000
# 2 45.7922 129.7345 42.4326 0.0000 0.0000 0.0000
# 3 19.1154 42.4326 70.7581 0.0000 0.0000 0.0000
# 4 0.0000 0.0000 0.0000 59.9549 0.0000 0.0000
# 5 0.0000 0.0000 0.0000 0.0000 6.4546 0.0000
# 6 0.0000 0.0000 0.0000 0.0000 0.0000 16.1019
#
#
#
# Elastic Compliance Matrix: (Units=1/GPa)
#
#
# Indices 1 2 3 4 5 6 
#
# 1 0.046788 -0.015401 -0.003404 0.000000 0.000000 0.000000
# 2 -0.015401 0.014659 -0.004630 0.000000 0.000000 0.000000
# 3 -0.003404 -0.004630 0.017829 0.000000 0.000000 0.000000
# 4 0.000000 0.000000 0.000000 0.016679 0.000000 0.000000
# 5 0.000000 0.000000 0.000000 0.000000 0.154929 0.000000
# 6 0.000000 0.000000 0.000000 0.000000 0.000000 0.062105
#
#
# Mechanical properties :
#
#
# Convention : Reuss Voigt Hill
#
# Bulk Modulus (GPa) = 30.85941 50.33449 40.59695
# Shear Modulus (GPa) = 13.48947 25.23490 19.36219
#
# Velocity S-wave (km/s) = 2.93515 4.01452 3.51650
# Velocity P-wave (km/s) = 5.58528 7.32359 6.51269
#
# Compressibility (1/GPa) = 0.03240502
#
# Stress axis : x y z
#
# Youngs Moduli (GPa) = 21.37302 68.21971 56.08954
#
# Poissons Ratio (x) = 1.05068 0.19092
# Poissons Ratio (y) = 0.32917 0.25968
# Poissons Ratio (z) = 0.07275 0.31584
#
# Static dielectric constant tensor:
#      x y z
#    x 2.836950 0.000000 0.000000 
#    y 0.000000 3.432480 0.000000 
#    z 0.000000 0.000000 2.763210 
# 
# 
# High freq. dielectric constant tensor:
#      x y z
#    x 1.550570 0.000000 0.000000 
#    y 0.000000 1.615450 0.000000 
#    z 0.000000 0.000000 1.587410 
# 
# From -- ./inp_files/30718.got.cif
#   From: 2010.03.12/outbox.cif.g09.slc.cpg/sg65_16_cif.got.tgz:30718.got - 2010.04.10 20:52:16.
