data_PCOD8265168
_publ_section_title
;
Structure prediction by ZEFSAII (Michael W. Deem and Ramdas Pophale) SiO2 
 PCOD8265168
Probable space group: C M M M
;
_chemical_formula_sum "Si O2"
_cell_formula_units_Z 96
_cell_length_a 25.587852
_cell_length_b 18.280104
_cell_length_c 14.579576
_cell_angle_alpha 90.000000
_cell_angle_beta 90.000000
_cell_angle_gamma 90.000000
_cell_volume 6819.576200
_symmetry_space_group_name_H-M "C M M M"
_symmetry_group_IT_number 65
_symmetry_cell_setting 'orthorhombic'
loop_
_space_group_symop_operation_xyz
x,y,z
-x,-y,z
x,-y,-z
-x,y,-z
-x,-y,-z
x,y,-z
-x,y,z
x,-y,z
1/2+x,1/2+y,z
1/2-x,1/2-y,z
1/2+x,1/2-y,-z
1/2-x,1/2+y,-z
1/2-x,1/2-y,-z
1/2+x,1/2+y,-z
1/2-x,1/2+y,z
1/2+x,1/2-y,z
loop_
_atom_site_type_symbol
_atom_site_label
_atom_site_fract_x
_atom_site_fract_y
_atom_site_fract_z
Si Si1 0.833607 0.224303 0.100011
Si Si2 0.302791 0.204478 0.603001
Si Si3 0.144032 0.173105 0.710964
Si Si4 0.060434 0.916003 0.604678
Si Si5 0.227067 0.635968 0.899909
Si Si6 0.249745 0.917522 0.711110
O O1 0.868607 0.192615 0.182713
O O2 0.822847 0.310764 0.113858
O O3 0.778312 0.184983 0.103685
O O4 0.860427 0.210576 0.000000
O O5 0.322995 0.189764 0.500000
O O6 0.250000 0.250000 0.602017
O O7 0.345889 0.251032 0.657629
O O8 0.292285 0.127115 0.652193
O O9 0.092828 0.135444 0.671559
O O10 0.192843 0.118468 0.701191
O O11 0.078495 0.903026 0.500000
O O12 0.000000 0.895379 0.616152
O O13 0.069999 0.000000 0.632257
O O14 0.230492 0.578789 0.816716
O O15 0.223125 0.596518 0.000000
O O16 0.246734 0.000000 0.673175
#
# Coordination Sequence:
#
# PCOD8265168 Si02
#       6
#    16  16  16  16  16  16
#     4   8  13  22  39  58  75  99 133 167 197 231
#     4   9  17  27  37  52  75 103 135 168 196 231
#     4  10  16  27  44  59  75 105 140 170 198 238
#     4   9  18  31  45  62  82 102 130 172 215 245
#     4   8  13  23  36  52  76 105 134 165 196 225
#     4  10  18  25  35  56  83 110 137 163 195 238
#
# _framework density 14.077121999999999
#
# number of rings (size 3 to 8) (size 9 to 14) (size 15 to 20)
#    0.000    3.000    1.667    2.500    0.000    1.333 
#    0.000    0.000    0.000    2.000    0.000    1.167 
#    0.000    0.667    0.000    3.500    0.000    5.333 
#
# Total GULP energy -594795.865636 kJ/mol
# GULP energy per Si atom -12391.580534 kJ/mol
# Density = 1.404508 g / cm^3
# Si number density = 14.077122 Si / 1000 Ang^3
#
#
#
# Elastic Constant Matrix: (Units=GPa)
#
#
# Indices 1 2 3 4 5 6 
#
# 1 38.3732 21.8017 32.9496 0.0000 0.0000 0.0000
# 2 21.8017 68.3152 36.2527 0.0000 0.0000 0.0000
# 3 32.9496 36.2527 112.7822 0.0000 0.0000 0.0000
# 4 0.0000 0.0000 0.0000 18.4639 0.0000 0.0000
# 5 0.0000 0.0000 0.0000 0.0000 16.4434 0.0000
# 6 0.0000 0.0000 0.0000 0.0000 0.0000 19.6689
#
#
#
# Elastic Compliance Matrix: (Units=1/GPa)
#
#
# Indices 1 2 3 4 5 6 
#
# 1 0.037695 -0.007458 -0.008615 0.000000 0.000000 0.000000
# 2 -0.007458 0.019124 -0.003968 0.000000 0.000000 0.000000
# 3 -0.008615 -0.003968 0.012659 0.000000 0.000000 0.000000
# 4 0.000000 0.000000 0.000000 0.054160 0.000000 0.000000
# 5 0.000000 0.000000 0.000000 0.000000 0.060815 0.000000
# 6 0.000000 0.000000 0.000000 0.000000 0.000000 0.050842
#
#
# Mechanical properties :
#
#
# Convention : Reuss Voigt Hill
#
# Bulk Modulus (GPa) = 34.01956 44.60872 39.31414
# Shear Modulus (GPa) = 17.53307 19.47968 18.50638
#
# Velocity S-wave (km/s) = 3.53299 3.72396 3.62973
# Velocity P-wave (km/s) = 6.39232 7.08859 6.74944
#
# Compressibility (1/GPa) = 0.02939485
#
# Stress axis : x y z
#
# Youngs Moduli (GPa) = 26.52893 52.29044 78.99361
#
# Poissons Ratio (x) = 0.38997 0.68056
# Poissons Ratio (y) = 0.19785 0.31348
# Poissons Ratio (z) = 0.22856 0.20751
#
# Static dielectric constant tensor:
#      x y z
#    x 2.267130 0.000000 0.000000 
#    y 0.000000 2.618760 0.000000 
#    z 0.000000 0.000000 3.181460 
# 
# 
# High freq. dielectric constant tensor:
#      x y z
#    x 1.471290 0.000000 0.000000 
#    y 0.000000 1.523190 0.000000 
#    z 0.000000 0.000000 1.556320 
# 
# From -- ./inp_files/44545.got.cif
#   From: 2010.03.12/outbox.cif.g09.slc.cpg/sg65_23_cif.got.tgz:44545.got - 2010.04.10 20:52:16.
