data_PCOD8265479
_publ_section_title
;
Structure prediction by ZEFSAII (Michael W. Deem and Ramdas Pophale) SiO2 
 PCOD8265479
Probable space group: C M M M
;
_chemical_formula_sum "Si O2"
_cell_formula_units_Z 80
_cell_length_a 19.160184
_cell_length_b 14.328449
_cell_length_c 14.237514
_cell_angle_alpha 90.000000
_cell_angle_beta 90.000000
_cell_angle_gamma 90.000000
_cell_volume 3908.706147
_symmetry_space_group_name_H-M "C M M M"
_symmetry_group_IT_number 65
_symmetry_cell_setting 'orthorhombic'
loop_
_space_group_symop_operation_xyz
x,y,z
-x,-y,z
x,-y,-z
-x,y,-z
-x,-y,-z
x,y,-z
-x,y,z
x,-y,z
1/2+x,1/2+y,z
1/2-x,1/2-y,z
1/2+x,1/2-y,-z
1/2-x,1/2+y,-z
1/2-x,1/2-y,-z
1/2+x,1/2+y,-z
1/2-x,1/2+y,z
1/2+x,1/2-y,z
loop_
_atom_site_type_symbol
_atom_site_label
_atom_site_fract_x
_atom_site_fract_y
_atom_site_fract_z
Si Si1 0.336640 0.396102 0.716922
Si Si2 0.078305 0.284319 0.286035
Si Si3 0.301137 0.110013 0.392809
Si Si4 0.894772 0.396785 0.894137
Si Si5 0.261098 0.355879 0.894733
O O1 0.359384 0.500000 0.682460
O O2 0.400043 0.324151 0.705778
O O3 0.269897 0.358009 0.658537
O O4 0.316370 0.403785 0.826322
O O5 0.130572 0.346608 0.346095
O O6 0.077044 0.319811 0.178137
O O7 0.000000 0.292946 0.326892
O O8 0.296380 0.143405 0.500000
O O9 0.309806 0.000000 0.383822
O O10 0.926189 0.500000 0.872787
O O11 0.811821 0.408555 0.886303
O O12 0.915386 0.364767 0.000000
O O13 0.250000 0.250000 0.861933
O O14 0.291708 0.360976 0.000000
#
# Coordination Sequence:
#
# PCOD8265479 Si02
#       5
#    16  16  16  16  16
#     4  11  22  39  62  86 115 154 201 246 285 332
#     4  12  25  39  57  86 124 160 194 234 284 347
#     4  10  22  42  68  94 116 143 186 240 296 350
#     4  10  20  35  56  84 118 153 191 238 294 351
#     4  10  17  30  57  88 116 147 190 248 301 338
#
# _framework density 20.467129
#
# number of rings (size 3 to 8) (size 9 to 14) (size 15 to 20)
#    0.000    1.400    4.000    1.800    0.000    5.600 
#    0.000    2.000    0.000    0.000    0.000    7.000 
#    0.000    0.000    0.000    0.000    0.000    0.000 
#
# Total GULP energy -495972.785533 kJ/mol
# GULP energy per Si atom -12399.319638 kJ/mol
# Density = 2.042055 g / cm^3
# Si number density = 20.467129 Si / 1000 Ang^3
#
#
#
# Elastic Constant Matrix: (Units=GPa)
#
#
# Indices 1 2 3 4 5 6 
#
# 1 94.7534 42.5303 33.1267 0.0000 0.0000 0.0000
# 2 42.5303 96.2889 32.2128 0.0000 0.0000 0.0000
# 3 33.1267 32.2128 109.1312 0.0000 0.0000 0.0000
# 4 0.0000 0.0000 0.0000 21.7988 0.0000 0.0000
# 5 0.0000 0.0000 0.0000 0.0000 6.3938 0.0000
# 6 0.0000 0.0000 0.0000 0.0000 0.0000 -13.4784
#
#
#
# Elastic Compliance Matrix: (Units=1/GPa)
#
#
# Indices 1 2 3 4 5 6 
#
# 1 0.013824 -0.005217 -0.002656 0.000000 0.000000 0.000000
# 2 -0.005217 0.013492 -0.002399 0.000000 0.000000 0.000000
# 3 -0.002656 -0.002399 0.010678 0.000000 0.000000 0.000000
# 4 0.000000 0.000000 0.000000 0.045874 0.000000 0.000000
# 5 0.000000 0.000000 0.000000 0.000000 0.156400 0.000000
# 6 0.000000 0.000000 0.000000 0.000000 0.000000 -0.074193
#
#
# Mechanical properties :
#
#
# Convention : Reuss Voigt Hill
#
# Bulk Modulus (GPa) = 57.30935 57.32368 57.31652
# Shear Modulus (GPa) = 25.98245 15.76310 20.87277
#
# Velocity S-wave (km/s) = 3.56683 2.77820 3.19693
# Velocity P-wave (km/s) = 6.71003 6.19352 6.45694
#
# Compressibility (1/GPa) = 0.01744916
#
# Stress axis : x y z
#
# Youngs Moduli (GPa) = 72.33667 74.11544 93.65330
#
# Poissons Ratio (x) = 0.38669 0.24877
# Poissons Ratio (y) = 0.37741 0.22466
# Poissons Ratio (z) = 0.19215 0.17779
#
# Static dielectric constant tensor:
#      x y z
#    x 3.441870 0.000000 0.000000 
#    y 0.000000 4.068480 0.000000 
#    z 0.000000 0.000000 3.860120 
# 
# 
# High freq. dielectric constant tensor:
#      x y z
#    x 1.766460 0.000000 0.000000 
#    y 0.000000 1.808950 0.000000 
#    z 0.000000 0.000000 1.798490 
# 
# From -- ./inp_files/40055.got.cif
#   From: 2010.03.12/outbox.cif.g09.slc.cpg/sg65_21_cif.got.tgz:40055.got - 2010.04.10 20:52:16.
