data_PCOD8265040
_publ_section_title
;
Structure prediction by ZEFSAII (Michael W. Deem and Ramdas Pophale) SiO2 
 PCOD8265040
Probable space group: C M C A
;
_chemical_formula_sum "Si O2"
_cell_formula_units_Z 96
_cell_length_a 16.743018
_cell_length_b 19.585146
_cell_length_c 16.841123
_cell_angle_alpha 90.000000
_cell_angle_beta 90.000000
_cell_angle_gamma 90.000000
_cell_volume 5522.447620
_symmetry_space_group_name_H-M "C M C A"
_symmetry_group_IT_number 64
_symmetry_cell_setting 'orthorhombic'
loop_
_space_group_symop_operation_xyz
x,y,z
-x,1/2-y,1/2+z
x,-y,-z
-x,1/2+y,1/2-z
-x,-y,-z
x,1/2+y,1/2-z
-x,y,z
x,1/2-y,1/2+z
1/2+x,1/2+y,z
1/2-x,-y,1/2+z
1/2+x,1/2-y,-z
1/2-x,y,1/2-z
1/2-x,1/2-y,-z
1/2+x,y,1/2-z
1/2-x,1/2+y,z
1/2+x,-y,1/2+z
loop_
_atom_site_type_symbol
_atom_site_label
_atom_site_fract_x
_atom_site_fract_y
_atom_site_fract_z
Si Si1 0.144864 0.687331 0.024903
Si Si2 0.500000 0.390563 0.465927
Si Si3 0.824597 0.841269 0.006120
Si Si4 0.826711 0.083057 0.152021
Si Si5 0.000000 0.520458 0.122329
Si Si6 0.648245 0.098403 0.173527
Si Si7 0.590009 0.960615 0.417609
O O1 0.229041 0.662769 0.989379
O O2 0.130936 0.662909 0.116057
O O3 0.078391 0.656390 0.966756
O O4 0.136074 0.768515 0.023794
O O5 0.500000 0.441256 0.539343
O O6 0.500000 0.438329 0.387797
O O7 0.852378 0.866305 0.918875
O O8 0.856461 0.892639 0.073770
O O9 0.732523 0.065560 0.147216
O O10 0.847975 0.121712 0.234338
O O11 0.872251 0.010650 0.148165
O O12 0.920048 0.541256 0.168699
O O13 0.500000 0.940744 0.392347
O O14 0.590488 0.000000 0.500000
#
# Coordination Sequence:
#
# PCOD8265040 Si02
#       7
#    16   8  16  16   8  16  16
#     4   9  18  32  51  75  99 133 167 200 247 295
#     4   9  18  30  49  73  96 125 166 201 244 287
#     4   9  18  32  52  74 100 129 167 207 243 297
#     4   9  18  32  52  72  96 131 168 204 251 296
#     4   9  18  30  49  73  96 125 160 211 240 284
#     4   9  18  32  51  72  98 130 165 205 250 298
#     4   9  18  30  48  73  95 124 162 205 244 284
#
# _framework density 17.383596000000001
#
# number of rings (size 3 to 8) (size 9 to 14) (size 15 to 20)
#    0.000    3.000    0.000    0.000    4.667    0.000 
#    0.000    0.000    3.667    2.000    0.000    0.000 
#    0.000    0.000    0.000    0.000    0.000    0.000 
#
# Total GULP energy -595026.759097 kJ/mol
# GULP energy per Si atom -12396.390815 kJ/mol
# Density = 1.734403 g / cm^3
# Si number density = 17.383596 Si / 1000 Ang^3
#
#
#
# Elastic Constant Matrix: (Units=GPa)
#
#
# Indices 1 2 3 4 5 6 
#
# 1 97.3384 61.5413 30.6654 0.0000 0.0000 0.0000
# 2 61.5413 130.7967 44.5383 0.0000 0.0000 0.0000
# 3 30.6654 44.5383 67.1762 0.0000 0.0000 0.0000
# 4 0.0000 0.0000 0.0000 19.3644 0.0000 0.0000
# 5 0.0000 0.0000 0.0000 0.0000 18.6848 0.0000
# 6 0.0000 0.0000 0.0000 0.0000 0.0000 28.0253
#
#
#
# Elastic Compliance Matrix: (Units=1/GPa)
#
#
# Indices 1 2 3 4 5 6 
#
# 1 0.015022 -0.006113 -0.002804 0.000000 0.000000 0.000000
# 2 -0.006113 0.012362 -0.005406 0.000000 0.000000 0.000000
# 3 -0.002804 -0.005406 0.019751 0.000000 0.000000 0.000000
# 4 0.000000 0.000000 0.000000 0.051641 0.000000 0.000000
# 5 0.000000 0.000000 0.000000 0.000000 0.053519 0.000000
# 6 0.000000 0.000000 0.000000 0.000000 0.000000 0.035682
#
#
# Mechanical properties :
#
#
# Convention : Reuss Voigt Hill
#
# Bulk Modulus (GPa) = 54.08816 63.20015 58.64416
# Shear Modulus (GPa) = 22.44299 23.78599 23.11449
#
# Velocity S-wave (km/s) = 3.59701 3.70307 3.65042
# Velocity P-wave (km/s) = 6.95941 7.39721 7.18165
#
# Compressibility (1/GPa) = 0.01848833
#
# Stress axis : x y z
#
# Youngs Moduli (GPa) = 66.56984 80.88993 50.63153
#
# Poissons Ratio (x) = 0.49448 0.14199
# Poissons Ratio (y) = 0.40694 0.27371
# Poissons Ratio (z) = 0.18669 0.43728
#
# Static dielectric constant tensor:
#      x y z
#    x 3.406630 0.000000 0.000000 
#    y 0.000000 3.196210 0.000000 
#    z 0.000000 0.000000 3.099800 
# 
# 
# High freq. dielectric constant tensor:
#      x y z
#    x 1.684690 0.000000 0.000000 
#    y 0.000000 1.653610 0.000000 
#    z 0.000000 0.000000 1.646030 
# 
# From -- ./inp_files/33362.got.cif
#   From: 2010.03.12/outbox.cif.g09.slc.cpg/sg64_17_cif.got.tgz:33362.got - 2010.04.10 20:19:32.
