data_PCOD8265601
_publ_section_title
;
Structure prediction by ZEFSAII (Michael W. Deem and Ramdas Pophale) SiO2 
 PCOD8265601
Probable space group: C M M M
;
_chemical_formula_sum "Si O2"
_cell_formula_units_Z 88
_cell_length_a 9.833913
_cell_length_b 38.323293
_cell_length_c 17.976289
_cell_angle_alpha 90.000000
_cell_angle_beta 90.000000
_cell_angle_gamma 90.000000
_cell_volume 6774.686811
_symmetry_space_group_name_H-M "C M M M"
_symmetry_group_IT_number 65
_symmetry_cell_setting 'orthorhombic'
loop_
_space_group_symop_operation_xyz
x,y,z
-x,-y,z
x,-y,-z
-x,y,-z
-x,-y,-z
x,y,-z
-x,y,z
x,-y,z
1/2+x,1/2+y,z
1/2-x,1/2-y,z
1/2+x,1/2-y,-z
1/2-x,1/2+y,-z
1/2-x,1/2-y,-z
1/2+x,1/2+y,-z
1/2-x,1/2+y,z
1/2+x,1/2-y,z
loop_
_atom_site_type_symbol
_atom_site_label
_atom_site_fract_x
_atom_site_fract_y
_atom_site_fract_z
Si Si1 0.159492 0.916974 0.359781
Si Si2 0.652494 0.041430 0.082275
Si Si3 0.160980 0.961329 0.500000
Si Si4 0.349994 0.778993 0.588370
Si Si5 0.158937 0.642486 0.586419
Si Si6 0.656595 0.459659 0.787557
O O1 0.210781 0.941307 0.426875
O O2 0.247296 0.881737 0.362058
O O3 0.192616 0.937131 0.284311
O O4 0.000000 0.907845 0.367003
O O5 0.500000 0.053907 0.102227
O O6 0.756101 0.055819 0.144078
O O7 0.659259 0.000000 0.081436
O O8 0.693409 0.055433 0.000000
O O9 0.000000 0.964364 0.500000
O O10 0.225797 0.000000 0.500000
O O11 0.353369 0.776032 0.500000
O O12 0.500000 0.771445 0.620450
O O13 0.250000 0.750000 0.623296
O O14 0.304007 0.817995 0.610206
O O15 0.194919 0.636236 0.500000
O O16 0.000000 0.634798 0.600677
O O17 0.500000 0.455700 0.810050
O O18 0.691981 0.500000 0.770204
#
# Coordination Sequence:
#
# PCOD8265601 Si02
#       6
#    16  16   8  16  16  16
#     4  10  18  27  39  54  69  92 127 159 188 223
#     4   8  14  25  40  56  72  90 113 141 177 225
#     4   9  16  26  39  51  64  87 122 163 198 221
#     4   8  14  24  37  53  70  88 110 140 179 219
#     4   9  17  28  39  51  71  95 118 149 189 224
#     4   9  17  27  38  54  74  93 118 155 193 225
#
# _framework density 12.98953
#
# number of rings (size 3 to 8) (size 9 to 14) (size 15 to 20)
#    0.000    3.182    0.909    2.182    0.000    4.000 
#    0.000    3.636    0.000    2.182    0.000    0.000 
#    0.000    0.000    0.000    0.000    0.000    0.909 
#
# Total GULP energy -545382.472082 kJ/mol
# GULP energy per Si atom -12395.056184 kJ/mol
# Density = 1.295996 g / cm^3
# Si number density = 12.989530 Si / 1000 Ang^3
#
#
#
# Elastic Constant Matrix: (Units=GPa)
#
#
# Indices 1 2 3 4 5 6 
#
# 1 67.7608 50.2390 49.1402 0.0000 0.0000 0.0000
# 2 50.2390 81.4171 35.4601 0.0000 0.0000 0.0000
# 3 49.1402 35.4601 83.2569 0.0000 0.0000 0.0000
# 4 0.0000 0.0000 0.0000 3.3631 0.0000 0.0000
# 5 0.0000 0.0000 0.0000 0.0000 19.8512 0.0000
# 6 0.0000 0.0000 0.0000 0.0000 0.0000 21.7072
#
#
#
# Elastic Compliance Matrix: (Units=1/GPa)
#
#
# Indices 1 2 3 4 5 6 
#
# 1 0.038755 -0.017129 -0.015579 0.000000 0.000000 0.000000
# 2 -0.017129 0.022650 0.000463 0.000000 0.000000 0.000000
# 3 -0.015579 0.000463 0.021009 0.000000 0.000000 0.000000
# 4 0.000000 0.000000 0.000000 0.297345 0.000000 0.000000
# 5 0.000000 0.000000 0.000000 0.000000 0.050375 0.000000
# 6 0.000000 0.000000 0.000000 0.000000 0.000000 0.046068
#
#
# Mechanical properties :
#
#
# Convention : Reuss Voigt Hill
#
# Bulk Modulus (GPa) = 55.78929 55.79039 55.78984
# Shear Modulus (GPa) = 9.14633 15.49067 12.31850
#
# Velocity S-wave (km/s) = 2.65643 3.45708 3.08286
# Velocity P-wave (km/s) = 7.24234 7.67976 7.46425
#
# Compressibility (1/GPa) = 0.01792459
#
# Stress axis : x y z
#
# Youngs Moduli (GPa) = 25.80283 44.14921 47.59891
#
# Poissons Ratio (x) = 0.75624 0.74154
# Poissons Ratio (y) = 0.44198 -0.02203
# Poissons Ratio (z) = 0.40198 -0.02044
#
# Static dielectric constant tensor:
#      x y z
#    x 2.704810 0.000000 0.000000 
#    y 0.000000 2.521630 0.000000 
#    z 0.000000 0.000000 2.515130 
# 
# 
# High freq. dielectric constant tensor:
#      x y z
#    x 1.494530 0.000000 0.000000 
#    y 0.000000 1.470030 0.000000 
#    z 0.000000 0.000000 1.462170 
# 
# From -- ./inp_files/38840.got.cif
#   From: 2010.03.12/outbox.cif.g09.slc.cpg/sg65_20_cif.got.tgz:38840.got - 2010.04.10 20:52:16.
