data_PCOD8265484
_publ_section_title
;
Structure prediction by ZEFSAII (Michael W. Deem and Ramdas Pophale) SiO2 
 PCOD8265484
Probable space group: C M M M
;
_chemical_formula_sum "Si O2"
_cell_formula_units_Z 128
_cell_length_a 17.229792
_cell_length_b 17.579085
_cell_length_c 23.402299
_cell_angle_alpha 90.000000
_cell_angle_beta 90.000000
_cell_angle_gamma 90.000000
_cell_volume 7088.181418
_symmetry_space_group_name_H-M "C M M M"
_symmetry_group_IT_number 65
_symmetry_cell_setting 'orthorhombic'
loop_
_space_group_symop_operation_xyz
x,y,z
-x,-y,z
x,-y,-z
-x,y,-z
-x,-y,-z
x,y,-z
-x,y,z
x,-y,z
1/2+x,1/2+y,z
1/2-x,1/2-y,z
1/2+x,1/2-y,-z
1/2-x,1/2+y,-z
1/2-x,1/2-y,-z
1/2+x,1/2+y,-z
1/2-x,1/2+y,z
1/2+x,1/2-y,z
loop_
_atom_site_type_symbol
_atom_site_label
_atom_site_fract_x
_atom_site_fract_y
_atom_site_fract_z
Si Si1 0.785721 0.333072 0.175446
Si Si2 0.334652 0.415358 0.634475
Si Si3 0.410767 0.283624 0.566319
Si Si4 0.587992 0.413820 0.119592
Si Si5 0.307801 0.184653 0.641975
Si Si6 0.228701 0.837888 0.937515
Si Si7 0.410772 0.797877 0.744684
Si Si8 0.858982 0.127987 0.758774
O O1 0.750000 0.250000 0.164324
O O2 0.783138 0.374142 0.112874
O O3 0.873718 0.331915 0.197309
O O4 0.731683 0.371125 0.223367
O O5 0.340198 0.500000 0.608847
O O6 0.392428 0.361317 0.599569
O O7 0.245313 0.387610 0.626689
O O8 0.361719 0.420040 0.700662
O O9 0.394993 0.297428 0.500000
O O10 0.500000 0.260975 0.578408
O O11 0.354393 0.215522 0.586823
O O12 0.500000 0.395566 0.101850
O O13 0.610662 0.500000 0.102055
O O14 0.640869 0.353108 0.085384
O O15 0.593932 0.407447 0.188507
O O16 0.250000 0.250000 0.666601
O O17 0.370092 0.163295 0.690269
O O18 0.250000 0.750000 0.945156
O O19 0.239998 0.877079 0.000000
O O20 0.500000 0.819922 0.744274
O O21 0.396713 0.708400 0.742711
#
# Coordination Sequence:
#
# PCOD8265484 Si02
#       8
#    16  16  16  16  16  16  16  16
#     4   8  15  28  46  69 100 131 166 214 263 306
#     4  11  22  34  53  79 111 146 177 217 268 320
#     4  10  22  39  58  80 106 140 182 225 265 307
#     4  10  21  34  50  78 114 146 175 215 271 330
#     4  10  18  34  54  77 104 137 184 224 259 310
#     4   9  18  33  52  70  97 140 187 224 256 306
#     4  11  17  26  51  81 102 131 175 224 270 310
#     4  10  17  31  48  73 108 142 173 211 261 319
#
# _framework density 18.058228
#
# number of rings (size 3 to 8) (size 9 to 14) (size 15 to 20)
#    0.000    2.125    3.750    2.250    0.000    3.750 
#    0.000    1.250    0.000    2.625    0.000    0.875 
#    0.000    1.750    0.000    9.750    0.000    0.000 
#
# Total GULP energy -793020.163969 kJ/mol
# GULP energy per Si atom -12390.940062 kJ/mol
# Density = 1.801713 g / cm^3
# Si number density = 18.058228 Si / 1000 Ang^3
#
#
#
# Elastic Constant Matrix: (Units=GPa)
#
#
# Indices 1 2 3 4 5 6 
#
# 1 112.7819 16.2699 45.0780 0.0000 0.0000 0.0000
# 2 16.2699 43.2131 12.9879 0.0000 0.0000 0.0000
# 3 45.0780 12.9879 124.1380 0.0000 0.0000 0.0000
# 4 0.0000 0.0000 0.0000 28.0462 0.0000 0.0000
# 5 0.0000 0.0000 0.0000 0.0000 17.6669 0.0000
# 6 0.0000 0.0000 0.0000 0.0000 0.0000 18.2661
#
#
#
# Elastic Compliance Matrix: (Units=1/GPa)
#
#
# Indices 1 2 3 4 5 6 
#
# 1 0.010727 -0.002961 -0.003585 0.000000 0.000000 0.000000
# 2 -0.002961 0.024710 -0.001510 0.000000 0.000000 0.000000
# 3 -0.003585 -0.001510 0.009516 0.000000 0.000000 0.000000
# 4 0.000000 0.000000 0.000000 0.035655 0.000000 0.000000
# 5 0.000000 0.000000 0.000000 0.000000 0.056603 0.000000
# 6 0.000000 0.000000 0.000000 0.000000 0.000000 0.054746
#
#
# Mechanical properties :
#
#
# Convention : Reuss Voigt Hill
#
# Bulk Modulus (GPa) = 34.67504 47.64495 41.15999
# Shear Modulus (GPa) = 22.96917 26.51565 24.74241
#
# Velocity S-wave (km/s) = 3.57031 3.83605 3.70556
# Velocity P-wave (km/s) = 6.01994 6.78688 6.41488
#
# Compressibility (1/GPa) = 0.02883919
#
# Stress axis : x y z
#
# Youngs Moduli (GPa) = 93.22353 40.46969 105.09163
#
# Poissons Ratio (x) = 0.11983 0.37680
# Poissons Ratio (y) = 0.27604 0.15869
# Poissons Ratio (z) = 0.33425 0.06111
#
# Static dielectric constant tensor:
#      x y z
#    x 3.386070 0.000000 0.000000 
#    y 0.000000 3.007550 0.000000 
#    z 0.000000 0.000000 3.595650 
# 
# 
# High freq. dielectric constant tensor:
#      x y z
#    x 1.691600 0.000000 0.000000 
#    y 0.000000 1.653570 0.000000 
#    z 0.000000 0.000000 1.709020 
# 
# From -- ./inp_files/70691.got.cif
#   From: 2010.03.12/outbox.cif.g09.slc.cpg/sg65_36_cif.got.tgz:70691.got - 2010.04.10 20:52:16.
