data_PCOD8265377
_publ_section_title
;
Structure prediction by ZEFSAII (Michael W. Deem and Ramdas Pophale) SiO2 
 PCOD8265377
Probable space group: C M M M
;
_chemical_formula_sum "Si O2"
_cell_formula_units_Z 80
_cell_length_a 13.325994
_cell_length_b 19.802826
_cell_length_c 18.242309
_cell_angle_alpha 90.000000
_cell_angle_beta 90.000000
_cell_angle_gamma 90.000000
_cell_volume 4814.005617
_symmetry_space_group_name_H-M "C M M M"
_symmetry_group_IT_number 65
_symmetry_cell_setting 'orthorhombic'
loop_
_space_group_symop_operation_xyz
x,y,z
-x,-y,z
x,-y,-z
-x,y,-z
-x,-y,-z
x,y,-z
-x,y,z
x,-y,z
1/2+x,1/2+y,z
1/2-x,1/2-y,z
1/2+x,1/2-y,-z
1/2-x,1/2+y,-z
1/2-x,1/2-y,-z
1/2+x,1/2+y,-z
1/2-x,1/2+y,z
1/2+x,1/2-y,z
loop_
_atom_site_type_symbol
_atom_site_label
_atom_site_fract_x
_atom_site_fract_y
_atom_site_fract_z
Si Si1 0.798837 0.145158 0.782028
Si Si2 0.118372 0.925784 0.348675
Si Si3 0.884851 0.279102 0.274207
Si Si4 0.884427 0.921658 0.916713
Si Si5 0.118736 0.790260 0.419668
O O1 0.832646 0.082993 0.731292
O O2 0.871645 0.208947 0.768797
O O3 0.683491 0.163750 0.763045
O O4 0.810141 0.122303 0.866048
O O5 0.158733 0.865910 0.401237
O O6 0.000000 0.920764 0.338981
O O7 0.148668 0.000000 0.379631
O O8 0.848579 0.265119 0.358742
O O9 0.000000 0.302997 0.270324
O O10 0.000000 0.909234 0.894033
O O11 0.857279 0.000000 0.908463
O O12 0.866391 0.897912 0.000000
O O13 0.159633 0.768780 0.500000
O O14 0.000000 0.793784 0.419770
#
# Coordination Sequence:
#
# PCOD8265377 Si02
#       5
#    16  16  16  16  16
#     4  10  17  28  46  64  86 119 148 179 219 260
#     4   9  16  25  40  63  87 111 141 178 223 273
#     4   9  18  30  43  63  89 118 154 187 216 257
#     4   9  17  29  48  74  97 115 139 174 217 263
#     4   8  14  26  43  61  84 114 145 181 226 269
#
# _framework density 16.618178
#
# number of rings (size 3 to 8) (size 9 to 14) (size 15 to 20)
#    0.000    3.000    0.000    4.200    0.000    2.000 
#    0.000   12.000    0.000    4.200    0.000    1.400 
#    0.000    0.000    0.000   36.200    0.000    1.800 
#
# Total GULP energy -495698.257782 kJ/mol
# GULP energy per Si atom -12392.456445 kJ/mol
# Density = 1.658035 g / cm^3
# Si number density = 16.618178 Si / 1000 Ang^3
#
#
#
# Elastic Constant Matrix: (Units=GPa)
#
#
# Indices 1 2 3 4 5 6 
#
# 1 68.8674 33.8389 36.4683 0.0000 0.0000 0.0000
# 2 33.8389 59.7833 41.2817 0.0000 0.0000 0.0000
# 3 36.4683 41.2817 126.6902 0.0000 0.0000 0.0000
# 4 0.0000 0.0000 0.0000 20.0817 0.0000 0.0000
# 5 0.0000 0.0000 0.0000 0.0000 -38.6666 0.0000
# 6 0.0000 0.0000 0.0000 0.0000 0.0000 24.9558
#
#
#
# Elastic Compliance Matrix: (Units=1/GPa)
#
#
# Indices 1 2 3 4 5 6 
#
# 1 0.020848 -0.009880 -0.002782 0.000000 0.000000 0.000000
# 2 -0.009880 0.026265 -0.005715 0.000000 0.000000 0.000000
# 3 -0.002782 -0.005715 0.010556 0.000000 0.000000 0.000000
# 4 0.000000 0.000000 0.000000 0.049796 0.000000 0.000000
# 5 0.000000 0.000000 0.000000 0.000000 -0.025862 0.000000
# 6 0.000000 0.000000 0.000000 0.000000 0.000000 0.040071
#
#
# Mechanical properties :
#
#
# Convention : Reuss Voigt Hill
#
# Bulk Modulus (GPa) = 47.80738 53.16874 50.48806
# Shear Modulus (GPa) = 30.22975 10.85766 20.54371
#
# Velocity S-wave (km/s) = 4.26969 2.55886 3.51980
# Velocity P-wave (km/s) = 7.28955 6.38703 6.85317
#
# Compressibility (1/GPa) = 0.02091727
#
# Stress axis : x y z
#
# Youngs Moduli (GPa) = 47.96534 38.07307 94.73135
#
# Poissons Ratio (x) = 0.37615 0.26355
# Poissons Ratio (y) = 0.47388 0.54135
# Poissons Ratio (z) = 0.13344 0.21757
#
# Static dielectric constant tensor:
#      x y z
#    x 2.876350 0.000000 0.000000 
#    y 0.000000 2.998270 0.000000 
#    z 0.000000 0.000000 3.294350 
# 
# 
# High freq. dielectric constant tensor:
#      x y z
#    x 1.615640 0.000000 0.000000 
#    y 0.000000 1.619240 0.000000 
#    z 0.000000 0.000000 1.637210 
# 
# From -- ./inp_files/52884.got.cif
#   From: 2010.03.12/outbox.cif.g09.slc.cpg/sg65_27_cif.got.tgz:52884.got - 2010.04.10 20:52:16.
