data_PCOD8265528
_publ_section_title
;
Structure prediction by ZEFSAII (Michael W. Deem and Ramdas Pophale) SiO2 
 PCOD8265528
Probable space group: C M M M
;
_chemical_formula_sum "Si O2"
_cell_formula_units_Z 80
_cell_length_a 9.056485
_cell_length_b 23.712217
_cell_length_c 20.415750
_cell_angle_alpha 90.000000
_cell_angle_beta 90.000000
_cell_angle_gamma 90.000000
_cell_volume 4384.268789
_symmetry_space_group_name_H-M "C M M M"
_symmetry_group_IT_number 65
_symmetry_cell_setting 'orthorhombic'
loop_
_space_group_symop_operation_xyz
x,y,z
-x,-y,z
x,-y,-z
-x,y,-z
-x,-y,-z
x,y,-z
-x,y,z
x,-y,z
1/2+x,1/2+y,z
1/2-x,1/2-y,z
1/2+x,1/2-y,-z
1/2-x,1/2+y,-z
1/2-x,1/2-y,-z
1/2+x,1/2+y,-z
1/2-x,1/2+y,z
1/2+x,1/2-y,z
loop_
_atom_site_type_symbol
_atom_site_label
_atom_site_fract_x
_atom_site_fract_y
_atom_site_fract_z
Si Si1 0.827247 0.610555 0.312242
Si Si2 0.173613 0.690803 0.808194
Si Si3 0.672239 0.806749 0.573980
Si Si4 0.324948 0.000000 0.867246
Si Si5 0.675197 0.500000 0.272836
Si Si6 0.824714 0.617147 0.927512
O O1 0.784579 0.649069 0.250478
O O2 0.782686 0.642243 0.378899
O O3 0.730274 0.554506 0.312094
O O4 0.000000 0.594824 0.310153
O O5 0.250000 0.750000 0.795931
O O6 0.234224 0.663202 0.875704
O O7 0.000000 0.701125 0.811291
O O8 0.720747 0.822456 0.500000
O O9 0.500000 0.794648 0.578773
O O10 0.750000 0.750000 0.598484
O O11 0.273045 0.054596 0.907584
O O12 0.500000 0.000000 0.853926
O O13 0.244199 0.000000 0.798630
O O14 0.500000 0.500000 0.268365
O O15 0.000000 0.618355 0.927766
O O16 0.762246 0.631368 0.000000
#
# Coordination Sequence:
#
# PCOD8265528 Si02
#       6
#    16  16  16   8   8  16
#     4  10  20  37  57  77 105 142 180 215 257 313
#     4  10  20  33  51  75 103 137 175 215 258 307
#     4   9  18  33  56  85 114 144 178 216 259 307
#     4  10  17  34  58  77 101 133 174 219 266 316
#     4  12  24  35  54  82 108 134 172 222 273 315
#     4   9  17  30  52  79 102 131 175 218 257 310
#
# _framework density 18.247056000000001
#
# number of rings (size 3 to 8) (size 9 to 14) (size 15 to 20)
#    0.000    2.200    2.000    1.800    0.000    3.200 
#    0.000    0.500    0.000    5.400    0.000    0.000 
#    0.000    0.000    0.000    0.000    0.000    0.000 
#
# Total GULP energy -496033.796113 kJ/mol
# GULP energy per Si atom -12400.844903 kJ/mol
# Density = 1.820552 g / cm^3
# Si number density = 18.247056 Si / 1000 Ang^3
#
#
#
# Elastic Constant Matrix: (Units=GPa)
#
#
# Indices 1 2 3 4 5 6 
#
# 1 43.9604 46.2061 33.8490 0.0000 0.0000 0.0000
# 2 46.2061 134.8508 61.7478 0.0000 0.0000 0.0000
# 3 33.8490 61.7478 122.2494 0.0000 0.0000 0.0000
# 4 0.0000 0.0000 0.0000 15.1104 0.0000 0.0000
# 5 0.0000 0.0000 0.0000 0.0000 13.1064 0.0000
# 6 0.0000 0.0000 0.0000 0.0000 0.0000 30.2231
#
#
#
# Elastic Compliance Matrix: (Units=1/GPa)
#
#
# Indices 1 2 3 4 5 6 
#
# 1 0.037859 -0.010631 -0.005113 0.000000 0.000000 0.000000
# 2 -0.010631 0.012632 -0.003437 0.000000 0.000000 0.000000
# 3 -0.005113 -0.003437 0.011332 0.000000 0.000000 0.000000
# 4 0.000000 0.000000 0.000000 0.066180 0.000000 0.000000
# 5 0.000000 0.000000 0.000000 0.000000 0.076299 0.000000
# 6 0.000000 0.000000 0.000000 0.000000 0.000000 0.033087
#
#
# Mechanical properties :
#
#
# Convention : Reuss Voigt Hill
#
# Bulk Modulus (GPa) = 42.62395 64.96293 53.79344
# Shear Modulus (GPa) = 17.63237 22.30515 19.96876
#
# Velocity S-wave (km/s) = 3.11193 3.50007 3.31169
# Velocity P-wave (km/s) = 6.02679 7.21202 6.64588
#
# Compressibility (1/GPa) = 0.02346099
#
# Stress axis : x y z
#
# Youngs Moduli (GPa) = 26.41406 79.16417 88.24892
#
# Poissons Ratio (x) = 0.84159 0.45120
# Poissons Ratio (y) = 0.28081 0.30330
# Poissons Ratio (z) = 0.13505 0.27207
#
# Static dielectric constant tensor:
#      x y z
#    x 3.060650 0.000000 0.000000 
#    y 0.000000 3.491040 0.000000 
#    z 0.000000 0.000000 3.685840 
# 
# 
# High freq. dielectric constant tensor:
#      x y z
#    x 1.674660 0.000000 0.000000 
#    y 0.000000 1.711220 0.000000 
#    z 0.000000 0.000000 1.716860 
# 
# From -- ./inp_files/59650.got.cif
#   From: 2010.03.12/outbox.cif.g09.slc.cpg/sg65_30_cif.got.tgz:59650.got - 2010.04.10 20:52:16.
