data_PCOD8265763
_publ_section_title
;
Structure prediction by ZEFSAII (Michael W. Deem and Ramdas Pophale) SiO2 
 PCOD8265763
Probable space group: C M M M
;
_chemical_formula_sum "Si O2"
_cell_formula_units_Z 104
_cell_length_a 9.561990
_cell_length_b 25.632734
_cell_length_c 29.683735
_cell_angle_alpha 90.000000
_cell_angle_beta 90.000000
_cell_angle_gamma 90.000000
_cell_volume 7275.481851
_symmetry_space_group_name_H-M "C M M M"
_symmetry_group_IT_number 65
_symmetry_cell_setting 'orthorhombic'
loop_
_space_group_symop_operation_xyz
x,y,z
-x,-y,z
x,-y,-z
-x,y,-z
-x,-y,-z
x,y,-z
-x,y,z
x,-y,z
1/2+x,1/2+y,z
1/2-x,1/2-y,z
1/2+x,1/2-y,-z
1/2-x,1/2+y,-z
1/2-x,1/2-y,-z
1/2+x,1/2+y,-z
1/2-x,1/2+y,z
1/2+x,1/2-y,z
loop_
_atom_site_type_symbol
_atom_site_label
_atom_site_fract_x
_atom_site_fract_y
_atom_site_fract_z
Si Si1 0.836374 0.939805 0.186890
Si Si2 0.335222 0.098577 0.892929
Si Si3 0.655025 0.438004 0.712099
Si Si4 0.161823 0.700461 0.051746
Si Si5 0.842553 0.562333 0.368774
Si Si6 0.665917 0.000000 0.949797
Si Si7 0.656853 0.562022 0.450009
O O1 0.745879 0.903352 0.154260
O O2 0.800821 0.920962 0.237611
O O3 0.000000 0.932651 0.176719
O O4 0.792095 0.000000 0.180159
O O5 0.500000 0.094426 0.883639
O O6 0.294608 0.151802 0.917721
O O7 0.281298 0.051230 0.923962
O O8 0.500000 0.416426 0.700520
O O9 0.650218 0.500000 0.710106
O O10 0.764986 0.415954 0.675783
O O11 0.250000 0.750000 0.068104
O O12 0.000000 0.714453 0.057848
O O13 0.195595 0.686129 0.000000
O O14 0.842001 0.500000 0.368918
O O15 0.763732 0.584536 0.412967
O O16 0.000000 0.584160 0.368929
O O17 0.500000 0.000000 0.952940
O O18 0.730472 0.000000 0.000000
O O19 0.702997 0.580840 0.500000
O O20 0.500000 0.581982 0.439211
O O21 0.657999 0.500000 0.448192
#
# Coordination Sequence:
#
# PCOD8265763 Si02
#       7
#    16  16  16  16  16   8  16
#     4   9  17  28  40  55  77 102 125 151 186 228
#     4  10  18  28  44  64  82 103 130 158 189 228
#     4   8  14  24  35  44  58  85 115 139 168 212
#     4   9  18  32  48  65  83 104 132 162 190 224
#     4   9  15  20  27  41  57  73  98 136 178 214
#     4   9  16  26  41  61  83 105 127 151 182 223
#     4   8  13  20  28  36  48  70  99 130 168 217
#
# _framework density 14.294586000000001
#
# number of rings (size 3 to 8) (size 9 to 14) (size 15 to 20)
#    0.000    3.154    0.769    2.308    0.000    5.231 
#    0.000    3.077    0.000    1.846    0.000    0.000 
#    0.000    0.000    0.000    0.000    0.000    0.000 
#
# Total GULP energy -644582.040133 kJ/mol
# GULP energy per Si atom -12395.808464 kJ/mol
# Density = 1.426205 g / cm^3
# Si number density = 14.294586 Si / 1000 Ang^3
#
#
#
# Elastic Constant Matrix: (Units=GPa)
#
#
# Indices 1 2 3 4 5 6 
#
# 1 82.8157 30.3491 72.0343 0.0000 0.0000 0.0000
# 2 30.3491 50.3330 35.8126 0.0000 0.0000 0.0000
# 3 72.0343 35.8126 130.5741 0.0000 0.0000 0.0000
# 4 0.0000 0.0000 0.0000 6.6716 0.0000 0.0000
# 5 0.0000 0.0000 0.0000 0.0000 27.7109 0.0000
# 6 0.0000 0.0000 0.0000 0.0000 0.0000 12.9807
#
#
#
# Elastic Compliance Matrix: (Units=1/GPa)
#
#
# Indices 1 2 3 4 5 6 
#
# 1 0.024810 -0.006487 -0.011908 0.000000 0.000000 0.000000
# 2 -0.006487 0.026381 -0.003657 0.000000 0.000000 0.000000
# 3 -0.011908 -0.003657 0.015231 0.000000 0.000000 0.000000
# 4 0.000000 0.000000 0.000000 0.149888 0.000000 0.000000
# 5 0.000000 0.000000 0.000000 0.000000 0.036087 0.000000
# 6 0.000000 0.000000 0.000000 0.000000 0.000000 0.077038
#
#
# Mechanical properties :
#
#
# Convention : Reuss Voigt Hill
#
# Bulk Modulus (GPa) = 44.80617 60.01275 52.40946
# Shear Modulus (GPa) = 13.12417 17.84109 15.48263
#
# Velocity S-wave (km/s) = 3.03334 3.53668 3.29464
# Velocity P-wave (km/s) = 6.60917 7.66495 7.15656
#
# Compressibility (1/GPa) = 0.02231836
#
# Stress axis : x y z
#
# Youngs Moduli (GPa) = 40.30674 37.90606 65.65724
#
# Poissons Ratio (x) = 0.24590 0.78183
# Poissons Ratio (y) = 0.26147 0.24010
# Poissons Ratio (z) = 0.47996 0.13862
#
# Static dielectric constant tensor:
#      x y z
#    x 2.845210 0.000000 0.000000 
#    y 0.000000 2.268180 0.000000 
#    z 0.000000 0.000000 3.016350 
# 
# 
# High freq. dielectric constant tensor:
#      x y z
#    x 1.545420 0.000000 0.000000 
#    y 0.000000 1.469700 0.000000 
#    z 0.000000 0.000000 1.557070 
# 
# From -- ./inp_files/77109.got.cif
#   From: 2010.03.12/outbox.cif.g09.slc.cpg/sg65_39_cif.got.tgz:77109.got - 2010.04.10 20:52:16.
