data_PCOD8265096
_publ_section_title
;
Structure prediction by ZEFSAII (Michael W. Deem and Ramdas Pophale) SiO2 
 PCOD8265096
Probable space group: C M M M
;
_chemical_formula_sum "Si O2"
_cell_formula_units_Z 72
_cell_length_a 8.725111
_cell_length_b 23.475525
_cell_length_c 20.925426
_cell_angle_alpha 90.000000
_cell_angle_beta 90.000000
_cell_angle_gamma 90.000000
_cell_volume 4286.083054
_symmetry_space_group_name_H-M "C M M M"
_symmetry_group_IT_number 65
_symmetry_cell_setting 'orthorhombic'
loop_
_space_group_symop_operation_xyz
x,y,z
-x,-y,z
x,-y,-z
-x,y,-z
-x,-y,-z
x,y,-z
-x,y,z
x,-y,z
1/2+x,1/2+y,z
1/2-x,1/2-y,z
1/2+x,1/2-y,-z
1/2-x,1/2+y,-z
1/2-x,1/2-y,-z
1/2+x,1/2+y,-z
1/2-x,1/2+y,z
1/2+x,1/2-y,z
loop_
_atom_site_type_symbol
_atom_site_label
_atom_site_fract_x
_atom_site_fract_y
_atom_site_fract_z
Si Si1 0.681969 0.312265 0.500000
Si Si2 0.678389 0.811552 0.264910
Si Si3 0.681701 0.500000 0.574531
Si Si4 0.820407 0.312120 0.124744
Si Si5 0.680856 0.686494 0.000000
Si Si6 0.318104 0.117006 0.614581
O O1 0.500000 0.309940 0.500000
O O2 0.750000 0.250000 0.500000
O O3 0.739059 0.344438 0.437983
O O4 0.500000 0.800158 0.270752
O O5 0.750000 0.750000 0.277881
O O6 0.717049 0.838448 0.194704
O O7 0.731934 0.857610 0.316926
O O8 0.500000 0.500000 0.582254
O O9 0.728728 0.500000 0.500000
O O10 0.753340 0.553739 0.610164
O O11 0.750000 0.250000 0.127149
O O12 0.740973 0.345242 0.064823
O O13 0.000000 0.309205 0.111271
O O14 0.750000 0.750000 0.000000
O O15 0.500000 0.687974 0.000000
O O16 0.500000 0.116824 0.604477
#
# Coordination Sequence:
#
# PCOD8265096 Si02
#       6
#     8  16   8  16   8  16
#     4  12  24  37  52  75 102 130 162 198 238 290
#     4   9  19  32  48  71  98 128 162 197 240 291
#     4  11  23  39  57  77  98 123 160 203 248 296
#     4   9  15  25  39  58  87 122 157 193 231 274
#     4  10  16  22  34  56  84 119 162 197 226 268
#     4  11  22  37  56  76  97 126 162 203 248 293
#
# _framework density 16.798553999999999
#
# number of rings (size 3 to 8) (size 9 to 14) (size 15 to 20)
#    0.000    1.889    1.111    5.667    0.000    4.889 
#    0.000    0.000    0.000    0.000    0.000    0.000 
#    0.000    0.889    0.000   10.222    0.000    4.667 
#
# Total GULP energy -446150.396157 kJ/mol
# GULP energy per Si atom -12393.066560 kJ/mol
# Density = 1.676032 g / cm^3
# Si number density = 16.798554 Si / 1000 Ang^3
#
#
#
# Elastic Constant Matrix: (Units=GPa)
#
#
# Indices 1 2 3 4 5 6 
#
# 1 105.4503 39.6261 71.2709 0.0000 0.0000 0.0000
# 2 39.6261 96.6639 64.9061 0.0000 0.0000 0.0000
# 3 71.2709 64.9061 186.7305 0.0000 0.0000 0.0000
# 4 0.0000 0.0000 0.0000 28.5015 0.0000 0.0000
# 5 0.0000 0.0000 0.0000 0.0000 15.2255 0.0000
# 6 0.0000 0.0000 0.0000 0.0000 0.0000 21.8359
#
#
#
# Elastic Compliance Matrix: (Units=1/GPa)
#
#
# Indices 1 2 3 4 5 6 
#
# 1 0.013285 -0.002663 -0.004145 0.000000 0.000000 0.000000
# 2 -0.002663 0.014028 -0.003860 0.000000 0.000000 0.000000
# 3 -0.004145 -0.003860 0.008279 0.000000 0.000000 0.000000
# 4 0.000000 0.000000 0.000000 0.035086 0.000000 0.000000
# 5 0.000000 0.000000 0.000000 0.000000 0.065679 0.000000
# 6 0.000000 0.000000 0.000000 0.000000 0.000000 0.045796
#
#
# Mechanical properties :
#
#
# Convention : Reuss Voigt Hill
#
# Bulk Modulus (GPa) = 70.13986 82.27234 76.20610
# Shear Modulus (GPa) = 24.01049 27.31534 25.66291
#
# Velocity S-wave (km/s) = 3.78473 4.03681 3.91280
# Velocity P-wave (km/s) = 7.80661 8.41486 8.11644
#
# Compressibility (1/GPa) = 0.01425723
#
# Stress axis : x y z
#
# Youngs Moduli (GPa) = 75.27065 71.28370 120.78653
#
# Poissons Ratio (x) = 0.18982 0.50068
# Poissons Ratio (y) = 0.20044 0.46621
# Poissons Ratio (z) = 0.31201 0.27514
#
# Static dielectric constant tensor:
#      x y z
#    x 3.372530 0.000000 0.000000 
#    y 0.000000 2.836300 0.000000 
#    z 0.000000 0.000000 5.247820 
# 
# 
# High freq. dielectric constant tensor:
#      x y z
#    x 1.665530 0.000000 0.000000 
#    y 0.000000 1.588990 0.000000 
#    z 0.000000 0.000000 1.673040 
# 
# From -- ./inp_files/59345.got.cif
#   From: 2010.03.12/outbox.cif.g09.slc.cpg/sg65_30_cif.got.tgz:59345.got - 2010.04.10 20:52:16.
