data_PCOD8265734
_publ_section_title
;
Structure prediction by ZEFSAII (Michael W. Deem and Ramdas Pophale) SiO2 
 PCOD8265734
Probable space group: C M M M
;
_chemical_formula_sum "Si O2"
_cell_formula_units_Z 80
_cell_length_a 7.601531
_cell_length_b 27.371174
_cell_length_c 20.357117
_cell_angle_alpha 90.000000
_cell_angle_beta 90.000000
_cell_angle_gamma 90.000000
_cell_volume 4235.559326
_symmetry_space_group_name_H-M "C M M M"
_symmetry_group_IT_number 65
_symmetry_cell_setting 'orthorhombic'
loop_
_space_group_symop_operation_xyz
x,y,z
-x,-y,z
x,-y,-z
-x,y,-z
-x,-y,-z
x,y,-z
-x,y,z
x,-y,z
1/2+x,1/2+y,z
1/2-x,1/2-y,z
1/2+x,1/2-y,-z
1/2-x,1/2+y,-z
1/2-x,1/2-y,-z
1/2+x,1/2+y,-z
1/2-x,1/2+y,z
1/2+x,1/2-y,z
loop_
_atom_site_type_symbol
_atom_site_label
_atom_site_fract_x
_atom_site_fract_y
_atom_site_fract_z
Si Si1 0.206861 0.446741 0.301622
Si Si2 0.206502 0.693522 0.500000
Si Si3 0.500000 0.443126 0.922980
Si Si4 0.706393 0.899194 0.164080
Si Si5 0.789670 0.350386 0.366271
Si Si6 0.295347 0.804277 0.765050
O O1 0.291759 0.500000 0.316861
O O2 0.251091 0.432130 0.227195
O O3 0.278384 0.405684 0.352219
O O4 0.000000 0.449830 0.310168
O O5 0.250000 0.750000 0.500000
O O6 0.290011 0.668501 0.435116
O O7 0.000000 0.685169 0.500000
O O8 0.500000 0.500000 0.904725
O O9 0.677155 0.418260 0.895752
O O10 0.500000 0.434284 0.000000
O O11 0.500000 0.902490 0.144954
O O12 0.767392 0.843495 0.180651
O O13 0.715670 0.315840 0.307291
O O14 0.000000 0.348754 0.368159
O O15 0.500000 0.812116 0.757649
O O16 0.250000 0.750000 0.788996
#
# Coordination Sequence:
#
# PCOD8265734 Si02
#       6
#    16   8   8  16  16  16
#     4   8  13  25  47  69  93 126 161 202 251 300
#     4  10  18  28  43  59  87 129 158 198 249 304
#     4  11  24  38  56  84 112 139 173 211 252 309
#     4   9  19  35  54  79 108 140 173 213 261 309
#     4   8  15  26  39  64  97 124 164 207 251 300
#     4   9  17  29  49  76 101 131 170 218 263 305
#
# _framework density 18.887706999999999
#
# number of rings (size 3 to 8) (size 9 to 14) (size 15 to 20)
#    0.000    3.100    0.000    3.600    1.400    1.600 
#    0.000    1.500    2.200    3.600    0.000    0.000 
#    0.000    0.800    0.000    0.000    0.000    0.000 
#
# Total GULP energy -495660.169090 kJ/mol
# GULP energy per Si atom -12391.504227 kJ/mol
# Density = 1.884472 g / cm^3
# Si number density = 18.887707 Si / 1000 Ang^3
#
#
#
# Elastic Constant Matrix: (Units=GPa)
#
#
# Indices 1 2 3 4 5 6 
#
# 1 48.0361 22.1355 37.0231 0.0000 0.0000 0.0000
# 2 22.1355 183.7108 77.3328 0.0000 0.0000 0.0000
# 3 37.0231 77.3328 118.5668 0.0000 0.0000 0.0000
# 4 0.0000 0.0000 0.0000 28.6290 0.0000 0.0000
# 5 0.0000 0.0000 0.0000 0.0000 7.2444 0.0000
# 6 0.0000 0.0000 0.0000 0.0000 0.0000 20.2106
#
#
#
# Elastic Compliance Matrix: (Units=1/GPa)
#
#
# Indices 1 2 3 4 5 6 
#
# 1 0.027439 0.000414 -0.008838 0.000000 0.000000 0.000000
# 2 0.000414 0.007510 -0.005027 0.000000 0.000000 0.000000
# 3 -0.008838 -0.005027 0.014473 0.000000 0.000000 0.000000
# 4 0.000000 0.000000 0.000000 0.034930 0.000000 0.000000
# 5 0.000000 0.000000 0.000000 0.000000 0.138037 0.000000
# 6 0.000000 0.000000 0.000000 0.000000 0.000000 0.049479
#
#
# Mechanical properties :
#
#
# Convention : Reuss Voigt Hill
#
# Bulk Modulus (GPa) = 44.40753 69.25519 56.83136
# Shear Modulus (GPa) = 16.32518 25.47163 20.89840
#
# Velocity S-wave (km/s) = 2.94314 3.67629 3.32995
# Velocity P-wave (km/s) = 5.92552 7.40044 6.70367
#
# Compressibility (1/GPa) = 0.02251870
#
# Stress axis : x y z
#
# Youngs Moduli (GPa) = 36.44508 133.16111 69.09510
#
# Poissons Ratio (x) = -0.05516 0.61066
# Poissons Ratio (y) = -0.01510 0.34737
# Poissons Ratio (z) = 0.32210 0.66945
#
# Static dielectric constant tensor:
#      x y z
#    x 3.142070 0.000000 0.000000 
#    y 0.000000 3.336820 0.000000 
#    z 0.000000 0.000000 3.344350 
# 
# 
# High freq. dielectric constant tensor:
#      x y z
#    x 1.713690 0.000000 0.000000 
#    y 0.000000 1.745930 0.000000 
#    z 0.000000 0.000000 1.700810 
# 
# From -- ./inp_files/60079.got.cif
#   From: 2010.03.12/outbox.cif.g09.slc.cpg/sg65_31_cif.got.tgz:60079.got - 2010.04.10 20:52:16.
