data_PCOD8265753
_publ_section_title
;
Structure prediction by ZEFSAII (Michael W. Deem and Ramdas Pophale) SiO2 
 PCOD8265753
Probable space group: C M M M
;
_chemical_formula_sum "Si O2"
_cell_formula_units_Z 96
_cell_length_a 27.423623
_cell_length_b 22.849057
_cell_length_c 9.108092
_cell_angle_alpha 90.000000
_cell_angle_beta 90.000000
_cell_angle_gamma 90.000000
_cell_volume 5707.166197
_symmetry_space_group_name_H-M "C M M M"
_symmetry_group_IT_number 65
_symmetry_cell_setting 'orthorhombic'
loop_
_space_group_symop_operation_xyz
x,y,z
-x,-y,z
x,-y,-z
-x,y,-z
-x,-y,-z
x,y,-z
-x,y,z
x,-y,z
1/2+x,1/2+y,z
1/2-x,1/2-y,z
1/2+x,1/2-y,-z
1/2-x,1/2+y,-z
1/2-x,1/2-y,-z
1/2+x,1/2+y,-z
1/2-x,1/2+y,z
1/2+x,1/2-y,z
loop_
_atom_site_type_symbol
_atom_site_label
_atom_site_fract_x
_atom_site_fract_y
_atom_site_fract_z
Si Si1 0.446706 0.233917 0.672940
Si Si2 0.211454 0.118334 0.833040
Si Si3 0.649027 0.297310 0.674029
Si Si4 0.806544 0.308903 0.167949
Si Si5 0.761394 0.500000 0.174538
Si Si6 0.863628 0.500000 0.666911
Si Si7 0.385938 0.874296 0.330349
O O1 0.451388 0.239074 0.500000
O O2 0.500000 0.246688 0.744546
O O3 0.405945 0.280433 0.727194
O O4 0.430781 0.167583 0.716250
O O5 0.164560 0.139623 0.739203
O O6 0.251236 0.169715 0.822219
O O7 0.232170 0.057275 0.769561
O O8 0.194406 0.109281 0.000000
O O9 0.652672 0.299297 0.500000
O O10 0.686103 0.248362 0.733576
O O11 0.839635 0.361279 0.228865
O O12 0.820699 0.294529 0.000000
O O13 0.815955 0.500000 0.233795
O O14 0.765924 0.500000 0.000000
O O15 0.844564 0.500000 0.500000
O O16 0.897664 0.557046 0.695354
O O17 0.372263 0.861217 0.500000
#
# Coordination Sequence:
#
# PCOD8265753 Si02
#       7
#    16  16  16  16   8   8  16
#     4   8  15  30  49  67  89 118 152 192 239 287
#     4  10  20  32  46  66  94 125 158 188 220 268
#     4  10  20  31  47  70  94 119 150 191 238 281
#     4  10  18  29  46  66  92 125 158 190 224 271
#     4  10  20  34  48  65  92 132 168 187 214 265
#     4  10  18  28  43  66  96 125 159 198 232 264
#     4   9  17  28  44  67  93 123 158 197 235 271
#
# _framework density 16.820958000000001
#
# number of rings (size 3 to 8) (size 9 to 14) (size 15 to 20)
#    0.000    2.500    1.667    2.500    0.000    4.000 
#    0.000    0.417    0.000   15.000    0.000    0.583 
#    0.000   10.667    0.000    0.000    0.000    0.000 
#
# Total GULP energy -594860.229406 kJ/mol
# GULP energy per Si atom -12392.921446 kJ/mol
# Density = 1.678267 g / cm^3
# Si number density = 16.820958 Si / 1000 Ang^3
#
#
#
# Elastic Constant Matrix: (Units=GPa)
#
#
# Indices 1 2 3 4 5 6 
#
# 1 92.8909 43.0232 26.7308 0.0000 0.0000 0.0000
# 2 43.0232 64.9073 17.9237 0.0000 0.0000 0.0000
# 3 26.7308 17.9237 47.3895 0.0000 0.0000 0.0000
# 4 0.0000 0.0000 0.0000 24.0942 0.0000 0.0000
# 5 0.0000 0.0000 0.0000 0.0000 6.0784 0.0000
# 6 0.0000 0.0000 0.0000 0.0000 0.0000 16.1175
#
#
#
# Elastic Compliance Matrix: (Units=1/GPa)
#
#
# Indices 1 2 3 4 5 6 
#
# 1 0.016898 -0.009568 -0.005913 0.000000 0.000000 0.000000
# 2 -0.009568 0.022621 -0.003159 0.000000 0.000000 0.000000
# 3 -0.005913 -0.003159 0.025632 0.000000 0.000000 0.000000
# 4 0.000000 0.000000 0.000000 0.041504 0.000000 0.000000
# 5 0.000000 0.000000 0.000000 0.000000 0.164517 0.000000
# 6 0.000000 0.000000 0.000000 0.000000 0.000000 0.062044
#
#
# Mechanical properties :
#
#
# Convention : Reuss Voigt Hill
#
# Bulk Modulus (GPa) = 35.87883 42.28255 39.08069
# Shear Modulus (GPa) = 13.16529 17.09202 15.12865
#
# Velocity S-wave (km/s) = 2.80066 3.19111 3.00224
# Velocity P-wave (km/s) = 5.64220 6.22648 5.94152
#
# Compressibility (1/GPa) = 0.02787159
#
# Stress axis : x y z
#
# Youngs Moduli (GPa) = 59.17704 44.20677 39.01419
#
# Poissons Ratio (x) = 0.42298 0.23069
# Poissons Ratio (y) = 0.56621 0.12323
# Poissons Ratio (z) = 0.34991 0.13963
#
# Static dielectric constant tensor:
#      x y z
#    x 3.196100 0.000000 0.000000 
#    y 0.000000 3.287370 0.000000 
#    z 0.000000 0.000000 3.080470 
# 
# 
# High freq. dielectric constant tensor:
#      x y z
#    x 1.618180 0.000000 0.000000 
#    y 0.000000 1.642940 0.000000 
#    z 0.000000 0.000000 1.636590 
# 
# From -- ./inp_files/16706.got.cif
#   From: 2010.03.12/outbox.cif.g09.slc.cpg/sg65_9_cif.got.tgz:16706.got - 2010.04.10 20:52:16.
