data_PCOD8265019
_publ_section_title
;
Structure prediction by ZEFSAII (Michael W. Deem and Ramdas Pophale) SiO2 
 PCOD8265019
Probable space group: C M C A
;
_chemical_formula_sum "Si O2"
_cell_formula_units_Z 96
_cell_length_a 9.775082
_cell_length_b 19.876524
_cell_length_c 30.602898
_cell_angle_alpha 90.000000
_cell_angle_beta 90.000000
_cell_angle_gamma 90.000000
_cell_volume 5945.979416
_symmetry_space_group_name_H-M "C M C A"
_symmetry_group_IT_number 64
_symmetry_cell_setting 'orthorhombic'
loop_
_space_group_symop_operation_xyz
x,y,z
-x,1/2-y,1/2+z
x,-y,-z
-x,1/2+y,1/2-z
-x,-y,-z
x,1/2+y,1/2-z
-x,y,z
x,1/2-y,1/2+z
1/2+x,1/2+y,z
1/2-x,-y,1/2+z
1/2+x,1/2-y,-z
1/2-x,y,1/2-z
1/2-x,1/2-y,-z
1/2+x,y,1/2-z
1/2-x,1/2+y,z
1/2+x,-y,1/2+z
loop_
_atom_site_type_symbol
_atom_site_label
_atom_site_fract_x
_atom_site_fract_y
_atom_site_fract_z
Si Si1 0.337072 0.818613 0.883379
Si Si2 0.161358 0.577338 0.046772
Si Si3 0.338516 0.666254 0.885105
Si Si4 0.652305 0.325277 0.712772
Si Si5 0.338090 0.925007 0.051866
Si Si6 0.849662 0.165468 0.786587
O O1 0.500000 0.819847 0.882746
O O2 0.273270 0.868697 0.919677
O O3 0.289893 0.742778 0.893868
O O4 0.287291 0.842680 0.835292
O O5 0.205660 0.502233 0.060089
O O6 0.000000 0.581798 0.049638
O O7 0.205276 0.595005 0.997420
O O8 0.500000 0.657511 0.894571
O O9 0.249316 0.619834 0.915925
O O10 0.303128 0.645299 0.835354
O O11 0.500000 0.355528 0.719052
O O12 0.750000 0.356730 0.750000
O O13 0.645479 0.245412 0.717175
O O14 0.500000 0.914245 0.059575
O O15 0.750000 0.134034 0.750000
O O16 0.000000 0.135883 0.777204
#
# Coordination Sequence:
#
# PCOD8265019 Si02
#       6
#    16  16  16  16  16  16
#     4   8  14  26  44  63  84 113 143 169 206 255
#     4   8  15  29  46  62  82 111 148 181 206 245
#     4   9  17  28  43  65  90 112 136 171 215 257
#     4   8  13  22  38  59  81 106 135 166 203 246
#     4   9  17  29  46  65  83 109 146 182 211 244
#     4   8  14  24  38  58  83 109 136 166 202 245
#
# _framework density 16.145364000000001
#
# number of rings (size 3 to 8) (size 9 to 14) (size 15 to 20)
#    0.000    3.667    0.000    3.000    0.000    1.333 
#    0.000    4.167    0.000    4.000    0.000    4.667 
#    0.000    0.000    0.000    0.000    0.000    0.000 
#
# Total GULP energy -594773.812612 kJ/mol
# GULP energy per Si atom -12391.121096 kJ/mol
# Density = 1.610862 g / cm^3
# Si number density = 16.145364 Si / 1000 Ang^3
#
#
#
# Elastic Constant Matrix: (Units=GPa)
#
#
# Indices 1 2 3 4 5 6 
#
# 1 54.7215 37.0260 64.7645 0.0000 0.0000 0.0000
# 2 37.0260 68.4464 75.5422 0.0000 0.0000 0.0000
# 3 64.7645 75.5422 159.2087 0.0000 0.0000 0.0000
# 4 0.0000 0.0000 0.0000 -0.2812 0.0000 0.0000
# 5 0.0000 0.0000 0.0000 0.0000 28.9234 0.0000
# 6 0.0000 0.0000 0.0000 0.0000 0.0000 12.1702
#
#
#
# Elastic Compliance Matrix: (Units=1/GPa)
#
#
# Indices 1 2 3 4 5 6 
#
# 1 0.036819 -0.007110 -0.011604 0.000000 0.000000 0.000000
# 2 -0.007110 0.032045 -0.012313 0.000000 0.000000 0.000000
# 3 -0.011604 -0.012313 0.016844 0.000000 0.000000 0.000000
# 4 0.000000 0.000000 0.000000 -3.556326 0.000000 0.000000
# 5 0.000000 0.000000 0.000000 0.000000 0.034574 0.000000
# 6 0.000000 0.000000 0.000000 0.000000 0.000000 0.082168
#
#
# Mechanical properties :
#
#
# Convention : Reuss Voigt Hill
#
# Bulk Modulus (GPa) = 42.27588 70.78245 56.52917
# Shear Modulus (GPa) = -1.52256 15.16542 6.82143
#
# Velocity S-wave (km/s) = -0.97215 3.06813 2.05771
# Velocity P-wave (km/s) = 4.99813 7.51579 6.38234
#
# Compressibility (1/GPa) = 0.02365415
#
# Stress axis : x y z
#
# Youngs Moduli (GPa) = 27.16008 31.20564 59.37007
#
# Poissons Ratio (x) = 0.22189 0.68891
# Poissons Ratio (y) = 0.19312 0.73100
# Poissons Ratio (z) = 0.31516 0.38422
#
# Static dielectric constant tensor:
#      x y z
#    x 2.921350 0.000000 0.000000 
#    y 0.000000 2.930170 0.000000 
#    z 0.000000 0.000000 3.487510 
# 
# 
# High freq. dielectric constant tensor:
#      x y z
#    x 1.588860 0.000000 0.000000 
#    y 0.000000 1.584980 0.000000 
#    z 0.000000 0.000000 1.633830 
# 
# From -- ./inp_files/44231.got.cif
#   From: 2010.03.12/outbox.cif.g09.slc.cpg/sg64_23_cif.got.tgz:44231.got - 2010.04.10 20:19:32.
