data_PCOD8265054
_publ_section_title
;
Structure prediction by ZEFSAII (Michael W. Deem and Ramdas Pophale) SiO2 
 PCOD8265054
Probable space group: C M M M
;
_chemical_formula_sum "Si O2"
_cell_formula_units_Z 80
_cell_length_a 17.309519
_cell_length_b 26.652692
_cell_length_c 11.953577
_cell_angle_alpha 90.000000
_cell_angle_beta 90.000000
_cell_angle_gamma 90.000000
_cell_volume 5514.726311
_symmetry_space_group_name_H-M "C M M M"
_symmetry_group_IT_number 65
_symmetry_cell_setting 'orthorhombic'
loop_
_space_group_symop_operation_xyz
x,y,z
-x,-y,z
x,-y,-z
-x,y,-z
-x,-y,-z
x,y,-z
-x,y,z
x,-y,z
1/2+x,1/2+y,z
1/2-x,1/2-y,z
1/2+x,1/2-y,-z
1/2-x,1/2+y,-z
1/2-x,1/2-y,-z
1/2+x,1/2+y,-z
1/2-x,1/2+y,z
1/2+x,1/2-y,z
loop_
_atom_site_type_symbol
_atom_site_label
_atom_site_fract_x
_atom_site_fract_y
_atom_site_fract_z
Si Si1 0.910496 0.261382 0.372602
Si Si2 0.196462 0.201632 0.770101
Si Si3 0.409621 0.167701 0.000000
Si Si4 0.089573 0.442582 0.628221
Si Si5 0.836042 0.228333 0.000000
Si Si6 0.155273 0.645989 0.238463
O O1 0.885434 0.272026 0.500000
O O2 0.864635 0.212145 0.328755
O O3 0.893237 0.310691 0.300179
O O4 0.000000 0.248321 0.363435
O O5 0.250000 0.250000 0.782004
O O6 0.151797 0.194639 0.888633
O O7 0.252476 0.154659 0.746312
O O8 0.368477 0.144193 0.108641
O O9 0.500000 0.154244 0.000000
O O10 0.399089 0.227506 0.000000
O O11 0.111307 0.431367 0.500000
O O12 0.108180 0.500000 0.658528
O O13 0.139852 0.407864 0.708261
O O14 0.000000 0.430689 0.648468
O O15 0.750000 0.250000 0.000000
#
# Coordination Sequence:
#
# PCOD8265054 Si02
#       6
#    16  16   8  16   8  16
#     4  10  19  28  39  59  86 112 140 175 211 251
#     4   9  17  27  42  57  82 110 140 172 207 248
#     4  12  20  26  43  65  84 114 150 177 208 249
#     4   9  18  32  47  61  80 108 143 184 223 255
#     4  10  14  30  40  54  82 112 139 171 204 239
#     4  11  19  29  43  62  83 111 145 179 211 255
#
# _framework density 14.506612000000001
#
# number of rings (size 3 to 8) (size 9 to 14) (size 15 to 20)
#    0.000    2.000    6.000    3.000    0.000    6.000 
#    0.000    0.500    0.000    1.800    0.000    0.000 
#    0.000    0.800    0.000    4.400    0.000    6.800 
#
# Total GULP energy -495842.686560 kJ/mol
# GULP energy per Si atom -12396.067164 kJ/mol
# Density = 1.447359 g / cm^3
# Si number density = 14.506612 Si / 1000 Ang^3
#
#
#
# Elastic Constant Matrix: (Units=GPa)
#
#
# Indices 1 2 3 4 5 6 
#
# 1 49.3078 32.9118 39.1818 0.0000 0.0000 0.0000
# 2 32.9118 69.5395 43.6296 0.0000 0.0000 0.0000
# 3 39.1818 43.6296 116.7640 0.0000 0.0000 0.0000
# 4 0.0000 0.0000 0.0000 18.1094 0.0000 0.0000
# 5 0.0000 0.0000 0.0000 0.0000 20.3841 0.0000
# 6 0.0000 0.0000 0.0000 0.0000 0.0000 22.3276
#
#
#
# Elastic Compliance Matrix: (Units=1/GPa)
#
#
# Indices 1 2 3 4 5 6 
#
# 1 0.033457 -0.011483 -0.006936 0.000000 0.000000 0.000000
# 2 -0.011483 0.022725 -0.004638 0.000000 0.000000 0.000000
# 3 -0.006936 -0.004638 0.012625 0.000000 0.000000 0.000000
# 4 0.000000 0.000000 0.000000 0.055220 0.000000 0.000000
# 5 0.000000 0.000000 0.000000 0.000000 0.049058 0.000000
# 6 0.000000 0.000000 0.000000 0.000000 0.000000 0.044788
#
#
# Mechanical properties :
#
#
# Convention : Reuss Voigt Hill
#
# Bulk Modulus (GPa) = 44.06748 51.89532 47.98140
# Shear Modulus (GPa) = 18.41273 20.15673 19.28473
#
# Velocity S-wave (km/s) = 3.56654 3.73162 3.65002
# Velocity P-wave (km/s) = 6.88504 7.37685 7.13518
#
# Compressibility (1/GPa) = 0.02269247
#
# Stress axis : x y z
#
# Youngs Moduli (GPa) = 29.88900 44.00467 79.20812
#
# Poissons Ratio (x) = 0.50529 0.54942
# Poissons Ratio (y) = 0.34321 0.36738
# Poissons Ratio (z) = 0.20732 0.20410
#
# Static dielectric constant tensor:
#      x y z
#    x 2.879710 0.000000 0.000000 
#    y 0.000000 2.540280 0.000000 
#    z 0.000000 0.000000 3.198760 
# 
# 
# High freq. dielectric constant tensor:
#      x y z
#    x 1.539240 0.000000 0.000000 
#    y 0.000000 1.500900 0.000000 
#    z 0.000000 0.000000 1.576160 
# 
# From -- ./inp_files/27304.got.cif
#   From: 2010.03.12/outbox.cif.g09.slc.cpg/sg65_14_cif.got.tgz:27304.got - 2010.04.10 20:52:16.
