data_PCOD8265507
_publ_section_title
;
Structure prediction by ZEFSAII (Michael W. Deem and Ramdas Pophale) SiO2 
 PCOD8265507
Probable space group: C M M M
;
_chemical_formula_sum "Si O2"
_cell_formula_units_Z 96
_cell_length_a 25.656937
_cell_length_b 21.908737
_cell_length_c 9.107802
_cell_angle_alpha 90.000000
_cell_angle_beta 90.000000
_cell_angle_gamma 90.000000
_cell_volume 5119.596464
_symmetry_space_group_name_H-M "C M M M"
_symmetry_group_IT_number 65
_symmetry_cell_setting 'orthorhombic'
loop_
_space_group_symop_operation_xyz
x,y,z
-x,-y,z
x,-y,-z
-x,y,-z
-x,-y,-z
x,y,-z
-x,y,z
x,-y,z
1/2+x,1/2+y,z
1/2-x,1/2-y,z
1/2+x,1/2-y,-z
1/2-x,1/2+y,-z
1/2-x,1/2-y,-z
1/2+x,1/2+y,-z
1/2-x,1/2+y,z
1/2+x,1/2-y,z
loop_
_atom_site_type_symbol
_atom_site_label
_atom_site_fract_x
_atom_site_fract_y
_atom_site_fract_z
Si Si1 0.595058 0.000000 0.668558
Si Si2 0.358545 0.656828 0.330092
Si Si3 0.943949 0.369390 0.328187
Si Si4 0.651679 0.793181 0.674689
Si Si5 0.241361 0.617493 0.669538
Si Si6 0.440358 0.569510 0.827128
Si Si7 0.298214 0.000000 0.827051
O O1 0.560459 0.058823 0.702099
O O2 0.615538 0.000000 0.500000
O O3 0.642473 0.000000 0.779281
O O4 0.374446 0.658371 0.500000
O O5 0.355352 0.725051 0.262511
O O6 0.301781 0.629408 0.307135
O O7 0.401696 0.616731 0.249311
O O8 0.942983 0.356085 0.500000
O O9 0.895930 0.332696 0.257185
O O10 0.000000 0.347825 0.263113
O O11 0.650412 0.790207 0.500000
O O12 0.706249 0.824715 0.722568
O O13 0.228006 0.603092 0.500000
O O14 0.229889 0.559443 0.766992
O O15 0.500000 0.585125 0.782985
O O16 0.427217 0.500000 0.778064
O O17 0.432990 0.575889 0.000000
O O18 0.293852 0.000000 0.000000
#
# Coordination Sequence:
#
# PCOD8265507 Si02
#       7
#     8  16  16  16  16  16   8
#     4  10  17  32  54  76 104 143 185 227 276 317
#     4  10  21  34  57  89 113 137 178 229 275 324
#     4   9  16  26  48  81 109 137 181 227 263 311
#     4   9  17  32  53  80 114 147 177 219 273 325
#     4  10  20  37  57  79 111 148 182 217 274 335
#     4   9  20  40  61  79 107 149 188 220 267 332
#     4  12  24  35  53  81 109 141 186 231 272 316
#
# _framework density 18.751477000000001
#
# number of rings (size 3 to 8) (size 9 to 14) (size 15 to 20)
#    0.000    2.333    1.667    2.000    1.167    5.000 
#    0.000    3.333    0.000    3.000    0.000    0.000 
#    0.000    0.000    0.000    0.000    0.000    0.000 
#
# Total GULP energy -594984.911961 kJ/mol
# GULP energy per Si atom -12395.518999 kJ/mol
# Density = 1.870880 g / cm^3
# Si number density = 18.751477 Si / 1000 Ang^3
#
#
#
# Elastic Constant Matrix: (Units=GPa)
#
#
# Indices 1 2 3 4 5 6 
#
# 1 125.2614 65.7423 44.9137 0.0000 0.0000 0.0000
# 2 65.7423 140.4135 49.2601 0.0000 0.0000 0.0000
# 3 44.9137 49.2601 51.6995 0.0000 0.0000 0.0000
# 4 0.0000 0.0000 0.0000 -29.8359 0.0000 0.0000
# 5 0.0000 0.0000 0.0000 0.0000 16.5375 0.0000
# 6 0.0000 0.0000 0.0000 0.0000 0.0000 25.4849
#
#
#
# Elastic Compliance Matrix: (Units=1/GPa)
#
#
# Indices 1 2 3 4 5 6 
#
# 1 0.012406 -0.003045 -0.007876 0.000000 0.000000 0.000000
# 2 -0.003045 0.011445 -0.008260 0.000000 0.000000 0.000000
# 3 -0.007876 -0.008260 0.034054 0.000000 0.000000 0.000000
# 4 0.000000 0.000000 0.000000 -0.033517 0.000000 0.000000
# 5 0.000000 0.000000 0.000000 0.000000 0.060469 0.000000
# 6 0.000000 0.000000 0.000000 0.000000 0.000000 0.039239
#
#
# Mechanical properties :
#
#
# Convention : Reuss Voigt Hill
#
# Bulk Modulus (GPa) = 51.16651 70.80074 60.98363
# Shear Modulus (GPa) = 29.59071 12.93451 21.26261
#
# Velocity S-wave (km/s) = 3.97677 2.62923 3.37102
# Velocity P-wave (km/s) = 6.95932 6.85977 6.90973
#
# Compressibility (1/GPa) = 0.01954403
#
# Stress axis : x y z
#
# Youngs Moduli (GPa) = 80.60936 87.37165 29.36488
#
# Poissons Ratio (x) = 0.26608 0.23126
# Poissons Ratio (y) = 0.24549 0.24254
# Poissons Ratio (z) = 0.63484 0.72166
#
# Static dielectric constant tensor:
#      x y z
#    x 3.651560 0.000000 0.000000 
#    y 0.000000 3.660840 0.000000 
#    z 0.000000 0.000000 2.987520 
# 
# 
# High freq. dielectric constant tensor:
#      x y z
#    x 1.743850 0.000000 0.000000 
#    y 0.000000 1.738630 0.000000 
#    z 0.000000 0.000000 1.674570 
# 
# From -- ./inp_files/14336.got.cif
#   From: 2010.03.12/outbox.cif.g09.slc.cpg/sg65_8_cif.got.tgz:14336.got - 2010.04.10 20:52:16.
