data_PCOD8265497
_publ_section_title
;
Structure prediction by ZEFSAII (Michael W. Deem and Ramdas Pophale) SiO2 
 PCOD8265497
Probable space group: C M M M
;
_chemical_formula_sum "Si O2"
_cell_formula_units_Z 88
_cell_length_a 16.529871
_cell_length_b 17.741429
_cell_length_c 15.373436
_cell_angle_alpha 90.000000
_cell_angle_beta 90.000000
_cell_angle_gamma 90.000000
_cell_volume 4508.468151
_symmetry_space_group_name_H-M "C M M M"
_symmetry_group_IT_number 65
_symmetry_cell_setting 'orthorhombic'
loop_
_space_group_symop_operation_xyz
x,y,z
-x,-y,z
x,-y,-z
-x,y,-z
-x,-y,-z
x,y,-z
-x,y,z
x,-y,z
1/2+x,1/2+y,z
1/2-x,1/2-y,z
1/2+x,1/2-y,-z
1/2-x,1/2+y,-z
1/2-x,1/2-y,-z
1/2+x,1/2+y,-z
1/2-x,1/2+y,z
1/2+x,1/2-y,z
loop_
_atom_site_type_symbol
_atom_site_label
_atom_site_fract_x
_atom_site_fract_y
_atom_site_fract_z
Si Si1 0.809244 0.687321 0.202272
Si Si2 0.095785 0.863915 0.401388
Si Si3 0.905944 0.696871 0.363324
Si Si4 0.907982 0.207177 0.902305
Si Si5 0.165287 0.913642 0.222428
Si Si6 0.596881 0.917087 0.500000
O O1 0.750000 0.750000 0.244231
O O2 0.886020 0.678809 0.264177
O O3 0.846936 0.721756 0.113207
O O4 0.757725 0.610278 0.196503
O O5 0.115302 0.893717 0.500000
O O6 0.125451 0.777551 0.396067
O O7 0.144960 0.907887 0.325748
O O8 0.000000 0.872593 0.382700
O O9 0.868053 0.628315 0.417783
O O10 0.000000 0.696180 0.378239
O O11 0.893961 0.139585 0.833730
O O12 0.000000 0.234956 0.891244
O O13 0.892004 0.177535 0.000000
O O14 0.154116 0.000000 0.193508
O O15 0.500000 0.922302 0.500000
O O16 0.635618 0.000000 0.500000
#
# Coordination Sequence:
#
# PCOD8265497 Si02
#       6
#    16  16  16  16  16   8
#     4  10  20  35  56  81 114 151 188 232 284 348
#     4  10  19  34  58  84 111 154 208 252 291 341
#     4  10  17  31  55  77 102 144 194 241 288 340
#     4  10  21  39  66  94 114 143 195 249 294 348
#     4  11  24  39  55  85 127 159 190 237 298 362
#     4   9  18  30  47  76 109 139 183 242 291 331
#
# _framework density 19.518825
#
# number of rings (size 3 to 8) (size 9 to 14) (size 15 to 20)
#    0.000    1.909    4.545    1.091    0.000    6.182 
#    1.636    3.182    0.000    1.636    0.000    1.273 
#    0.000    0.000    0.000    0.000    0.000    0.000 
#
# Total GULP energy -545122.425675 kJ/mol
# GULP energy per Si atom -12389.146038 kJ/mol
# Density = 1.947440 g / cm^3
# Si number density = 19.518825 Si / 1000 Ang^3
#
#
#
# Elastic Constant Matrix: (Units=GPa)
#
#
# Indices 1 2 3 4 5 6 
#
# 1 51.2763 31.2007 32.3681 0.0000 0.0000 0.0000
# 2 31.2007 93.6280 29.6756 0.0000 0.0000 0.0000
# 3 32.3681 29.6756 117.5878 0.0000 0.0000 0.0000
# 4 0.0000 0.0000 0.0000 18.6605 0.0000 0.0000
# 5 0.0000 0.0000 0.0000 0.0000 22.5555 0.0000
# 6 0.0000 0.0000 0.0000 0.0000 0.0000 16.6315
#
#
#
# Elastic Compliance Matrix: (Units=1/GPa)
#
#
# Indices 1 2 3 4 5 6 
#
# 1 0.027618 -0.007385 -0.005739 0.000000 0.000000 0.000000
# 2 -0.007385 0.013584 -0.001395 0.000000 0.000000 0.000000
# 3 -0.005739 -0.001395 0.010436 0.000000 0.000000 0.000000
# 4 0.000000 0.000000 0.000000 0.053589 0.000000 0.000000
# 5 0.000000 0.000000 0.000000 0.000000 0.044335 0.000000
# 6 0.000000 0.000000 0.000000 0.000000 0.000000 0.060127
#
#
# Mechanical properties :
#
#
# Convention : Reuss Voigt Hill
#
# Bulk Modulus (GPa) = 44.24670 49.88677 47.06673
# Shear Modulus (GPa) = 20.30375 22.85268 21.57821
#
# Velocity S-wave (km/s) = 3.22873 3.42541 3.32852
# Velocity P-wave (km/s) = 6.05124 6.42327 6.24003
#
# Compressibility (1/GPa) = 0.02260056
#
# Stress axis : x y z
#
# Youngs Moduli (GPa) = 36.20807 73.61776 95.82104
#
# Poissons Ratio (x) = 0.54364 0.54989
# Poissons Ratio (y) = 0.26738 0.13371
# Poissons Ratio (z) = 0.20779 0.10272
#
# Static dielectric constant tensor:
#      x y z
#    x 3.528220 0.000000 0.000000 
#    y 0.000000 3.527760 0.000000 
#    z 0.000000 0.000000 3.581690 
# 
# 
# High freq. dielectric constant tensor:
#      x y z
#    x 1.750060 0.000000 0.000000 
#    y 0.000000 1.734470 0.000000 
#    z 0.000000 0.000000 1.756300 
# 
# From -- ./inp_files/42521.got.cif
#   From: 2010.03.12/outbox.cif.g09.slc.cpg/sg65_22_cif.got.tgz:42521.got - 2010.04.10 20:52:16.
