data_PCOD8265183
_publ_section_title
;
Structure prediction by ZEFSAII (Michael W. Deem and Ramdas Pophale) SiO2 
 PCOD8265183
Probable space group: C M M M
;
_chemical_formula_sum "Si O2"
_cell_formula_units_Z 64
_cell_length_a 20.690677
_cell_length_b 17.698486
_cell_length_c 10.555790
_cell_angle_alpha 90.000000
_cell_angle_beta 90.000000
_cell_angle_gamma 90.000000
_cell_volume 3865.463345
_symmetry_space_group_name_H-M "C M M M"
_symmetry_group_IT_number 65
_symmetry_cell_setting 'orthorhombic'
loop_
_space_group_symop_operation_xyz
x,y,z
-x,-y,z
x,-y,-z
-x,y,-z
-x,-y,-z
x,y,-z
-x,y,z
x,-y,z
1/2+x,1/2+y,z
1/2-x,1/2-y,z
1/2+x,1/2-y,-z
1/2-x,1/2+y,-z
1/2-x,1/2-y,-z
1/2+x,1/2+y,-z
1/2-x,1/2+y,z
1/2+x,1/2-y,z
loop_
_atom_site_type_symbol
_atom_site_label
_atom_site_fract_x
_atom_site_fract_y
_atom_site_fract_z
Si Si1 0.369414 0.090466 0.729018
Si Si2 0.624957 0.916886 0.000000
Si Si3 0.733275 0.336379 0.749092
Si Si4 0.427030 0.172874 0.500000
Si Si5 0.721257 0.583998 0.000000
Si Si6 0.682793 0.704435 0.500000
O O1 0.395290 0.121986 0.866775
O O2 0.297306 0.119782 0.704598
O O3 0.417096 0.120889 0.622832
O O4 0.367968 0.000000 0.728347
O O5 0.702076 0.921164 0.000000
O O6 0.594276 0.000000 0.000000
O O7 0.750000 0.250000 0.782205
O O8 0.683133 0.343550 0.630612
O O9 0.699071 0.372501 0.872587
O O10 0.500000 0.203301 0.500000
O O11 0.379948 0.243723 0.500000
O O12 0.690761 0.500000 0.000000
O O13 0.750000 0.750000 0.500000
#
# Coordination Sequence:
#
# PCOD8265183 Si02
#       6
#    16   8  16   8   8   8
#     4  10  18  31  49  73 102 135 169 206 243 288
#     4   7  14  27  44  64  94 126 160 197 235 277
#     4  10  16  29  51  70  99 137 169 202 248 290
#     4  12  23  35  48  70 102 137 174 212 245 291
#     4   9  17  27  43  79 108 120 151 208 258 303
#     4  10  18  34  50  71  95 129 174 214 246 286
#
# _framework density 16.556877
#
# number of rings (size 3 to 8) (size 9 to 14) (size 15 to 20)
#    0.000    2.250    5.000    3.000    0.000    1.000 
#    0.000    2.500    0.000    2.250    0.000    0.000 
#    0.000    9.000    0.000    0.000    0.000    0.000 
#
# Total GULP energy -396459.646264 kJ/mol
# GULP energy per Si atom -12389.363946 kJ/mol
# Density = 1.651919 g / cm^3
# Si number density = 16.556877 Si / 1000 Ang^3
#
#
#
# Elastic Constant Matrix: (Units=GPa)
#
#
# Indices 1 2 3 4 5 6 
#
# 1 66.5570 25.2468 37.4481 0.0000 0.0000 0.0000
# 2 25.2468 71.4125 60.8579 0.0000 0.0000 0.0000
# 3 37.4481 60.8579 190.7609 0.0000 0.0000 0.0000
# 4 0.0000 0.0000 0.0000 25.7316 0.0000 0.0000
# 5 0.0000 0.0000 0.0000 0.0000 -1.8295 0.0000
# 6 0.0000 0.0000 0.0000 0.0000 0.0000 13.1733
#
#
#
# Elastic Compliance Matrix: (Units=1/GPa)
#
#
# Indices 1 2 3 4 5 6 
#
# 1 0.017920 -0.004584 -0.002056 0.000000 0.000000 0.000000
# 2 -0.004584 0.020404 -0.005610 0.000000 0.000000 0.000000
# 3 -0.002056 -0.005610 0.007435 0.000000 0.000000 0.000000
# 4 0.000000 0.000000 0.000000 0.038863 0.000000 0.000000
# 5 0.000000 0.000000 0.000000 0.000000 -0.546602 0.000000
# 6 0.000000 0.000000 0.000000 0.000000 0.000000 0.075911
#
#
# Mechanical properties :
#
#
# Convention : Reuss Voigt Hill
#
# Bulk Modulus (GPa) = 47.03265 63.98176 55.50720
# Shear Modulus (GPa) = -14.10503 21.09360 3.49428
#
# Velocity S-wave (km/s) = -2.92192 3.57320 1.45432
# Velocity P-wave (km/s) = 4.13339 7.46667 6.03473
#
# Compressibility (1/GPa) = 0.02126182
#
# Stress axis : x y z
#
# Youngs Moduli (GPa) = 55.80377 49.00954 134.49303
#
# Poissons Ratio (x) = 0.22464 0.27646
# Poissons Ratio (y) = 0.25578 0.75446
# Poissons Ratio (z) = 0.11471 0.27493
#
# Static dielectric constant tensor:
#      x y z
#    x 2.608620 0.000000 0.000000 
#    y 0.000000 3.096630 0.000000 
#    z 0.000000 0.000000 4.005180 
# 
# 
# High freq. dielectric constant tensor:
#      x y z
#    x 1.567630 0.000000 0.000000 
#    y 0.000000 1.616580 0.000000 
#    z 0.000000 0.000000 1.675600 
# 
# From -- ./inp_files/26154.got.cif
#   From: 2010.03.12/outbox.cif.g09.slc.cpg/sg65_14_cif.got.tgz:26154.got - 2010.04.10 20:52:16.
