data_PCOD8265415
_publ_section_title
;
Structure prediction by ZEFSAII (Michael W. Deem and Ramdas Pophale) SiO2 
 PCOD8265415
Probable space group: C M M M
;
_chemical_formula_sum "Si O2"
_cell_formula_units_Z 80
_cell_length_a 23.897196
_cell_length_b 15.185635
_cell_length_c 13.855547
_cell_angle_alpha 90.000000
_cell_angle_beta 90.000000
_cell_angle_gamma 90.000000
_cell_volume 5028.096203
_symmetry_space_group_name_H-M "C M M M"
_symmetry_group_IT_number 65
_symmetry_cell_setting 'orthorhombic'
loop_
_space_group_symop_operation_xyz
x,y,z
-x,-y,z
x,-y,-z
-x,y,-z
-x,-y,-z
x,y,-z
-x,y,z
x,-y,z
1/2+x,1/2+y,z
1/2-x,1/2-y,z
1/2+x,1/2-y,-z
1/2-x,1/2+y,-z
1/2-x,1/2-y,-z
1/2+x,1/2+y,-z
1/2-x,1/2+y,z
1/2+x,1/2-y,z
loop_
_atom_site_type_symbol
_atom_site_label
_atom_site_fract_x
_atom_site_fract_y
_atom_site_fract_z
Si Si1 0.676260 0.898468 0.288751
Si Si2 0.000000 0.604504 0.207991
Si Si3 0.620608 0.741725 0.389480
Si Si4 0.500000 0.781523 0.609727
Si Si5 0.111649 0.602647 0.893959
Si Si6 0.708335 0.399307 0.612575
O O1 0.633230 0.836296 0.343894
O O2 0.665827 0.880892 0.174505
O O3 0.739054 0.874816 0.320191
O O4 0.662258 0.000000 0.315259
O O5 0.945056 0.642061 0.153145
O O6 0.000000 0.500000 0.212294
O O7 0.000000 0.636781 0.317946
O O8 0.636504 0.750598 0.500000
O O9 0.554933 0.720735 0.373381
O O10 0.657887 0.661571 0.348149
O O11 0.500000 0.818973 0.500000
O O12 0.101383 0.500000 0.906840
O O13 0.122345 0.645319 0.000000
O O14 0.723585 0.382538 0.500000
O O15 0.689902 0.500000 0.628056
#
# Coordination Sequence:
#
# PCOD8265415 Si02
#       6
#    16   8  16   8  16  16
#     4  10  18  28  45  69  95 122 151 182 221 269
#     4  10  17  29  44  62  90 129 162 183 214 262
#     4  10  19  31  46  65  93 124 153 188 227 270
#     4  10  20  30  42  66  94 121 151 184 229 278
#     4   9  17  28  43  64  90 122 159 191 219 260
#     4   9  18  32  49  68  88 117 159 196 226 268
#
# _framework density 15.910595000000001
#
# number of rings (size 3 to 8) (size 9 to 14) (size 15 to 20)
#    0.000    2.400    2.000    1.500    0.000    4.200 
#    0.000    2.500    0.000    5.400    0.000    0.000 
#    0.000    0.000    0.000    1.800    0.000    0.200 
#
# Total GULP energy -495695.876022 kJ/mol
# GULP energy per Si atom -12392.396901 kJ/mol
# Density = 1.587438 g / cm^3
# Si number density = 15.910595 Si / 1000 Ang^3
#
#
#
# Elastic Constant Matrix: (Units=GPa)
#
#
# Indices 1 2 3 4 5 6 
#
# 1 130.0648 50.5273 64.4253 0.0000 0.0000 0.0000
# 2 50.5273 50.2485 31.0302 0.0000 0.0000 0.0000
# 3 64.4253 31.0302 89.1100 0.0000 0.0000 0.0000
# 4 0.0000 0.0000 0.0000 9.5458 0.0000 0.0000
# 5 0.0000 0.0000 0.0000 0.0000 16.0601 0.0000
# 6 0.0000 0.0000 0.0000 0.0000 0.0000 19.0979
#
#
#
# Elastic Compliance Matrix: (Units=1/GPa)
#
#
# Indices 1 2 3 4 5 6 
#
# 1 0.015754 -0.011220 -0.007482 0.000000 0.000000 0.000000
# 2 -0.011220 0.033345 -0.003499 0.000000 0.000000 0.000000
# 3 -0.007482 -0.003499 0.017850 0.000000 0.000000 0.000000
# 4 0.000000 0.000000 0.000000 0.104758 0.000000 0.000000
# 5 0.000000 0.000000 0.000000 0.000000 0.062266 0.000000
# 6 0.000000 0.000000 0.000000 0.000000 0.000000 0.052362
#
#
# Mechanical properties :
#
#
# Convention : Reuss Voigt Hill
#
# Bulk Modulus (GPa) = 44.35677 62.37653 53.36665
# Shear Modulus (GPa) = 14.78180 17.17013 15.97597
#
# Velocity S-wave (km/s) = 3.05135 3.28863 3.17221
# Velocity P-wave (km/s) = 6.35245 7.32868 6.85796
#
# Compressibility (1/GPa) = 0.02254447
#
# Stress axis : x y z
#
# Youngs Moduli (GPa) = 63.47738 29.98990 56.02144
#
# Poissons Ratio (x) = 0.33650 0.41918
# Poissons Ratio (y) = 0.71224 0.19603
# Poissons Ratio (z) = 0.47497 0.10494
#
# Static dielectric constant tensor:
#      x y z
#    x 3.271240 0.000000 0.000000 
#    y 0.000000 2.810870 0.000000 
#    z 0.000000 0.000000 3.179610 
# 
# 
# High freq. dielectric constant tensor:
#      x y z
#    x 1.615570 0.000000 0.000000 
#    y 0.000000 1.573680 0.000000 
#    z 0.000000 0.000000 1.600520 
# 
# From -- ./inp_files/28580.got.cif
#   From: 2010.03.12/outbox.cif.g09.slc.cpg/sg65_15_cif.got.tgz:28580.got - 2010.04.10 20:52:16.
