data_PCOD8265428
_publ_section_title
;
Structure prediction by ZEFSAII (Michael W. Deem and Ramdas Pophale) SiO2 
 PCOD8265428
Probable space group: C M M M
;
_chemical_formula_sum "Si O2"
_cell_formula_units_Z 96
_cell_length_a 15.947656
_cell_length_b 25.793974
_cell_length_c 12.099918
_cell_angle_alpha 90.000000
_cell_angle_beta 90.000000
_cell_angle_gamma 90.000000
_cell_volume 4977.342702
_symmetry_space_group_name_H-M "C M M M"
_symmetry_group_IT_number 65
_symmetry_cell_setting 'orthorhombic'
loop_
_space_group_symop_operation_xyz
x,y,z
-x,-y,z
x,-y,-z
-x,y,-z
-x,-y,-z
x,y,-z
-x,y,z
x,-y,z
1/2+x,1/2+y,z
1/2-x,1/2-y,z
1/2+x,1/2-y,-z
1/2-x,1/2+y,-z
1/2-x,1/2-y,-z
1/2+x,1/2+y,-z
1/2-x,1/2+y,z
1/2+x,1/2-y,z
loop_
_atom_site_type_symbol
_atom_site_label
_atom_site_fract_x
_atom_site_fract_y
_atom_site_fract_z
Si Si1 0.339323 0.722906 0.000000
Si Si2 0.598975 0.252123 0.623491
Si Si3 0.599624 0.057168 0.623881
Si Si4 0.899327 0.346435 0.760865
Si Si5 0.093263 0.670829 0.000000
Si Si6 0.900807 0.943612 0.124467
Si Si7 0.401377 0.336312 0.205325
O O1 0.250000 0.750000 0.000000
O O2 0.410879 0.766869 0.000000
O O3 0.348118 0.688436 0.107901
O O4 0.638143 0.251343 0.500000
O O5 0.500000 0.245690 0.614870
O O6 0.635035 0.204018 0.695304
O O7 0.622236 0.307038 0.680824
O O8 0.633458 0.066613 0.500000
O O9 0.500000 0.060714 0.622899
O O10 0.636043 0.101774 0.702883
O O11 0.627736 0.000000 0.666001
O O12 0.000000 0.344371 0.764445
O O13 0.862064 0.347654 0.886087
O O14 0.000000 0.648007 0.000000
O O15 0.874822 0.897253 0.208803
O O16 0.000000 0.946568 0.120277
O O17 0.865842 0.000000 0.165140
O O18 0.867763 0.931880 0.000000
O O19 0.500000 0.330046 0.179427
#
# Coordination Sequence:
#
# PCOD8265428 Si02
#       7
#     8  16  16  16   8  16  16
#     4  12  22  30  43  67  95 121 152 186 223 271
#     4   9  16  24  39  64  88 114 151 188 216 256
#     4   8  13  21  33  52  81 112 139 176 228 272
#     4   9  15  23  38  58  81 108 143 182 220 265
#     4  10  18  30  45  63  85 116 150 178 222 279
#     4   8  13  21  38  66  93 114 143 184 223 266
#     4  10  17  29  48  67  95 127 153 183 228 278
#
# _framework density 19.287399000000001
#
# number of rings (size 3 to 8) (size 9 to 14) (size 15 to 20)
#    0.000    2.833    2.500    2.250    0.000    2.000 
#    0.000    0.417    0.000    3.500    0.000    5.833 
#    0.000    0.000    0.000    0.000    0.000    0.000 
#
# Total GULP energy -594661.448481 kJ/mol
# GULP energy per Si atom -12388.780177 kJ/mol
# Density = 1.924350 g / cm^3
# Si number density = 19.287399 Si / 1000 Ang^3
#
#
#
# Elastic Constant Matrix: (Units=GPa)
#
#
# Indices 1 2 3 4 5 6 
#
# 1 16.4315 3.7445 5.2960 0.0000 0.0000 0.0000
# 2 3.7445 194.2531 100.0024 0.0000 0.0000 0.0000
# 3 5.2960 100.0024 163.5963 0.0000 0.0000 0.0000
# 4 0.0000 0.0000 0.0000 27.9331 0.0000 0.0000
# 5 0.0000 0.0000 0.0000 0.0000 0.0595 0.0000
# 6 0.0000 0.0000 0.0000 0.0000 0.0000 4.9619
#
#
#
# Elastic Compliance Matrix: (Units=1/GPa)
#
#
# Indices 1 2 3 4 5 6 
#
# 1 0.061508 -0.000234 -0.001848 0.000000 0.000000 0.000000
# 2 -0.000234 0.007513 -0.004585 0.000000 0.000000 0.000000
# 3 -0.001848 -0.004585 0.008975 0.000000 0.000000 0.000000
# 4 0.000000 0.000000 0.000000 0.035800 0.000000 0.000000
# 5 0.000000 0.000000 0.000000 0.000000 16.815041 0.000000
# 6 0.000000 0.000000 0.000000 0.000000 0.000000 0.201537
#
#
# Mechanical properties :
#
#
# Convention : Reuss Voigt Hill
#
# Bulk Modulus (GPa) = 15.46517 65.81855 40.64186
# Shear Modulus (GPa) = 0.29129 24.27342 12.28235
#
# Velocity S-wave (km/s) = 0.38904 3.55140 2.52624
# Velocity P-wave (km/s) = 2.87010 7.14254 5.44304
#
# Compressibility (1/GPa) = 0.06466143
#
# Stress axis : x y z
#
# Youngs Moduli (GPa) = 16.25811 133.10828 111.42106
#
# Poissons Ratio (x) = 0.03119 0.20590
# Poissons Ratio (y) = 0.00381 0.51084
# Poissons Ratio (z) = 0.03004 0.61027
#
# Static dielectric constant tensor:
#      x y z
#    x 2.733610 0.000000 0.000000 
#    y 0.000000 4.030680 0.000000 
#    z 0.000000 0.000000 3.701060 
# 
# 
# High freq. dielectric constant tensor:
#      x y z
#    x 1.677320 0.000000 0.000000 
#    y 0.000000 1.758640 0.000000 
#    z 0.000000 0.000000 1.740210 
# 
# From -- ./inp_files/29525.got.cif
#   From: 2010.03.12/outbox.cif.g09.slc.cpg/sg65_15_cif.got.tgz:29525.got - 2010.04.10 20:52:16.
