data_PCOD8265218
_publ_section_title
;
Structure prediction by ZEFSAII (Michael W. Deem and Ramdas Pophale) SiO2 
 PCOD8265218
Probable space group: C M M M
;
_chemical_formula_sum "Si O2"
_cell_formula_units_Z 72
_cell_length_a 23.152743
_cell_length_b 23.205952
_cell_length_c 8.850300
_cell_angle_alpha 90.000000
_cell_angle_beta 90.000000
_cell_angle_gamma 90.000000
_cell_volume 4755.101953
_symmetry_space_group_name_H-M "C M M M"
_symmetry_group_IT_number 65
_symmetry_cell_setting 'orthorhombic'
loop_
_space_group_symop_operation_xyz
x,y,z
-x,-y,z
x,-y,-z
-x,y,-z
-x,-y,-z
x,y,-z
-x,y,z
x,-y,z
1/2+x,1/2+y,z
1/2-x,1/2-y,z
1/2+x,1/2-y,-z
1/2-x,1/2+y,-z
1/2-x,1/2-y,-z
1/2+x,1/2+y,-z
1/2-x,1/2+y,z
1/2+x,1/2-y,z
loop_
_atom_site_type_symbol
_atom_site_label
_atom_site_fract_x
_atom_site_fract_y
_atom_site_fract_z
Si Si1 0.935388 0.000000 0.177470
Si Si2 0.933873 0.769296 0.322971
Si Si3 0.830661 0.717647 0.821797
Si Si4 0.881376 0.891044 0.326949
Si Si5 0.271158 0.327002 0.675319
O O1 0.900927 0.056329 0.225901
O O2 0.000000 0.000000 0.247867
O O3 0.939457 0.000000 0.000000
O O4 0.922822 0.761545 0.500000
O O5 0.896729 0.720266 0.236525
O O6 0.914998 0.833570 0.273961
O O7 0.000000 0.759543 0.277450
O O8 0.793592 0.665201 0.744385
O O9 0.801086 0.776660 0.770485
O O10 0.829571 0.709665 0.000000
O O11 0.896763 0.905021 0.500000
O O12 0.811878 0.883132 0.306313
O O13 0.267674 0.309156 0.500000
#
# Coordination Sequence:
#
# PCOD8265218 Si02
#       5
#     8  16  16  16  16
#     4  11  23  33  41  57  81 107 134 169 212 249
#     4   9  17  29  43  58  78 107 140 169 198 235
#     4  10  17  24  38  60  82 102 125 158 201 243
#     4   9  18  31  46  59  72  99 139 177 206 235
#     4   9  16  28  43  57  74  98 131 166 199 238
#
# _framework density 15.141631
#
# number of rings (size 3 to 8) (size 9 to 14) (size 15 to 20)
#    0.000    2.556    0.000    6.333    0.000    6.667 
#    0.000    0.000    0.000    0.000    0.000    0.000 
#    0.000    0.000    0.000    1.000    0.000   19.333 
#
# Total GULP energy -446107.700054 kJ/mol
# GULP energy per Si atom -12391.880557 kJ/mol
# Density = 1.510717 g / cm^3
# Si number density = 15.141631 Si / 1000 Ang^3
#
#
#
# Elastic Constant Matrix: (Units=GPa)
#
#
# Indices 1 2 3 4 5 6 
#
# 1 131.3494 46.2929 51.0319 0.0000 0.0000 0.0000
# 2 46.2929 39.7263 26.5452 0.0000 0.0000 0.0000
# 3 51.0319 26.5452 67.3485 0.0000 0.0000 0.0000
# 4 0.0000 0.0000 0.0000 3.3163 0.0000 0.0000
# 5 0.0000 0.0000 0.0000 0.0000 23.8632 0.0000
# 6 0.0000 0.0000 0.0000 0.0000 0.0000 19.6789
#
#
#
# Elastic Compliance Matrix: (Units=1/GPa)
#
#
# Indices 1 2 3 4 5 6 
#
# 1 0.014438 -0.012916 -0.005849 0.000000 0.000000 0.000000
# 2 -0.012916 0.045727 -0.008236 0.000000 0.000000 0.000000
# 3 -0.005849 -0.008236 0.022527 0.000000 0.000000 0.000000
# 4 0.000000 0.000000 0.000000 0.301541 0.000000 0.000000
# 5 0.000000 0.000000 0.000000 0.000000 0.041906 0.000000
# 6 0.000000 0.000000 0.000000 0.000000 0.000000 0.050816
#
#
# Mechanical properties :
#
#
# Convention : Reuss Voigt Hill
#
# Bulk Modulus (GPa) = 34.85744 54.01825 44.43784
# Shear Modulus (GPa) = 9.25035 17.00861 13.12948
#
# Velocity S-wave (km/s) = 2.47436 3.35520 2.94787
# Velocity P-wave (km/s) = 5.58876 7.12479 6.40300
#
# Compressibility (1/GPa) = 0.02868828
#
# Stress axis : x y z
#
# Youngs Moduli (GPa) = 69.26179 21.86904 44.39200
#
# Poissons Ratio (x) = 0.28246 0.25966
# Poissons Ratio (y) = 0.89459 0.36562
# Poissons Ratio (z) = 0.40513 0.18012
#
# Static dielectric constant tensor:
#      x y z
#    x 3.591460 0.000000 0.000000 
#    y 0.000000 2.597630 0.000000 
#    z 0.000000 0.000000 2.892490 
# 
# 
# High freq. dielectric constant tensor:
#      x y z
#    x 1.589900 0.000000 0.000000 
#    y 0.000000 1.514520 0.000000 
#    z 0.000000 0.000000 1.587600 
# 
# From -- ./inp_files/11440.got.cif
#   From: 2010.03.12/outbox.cif.g09.slc.cpg/sg65_6_cif.got.tgz:11440.got - 2010.04.10 20:52:16.
