data_PCOD8265602
_publ_section_title
;
Structure prediction by ZEFSAII (Michael W. Deem and Ramdas Pophale) SiO2 
 PCOD8265602
Probable space group: C M M M
;
_chemical_formula_sum "Si O2"
_cell_formula_units_Z 96
_cell_length_a 18.421363
_cell_length_b 25.587041
_cell_length_c 13.743588
_cell_angle_alpha 90.000000
_cell_angle_beta 90.000000
_cell_angle_gamma 90.000000
_cell_volume 6478.015058
_symmetry_space_group_name_H-M "C M M M"
_symmetry_group_IT_number 65
_symmetry_cell_setting 'orthorhombic'
loop_
_space_group_symop_operation_xyz
x,y,z
-x,-y,z
x,-y,-z
-x,y,-z
-x,-y,-z
x,y,-z
-x,y,z
x,-y,z
1/2+x,1/2+y,z
1/2-x,1/2-y,z
1/2+x,1/2-y,-z
1/2-x,1/2+y,-z
1/2-x,1/2-y,-z
1/2+x,1/2+y,-z
1/2-x,1/2+y,z
1/2+x,1/2-y,z
loop_
_atom_site_type_symbol
_atom_site_label
_atom_site_fract_x
_atom_site_fract_y
_atom_site_fract_z
Si Si1 0.918794 0.349651 0.615267
Si Si2 0.661126 0.439480 0.296702
Si Si3 0.168173 0.249387 0.383819
Si Si4 0.581309 0.438159 0.893064
Si Si5 0.420005 0.651392 0.386689
Si Si6 0.813548 0.440606 0.387926
O O1 0.923689 0.345887 0.500000
O O2 0.874723 0.299959 0.656167
O O3 0.878195 0.402872 0.646214
O O4 0.000000 0.350213 0.659882
O O5 0.640349 0.500000 0.314082
O O6 0.640085 0.420320 0.187606
O O7 0.614707 0.405327 0.371249
O O8 0.745834 0.430073 0.316962
O O9 0.169381 0.249592 0.500000
O O10 0.250000 0.250000 0.342859
O O11 0.129464 0.197501 0.341714
O O12 0.500000 0.418259 0.865644
O O13 0.580244 0.500000 0.897701
O O14 0.603703 0.416166 0.000000
O O15 0.426927 0.661672 0.500000
O O16 0.500000 0.653714 0.338827
O O17 0.790376 0.429025 0.500000
O O18 0.841308 0.500000 0.377474
#
# Coordination Sequence:
#
# PCOD8265602 Si02
#       6
#    16  16  16  16  16  16
#     4   9  16  26  40  55  73 102 138 170 199 230
#     4  10  18  27  39  54  76 106 134 157 188 231
#     4   9  16  26  39  52  69  97 132 167 199 226
#     4   8  14  25  40  56  73  95 126 163 199 232
#     4  10  19  27  35  51  76 103 131 161 187 216
#     4   9  17  27  38  55  80 107 133 161 192 228
#
# _framework density 14.819354000000001
#
# number of rings (size 3 to 8) (size 9 to 14) (size 15 to 20)
#    0.000    2.833    0.000    3.000    0.000    7.000 
#    0.000    2.500    0.000    0.000    0.000    0.000 
#    0.000    6.667    0.000    8.167    0.000    0.833 
#
# Total GULP energy -594925.948586 kJ/mol
# GULP energy per Si atom -12394.290596 kJ/mol
# Density = 1.478562 g / cm^3
# Si number density = 14.819354 Si / 1000 Ang^3
#
#
#
# Elastic Constant Matrix: (Units=GPa)
#
#
# Indices 1 2 3 4 5 6 
#
# 1 132.6328 67.5549 24.9911 0.0000 0.0000 0.0000
# 2 67.5549 94.5003 16.1463 0.0000 0.0000 0.0000
# 3 24.9911 16.1463 31.2042 0.0000 0.0000 0.0000
# 4 0.0000 0.0000 0.0000 4.1592 0.0000 0.0000
# 5 0.0000 0.0000 0.0000 0.0000 11.5377 0.0000
# 6 0.0000 0.0000 0.0000 0.0000 0.0000 26.5071
#
#
#
# Elastic Compliance Matrix: (Units=1/GPa)
#
#
# Indices 1 2 3 4 5 6 
#
# 1 0.012824 -0.008131 -0.006063 0.000000 0.000000 0.000000
# 2 -0.008131 0.016764 -0.002162 0.000000 0.000000 0.000000
# 3 -0.006063 -0.002162 0.038021 0.000000 0.000000 0.000000
# 4 0.000000 0.000000 0.000000 0.240429 0.000000 0.000000
# 5 0.000000 0.000000 0.000000 0.000000 0.086672 0.000000
# 6 0.000000 0.000000 0.000000 0.000000 0.000000 0.037726
#
#
# Mechanical properties :
#
#
# Convention : Reuss Voigt Hill
#
# Bulk Modulus (GPa) = 28.65607 52.85797 40.75702
# Shear Modulus (GPa) = 10.48701 18.41714 14.45208
#
# Velocity S-wave (km/s) = 2.66307 3.52913 3.12623
# Velocity P-wave (km/s) = 5.36980 7.23547 6.37129
#
# Compressibility (1/GPa) = 0.03489662
#
# Stress axis : x y z
#
# Youngs Moduli (GPa) = 77.98174 59.65118 26.30094
#
# Poissons Ratio (x) = 0.48504 0.15946
# Poissons Ratio (y) = 0.63408 0.05687
# Poissons Ratio (z) = 0.47279 0.12898
#
# Static dielectric constant tensor:
#      x y z
#    x 3.059980 0.000000 0.000000 
#    y 0.000000 2.882420 0.000000 
#    z 0.000000 0.000000 2.615440 
# 
# 
# High freq. dielectric constant tensor:
#      x y z
#    x 1.572540 0.000000 0.000000 
#    y 0.000000 1.565660 0.000000 
#    z 0.000000 0.000000 1.500510 
# 
# From -- ./inp_files/41263.got.cif
#   From: 2010.03.12/outbox.cif.g09.slc.cpg/sg65_21_cif.got.tgz:41263.got - 2010.04.10 20:52:16.
