data_PCOD8265537
_publ_section_title
;
Structure prediction by ZEFSAII (Michael W. Deem and Ramdas Pophale) SiO2 
 PCOD8265537
Probable space group: C M M M
;
_chemical_formula_sum "Si O2"
_cell_formula_units_Z 80
_cell_length_a 28.198502
_cell_length_b 22.025870
_cell_length_c 7.660809
_cell_angle_alpha 90.000000
_cell_angle_beta 90.000000
_cell_angle_gamma 90.000000
_cell_volume 4758.101958
_symmetry_space_group_name_H-M "C M M M"
_symmetry_group_IT_number 65
_symmetry_cell_setting 'orthorhombic'
loop_
_space_group_symop_operation_xyz
x,y,z
-x,-y,z
x,-y,-z
-x,y,-z
-x,-y,-z
x,y,-z
-x,y,z
x,-y,z
1/2+x,1/2+y,z
1/2-x,1/2-y,z
1/2+x,1/2-y,-z
1/2-x,1/2+y,-z
1/2-x,1/2-y,-z
1/2+x,1/2+y,-z
1/2-x,1/2+y,z
1/2+x,1/2-y,z
loop_
_atom_site_type_symbol
_atom_site_label
_atom_site_fract_x
_atom_site_fract_y
_atom_site_fract_z
Si Si1 0.265667 0.151189 0.500000
Si Si2 0.000000 0.245835 0.807618
Si Si3 0.802025 0.569103 0.797466
Si Si4 0.597498 0.891287 0.199051
Si Si5 0.326546 0.728875 0.500000
Si Si6 0.897291 0.751478 0.204514
Si Si7 0.000000 0.625078 0.309483
O O1 0.269781 0.111183 0.675362
O O2 0.304715 0.203951 0.500000
O O3 0.213210 0.177888 0.500000
O O4 0.050519 0.225610 0.724491
O O5 0.000000 0.319365 0.826806
O O6 0.000000 0.218545 0.000000
O O7 0.784683 0.500000 0.778543
O O8 0.856393 0.573720 0.728844
O O9 0.798021 0.591046 0.000000
O O10 0.605799 0.820303 0.232405
O O11 0.548399 0.914066 0.288374
O O12 0.591606 0.908389 0.000000
O O13 0.357606 0.717979 0.674633
O O14 0.889145 0.768153 0.000000
O O15 0.000000 0.655204 0.500000
#
# Coordination Sequence:
#
# PCOD8265537 Si02
#       7
#     8   8  16  16   8  16   8
#     4  11  23  36  48  72  97 123 159 212 247 294
#     4   8  16  26  40  63  91 126 162 190 227 273
#     4  10  21  37  56  71  87 122 166 207 253 292
#     4   9  17  30  45  63  89 120 159 202 243 284
#     4  11  22  31  50  72  97 130 162 190 255 295
#     4   9  17  30  46  68  98 129 161 198 231 280
#     4  10  18  22  39  65  90 121 151 195 246 287
#
# _framework density 16.813427000000001
#
# number of rings (size 3 to 8) (size 9 to 14) (size 15 to 20)
#    0.000    2.400    2.000    2.400    7.000    0.800 
#    0.000    2.500    0.000    3.000    0.000    0.000 
#    0.000    0.000    0.000    7.200    0.000   41.600 
#
# Total GULP energy -495525.933362 kJ/mol
# GULP energy per Si atom -12388.148334 kJ/mol
# Density = 1.677516 g / cm^3
# Si number density = 16.813427 Si / 1000 Ang^3
#
#
#
# Elastic Constant Matrix: (Units=GPa)
#
#
# Indices 1 2 3 4 5 6 
#
# 1 124.5154 41.0984 60.4724 0.0000 0.0000 0.0000
# 2 41.0984 45.7525 33.2862 0.0000 0.0000 0.0000
# 3 60.4724 33.2862 92.1928 0.0000 0.0000 0.0000
# 4 0.0000 0.0000 0.0000 15.8558 0.0000 0.0000
# 5 0.0000 0.0000 0.0000 0.0000 30.1316 0.0000
# 6 0.0000 0.0000 0.0000 0.0000 0.0000 17.1132
#
#
#
# Elastic Compliance Matrix: (Units=1/GPa)
#
#
# Indices 1 2 3 4 5 6 
#
# 1 0.013541 -0.007733 -0.006090 0.000000 0.000000 0.000000
# 2 -0.007733 0.034059 -0.007225 0.000000 0.000000 0.000000
# 3 -0.006090 -0.007225 0.017450 0.000000 0.000000 0.000000
# 4 0.000000 0.000000 0.000000 0.063068 0.000000 0.000000
# 5 0.000000 0.000000 0.000000 0.000000 0.033188 0.000000
# 6 0.000000 0.000000 0.000000 0.000000 0.000000 0.058434
#
#
# Mechanical properties :
#
#
# Convention : Reuss Voigt Hill
#
# Bulk Modulus (GPa) = 43.56398 59.13053 51.34725
# Shear Modulus (GPa) = 18.55363 21.12703 19.84033
#
# Velocity S-wave (km/s) = 3.32550 3.54864 3.43888
# Velocity P-wave (km/s) = 6.38058 7.21356 6.80982
#
# Compressibility (1/GPa) = 0.02295474
#
# Stress axis : x y z
#
# Youngs Moduli (GPa) = 73.84791 29.36052 57.30626
#
# Poissons Ratio (x) = 0.22705 0.34901
# Poissons Ratio (y) = 0.57107 0.41402
# Poissons Ratio (z) = 0.44975 0.21212
#
# Static dielectric constant tensor:
#      x y z
#    x 3.316390 0.000000 0.000000 
#    y 0.000000 2.570630 0.000000 
#    z 0.000000 0.000000 3.209100 
# 
# 
# High freq. dielectric constant tensor:
#      x y z
#    x 1.650130 0.000000 0.000000 
#    y 0.000000 1.570640 0.000000 
#    z 0.000000 0.000000 1.657760 
# 
# From -- ./inp_files/13883.got.cif
#   From: 2010.03.12/outbox.cif.g09.slc.cpg/sg65_7_cif.got.tgz:13883.got - 2010.04.10 20:52:16.
