data_PCOD8265814
_publ_section_title
;
Structure prediction by ZEFSAII (Michael W. Deem and Ramdas Pophale) SiO2 
 PCOD8265814
Probable space group: C M M M
;
_chemical_formula_sum "Si O2"
_cell_formula_units_Z 72
_cell_length_a 9.822672
_cell_length_b 24.827303
_cell_length_c 18.138072
_cell_angle_alpha 90.000000
_cell_angle_beta 90.000000
_cell_angle_gamma 90.000000
_cell_volume 4423.339854
_symmetry_space_group_name_H-M "C M M M"
_symmetry_group_IT_number 65
_symmetry_cell_setting 'orthorhombic'
loop_
_space_group_symop_operation_xyz
x,y,z
-x,-y,z
x,-y,-z
-x,y,-z
-x,-y,-z
x,y,-z
-x,y,z
x,-y,z
1/2+x,1/2+y,z
1/2-x,1/2-y,z
1/2+x,1/2-y,-z
1/2-x,1/2+y,-z
1/2-x,1/2-y,-z
1/2+x,1/2+y,-z
1/2-x,1/2+y,z
1/2+x,1/2-y,z
loop_
_atom_site_type_symbol
_atom_site_label
_atom_site_fract_x
_atom_site_fract_y
_atom_site_fract_z
Si Si1 0.000000 0.936086 0.580581
Si Si2 0.845313 0.202456 0.084410
Si Si3 0.745122 0.436127 0.677486
Si Si4 0.660921 0.590309 0.162760
Si Si5 0.000000 0.436015 0.415842
Si Si6 0.340552 0.000000 0.087429
O O1 0.128693 0.915425 0.624159
O O2 0.000000 0.909600 0.500000
O O3 0.000000 0.000000 0.574007
O O4 0.750000 0.250000 0.114972
O O5 0.820398 0.149708 0.132059
O O6 0.000000 0.222487 0.091442
O O7 0.808382 0.188569 0.000000
O O8 0.745203 0.500000 0.691139
O O9 0.722964 0.408065 0.755586
O O10 0.875885 0.415572 0.633594
O O11 0.500000 0.572600 0.161650
O O12 0.756225 0.551519 0.114758
O O13 0.000000 0.500000 0.422809
O O14 0.000000 0.412426 0.500000
O O15 0.500000 0.000000 0.115632
O O16 0.340479 0.000000 0.000000
#
# Coordination Sequence:
#
# PCOD8265814 Si02
#       6
#     8  16  16  16   8   8
#     4   9  16  26  42  64  95 132 169 201 234 286
#     4   9  19  36  56  76  98 129 171 218 265 308
#     4  10  18  28  45  69 100 135 169 204 247 294
#     4  11  21  34  54  76 105 139 173 211 258 313
#     4   9  18  30  44  64  97 140 177 205 242 296
#     4  11  25  37  49  73 104 141 178 209 246 303
#
# _framework density 16.277294000000001
#
# number of rings (size 3 to 8) (size 9 to 14) (size 15 to 20)
#    0.000    2.111    2.222    1.667    1.556    5.333 
#    0.000    2.222    0.000    0.000    0.000    0.000 
#    0.000    5.333    0.000    0.000    0.000    0.000 
#
# Total GULP energy -446176.609341 kJ/mol
# GULP energy per Si atom -12393.794704 kJ/mol
# Density = 1.624025 g / cm^3
# Si number density = 16.277294 Si / 1000 Ang^3
#
#
#
# Elastic Constant Matrix: (Units=GPa)
#
#
# Indices 1 2 3 4 5 6 
#
# 1 148.3980 49.1720 69.4904 0.0000 0.0000 0.0000
# 2 49.1720 65.4366 42.7540 0.0000 0.0000 0.0000
# 3 69.4904 42.7540 130.0427 0.0000 0.0000 0.0000
# 4 0.0000 0.0000 0.0000 17.3991 0.0000 0.0000
# 5 0.0000 0.0000 0.0000 0.0000 -29.8807 0.0000
# 6 0.0000 0.0000 0.0000 0.0000 0.0000 23.0406
#
#
#
# Elastic Compliance Matrix: (Units=1/GPa)
#
#
# Indices 1 2 3 4 5 6 
#
# 1 0.010227 -0.005240 -0.003742 0.000000 0.000000 0.000000
# 2 -0.005240 0.022148 -0.004481 0.000000 0.000000 0.000000
# 3 -0.003742 -0.004481 0.011163 0.000000 0.000000 0.000000
# 4 0.000000 0.000000 0.000000 0.057474 0.000000 0.000000
# 5 0.000000 0.000000 0.000000 0.000000 -0.033466 0.000000
# 6 0.000000 0.000000 0.000000 0.000000 0.000000 0.043402
#
#
# Mechanical properties :
#
#
# Convention : Reuss Voigt Hill
#
# Bulk Modulus (GPa) = 60.20388 74.07888 67.14138
# Shear Modulus (GPa) = 34.86467 14.27587 24.57027
#
# Velocity S-wave (km/s) = 4.63311 2.96470 3.88942
# Velocity P-wave (km/s) = 8.10479 7.57157 7.84271
#
# Compressibility (1/GPa) = 0.01661023
#
# Stress axis : x y z
#
# Youngs Moduli (GPa) = 97.77629 45.15170 89.58275
#
# Poissons Ratio (x) = 0.23660 0.33525
# Poissons Ratio (y) = 0.51237 0.40144
# Poissons Ratio (z) = 0.36592 0.20234
#
# Static dielectric constant tensor:
#      x y z
#    x 3.423760 0.000000 0.000000 
#    y 0.000000 2.650750 0.000000 
#    z 0.000000 0.000000 3.246530 
# 
# 
# High freq. dielectric constant tensor:
#      x y z
#    x 1.646090 0.000000 0.000000 
#    y 0.000000 1.569540 0.000000 
#    z 0.000000 0.000000 1.639900 
# 
# From -- ./inp_files/49777.got.cif
#   From: 2010.03.12/outbox.cif.g09.slc.cpg/sg65_25_cif.got.tgz:49777.got - 2010.04.10 20:52:16.
