data_PCOD8265996
_publ_section_title
;
Structure prediction by ZEFSAII (Michael W. Deem and Ramdas Pophale) SiO2 
 PCOD8265996
Probable space group: C M M M
;
_chemical_formula_sum "Si O2"
_cell_formula_units_Z 88
_cell_length_a 25.705886
_cell_length_b 9.216282
_cell_length_c 25.159815
_cell_angle_alpha 90.000000
_cell_angle_beta 90.000000
_cell_angle_gamma 90.000000
_cell_volume 5960.679563
_symmetry_space_group_name_H-M "C M M M"
_symmetry_group_IT_number 65
_symmetry_cell_setting 'orthorhombic'
loop_
_space_group_symop_operation_xyz
x,y,z
-x,-y,z
x,-y,-z
-x,y,-z
-x,-y,-z
x,y,-z
-x,y,z
x,-y,z
1/2+x,1/2+y,z
1/2-x,1/2-y,z
1/2+x,1/2-y,-z
1/2-x,1/2+y,-z
1/2-x,1/2-y,-z
1/2+x,1/2+y,-z
1/2-x,1/2+y,z
1/2+x,1/2-y,z
loop_
_atom_site_type_symbol
_atom_site_label
_atom_site_fract_x
_atom_site_fract_y
_atom_site_fract_z
Si Si1 0.941770 0.327620 0.943732
Si Si2 0.437955 0.836851 0.169840
Si Si3 0.597967 0.828314 0.626475
Si Si4 0.698478 0.169599 0.439308
Si Si5 0.060645 0.170102 0.272918
Si Si6 0.000000 0.672240 0.440785
O O1 0.944261 0.500000 0.941136
O O2 0.915354 0.278457 0.887582
O O3 0.000000 0.264243 0.946024
O O4 0.913599 0.279717 0.000000
O O5 0.500000 0.837845 0.165602
O O6 0.419338 0.729481 0.216216
O O7 0.417986 0.000000 0.182442
O O8 0.651072 0.781906 0.597865
O O9 0.595068 0.747891 0.682562
O O10 0.550935 0.772354 0.589699
O O11 0.594471 0.000000 0.635952
O O12 0.685098 0.213052 0.500000
O O13 0.750000 0.250000 0.419057
O O14 0.708837 0.000000 0.434605
O O15 0.000000 0.208652 0.281710
O O16 0.070800 0.000000 0.274972
O O17 0.000000 0.500000 0.444252
O O18 0.000000 0.738928 0.500000
#
# Coordination Sequence:
#
# PCOD8265996 Si02
#       6
#    16  16  16  16  16   8
#     4   7   9  14  26  45  65  84 114 160 204 233
#     4   8  13  21  34  49  66  93 129 164 197 235
#     4  10  18  29  46  64  81 104 135 166 196 237
#     4   9  18  32  49  68  86 104 129 161 198 242
#     4  10  19  28  37  52  78 107 134 165 202 242
#     4   9  16  26  43  65  83  99 124 163 202 231
#
# _framework density 14.763417
#
# number of rings (size 3 to 8) (size 9 to 14) (size 15 to 20)
#    0.000    3.182    0.909    2.727    0.000    3.636 
#    0.000    0.000    0.000    2.727    0.000    3.818 
#    0.000    0.000    0.000    0.000    0.000    0.909 
#
# Total GULP energy -545098.766497 kJ/mol
# GULP energy per Si atom -12388.608329 kJ/mol
# Density = 1.472981 g / cm^3
# Si number density = 14.763417 Si / 1000 Ang^3
#
#
#
# Elastic Constant Matrix: (Units=GPa)
#
#
# Indices 1 2 3 4 5 6 
#
# 1 66.3432 26.2503 50.8995 0.0000 0.0000 0.0000
# 2 26.2503 38.9594 43.8104 0.0000 0.0000 0.0000
# 3 50.8995 43.8104 157.5115 0.0000 0.0000 0.0000
# 4 0.0000 0.0000 0.0000 10.0113 0.0000 0.0000
# 5 0.0000 0.0000 0.0000 0.0000 9.2032 0.0000
# 6 0.0000 0.0000 0.0000 0.0000 0.0000 14.9977
#
#
#
# Elastic Compliance Matrix: (Units=1/GPa)
#
#
# Indices 1 2 3 4 5 6 
#
# 1 0.022506 -0.010165 -0.004445 0.000000 0.000000 0.000000
# 2 -0.010165 0.041941 -0.008381 0.000000 0.000000 0.000000
# 3 -0.004445 -0.008381 0.010116 0.000000 0.000000 0.000000
# 4 0.000000 0.000000 0.000000 0.099887 0.000000 0.000000
# 5 0.000000 0.000000 0.000000 0.000000 0.108657 0.000000
# 6 0.000000 0.000000 0.000000 0.000000 0.000000 0.066677
#
#
# Mechanical properties :
#
#
# Convention : Reuss Voigt Hill
#
# Bulk Modulus (GPa) = 34.98870 56.08162 45.53516
# Shear Modulus (GPa) = 12.33673 16.29938 14.31806
#
# Velocity S-wave (km/s) = 2.89386 3.32631 3.11759
# Velocity P-wave (km/s) = 5.90906 7.26786 6.62340
#
# Compressibility (1/GPa) = 0.02858066
#
# Stress axis : x y z
#
# Youngs Moduli (GPa) = 44.43295 23.84295 98.85098
#
# Poissons Ratio (x) = 0.24237 0.43943
# Poissons Ratio (y) = 0.45167 0.82843
# Poissons Ratio (z) = 0.19752 0.19982
#
# Static dielectric constant tensor:
#      x y z
#    x 2.434830 0.000000 0.000000 
#    y 0.000000 2.612230 0.000000 
#    z 0.000000 0.000000 3.347250 
# 
# 
# High freq. dielectric constant tensor:
#      x y z
#    x 1.498080 0.000000 0.000000 
#    y 0.000000 1.540770 0.000000 
#    z 0.000000 0.000000 1.585670 
# 
# From -- ./inp_files/75390.got.cif
#   From: 2010.03.12/outbox.cif.g09.slc.cpg/sg65_38_cif.got.tgz:75390.got - 2010.04.10 20:52:16.
