data_PCOD8265027
_publ_section_title
;
Structure prediction by ZEFSAII (Michael W. Deem and Ramdas Pophale) SiO2 
 PCOD8265027
Probable space group: C M C A
;
_chemical_formula_sum "Si O2"
_cell_formula_units_Z 80
_cell_length_a 7.836598
_cell_length_b 31.088756
_cell_length_c 19.372831
_cell_angle_alpha 90.000000
_cell_angle_beta 90.000000
_cell_angle_gamma 90.000000
_cell_volume 4719.804426
_symmetry_space_group_name_H-M "C M C A"
_symmetry_group_IT_number 64
_symmetry_cell_setting 'orthorhombic'
loop_
_space_group_symop_operation_xyz
x,y,z
-x,1/2-y,1/2+z
x,-y,-z
-x,1/2+y,1/2-z
-x,-y,-z
x,1/2+y,1/2-z
-x,y,z
x,1/2-y,1/2+z
1/2+x,1/2+y,z
1/2-x,-y,1/2+z
1/2+x,1/2-y,-z
1/2-x,y,1/2-z
1/2-x,1/2-y,-z
1/2+x,y,1/2-z
1/2-x,1/2+y,z
1/2+x,-y,1/2+z
loop_
_atom_site_type_symbol
_atom_site_label
_atom_site_fract_x
_atom_site_fract_y
_atom_site_fract_z
Si Si1 0.500000 0.563265 0.052826
Si Si2 0.690287 0.116742 0.023006
Si Si3 0.800328 0.825963 0.323881
Si Si4 0.000000 0.970914 0.102749
Si Si5 0.299932 0.705608 0.534020
Si Si6 0.809943 0.582658 0.869225
O O1 0.329607 0.591217 0.068730
O O2 0.500000 0.522489 0.103480
O O3 0.500000 0.548141 0.973948
O O4 0.500000 0.115016 0.057412
O O5 0.758160 0.165842 0.014342
O O6 0.677498 0.095016 0.948834
O O7 0.750000 0.805613 0.250000
O O8 0.719497 0.799140 0.388401
O O9 0.741518 0.875753 0.327306
O O10 0.000000 0.824644 0.332850
O O11 0.828717 0.955065 0.142147
O O12 0.500000 0.702544 0.541363
O O13 0.250000 0.750000 0.500000
O O14 0.000000 0.567791 0.844424
#
# Coordination Sequence:
#
# PCOD8265027 Si02
#       6
#     8  16  16   8  16  16
#     4   9  16  24  38  60  81 110 148 178 212 264
#     4   8  15  27  39  55  84 116 146 179 223 270
#     4   9  18  30  44  65  91 123 157 191 234 284
#     4   9  16  24  38  60  81 110 148 174 210 265
#     4   9  18  30  44  65  91 123 160 196 239 291
#     4   8  15  27  39  55  84 116 144 177 215 266
#
# _framework density 16.949854999999999
#
# number of rings (size 3 to 8) (size 9 to 14) (size 15 to 20)
#    0.000    3.400    0.000    2.400    2.800    1.600 
#    0.000    4.000    0.000    0.000    0.000    0.000 
#    0.000    1.600    2.400    0.000    0.400    0.000 
#
# Total GULP energy -495527.877968 kJ/mol
# GULP energy per Si atom -12388.196949 kJ/mol
# Density = 1.691128 g / cm^3
# Si number density = 16.949855 Si / 1000 Ang^3
#
#
#
# Elastic Constant Matrix: (Units=GPa)
#
#
# Indices 1 2 3 4 5 6 
#
# 1 82.1833 55.0990 21.2444 0.0000 0.0000 0.0000
# 2 55.0990 125.5984 42.3894 0.0000 0.0000 0.0000
# 3 21.2444 42.3894 51.8576 0.0000 0.0000 0.0000
# 4 0.0000 0.0000 0.0000 13.4705 0.0000 0.0000
# 5 0.0000 0.0000 0.0000 0.0000 13.3208 0.0000
# 6 0.0000 0.0000 0.0000 0.0000 0.0000 27.9304
#
#
#
# Elastic Compliance Matrix: (Units=1/GPa)
#
#
# Indices 1 2 3 4 5 6 
#
# 1 0.017294 -0.007175 -0.001220 0.000000 0.000000 0.000000
# 2 -0.007175 0.013972 -0.008482 0.000000 0.000000 0.000000
# 3 -0.001220 -0.008482 0.026716 0.000000 0.000000 0.000000
# 4 0.000000 0.000000 0.000000 0.074236 0.000000 0.000000
# 5 0.000000 0.000000 0.000000 0.000000 0.075070 0.000000
# 6 0.000000 0.000000 0.000000 0.000000 0.000000 0.035803
#
#
# Mechanical properties :
#
#
# Convention : Reuss Voigt Hill
#
# Bulk Modulus (GPa) = 41.27231 55.23388 48.25309
# Shear Modulus (GPa) = 17.54873 20.33811 18.94342
#
# Velocity S-wave (km/s) = 3.22115 3.46771 3.34670
# Velocity P-wave (km/s) = 6.18360 6.97788 6.59271
#
# Compressibility (1/GPa) = 0.02422932
#
# Stress axis : x y z
#
# Youngs Moduli (GPa) = 57.82504 71.57181 37.43034
#
# Poissons Ratio (x) = 0.51352 0.04566
# Poissons Ratio (y) = 0.41489 0.31747
# Poissons Ratio (z) = 0.07053 0.60705
#
# Static dielectric constant tensor:
#      x y z
#    x 3.475370 0.000000 0.000000 
#    y 0.000000 3.002790 0.000000 
#    z 0.000000 0.000000 2.765330 
# 
# 
# High freq. dielectric constant tensor:
#      x y z
#    x 1.664370 0.000000 0.000000 
#    y 0.000000 1.631450 0.000000 
#    z 0.000000 0.000000 1.593110 
# 
# From -- ./inp_files/30010.got.cif
#   From: 2010.03.12/outbox.cif.g09.slc.cpg/sg64_16_cif.got.tgz:30010.got - 2010.04.10 20:19:32.
