data_PCOD8265361
_publ_section_title
;
Structure prediction by ZEFSAII (Michael W. Deem and Ramdas Pophale) SiO2 
 PCOD8265361
Probable space group: C M M M
;
_chemical_formula_sum "Si O2"
_cell_formula_units_Z 80
_cell_length_a 14.033801
_cell_length_b 23.206419
_cell_length_c 13.909032
_cell_angle_alpha 90.000000
_cell_angle_beta 90.000000
_cell_angle_gamma 90.000000
_cell_volume 4529.813790
_symmetry_space_group_name_H-M "C M M M"
_symmetry_group_IT_number 65
_symmetry_cell_setting 'orthorhombic'
loop_
_space_group_symop_operation_xyz
x,y,z
-x,-y,z
x,-y,-z
-x,y,-z
-x,-y,-z
x,y,-z
-x,y,z
x,-y,z
1/2+x,1/2+y,z
1/2-x,1/2-y,z
1/2+x,1/2-y,-z
1/2-x,1/2+y,-z
1/2-x,1/2-y,-z
1/2+x,1/2+y,-z
1/2-x,1/2+y,z
1/2+x,1/2-y,z
loop_
_atom_site_type_symbol
_atom_site_label
_atom_site_fract_x
_atom_site_fract_y
_atom_site_fract_z
Si Si1 0.861362 0.256986 0.394613
Si Si2 0.106102 0.221459 0.807512
Si Si3 0.712748 0.169691 0.888309
Si Si4 0.887892 0.434486 0.801563
Si Si5 0.891861 0.610322 0.603625
O O1 0.902418 0.238690 0.500000
O O2 0.750000 0.250000 0.394649
O O3 0.902957 0.217990 0.308799
O O4 0.888167 0.322479 0.372315
O O5 0.179499 0.173342 0.846417
O O6 0.144711 0.284490 0.836021
O O7 0.000000 0.211114 0.850615
O O8 0.670863 0.105969 0.873642
O O9 0.716025 0.184786 0.000000
O O10 0.869074 0.500000 0.832889
O O11 0.847324 0.424673 0.693018
O O12 0.000000 0.419079 0.807469
O O13 0.840487 0.597414 0.500000
O O14 0.000000 0.590036 0.593818
#
# Coordination Sequence:
#
# PCOD8265361 Si02
#       5
#    16  16  16  16  16
#     4  10  17  27  47  75 108 140 168 199 243 301
#     4  11  20  34  55  77 104 136 170 208 257 310
#     4  11  23  37  51  73 102 132 174 222 265 305
#     4  10  20  34  53  76 102 134 171 212 261 314
#     4   9  16  27  44  68 100 134 164 196 240 298
#
# _framework density 17.660771
#
# number of rings (size 3 to 8) (size 9 to 14) (size 15 to 20)
#    0.000    1.800    4.000    2.400    0.000    4.800 
#    0.000    3.000    0.000    0.600    0.000    1.400 
#    0.000    0.000    0.000   11.200    0.000    0.200 
#
# Total GULP energy -495690.155147 kJ/mol
# GULP energy per Si atom -12392.253879 kJ/mol
# Density = 1.762057 g / cm^3
# Si number density = 17.660771 Si / 1000 Ang^3
#
#
#
# Elastic Constant Matrix: (Units=GPa)
#
#
# Indices 1 2 3 4 5 6 
#
# 1 104.4407 30.2216 27.0631 0.0000 0.0000 0.0000
# 2 30.2216 61.1477 27.3076 0.0000 0.0000 0.0000
# 3 27.0631 27.3076 109.3712 0.0000 0.0000 0.0000
# 4 0.0000 0.0000 0.0000 14.5304 0.0000 0.0000
# 5 0.0000 0.0000 0.0000 0.0000 9.7441 0.0000
# 6 0.0000 0.0000 0.0000 0.0000 0.0000 25.6038
#
#
#
# Elastic Compliance Matrix: (Units=1/GPa)
#
#
# Indices 1 2 3 4 5 6 
#
# 1 0.011414 -0.004930 -0.001594 0.000000 0.000000 0.000000
# 2 -0.004930 0.020535 -0.003907 0.000000 0.000000 0.000000
# 3 -0.001594 -0.003907 0.010513 0.000000 0.000000 0.000000
# 4 0.000000 0.000000 0.000000 0.068821 0.000000 0.000000
# 5 0.000000 0.000000 0.000000 0.000000 0.102626 0.000000
# 6 0.000000 0.000000 0.000000 0.000000 0.000000 0.039057
#
#
# Mechanical properties :
#
#
# Convention : Reuss Voigt Hill
#
# Bulk Modulus (GPa) = 46.29345 49.34935 47.82140
# Shear Modulus (GPa) = 17.79180 22.66681 20.22931
#
# Velocity S-wave (km/s) = 3.17743 3.58642 3.38810
# Velocity P-wave (km/s) = 6.30325 6.71963 6.51477
#
# Compressibility (1/GPa) = 0.02160133
#
# Stress axis : x y z
#
# Youngs Moduli (GPa) = 87.60999 48.69664 95.11962
#
# Poissons Ratio (x) = 0.24006 0.15158
# Poissons Ratio (y) = 0.43189 0.37167
# Poissons Ratio (z) = 0.13961 0.19028
#
# Static dielectric constant tensor:
#      x y z
#    x 3.206930 0.000000 0.000000 
#    y 0.000000 2.935140 0.000000 
#    z 0.000000 0.000000 3.728910 
# 
# 
# High freq. dielectric constant tensor:
#      x y z
#    x 1.658990 0.000000 0.000000 
#    y 0.000000 1.638000 0.000000 
#    z 0.000000 0.000000 1.705890 
# 
# From -- ./inp_files/40036.got.cif
#   From: 2010.03.12/outbox.cif.g09.slc.cpg/sg65_21_cif.got.tgz:40036.got - 2010.04.10 20:52:16.
