data_PCOD8265215
_publ_section_title
;
Structure prediction by ZEFSAII (Michael W. Deem and Ramdas Pophale) SiO2 
 PCOD8265215
Probable space group: C M M M
;
_chemical_formula_sum "Si O2"
_cell_formula_units_Z 120
_cell_length_a 20.795916
_cell_length_b 27.671128
_cell_length_c 15.581521
_cell_angle_alpha 90.000000
_cell_angle_beta 90.000000
_cell_angle_gamma 90.000000
_cell_volume 8966.331000
_symmetry_space_group_name_H-M "C M M M"
_symmetry_group_IT_number 65
_symmetry_cell_setting 'orthorhombic'
loop_
_space_group_symop_operation_xyz
x,y,z
-x,-y,z
x,-y,-z
-x,y,-z
-x,-y,-z
x,y,-z
-x,y,z
x,-y,z
1/2+x,1/2+y,z
1/2-x,1/2-y,z
1/2+x,1/2-y,-z
1/2-x,1/2+y,-z
1/2-x,1/2-y,-z
1/2+x,1/2+y,-z
1/2-x,1/2+y,z
1/2+x,1/2-y,z
loop_
_atom_site_type_symbol
_atom_site_label
_atom_site_fract_x
_atom_site_fract_y
_atom_site_fract_z
Si Si1 0.648483 0.730214 0.595454
Si Si2 0.229885 0.327464 0.095340
Si Si3 0.351707 0.730445 0.095153
Si Si4 0.574853 0.235114 0.249997
Si Si5 0.729817 0.172635 0.404752
Si Si6 0.930299 0.556930 0.000000
Si Si7 0.923398 0.555308 0.186089
Si Si8 0.843127 0.362259 0.250487
O O1 0.618325 0.724385 0.500000
O O2 0.592377 0.733230 0.665977
O O3 0.690040 0.778380 0.599715
O O4 0.695684 0.685085 0.615858
O O5 0.304643 0.314906 0.113850
O O6 0.189927 0.278549 0.099842
O O7 0.203634 0.363669 0.167677
O O8 0.222640 0.350698 0.000000
O O9 0.407436 0.733058 0.166321
O O10 0.382605 0.725267 0.000000
O O11 0.500000 0.223791 0.249807
O O12 0.611506 0.184365 0.249651
O O13 0.723935 0.149628 0.500000
O O14 0.701462 0.135563 0.335101
O O15 0.896901 0.570845 0.090412
O O16 0.940988 0.500000 0.000000
O O17 0.000000 0.582470 0.000000
O O18 0.905280 0.500000 0.207341
O O19 0.887493 0.590034 0.252852
O O20 0.000000 0.562482 0.191604
#
# Coordination Sequence:
#
# PCOD8265215 Si02
#       8
#    16  16  16  16  16   8  16  16
#     4   8  14  25  39  52  69  90 112 142 181 220
#     4   8  14  23  36  52  66  84 113 148 184 217
#     4   8  14  25  35  44  66  95 117 140 174 214
#     4  10  18  24  32  50  73  95 122 151 179 210
#     4   8  14  25  40  56  68  84 113 147 183 218
#     4   7  12  24  38  48  60  85 118 146 175 216
#     4   9  17  28  39  50  69  98 126 151 186 229
#     4  10  17  24  38  54  70  88 117 161 195 212
#
# _framework density 13.383400999999999
#
# number of rings (size 3 to 8) (size 9 to 14) (size 15 to 20)
#    0.000    3.400    0.000    3.600    0.933    3.733 
#    0.000    0.000    0.000    1.600    0.000    0.933 
#    0.000    0.000    0.000    0.000    0.000   10.667 
#
# Total GULP energy -743311.099829 kJ/mol
# GULP energy per Si atom -12388.518330 kJ/mol
# Density = 1.335294 g / cm^3
# Si number density = 13.383401 Si / 1000 Ang^3
#
#
#
# Elastic Constant Matrix: (Units=GPa)
#
#
# Indices 1 2 3 4 5 6 
#
# 1 41.9486 20.8787 38.3488 0.0000 0.0000 0.0000
# 2 20.8787 38.0883 32.8439 0.0000 0.0000 0.0000
# 3 38.3488 32.8439 102.2231 0.0000 0.0000 0.0000
# 4 0.0000 0.0000 0.0000 12.5324 0.0000 0.0000
# 5 0.0000 0.0000 0.0000 0.0000 14.5363 0.0000
# 6 0.0000 0.0000 0.0000 0.0000 0.0000 17.8203
#
#
#
# Elastic Compliance Matrix: (Units=1/GPa)
#
#
# Indices 1 2 3 4 5 6 
#
# 1 0.040156 -0.012480 -0.011055 0.000000 0.000000 0.000000
# 2 -0.012480 0.040195 -0.008233 0.000000 0.000000 0.000000
# 3 -0.011055 -0.008233 0.016575 0.000000 0.000000 0.000000
# 4 0.000000 0.000000 0.000000 0.079793 0.000000 0.000000
# 5 0.000000 0.000000 0.000000 0.000000 0.068793 0.000000
# 6 0.000000 0.000000 0.000000 0.000000 0.000000 0.056116
#
#
# Mechanical properties :
#
#
# Convention : Reuss Voigt Hill
#
# Bulk Modulus (GPa) = 29.94769 40.71142 35.32955
# Shear Modulus (GPa) = 13.28749 14.99036 14.13893
#
# Velocity S-wave (km/s) = 3.15434 3.35038 3.25384
# Velocity P-wave (km/s) = 5.97426 6.74182 6.36961
#
# Compressibility (1/GPa) = 0.03339156
#
# Stress axis : x y z
#
# Youngs Moduli (GPa) = 24.90267 24.87876 60.33220
#
# Poissons Ratio (x) = 0.31048 0.66697
# Poissons Ratio (y) = 0.31078 0.49670
# Poissons Ratio (z) = 0.27530 0.20482
#
# Static dielectric constant tensor:
#      x y z
#    x 2.520770 0.000000 0.000000 
#    y 0.000000 2.242640 0.000000 
#    z 0.000000 0.000000 3.050740 
# 
# 
# High freq. dielectric constant tensor:
#      x y z
#    x 1.485130 0.000000 0.000000 
#    y 0.000000 1.449490 0.000000 
#    z 0.000000 0.000000 1.523040 
# 
# From -- ./inp_files/44829.got.cif
#   From: 2010.03.12/outbox.cif.g09.slc.cpg/sg65_23_cif.got.tgz:44829.got - 2010.04.10 20:52:16.
