data_PCOD8265597
_publ_section_title
;
Structure prediction by ZEFSAII (Michael W. Deem and Ramdas Pophale) SiO2 
 PCOD8265597
Probable space group: C M M M
;
_chemical_formula_sum "Si O2"
_cell_formula_units_Z 112
_cell_length_a 17.023081
_cell_length_b 32.176677
_cell_length_c 13.590887
_cell_angle_alpha 90.000000
_cell_angle_beta 90.000000
_cell_angle_gamma 90.000000
_cell_volume 7444.356422
_symmetry_space_group_name_H-M "C M M M"
_symmetry_group_IT_number 65
_symmetry_cell_setting 'orthorhombic'
loop_
_space_group_symop_operation_xyz
x,y,z
-x,-y,z
x,-y,-z
-x,y,-z
-x,-y,-z
x,y,-z
-x,y,z
x,-y,z
1/2+x,1/2+y,z
1/2-x,1/2-y,z
1/2+x,1/2-y,-z
1/2-x,1/2+y,-z
1/2-x,1/2-y,-z
1/2+x,1/2+y,-z
1/2-x,1/2+y,z
1/2+x,1/2-y,z
loop_
_atom_site_type_symbol
_atom_site_label
_atom_site_fract_x
_atom_site_fract_y
_atom_site_fract_z
Si Si1 0.591450 0.329856 0.113441
Si Si2 0.851681 0.909416 0.204540
Si Si3 0.184708 0.579404 0.116790
Si Si4 0.411579 0.159180 0.882802
Si Si5 0.162891 0.256319 0.883614
Si Si6 0.500000 0.454099 0.115432
Si Si7 0.912202 0.500000 0.116748
Si Si8 0.591424 0.452327 0.612471
O O1 0.500000 0.339127 0.126689
O O2 0.641162 0.360088 0.184375
O O3 0.609186 0.282804 0.145874
O O4 0.617605 0.337126 0.000000
O O5 0.768870 0.925736 0.166484
O O6 0.921257 0.931170 0.145840
O O7 0.858639 0.920938 0.319765
O O8 0.142113 0.621227 0.153932
O O9 0.132648 0.540889 0.153623
O O10 0.195674 0.579475 0.000000
O O11 0.500000 0.153565 0.842150
O O12 0.375720 0.201947 0.839511
O O13 0.413418 0.160260 0.000000
O O14 0.250000 0.250000 0.839610
O O15 0.167793 0.261205 0.000000
O O16 0.500000 0.500000 0.163470
O O17 0.500000 0.457013 0.000000
O O18 0.000000 0.500000 0.161390
O O19 0.916898 0.500000 0.000000
O O20 0.607151 0.439601 0.500000
O O21 0.500000 0.447074 0.639281
O O22 0.617241 0.500000 0.630465
#
# Coordination Sequence:
#
# PCOD8265597 Si02
#       8
#    16  16  16  16  16   8   8  16
#     4  10  18  27  38  56  86 121 148 172 209 261
#     4  12  20  30  44  63  89 118 150 181 223 263
#     4  10  20  29  42  63  89 119 153 190 220 259
#     4   9  16  28  43  58  80 119 164 198 225 254
#     4   9  16  25  38  56  80 113 154 193 222 250
#     4  11  22  30  39  57  89 129 156 174 197 252
#     4   9  18  32  44  57  82 119 154 185 222 257
#     4   9  18  33  50  64  80 109 151 192 227 263
#
# _framework density 15.044954000000001
#
# number of rings (size 3 to 8) (size 9 to 14) (size 15 to 20)
#    0.000    2.143    1.429    3.857    2.000    5.714 
#    0.000    0.000    0.000    0.000    0.000    0.000 
#    0.000    8.000    0.000    1.429    0.000    0.000 
#
# Total GULP energy -694371.667824 kJ/mol
# GULP energy per Si atom -12399.494068 kJ/mol
# Density = 1.501071 g / cm^3
# Si number density = 15.044954 Si / 1000 Ang^3
#
#
#
# Elastic Constant Matrix: (Units=GPa)
#
#
# Indices 1 2 3 4 5 6 
#
# 1 116.0705 52.2723 26.1156 0.0000 0.0000 0.0000
# 2 52.2723 122.7835 31.5991 0.0000 0.0000 0.0000
# 3 26.1156 31.5991 43.0812 0.0000 0.0000 0.0000
# 4 0.0000 0.0000 0.0000 5.2617 0.0000 0.0000
# 5 0.0000 0.0000 0.0000 0.0000 8.3755 0.0000
# 6 0.0000 0.0000 0.0000 0.0000 0.0000 23.7837
#
#
#
# Elastic Compliance Matrix: (Units=1/GPa)
#
#
# Indices 1 2 3 4 5 6 
#
# 1 0.011207 -0.003726 -0.004061 0.000000 0.000000 0.000000
# 2 -0.003726 0.011278 -0.006014 0.000000 0.000000 0.000000
# 3 -0.004061 -0.006014 0.030084 0.000000 0.000000 0.000000
# 4 0.000000 0.000000 0.000000 0.190051 0.000000 0.000000
# 5 0.000000 0.000000 0.000000 0.000000 0.119396 0.000000
# 6 0.000000 0.000000 0.000000 0.000000 0.000000 0.042046
#
#
# Mechanical properties :
#
#
# Convention : Reuss Voigt Hill
#
# Bulk Modulus (GPa) = 40.04968 55.76771 47.90869
# Shear Modulus (GPa) = 11.36397 18.94738 15.15567
#
# Velocity S-wave (km/s) = 2.75132 3.55263 3.17734
# Velocity P-wave (km/s) = 6.06389 7.34684 6.73598
#
# Compressibility (1/GPa) = 0.02496899
#
# Stress axis : x y z
#
# Youngs Moduli (GPa) = 89.22852 88.66501 33.23974
#
# Poissons Ratio (x) = 0.33038 0.13498
# Poissons Ratio (y) = 0.33248 0.19989
# Poissons Ratio (z) = 0.36233 0.53320
#
# Static dielectric constant tensor:
#      x y z
#    x 2.983070 0.000000 0.000000 
#    y 0.000000 3.117890 0.000000 
#    z 0.000000 0.000000 2.438850 
# 
# 
# High freq. dielectric constant tensor:
#      x y z
#    x 1.583080 0.000000 0.000000 
#    y 0.000000 1.590850 0.000000 
#    z 0.000000 0.000000 1.501270 
# 
# From -- ./inp_files/43373.got.cif
#   From: 2010.03.12/outbox.cif.g09.slc.cpg/sg65_22_cif.got.tgz:43373.got - 2010.04.10 20:52:16.
