data_PCOD8265053
_publ_section_title
;
Structure prediction by ZEFSAII (Michael W. Deem and Ramdas Pophale) SiO2 
 PCOD8265053
Probable space group: C M M M
;
_chemical_formula_sum "Si O2"
_cell_formula_units_Z 88
_cell_length_a 32.313446
_cell_length_b 17.391926
_cell_length_c 11.933624
_cell_angle_alpha 90.000000
_cell_angle_beta 90.000000
_cell_angle_gamma 90.000000
_cell_volume 6706.613888
_symmetry_space_group_name_H-M "C M M M"
_symmetry_group_IT_number 65
_symmetry_cell_setting 'orthorhombic'
loop_
_space_group_symop_operation_xyz
x,y,z
-x,-y,z
x,-y,-z
-x,y,-z
-x,-y,-z
x,y,-z
-x,y,z
x,-y,z
1/2+x,1/2+y,z
1/2-x,1/2-y,z
1/2+x,1/2-y,-z
1/2-x,1/2+y,-z
1/2-x,1/2-y,-z
1/2+x,1/2+y,-z
1/2-x,1/2+y,z
1/2+x,1/2-y,z
loop_
_atom_site_type_symbol
_atom_site_label
_atom_site_fract_x
_atom_site_fract_y
_atom_site_fract_z
Si Si1 0.834127 0.848784 0.239719
Si Si2 0.209227 0.301086 0.231075
Si Si3 0.410594 0.591676 0.371947
Si Si4 0.769670 0.334140 0.000000
Si Si5 0.000000 0.916271 0.367758
Si Si6 0.243206 0.088683 0.372372
Si Si7 0.184927 0.910126 0.000000
O O1 0.828389 0.756785 0.257766
O O2 0.878133 0.869086 0.290571
O O3 0.797807 0.896227 0.300236
O O4 0.834698 0.869589 0.108709
O O5 0.250000 0.250000 0.219630
O O6 0.216947 0.363516 0.328500
O O7 0.202333 0.344118 0.111654
O O8 0.400173 0.614146 0.500000
O O9 0.409287 0.500000 0.358151
O O10 0.456352 0.624564 0.335892
O O11 0.750000 0.250000 0.000000
O O12 0.734286 0.399039 0.000000
O O13 0.000000 0.928225 0.500000
O O14 0.000000 0.000000 0.309863
O O15 0.234069 0.112993 0.500000
O O16 0.255235 0.000000 0.362954
O O17 0.174182 0.000000 0.000000
#
# Coordination Sequence:
#
# PCOD8265053 Si02
#       7
#    16  16  16   8   8  16   8
#     4  11  19  27  38  56  75  97 125 162 193 225
#     4   9  17  27  40  50  70  97 125 155 191 224
#     4   9  16  26  40  57  76  96 122 156 192 229
#     4  10  14  30  40  48  66  96 126 159 191 218
#     4   7  12  24  40  55  71  95 122 149 187 230
#     4  10  19  28  37  52  74  98 126 158 191 226
#     4  12  20  26  40  57  73  96 132 168 195 221
#
# _framework density 13.121376
#
# number of rings (size 3 to 8) (size 9 to 14) (size 15 to 20)
#    0.000    2.273    5.455    3.273    0.000    5.455 
#    0.000    0.000    0.000    0.545    0.000    2.545 
#    0.000    0.000    0.000    0.818    0.000    9.455 
#
# Total GULP energy -545191.596476 kJ/mol
# GULP energy per Si atom -12390.718102 kJ/mol
# Density = 1.309151 g / cm^3
# Si number density = 13.121376 Si / 1000 Ang^3
#
#
#
# Elastic Constant Matrix: (Units=GPa)
#
#
# Indices 1 2 3 4 5 6 
#
# 1 78.3441 36.1007 39.5551 0.0000 0.0000 0.0000
# 2 36.1007 46.6693 34.2839 0.0000 0.0000 0.0000
# 3 39.5551 34.2839 96.9162 0.0000 0.0000 0.0000
# 4 0.0000 0.0000 0.0000 16.8692 0.0000 0.0000
# 5 0.0000 0.0000 0.0000 0.0000 10.4728 0.0000
# 6 0.0000 0.0000 0.0000 0.0000 0.0000 12.3499
#
#
#
# Elastic Compliance Matrix: (Units=1/GPa)
#
#
# Indices 1 2 3 4 5 6 
#
# 1 0.020812 -0.013321 -0.003782 0.000000 0.000000 0.000000
# 2 -0.013321 0.037477 -0.007821 0.000000 0.000000 0.000000
# 3 -0.003782 -0.007821 0.014628 0.000000 0.000000 0.000000
# 4 0.000000 0.000000 0.000000 0.059280 0.000000 0.000000
# 5 0.000000 0.000000 0.000000 0.000000 0.095485 0.000000
# 6 0.000000 0.000000 0.000000 0.000000 0.000000 0.080972
#
#
# Mechanical properties :
#
#
# Convention : Reuss Voigt Hill
#
# Bulk Modulus (GPa) = 43.34569 49.08989 46.21779
# Shear Modulus (GPa) = 13.65411 15.40437 14.52924
#
# Velocity S-wave (km/s) = 3.22933 3.43007 3.33122
# Velocity P-wave (km/s) = 6.85645 7.29250 7.07783
#
# Compressibility (1/GPa) = 0.02307034
#
# Stress axis : x y z
#
# Youngs Moduli (GPa) = 48.04981 26.68337 68.36083
#
# Poissons Ratio (x) = 0.35544 0.25854
# Poissons Ratio (y) = 0.64005 0.53462
# Poissons Ratio (z) = 0.18172 0.20868
#
# Static dielectric constant tensor:
#      x y z
#    x 2.588130 0.000000 0.000000 
#    y 0.000000 2.618840 0.000000 
#    z 0.000000 0.000000 2.873050 
# 
# 
# High freq. dielectric constant tensor:
#      x y z
#    x 1.456850 0.000000 0.000000 
#    y 0.000000 1.475650 0.000000 
#    z 0.000000 0.000000 1.508940 
# 
# From -- ./inp_files/34083.got.cif
#   From: 2010.03.12/outbox.cif.g09.slc.cpg/sg65_18_cif.got.tgz:34083.got - 2010.04.10 20:52:16.
