data_PCOD8265624
_publ_section_title
;
Structure prediction by ZEFSAII (Michael W. Deem and Ramdas Pophale) SiO2 
 PCOD8265624
Probable space group: C M M M
;
_chemical_formula_sum "Si O2"
_cell_formula_units_Z 96
_cell_length_a 29.580226
_cell_length_b 23.599750
_cell_length_c 9.013301
_cell_angle_alpha 90.000000
_cell_angle_beta 90.000000
_cell_angle_gamma 90.000000
_cell_volume 6292.058688
_symmetry_space_group_name_H-M "C M M M"
_symmetry_group_IT_number 65
_symmetry_cell_setting 'orthorhombic'
loop_
_space_group_symop_operation_xyz
x,y,z
-x,-y,z
x,-y,-z
-x,y,-z
-x,-y,-z
x,y,-z
-x,y,z
x,-y,z
1/2+x,1/2+y,z
1/2-x,1/2-y,z
1/2+x,1/2-y,-z
1/2-x,1/2+y,-z
1/2-x,1/2-y,-z
1/2+x,1/2+y,-z
1/2-x,1/2+y,z
1/2+x,1/2-y,z
loop_
_atom_site_type_symbol
_atom_site_label
_atom_site_fract_x
_atom_site_fract_y
_atom_site_fract_z
Si Si1 0.000000 0.252245 0.832294
Si Si2 0.321179 0.727228 0.824183
Si Si3 0.589868 0.885467 0.674003
Si Si4 0.500000 0.886963 0.832614
Si Si5 0.234807 0.334358 0.825338
Si Si6 0.590098 0.246162 0.674083
Si Si7 0.824635 0.435641 0.827494
O O1 0.044460 0.229842 0.748177
O O2 0.000000 0.319596 0.828896
O O3 0.000000 0.229006 0.000000
O O4 0.286437 0.677240 0.773447
O O5 0.299475 0.786269 0.767030
O O6 0.368257 0.717999 0.739743
O O7 0.330282 0.727222 0.000000
O O8 0.585096 0.894459 0.500000
O O9 0.544486 0.909576 0.749531
O O10 0.597353 0.819752 0.714771
O O11 0.631162 0.922226 0.733549
O O12 0.500000 0.910373 0.000000
O O13 0.216983 0.395871 0.773630
O O14 0.235116 0.328327 0.000000
O O15 0.586460 0.255981 0.500000
O O16 0.809464 0.500000 0.798970
O O17 0.835734 0.424382 0.000000
#
# Coordination Sequence:
#
# PCOD8265624 Si02
#       7
#     8  16  16   8  16  16  16
#     4   9  17  27  41  60  82 113 144 166 200 251
#     4   9  15  26  45  62  81 109 138 170 204 246
#     4  10  19  30  43  60  83 108 134 170 216 259
#     4   9  17  29  46  62  77 101 137 179 213 249
#     4   8  15  27  43  63  82 104 137 173 209 245
#     4  10  18  27  40  62  88 111 136 172 210 245
#     4  10  19  31  47  63  80 105 139 177 212 249
#
# _framework density 15.257327999999999
#
# number of rings (size 3 to 8) (size 9 to 14) (size 15 to 20)
#    0.000    2.667    1.667    2.500    0.000    3.667 
#    0.000    2.917    0.000    2.500    0.000    0.000 
#    0.000    0.000    0.000    0.750    0.000   17.667 
#
# Total GULP energy -595046.062484 kJ/mol
# GULP energy per Si atom -12396.792968 kJ/mol
# Density = 1.522260 g / cm^3
# Si number density = 15.257328 Si / 1000 Ang^3
#
#
#
# Elastic Constant Matrix: (Units=GPa)
#
#
# Indices 1 2 3 4 5 6 
#
# 1 142.6988 50.6160 51.6058 0.0000 0.0000 0.0000
# 2 50.6160 53.7547 24.9802 0.0000 0.0000 0.0000
# 3 51.6058 24.9802 67.5690 0.0000 0.0000 0.0000
# 4 0.0000 0.0000 0.0000 10.4794 0.0000 0.0000
# 5 0.0000 0.0000 0.0000 0.0000 9.5987 0.0000
# 6 0.0000 0.0000 0.0000 0.0000 0.0000 16.4848
#
#
#
# Elastic Compliance Matrix: (Units=1/GPa)
#
#
# Indices 1 2 3 4 5 6 
#
# 1 0.012354 -0.008752 -0.006200 0.000000 0.000000 0.000000
# 2 -0.008752 0.028662 -0.003912 0.000000 0.000000 0.000000
# 3 -0.006200 -0.003912 0.020981 0.000000 0.000000 0.000000
# 4 0.000000 0.000000 0.000000 0.095425 0.000000 0.000000
# 5 0.000000 0.000000 0.000000 0.000000 0.104180 0.000000
# 6 0.000000 0.000000 0.000000 0.000000 0.000000 0.060662
#
#
# Mechanical properties :
#
#
# Convention : Reuss Voigt Hill
#
# Bulk Modulus (GPa) = 41.20396 57.60294 49.40345
# Shear Modulus (GPa) = 13.58392 16.43396 15.00894
#
# Velocity S-wave (km/s) = 2.98706 3.28551 3.13983
# Velocity P-wave (km/s) = 6.24190 7.22696 6.75242
#
# Compressibility (1/GPa) = 0.02426951
#
# Stress axis : x y z
#
# Youngs Moduli (GPa) = 80.94400 34.88979 47.66153
#
# Poissons Ratio (x) = 0.30534 0.29550
# Poissons Ratio (y) = 0.70839 0.18646
# Poissons Ratio (z) = 0.50186 0.13649
#
# Static dielectric constant tensor:
#      x y z
#    x 3.141400 0.000000 0.000000 
#    y 0.000000 2.668580 0.000000 
#    z 0.000000 0.000000 2.826340 
# 
# 
# High freq. dielectric constant tensor:
#      x y z
#    x 1.591430 0.000000 0.000000 
#    y 0.000000 1.525030 0.000000 
#    z 0.000000 0.000000 1.580140 
# 
# From -- ./inp_files/16686.got.cif
#   From: 2010.03.12/outbox.cif.g09.slc.cpg/sg65_9_cif.got.tgz:16686.got - 2010.04.10 20:52:16.
