data_PCOD8265189
_publ_section_title
;
Structure prediction by ZEFSAII (Michael W. Deem and Ramdas Pophale) SiO2 
 PCOD8265189
Probable space group: C M M M
;
_chemical_formula_sum "Si O2"
_cell_formula_units_Z 104
_cell_length_a 24.356125
_cell_length_b 17.113359
_cell_length_c 14.773736
_cell_angle_alpha 90.000000
_cell_angle_beta 90.000000
_cell_angle_gamma 90.000000
_cell_volume 6157.916410
_symmetry_space_group_name_H-M "C M M M"
_symmetry_group_IT_number 65
_symmetry_cell_setting 'orthorhombic'
loop_
_space_group_symop_operation_xyz
x,y,z
-x,-y,z
x,-y,-z
-x,y,-z
-x,-y,-z
x,y,-z
-x,y,z
x,-y,z
1/2+x,1/2+y,z
1/2-x,1/2-y,z
1/2+x,1/2-y,-z
1/2-x,1/2+y,-z
1/2-x,1/2-y,-z
1/2+x,1/2+y,-z
1/2-x,1/2+y,z
1/2+x,1/2-y,z
loop_
_atom_site_type_symbol
_atom_site_label
_atom_site_fract_x
_atom_site_fract_y
_atom_site_fract_z
Si Si1 0.246732 0.662833 0.605204
Si Si2 0.063582 0.858798 0.776601
Si Si3 0.065333 0.000000 0.101536
Si Si4 0.132561 0.836342 0.396508
Si Si5 0.059535 0.589319 0.500000
Si Si6 0.936021 0.682516 0.177243
Si Si7 0.132166 0.655872 0.652367
Si Si8 0.435403 0.088727 0.000000
O O1 0.231323 0.663399 0.500000
O O2 0.250000 0.750000 0.644387
O O3 0.306935 0.624870 0.620819
O O4 0.194878 0.621320 0.655421
O O5 0.091823 0.870349 0.678707
O O6 0.074051 0.775739 0.825160
O O7 0.000000 0.872073 0.756541
O O8 0.086654 0.923408 0.845766
O O9 0.000000 0.000000 0.096204
O O10 0.090047 0.000000 0.000000
O O11 0.113407 0.855823 0.500000
O O12 0.134923 0.743348 0.386398
O O13 0.045500 0.500000 0.500000
O O14 0.093773 0.606502 0.588557
O O15 0.000000 0.634153 0.500000
O O16 0.895437 0.646712 0.250654
O O17 0.000000 0.665174 0.199791
O O18 0.916962 0.640127 0.085727
O O19 0.500000 0.080050 0.000000
O O20 0.410115 0.000000 0.000000
#
# Coordination Sequence:
#
# PCOD8265189 Si02
#       8
#    16  16   8  16   8  16  16   8
#     4   8  13  24  46  69  89 116 158 199 231 269
#     4   9  18  30  46  73 101 125 156 192 232 287
#     4   9  18  32  51  71  95 125 154 190 239 286
#     4   9  16  28  48  74  96 124 158 196 234 277
#     4  11  22  30  39  60  96 133 161 196 240 284
#     4   9  18  29  46  71  95 120 158 198 235 287
#     4  10  16  30  46  66  91 124 161 201 237 276
#     4   9  18  32  48  67  94 125 157 202 252 293
#
# _framework density 16.888829000000001
#
# number of rings (size 3 to 8) (size 9 to 14) (size 15 to 20)
#    0.000    2.846    1.538    1.385    1.077    1.538 
#    0.000    1.923    1.692    1.385    2.000    2.692 
#    0.000    0.000    0.000    0.000    0.000    0.000 
#
# Total GULP energy -644234.921518 kJ/mol
# GULP energy per Si atom -12389.133106 kJ/mol
# Density = 1.685039 g / cm^3
# Si number density = 16.888829 Si / 1000 Ang^3
#
#
#
# Elastic Constant Matrix: (Units=GPa)
#
#
# Indices 1 2 3 4 5 6 
#
# 1 91.4145 31.4661 60.5860 0.0000 0.0000 0.0000
# 2 31.4661 60.5576 54.7271 0.0000 0.0000 0.0000
# 3 60.5860 54.7271 147.5278 0.0000 0.0000 0.0000
# 4 0.0000 0.0000 0.0000 15.3399 0.0000 0.0000
# 5 0.0000 0.0000 0.0000 0.0000 57.0328 0.0000
# 6 0.0000 0.0000 0.0000 0.0000 0.0000 7.4917
#
#
#
# Elastic Compliance Matrix: (Units=1/GPa)
#
#
# Indices 1 2 3 4 5 6 
#
# 1 0.015498 -0.003461 -0.005081 0.000000 0.000000 0.000000
# 2 -0.003461 0.025614 -0.008080 0.000000 0.000000 0.000000
# 3 -0.005081 -0.008080 0.011862 0.000000 0.000000 0.000000
# 4 0.000000 0.000000 0.000000 0.065190 0.000000 0.000000
# 5 0.000000 0.000000 0.000000 0.000000 0.017534 0.000000
# 6 0.000000 0.000000 0.000000 0.000000 0.000000 0.133481
#
#
# Mechanical properties :
#
#
# Convention : Reuss Voigt Hill
#
# Bulk Modulus (GPa) = 50.68489 65.89539 58.29014
# Shear Modulus (GPa) = 16.18127 26.15426 21.16776
#
# Velocity S-wave (km/s) = 3.09868 3.93951 3.54412
# Velocity P-wave (km/s) = 6.54817 7.73271 7.16496
#
# Compressibility (1/GPa) = 0.01972974
#
# Stress axis : x y z
#
# Youngs Moduli (GPa) = 64.52527 39.04093 84.30051
#
# Poissons Ratio (x) = 0.13514 0.42829
# Poissons Ratio (y) = 0.22335 0.68118
# Poissons Ratio (z) = 0.32782 0.31546
#
# Static dielectric constant tensor:
#      x y z
#    x 3.308060 0.000000 0.000000 
#    y 0.000000 2.987860 0.000000 
#    z 0.000000 0.000000 3.226550 
# 
# 
# High freq. dielectric constant tensor:
#      x y z
#    x 1.639480 0.000000 0.000000 
#    y 0.000000 1.625720 0.000000 
#    z 0.000000 0.000000 1.640450 
# 
# From -- ./inp_files/43147.got.cif
#   From: 2010.03.12/outbox.cif.g09.slc.cpg/sg65_22_cif.got.tgz:43147.got - 2010.04.10 20:52:16.
