data_PCOD8265903
_publ_section_title
;
Structure prediction by ZEFSAII (Michael W. Deem and Ramdas Pophale) SiO2 
 PCOD8265903
Probable space group: C M M M
;
_chemical_formula_sum "Si O2"
_cell_formula_units_Z 104
_cell_length_a 21.177486
_cell_length_b 18.843213
_cell_length_c 14.615505
_cell_angle_alpha 90.000000
_cell_angle_beta 90.000000
_cell_angle_gamma 90.000000
_cell_volume 5832.344740
_symmetry_space_group_name_H-M "C M M M"
_symmetry_group_IT_number 65
_symmetry_cell_setting 'orthorhombic'
loop_
_space_group_symop_operation_xyz
x,y,z
-x,-y,z
x,-y,-z
-x,y,-z
-x,-y,-z
x,y,-z
-x,y,z
x,-y,z
1/2+x,1/2+y,z
1/2-x,1/2-y,z
1/2+x,1/2-y,-z
1/2-x,1/2+y,-z
1/2-x,1/2-y,-z
1/2+x,1/2+y,-z
1/2-x,1/2+y,z
1/2+x,1/2-y,z
loop_
_atom_site_type_symbol
_atom_site_label
_atom_site_fract_x
_atom_site_fract_y
_atom_site_fract_z
Si Si1 0.070247 0.729977 0.602055
Si Si2 0.500000 0.916247 0.105869
Si Si3 0.336442 0.578457 0.893372
Si Si4 0.897176 0.334182 0.782983
Si Si5 0.698093 0.311941 0.599267
Si Si6 0.745232 0.165155 0.221928
Si Si7 0.926828 0.199833 0.894532
O O1 0.078623 0.696404 0.500000
O O2 0.074395 0.669768 0.680300
O O3 0.126757 0.785542 0.618927
O O4 0.000000 0.765630 0.608993
O O5 0.562249 0.886764 0.154743
O O6 0.500000 0.000000 0.114030
O O7 0.500000 0.891304 0.000000
O O8 0.340910 0.500000 0.848010
O O9 0.276555 0.623289 0.860652
O O10 0.400041 0.622096 0.870811
O O11 0.327086 0.569465 0.000000
O O12 0.826291 0.362304 0.775020
O O13 0.893984 0.256716 0.829150
O O14 0.699467 0.351144 0.500000
O O15 0.750000 0.250000 0.597175
O O16 0.719166 0.360555 0.684414
O O17 0.750000 0.250000 0.207932
O O18 0.000000 0.199236 0.871502
O O19 0.913461 0.220023 0.000000
#
# Coordination Sequence:
#
# PCOD8265903 Si02
#       7
#    16   8  16  16  16  16  16
#     4  10  18  28  48  81 115 145 181 229 279 328
#     4  11  26  44  59  79 110 148 189 236 293 349
#     4  10  22  37  51  74 109 142 176 225 281 330
#     4  12  20  34  58  81 108 140 186 232 268 323
#     4   9  16  29  50  80 115 145 179 229 284 330
#     4  11  20  33  54  83 108 143 188 227 270 328
#     4  10  19  32  54  80 102 134 178 224 270 319
#
# _framework density 17.831593000000002
#
# number of rings (size 3 to 8) (size 9 to 14) (size 15 to 20)
#    0.000    1.615    6.154    0.462    0.000    2.462 
#    0.000    3.077    0.000    1.385    0.000    2.154 
#    0.000    0.000    0.000   18.769    0.000    0.308 
#
# Total GULP energy -644402.104871 kJ/mol
# GULP energy per Si atom -12392.348171 kJ/mol
# Density = 1.779101 g / cm^3
# Si number density = 17.831593 Si / 1000 Ang^3
#
#
#
# Elastic Constant Matrix: (Units=GPa)
#
#
# Indices 1 2 3 4 5 6 
#
# 1 120.3792 9.6011 38.9473 0.0000 0.0000 0.0000
# 2 9.6011 63.7381 35.3163 0.0000 0.0000 0.0000
# 3 38.9473 35.3163 92.5226 0.0000 0.0000 0.0000
# 4 0.0000 0.0000 0.0000 8.4916 0.0000 0.0000
# 5 0.0000 0.0000 0.0000 0.0000 30.0616 0.0000
# 6 0.0000 0.0000 0.0000 0.0000 0.0000 15.4791
#
#
#
# Elastic Compliance Matrix: (Units=1/GPa)
#
#
# Indices 1 2 3 4 5 6 
#
# 1 0.009668 0.001013 -0.004456 0.000000 0.000000 0.000000
# 2 0.001013 0.020004 -0.008062 0.000000 0.000000 0.000000
# 3 -0.004456 -0.008062 0.015761 0.000000 0.000000 0.000000
# 4 0.000000 0.000000 0.000000 0.117764 0.000000 0.000000
# 5 0.000000 0.000000 0.000000 0.000000 0.033265 0.000000
# 6 0.000000 0.000000 0.000000 0.000000 0.000000 0.064603
#
#
# Mechanical properties :
#
#
# Convention : Reuss Voigt Hill
#
# Bulk Modulus (GPa) = 44.59846 49.37437 46.98641
# Shear Modulus (GPa) = 17.14971 23.65812 20.40392
#
# Velocity S-wave (km/s) = 3.10459 3.64641 3.38636
# Velocity P-wave (km/s) = 6.15764 6.74372 6.45733
#
# Compressibility (1/GPa) = 0.02242230
#
# Stress axis : x y z
#
# Youngs Moduli (GPa) = 103.43276 49.99108 63.44640
#
# Poissons Ratio (x) = -0.05063 0.28274
# Poissons Ratio (y) = -0.10476 0.51149
# Poissons Ratio (z) = 0.46094 0.40302
#
# Static dielectric constant tensor:
#      x y z
#    x 3.510030 0.000000 0.000000 
#    y 0.000000 2.957530 0.000000 
#    z 0.000000 0.000000 3.839960 
# 
# 
# High freq. dielectric constant tensor:
#      x y z
#    x 1.711270 0.000000 0.000000 
#    y 0.000000 1.626230 0.000000 
#    z 0.000000 0.000000 1.709800 
# 
# From -- ./inp_files/45949.got.cif
#   From: 2010.03.12/outbox.cif.g09.slc.cpg/sg65_23_cif.got.tgz:45949.got - 2010.04.10 20:52:16.
