data_PCOD8265917
_publ_section_title
;
Structure prediction by ZEFSAII (Michael W. Deem and Ramdas Pophale) SiO2 
 PCOD8265917
Probable space group: C M M M
;
_chemical_formula_sum "Si O2"
_cell_formula_units_Z 88
_cell_length_a 23.518847
_cell_length_b 29.822526
_cell_length_c 8.980338
_cell_angle_alpha 90.000000
_cell_angle_beta 90.000000
_cell_angle_gamma 90.000000
_cell_volume 6298.732077
_symmetry_space_group_name_H-M "C M M M"
_symmetry_group_IT_number 65
_symmetry_cell_setting 'orthorhombic'
loop_
_space_group_symop_operation_xyz
x,y,z
-x,-y,z
x,-y,-z
-x,y,-z
-x,-y,-z
x,y,-z
-x,y,z
x,-y,z
1/2+x,1/2+y,z
1/2-x,1/2-y,z
1/2+x,1/2-y,-z
1/2-x,1/2+y,-z
1/2-x,1/2-y,-z
1/2+x,1/2+y,-z
1/2-x,1/2+y,z
1/2+x,1/2-y,z
loop_
_atom_site_type_symbol
_atom_site_label
_atom_site_fract_x
_atom_site_fract_y
_atom_site_fract_z
Si Si1 0.000000 0.256106 0.667430
Si Si2 0.383321 0.748487 0.175500
Si Si3 0.066592 0.500000 0.323933
Si Si4 0.284515 0.704206 0.332489
Si Si5 0.185631 0.335695 0.170692
Si Si6 0.900444 0.589422 0.827515
Si Si7 0.500000 0.138180 0.667580
O O1 0.944218 0.239130 0.751817
O O2 0.000000 0.309175 0.662324
O O3 0.000000 0.236649 0.500000
O O4 0.341202 0.709701 0.234656
O O5 0.359511 0.797568 0.222624
O O6 0.389867 0.744186 0.000000
O O7 0.072758 0.500000 0.500000
O O8 0.099413 0.542551 0.258112
O O9 0.000000 0.500000 0.276411
O O10 0.301496 0.690760 0.500000
O O11 0.250000 0.750000 0.328243
O O12 0.243710 0.665817 0.265003
O O13 0.159817 0.385426 0.191521
O O14 0.201477 0.326049 0.000000
O O15 0.945707 0.622403 0.756796
O O16 0.915007 0.581125 0.000000
O O17 0.500000 0.117586 0.500000
#
# Coordination Sequence:
#
# PCOD8265917 Si02
#       7
#     8  16   8  16  16  16   8
#     4  11  21  29  40  60  85 109 137 171 209 250
#     4  10  18  29  43  59  81 107 135 167 204 243
#     4  11  23  35  45  61  82 106 134 171 218 259
#     4   9  17  28  42  60  80 103 130 163 204 243
#     4   9  18  30  44  61  78 100 133 170 206 246
#     4  11  21  33  48  62  77 103 138 173 211 256
#     4  11  21  30  42  59  81 105 132 172 215 253
#
# _framework density 13.971064999999999
#
# number of rings (size 3 to 8) (size 9 to 14) (size 15 to 20)
#    0.000    1.909    2.727    2.455    0.000    5.455 
#    0.000    0.000    0.000    0.000    0.000    0.000 
#    0.000    0.000    0.000    0.000    0.000    0.909 
#
# Total GULP energy -545590.535561 kJ/mol
# GULP energy per Si atom -12399.784899 kJ/mol
# Density = 1.393927 g / cm^3
# Si number density = 13.971065 Si / 1000 Ang^3
#
#
#
# Elastic Constant Matrix: (Units=GPa)
#
#
# Indices 1 2 3 4 5 6 
#
# 1 93.8035 33.8737 52.8638 0.0000 0.0000 0.0000
# 2 33.8737 44.7401 30.2167 0.0000 0.0000 0.0000
# 3 52.8638 30.2167 95.3910 0.0000 0.0000 0.0000
# 4 0.0000 0.0000 0.0000 18.7371 0.0000 0.0000
# 5 0.0000 0.0000 0.0000 0.0000 23.7726 0.0000
# 6 0.0000 0.0000 0.0000 0.0000 0.0000 24.9932
#
#
#
# Elastic Compliance Matrix: (Units=1/GPa)
#
#
# Indices 1 2 3 4 5 6 
#
# 1 0.017805 -0.008671 -0.007120 0.000000 0.000000 0.000000
# 2 -0.008671 0.032658 -0.005539 0.000000 0.000000 0.000000
# 3 -0.007120 -0.005539 0.016184 0.000000 0.000000 0.000000
# 4 0.000000 0.000000 0.000000 0.053370 0.000000 0.000000
# 5 0.000000 0.000000 0.000000 0.000000 0.042065 0.000000
# 6 0.000000 0.000000 0.000000 0.000000 0.000000 0.040011
#
#
# Mechanical properties :
#
#
# Convention : Reuss Voigt Hill
#
# Bulk Modulus (GPa) = 41.69400 51.98254 46.83827
# Shear Modulus (GPa) = 19.78248 21.29927 20.54088
#
# Velocity S-wave (km/s) = 3.76701 3.90876 3.83854
# Velocity P-wave (km/s) = 6.98773 7.59337 7.29683
#
# Compressibility (1/GPa) = 0.02398427
#
# Stress axis : x y z
#
# Youngs Moduli (GPa) = 56.16542 30.62051 61.79055
#
# Poissons Ratio (x) = 0.26552 0.43996
# Poissons Ratio (y) = 0.48703 0.34228
# Poissons Ratio (z) = 0.39991 0.16962
#
# Static dielectric constant tensor:
#      x y z
#    x 2.748860 0.000000 0.000000 
#    y 0.000000 2.479010 0.000000 
#    z 0.000000 0.000000 2.970120 
# 
# 
# High freq. dielectric constant tensor:
#      x y z
#    x 1.518740 0.000000 0.000000 
#    y 0.000000 1.484740 0.000000 
#    z 0.000000 0.000000 1.554250 
# 
# From -- ./inp_files/12678.got.cif
#   From: 2010.03.12/outbox.cif.g09.slc.cpg/sg65_7_cif.got.tgz:12678.got - 2010.04.10 20:52:16.
