data_PCOD8265727
_publ_section_title
;
Structure prediction by ZEFSAII (Michael W. Deem and Ramdas Pophale) SiO2 
 PCOD8265727
Probable space group: C M M M
;
_chemical_formula_sum "Si O2"
_cell_formula_units_Z 96
_cell_length_a 23.476771
_cell_length_b 9.129343
_cell_length_c 26.051379
_cell_angle_alpha 90.000000
_cell_angle_beta 90.000000
_cell_angle_gamma 90.000000
_cell_volume 5583.526802
_symmetry_space_group_name_H-M "C M M M"
_symmetry_group_IT_number 65
_symmetry_cell_setting 'orthorhombic'
loop_
_space_group_symop_operation_xyz
x,y,z
-x,-y,z
x,-y,-z
-x,y,-z
-x,-y,-z
x,y,-z
-x,y,z
x,-y,z
1/2+x,1/2+y,z
1/2-x,1/2-y,z
1/2+x,1/2-y,-z
1/2-x,1/2+y,-z
1/2-x,1/2-y,-z
1/2+x,1/2+y,-z
1/2-x,1/2+y,z
1/2+x,1/2-y,z
loop_
_atom_site_type_symbol
_atom_site_label
_atom_site_fract_x
_atom_site_fract_y
_atom_site_fract_z
Si Si1 0.000000 0.674738 0.634614
Si Si2 0.810854 0.672528 0.111087
Si Si3 0.000000 0.675008 0.248043
Si Si4 0.881531 0.326265 0.206486
Si Si5 0.809568 0.673214 0.302941
Si Si6 0.379615 0.826529 0.599142
Si Si7 0.191755 0.331795 0.000000
Si Si8 0.311487 0.824791 0.500000
O O1 0.055505 0.732637 0.603774
O O2 0.000000 0.500000 0.636896
O O3 0.000000 0.733630 0.693329
O O4 0.800519 0.500000 0.119110
O O5 0.750000 0.750000 0.118342
O O6 0.856265 0.732876 0.152570
O O7 0.838972 0.705985 0.054389
O O8 0.055187 0.735671 0.217434
O O9 0.000000 0.500000 0.249361
O O10 0.884705 0.500000 0.206034
O O11 0.840023 0.272259 0.251400
O O12 0.801152 0.500000 0.303548
O O13 0.750000 0.750000 0.307073
O O14 0.846542 0.727948 0.350787
O O15 0.347399 0.767417 0.548859
O O16 0.380987 0.000000 0.596884
O O17 0.250000 0.250000 0.000000
O O18 0.208083 0.500000 0.000000
O O19 0.250000 0.750000 0.500000
O O20 0.303495 0.000000 0.500000
#
# Coordination Sequence:
#
# PCOD8265727 Si02
#       8
#     8  16   8  16  16  16   8   8
#     4   9  14  25  44  65  88 111 138 179 221 247
#     4   9  16  26  40  61  86 111 140 173 209 251
#     4   9  14  24  41  61  85 112 140 173 213 253
#     4   9  16  25  40  61  84 109 140 175 210 250
#     4  10  18  28  42  63  87 111 138 170 209 252
#     4   9  17  28  44  65  89 113 140 176 214 249
#     4   8  14  24  38  55  81 113 139 168 207 246
#     4  10  20  33  47  67  93 118 143 172 210 258
#
# _framework density 17.193432999999999
#
# number of rings (size 3 to 8) (size 9 to 14) (size 15 to 20)
#    0.000    2.833    1.667    1.000    0.000    0.333 
#    0.000    1.667    0.000    0.500    0.000    9.917 
#    0.000    0.000    0.000   12.250    0.000    8.500 
#
# Total GULP energy -594742.805622 kJ/mol
# GULP energy per Si atom -12390.475117 kJ/mol
# Density = 1.715430 g / cm^3
# Si number density = 17.193433 Si / 1000 Ang^3
#
#
#
# Elastic Constant Matrix: (Units=GPa)
#
#
# Indices 1 2 3 4 5 6 
#
# 1 160.0990 17.7382 87.7490 0.0000 0.0000 0.0000
# 2 17.7382 10.7275 16.3086 0.0000 0.0000 0.0000
# 3 87.7490 16.3086 174.7315 0.0000 0.0000 0.0000
# 4 0.0000 0.0000 0.0000 9.6710 0.0000 0.0000
# 5 0.0000 0.0000 0.0000 0.0000 28.1465 0.0000
# 6 0.0000 0.0000 0.0000 0.0000 0.0000 17.7362
#
#
#
# Elastic Compliance Matrix: (Units=1/GPa)
#
#
# Indices 1 2 3 4 5 6 
#
# 1 0.009423 -0.009773 -0.003820 0.000000 0.000000 0.000000
# 2 -0.009773 0.118770 -0.006177 0.000000 0.000000 0.000000
# 3 -0.003820 -0.006177 0.008218 0.000000 0.000000 0.000000
# 4 0.000000 0.000000 0.000000 0.103402 0.000000 0.000000
# 5 0.000000 0.000000 0.000000 0.000000 0.035528 0.000000
# 6 0.000000 0.000000 0.000000 0.000000 0.000000 0.056382
#
#
# Mechanical properties :
#
#
# Convention : Reuss Voigt Hill
#
# Bulk Modulus (GPa) = 10.32319 65.46107 37.89213
# Shear Modulus (GPa) = 12.38996 26.02822 19.20909
#
# Velocity S-wave (km/s) = 2.68735 3.89504 3.34613
# Velocity P-wave (km/s) = 3.95554 7.64097 6.08403
#
# Compressibility (1/GPa) = 0.09686927
#
# Stress axis : x y z
#
# Youngs Moduli (GPa) = 106.12825 8.41966 121.68612
#
# Poissons Ratio (x) = 0.08229 0.46481
# Poissons Ratio (y) = 1.03724 0.75168
# Poissons Ratio (z) = 0.40538 0.05201
#
# Static dielectric constant tensor:
#      x y z
#    x 3.318660 0.000000 0.000000 
#    y 0.000000 2.643150 0.000000 
#    z 0.000000 0.000000 3.868870 
# 
# 
# High freq. dielectric constant tensor:
#      x y z
#    x 1.658020 0.000000 0.000000 
#    y 0.000000 1.605820 0.000000 
#    z 0.000000 0.000000 1.680470 
# 
# From -- ./inp_files/69127.got.cif
#   From: 2010.03.12/outbox.cif.g09.slc.cpg/sg65_35_cif.got.tgz:69127.got - 2010.04.10 20:52:16.
