data_PCOD8265961
_publ_section_title
;
Structure prediction by ZEFSAII (Michael W. Deem and Ramdas Pophale) SiO2 
 PCOD8265961
Probable space group: C M M M
;
_chemical_formula_sum "Si O2"
_cell_formula_units_Z 72
_cell_length_a 27.767481
_cell_length_b 19.134222
_cell_length_c 8.841176
_cell_angle_alpha 90.000000
_cell_angle_beta 90.000000
_cell_angle_gamma 90.000000
_cell_volume 4697.397669
_symmetry_space_group_name_H-M "C M M M"
_symmetry_group_IT_number 65
_symmetry_cell_setting 'orthorhombic'
loop_
_space_group_symop_operation_xyz
x,y,z
-x,-y,z
x,-y,-z
-x,y,-z
-x,-y,-z
x,y,-z
-x,y,z
x,-y,z
1/2+x,1/2+y,z
1/2-x,1/2-y,z
1/2+x,1/2-y,-z
1/2-x,1/2+y,-z
1/2-x,1/2-y,-z
1/2+x,1/2+y,-z
1/2-x,1/2+y,z
1/2+x,1/2-y,z
loop_
_atom_site_type_symbol
_atom_site_label
_atom_site_fract_x
_atom_site_fract_y
_atom_site_fract_z
Si Si1 0.000000 0.419340 0.821620
Si Si2 0.271894 0.346933 0.176234
Si Si3 0.845762 0.500000 0.677509
Si Si4 0.094842 0.370237 0.323084
Si Si5 0.181143 0.722716 0.322457
Si Si6 0.245823 0.000000 0.172199
O O1 0.954895 0.373549 0.766400
O O2 0.000000 0.500000 0.757847
O O3 0.000000 0.422155 0.000000
O O4 0.218894 0.328540 0.239469
O O5 0.312371 0.301707 0.262624
O O6 0.284314 0.428996 0.203531
O O7 0.273215 0.327850 0.000000
O O8 0.849245 0.500000 0.500000
O O9 0.872362 0.432410 0.742115
O O10 0.790652 0.500000 0.718802
O O11 0.083268 0.378166 0.500000
O O12 0.125864 0.300078 0.290197
O O13 0.192475 0.718348 0.500000
O O14 0.264651 0.000000 0.000000
#
# Coordination Sequence:
#
# PCOD8265961 Si02
#       6
#     8  16   8  16  16   8
#     4  11  23  33  45  67  91 116 151 192 227 261
#     4  10  19  30  44  64  90 120 150 185 226 267
#     4  10  18  29  45  64  85 120 157 189 226 261
#     4  10  20  33  48  63  86 119 155 190 227 266
#     4  10  19  31  46  65  87 116 153 189 224 267
#     4  10  20  30  43  65  92 121 154 188 224 267
#
# _framework density 15.327636
#
# number of rings (size 3 to 8) (size 9 to 14) (size 15 to 20)
#    0.000    1.889    3.333    3.000    0.000    4.000 
#    0.000    0.000    0.000    0.000    0.000    0.000 
#    0.000    0.889    0.000   10.000    0.000    4.444 
#
# Total GULP energy -446215.862023 kJ/mol
# GULP energy per Si atom -12394.885056 kJ/mol
# Density = 1.529275 g / cm^3
# Si number density = 15.327636 Si / 1000 Ang^3
#
#
#
# Elastic Constant Matrix: (Units=GPa)
#
#
# Indices 1 2 3 4 5 6 
#
# 1 90.3488 46.1320 34.0010 0.0000 0.0000 0.0000
# 2 46.1320 109.3387 28.2197 0.0000 0.0000 0.0000
# 3 34.0010 28.2197 56.0598 0.0000 0.0000 0.0000
# 4 0.0000 0.0000 0.0000 21.2132 0.0000 0.0000
# 5 0.0000 0.0000 0.0000 0.0000 -47.0287 0.0000
# 6 0.0000 0.0000 0.0000 0.0000 0.0000 20.4014
#
#
#
# Elastic Compliance Matrix: (Units=1/GPa)
#
#
# Indices 1 2 3 4 5 6 
#
# 1 0.016427 -0.005010 -0.007441 0.000000 0.000000 0.000000
# 2 -0.005010 0.012040 -0.003022 0.000000 0.000000 0.000000
# 3 -0.007441 -0.003022 0.023872 0.000000 0.000000 0.000000
# 4 0.000000 0.000000 0.000000 0.047140 0.000000 0.000000
# 5 0.000000 0.000000 0.000000 0.000000 -0.021264 0.000000
# 6 0.000000 0.000000 0.000000 0.000000 0.000000 0.049016
#
#
# Mechanical properties :
#
#
# Convention : Reuss Voigt Hill
#
# Bulk Modulus (GPa) = 46.74500 52.49473 49.61987
# Shear Modulus (GPa) = 30.24643 8.74348 19.49495
#
# Velocity S-wave (km/s) = 4.44703 2.39098 3.57022
# Velocity P-wave (km/s) = 7.54530 6.47651 7.03124
#
# Compressibility (1/GPa) = 0.02139266
#
# Stress axis : x y z
#
# Youngs Moduli (GPa) = 60.87650 83.05831 41.88964
#
# Poissons Ratio (x) = 0.41614 0.31170
# Poissons Ratio (y) = 0.30501 0.12658
# Poissons Ratio (z) = 0.45298 0.25099
#
# Static dielectric constant tensor:
#      x y z
#    x 2.728140 0.000000 0.000000 
#    y 0.000000 3.183370 0.000000 
#    z 0.000000 0.000000 2.977180 
# 
# 
# High freq. dielectric constant tensor:
#      x y z
#    x 1.551780 0.000000 0.000000 
#    y 0.000000 1.579190 0.000000 
#    z 0.000000 0.000000 1.597750 
# 
# From -- ./inp_files/15990.got.cif
#   From: 2010.03.12/outbox.cif.g09.slc.cpg/sg65_8_cif.got.tgz:15990.got - 2010.04.10 20:52:16.
