data_PCOD8265895
_publ_section_title
;
Structure prediction by ZEFSAII (Michael W. Deem and Ramdas Pophale) SiO2 
 PCOD8265895
Probable space group: C M M M
;
_chemical_formula_sum "Si O2"
_cell_formula_units_Z 104
_cell_length_a 22.511610
_cell_length_b 22.421484
_cell_length_c 12.573639
_cell_angle_alpha 90.000000
_cell_angle_beta 90.000000
_cell_angle_gamma 90.000000
_cell_volume 6346.465114
_symmetry_space_group_name_H-M "C M M M"
_symmetry_group_IT_number 65
_symmetry_cell_setting 'orthorhombic'
loop_
_space_group_symop_operation_xyz
x,y,z
-x,-y,z
x,-y,-z
-x,y,-z
-x,-y,-z
x,y,-z
-x,y,z
x,-y,z
1/2+x,1/2+y,z
1/2-x,1/2-y,z
1/2+x,1/2-y,-z
1/2-x,1/2+y,-z
1/2-x,1/2-y,-z
1/2+x,1/2+y,-z
1/2-x,1/2+y,z
1/2+x,1/2-y,z
loop_
_atom_site_type_symbol
_atom_site_label
_atom_site_fract_x
_atom_site_fract_y
_atom_site_fract_z
Si Si1 0.433061 0.166656 0.259156
Si Si2 0.762332 0.431718 0.750759
Si Si3 0.567134 0.282931 0.877665
Si Si4 0.619207 0.932369 0.122572
Si Si5 0.820357 0.854143 0.877203
Si Si6 0.250000 0.250000 0.774750
Si Si7 0.181987 0.666836 0.378201
O O1 0.500000 0.168620 0.303925
O O2 0.417558 0.226268 0.194332
O O3 0.426937 0.110273 0.181408
O O4 0.388377 0.158066 0.358053
O O5 0.754303 0.500000 0.715148
O O6 0.813661 0.422751 0.837899
O O7 0.700652 0.408935 0.802897
O O8 0.780427 0.393078 0.647404
O O9 0.500000 0.305460 0.857371
O O10 0.611318 0.337545 0.849749
O O11 0.576362 0.263300 0.000000
O O12 0.598415 0.000000 0.143101
O O13 0.618375 0.915418 0.000000
O O14 0.779751 0.797172 0.852902
O O15 0.813440 0.872541 0.000000
O O16 0.201665 0.279849 0.698241
O O17 0.192893 0.684056 0.500000
#
# Coordination Sequence:
#
# PCOD8265895 Si02
#       7
#    16  16  16  16  16   8  16
#     4  10  19  31  45  64  93 126 160 197 233 275
#     4   9  19  33  48  69  95 122 157 198 241 285
#     4   9  17  29  45  67  96 129 160 189 228 282
#     4   9  17  29  44  64  92 124 156 191 233 280
#     4  10  18  28  48  73  98 127 155 187 230 286
#     4  10  18  32  46  72  98 122 150 192 238 284
#     4  10  20  33  50  68  90 122 158 201 243 280
#
# _framework density 16.387074999999999
#
# number of rings (size 3 to 8) (size 9 to 14) (size 15 to 20)
#    0.000    2.462    1.538    1.385    0.000    2.769 
#    0.000    0.769    0.000    0.462    0.000    6.462 
#    0.000    0.000    0.000    4.000    0.000    0.000 
#
# Total GULP energy -644748.665493 kJ/mol
# GULP energy per Si atom -12399.012798 kJ/mol
# Density = 1.634978 g / cm^3
# Si number density = 16.387075 Si / 1000 Ang^3
#
#
#
# Elastic Constant Matrix: (Units=GPa)
#
#
# Indices 1 2 3 4 5 6 
#
# 1 80.8817 21.7277 22.8005 0.0000 0.0000 0.0000
# 2 21.7277 53.1577 3.9869 0.0000 0.0000 0.0000
# 3 22.8005 3.9869 47.2959 0.0000 0.0000 0.0000
# 4 0.0000 0.0000 0.0000 9.8171 0.0000 0.0000
# 5 0.0000 0.0000 0.0000 0.0000 13.9331 0.0000
# 6 0.0000 0.0000 0.0000 0.0000 0.0000 23.9952
#
#
#
# Elastic Compliance Matrix: (Units=1/GPa)
#
#
# Indices 1 2 3 4 5 6 
#
# 1 0.016009 -0.006003 -0.007212 0.000000 0.000000 0.000000
# 2 -0.006003 0.021182 0.001108 0.000000 0.000000 0.000000
# 3 -0.007212 0.001108 0.024527 0.000000 0.000000 0.000000
# 4 0.000000 0.000000 0.000000 0.101864 0.000000 0.000000
# 5 0.000000 0.000000 0.000000 0.000000 0.071771 0.000000
# 6 0.000000 0.000000 0.000000 0.000000 0.000000 0.041675
#
#
# Mechanical properties :
#
#
# Convention : Reuss Voigt Hill
#
# Bulk Modulus (GPa) = 26.66255 30.92950 28.79602
# Shear Modulus (GPa) = 15.93661 18.40375 17.17018
#
# Velocity S-wave (km/s) = 3.12189 3.35485 3.24047
# Velocity P-wave (km/s) = 5.41302 5.82426 5.62240
#
# Compressibility (1/GPa) = 0.03750579
#
# Stress axis : x y z
#
# Youngs Moduli (GPa) = 62.46374 47.20897 40.77184
#
# Poissons Ratio (x) = 0.28338 0.29404
# Poissons Ratio (y) = 0.37495 -0.04518
# Poissons Ratio (z) = 0.45048 -0.05232
#
# Static dielectric constant tensor:
#      x y z
#    x 3.148290 0.000000 0.000000 
#    y 0.000000 3.084330 0.000000 
#    z 0.000000 0.000000 2.832350 
# 
# 
# High freq. dielectric constant tensor:
#      x y z
#    x 1.628740 0.000000 0.000000 
#    y 0.000000 1.619150 0.000000 
#    z 0.000000 0.000000 1.609940 
# 
# From -- ./inp_files/29326.got.cif
#   From: 2010.03.12/outbox.cif.g09.slc.cpg/sg65_15_cif.got.tgz:29326.got - 2010.04.10 20:52:16.
