data_PCOD8265508
_publ_section_title
;
Structure prediction by ZEFSAII (Michael W. Deem and Ramdas Pophale) SiO2 
 PCOD8265508
Probable space group: C M M M
;
_chemical_formula_sum "Si O2"
_cell_formula_units_Z 88
_cell_length_a 8.824193
_cell_length_b 23.802853
_cell_length_c 23.208172
_cell_angle_alpha 90.000000
_cell_angle_beta 90.000000
_cell_angle_gamma 90.000000
_cell_volume 4874.666931
_symmetry_space_group_name_H-M "C M M M"
_symmetry_group_IT_number 65
_symmetry_cell_setting 'orthorhombic'
loop_
_space_group_symop_operation_xyz
x,y,z
-x,-y,z
x,-y,-z
-x,y,-z
-x,-y,-z
x,y,-z
-x,y,z
x,-y,z
1/2+x,1/2+y,z
1/2-x,1/2-y,z
1/2+x,1/2-y,-z
1/2-x,1/2+y,-z
1/2-x,1/2-y,-z
1/2+x,1/2+y,-z
1/2-x,1/2+y,z
1/2+x,1/2-y,z
loop_
_atom_site_type_symbol
_atom_site_label
_atom_site_fract_x
_atom_site_fract_y
_atom_site_fract_z
Si Si1 0.678692 0.893483 0.271803
Si Si2 0.330483 0.933447 0.500000
Si Si3 0.323879 0.500000 0.785037
Si Si4 0.679523 0.189111 0.827707
Si Si5 0.176074 0.622727 0.937965
Si Si6 0.821420 0.934868 0.617340
Si Si7 0.673064 0.000000 0.099205
O O1 0.500000 0.897966 0.279831
O O2 0.739914 0.946497 0.238632
O O3 0.724598 0.839763 0.233042
O O4 0.755502 0.892622 0.334626
O O5 0.500000 0.908409 0.500000
O O6 0.243195 0.912829 0.443259
O O7 0.334618 0.000000 0.500000
O O8 0.500000 0.500000 0.766979
O O9 0.302633 0.500000 0.852886
O O10 0.500000 0.193042 0.832552
O O11 0.750000 0.250000 0.828841
O O12 0.748258 0.153896 0.882245
O O13 0.200934 0.555742 0.937703
O O14 0.000000 0.636865 0.936515
O O15 0.243507 0.643956 0.000000
O O16 0.000000 0.929145 0.615540
O O17 0.774295 0.000000 0.630018
O O18 0.500000 0.000000 0.124568
#
# Coordination Sequence:
#
# PCOD8265508 Si02
#       7
#    16   8   8  16  16  16   8
#     4  11  21  35  54  76 103 138 180 220 262 319
#     4   9  17  29  45  69 106 153 190 213 246 299
#     4  12  22  31  49  78 107 136 167 212 269 320
#     4  10  22  38  55  76 101 134 176 225 270 315
#     4   9  17  31  54  81 104 132 172 214 259 316
#     4  10  19  30  47  76 111 144 178 217 262 307
#     4  10  17  32  54  78 105 135 169 208 257 319
#
# _framework density 18.052515
#
# number of rings (size 3 to 8) (size 9 to 14) (size 15 to 20)
#    0.000    1.909    2.727    2.455    0.000    4.727 
#    0.000    0.000    0.000    2.182    0.000    0.636 
#    0.000    0.000    0.000    0.000    0.000    0.000 
#
# Total GULP energy -545347.878785 kJ/mol
# GULP energy per Si atom -12394.269972 kJ/mol
# Density = 1.801143 g / cm^3
# Si number density = 18.052515 Si / 1000 Ang^3
#
#
#
# Elastic Constant Matrix: (Units=GPa)
#
#
# Indices 1 2 3 4 5 6 
#
# 1 51.7690 26.7913 48.9193 0.0000 0.0000 0.0000
# 2 26.7913 99.3073 58.2210 0.0000 0.0000 0.0000
# 3 48.9193 58.2210 177.8017 0.0000 0.0000 0.0000
# 4 0.0000 0.0000 0.0000 14.4742 0.0000 0.0000
# 5 0.0000 0.0000 0.0000 0.0000 15.9235 0.0000
# 6 0.0000 0.0000 0.0000 0.0000 0.0000 26.8364
#
#
#
# Elastic Compliance Matrix: (Units=1/GPa)
#
#
# Indices 1 2 3 4 5 6 
#
# 1 0.027127 -0.003642 -0.006271 0.000000 0.000000 0.000000
# 2 -0.003642 0.012951 -0.003239 0.000000 0.000000 0.000000
# 3 -0.006271 -0.003239 0.008410 0.000000 0.000000 0.000000
# 4 0.000000 0.000000 0.000000 0.069088 0.000000 0.000000
# 5 0.000000 0.000000 0.000000 0.000000 0.062800 0.000000
# 6 0.000000 0.000000 0.000000 0.000000 0.000000 0.037263
#
#
# Mechanical properties :
#
#
# Convention : Reuss Voigt Hill
#
# Bulk Modulus (GPa) = 45.07565 66.30457 55.69011
# Shear Modulus (GPa) = 19.89348 24.44325 22.16837
#
# Velocity S-wave (km/s) = 3.32321 3.68368 3.50808
# Velocity P-wave (km/s) = 6.30463 7.40953 6.87930
#
# Compressibility (1/GPa) = 0.02218493
#
# Stress axis : x y z
#
# Youngs Moduli (GPa) = 36.86334 77.21364 118.90342
#
# Poissons Ratio (x) = 0.28120 0.74566
# Poissons Ratio (y) = 0.13425 0.38511
# Poissons Ratio (z) = 0.23117 0.25008
#
# Static dielectric constant tensor:
#      x y z
#    x 3.239540 0.000000 0.000000 
#    y 0.000000 3.051740 0.000000 
#    z 0.000000 0.000000 3.777000 
# 
# 
# High freq. dielectric constant tensor:
#      x y z
#    x 1.684700 0.000000 0.000000 
#    y 0.000000 1.658210 0.000000 
#    z 0.000000 0.000000 1.717140 
# 
# From -- ./inp_files/59927.got.cif
#   From: 2010.03.12/outbox.cif.g09.slc.cpg/sg65_30_cif.got.tgz:59927.got - 2010.04.10 20:52:16.
