data_PCOD8265648
_publ_section_title
;
Structure prediction by ZEFSAII (Michael W. Deem and Ramdas Pophale) SiO2 
 PCOD8265648
Probable space group: C M M M
;
_chemical_formula_sum "Si O2"
_cell_formula_units_Z 96
_cell_length_a 28.213248
_cell_length_b 31.470433
_cell_length_c 7.763548
_cell_angle_alpha 90.000000
_cell_angle_beta 90.000000
_cell_angle_gamma 90.000000
_cell_volume 6893.123305
_symmetry_space_group_name_H-M "C M M M"
_symmetry_group_IT_number 65
_symmetry_cell_setting 'orthorhombic'
loop_
_space_group_symop_operation_xyz
x,y,z
-x,-y,z
x,-y,-z
-x,y,-z
-x,-y,-z
x,y,-z
-x,y,z
x,-y,z
1/2+x,1/2+y,z
1/2-x,1/2-y,z
1/2+x,1/2-y,-z
1/2-x,1/2+y,-z
1/2-x,1/2-y,-z
1/2+x,1/2+y,-z
1/2-x,1/2+y,z
1/2+x,1/2-y,z
loop_
_atom_site_type_symbol
_atom_site_label
_atom_site_fract_x
_atom_site_fract_y
_atom_site_fract_z
Si Si1 0.094411 0.045935 0.795462
Si Si2 0.553514 0.367148 0.203104
Si Si3 0.640367 0.686161 0.307052
Si Si4 0.701512 0.452698 0.797787
Si Si5 0.766860 0.134041 0.307499
Si Si6 0.269467 0.183078 0.000000
Si Si7 0.825715 0.236788 0.000000
O O1 0.062525 0.084850 0.727592
O O2 0.147978 0.051648 0.728202
O O3 0.074617 0.000000 0.729730
O O4 0.094827 0.045550 0.000000
O O5 0.500000 0.354174 0.250747
O O6 0.588659 0.334653 0.295134
O O7 0.562819 0.365006 0.000000
O O8 0.647128 0.704467 0.500000
O O9 0.680058 0.650626 0.265502
O O10 0.644783 0.724656 0.171293
O O11 0.721103 0.500000 0.754585
O O12 0.733559 0.417117 0.706006
O O13 0.703119 0.443914 0.000000
O O14 0.750984 0.147328 0.500000
O O15 0.730028 0.154105 0.171658
O O16 0.223741 0.212593 0.000000
O O17 0.316308 0.212584 0.000000
#
# Coordination Sequence:
#
# PCOD8265648 Si02
#       7
#    16  16  16  16  16   8   8
#     4   8  14  23  37  55  73  97 131 168 204 242
#     4  10  18  27  42  59  76 101 132 165 204 247
#     4  10  19  30  45  60  76 100 126 155 195 243
#     4   9  15  24  40  57  75 104 136 163 194 233
#     4  10  18  27  43  62  79 101 128 154 191 240
#     4   9  18  30  45  62  80  97 111 151 195 234
#     4   9  18  32  47  60  78  96 116 146 192 246
#
# _framework density 13.926923
#
# number of rings (size 3 to 8) (size 9 to 14) (size 15 to 20)
#    0.000    2.667    3.333    1.000    0.000    1.667 
#    0.000    5.000    0.000    0.500    0.000    1.167 
#    0.000    0.000    0.000    0.000    0.000    0.000 
#
# Total GULP energy -594942.076350 kJ/mol
# GULP energy per Si atom -12394.626591 kJ/mol
# Density = 1.389522 g / cm^3
# Si number density = 13.926923 Si / 1000 Ang^3
#
#
#
# Elastic Constant Matrix: (Units=GPa)
#
#
# Indices 1 2 3 4 5 6 
#
# 1 33.9946 36.6666 22.8830 0.0000 0.0000 0.0000
# 2 36.6666 75.5785 40.1820 0.0000 0.0000 0.0000
# 3 22.8830 40.1820 78.2810 0.0000 0.0000 0.0000
# 4 0.0000 0.0000 0.0000 6.7658 0.0000 0.0000
# 5 0.0000 0.0000 0.0000 0.0000 7.7422 0.0000
# 6 0.0000 0.0000 0.0000 0.0000 0.0000 20.4301
#
#
#
# Elastic Compliance Matrix: (Units=1/GPa)
#
#
# Indices 1 2 3 4 5 6 
#
# 1 0.062484 -0.028336 -0.003720 0.000000 0.000000 0.000000
# 2 -0.028336 0.031047 -0.007654 0.000000 0.000000 0.000000
# 3 -0.003720 -0.007654 0.017791 0.000000 0.000000 0.000000
# 4 0.000000 0.000000 0.000000 0.147801 0.000000 0.000000
# 5 0.000000 0.000000 0.000000 0.000000 0.129162 0.000000
# 6 0.000000 0.000000 0.000000 0.000000 0.000000 0.048947
#
#
# Mechanical properties :
#
#
# Convention : Reuss Voigt Hill
#
# Bulk Modulus (GPa) = 31.34573 43.03526 37.19050
# Shear Modulus (GPa) = 9.48251 12.86245 11.17248
#
# Velocity S-wave (km/s) = 2.61219 3.04232 2.83542
# Velocity P-wave (km/s) = 5.62621 6.58094 6.12221
#
# Compressibility (1/GPa) = 0.03190227
#
# Stress axis : x y z
#
# Youngs Moduli (GPa) = 16.00419 32.20881 56.20917
#
# Poissons Ratio (x) = 0.91266 0.20911
# Poissons Ratio (y) = 0.45349 0.43021
# Poissons Ratio (z) = 0.05954 0.24652
#
# Static dielectric constant tensor:
#      x y z
#    x 2.346070 0.000000 0.000000 
#    y 0.000000 2.777890 0.000000 
#    z 0.000000 0.000000 2.726330 
# 
# 
# High freq. dielectric constant tensor:
#      x y z
#    x 1.464600 0.000000 0.000000 
#    y 0.000000 1.513590 0.000000 
#    z 0.000000 0.000000 1.537220 
# 
# From -- ./inp_files/19160.got.cif
#   From: 2010.03.12/outbox.cif.g09.slc.cpg/sg65_10_cif.got.tgz:19160.got - 2010.04.10 20:52:16.
