data_PCOD8265700
_publ_section_title
;
Structure prediction by ZEFSAII (Michael W. Deem and Ramdas Pophale) SiO2 
 PCOD8265700
Probable space group: C M M M
;
_chemical_formula_sum "Si O2"
_cell_formula_units_Z 104
_cell_length_a 18.271895
_cell_length_b 26.495072
_cell_length_c 15.486766
_cell_angle_alpha 90.000000
_cell_angle_beta 90.000000
_cell_angle_gamma 90.000000
_cell_volume 7497.378411
_symmetry_space_group_name_H-M "C M M M"
_symmetry_group_IT_number 65
_symmetry_cell_setting 'orthorhombic'
loop_
_space_group_symop_operation_xyz
x,y,z
-x,-y,z
x,-y,-z
-x,y,-z
-x,-y,-z
x,y,-z
-x,y,z
x,-y,z
1/2+x,1/2+y,z
1/2-x,1/2-y,z
1/2+x,1/2-y,-z
1/2-x,1/2+y,-z
1/2-x,1/2-y,-z
1/2+x,1/2+y,-z
1/2-x,1/2+y,z
1/2+x,1/2-y,z
loop_
_atom_site_type_symbol
_atom_site_label
_atom_site_fract_x
_atom_site_fract_y
_atom_site_fract_z
Si Si1 0.177757 0.720743 0.600701
Si Si2 0.080583 0.812758 0.601153
Si Si3 0.586697 0.057529 0.500000
Si Si4 0.420594 0.940628 0.000000
Si Si5 0.418302 0.500000 0.397708
Si Si6 0.413025 0.941510 0.812589
Si Si7 0.164837 0.609330 0.657352
Si Si8 0.175403 0.905193 0.397188
O O1 0.185995 0.706513 0.500000
O O2 0.250000 0.750000 0.632207
O O3 0.108511 0.756380 0.619348
O O4 0.165939 0.669869 0.653706
O O5 0.074501 0.822834 0.500000
O O6 0.137269 0.854061 0.637493
O O7 0.000000 0.818894 0.643367
O O8 0.500000 0.058363 0.500000
O O9 0.613664 0.086279 0.584145
O O10 0.616124 0.000000 0.500000
O O11 0.382174 0.926573 0.091199
O O12 0.500000 0.914212 0.000000
O O13 0.432948 0.000000 0.000000
O O14 0.500000 0.500000 0.357839
O O15 0.423643 0.500000 0.500000
O O16 0.375554 0.549228 0.365945
O O17 0.500000 0.931418 0.805689
O O18 0.368103 0.906079 0.748843
O O19 0.396813 0.000000 0.790821
O O20 0.246687 0.588075 0.648240
O O21 0.187960 0.904441 0.500000
#
# Coordination Sequence:
#
# PCOD8265700 Si02
#       8
#    16  16   8   8   8  16  16  16
#     4  10  18  31  43  56  80 115 156 191 220 246
#     4   9  17  28  43  56  72 102 148 194 228 250
#     4  11  24  34  39  54  90 130 155 171 200 256
#     4   7  12  28  50  66  83 112 144 180 223 261
#     4   9  18  28  40  56  76 103 146 189 217 254
#     4   9  18  31  47  67  91 117 148 181 217 262
#     4  12  20  29  44  62  86 119 150 183 214 259
#     4  10  18  28  41  57  79 112 144 180 221 259
#
# _framework density 13.871515
#
# number of rings (size 3 to 8) (size 9 to 14) (size 15 to 20)
#    0.000    2.231    3.077    2.308    2.154    4.308 
#    0.000    0.000    0.000    0.000    0.000    0.538 
#    0.000    0.000    0.000    3.462    0.000    0.000 
#
# Total GULP energy -644544.520098 kJ/mol
# GULP energy per Si atom -12395.086925 kJ/mol
# Density = 1.383994 g / cm^3
# Si number density = 13.871515 Si / 1000 Ang^3
#
#
#
# Elastic Constant Matrix: (Units=GPa)
#
#
# Indices 1 2 3 4 5 6 
#
# 1 86.3963 37.8685 32.7272 0.0000 0.0000 0.0000
# 2 37.8685 95.8423 38.1483 0.0000 0.0000 0.0000
# 3 32.7272 38.1483 75.3751 0.0000 0.0000 0.0000
# 4 0.0000 0.0000 0.0000 6.3929 0.0000 0.0000
# 5 0.0000 0.0000 0.0000 0.0000 3.6688 0.0000
# 6 0.0000 0.0000 0.0000 0.0000 0.0000 20.1843
#
#
#
# Elastic Compliance Matrix: (Units=1/GPa)
#
#
# Indices 1 2 3 4 5 6 
#
# 1 0.015093 -0.004201 -0.004427 0.000000 0.000000 0.000000
# 2 -0.004201 0.014235 -0.005381 0.000000 0.000000 0.000000
# 3 -0.004427 -0.005381 0.017912 0.000000 0.000000 0.000000
# 4 0.000000 0.000000 0.000000 0.156422 0.000000 0.000000
# 5 0.000000 0.000000 0.000000 0.000000 0.272569 0.000000
# 6 0.000000 0.000000 0.000000 0.000000 0.000000 0.049543
#
#
# Mechanical properties :
#
#
# Convention : Reuss Voigt Hill
#
# Bulk Modulus (GPa) = 52.02076 52.78909 52.40492
# Shear Modulus (GPa) = 8.92537 15.97386 12.44961
#
# Velocity S-wave (km/s) = 2.53935 3.39714 2.99907
# Velocity P-wave (km/s) = 6.79566 7.31613 7.06069
#
# Compressibility (1/GPa) = 0.01922310
#
# Stress axis : x y z
#
# Youngs Moduli (GPa) = 66.25589 70.24710 55.82776
#
# Poissons Ratio (x) = 0.29514 0.24714
# Poissons Ratio (y) = 0.27837 0.30038
# Poissons Ratio (z) = 0.29331 0.37797
#
# Static dielectric constant tensor:
#      x y z
#    x 2.836690 0.000000 0.000000 
#    y 0.000000 2.806110 0.000000 
#    z 0.000000 0.000000 2.487960 
# 
# 
# High freq. dielectric constant tensor:
#      x y z
#    x 1.534740 0.000000 0.000000 
#    y 0.000000 1.533100 0.000000 
#    z 0.000000 0.000000 1.467850 
# 
# From -- ./inp_files/43293.got.cif
#   From: 2010.03.12/outbox.cif.g09.slc.cpg/sg65_22_cif.got.tgz:43293.got - 2010.04.10 20:52:16.
