data_PCOD8265861
_publ_section_title
;
Structure prediction by ZEFSAII (Michael W. Deem and Ramdas Pophale) SiO2 
 PCOD8265861
Probable space group: C M M M
;
_chemical_formula_sum "Si O2"
_cell_formula_units_Z 72
_cell_length_a 10.260698
_cell_length_b 17.040651
_cell_length_c 20.620318
_cell_angle_alpha 90.000000
_cell_angle_beta 90.000000
_cell_angle_gamma 90.000000
_cell_volume 3605.441438
_symmetry_space_group_name_H-M "C M M M"
_symmetry_group_IT_number 65
_symmetry_cell_setting 'orthorhombic'
loop_
_space_group_symop_operation_xyz
x,y,z
-x,-y,z
x,-y,-z
-x,y,-z
-x,-y,-z
x,y,-z
-x,y,z
x,-y,z
1/2+x,1/2+y,z
1/2-x,1/2-y,z
1/2+x,1/2-y,-z
1/2-x,1/2+y,-z
1/2-x,1/2-y,-z
1/2+x,1/2+y,-z
1/2-x,1/2+y,z
1/2+x,1/2-y,z
loop_
_atom_site_type_symbol
_atom_site_label
_atom_site_fract_x
_atom_site_fract_y
_atom_site_fract_z
Si Si1 0.262844 0.156809 0.636051
Si Si2 0.000000 0.091753 0.155315
Si Si3 0.000000 0.666247 0.720832
Si Si4 0.655197 0.824487 0.500000
Si Si5 0.000000 0.148371 0.699980
Si Si6 0.736698 0.406852 0.072374
Si Si7 0.500000 0.092573 0.859692
O O1 0.250000 0.250000 0.633812
O O2 0.371642 0.130151 0.687504
O O3 0.308532 0.126272 0.564833
O O4 0.125188 0.120492 0.658386
O O5 0.127372 0.128470 0.120621
O O6 0.000000 0.106080 0.231398
O O7 0.000000 0.000000 0.142617
O O8 0.000000 0.759445 0.712979
O O9 0.000000 0.642921 0.794942
O O10 0.500000 0.801660 0.500000
O O11 0.750000 0.750000 0.500000
O O12 0.728303 0.500000 0.070080
O O13 0.876466 0.380923 0.098688
O O14 0.716273 0.372651 0.000000
O O15 0.500000 0.000000 0.843282
#
# Coordination Sequence:
#
# PCOD8265861 Si02
#       7
#    16   8   8   8   8  16   8
#     4   9  18  29  46  68  97 127 159 195 238 283
#     4  10  19  32  51  73  95 121 160 200 238 288
#     4  10  18  32  47  67  98 131 156 190 240 289
#     4  10  18  28  46  72 101 128 162 206 244 277
#     4  10  20  32  47  71  98 129 158 190 242 291
#     4   9  17  30  49  72  95 120 155 202 246 281
#     4  10  19  30  49  73  95 123 162 198 234 282
#
# _framework density 19.969814
#
# number of rings (size 3 to 8) (size 9 to 14) (size 15 to 20)
#    0.000    2.444    1.111    2.000    4.667    2.667 
#    0.000    0.000    0.000    4.000    0.000    4.667 
#    0.000    0.000    0.000    0.000    0.000    0.000 
#
# Total GULP energy -446237.159665 kJ/mol
# GULP energy per Si atom -12395.476657 kJ/mol
# Density = 1.992436 g / cm^3
# Si number density = 19.969814 Si / 1000 Ang^3
#
#
#
# Elastic Constant Matrix: (Units=GPa)
#
#
# Indices 1 2 3 4 5 6 
#
# 1 202.9049 7.7054 86.8953 0.0000 0.0000 0.0000
# 2 7.7054 5.4497 3.2347 0.0000 0.0000 0.0000
# 3 86.8953 3.2347 172.2590 0.0000 0.0000 0.0000
# 4 0.0000 0.0000 0.0000 156.4695 0.0000 0.0000
# 5 0.0000 0.0000 0.0000 0.0000 45.9339 0.0000
# 6 0.0000 0.0000 0.0000 0.0000 0.0000 5.8484
#
#
#
# Elastic Compliance Matrix: (Units=1/GPa)
#
#
# Indices 1 2 3 4 5 6 
#
# 1 0.006569 -0.007404 -0.003175 0.000000 0.000000 0.000000
# 2 -0.007404 0.193910 0.000094 0.000000 0.000000 0.000000
# 3 -0.003175 0.000094 0.007405 0.000000 0.000000 0.000000
# 4 0.000000 0.000000 0.000000 0.006391 0.000000 0.000000
# 5 0.000000 0.000000 0.000000 0.000000 0.021770 0.000000
# 6 0.000000 0.000000 0.000000 0.000000 0.000000 0.170986
#
#
# Mechanical properties :
#
#
# Convention : Reuss Voigt Hill
#
# Bulk Modulus (GPa) = 5.35005 64.03159 34.69082
# Shear Modulus (GPa) = 10.19771 60.50225 35.34998
#
# Velocity S-wave (km/s) = 2.26222 5.51023 4.21190
# Velocity P-wave (km/s) = 3.08357 8.52158 6.40803
#
# Compressibility (1/GPa) = 0.18691399
#
# Stress axis : x y z
#
# Youngs Moduli (GPa) = 152.22558 5.15703 135.04469
#
# Poissons Ratio (x) = 0.03818 0.42874
# Poissons Ratio (y) = 1.12706 -0.01264
# Poissons Ratio (z) = 0.48328 -0.00048
#
# Static dielectric constant tensor:
#      x y z
#    x 4.117970 0.000000 0.000000 
#    y 0.000000 2.867800 0.000000 
#    z 0.000000 0.000000 4.009960 
# 
# 
# High freq. dielectric constant tensor:
#      x y z
#    x 1.803900 0.000000 0.000000 
#    y 0.000000 1.697850 0.000000 
#    z 0.000000 0.000000 1.800560 
# 
# From -- ./inp_files/51211.got.cif
#   From: 2010.03.12/outbox.cif.g09.slc.cpg/sg65_26_cif.got.tgz:51211.got - 2010.04.10 20:52:16.
