data_PCOD8265115
_publ_section_title
;
Structure prediction by ZEFSAII (Michael W. Deem and Ramdas Pophale) SiO2 
 PCOD8265115
Probable space group: C M M M
;
_chemical_formula_sum "Si O2"
_cell_formula_units_Z 80
_cell_length_a 10.365100
_cell_length_b 33.466987
_cell_length_c 17.158041
_cell_angle_alpha 90.000000
_cell_angle_beta 90.000000
_cell_angle_gamma 90.000000
_cell_volume 5951.929970
_symmetry_space_group_name_H-M "C M M M"
_symmetry_group_IT_number 65
_symmetry_cell_setting 'orthorhombic'
loop_
_space_group_symop_operation_xyz
x,y,z
-x,-y,z
x,-y,-z
-x,y,-z
-x,-y,-z
x,y,-z
-x,y,z
x,-y,z
1/2+x,1/2+y,z
1/2-x,1/2-y,z
1/2+x,1/2-y,-z
1/2-x,1/2+y,-z
1/2-x,1/2-y,-z
1/2+x,1/2+y,-z
1/2-x,1/2+y,z
1/2+x,1/2-y,z
loop_
_atom_site_type_symbol
_atom_site_label
_atom_site_fract_x
_atom_site_fract_y
_atom_site_fract_z
Si Si1 0.500000 0.299193 0.907771
Si Si2 0.141776 0.452448 0.500000
Si Si3 0.152730 0.420695 0.826498
Si Si4 0.259423 0.842425 0.092526
Si Si5 0.153121 0.500000 0.912890
Si Si6 0.846305 0.544702 0.333623
Si Si7 0.500000 0.209983 0.907706
O O1 0.373810 0.322729 0.879913
O O2 0.500000 0.254553 0.871571
O O3 0.500000 0.295500 0.000000
O O4 0.130013 0.500000 0.500000
O O5 0.210992 0.439984 0.417862
O O6 0.000000 0.432792 0.500000
O O7 0.229532 0.384159 0.863246
O O8 0.202000 0.460531 0.869331
O O9 0.191685 0.424905 0.735390
O O10 0.000000 0.414279 0.838045
O O11 0.373275 0.813249 0.120770
O O12 0.265499 0.850048 0.000000
O O13 0.000000 0.500000 0.913513
O O14 0.209799 0.500000 0.000000
O O15 0.794908 0.500000 0.314109
O O16 0.000000 0.542416 0.340666
O O17 0.500000 0.212916 0.000000
#
# Coordination Sequence:
#
# PCOD8265115 Si02
#       7
#     8   8  16  16   8  16   8
#     4   9  18  30  42  55  73 100 127 157 199 240
#     4   7  10  16  28  44  66  97 126 148 185 236
#     4  10  16  23  34  52  76 100 129 165 193 217
#     4  10  18  27  40  57  77 100 129 161 193 228
#     4   9  16  22  30  44  68 100 132 164 193 213
#     4   8  12  19  30  47  71  99 127 156 190 229
#     4   9  16  28  44  59  73  92 125 163 197 234
#
# _framework density 13.441019000000001
#
# number of rings (size 3 to 8) (size 9 to 14) (size 15 to 20)
#    0.000    3.000    2.000    2.400    0.000    3.200 
#    0.000    0.000    0.000    0.600    0.000    2.800 
#    0.000    0.800    0.000    9.000    0.000    1.300 
#
# Total GULP energy -495593.745380 kJ/mol
# GULP energy per Si atom -12389.843635 kJ/mol
# Density = 1.341043 g / cm^3
# Si number density = 13.441019 Si / 1000 Ang^3
#
#
#
# Elastic Constant Matrix: (Units=GPa)
#
#
# Indices 1 2 3 4 5 6 
#
# 1 61.1510 40.0266 20.4712 0.0000 0.0000 0.0000
# 2 40.0266 108.8267 45.5488 0.0000 0.0000 0.0000
# 3 20.4712 45.5488 88.7199 0.0000 0.0000 0.0000
# 4 0.0000 0.0000 0.0000 5.1146 0.0000 0.0000
# 5 0.0000 0.0000 0.0000 0.0000 5.0366 0.0000
# 6 0.0000 0.0000 0.0000 0.0000 0.0000 6.4300
#
#
#
# Elastic Compliance Matrix: (Units=1/GPa)
#
#
# Indices 1 2 3 4 5 6 
#
# 1 0.021631 -0.007473 -0.001155 0.000000 0.000000 0.000000
# 2 -0.007473 0.014285 -0.005610 0.000000 0.000000 0.000000
# 3 -0.001155 -0.005610 0.014418 0.000000 0.000000 0.000000
# 4 0.000000 0.000000 0.000000 0.195520 0.000000 0.000000
# 5 0.000000 0.000000 0.000000 0.000000 0.198545 0.000000
# 6 0.000000 0.000000 0.000000 0.000000 0.000000 0.155521
#
#
# Mechanical properties :
#
#
# Convention : Reuss Voigt Hill
#
# Bulk Modulus (GPa) = 45.74601 52.31009 49.02805
# Shear Modulus (GPa) = 7.86558 13.49298 10.67928
#
# Velocity S-wave (km/s) = 2.42170 3.17182 2.82180
# Velocity P-wave (km/s) = 6.47518 7.23994 6.86821
#
# Compressibility (1/GPa) = 0.02185983
#
# Stress axis : x y z
#
# Youngs Moduli (GPa) = 46.23071 70.00205 69.35799
#
# Poissons Ratio (x) = 0.52309 0.08009
# Poissons Ratio (y) = 0.34546 0.38909
# Poissons Ratio (z) = 0.05338 0.39270
#
# Static dielectric constant tensor:
#      x y z
#    x 2.359260 0.000000 0.000000 
#    y 0.000000 2.625010 0.000000 
#    z 0.000000 0.000000 2.860200 
# 
# 
# High freq. dielectric constant tensor:
#      x y z
#    x 1.467690 0.000000 0.000000 
#    y 0.000000 1.499280 0.000000 
#    z 0.000000 0.000000 1.494260 
# 
# From -- ./inp_files/52055.got.cif
#   From: 2010.03.12/outbox.cif.g09.slc.cpg/sg65_27_cif.got.tgz:52055.got - 2010.04.10 20:52:16.
