data_PCOD8265783
_publ_section_title
;
Structure prediction by ZEFSAII (Michael W. Deem and Ramdas Pophale) SiO2 
 PCOD8265783
Probable space group: C M M M
;
_chemical_formula_sum "Si O2"
_cell_formula_units_Z 104
_cell_length_a 14.313987
_cell_length_b 27.480515
_cell_length_c 18.206638
_cell_angle_alpha 90.000000
_cell_angle_beta 90.000000
_cell_angle_gamma 90.000000
_cell_volume 7161.685463
_symmetry_space_group_name_H-M "C M M M"
_symmetry_group_IT_number 65
_symmetry_cell_setting 'orthorhombic'
loop_
_space_group_symop_operation_xyz
x,y,z
-x,-y,z
x,-y,-z
-x,y,-z
-x,-y,-z
x,y,-z
-x,y,z
x,-y,z
1/2+x,1/2+y,z
1/2-x,1/2-y,z
1/2+x,1/2-y,-z
1/2-x,1/2+y,-z
1/2-x,1/2-y,-z
1/2+x,1/2+y,-z
1/2-x,1/2+y,z
1/2+x,1/2-y,z
loop_
_atom_site_type_symbol
_atom_site_label
_atom_site_fract_x
_atom_site_fract_y
_atom_site_fract_z
Si Si1 0.111198 0.113947 0.142443
Si Si2 0.605454 0.123873 0.081293
Si Si3 0.396823 0.943928 0.213227
Si Si4 0.704315 0.557184 0.275233
Si Si5 0.889100 0.945234 0.000000
Si Si6 0.895174 0.057730 0.419553
Si Si7 0.268246 0.303963 0.084706
O O1 0.148477 0.087665 0.214913
O O2 0.146475 0.082889 0.072235
O O3 0.153941 0.168095 0.133466
O O4 0.000000 0.117923 0.146798
O O5 0.500000 0.142162 0.092700
O O6 0.632221 0.082228 0.138337
O O7 0.669004 0.170405 0.093827
O O8 0.620329 0.101692 0.000000
O O9 0.500000 0.927394 0.242443
O O10 0.315944 0.932979 0.272548
O O11 0.399080 0.000000 0.192659
O O12 0.681128 0.500000 0.263684
O O13 0.672670 0.576496 0.355185
O O14 0.000000 0.946886 0.000000
O O15 0.848348 0.000000 0.000000
O O16 0.861114 0.076660 0.500000
O O17 0.000000 0.076811 0.404057
O O18 0.895308 0.000000 0.420088
O O19 0.250000 0.250000 0.115841
O O20 0.302303 0.302264 0.000000
#
# Coordination Sequence:
#
# PCOD8265783 Si02
#       7
#    16  16  16  16   8  16  16
#     4  11  20  30  43  63  89 115 147 182 220 264
#     4   9  17  30  45  59  76 102 143 187 221 255
#     4   9  17  28  42  61  85 112 142 178 220 259
#     4  10  18  28  44  66  91 121 150 176 213 261
#     4   9  18  30  41  56  85 121 148 169 202 256
#     4   8  14  25  41  62  89 120 151 178 204 244
#     4  10  20  33  46  59  78 108 149 190 227 263
#
# _framework density 14.52172
#
# number of rings (size 3 to 8) (size 9 to 14) (size 15 to 20)
#    0.000    2.538    2.308    1.385    0.000    2.462 
#    0.000    3.077    0.000    0.462    0.000    3.231 
#    0.000    0.615    0.000    0.000    0.000    0.000 
#
# Total GULP energy -644526.637334 kJ/mol
# GULP energy per Si atom -12394.743026 kJ/mol
# Density = 1.448867 g / cm^3
# Si number density = 14.521720 Si / 1000 Ang^3
#
#
#
# Elastic Constant Matrix: (Units=GPa)
#
#
# Indices 1 2 3 4 5 6 
#
# 1 86.7883 35.5319 59.4376 0.0000 0.0000 0.0000
# 2 35.5319 61.1453 37.4644 0.0000 0.0000 0.0000
# 3 59.4376 37.4644 109.9650 0.0000 0.0000 0.0000
# 4 0.0000 0.0000 0.0000 5.0117 0.0000 0.0000
# 5 0.0000 0.0000 0.0000 0.0000 21.3960 0.0000
# 6 0.0000 0.0000 0.0000 0.0000 0.0000 16.7958
#
#
#
# Elastic Compliance Matrix: (Units=1/GPa)
#
#
# Indices 1 2 3 4 5 6 
#
# 1 0.020066 -0.006338 -0.008687 0.000000 0.000000 0.000000
# 2 -0.006338 0.022671 -0.004298 0.000000 0.000000 0.000000
# 3 -0.008687 -0.004298 0.015253 0.000000 0.000000 0.000000
# 4 0.000000 0.000000 0.000000 0.199532 0.000000 0.000000
# 5 0.000000 0.000000 0.000000 0.000000 0.046738 0.000000
# 6 0.000000 0.000000 0.000000 0.000000 0.000000 0.059539
#
#
# Mechanical properties :
#
#
# Convention : Reuss Voigt Hill
#
# Bulk Modulus (GPa) = 51.69316 58.08518 54.88917
# Shear Modulus (GPa) = 12.22813 17.00503 14.61658
#
# Velocity S-wave (km/s) = 2.90497 3.42571 3.17603
# Velocity P-wave (km/s) = 6.85027 7.46545 7.16447
#
# Compressibility (1/GPa) = 0.01934492
#
# Stress axis : x y z
#
# Youngs Moduli (GPa) = 49.83446 44.10903 65.55898
#
# Poissons Ratio (x) = 0.27957 0.56950
# Poissons Ratio (y) = 0.31586 0.28177
# Poissons Ratio (z) = 0.43290 0.18958
#
# Static dielectric constant tensor:
#      x y z
#    x 3.032070 0.000000 0.000000 
#    y 0.000000 2.630440 0.000000 
#    z 0.000000 0.000000 2.863490 
# 
# 
# High freq. dielectric constant tensor:
#      x y z
#    x 1.567110 0.000000 0.000000 
#    y 0.000000 1.522530 0.000000 
#    z 0.000000 0.000000 1.529440 
# 
# From -- ./inp_files/53626.got.cif
#   From: 2010.03.12/outbox.cif.g09.slc.cpg/sg65_27_cif.got.tgz:53626.got - 2010.04.10 20:52:16.
