data_PCOD8265628
_publ_section_title
;
Structure prediction by ZEFSAII (Michael W. Deem and Ramdas Pophale) SiO2 
 PCOD8265628
Probable space group: C M M M
;
_chemical_formula_sum "Si O2"
_cell_formula_units_Z 96
_cell_length_a 27.817987
_cell_length_b 31.215267
_cell_length_c 7.839853
_cell_angle_alpha 90.000000
_cell_angle_beta 90.000000
_cell_angle_gamma 90.000000
_cell_volume 6807.704143
_symmetry_space_group_name_H-M "C M M M"
_symmetry_group_IT_number 65
_symmetry_cell_setting 'orthorhombic'
loop_
_space_group_symop_operation_xyz
x,y,z
-x,-y,z
x,-y,-z
-x,y,-z
-x,-y,-z
x,y,-z
-x,y,z
x,-y,z
1/2+x,1/2+y,z
1/2-x,1/2-y,z
1/2+x,1/2-y,-z
1/2-x,1/2+y,-z
1/2-x,1/2-y,-z
1/2+x,1/2+y,-z
1/2-x,1/2+y,z
1/2+x,1/2-y,z
loop_
_atom_site_type_symbol
_atom_site_label
_atom_site_fract_x
_atom_site_fract_y
_atom_site_fract_z
Si Si1 0.091315 0.047436 0.695123
Si Si2 0.553774 0.366205 0.193455
Si Si3 0.642158 0.684344 0.310644
Si Si4 0.698131 0.451890 0.801740
Si Si5 0.762222 0.132542 0.306913
Si Si6 0.272052 0.182934 0.000000
Si Si7 0.826415 0.234529 0.000000
O O1 0.075272 0.051526 0.500000
O O2 0.062696 0.082815 0.801150
O O3 0.148230 0.054836 0.705110
O O4 0.078581 0.000000 0.766944
O O5 0.500000 0.356242 0.259676
O O6 0.591593 0.340432 0.307507
O O7 0.559985 0.350762 0.000000
O O8 0.648233 0.704445 0.500000
O O9 0.684176 0.650253 0.273813
O O10 0.643968 0.721978 0.170179
O O11 0.718127 0.500000 0.772638
O O12 0.736644 0.418515 0.725184
O O13 0.689554 0.442201 0.000000
O O14 0.744604 0.142268 0.500000
O O15 0.725861 0.154206 0.171713
O O16 0.224181 0.210817 0.000000
O O17 0.318130 0.214323 0.000000
#
# Coordination Sequence:
#
# PCOD8265628 Si02
#       7
#    16  16  16  16  16   8   8
#     4  10  20  31  42  57  75  98 132 170 209 251
#     4  11  22  33  45  59  76 100 134 171 207 251
#     4  10  19  31  47  62  79 103 128 159 201 246
#     4  10  18  27  41  59  79 106 138 167 197 238
#     4  10  18  28  44  63  83 104 129 159 196 241
#     4   9  18  30  45  64  82 101 119 153 195 242
#     4   9  18  32  47  62  82  98 122 152 192 250
#
# _framework density 14.101671
#
# number of rings (size 3 to 8) (size 9 to 14) (size 15 to 20)
#    0.000    2.000    3.333    1.500    0.000    4.333 
#    0.000    5.000    0.000    0.000    0.000    0.000 
#    0.000    0.000    0.000    0.000    0.000    0.000 
#
# Total GULP energy -595130.248286 kJ/mol
# GULP energy per Si atom -12398.546839 kJ/mol
# Density = 1.406957 g / cm^3
# Si number density = 14.101671 Si / 1000 Ang^3
#
#
#
# Elastic Constant Matrix: (Units=GPa)
#
#
# Indices 1 2 3 4 5 6 
#
# 1 29.1046 31.7953 20.6070 0.0000 0.0000 0.0000
# 2 31.7953 71.2144 39.3817 0.0000 0.0000 0.0000
# 3 20.6070 39.3817 91.2975 0.0000 0.0000 0.0000
# 4 0.0000 0.0000 0.0000 15.2967 0.0000 0.0000
# 5 0.0000 0.0000 0.0000 0.0000 9.9094 0.0000
# 6 0.0000 0.0000 0.0000 0.0000 0.0000 15.6519
#
#
#
# Elastic Compliance Matrix: (Units=1/GPa)
#
#
# Indices 1 2 3 4 5 6 
#
# 1 0.067672 -0.028586 -0.002944 0.000000 0.000000 0.000000
# 2 -0.028586 0.030516 -0.006711 0.000000 0.000000 0.000000
# 3 -0.002944 -0.006711 0.014513 0.000000 0.000000 0.000000
# 4 0.000000 0.000000 0.000000 0.065373 0.000000 0.000000
# 5 0.000000 0.000000 0.000000 0.000000 0.100915 0.000000
# 6 0.000000 0.000000 0.000000 0.000000 0.000000 0.063890
#
#
# Mechanical properties :
#
#
# Convention : Reuss Voigt Hill
#
# Bulk Modulus (GPa) = 27.60971 41.68714 34.64843
# Shear Modulus (GPa) = 11.58930 14.82710 13.20820
#
# Velocity S-wave (km/s) = 2.86988 3.24611 3.06378
# Velocity P-wave (km/s) = 5.53201 6.60876 6.09421
#
# Compressibility (1/GPa) = 0.03621914
#
# Stress axis : x y z
#
# Youngs Moduli (GPa) = 14.77726 32.76960 68.90595
#
# Poissons Ratio (x) = 0.93674 0.20284
# Poissons Ratio (y) = 0.42242 0.46244
# Poissons Ratio (z) = 0.04350 0.21992
#
# Static dielectric constant tensor:
#      x y z
#    x 2.347010 0.000000 0.000000 
#    y 0.000000 2.784260 0.000000 
#    z 0.000000 0.000000 2.900210 
# 
# 
# High freq. dielectric constant tensor:
#      x y z
#    x 1.470360 0.000000 0.000000 
#    y 0.000000 1.518860 0.000000 
#    z 0.000000 0.000000 1.559210 
# 
# From -- ./inp_files/19159.got.cif
#   From: 2010.03.12/outbox.cif.g09.slc.cpg/sg65_10_cif.got.tgz:19159.got - 2010.04.10 20:52:16.
