data_PCOD8265826
_publ_section_title
;
Structure prediction by ZEFSAII (Michael W. Deem and Ramdas Pophale) SiO2 
 PCOD8265826
Probable space group: C M M M
;
_chemical_formula_sum "Si O2"
_cell_formula_units_Z 104
_cell_length_a 27.703633
_cell_length_b 10.719954
_cell_length_c 19.856030
_cell_angle_alpha 90.000000
_cell_angle_beta 90.000000
_cell_angle_gamma 90.000000
_cell_volume 5896.876977
_symmetry_space_group_name_H-M "C M M M"
_symmetry_group_IT_number 65
_symmetry_cell_setting 'orthorhombic'
loop_
_space_group_symop_operation_xyz
x,y,z
-x,-y,z
x,-y,-z
-x,y,-z
-x,-y,-z
x,y,-z
-x,y,z
x,-y,z
1/2+x,1/2+y,z
1/2-x,1/2-y,z
1/2+x,1/2-y,-z
1/2-x,1/2+y,-z
1/2-x,1/2-y,-z
1/2+x,1/2+y,-z
1/2-x,1/2+y,z
1/2+x,1/2-y,z
loop_
_atom_site_type_symbol
_atom_site_label
_atom_site_fract_x
_atom_site_fract_y
_atom_site_fract_z
Si Si1 0.212980 0.142188 0.137820
Si Si2 0.611134 0.645910 0.926129
Si Si3 0.787807 0.857571 0.295042
Si Si4 0.107229 0.796096 0.665499
Si Si5 0.054955 0.851671 0.200867
Si Si6 0.946754 0.644588 0.573637
Si Si7 0.942964 0.000000 0.423618
O O1 0.250000 0.250000 0.115618
O O2 0.165721 0.172322 0.095357
O O3 0.200537 0.154594 0.216341
O O4 0.231822 0.000000 0.122810
O O5 0.601767 0.500000 0.930915
O O6 0.574247 0.700948 0.870743
O O7 0.601726 0.706548 0.000000
O O8 0.750000 0.750000 0.317124
O O9 0.836659 0.831845 0.336153
O O10 0.769588 0.000000 0.310989
O O11 0.087891 0.793539 0.741347
O O12 0.095388 0.665188 0.629704
O O13 0.076191 0.882367 0.616625
O O14 0.000000 0.808534 0.209626
O O15 0.060464 0.000000 0.204949
O O16 0.934290 0.705093 0.500000
O O17 0.950051 0.500000 0.563228
O O18 0.000000 0.694728 0.596778
O O19 0.923470 0.000000 0.500000
O O20 0.000000 0.000000 0.421289
#
# Coordination Sequence:
#
# PCOD8265826 Si02
#       7
#    16  16  16  16  16  16   8
#     4   9  17  31  50  73 101 133 171 218 270 321
#     4   9  17  29  45  67  99 137 175 212 256 311
#     4  10  20  35  54  77 106 140 182 229 278 327
#     4  12  19  32  54  79 104 136 174 217 267 316
#     4  10  18  28  45  71 104 138 171 209 259 314
#     4   9  19  35  53  76 109 144 173 207 259 322
#     4  11  22  32  50  84 115 135 161 203 263 327
#
# _framework density 17.636452999999999
#
# number of rings (size 3 to 8) (size 9 to 14) (size 15 to 20)
#    0.000    2.077    3.077    2.308    0.000    2.462 
#    0.000    1.538    0.000    1.846    0.000    0.000 
#    0.000    0.000    0.000    4.615    0.000    1.692 
#
# Total GULP energy -644321.434163 kJ/mol
# GULP energy per Si atom -12390.796811 kJ/mol
# Density = 1.759631 g / cm^3
# Si number density = 17.636453 Si / 1000 Ang^3
#
#
#
# Elastic Constant Matrix: (Units=GPa)
#
#
# Indices 1 2 3 4 5 6 
#
# 1 88.5047 39.2167 48.1110 0.0000 0.0000 0.0000
# 2 39.2167 61.0063 23.6515 0.0000 0.0000 0.0000
# 3 48.1110 23.6515 95.1009 0.0000 0.0000 0.0000
# 4 0.0000 0.0000 0.0000 0.7698 0.0000 0.0000
# 5 0.0000 0.0000 0.0000 0.0000 23.4425 0.0000
# 6 0.0000 0.0000 0.0000 0.0000 0.0000 14.2574
#
#
#
# Elastic Compliance Matrix: (Units=1/GPa)
#
#
# Indices 1 2 3 4 5 6 
#
# 1 0.019726 -0.009752 -0.007554 0.000000 0.000000 0.000000
# 2 -0.009752 0.022962 -0.000777 0.000000 0.000000 0.000000
# 3 -0.007554 -0.000777 0.014530 0.000000 0.000000 0.000000
# 4 0.000000 0.000000 0.000000 1.298981 0.000000 0.000000
# 5 0.000000 0.000000 0.000000 0.000000 0.042658 0.000000
# 6 0.000000 0.000000 0.000000 0.000000 0.000000 0.070139
#
#
# Mechanical properties :
#
#
# Convention : Reuss Voigt Hill
#
# Bulk Modulus (GPa) = 47.50201 51.84114 49.67158
# Shear Modulus (GPa) = 3.30648 16.60279 9.95464
#
# Velocity S-wave (km/s) = 1.37072 3.07154 2.37836
# Velocity P-wave (km/s) = 5.43117 6.48361 5.98059
#
# Compressibility (1/GPa) = 0.02105174
#
# Stress axis : x y z
#
# Youngs Moduli (GPa) = 50.69337 43.55023 68.82312
#
# Poissons Ratio (x) = 0.42471 0.51990
# Poissons Ratio (y) = 0.49437 0.05348
# Poissons Ratio (z) = 0.38294 0.03384
#
# Static dielectric constant tensor:
#      x y z
#    x 3.213310 0.000000 0.000000 
#    y 0.000000 -35.300200 0.000000 
#    z 0.000000 0.000000 3.473920 
# 
# 
# High freq. dielectric constant tensor:
#      x y z
#    x 1.671000 0.000000 0.000000 
#    y 0.000000 1.654540 0.000000 
#    z 0.000000 0.000000 1.684950 
# 
# From -- ./inp_files/57555.got.cif
#   From: 2010.03.12/outbox.cif.g09.slc.cpg/sg65_29_cif.got.tgz:57555.got - 2010.04.10 20:52:16.
