data_PCOD8265743
_publ_section_title
;
Structure prediction by ZEFSAII (Michael W. Deem and Ramdas Pophale) SiO2 
 PCOD8265743
Probable space group: C M M M
;
_chemical_formula_sum "Si O2"
_cell_formula_units_Z 104
_cell_length_a 27.342992
_cell_length_b 8.984587
_cell_length_c 26.259692
_cell_angle_alpha 90.000000
_cell_angle_beta 90.000000
_cell_angle_gamma 90.000000
_cell_volume 6451.100115
_symmetry_space_group_name_H-M "C M M M"
_symmetry_group_IT_number 65
_symmetry_cell_setting 'orthorhombic'
loop_
_space_group_symop_operation_xyz
x,y,z
-x,-y,z
x,-y,-z
-x,y,-z
-x,-y,-z
x,y,-z
-x,y,z
x,-y,z
1/2+x,1/2+y,z
1/2-x,1/2-y,z
1/2+x,1/2-y,-z
1/2-x,1/2+y,-z
1/2-x,1/2-y,-z
1/2+x,1/2+y,-z
1/2-x,1/2+y,z
1/2+x,1/2-y,z
loop_
_atom_site_type_symbol
_atom_site_label
_atom_site_fract_x
_atom_site_fract_y
_atom_site_fract_z
Si Si1 0.891937 0.324510 0.147424
Si Si2 0.802556 0.674236 0.389810
Si Si3 0.353701 0.329453 0.300394
Si Si4 0.943591 0.170943 0.058606
Si Si5 0.301363 0.674465 0.803787
Si Si6 0.444631 0.328409 0.236271
Si Si7 0.300800 0.171488 0.500000
O O1 0.884809 0.500000 0.150925
O O2 0.909600 0.279203 0.091400
O O3 0.840550 0.245209 0.158113
O O4 0.932838 0.273017 0.187816
O O5 0.794316 0.500000 0.382466
O O6 0.750000 0.750000 0.381952
O O7 0.841228 0.728652 0.348480
O O8 0.826547 0.711970 0.445916
O O9 0.349279 0.500000 0.317268
O O10 0.316801 0.293721 0.254337
O O11 0.408920 0.289541 0.283218
O O12 0.000000 0.212775 0.067914
O O13 0.934457 0.000000 0.074473
O O14 0.929433 0.196023 0.000000
O O15 0.298004 0.500000 0.814828
O O16 0.250000 0.750000 0.814988
O O17 0.500000 0.299125 0.254177
O O18 0.436107 0.500000 0.219892
O O19 0.250000 0.250000 0.500000
O O20 0.288277 0.000000 0.500000
#
# Coordination Sequence:
#
# PCOD8265743 Si02
#       7
#    16  16  16  16  16  16   8
#     4  11  21  31  47  72  99 125 153 187 227 271
#     4  10  18  28  43  62  88 119 149 183 221 264
#     4   9  18  30  45  67  91 116 148 184 224 269
#     4   9  18  33  52  72  95 125 158 190 228 274
#     4  10  20  34  50  68  93 124 157 191 226 268
#     4   9  18  33  50  66  89 122 155 187 226 272
#     4   8  16  28  40  58  83 114 149 181 218 263
#
# _framework density 16.121282000000001
#
# number of rings (size 3 to 8) (size 9 to 14) (size 15 to 20)
#    0.000    2.462    0.000    4.615    0.000    7.692 
#    0.000    0.769    0.000    0.462    0.000    0.538 
#    0.000    4.308    0.000    0.000    0.000    0.000 
#
# Total GULP energy -644647.185323 kJ/mol
# GULP energy per Si atom -12397.061256 kJ/mol
# Density = 1.608459 g / cm^3
# Si number density = 16.121282 Si / 1000 Ang^3
#
#
#
# Elastic Constant Matrix: (Units=GPa)
#
#
# Indices 1 2 3 4 5 6 
#
# 1 104.8663 46.4904 54.5153 0.0000 0.0000 0.0000
# 2 46.4904 89.3364 54.8244 0.0000 0.0000 0.0000
# 3 54.5153 54.8244 109.7177 0.0000 0.0000 0.0000
# 4 0.0000 0.0000 0.0000 26.5653 0.0000 0.0000
# 5 0.0000 0.0000 0.0000 0.0000 19.8979 0.0000
# 6 0.0000 0.0000 0.0000 0.0000 0.0000 24.5748
#
#
#
# Elastic Compliance Matrix: (Units=1/GPa)
#
#
# Indices 1 2 3 4 5 6 
#
# 1 0.013928 -0.004329 -0.004758 0.000000 0.000000 0.000000
# 2 -0.004329 0.017489 -0.006589 0.000000 0.000000 0.000000
# 3 -0.004758 -0.006589 0.014770 0.000000 0.000000 0.000000
# 4 0.000000 0.000000 0.000000 0.037643 0.000000 0.000000
# 5 0.000000 0.000000 0.000000 0.000000 0.050257 0.000000
# 6 0.000000 0.000000 0.000000 0.000000 0.000000 0.040692
#
#
# Mechanical properties :
#
#
# Convention : Reuss Voigt Hill
#
# Bulk Modulus (GPa) = 67.39104 68.39784 67.89444
# Shear Modulus (GPa) = 23.68823 24.08029 23.88426
#
# Velocity S-wave (km/s) = 3.83740 3.86903 3.85325
# Velocity P-wave (km/s) = 7.84395 7.90432 7.87419
#
# Compressibility (1/GPa) = 0.01483877
#
# Stress axis : x y z
#
# Youngs Moduli (GPa) = 71.79694 57.17724 67.70308
#
# Poissons Ratio (x) = 0.24749 0.32210
# Poissons Ratio (y) = 0.31078 0.44606
# Poissons Ratio (z) = 0.34158 0.37671
#
# Static dielectric constant tensor:
#      x y z
#    x 2.920940 0.000000 0.000000 
#    y 0.000000 3.057030 0.000000 
#    z 0.000000 0.000000 3.241360 
# 
# 
# High freq. dielectric constant tensor:
#      x y z
#    x 1.598640 0.000000 0.000000 
#    y 0.000000 1.626530 0.000000 
#    z 0.000000 0.000000 1.614820 
# 
# From -- ./inp_files/76023.got.cif
#   From: 2010.03.12/outbox.cif.g09.slc.cpg/sg65_39_cif.got.tgz:76023.got - 2010.04.10 20:52:16.
