data_PCOD8265387
_publ_section_title
;
Structure prediction by ZEFSAII (Michael W. Deem and Ramdas Pophale) SiO2 
 PCOD8265387
Probable space group: C M M M
;
_chemical_formula_sum "Si O2"
_cell_formula_units_Z 112
_cell_length_a 18.910748
_cell_length_b 18.098974
_cell_length_c 18.908310
_cell_angle_alpha 90.000000
_cell_angle_beta 90.000000
_cell_angle_gamma 90.000000
_cell_volume 6471.655301
_symmetry_space_group_name_H-M "C M M M"
_symmetry_group_IT_number 65
_symmetry_cell_setting 'orthorhombic'
loop_
_space_group_symop_operation_xyz
x,y,z
-x,-y,z
x,-y,-z
-x,y,-z
-x,-y,-z
x,y,-z
-x,y,z
x,-y,z
1/2+x,1/2+y,z
1/2-x,1/2-y,z
1/2+x,1/2-y,-z
1/2-x,1/2+y,-z
1/2-x,1/2-y,-z
1/2+x,1/2+y,-z
1/2-x,1/2+y,z
1/2+x,1/2-y,z
loop_
_atom_site_type_symbol
_atom_site_label
_atom_site_fract_x
_atom_site_fract_y
_atom_site_fract_z
Si Si1 0.920721 0.727384 0.169863
Si Si2 0.581816 0.762263 0.579753
Si Si3 0.625721 0.080700 0.212143
Si Si4 0.674392 0.288593 0.705067
Si Si5 0.418309 0.081373 0.633452
Si Si6 0.815224 0.197310 0.918457
Si Si7 0.210712 0.083877 0.198468
O O1 0.921511 0.638343 0.168099
O O2 0.871908 0.747601 0.236238
O O3 0.887461 0.758050 0.097291
O O4 0.000000 0.758254 0.178636
O O5 0.596113 0.735142 0.500000
O O6 0.500000 0.748843 0.601305
O O7 0.632236 0.714597 0.630977
O O8 0.599241 0.850503 0.581557
O O9 0.625977 0.095735 0.295986
O O10 0.706012 0.085749 0.188008
O O11 0.593912 0.000000 0.195745
O O12 0.750000 0.250000 0.696760
O O13 0.685535 0.373164 0.730551
O O14 0.500000 0.082791 0.655309
O O15 0.399596 0.000000 0.600086
O O16 0.750000 0.250000 0.896077
O O17 0.818878 0.123306 0.871824
O O18 0.811231 0.174523 0.000000
O O19 0.181818 0.000000 0.203210
#
# Coordination Sequence:
#
# PCOD8265387 Si02
#       7
#    16  16  16  16  16  16  16
#     4  11  19  31  53  78 104 138 173 211 258 303
#     4  10  20  32  48  73 104 139 178 220 266 315
#     4  10  17  28  47  76 108 136 170 208 248 301
#     4  11  19  34  53  76 104 136 176 220 257 305
#     4   9  16  26  42  67 102 142 175 206 250 301
#     4  10  20  36  54  76 106 139 175 213 251 303
#     4  10  19  33  55  79 102 132 173 219 265 306
#
# _framework density 17.306235999999998
#
# number of rings (size 3 to 8) (size 9 to 14) (size 15 to 20)
#    0.000    1.857    4.286    1.714    0.000    2.000 
#    0.000    1.429    0.000   11.571    0.000    6.000 
#    0.000    0.000    0.000    0.000    0.000    0.000 
#
# Total GULP energy -694124.127510 kJ/mol
# GULP energy per Si atom -12395.073706 kJ/mol
# Density = 1.726685 g / cm^3
# Si number density = 17.306236 Si / 1000 Ang^3
#
#
#
# Elastic Constant Matrix: (Units=GPa)
#
#
# Indices 1 2 3 4 5 6 
#
# 1 87.6233 30.1808 34.9418 0.0000 0.0000 0.0000
# 2 30.1808 112.1784 46.4634 0.0000 0.0000 0.0000
# 3 34.9418 46.4634 87.4325 0.0000 0.0000 0.0000
# 4 0.0000 0.0000 0.0000 19.1123 0.0000 0.0000
# 5 0.0000 0.0000 0.0000 0.0000 23.1287 0.0000
# 6 0.0000 0.0000 0.0000 0.0000 0.0000 19.9008
#
#
#
# Elastic Compliance Matrix: (Units=1/GPa)
#
#
# Indices 1 2 3 4 5 6 
#
# 1 0.013866 -0.001840 -0.004563 0.000000 0.000000 0.000000
# 2 -0.001840 0.011675 -0.005469 0.000000 0.000000 0.000000
# 3 -0.004563 -0.005469 0.016167 0.000000 0.000000 0.000000
# 4 0.000000 0.000000 0.000000 0.052322 0.000000 0.000000
# 5 0.000000 0.000000 0.000000 0.000000 0.043236 0.000000
# 6 0.000000 0.000000 0.000000 0.000000 0.000000 0.050249
#
#
# Mechanical properties :
#
#
# Convention : Reuss Voigt Hill
#
# Bulk Modulus (GPa) = 55.66992 56.71181 56.19087
# Shear Modulus (GPa) = 23.01509 24.13823 23.57666
#
# Velocity S-wave (km/s) = 3.65070 3.73871 3.69497
# Velocity P-wave (km/s) = 7.07160 7.17482 7.12340
#
# Compressibility (1/GPa) = 0.01796302
#
# Stress axis : x y z
#
# Youngs Moduli (GPa) = 72.11783 85.65625 61.85332
#
# Poissons Ratio (x) = 0.15765 0.28227
# Poissons Ratio (y) = 0.13273 0.33825
# Poissons Ratio (z) = 0.32911 0.46842
#
# Static dielectric constant tensor:
#      x y z
#    x 3.164060 0.000000 0.000000 
#    y 0.000000 3.430090 0.000000 
#    z 0.000000 0.000000 3.032560 
# 
# 
# High freq. dielectric constant tensor:
#      x y z
#    x 1.658550 0.000000 0.000000 
#    y 0.000000 1.661720 0.000000 
#    z 0.000000 0.000000 1.646680 
# 
# From -- ./inp_files/56053.got.cif
#   From: 2010.03.12/outbox.cif.g09.slc.cpg/sg65_29_cif.got.tgz:56053.got - 2010.04.10 20:52:16.
