data_PCOD8265542
_publ_section_title
;
Structure prediction by ZEFSAII (Michael W. Deem and Ramdas Pophale) SiO2 
 PCOD8265542
Probable space group: C M M M
;
_chemical_formula_sum "Si O2"
_cell_formula_units_Z 88
_cell_length_a 10.263824
_cell_length_b 28.266508
_cell_length_c 20.411398
_cell_angle_alpha 90.000000
_cell_angle_beta 90.000000
_cell_angle_gamma 90.000000
_cell_volume 5921.805065
_symmetry_space_group_name_H-M "C M M M"
_symmetry_group_IT_number 65
_symmetry_cell_setting 'orthorhombic'
loop_
_space_group_symop_operation_xyz
x,y,z
-x,-y,z
x,-y,-z
-x,y,-z
-x,-y,-z
x,y,-z
-x,y,z
x,-y,z
1/2+x,1/2+y,z
1/2-x,1/2-y,z
1/2+x,1/2-y,-z
1/2-x,1/2+y,-z
1/2-x,1/2-y,-z
1/2+x,1/2+y,-z
1/2-x,1/2+y,z
1/2+x,1/2-y,z
loop_
_atom_site_type_symbol
_atom_site_label
_atom_site_fract_x
_atom_site_fract_y
_atom_site_fract_z
Si Si1 0.751240 0.149332 0.576878
Si Si2 0.656136 0.204879 0.000000
Si Si3 0.500000 0.198786 0.369605
Si Si4 0.645729 0.051439 0.577684
Si Si5 0.500000 0.804293 0.221044
Si Si6 0.500000 0.310498 0.647599
Si Si7 0.500000 0.307834 0.797231
Si Si8 0.761554 0.306392 0.862124
O O1 0.780396 0.151353 0.500000
O O2 0.625847 0.181264 0.591513
O O3 0.731990 0.095337 0.602262
O O4 0.872458 0.168851 0.615383
O O5 0.750000 0.250000 0.000000
O O6 0.694860 0.175658 0.065411
O O7 0.500000 0.217700 0.000000
O O8 0.500000 0.178979 0.295892
O O9 0.500000 0.254932 0.364735
O O10 0.637774 0.053654 0.500000
O O11 0.500000 0.057241 0.606258
O O12 0.703423 0.000000 0.599717
O O13 0.500000 0.748433 0.208970
O O14 0.629788 0.825192 0.188180
O O15 0.500000 0.326753 0.723161
O O16 0.623945 0.327304 0.837903
O O17 0.750000 0.250000 0.861996
#
# Coordination Sequence:
#
# PCOD8265542 Si02
#       8
#    16   8   8  16   8   8   8  16
#     4  11  21  33  47  66  86 109 144 190 236 276
#     4  10  18  24  36  58  80  98 124 172 231 268
#     4  11  21  32  47  60  81 117 162 190 218 262
#     4   8  14  28  50  70  85 103 131 172 223 278
#     4   9  16  28  40  53  70 103 141 183 211 242
#     4  11  23  34  43  60  89 119 150 188 230 264
#     4   9  18  30  40  51  70 109 145 173 207 252
#     4   9  16  25  39  53  74  96 132 174 218 253
#
# _framework density 14.860334999999999
#
# number of rings (size 3 to 8) (size 9 to 14) (size 15 to 20)
#    0.000    2.364    1.818    2.727    3.818    5.091 
#    0.000    0.455    0.000    2.182    0.000    0.000 
#    0.000    0.000    0.000    0.000    0.000    0.000 
#
# Total GULP energy -545232.831791 kJ/mol
# GULP energy per Si atom -12391.655268 kJ/mol
# Density = 1.482651 g / cm^3
# Si number density = 14.860335 Si / 1000 Ang^3
#
#
#
# Elastic Constant Matrix: (Units=GPa)
#
#
# Indices 1 2 3 4 5 6 
#
# 1 130.8128 28.2968 50.5408 0.0000 0.0000 0.0000
# 2 28.2968 61.0144 22.3422 0.0000 0.0000 0.0000
# 3 50.5408 22.3422 91.7324 0.0000 0.0000 0.0000
# 4 0.0000 0.0000 0.0000 0.0643 0.0000 0.0000
# 5 0.0000 0.0000 0.0000 0.0000 22.0704 0.0000
# 6 0.0000 0.0000 0.0000 0.0000 0.0000 -34.0703
#
#
#
# Elastic Compliance Matrix: (Units=1/GPa)
#
#
# Indices 1 2 3 4 5 6 
#
# 1 0.010166 -0.002925 -0.004889 0.000000 0.000000 0.000000
# 2 -0.002925 0.018836 -0.002976 0.000000 0.000000 0.000000
# 3 -0.004889 -0.002976 0.014320 0.000000 0.000000 0.000000
# 4 0.000000 0.000000 0.000000 15.552401 0.000000 0.000000
# 5 0.000000 0.000000 0.000000 0.000000 0.045310 0.000000
# 6 0.000000 0.000000 0.000000 0.000000 0.000000 -0.029351
#
#
# Mechanical properties :
#
#
# Convention : Reuss Voigt Hill
#
# Bulk Modulus (GPa) = 45.99343 53.99100 49.99221
# Shear Modulus (GPa) = 0.31968 9.77153 5.04560
#
# Velocity S-wave (km/s) = 0.46432 2.56707 1.84465
# Velocity P-wave (km/s) = 5.59510 6.72292 6.18477
#
# Compressibility (1/GPa) = 0.02174224
#
# Stress axis : x y z
#
# Youngs Moduli (GPa) = 98.36776 53.09056 69.83409
#
# Poissons Ratio (x) = 0.15526 0.34140
# Poissons Ratio (y) = 0.28768 0.20785
# Poissons Ratio (z) = 0.48089 0.15801
#
# Static dielectric constant tensor:
#      x y z
#    x 3.008560 0.000000 0.000000 
#    y 0.000000 2.674660 0.000000 
#    z 0.000000 0.000000 3.079300 
# 
# 
# High freq. dielectric constant tensor:
#      x y z
#    x 1.582410 0.000000 0.000000 
#    y 0.000000 1.506560 0.000000 
#    z 0.000000 0.000000 1.565330 
# 
# From -- ./inp_files/68460.got.cif
#   From: 2010.03.12/outbox.cif.g09.slc.cpg/sg65_35_cif.got.tgz:68460.got - 2010.04.10 20:52:16.
