data_PCOD8265122
_publ_section_title
;
Structure prediction by ZEFSAII (Michael W. Deem and Ramdas Pophale) SiO2 
 PCOD8265122
Probable space group: C M M M
;
_chemical_formula_sum "Si O2"
_cell_formula_units_Z 88
_cell_length_a 36.447352
_cell_length_b 8.068591
_cell_length_c 20.821712
_cell_angle_alpha 90.000000
_cell_angle_beta 90.000000
_cell_angle_gamma 90.000000
_cell_volume 6123.223586
_symmetry_space_group_name_H-M "C M M M"
_symmetry_group_IT_number 65
_symmetry_cell_setting 'orthorhombic'
loop_
_space_group_symop_operation_xyz
x,y,z
-x,-y,z
x,-y,-z
-x,y,-z
-x,-y,-z
x,y,-z
-x,y,z
x,-y,z
1/2+x,1/2+y,z
1/2-x,1/2-y,z
1/2+x,1/2-y,-z
1/2-x,1/2+y,-z
1/2-x,1/2-y,-z
1/2+x,1/2+y,-z
1/2-x,1/2+y,z
1/2+x,1/2-y,z
loop_
_atom_site_type_symbol
_atom_site_label
_atom_site_fract_x
_atom_site_fract_y
_atom_site_fract_z
Si Si1 0.791303 0.307523 0.632460
Si Si2 0.088068 0.186118 0.924916
Si Si3 0.208135 0.810219 0.233046
Si Si4 0.291458 0.695242 0.000000
Si Si5 0.837773 0.312015 0.118216
Si Si6 0.791928 0.194492 0.500000
Si Si7 0.958940 0.500000 0.923797
O O1 0.793510 0.500000 0.647652
O O2 0.750000 0.250000 0.622678
O O3 0.807576 0.213080 0.694511
O O4 0.811729 0.263799 0.564998
O O5 0.126237 0.197910 0.886567
O O6 0.060631 0.330082 0.899975
O O7 0.071756 0.000000 0.913201
O O8 0.096667 0.213268 0.000000
O O9 0.250000 0.750000 0.228662
O O10 0.181979 0.707692 0.186378
O O11 0.206389 0.000000 0.212153
O O12 0.250000 0.750000 0.000000
O O13 0.309107 0.768931 0.063408
O O14 0.296002 0.500000 0.000000
O O15 0.851029 0.500000 0.109892
O O16 0.750000 0.250000 0.500000
O O17 0.795022 0.000000 0.500000
O O18 0.000000 0.500000 0.895047
O O19 0.960376 0.500000 0.000000
#
# Coordination Sequence:
#
# PCOD8265122 Si02
#       7
#    16  16  16   8  16   8   8
#     4  10  17  27  40  56  75  98 127 166 212 260
#     4  10  19  32  49  69  89 113 141 170 211 257
#     4  11  21  33  44  58  79 106 139 181 226 264
#     4  12  24  36  46  62  78 103 142 186 229 266
#     4  12  22  34  48  62  81 110 141 181 220 263
#     4  10  16  24  38  56  74  96 124 160 206 257
#     4   9  18  32  50  72  94 112 134 167 209 261
#
# _framework density 14.371515
#
# number of rings (size 3 to 8) (size 9 to 14) (size 15 to 20)
#    0.000    1.364    1.818    9.273    0.000    0.364 
#    0.000    1.818    0.000    0.000    0.000    0.000 
#    0.000    0.000    0.000    0.000    0.000    0.000 
#
# Total GULP energy -545462.222258 kJ/mol
# GULP energy per Si atom -12396.868688 kJ/mol
# Density = 1.433881 g / cm^3
# Si number density = 14.371515 Si / 1000 Ang^3
#
#
#
# Elastic Constant Matrix: (Units=GPa)
#
#
# Indices 1 2 3 4 5 6 
#
# 1 64.0553 22.5556 23.4851 0.0000 0.0000 0.0000
# 2 22.5556 102.8484 11.7137 0.0000 0.0000 0.0000
# 3 23.4851 11.7137 87.2596 0.0000 0.0000 0.0000
# 4 0.0000 0.0000 0.0000 20.1195 0.0000 0.0000
# 5 0.0000 0.0000 0.0000 0.0000 0.3920 0.0000
# 6 0.0000 0.0000 0.0000 0.0000 0.0000 15.4398
#
#
#
# Elastic Compliance Matrix: (Units=1/GPa)
#
#
# Indices 1 2 3 4 5 6 
#
# 1 0.018513 -0.003547 -0.004506 0.000000 0.000000 0.000000
# 2 -0.003547 0.010554 -0.000462 0.000000 0.000000 0.000000
# 3 -0.004506 -0.000462 0.012735 0.000000 0.000000 0.000000
# 4 0.000000 0.000000 0.000000 0.049703 0.000000 0.000000
# 5 0.000000 0.000000 0.000000 0.000000 2.550880 0.000000
# 6 0.000000 0.000000 0.000000 0.000000 0.000000 0.064768
#
#
# Mechanical properties :
#
#
# Convention : Reuss Voigt Hill
#
# Bulk Modulus (GPa) = 40.37050 41.07468 40.72259
# Shear Modulus (GPa) = 1.82987 20.28420 11.05703
#
# Velocity S-wave (km/s) = 1.12961 3.76096 2.77676
# Velocity P-wave (km/s) = 5.46379 6.89220 6.21914
#
# Compressibility (1/GPa) = 0.02477056
#
# Stress axis : x y z
#
# Youngs Moduli (GPa) = 54.01720 94.75515 78.52407
#
# Poissons Ratio (x) = 0.33607 0.35386
# Poissons Ratio (y) = 0.19159 0.03629
# Poissons Ratio (z) = 0.24342 0.04379
#
# Static dielectric constant tensor:
#      x y z
#    x 2.476710 0.000000 0.000000 
#    y 0.000000 3.050030 0.000000 
#    z 0.000000 0.000000 3.208510 
# 
# 
# High freq. dielectric constant tensor:
#      x y z
#    x 1.488130 0.000000 0.000000 
#    y 0.000000 1.577330 0.000000 
#    z 0.000000 0.000000 1.538170 
# 
# From -- ./inp_files/66280.got.cif
#   From: 2010.03.12/outbox.cif.g09.slc.cpg/sg65_34_cif.got.tgz:66280.got - 2010.04.10 20:52:16.
