data_PCOD8265658
_publ_section_title
;
Structure prediction by ZEFSAII (Michael W. Deem and Ramdas Pophale) SiO2 
 PCOD8265658
Probable space group: C M M M
;
_chemical_formula_sum "Si O2"
_cell_formula_units_Z 104
_cell_length_a 30.607987
_cell_length_b 9.015688
_cell_length_c 22.684908
_cell_angle_alpha 90.000000
_cell_angle_beta 90.000000
_cell_angle_gamma 90.000000
_cell_volume 6259.947118
_symmetry_space_group_name_H-M "C M M M"
_symmetry_group_IT_number 65
_symmetry_cell_setting 'orthorhombic'
loop_
_space_group_symop_operation_xyz
x,y,z
-x,-y,z
x,-y,-z
-x,y,-z
-x,-y,-z
x,y,-z
-x,y,z
x,-y,z
1/2+x,1/2+y,z
1/2-x,1/2-y,z
1/2+x,1/2-y,-z
1/2-x,1/2+y,-z
1/2-x,1/2-y,-z
1/2+x,1/2+y,-z
1/2-x,1/2+y,z
1/2+x,1/2-y,z
loop_
_atom_site_type_symbol
_atom_site_label
_atom_site_fract_x
_atom_site_fract_y
_atom_site_fract_z
Si Si1 0.050562 0.830944 0.431939
Si Si2 0.792041 0.333758 0.215991
Si Si3 0.385855 0.176171 0.654245
Si Si4 0.290660 0.162142 0.355644
Si Si5 0.448318 0.338274 0.000000
Si Si6 0.451075 0.322868 0.873514
Si Si7 0.881338 0.176771 0.777711
O O1 0.060120 0.796680 0.500000
O O2 0.077902 0.716553 0.393326
O O3 0.000000 0.804736 0.417400
O O4 0.063674 0.000000 0.416805
O O5 0.795268 0.500000 0.189455
O O6 0.750000 0.250000 0.188465
O O7 0.786197 0.344332 0.285668
O O8 0.835289 0.241456 0.200230
O O9 0.338404 0.230439 0.629645
O O10 0.396290 0.258610 0.715060
O O11 0.384880 0.000000 0.665872
O O12 0.250000 0.250000 0.383856
O O13 0.287381 0.000000 0.383792
O O14 0.435839 0.257317 0.062022
O O15 0.425616 0.500000 0.000000
O O16 0.500000 0.358905 0.000000
O O17 0.500000 0.266794 0.857359
O O18 0.451166 0.500000 0.877811
O O19 0.417778 0.268321 0.823808
O O20 0.877882 0.000000 0.773314
#
# Coordination Sequence:
#
# PCOD8265658 Si02
#       7
#    16  16  16  16   8  16  16
#     4   9  19  36  55  72  89 113 150 193 233 275
#     4   9  16  27  42  61  87 118 152 188 226 269
#     4  10  20  32  46  68  96 123 152 186 225 270
#     4   8  15  26  41  62  87 114 144 177 212 255
#     4   7  10  20  38  58  82 113 150 191 228 261
#     4   8  14  24  39  61  89 120 153 188 225 267
#     4  10  18  27  42  67  97 125 152 184 227 274
#
# _framework density 16.613558999999999
#
# number of rings (size 3 to 8) (size 9 to 14) (size 15 to 20)
#    0.000    3.154    0.000    3.692    0.000    5.538 
#    0.000    2.308    0.000    1.846    0.000    2.692 
#    0.000    7.385    0.000    0.000    0.000    0.000 
#
# Total GULP energy -644320.075296 kJ/mol
# GULP energy per Si atom -12390.770679 kJ/mol
# Density = 1.657575 g / cm^3
# Si number density = 16.613559 Si / 1000 Ang^3
#
#
#
# Elastic Constant Matrix: (Units=GPa)
#
#
# Indices 1 2 3 4 5 6 
#
# 1 116.9856 43.6193 61.8054 0.0000 0.0000 0.0000
# 2 43.6193 69.6192 33.0093 0.0000 0.0000 0.0000
# 3 61.8054 33.0093 70.0710 0.0000 0.0000 0.0000
# 4 0.0000 0.0000 0.0000 5.3016 0.0000 0.0000
# 5 0.0000 0.0000 0.0000 0.0000 0.4242 0.0000
# 6 0.0000 0.0000 0.0000 0.0000 0.0000 26.0939
#
#
#
# Elastic Compliance Matrix: (Units=1/GPa)
#
#
# Indices 1 2 3 4 5 6 
#
# 1 0.017071 -0.004579 -0.012900 0.000000 0.000000 0.000000
# 2 -0.004579 0.019723 -0.005252 0.000000 0.000000 0.000000
# 3 -0.012900 -0.005252 0.028124 0.000000 0.000000 0.000000
# 4 0.000000 0.000000 0.000000 0.188624 0.000000 0.000000
# 5 0.000000 0.000000 0.000000 0.000000 2.357345 0.000000
# 6 0.000000 0.000000 0.000000 0.000000 0.000000 0.038323
#
#
# Mechanical properties :
#
#
# Convention : Reuss Voigt Hill
#
# Bulk Modulus (GPa) = 51.40069 59.28264 55.34167
# Shear Modulus (GPa) = 1.85106 14.24672 8.04889
#
# Velocity S-wave (km/s) = 1.05669 2.93155 2.20347
# Velocity P-wave (km/s) = 5.70044 6.87164 6.31325
#
# Compressibility (1/GPa) = 0.01945499
#
# Stress axis : x y z
#
# Youngs Moduli (GPa) = 58.58018 50.70178 35.55722
#
# Poissons Ratio (x) = 0.23217 0.45868
# Poissons Ratio (y) = 0.26825 0.18676
# Poissons Ratio (z) = 0.75567 0.26630
#
# Static dielectric constant tensor:
#      x y z
#    x 3.268670 0.000000 0.000000 
#    y 0.000000 3.034880 0.000000 
#    z 0.000000 0.000000 2.972120 
# 
# 
# High freq. dielectric constant tensor:
#      x y z
#    x 1.642010 0.000000 0.000000 
#    y 0.000000 1.625170 0.000000 
#    z 0.000000 0.000000 1.603500 
# 
# From -- ./inp_files/72168.got.cif
#   From: 2010.03.12/outbox.cif.g09.slc.cpg/sg65_37_cif.got.tgz:72168.got - 2010.04.10 20:52:16.
