data_PCOD8265848
_publ_section_title
;
Structure prediction by ZEFSAII (Michael W. Deem and Ramdas Pophale) SiO2 
 PCOD8265848
Probable space group: C M M M
;
_chemical_formula_sum "Si O2"
_cell_formula_units_Z 96
_cell_length_a 20.103324
_cell_length_b 29.954757
_cell_length_c 9.309862
_cell_angle_alpha 90.000000
_cell_angle_beta 90.000000
_cell_angle_gamma 90.000000
_cell_volume 5606.307523
_symmetry_space_group_name_H-M "C M M M"
_symmetry_group_IT_number 65
_symmetry_cell_setting 'orthorhombic'
loop_
_space_group_symop_operation_xyz
x,y,z
-x,-y,z
x,-y,-z
-x,y,-z
-x,-y,-z
x,y,-z
-x,y,z
x,-y,z
1/2+x,1/2+y,z
1/2-x,1/2-y,z
1/2+x,1/2-y,-z
1/2-x,1/2+y,-z
1/2-x,1/2-y,-z
1/2+x,1/2+y,-z
1/2-x,1/2+y,z
1/2+x,1/2-y,z
loop_
_atom_site_type_symbol
_atom_site_label
_atom_site_fract_x
_atom_site_fract_y
_atom_site_fract_z
Si Si1 0.881601 0.131449 0.164367
Si Si2 0.773152 0.365986 0.168333
Si Si3 0.385268 0.548542 0.661536
Si Si4 0.727149 0.950623 0.661936
Si Si5 0.424362 0.271753 0.164509
Si Si6 0.186204 0.720335 0.330185
O O1 0.804595 0.139248 0.202931
O O2 0.914098 0.089720 0.247865
O O3 0.921057 0.176044 0.205564
O O4 0.890050 0.118744 0.000000
O O5 0.800605 0.413294 0.228700
O O6 0.810914 0.326907 0.251141
O O7 0.788998 0.363010 0.000000
O O8 0.410890 0.554658 0.500000
O O9 0.409741 0.500000 0.720445
O O10 0.306186 0.549555 0.667843
O O11 0.703347 0.939498 0.500000
O O12 0.701039 0.000000 0.707522
O O13 0.500000 0.255317 0.181105
O O14 0.379880 0.244335 0.274668
O O15 0.399192 0.265126 0.000000
O O16 0.181253 0.712793 0.500000
O O17 0.250000 0.750000 0.288875
#
# Coordination Sequence:
#
# PCOD8265848 Si02
#       6
#    16  16  16  16  16  16
#     4   9  17  28  44  67  91 119 157 200 243 289
#     4  10  18  28  46  70  97 127 162 205 245 289
#     4   8  14  24  39  60  86 118 155 195 240 287
#     4   8  14  25  40  61  94 130 159 193 240 291
#     4  10  21  37  54  71  96 129 163 203 252 301
#     4  11  22  34  51  74  99 129 165 206 249 296
#
# _framework density 17.123570999999998
#
# number of rings (size 3 to 8) (size 9 to 14) (size 15 to 20)
#    0.000    2.667    1.667    2.000    0.000    3.000 
#    0.000    3.333    0.000    0.500    0.000    3.500 
#    0.000    0.667    0.000    7.000    0.000    3.333 
#
# Total GULP energy -595023.280226 kJ/mol
# GULP energy per Si atom -12396.318338 kJ/mol
# Density = 1.708460 g / cm^3
# Si number density = 17.123571 Si / 1000 Ang^3
#
#
#
# Elastic Constant Matrix: (Units=GPa)
#
#
# Indices 1 2 3 4 5 6 
#
# 1 42.4937 31.9844 29.4688 0.0000 0.0000 0.0000
# 2 31.9844 104.6435 55.1420 0.0000 0.0000 0.0000
# 3 29.4688 55.1420 82.4809 0.0000 0.0000 0.0000
# 4 0.0000 0.0000 0.0000 38.6065 0.0000 0.0000
# 5 0.0000 0.0000 0.0000 0.0000 11.9627 0.0000
# 6 0.0000 0.0000 0.0000 0.0000 0.0000 4.9960
#
#
#
# Elastic Compliance Matrix: (Units=1/GPa)
#
#
# Indices 1 2 3 4 5 6 
#
# 1 0.033626 -0.006094 -0.007940 0.000000 0.000000 0.000000
# 2 -0.006094 0.015858 -0.008425 0.000000 0.000000 0.000000
# 3 -0.007940 -0.008425 0.020593 0.000000 0.000000 0.000000
# 4 0.000000 0.000000 0.000000 0.025902 0.000000 0.000000
# 5 0.000000 0.000000 0.000000 0.000000 0.083593 0.000000
# 6 0.000000 0.000000 0.000000 0.000000 0.000000 0.200160
#
#
# Mechanical properties :
#
#
# Convention : Reuss Voigt Hill
#
# Bulk Modulus (GPa) = 39.74513 51.42319 45.58416
# Shear Modulus (GPa) = 11.54637 18.64789 15.09713
#
# Velocity S-wave (km/s) = 2.59954 3.30361 2.97249
# Velocity P-wave (km/s) = 5.68078 6.68189 6.20157
#
# Compressibility (1/GPa) = 0.02516032
#
# Stress axis : x y z
#
# Youngs Moduli (GPa) = 29.73898 63.05858 48.56010
#
# Poissons Ratio (x) = 0.38427 0.38556
# Poissons Ratio (y) = 0.18123 0.40910
# Poissons Ratio (z) = 0.23612 0.53125
#
# Static dielectric constant tensor:
#      x y z
#    x 2.693710 0.000000 0.000000 
#    y 0.000000 3.521190 0.000000 
#    z 0.000000 0.000000 3.265700 
# 
# 
# High freq. dielectric constant tensor:
#      x y z
#    x 1.600360 0.000000 0.000000 
#    y 0.000000 1.672860 0.000000 
#    z 0.000000 0.000000 1.662580 
# 
# From -- ./inp_files/12183.got.cif
#   From: 2010.03.12/outbox.cif.g09.slc.cpg/sg65_7_cif.got.tgz:12183.got - 2010.04.10 20:52:16.
