data_PCOD8265616
_publ_section_title
;
Structure prediction by ZEFSAII (Michael W. Deem and Ramdas Pophale) SiO2 
 PCOD8265616
Probable space group: C M M M
;
_chemical_formula_sum "Si O2"
_cell_formula_units_Z 104
_cell_length_a 27.432359
_cell_length_b 8.021589
_cell_length_c 27.995668
_cell_angle_alpha 90.000000
_cell_angle_beta 90.000000
_cell_angle_gamma 90.000000
_cell_volume 6160.477796
_symmetry_space_group_name_H-M "C M M M"
_symmetry_group_IT_number 65
_symmetry_cell_setting 'orthorhombic'
loop_
_space_group_symop_operation_xyz
x,y,z
-x,-y,z
x,-y,-z
-x,y,-z
-x,-y,-z
x,y,-z
-x,y,z
x,-y,z
1/2+x,1/2+y,z
1/2-x,1/2-y,z
1/2+x,1/2-y,-z
1/2-x,1/2+y,-z
1/2-x,1/2-y,-z
1/2+x,1/2+y,-z
1/2-x,1/2+y,z
1/2+x,1/2-y,z
loop_
_atom_site_type_symbol
_atom_site_label
_atom_site_fract_x
_atom_site_fract_y
_atom_site_fract_z
Si Si1 0.445399 0.809842 0.297739
Si Si2 0.357944 0.693090 0.753803
Si Si3 0.805329 0.303354 0.949628
Si Si4 0.444188 0.000000 0.556454
Si Si5 0.694413 0.196816 0.846314
Si Si6 0.898441 0.190583 0.390515
Si Si7 0.803326 0.806783 0.662858
O O1 0.500000 0.762380 0.281916
O O2 0.410291 0.782447 0.252218
O O3 0.428833 0.693672 0.341438
O O4 0.442416 0.000000 0.315731
O O5 0.366134 0.500000 0.743870
O O6 0.338943 0.718451 0.806944
O O7 0.320697 0.770465 0.713969
O O8 0.808595 0.500000 0.949296
O O9 0.750000 0.250000 0.950848
O O10 0.826343 0.240485 0.898485
O O11 0.830150 0.237382 0.000000
O O12 0.418183 0.170810 0.573068
O O13 0.500000 0.000000 0.575185
O O14 0.442232 0.000000 0.500000
O O15 0.750000 0.250000 0.838723
O O16 0.690653 0.000000 0.840989
O O17 0.842069 0.237165 0.378773
O O18 0.902660 0.000000 0.411078
O O19 0.750000 0.750000 0.646902
O O20 0.800835 0.000000 0.671235
#
# Coordination Sequence:
#
# PCOD8265616 Si02
#       7
#    16  16  16   8  16  16  16
#     4  10  19  32  52  75  99 128 162 198 238 288
#     4  10  20  31  42  65  99 128 162 197 237 289
#     4   8  14  24  37  53  74 105 149 194 236 283
#     4  11  24  40  60  86 110 138 176 214 260 308
#     4  10  18  27  40  58  85 122 156 195 242 286
#     4  10  21  37  56  83 112 139 171 210 253 301
#     4   9  19  31  49  76 100 134 173 207 245 290
#
# _framework density 16.881806999999998
#
# number of rings (size 3 to 8) (size 9 to 14) (size 15 to 20)
#    0.000    2.385    0.769    3.231    1.077    5.538 
#    0.000    0.769    0.000    0.462    0.000    0.000 
#    0.000    0.615    0.000    7.077    0.000    2.000 
#
# Total GULP energy -644180.405291 kJ/mol
# GULP energy per Si atom -12388.084717 kJ/mol
# Density = 1.684338 g / cm^3
# Si number density = 16.881807 Si / 1000 Ang^3
#
#
#
# Elastic Constant Matrix: (Units=GPa)
#
#
# Indices 1 2 3 4 5 6 
#
# 1 118.1813 34.7665 43.7347 0.0000 0.0000 0.0000
# 2 34.7665 62.3056 30.3735 0.0000 0.0000 0.0000
# 3 43.7347 30.3735 87.1579 0.0000 0.0000 0.0000
# 4 0.0000 0.0000 0.0000 17.5537 0.0000 0.0000
# 5 0.0000 0.0000 0.0000 0.0000 21.7877 0.0000
# 6 0.0000 0.0000 0.0000 0.0000 0.0000 22.6407
#
#
#
# Elastic Compliance Matrix: (Units=1/GPa)
#
#
# Indices 1 2 3 4 5 6 
#
# 1 0.011253 -0.004248 -0.004166 0.000000 0.000000 0.000000
# 2 -0.004248 0.020938 -0.005165 0.000000 0.000000 0.000000
# 3 -0.004166 -0.005165 0.015364 0.000000 0.000000 0.000000
# 4 0.000000 0.000000 0.000000 0.056968 0.000000 0.000000
# 5 0.000000 0.000000 0.000000 0.000000 0.045898 0.000000
# 6 0.000000 0.000000 0.000000 0.000000 0.000000 0.044168
#
#
# Mechanical properties :
#
#
# Convention : Reuss Voigt Hill
#
# Bulk Modulus (GPa) = 49.02828 53.93271 51.48049
# Shear Modulus (GPa) = 21.87734 22.98109 22.42921
#
# Velocity S-wave (km/s) = 3.60378 3.69357 3.64895
# Velocity P-wave (km/s) = 6.81333 7.08566 6.95083
#
# Compressibility (1/GPa) = 0.02039639
#
# Stress axis : x y z
#
# Youngs Moduli (GPa) = 88.86458 47.75922 65.08753
#
# Poissons Ratio (x) = 0.20289 0.27117
# Poissons Ratio (y) = 0.37752 0.33618
# Poissons Ratio (z) = 0.37023 0.24668
#
# Static dielectric constant tensor:
#      x y z
#    x 2.398360 0.000000 0.000000 
#    y 0.000000 3.780820 0.000000 
#    z 0.000000 0.000000 3.386680 
# 
# 
# High freq. dielectric constant tensor:
#      x y z
#    x 1.619150 0.000000 0.000000 
#    y 0.000000 1.660090 0.000000 
#    z 0.000000 0.000000 1.640490 
# 
# From -- ./inp_files/76046.got.cif
#   From: 2010.03.12/outbox.cif.g09.slc.cpg/sg65_39_cif.got.tgz:76046.got - 2010.04.10 20:52:16.
