data_PCOD8265236
_publ_section_title
;
Structure prediction by ZEFSAII (Michael W. Deem and Ramdas Pophale) SiO2 
 PCOD8265236
Probable space group: C M M M
;
_chemical_formula_sum "Si O2"
_cell_formula_units_Z 104
_cell_length_a 8.723561
_cell_length_b 27.327495
_cell_length_c 26.838072
_cell_angle_alpha 90.000000
_cell_angle_beta 90.000000
_cell_angle_gamma 90.000000
_cell_volume 6398.010366
_symmetry_space_group_name_H-M "C M M M"
_symmetry_group_IT_number 65
_symmetry_cell_setting 'orthorhombic'
loop_
_space_group_symop_operation_xyz
x,y,z
-x,-y,z
x,-y,-z
-x,y,-z
-x,-y,-z
x,y,-z
-x,y,z
x,-y,z
1/2+x,1/2+y,z
1/2-x,1/2-y,z
1/2+x,1/2-y,-z
1/2-x,1/2+y,-z
1/2-x,1/2-y,-z
1/2+x,1/2+y,-z
1/2-x,1/2+y,z
1/2+x,1/2-y,z
loop_
_atom_site_type_symbol
_atom_site_label
_atom_site_fract_x
_atom_site_fract_y
_atom_site_fract_z
Si Si1 0.819880 0.851764 0.251936
Si Si2 0.678433 0.555073 0.308170
Si Si3 0.818503 0.197992 0.351930
Si Si4 0.317941 0.055020 0.500000
Si Si5 0.819320 0.393996 0.399547
Si Si6 0.679258 0.803423 0.053963
Si Si7 0.682106 0.695930 0.152272
O O1 0.775266 0.908231 0.263211
O O2 0.757958 0.817713 0.296967
O O3 0.750908 0.835045 0.198932
O O4 0.000000 0.845288 0.248996
O O5 0.500000 0.562516 0.321821
O O6 0.713847 0.500000 0.290423
O O7 0.776371 0.567182 0.356869
O O8 0.750000 0.250000 0.366896
O O9 0.762734 0.157998 0.391726
O O10 0.000000 0.200753 0.353524
O O11 0.500000 0.051998 0.500000
O O12 0.259518 0.083951 0.548491
O O13 0.249508 0.000000 0.500000
O O14 0.000000 0.385537 0.399582
O O15 0.500000 0.799140 0.064908
O O16 0.750000 0.750000 0.050888
O O17 0.759756 0.830360 0.100987
O O18 0.708662 0.829747 0.000000
O O19 0.500000 0.698208 0.152140
O O20 0.750000 0.750000 0.156368
#
# Coordination Sequence:
#
# PCOD8265236 Si02
#       7
#    16  16  16   8  16  16  16
#     4   8  16  28  42  63  88 113 142 176 212 255
#     4   9  17  31  49  67  90 118 145 176 217 262
#     4  10  19  33  50  68  92 120 151 182 216 257
#     4   9  18  32  50  71  94 117 142 179 224 265
#     4  10  19  32  50  71  93 117 147 180 217 261
#     4   9  16  25  36  51  74 105 140 174 208 246
#     4  10  17  25  38  56  81 110 141 174 207 245
#
# _framework density 16.255053
#
# number of rings (size 3 to 8) (size 9 to 14) (size 15 to 20)
#    0.000    2.692    0.000    4.615    0.000    1.846 
#    0.000    8.846    0.000    2.769    0.000    0.000 
#    0.000    0.615    0.000    7.692    0.000    1.231 
#
# Total GULP energy -644456.215282 kJ/mol
# GULP energy per Si atom -12393.388755 kJ/mol
# Density = 1.621806 g / cm^3
# Si number density = 16.255053 Si / 1000 Ang^3
#
#
#
# Elastic Constant Matrix: (Units=GPa)
#
#
# Indices 1 2 3 4 5 6 
#
# 1 57.7654 27.7269 34.0891 0.0000 0.0000 0.0000
# 2 27.7269 111.1397 63.5442 0.0000 0.0000 0.0000
# 3 34.0891 63.5442 151.7677 0.0000 0.0000 0.0000
# 4 0.0000 0.0000 0.0000 18.4636 0.0000 0.0000
# 5 0.0000 0.0000 0.0000 0.0000 22.1966 0.0000
# 6 0.0000 0.0000 0.0000 0.0000 0.0000 18.8725
#
#
#
# Elastic Compliance Matrix: (Units=1/GPa)
#
#
# Indices 1 2 3 4 5 6 
#
# 1 0.020848 -0.003318 -0.003293 0.000000 0.000000 0.000000
# 2 -0.003318 0.012358 -0.004429 0.000000 0.000000 0.000000
# 3 -0.003293 -0.004429 0.009183 0.000000 0.000000 0.000000
# 4 0.000000 0.000000 0.000000 0.054161 0.000000 0.000000
# 5 0.000000 0.000000 0.000000 0.000000 0.045052 0.000000
# 6 0.000000 0.000000 0.000000 0.000000 0.000000 0.052987
#
#
# Mechanical properties :
#
#
# Convention : Reuss Voigt Hill
#
# Bulk Modulus (GPa) = 49.24208 63.48814 56.36511
# Shear Modulus (GPa) = 22.37763 24.92740 23.65252
#
# Velocity S-wave (km/s) = 3.71436 3.92026 3.81870
# Velocity P-wave (km/s) = 6.98244 7.72228 7.36166
#
# Compressibility (1/GPa) = 0.02030783
#
# Stress axis : x y z
#
# Youngs Moduli (GPa) = 47.96726 80.92178 108.89597
#
# Poissons Ratio (x) = 0.26850 0.35864
# Poissons Ratio (y) = 0.15915 0.48228
# Poissons Ratio (z) = 0.15798 0.35839
#
# Static dielectric constant tensor:
#      x y z
#    x 2.978530 0.000000 0.000000 
#    y 0.000000 2.978360 0.000000 
#    z 0.000000 0.000000 3.681280 
# 
# 
# High freq. dielectric constant tensor:
#      x y z
#    x 1.620490 0.000000 0.000000 
#    y 0.000000 1.594680 0.000000 
#    z 0.000000 0.000000 1.627410 
# 
# From -- ./inp_files/73770.got.cif
#   From: 2010.03.12/outbox.cif.g09.slc.cpg/sg65_37_cif.got.tgz:73770.got - 2010.04.10 20:52:16.
