data_PCOD8265200
_publ_section_title
;
Structure prediction by ZEFSAII (Michael W. Deem and Ramdas Pophale) SiO2 
 PCOD8265200
Probable space group: C M M M
;
_chemical_formula_sum "Si O2"
_cell_formula_units_Z 80
_cell_length_a 19.805638
_cell_length_b 17.974306
_cell_length_c 12.715905
_cell_angle_alpha 90.000000
_cell_angle_beta 90.000000
_cell_angle_gamma 90.000000
_cell_volume 4526.768056
_symmetry_space_group_name_H-M "C M M M"
_symmetry_group_IT_number 65
_symmetry_cell_setting 'orthorhombic'
loop_
_space_group_symop_operation_xyz
x,y,z
-x,-y,z
x,-y,-z
-x,y,-z
-x,-y,-z
x,y,-z
-x,y,z
x,-y,z
1/2+x,1/2+y,z
1/2-x,1/2-y,z
1/2+x,1/2-y,-z
1/2-x,1/2+y,-z
1/2-x,1/2-y,-z
1/2+x,1/2+y,-z
1/2-x,1/2+y,z
1/2+x,1/2-y,z
loop_
_atom_site_type_symbol
_atom_site_label
_atom_site_fract_x
_atom_site_fract_y
_atom_site_fract_z
Si Si1 0.300956 0.676910 0.000000
Si Si2 0.577362 0.412919 0.381918
Si Si3 0.329651 0.324442 0.774953
Si Si4 0.425871 0.912573 0.383821
Si Si5 0.323197 0.088281 0.000000
Si Si6 0.674294 0.845487 0.222519
O O1 0.250000 0.750000 0.000000
O O2 0.348931 0.674573 0.101329
O O3 0.257040 0.601266 0.000000
O O4 0.601091 0.391088 0.500000
O O5 0.500000 0.389357 0.366333
O O6 0.586439 0.500000 0.364570
O O7 0.620819 0.372079 0.294966
O O8 0.338968 0.239070 0.744236
O O9 0.254394 0.357935 0.763784
O O10 0.409572 0.879896 0.500000
O O11 0.500000 0.882493 0.346650
O O12 0.366302 0.893728 0.305006
O O13 0.429601 0.000000 0.391299
O O14 0.351178 0.129472 0.105689
O O15 0.340355 0.000000 0.000000
#
# Coordination Sequence:
#
# PCOD8265200 Si02
#       6
#     8  16  16  16   8  16
#     4  10  16  36  53  74 116 146 168 222 281 322
#     4   9  20  39  58  78 110 148 187 235 285 333
#     4  10  19  33  57  79 106 146 178 215 278 334
#     4   9  19  35  51  68  97 136 172 213 267 315
#     4  10  18  30  53  78 102 141 180 210 262 325
#     4  10  19  33  51  78 108 134 171 227 263 317
#
# _framework density 17.672653
#
# number of rings (size 3 to 8) (size 9 to 14) (size 15 to 20)
#    0.000    2.400    4.000    1.800    0.000    6.400 
#    0.000    7.000    0.000    5.400    0.000    0.000 
#    0.000    0.000    0.000    0.000    0.000    0.000 
#
# Total GULP energy -495524.309596 kJ/mol
# GULP energy per Si atom -12388.107740 kJ/mol
# Density = 1.763243 g / cm^3
# Si number density = 17.672653 Si / 1000 Ang^3
#
#
#
# Elastic Constant Matrix: (Units=GPa)
#
#
# Indices 1 2 3 4 5 6 
#
# 1 71.9592 39.1669 70.5004 0.0000 0.0000 0.0000
# 2 39.1669 52.0576 46.1002 0.0000 0.0000 0.0000
# 3 70.5004 46.1002 148.8947 0.0000 0.0000 0.0000
# 4 0.0000 0.0000 0.0000 29.0831 0.0000 0.0000
# 5 0.0000 0.0000 0.0000 0.0000 74.0116 0.0000
# 6 0.0000 0.0000 0.0000 0.0000 0.0000 26.7552
#
#
#
# Elastic Compliance Matrix: (Units=1/GPa)
#
#
# Indices 1 2 3 4 5 6 
#
# 1 0.032657 -0.014986 -0.010823 0.000000 0.000000 0.000000
# 2 -0.014986 0.033343 -0.003228 0.000000 0.000000 0.000000
# 3 -0.010823 -0.003228 0.012840 0.000000 0.000000 0.000000
# 4 0.000000 0.000000 0.000000 0.034384 0.000000 0.000000
# 5 0.000000 0.000000 0.000000 0.000000 0.013511 0.000000
# 6 0.000000 0.000000 0.000000 0.000000 0.000000 0.037376
#
#
# Mechanical properties :
#
#
# Convention : Reuss Voigt Hill
#
# Bulk Modulus (GPa) = 48.15401 64.93850 56.54626
# Shear Modulus (GPa) = 21.82383 33.77959 27.80171
#
# Velocity S-wave (km/s) = 3.51792 4.37670 3.97060
# Velocity P-wave (km/s) = 6.61875 7.89719 7.28607
#
# Compressibility (1/GPa) = 0.02076670
#
# Stress axis : x y z
#
# Youngs Moduli (GPa) = 30.62124 29.99131 77.88099
#
# Poissons Ratio (x) = 0.44945 0.84290
# Poissons Ratio (y) = 0.45889 0.25138
# Poissons Ratio (z) = 0.33141 0.09681
#
# Static dielectric constant tensor:
#      x y z
#    x 3.086880 0.000000 0.000000 
#    y 0.000000 3.218650 0.000000 
#    z 0.000000 0.000000 3.493250 
# 
# 
# High freq. dielectric constant tensor:
#      x y z
#    x 1.653850 0.000000 0.000000 
#    y 0.000000 1.680700 0.000000 
#    z 0.000000 0.000000 1.697210 
# 
# From -- ./inp_files/28568.got.cif
#   From: 2010.03.12/outbox.cif.g09.slc.cpg/sg65_15_cif.got.tgz:28568.got - 2010.04.10 20:52:16.
