data_PCOD8265754
_publ_section_title
;
Structure prediction by ZEFSAII (Michael W. Deem and Ramdas Pophale) SiO2 
 PCOD8265754
Probable space group: C M M M
;
_chemical_formula_sum "Si O2"
_cell_formula_units_Z 68
_cell_length_a 13.233215
_cell_length_b 26.823327
_cell_length_c 11.778555
_cell_angle_alpha 90.000000
_cell_angle_beta 90.000000
_cell_angle_gamma 90.000000
_cell_volume 4180.902375
_symmetry_space_group_name_H-M "C M M M"
_symmetry_group_IT_number 65
_symmetry_cell_setting 'orthorhombic'
loop_
_space_group_symop_operation_xyz
x,y,z
-x,-y,z
x,-y,-z
-x,y,-z
-x,-y,-z
x,y,-z
-x,y,z
x,-y,z
1/2+x,1/2+y,z
1/2-x,1/2-y,z
1/2+x,1/2-y,-z
1/2-x,1/2+y,-z
1/2-x,1/2-y,-z
1/2+x,1/2+y,-z
1/2-x,1/2+y,z
1/2+x,1/2-y,z
loop_
_atom_site_type_symbol
_atom_site_label
_atom_site_fract_x
_atom_site_fract_y
_atom_site_fract_z
Si Si1 0.613981 0.222964 0.367564
Si Si2 0.143203 0.000000 0.500000
Si Si3 0.618992 0.598651 0.868718
Si Si4 0.691657 0.673203 0.700752
Si Si5 0.118425 0.894323 0.500000
Si Si6 0.890898 0.000000 0.243348
O O1 0.632772 0.234101 0.500000
O O2 0.500000 0.204921 0.344020
O O3 0.636321 0.273529 0.299465
O O4 0.689235 0.179537 0.325983
O O5 0.192293 0.944158 0.500000
O O6 0.088030 0.000000 0.621944
O O7 0.500000 0.605937 0.847272
O O8 0.677046 0.647698 0.823028
O O9 0.663410 0.550324 0.801251
O O10 0.645668 0.592524 0.000000
O O11 0.638565 0.637647 0.610454
O O12 0.000000 0.911482 0.500000
O O13 0.000000 0.000000 0.181824
#
# Coordination Sequence:
#
# PCOD8265754 Si02
#       6
#    16   4  16  16   8   8
#     4  10  19  32  49  73 100 123 155 199 246 293
#     4  12  21  26  42  76 109 128 147 194 250 284
#     4  10  20  32  46  66  97 136 168 195 230 279
#     4  11  19  31  49  72  96 128 163 195 236 288
#     4  12  19  27  44  72 104 129 153 191 240 286
#     4  10  18  28  43  67 100 131 160 192 233 288
#
# _framework density 16.264430999999998
#
# number of rings (size 3 to 8) (size 9 to 14) (size 15 to 20)
#    0.000    1.412    4.706    4.235    0.000    1.412 
#    0.000    2.353    0.000    2.118    0.000    4.118 
#    0.000    1.882    0.000    0.000    0.000    0.000 
#
# Total GULP energy -421227.861073 kJ/mol
# GULP energy per Si atom -12389.054737 kJ/mol
# Density = 1.622741 g / cm^3
# Si number density = 16.264431 Si / 1000 Ang^3
#
#
#
# Elastic Constant Matrix: (Units=GPa)
#
#
# Indices 1 2 3 4 5 6 
#
# 1 81.3873 30.7770 28.6798 0.0000 0.0000 0.0000
# 2 30.7770 95.8440 46.6621 0.0000 0.0000 0.0000
# 3 28.6798 46.6621 102.9815 0.0000 0.0000 0.0000
# 4 0.0000 0.0000 0.0000 23.6084 0.0000 0.0000
# 5 0.0000 0.0000 0.0000 0.0000 18.5660 0.0000
# 6 0.0000 0.0000 0.0000 0.0000 0.0000 12.5309
#
#
#
# Elastic Compliance Matrix: (Units=1/GPa)
#
#
# Indices 1 2 3 4 5 6 
#
# 1 0.014458 -0.003442 -0.002467 0.000000 0.000000 0.000000
# 2 -0.003442 0.014206 -0.005478 0.000000 0.000000 0.000000
# 3 -0.002467 -0.005478 0.012880 0.000000 0.000000 0.000000
# 4 0.000000 0.000000 0.000000 0.042358 0.000000 0.000000
# 5 0.000000 0.000000 0.000000 0.000000 0.053862 0.000000
# 6 0.000000 0.000000 0.000000 0.000000 0.000000 0.079802
#
#
# Mechanical properties :
#
#
# Convention : Reuss Voigt Hill
#
# Bulk Modulus (GPa) = 53.27765 54.71676 53.99721
# Shear Modulus (GPa) = 20.27608 22.54733 21.41170
#
# Velocity S-wave (km/s) = 3.53463 3.72734 3.63226
# Velocity P-wave (km/s) = 7.03466 7.22766 7.13181
#
# Compressibility (1/GPa) = 0.01876960
#
# Stress axis : x y z
#
# Youngs Moduli (GPa) = 69.16733 70.39300 77.64046
#
# Poissons Ratio (x) = 0.24226 0.19154
# Poissons Ratio (y) = 0.23804 0.42535
# Poissons Ratio (z) = 0.17064 0.38564
#
# Static dielectric constant tensor:
#      x y z
#    x 2.831800 0.000000 0.000000 
#    y 0.000000 3.260490 0.000000 
#    z 0.000000 0.000000 3.075900 
# 
# 
# High freq. dielectric constant tensor:
#      x y z
#    x 1.573460 0.000000 0.000000 
#    y 0.000000 1.636830 0.000000 
#    z 0.000000 0.000000 1.621210 
# 
# From -- ./inp_files/24551.got.cif
#   From: 2010.03.12/outbox.cif.g09.slc.cpg/sg65_13_cif.got.tgz:24551.got - 2010.04.10 20:52:16.
