data_PCOD8265546
_publ_section_title
;
Structure prediction by ZEFSAII (Michael W. Deem and Ramdas Pophale) SiO2 
 PCOD8265546
Probable space group: C M M M
;
_chemical_formula_sum "Si O2"
_cell_formula_units_Z 88
_cell_length_a 27.314712
_cell_length_b 26.421641
_cell_length_c 9.193866
_cell_angle_alpha 90.000000
_cell_angle_beta 90.000000
_cell_angle_gamma 90.000000
_cell_volume 6635.208628
_symmetry_space_group_name_H-M "C M M M"
_symmetry_group_IT_number 65
_symmetry_cell_setting 'orthorhombic'
loop_
_space_group_symop_operation_xyz
x,y,z
-x,-y,z
x,-y,-z
-x,y,-z
-x,-y,-z
x,y,-z
-x,y,z
x,-y,z
1/2+x,1/2+y,z
1/2-x,1/2-y,z
1/2+x,1/2-y,-z
1/2-x,1/2+y,-z
1/2-x,1/2-y,-z
1/2+x,1/2+y,-z
1/2-x,1/2+y,z
1/2+x,1/2-y,z
loop_
_atom_site_type_symbol
_atom_site_label
_atom_site_fract_x
_atom_site_fract_y
_atom_site_fract_z
Si Si1 0.141940 0.776128 0.835941
Si Si2 0.682199 0.837193 0.838697
Si Si3 0.555221 0.237497 0.667254
Si Si4 0.000000 0.444093 0.828405
Si Si5 0.078277 0.635889 0.828814
Si Si6 0.230726 0.807036 0.663479
O O1 0.162113 0.719566 0.835925
O O2 0.090629 0.777110 0.749490
O O3 0.181156 0.812439 0.756716
O O4 0.133840 0.795837 0.000000
O O5 0.636130 0.872812 0.794863
O O6 0.727470 0.843906 0.729029
O O7 0.701333 0.850518 0.000000
O O8 0.572329 0.232942 0.500000
O O9 0.500000 0.258549 0.678344
O O10 0.556906 0.182403 0.738901
O O11 0.951180 0.414043 0.779808
O O12 0.000000 0.500000 0.755959
O O13 0.000000 0.449801 0.000000
O O14 0.070856 0.647978 0.000000
O O15 0.219777 0.824759 0.500000
O O16 0.250000 0.750000 0.667560
#
# Coordination Sequence:
#
# PCOD8265546 Si02
#       6
#    16  16  16   8  16  16
#     4   9  16  24  34  46  62  83 104 127 154 188
#     4   8  14  22  32  46  61  79 100 124 154 190
#     4  10  18  25  34  48  65  84 107 136 165 193
#     4   9  16  26  41  57  69  83 107 139 173 209
#     4   9  16  26  39  51  64  81 104 132 163 202
#     4   9  15  22  32  46  63  81  99 122 152 188
#
# _framework density 13.262582999999999
#
# number of rings (size 3 to 8) (size 9 to 14) (size 15 to 20)
#    0.000    3.000    0.909    2.727    0.000    7.636 
#    0.000    0.000    0.000    1.091    0.000    0.000 
#    0.000    0.000    0.000    0.000    0.000    0.000 
#
# Total GULP energy -545327.681601 kJ/mol
# GULP energy per Si atom -12393.810945 kJ/mol
# Density = 1.323240 g / cm^3
# Si number density = 13.262583 Si / 1000 Ang^3
#
#
#
# Elastic Constant Matrix: (Units=GPa)
#
#
# Indices 1 2 3 4 5 6 
#
# 1 111.5985 33.8858 58.1886 0.0000 0.0000 0.0000
# 2 33.8858 22.9693 15.6891 0.0000 0.0000 0.0000
# 3 58.1886 15.6891 95.3709 0.0000 0.0000 0.0000
# 4 0.0000 0.0000 0.0000 4.7619 0.0000 0.0000
# 5 0.0000 0.0000 0.0000 0.0000 24.7252 0.0000
# 6 0.0000 0.0000 0.0000 0.0000 0.0000 10.1087
#
#
#
# Elastic Compliance Matrix: (Units=1/GPa)
#
#
# Indices 1 2 3 4 5 6 
#
# 1 0.021231 -0.025318 -0.008788 0.000000 0.000000 0.000000
# 2 -0.025318 0.079240 0.002412 0.000000 0.000000 0.000000
# 3 -0.008788 0.002412 0.015451 0.000000 0.000000 0.000000
# 4 0.000000 0.000000 0.000000 0.209999 0.000000 0.000000
# 5 0.000000 0.000000 0.000000 0.000000 0.040445 0.000000
# 6 0.000000 0.000000 0.000000 0.000000 0.000000 0.098925
#
#
# Mechanical properties :
#
#
# Convention : Reuss Voigt Hill
#
# Bulk Modulus (GPa) = 19.03607 49.49618 34.26613
# Shear Modulus (GPa) = 9.15434 16.06418 12.60926
#
# Velocity S-wave (km/s) = 2.63009 3.48406 3.08675
# Velocity P-wave (km/s) = 4.85876 7.32025 6.21263
#
# Compressibility (1/GPa) = 0.05253186
#
# Stress axis : x y z
#
# Youngs Moduli (GPa) = 47.10180 12.61994 64.72182
#
# Poissons Ratio (x) = 0.31951 0.56881
# Poissons Ratio (y) = 1.19252 -0.15609
# Poissons Ratio (z) = 0.41395 -0.03044
#
# Static dielectric constant tensor:
#      x y z
#    x 2.920290 0.000000 0.000000 
#    y 0.000000 2.160820 0.000000 
#    z 0.000000 0.000000 2.776060 
# 
# 
# High freq. dielectric constant tensor:
#      x y z
#    x 1.516200 0.000000 0.000000 
#    y 0.000000 1.412660 0.000000 
#    z 0.000000 0.000000 1.513440 
# 
# From -- ./inp_files/12664.got.cif
#   From: 2010.03.12/outbox.cif.g09.slc.cpg/sg65_7_cif.got.tgz:12664.got - 2010.04.10 20:52:16.
