data_PCOD8265516
_publ_section_title
;
Structure prediction by ZEFSAII (Michael W. Deem and Ramdas Pophale) SiO2 
 PCOD8265516
Probable space group: C M M M
;
_chemical_formula_sum "Si O2"
_cell_formula_units_Z 72
_cell_length_a 23.426333
_cell_length_b 8.694103
_cell_length_c 17.770154
_cell_angle_alpha 90.000000
_cell_angle_beta 90.000000
_cell_angle_gamma 90.000000
_cell_volume 3619.264183
_symmetry_space_group_name_H-M "C M M M"
_symmetry_group_IT_number 65
_symmetry_cell_setting 'orthorhombic'
loop_
_space_group_symop_operation_xyz
x,y,z
-x,-y,z
x,-y,-z
-x,y,-z
-x,-y,-z
x,y,-z
-x,y,z
x,-y,z
1/2+x,1/2+y,z
1/2-x,1/2-y,z
1/2+x,1/2-y,-z
1/2-x,1/2+y,-z
1/2-x,1/2-y,-z
1/2+x,1/2+y,-z
1/2-x,1/2+y,z
1/2+x,1/2-y,z
loop_
_atom_site_type_symbol
_atom_site_label
_atom_site_fract_x
_atom_site_fract_y
_atom_site_fract_z
Si Si1 0.188163 0.317883 0.222597
Si Si2 0.376282 0.321549 0.360050
Si Si3 0.812626 0.680612 0.500000
Si Si4 0.884192 0.317671 0.083447
Si Si5 0.000000 0.318834 0.846141
Si Si6 0.500000 0.674557 0.686783
O O1 0.189115 0.500000 0.234194
O O2 0.250000 0.250000 0.237345
O O3 0.144390 0.243893 0.280735
O O4 0.167166 0.270310 0.139129
O O5 0.359784 0.500000 0.367000
O O6 0.346858 0.230428 0.426753
O O7 0.444443 0.295628 0.364744
O O8 0.805883 0.500000 0.500000
O O9 0.750000 0.750000 0.500000
O O10 0.889382 0.500000 0.080584
O O11 0.943872 0.248158 0.114013
O O12 0.871403 0.251355 0.000000
O O13 0.000000 0.500000 0.856356
O O14 0.000000 0.285471 0.757958
O O15 0.500000 0.500000 0.717367
#
# Coordination Sequence:
#
# PCOD8265516 Si02
#       6
#    16  16   8  16   8   8
#     4  11  22  37  58  84 116 157 204 252 300 354
#     4  11  23  42  65  91 123 159 197 239 293 355
#     4  12  26  45  68  95 125 158 198 244 289 342
#     4   9  18  32  54  85 117 152 197 249 303 356
#     4  10  17  32  59  87 115 150 198 249 296 355
#     4  10  22  38  62  91 124 158 191 238 297 354
#
# _framework density 19.893546000000001
#
# number of rings (size 3 to 8) (size 9 to 14) (size 15 to 20)
#    0.000    1.556    2.222    3.333    0.000    3.111 
#    0.000    2.222    0.000    6.000    0.000    0.000 
#    0.000    0.000    0.000    0.000    0.000    0.000 
#
# Total GULP energy -446464.652946 kJ/mol
# GULP energy per Si atom -12401.795915 kJ/mol
# Density = 1.984827 g / cm^3
# Si number density = 19.893546 Si / 1000 Ang^3
#
#
#
# Elastic Constant Matrix: (Units=GPa)
#
#
# Indices 1 2 3 4 5 6 
#
# 1 142.7268 45.4954 50.4812 0.0000 0.0000 0.0000
# 2 45.4954 88.6694 40.2505 0.0000 0.0000 0.0000
# 3 50.4812 40.2505 127.4729 0.0000 0.0000 0.0000
# 4 0.0000 0.0000 0.0000 12.1894 0.0000 0.0000
# 5 0.0000 0.0000 0.0000 0.0000 32.5573 0.0000
# 6 0.0000 0.0000 0.0000 0.0000 0.0000 22.4027
#
#
#
# Elastic Compliance Matrix: (Units=1/GPa)
#
#
# Indices 1 2 3 4 5 6 
#
# 1 0.008990 -0.003498 -0.002456 0.000000 0.000000 0.000000
# 2 -0.003498 0.014526 -0.003201 0.000000 0.000000 0.000000
# 3 -0.002456 -0.003201 0.009828 0.000000 0.000000 0.000000
# 4 0.000000 0.000000 0.000000 0.082039 0.000000 0.000000
# 5 0.000000 0.000000 0.000000 0.000000 0.030715 0.000000
# 6 0.000000 0.000000 0.000000 0.000000 0.000000 0.044637
#
#
# Mechanical properties :
#
#
# Convention : Reuss Voigt Hill
#
# Bulk Modulus (GPa) = 66.51614 70.14703 68.33158
# Shear Modulus (GPa) = 23.35834 28.27267 25.81551
#
# Velocity S-wave (km/s) = 3.43033 3.77397 3.60624
# Velocity P-wave (km/s) = 7.01414 7.37077 7.19466
#
# Compressibility (1/GPa) = 0.01503395
#
# Stress axis : x y z
#
# Youngs Moduli (GPa) = 111.23556 68.84277 101.74859
#
# Poissons Ratio (x) = 0.24081 0.24986
# Poissons Ratio (y) = 0.38909 0.32574
# Poissons Ratio (z) = 0.27316 0.22039
#
# Static dielectric constant tensor:
#      x y z
#    x 3.837900 0.000000 0.000000 
#    y 0.000000 3.486570 0.000000 
#    z 0.000000 0.000000 3.937000 
# 
# 
# High freq. dielectric constant tensor:
#      x y z
#    x 1.790850 0.000000 0.000000 
#    y 0.000000 1.758780 0.000000 
#    z 0.000000 0.000000 1.780600 
# 
# From -- ./inp_files/46594.got.cif
#   From: 2010.03.12/outbox.cif.g09.slc.cpg/sg65_24_cif.got.tgz:46594.got - 2010.04.10 20:52:16.
