data_PCOD8265298
_publ_section_title
;
Structure prediction by ZEFSAII (Michael W. Deem and Ramdas Pophale) SiO2 
 PCOD8265298
Probable space group: C M M M
;
_chemical_formula_sum "Si O2"
_cell_formula_units_Z 56
_cell_length_a 15.077713
_cell_length_b 8.655975
_cell_length_c 20.467918
_cell_angle_alpha 90.000000
_cell_angle_beta 90.000000
_cell_angle_gamma 90.000000
_cell_volume 2671.315193
_symmetry_space_group_name_H-M "C M M M"
_symmetry_group_IT_number 65
_symmetry_cell_setting 'orthorhombic'
loop_
_space_group_symop_operation_xyz
x,y,z
-x,-y,z
x,-y,-z
-x,y,-z
-x,-y,-z
x,y,-z
-x,y,z
x,-y,z
1/2+x,1/2+y,z
1/2-x,1/2-y,z
1/2+x,1/2-y,-z
1/2-x,1/2+y,-z
1/2-x,1/2-y,-z
1/2+x,1/2+y,-z
1/2-x,1/2+y,z
1/2+x,1/2-y,z
loop_
_atom_site_type_symbol
_atom_site_label
_atom_site_fract_x
_atom_site_fract_y
_atom_site_fract_z
Si Si1 0.848416 0.317310 0.698642
Si Si2 0.000000 0.816757 0.072848
Si Si3 0.152851 0.180206 0.570739
Si Si4 0.152645 0.816851 0.831706
O O1 0.849346 0.500000 0.703344
O O2 0.750000 0.250000 0.694871
O O3 0.898313 0.262012 0.631782
O O4 0.890958 0.247655 0.764462
O O5 0.088503 0.761051 0.110098
O O6 0.000000 0.000000 0.069621
O O7 0.000000 0.745167 0.000000
O O8 0.104797 0.207351 0.500000
O O9 0.250000 0.250000 0.565297
O O10 0.159786 0.000000 0.586457
O O11 0.250000 0.750000 0.845308
O O12 0.159026 0.000000 0.826708
#
# Coordination Sequence:
#
# PCOD8265298 Si02
#       4
#    16   8  16  16
#     4  10  17  26  42  65  96 133 174 217 261 311
#     4   9  20  38  59  83 110 141 176 213 259 320
#     4   9  15  22  34  56  89 128 170 216 263 309
#     4  10  19  34  56  80 108 141 178 219 263 313
#
# _framework density 20.963456000000001
#
# number of rings (size 3 to 8) (size 9 to 14) (size 15 to 20)
#    0.000    2.429    0.000    7.714    0.000    2.286 
#    0.000    2.857    0.000    6.000    0.000    1.000 
#    0.000    8.000    0.000    0.000    0.000    0.000 
#
# Total GULP energy -346874.820020 kJ/mol
# GULP energy per Si atom -12388.386429 kJ/mol
# Density = 2.091574 g / cm^3
# Si number density = 20.963456 Si / 1000 Ang^3
#
#
#
# Elastic Constant Matrix: (Units=GPa)
#
#
# Indices 1 2 3 4 5 6 
#
# 1 64.9928 27.2842 60.7361 0.0000 0.0000 0.0000
# 2 27.2842 134.3994 68.6037 0.0000 0.0000 0.0000
# 3 60.7361 68.6037 245.3157 0.0000 0.0000 0.0000
# 4 0.0000 0.0000 0.0000 26.7812 0.0000 0.0000
# 5 0.0000 0.0000 0.0000 0.0000 -36.3058 0.0000
# 6 0.0000 0.0000 0.0000 0.0000 0.0000 10.0799
#
#
#
# Elastic Compliance Matrix: (Units=1/GPa)
#
#
# Indices 1 2 3 4 5 6 
#
# 1 0.020394 -0.001823 -0.004539 0.000000 0.000000 0.000000
# 2 -0.001823 0.008842 -0.002021 0.000000 0.000000 0.000000
# 3 -0.004539 -0.002021 0.005766 0.000000 0.000000 0.000000
# 4 0.000000 0.000000 0.000000 0.037340 0.000000 0.000000
# 5 0.000000 0.000000 0.000000 0.000000 -0.027544 0.000000
# 6 0.000000 0.000000 0.000000 0.000000 0.000000 0.099207
#
#
# Mechanical properties :
#
#
# Convention : Reuss Voigt Hill
#
# Bulk Modulus (GPa) = 54.84246 84.21732 69.52989
# Shear Modulus (GPa) = 29.96699 19.31667 24.64183
#
# Velocity S-wave (km/s) = 3.78496 3.03882 3.43223
# Velocity P-wave (km/s) = 6.73194 7.25074 6.99615
#
# Compressibility (1/GPa) = 0.01823405
#
# Stress axis : x y z
#
# Youngs Moduli (GPa) = 49.03490 113.09072 173.44366
#
# Poissons Ratio (x) = 0.20616 0.78732
# Poissons Ratio (y) = 0.08939 0.35062
# Poissons Ratio (z) = 0.22259 0.22861
#
# Static dielectric constant tensor:
#      x y z
#    x 3.331700 0.000000 0.000000 
#    y 0.000000 3.715590 0.000000 
#    z 0.000000 0.000000 5.405210 
# 
# 
# High freq. dielectric constant tensor:
#      x y z
#    x 1.768620 0.000000 0.000000 
#    y 0.000000 1.818860 0.000000 
#    z 0.000000 0.000000 1.848630 
# 
# From -- ./inp_files/58567.got.cif
#   From: 2010.03.12/outbox.cif.g09.slc.cpg/sg65_30_cif.got.tgz:58567.got - 2010.04.10 20:52:16.
