data_PCOD8265876
_publ_section_title
;
Structure prediction by ZEFSAII (Michael W. Deem and Ramdas Pophale) SiO2 
 PCOD8265876
Probable space group: C M M M
;
_chemical_formula_sum "Si O2"
_cell_formula_units_Z 88
_cell_length_a 18.352513
_cell_length_b 8.873628
_cell_length_c 28.871809
_cell_angle_alpha 90.000000
_cell_angle_beta 90.000000
_cell_angle_gamma 90.000000
_cell_volume 4701.871487
_symmetry_space_group_name_H-M "C M M M"
_symmetry_group_IT_number 65
_symmetry_cell_setting 'orthorhombic'
loop_
_space_group_symop_operation_xyz
x,y,z
-x,-y,z
x,-y,-z
-x,y,-z
-x,-y,-z
x,y,-z
-x,y,z
x,-y,z
1/2+x,1/2+y,z
1/2-x,1/2-y,z
1/2+x,1/2-y,-z
1/2-x,1/2+y,-z
1/2-x,1/2-y,-z
1/2+x,1/2+y,-z
1/2-x,1/2+y,z
1/2+x,1/2-y,z
loop_
_atom_site_type_symbol
_atom_site_label
_atom_site_fract_x
_atom_site_fract_y
_atom_site_fract_z
Si Si1 0.171256 0.823595 0.050232
Si Si2 0.329653 0.820950 0.140649
Si Si3 0.328829 0.178912 0.317892
Si Si4 0.586619 0.329871 0.500000
Si Si5 0.418333 0.179002 0.770279
Si Si6 0.916841 0.677594 0.407321
O O1 0.250000 0.750000 0.047108
O O2 0.131424 0.741396 0.093426
O O3 0.178757 0.000000 0.061085
O O4 0.131735 0.798640 0.000000
O O5 0.250000 0.750000 0.146697
O O6 0.378690 0.765270 0.183245
O O7 0.323434 0.000000 0.138550
O O8 0.250000 0.250000 0.316046
O O9 0.374482 0.239694 0.274109
O O10 0.369507 0.234367 0.364124
O O11 0.321971 0.000000 0.316656
O O12 0.614881 0.500000 0.500000
O O13 0.500000 0.317871 0.500000
O O14 0.616760 0.249863 0.546152
O O15 0.500000 0.245854 0.769212
O O16 0.421401 0.000000 0.768866
O O17 0.912822 0.500000 0.413111
O O18 0.000000 0.730127 0.399010
#
# Coordination Sequence:
#
# PCOD8265876 Si02
#       6
#    16  16  16   8  16  16
#     4   9  16  26  42  65  94 126 159 196 236 280
#     4  10  18  28  47  72  98 127 157 196 241 284
#     4  10  20  34  53  75 100 129 160 199 244 288
#     4   9  17  29  48  75 104 131 159 199 248 287
#     4   9  18  33  52  73  96 125 163 201 237 282
#     4   9  17  31  52  75  98 129 169 204 234 278
#
# _framework density 18.715952000000001
#
# number of rings (size 3 to 8) (size 9 to 14) (size 15 to 20)
#    0.000    2.636    0.000    3.545    0.000    5.091 
#    0.000    1.364    0.000    6.545    0.000    3.818 
#    0.000    0.000    0.000    0.000    0.000    0.000 
#
# Total GULP energy -545381.729056 kJ/mol
# GULP energy per Si atom -12395.039297 kJ/mol
# Density = 1.867335 g / cm^3
# Si number density = 18.715952 Si / 1000 Ang^3
#
#
#
# Elastic Constant Matrix: (Units=GPa)
#
#
# Indices 1 2 3 4 5 6 
#
# 1 99.1418 26.7574 81.5307 0.0000 0.0000 0.0000
# 2 26.7574 54.5759 50.3652 0.0000 0.0000 0.0000
# 3 81.5307 50.3652 223.8278 0.0000 0.0000 0.0000
# 4 0.0000 0.0000 0.0000 24.6609 0.0000 0.0000
# 5 0.0000 0.0000 0.0000 0.0000 24.7774 0.0000
# 6 0.0000 0.0000 0.0000 0.0000 0.0000 20.1602
#
#
#
# Elastic Compliance Matrix: (Units=1/GPa)
#
#
# Indices 1 2 3 4 5 6 
#
# 1 0.014748 -0.002869 -0.004726 0.000000 0.000000 0.000000
# 2 -0.002869 0.023683 -0.004284 0.000000 0.000000 0.000000
# 3 -0.004726 -0.004284 0.007153 0.000000 0.000000 0.000000
# 4 0.000000 0.000000 0.000000 0.040550 0.000000 0.000000
# 5 0.000000 0.000000 0.000000 0.000000 0.040359 0.000000
# 6 0.000000 0.000000 0.000000 0.000000 0.000000 0.049603
#
#
# Mechanical properties :
#
#
# Convention : Reuss Voigt Hill
#
# Bulk Modulus (GPa) = 45.81776 77.20578 61.51177
# Shear Modulus (GPa) = 24.13943 28.51252 26.32598
#
# Velocity S-wave (km/s) = 3.59524 3.90735 3.75454
# Velocity P-wave (km/s) = 6.46283 7.85477 7.19255
#
# Compressibility (1/GPa) = 0.02182560
#
# Stress axis : x y z
#
# Youngs Moduli (GPa) = 67.80747 42.22404 139.79437
#
# Poissons Ratio (x) = 0.12113 0.66073
# Poissons Ratio (y) = 0.19452 0.59891
# Poissons Ratio (z) = 0.32049 0.18090
#
# Static dielectric constant tensor:
#      x y z
#    x 3.156940 0.000000 0.000000 
#    y 0.000000 3.268580 0.000000 
#    z 0.000000 0.000000 4.198790 
# 
# 
# High freq. dielectric constant tensor:
#      x y z
#    x 1.686260 0.000000 0.000000 
#    y 0.000000 1.709890 0.000000 
#    z 0.000000 0.000000 1.756030 
# 
# From -- ./inp_files/77853.got.cif
#   From: 2010.03.12/outbox.cif.g09.slc.cpg/sg65_39_cif.got.tgz:77853.got - 2010.04.10 20:52:16.
