data_PCOD8265427
_publ_section_title
;
Structure prediction by ZEFSAII (Michael W. Deem and Ramdas Pophale) SiO2 
 PCOD8265427
Probable space group: C M M M
;
_chemical_formula_sum "Si O2"
_cell_formula_units_Z 64
_cell_length_a 32.013146
_cell_length_b 11.296707
_cell_length_c 10.289333
_cell_angle_alpha 90.000000
_cell_angle_beta 90.000000
_cell_angle_gamma 90.000000
_cell_volume 3721.066597
_symmetry_space_group_name_H-M "C M M M"
_symmetry_group_IT_number 65
_symmetry_cell_setting 'orthorhombic'
loop_
_space_group_symop_operation_xyz
x,y,z
-x,-y,z
x,-y,-z
-x,y,-z
-x,-y,-z
x,y,-z
-x,y,z
x,-y,z
1/2+x,1/2+y,z
1/2-x,1/2-y,z
1/2+x,1/2-y,-z
1/2-x,1/2+y,-z
1/2-x,1/2-y,-z
1/2+x,1/2+y,-z
1/2-x,1/2+y,z
1/2+x,1/2-y,z
loop_
_atom_site_type_symbol
_atom_site_label
_atom_site_fract_x
_atom_site_fract_y
_atom_site_fract_z
Si Si1 0.453530 0.000000 0.847816
Si Si2 0.500000 0.630750 0.845645
Si Si3 0.720482 0.364701 0.000000
Si Si4 0.162882 0.132791 0.752577
Si Si5 0.216961 0.140686 0.500000
Si Si6 0.916883 0.256219 0.846327
O O1 0.424912 0.109158 0.807936
O O2 0.500000 0.000000 0.782217
O O3 0.461868 0.000000 0.000000
O O4 0.500000 0.500000 0.790274
O O5 0.457930 0.690092 0.794066
O O6 0.500000 0.638093 0.000000
O O7 0.750000 0.250000 0.000000
O O8 0.692873 0.349915 0.126383
O O9 0.740980 0.500000 0.000000
O O10 0.188614 0.163568 0.624703
O O11 0.123200 0.217601 0.764739
O O12 0.145236 0.000000 0.747987
O O13 0.250000 0.250000 0.500000
O O14 0.233693 0.000000 0.500000
O O15 0.909331 0.234749 0.000000
#
# Coordination Sequence:
#
# PCOD8265427 Si02
#       6
#     8   8   8  16   8  16
#     4   9  16  28  44  69 113 153 175 211 261 311
#     4   9  16  23  41  70 102 138 174 212 251 306
#     4  10  20  36  54  79 108 133 165 216 275 322
#     4  10  20  35  56  78 106 137 173 220 265 313
#     4  10  22  42  62  79 104 141 179 218 269 328
#     4  10  17  29  47  74 109 142 178 213 262 310
#
# _framework density 17.199369999999998
#
# number of rings (size 3 to 8) (size 9 to 14) (size 15 to 20)
#    0.000    2.250    2.500    1.500    0.000    1.000 
#    4.500    0.000    0.000    0.750    0.000    4.375 
#    0.000    0.000    0.000    0.000    0.000    0.000 
#
# Total GULP energy -396472.445707 kJ/mol
# GULP energy per Si atom -12389.763928 kJ/mol
# Density = 1.716022 g / cm^3
# Si number density = 17.199370 Si / 1000 Ang^3
#
#
#
# Elastic Constant Matrix: (Units=GPa)
#
#
# Indices 1 2 3 4 5 6 
#
# 1 127.6324 96.0258 49.3744 0.0000 0.0000 0.0000
# 2 96.0258 168.9837 37.3611 0.0000 0.0000 0.0000
# 3 49.3744 37.3611 88.9900 0.0000 0.0000 0.0000
# 4 0.0000 0.0000 0.0000 18.2298 0.0000 0.0000
# 5 0.0000 0.0000 0.0000 0.0000 21.8112 0.0000
# 6 0.0000 0.0000 0.0000 0.0000 0.0000 58.1120
#
#
#
# Elastic Compliance Matrix: (Units=1/GPa)
#
#
# Indices 1 2 3 4 5 6 
#
# 1 0.015809 -0.007765 -0.005511 0.000000 0.000000 0.000000
# 2 -0.007765 0.010337 -0.000032 0.000000 0.000000 0.000000
# 3 -0.005511 -0.000032 0.014308 0.000000 0.000000 0.000000
# 4 0.000000 0.000000 0.000000 0.054855 0.000000 0.000000
# 5 0.000000 0.000000 0.000000 0.000000 0.045848 0.000000
# 6 0.000000 0.000000 0.000000 0.000000 0.000000 0.017208
#
#
# Mechanical properties :
#
#
# Convention : Reuss Voigt Hill
#
# Bulk Modulus (GPa) = 72.26147 83.45876 77.86011
# Shear Modulus (GPa) = 26.37192 33.15359 29.76276
#
# Velocity S-wave (km/s) = 3.92000 4.39521 4.16439
# Velocity P-wave (km/s) = 7.91162 8.62478 8.27589
#
# Compressibility (1/GPa) = 0.01383863
#
# Stress axis : x y z
#
# Youngs Moduli (GPa) = 63.25384 96.73679 69.88917
#
# Poissons Ratio (x) = 0.75118 0.38519
# Poissons Ratio (y) = 0.49118 0.00221
# Poissons Ratio (z) = 0.34862 0.00306
#
# Static dielectric constant tensor:
#      x y z
#    x 3.146410 0.000000 0.000000 
#    y 0.000000 2.918720 0.000000 
#    z 0.000000 0.000000 2.947410 
# 
# 
# High freq. dielectric constant tensor:
#      x y z
#    x 1.663690 0.000000 0.000000 
#    y 0.000000 1.679940 0.000000 
#    z 0.000000 0.000000 1.624730 
# 
# From -- ./inp_files/5015.got.cif
#   From: 2010.03.12/outbox.cif.g09.slc.cpg/sg65_3_cif.got.tgz:5015.got - 2010.04.10 20:52:16.
