data_PCOD8265900
_publ_section_title
;
Structure prediction by ZEFSAII (Michael W. Deem and Ramdas Pophale) SiO2 
 PCOD8265900
Probable space group: C M M M
;
_chemical_formula_sum "Si O2"
_cell_formula_units_Z 88
_cell_length_a 9.040123
_cell_length_b 30.272554
_cell_length_c 17.706188
_cell_angle_alpha 90.000000
_cell_angle_beta 90.000000
_cell_angle_gamma 90.000000
_cell_volume 4845.610182
_symmetry_space_group_name_H-M "C M M M"
_symmetry_group_IT_number 65
_symmetry_cell_setting 'orthorhombic'
loop_
_space_group_symop_operation_xyz
x,y,z
-x,-y,z
x,-y,-z
-x,y,-z
-x,-y,-z
x,y,-z
-x,y,z
x,-y,z
1/2+x,1/2+y,z
1/2-x,1/2-y,z
1/2+x,1/2-y,-z
1/2-x,1/2+y,-z
1/2-x,1/2-y,-z
1/2+x,1/2+y,-z
1/2-x,1/2+y,z
1/2+x,1/2-y,z
loop_
_atom_site_type_symbol
_atom_site_label
_atom_site_fract_x
_atom_site_fract_y
_atom_site_fract_z
Si Si1 0.824560 0.049687 0.500000
Si Si2 0.161408 0.208997 0.378461
Si Si3 0.175578 0.549200 0.083784
Si Si4 0.834339 0.792179 0.800091
Si Si5 0.676882 0.612224 0.365858
Si Si6 0.676627 0.117757 0.792106
O O1 0.770646 0.075306 0.574700
O O2 0.000000 0.048210 0.500000
O O3 0.758637 0.000000 0.500000
O O4 0.250000 0.250000 0.414517
O O5 0.153375 0.214088 0.289005
O O6 0.228602 0.160499 0.397092
O O7 0.000000 0.212036 0.415063
O O8 0.234117 0.500000 0.103068
O O9 0.235237 0.582932 0.146224
O O10 0.000000 0.549297 0.085028
O O11 0.231007 0.563236 0.000000
O O12 0.750000 0.750000 0.835823
O O13 0.739385 0.835355 0.819084
O O14 0.000000 0.795901 0.834458
O O15 0.500000 0.612664 0.352628
O O16 0.757532 0.601812 0.287551
O O17 0.500000 0.120475 0.786247
#
# Coordination Sequence:
#
# PCOD8265900 Si02
#       6
#     8  16  16  16  16  16
#     4   9  18  34  54  69  85 121 169 207 243 289
#     4   8  14  24  40  62  88 116 144 179 223 269
#     4   8  15  29  48  70  97 128 161 198 242 293
#     4   9  16  27  44  68  99 131 162 197 236 280
#     4   9  18  32  48  68  94 123 159 202 242 282
#     4  10  18  28  48  76 100 125 160 200 242 289
#
# _framework density 18.160767
#
# number of rings (size 3 to 8) (size 9 to 14) (size 15 to 20)
#    0.000    3.182    0.000    2.727    0.000    5.091 
#    0.000    0.909    0.000    4.909    0.000    5.091 
#    0.000    0.000    0.000    0.000    0.000    0.000 
#
# Total GULP energy -545276.643163 kJ/mol
# GULP energy per Si atom -12392.650981 kJ/mol
# Density = 1.811943 g / cm^3
# Si number density = 18.160767 Si / 1000 Ang^3
#
#
#
# Elastic Constant Matrix: (Units=GPa)
#
#
# Indices 1 2 3 4 5 6 
#
# 1 63.7220 45.7929 34.5504 0.0000 0.0000 0.0000
# 2 45.7929 175.0270 86.3147 0.0000 0.0000 0.0000
# 3 34.5504 86.3147 93.7859 0.0000 0.0000 0.0000
# 4 0.0000 0.0000 0.0000 1.3117 0.0000 0.0000
# 5 0.0000 0.0000 0.0000 0.0000 6.1152 0.0000
# 6 0.0000 0.0000 0.0000 0.0000 0.0000 21.9796
#
#
#
# Elastic Compliance Matrix: (Units=1/GPa)
#
#
# Indices 1 2 3 4 5 6 
#
# 1 0.020431 -0.002991 -0.004774 0.000000 0.000000 0.000000
# 2 -0.002991 0.010899 -0.008929 0.000000 0.000000 0.000000
# 3 -0.004774 -0.008929 0.020639 0.000000 0.000000 0.000000
# 4 0.000000 0.000000 0.000000 0.762360 0.000000 0.000000
# 5 0.000000 0.000000 0.000000 0.000000 0.163528 0.000000
# 6 0.000000 0.000000 0.000000 0.000000 0.000000 0.045497
#
#
# Mechanical properties :
#
#
# Convention : Reuss Voigt Hill
#
# Bulk Modulus (GPa) = 53.81779 73.98341 63.90060
# Shear Modulus (GPa) = 4.70395 16.93976 10.82185
#
# Velocity S-wave (km/s) = 1.61115 3.05744 2.44374
# Velocity P-wave (km/s) = 5.75843 7.30003 6.57457
#
# Compressibility (1/GPa) = 0.01858122
#
# Stress axis : x y z
#
# Youngs Moduli (GPa) = 48.94481 91.74749 48.45165
#
# Poissons Ratio (x) = 0.27444 0.23130
# Poissons Ratio (y) = 0.14641 0.43264
# Poissons Ratio (z) = 0.23365 0.81923
#
# Static dielectric constant tensor:
#      x y z
#    x 3.236300 0.000000 0.000000 
#    y 0.000000 3.696010 0.000000 
#    z 0.000000 0.000000 3.143270 
# 
# 
# High freq. dielectric constant tensor:
#      x y z
#    x 1.678580 0.000000 0.000000 
#    y 0.000000 1.715070 0.000000 
#    z 0.000000 0.000000 1.671660 
# 
# From -- ./inp_files/50387.got.cif
#   From: 2010.03.12/outbox.cif.g09.slc.cpg/sg65_26_cif.got.tgz:50387.got - 2010.04.10 20:52:16.
