data_PCOD8265144
_publ_section_title
;
Structure prediction by ZEFSAII (Michael W. Deem and Ramdas Pophale) SiO2 
 PCOD8265144
Probable space group: C M M M
;
_chemical_formula_sum "Si O2"
_cell_formula_units_Z 72
_cell_length_a 8.665212
_cell_length_b 18.891845
_cell_length_c 23.215757
_cell_angle_alpha 90.000000
_cell_angle_beta 90.000000
_cell_angle_gamma 90.000000
_cell_volume 3800.462184
_symmetry_space_group_name_H-M "C M M M"
_symmetry_group_IT_number 65
_symmetry_cell_setting 'orthorhombic'
loop_
_space_group_symop_operation_xyz
x,y,z
-x,-y,z
x,-y,-z
-x,y,-z
-x,-y,-z
x,y,-z
-x,y,z
x,-y,z
1/2+x,1/2+y,z
1/2-x,1/2-y,z
1/2+x,1/2-y,-z
1/2-x,1/2+y,-z
1/2-x,1/2-y,-z
1/2+x,1/2+y,-z
1/2-x,1/2+y,z
1/2+x,1/2-y,z
loop_
_atom_site_type_symbol
_atom_site_label
_atom_site_fract_x
_atom_site_fract_y
_atom_site_fract_z
Si Si1 0.817153 0.327602 0.731560
Si Si2 0.180946 0.419164 0.840741
Si Si3 0.318631 0.323269 0.934700
Si Si4 0.683435 0.328727 0.615061
Si Si5 0.183404 0.329055 0.500000
O O1 0.750000 0.250000 0.743267
O O2 0.766589 0.376901 0.784218
O O3 0.743730 0.364083 0.674218
O O4 0.000000 0.322507 0.723986
O O5 0.232472 0.500000 0.832854
O O6 0.264107 0.388864 0.896818
O O7 0.000000 0.411935 0.850573
O O8 0.500000 0.316957 0.931621
O O9 0.250000 0.250000 0.910103
O O10 0.260832 0.336149 0.000000
O O11 0.500000 0.328826 0.612145
O O12 0.750000 0.250000 0.616657
O O13 0.752466 0.367544 0.557945
O O14 0.250000 0.250000 0.500000
O O15 0.000000 0.328460 0.500000
#
# Coordination Sequence:
#
# PCOD8265144 Si02
#       5
#    16  16  16  16   8
#     4  10  19  32  50  72  99 131 170 212 255 304
#     4  10  22  38  55  77 106 140 176 215 260 309
#     4  10  21  37  58  83 109 138 173 213 257 307
#     4  10  17  26  41  64  94 127 164 204 251 303
#     4  10  16  24  38  60  93 128 161 200 251 303
#
# _framework density 18.945065
#
# number of rings (size 3 to 8) (size 9 to 14) (size 15 to 20)
#    0.000    2.000    0.000    7.667    0.000    5.778 
#    0.000    2.222    0.000    0.000    0.000    0.778 
#    0.000    6.222    0.000    0.000    0.000    0.000 
#
# Total GULP energy -446336.254263 kJ/mol
# GULP energy per Si atom -12398.229285 kJ/mol
# Density = 1.890195 g / cm^3
# Si number density = 18.945065 Si / 1000 Ang^3
#
#
#
# Elastic Constant Matrix: (Units=GPa)
#
#
# Indices 1 2 3 4 5 6 
#
# 1 111.5049 35.2323 61.3204 0.0000 0.0000 0.0000
# 2 35.2323 81.7636 64.6809 0.0000 0.0000 0.0000
# 3 61.3204 64.6809 161.1829 0.0000 0.0000 0.0000
# 4 0.0000 0.0000 0.0000 2.8125 0.0000 0.0000
# 5 0.0000 0.0000 0.0000 0.0000 37.3389 0.0000
# 6 0.0000 0.0000 0.0000 0.0000 0.0000 19.5738
#
#
#
# Elastic Compliance Matrix: (Units=1/GPa)
#
#
# Indices 1 2 3 4 5 6 
#
# 1 0.011607 -0.002210 -0.003529 0.000000 0.000000 0.000000
# 2 -0.002210 0.018339 -0.006519 0.000000 0.000000 0.000000
# 3 -0.003529 -0.006519 0.010163 0.000000 0.000000 0.000000
# 4 0.000000 0.000000 0.000000 0.355551 0.000000 0.000000
# 5 0.000000 0.000000 0.000000 0.000000 0.026782 0.000000
# 6 0.000000 0.000000 0.000000 0.000000 0.000000 0.051089
#
#
# Mechanical properties :
#
#
# Convention : Reuss Voigt Hill
#
# Bulk Modulus (GPa) = 64.12722 75.21319 69.67021
# Shear Modulus (GPa) = 9.93555 24.82625 17.38090
#
# Velocity S-wave (km/s) = 2.29255 3.62392 3.03221
# Velocity P-wave (km/s) = 6.39767 7.56949 7.00812
#
# Compressibility (1/GPa) = 0.01559400
#
# Stress axis : x y z
#
# Youngs Moduli (GPa) = 86.15323 54.52759 98.40009
#
# Poissons Ratio (x) = 0.12050 0.34726
# Poissons Ratio (y) = 0.19039 0.64144
# Poissons Ratio (z) = 0.30404 0.35545
#
# Static dielectric constant tensor:
#      x y z
#    x 3.504700 0.000000 0.000000 
#    y 0.000000 3.069940 0.000000 
#    z 0.000000 0.000000 4.558530 
# 
# 
# High freq. dielectric constant tensor:
#      x y z
#    x 1.748680 0.000000 0.000000 
#    y 0.000000 1.677780 0.000000 
#    z 0.000000 0.000000 1.765640 
# 
# From -- ./inp_files/59212.got.cif
#   From: 2010.03.12/outbox.cif.g09.slc.cpg/sg65_30_cif.got.tgz:59212.got - 2010.04.10 20:52:16.
