data_PCOD8265762
_publ_section_title
;
Structure prediction by ZEFSAII (Michael W. Deem and Ramdas Pophale) SiO2 
 PCOD8265762
Probable space group: C M M M
;
_chemical_formula_sum "Si O2"
_cell_formula_units_Z 88
_cell_length_a 9.847885
_cell_length_b 25.409675
_cell_length_c 24.420013
_cell_angle_alpha 90.000000
_cell_angle_beta 90.000000
_cell_angle_gamma 90.000000
_cell_volume 6110.657882
_symmetry_space_group_name_H-M "C M M M"
_symmetry_group_IT_number 65
_symmetry_cell_setting 'orthorhombic'
loop_
_space_group_symop_operation_xyz
x,y,z
-x,-y,z
x,-y,-z
-x,y,-z
-x,-y,-z
x,y,-z
-x,y,z
x,-y,z
1/2+x,1/2+y,z
1/2-x,1/2-y,z
1/2+x,1/2-y,-z
1/2-x,1/2+y,-z
1/2-x,1/2-y,-z
1/2+x,1/2+y,-z
1/2-x,1/2+y,z
1/2+x,1/2-y,z
loop_
_atom_site_type_symbol
_atom_site_label
_atom_site_fract_x
_atom_site_fract_y
_atom_site_fract_z
Si Si1 0.655684 0.702135 0.062904
Si Si2 0.158457 0.438822 0.775554
Si Si3 0.659122 0.401259 0.868886
Si Si4 0.349982 0.937445 0.347689
Si Si5 0.660764 0.500000 0.060761
Si Si6 0.848143 0.937407 0.439312
O O1 0.500000 0.719553 0.070464
O O2 0.750000 0.750000 0.081973
O O3 0.691161 0.652771 0.100532
O O4 0.684792 0.686406 0.000000
O O5 0.194368 0.500000 0.784747
O O6 0.253013 0.402897 0.813653
O O7 0.194204 0.421460 0.713568
O O8 0.000000 0.428698 0.788179
O O9 0.500000 0.407010 0.854522
O O10 0.710535 0.448273 0.907699
O O11 0.500000 0.915284 0.360376
O O12 0.248572 0.912717 0.392700
O O13 0.352275 0.000000 0.351760
O O14 0.500000 0.500000 0.056004
O O15 0.725312 0.500000 0.000000
O O16 0.798095 0.920143 0.500000
O O17 0.000000 0.916213 0.428928
O O18 0.847318 0.000000 0.435350
#
# Coordination Sequence:
#
# PCOD8265762 Si02
#       6
#    16  16  16  16   8  16
#     4   9  18  32  48  65  83 103 130 164 200 241
#     4   9  17  28  39  53  78 107 132 162 200 239
#     4  10  18  28  44  64  81 102 134 165 196 240
#     4   8  14  23  33  45  63  92 127 158 190 229
#     4   9  16  26  41  61  83 103 124 157 198 235
#     4   8  13  20  29  43  63  86 116 158 202 233
#
# _framework density 14.401069
#
# number of rings (size 3 to 8) (size 9 to 14) (size 15 to 20)
#    0.000    3.182    0.909    2.182    0.000    4.000 
#    0.000    3.636    0.000    2.182    0.000    0.000 
#    0.000    0.000    0.000    0.000    0.000    0.909 
#
# Total GULP energy -545398.298304 kJ/mol
# GULP energy per Si atom -12395.415871 kJ/mol
# Density = 1.436829 g / cm^3
# Si number density = 14.401069 Si / 1000 Ang^3
#
#
#
# Elastic Constant Matrix: (Units=GPa)
#
#
# Indices 1 2 3 4 5 6 
#
# 1 76.4354 37.9222 72.9231 0.0000 0.0000 0.0000
# 2 37.9222 56.8784 40.0781 0.0000 0.0000 0.0000
# 3 72.9231 40.0781 126.8412 0.0000 0.0000 0.0000
# 4 0.0000 0.0000 0.0000 9.1652 0.0000 0.0000
# 5 0.0000 0.0000 0.0000 0.0000 29.4576 0.0000
# 6 0.0000 0.0000 0.0000 0.0000 0.0000 15.8118
#
#
#
# Elastic Compliance Matrix: (Units=1/GPa)
#
#
# Indices 1 2 3 4 5 6 
#
# 1 0.033895 -0.011408 -0.015883 0.000000 0.000000 0.000000
# 2 -0.011408 0.026456 -0.001801 0.000000 0.000000 0.000000
# 3 -0.015883 -0.001801 0.017584 0.000000 0.000000 0.000000
# 4 0.000000 0.000000 0.000000 0.109108 0.000000 0.000000
# 5 0.000000 0.000000 0.000000 0.000000 0.033947 0.000000
# 6 0.000000 0.000000 0.000000 0.000000 0.000000 0.063244
#
#
# Mechanical properties :
#
#
# Convention : Reuss Voigt Hill
#
# Bulk Modulus (GPa) = 50.62427 62.44464 56.53445
# Shear Modulus (GPa) = 14.32661 18.16903 16.24782
#
# Velocity S-wave (km/s) = 3.15751 3.55582 3.36257
# Velocity P-wave (km/s) = 6.96582 7.76619 7.37687
#
# Compressibility (1/GPa) = 0.01975337
#
# Stress axis : x y z
#
# Youngs Moduli (GPa) = 29.50255 37.79851 56.86968
#
# Poissons Ratio (x) = 0.43119 0.90324
# Poissons Ratio (y) = 0.33655 0.10242
# Poissons Ratio (z) = 0.46858 0.06807
#
# Static dielectric constant tensor:
#      x y z
#    x 2.900980 0.000000 0.000000 
#    y 0.000000 2.356900 0.000000 
#    z 0.000000 0.000000 2.982740 
# 
# 
# High freq. dielectric constant tensor:
#      x y z
#    x 1.548650 0.000000 0.000000 
#    y 0.000000 1.488520 0.000000 
#    z 0.000000 0.000000 1.556730 
# 
# From -- ./inp_files/51469.got.cif
#   From: 2010.03.12/outbox.cif.g09.slc.cpg/sg65_26_cif.got.tgz:51469.got - 2010.04.10 20:52:16.
