data_PCOD8265569
_publ_section_title
;
Structure prediction by ZEFSAII (Michael W. Deem and Ramdas Pophale) SiO2 
 PCOD8265569
Probable space group: C M M M
;
_chemical_formula_sum "Si O2"
_cell_formula_units_Z 72
_cell_length_a 31.122538
_cell_length_b 18.467783
_cell_length_c 9.279027
_cell_angle_alpha 90.000000
_cell_angle_beta 90.000000
_cell_angle_gamma 90.000000
_cell_volume 5333.253256
_symmetry_space_group_name_H-M "C M M M"
_symmetry_group_IT_number 65
_symmetry_cell_setting 'orthorhombic'
loop_
_space_group_symop_operation_xyz
x,y,z
-x,-y,z
x,-y,-z
-x,y,-z
-x,-y,-z
x,y,-z
-x,y,z
x,-y,z
1/2+x,1/2+y,z
1/2-x,1/2-y,z
1/2+x,1/2-y,-z
1/2-x,1/2+y,-z
1/2-x,1/2-y,-z
1/2+x,1/2+y,-z
1/2-x,1/2+y,z
1/2+x,1/2-y,z
loop_
_atom_site_type_symbol
_atom_site_label
_atom_site_fract_x
_atom_site_fract_y
_atom_site_fract_z
Si Si1 0.746030 0.082204 0.831390
Si Si2 0.170571 0.340309 0.669055
Si Si3 0.796602 0.214488 0.159086
Si Si4 0.917662 0.583240 0.333251
Si Si5 0.000000 0.413875 0.837300
O O1 0.704548 0.106267 0.742100
O O2 0.788024 0.131147 0.792328
O O3 0.757667 0.000000 0.791668
O O4 0.734744 0.091611 0.000000
O O5 0.179803 0.339318 0.500000
O O6 0.173651 0.258102 0.729206
O O7 0.123528 0.369261 0.706335
O O8 0.750000 0.250000 0.154315
O O9 0.817899 0.217648 0.000000
O O10 0.930017 0.590219 0.500000
O O11 0.907619 0.500000 0.293079
O O12 0.957407 0.614914 0.242212
O O13 0.000000 0.500000 0.830868
O O14 0.000000 0.384514 0.000000
#
# Coordination Sequence:
#
# PCOD8265569 Si02
#       5
#    16  16  16  16   8
#     4   9  17  28  40  53  71  97 127 157 188 220
#     4  10  18  26  38  56  75  96 124 155 185 218
#     4   8  15  27  39  51  70  96 123 151 186 222
#     4   9  17  28  39  51  71  98 123 148 181 218
#     4   9  17  27  39  55  71  89 118 153 184 213
#
# _framework density 13.500203000000001
#
# number of rings (size 3 to 8) (size 9 to 14) (size 15 to 20)
#    0.000    3.000    0.000    3.000    0.000    8.444 
#    0.000    2.222    0.000    0.000    0.000    0.000 
#    0.000    0.000    0.000    1.000    0.000   20.222 
#
# Total GULP energy -446230.502364 kJ/mol
# GULP energy per Si atom -12395.291732 kJ/mol
# Density = 1.346948 g / cm^3
# Si number density = 13.500203 Si / 1000 Ang^3
#
#
#
# Elastic Constant Matrix: (Units=GPa)
#
#
# Indices 1 2 3 4 5 6 
#
# 1 78.0556 48.1296 51.9026 0.0000 0.0000 0.0000
# 2 48.1296 97.6717 43.3700 0.0000 0.0000 0.0000
# 3 51.9026 43.3700 74.3918 0.0000 0.0000 0.0000
# 4 0.0000 0.0000 0.0000 17.9363 0.0000 0.0000
# 5 0.0000 0.0000 0.0000 0.0000 13.7490 0.0000
# 6 0.0000 0.0000 0.0000 0.0000 0.0000 16.7671
#
#
#
# Elastic Compliance Matrix: (Units=1/GPa)
#
#
# Indices 1 2 3 4 5 6 
#
# 1 0.026715 -0.006595 -0.014794 0.000000 0.000000 0.000000
# 2 -0.006595 0.015443 -0.004402 0.000000 0.000000 0.000000
# 3 -0.014794 -0.004402 0.026330 0.000000 0.000000 0.000000
# 4 0.000000 0.000000 0.000000 0.055753 0.000000 0.000000
# 5 0.000000 0.000000 0.000000 0.000000 0.072733 0.000000
# 6 0.000000 0.000000 0.000000 0.000000 0.000000 0.059641
#
#
# Mechanical properties :
#
#
# Convention : Reuss Voigt Hill
#
# Bulk Modulus (GPa) = 59.14926 59.65818 59.40372
# Shear Modulus (GPa) = 15.93211 16.80494 16.36852
#
# Velocity S-wave (km/s) = 3.43904 3.53199 3.48582
# Velocity P-wave (km/s) = 7.72516 7.80511 7.76524
#
# Compressibility (1/GPa) = 0.01690638
#
# Stress axis : x y z
#
# Youngs Moduli (GPa) = 37.43173 64.75489 37.97938
#
# Poissons Ratio (x) = 0.42708 0.56187
# Poissons Ratio (y) = 0.24688 0.16717
# Poissons Ratio (z) = 0.55376 0.28502
#
# Static dielectric constant tensor:
#      x y z
#    x 2.519210 0.000000 0.000000 
#    y 0.000000 2.970560 0.000000 
#    z 0.000000 0.000000 2.769670 
# 
# 
# High freq. dielectric constant tensor:
#      x y z
#    x 1.482520 0.000000 0.000000 
#    y 0.000000 1.494660 0.000000 
#    z 0.000000 0.000000 1.523120 
# 
# From -- ./inp_files/11453.got.cif
#   From: 2010.03.12/outbox.cif.g09.slc.cpg/sg65_6_cif.got.tgz:11453.got - 2010.04.10 20:52:16.
