data_PCOD8265588
_publ_section_title
;
Structure prediction by ZEFSAII (Michael W. Deem and Ramdas Pophale) SiO2 
 PCOD8265588
Probable space group: C M M M
;
_chemical_formula_sum "Si O2"
_cell_formula_units_Z 80
_cell_length_a 24.903815
_cell_length_b 20.281210
_cell_length_c 9.202682
_cell_angle_alpha 90.000000
_cell_angle_beta 90.000000
_cell_angle_gamma 90.000000
_cell_volume 4648.086040
_symmetry_space_group_name_H-M "C M M M"
_symmetry_group_IT_number 65
_symmetry_cell_setting 'orthorhombic'
loop_
_space_group_symop_operation_xyz
x,y,z
-x,-y,z
x,-y,-z
-x,y,-z
-x,-y,-z
x,y,-z
-x,y,z
x,-y,z
1/2+x,1/2+y,z
1/2-x,1/2-y,z
1/2+x,1/2-y,-z
1/2-x,1/2+y,-z
1/2-x,1/2-y,-z
1/2+x,1/2+y,-z
1/2-x,1/2+y,z
1/2+x,1/2-y,z
loop_
_atom_site_type_symbol
_atom_site_label
_atom_site_fract_x
_atom_site_fract_y
_atom_site_fract_z
Si Si1 0.500000 0.764972 0.828397
Si Si2 0.215646 0.075054 0.833551
Si Si3 0.000000 0.130823 0.665813
Si Si4 0.615790 0.383079 0.663904
Si Si5 0.896201 0.728456 0.333149
Si Si6 0.280110 0.815473 0.329216
O O1 0.500000 0.688997 0.782235
O O2 0.445741 0.797984 0.764132
O O3 0.500000 0.772965 0.000000
O O4 0.155199 0.080626 0.773396
O O5 0.256851 0.120367 0.747321
O O6 0.235185 0.000000 0.816816
O O7 0.214846 0.097536 0.000000
O O8 0.054804 0.088948 0.687203
O O9 0.000000 0.160535 0.500000
O O10 0.635541 0.397306 0.500000
O O11 0.615962 0.305198 0.694771
O O12 0.911600 0.716506 0.500000
O O13 0.842980 0.688160 0.290131
O O14 0.270164 0.822811 0.500000
O O15 0.250000 0.750000 0.272074
#
# Coordination Sequence:
#
# PCOD8265588 Si02
#       6
#     8  16   8  16  16  16
#     4  10  18  26  42  73 108 135 164 196 240 306
#     4  11  24  37  48  70 106 141 170 206 256 311
#     4   8  16  30  47  67  94 128 167 215 260 291
#     4   9  16  31  52  71  94 129 172 215 254 297
#     4   9  17  31  51  74 102 130 162 210 259 296
#     4  10  19  35  57  79  99 127 173 220 257 299
#
# _framework density 17.211385
#
# number of rings (size 3 to 8) (size 9 to 14) (size 15 to 20)
#    0.000    2.400    2.000    2.700    0.000    6.000 
#    0.000    0.500    0.000    3.000    0.000    0.700 
#    0.000    5.600    0.000    0.000    0.000    0.000 
#
# Total GULP energy -495853.668100 kJ/mol
# GULP energy per Si atom -12396.341702 kJ/mol
# Density = 1.717221 g / cm^3
# Si number density = 17.211385 Si / 1000 Ang^3
#
#
#
# Elastic Constant Matrix: (Units=GPa)
#
#
# Indices 1 2 3 4 5 6 
#
# 1 130.2784 43.1539 66.6463 0.0000 0.0000 0.0000
# 2 43.1539 54.3590 34.7580 0.0000 0.0000 0.0000
# 3 66.6463 34.7580 90.5467 0.0000 0.0000 0.0000
# 4 0.0000 0.0000 0.0000 21.8750 0.0000 0.0000
# 5 0.0000 0.0000 0.0000 0.0000 15.9632 0.0000
# 6 0.0000 0.0000 0.0000 0.0000 0.0000 11.8130
#
#
#
# Elastic Compliance Matrix: (Units=1/GPa)
#
#
# Indices 1 2 3 4 5 6 
#
# 1 0.013569 -0.005813 -0.007756 0.000000 0.000000 0.000000
# 2 -0.005813 0.026870 -0.006036 0.000000 0.000000 0.000000
# 3 -0.007756 -0.006036 0.019070 0.000000 0.000000 0.000000
# 4 0.000000 0.000000 0.000000 0.045714 0.000000 0.000000
# 5 0.000000 0.000000 0.000000 0.000000 0.062644 0.000000
# 6 0.000000 0.000000 0.000000 0.000000 0.000000 0.084652
#
#
# Mechanical properties :
#
#
# Convention : Reuss Voigt Hill
#
# Bulk Modulus (GPa) = 49.26282 62.70003 55.98143
# Shear Modulus (GPa) = 16.75058 18.63863 17.69461
#
# Velocity S-wave (km/s) = 3.12304 3.29435 3.20984
# Velocity P-wave (km/s) = 6.45669 7.13995 6.80690
#
# Compressibility (1/GPa) = 0.02029928
#
# Stress axis : x y z
#
# Youngs Moduli (GPa) = 73.69715 37.21568 52.43836
#
# Poissons Ratio (x) = 0.21632 0.40672
# Poissons Ratio (y) = 0.42838 0.31653
# Poissons Ratio (z) = 0.57160 0.22465
#
# Static dielectric constant tensor:
#      x y z
#    x 3.592910 0.000000 0.000000 
#    y 0.000000 2.766990 0.000000 
#    z 0.000000 0.000000 3.132230 
# 
# 
# High freq. dielectric constant tensor:
#      x y z
#    x 1.681550 0.000000 0.000000 
#    y 0.000000 1.610490 0.000000 
#    z 0.000000 0.000000 1.659220 
# 
# From -- ./inp_files/13873.got.cif
#   From: 2010.03.12/outbox.cif.g09.slc.cpg/sg65_7_cif.got.tgz:13873.got - 2010.04.10 20:52:16.
