data_PCOD8265587
_publ_section_title
;
Structure prediction by ZEFSAII (Michael W. Deem and Ramdas Pophale) SiO2 
 PCOD8265587
Probable space group: C M M M
;
_chemical_formula_sum "Si O2"
_cell_formula_units_Z 96
_cell_length_a 18.518839
_cell_length_b 27.949230
_cell_length_c 11.930721
_cell_angle_alpha 90.000000
_cell_angle_beta 90.000000
_cell_angle_gamma 90.000000
_cell_volume 6175.189557
_symmetry_space_group_name_H-M "C M M M"
_symmetry_group_IT_number 65
_symmetry_cell_setting 'orthorhombic'
loop_
_space_group_symop_operation_xyz
x,y,z
-x,-y,z
x,-y,-z
-x,y,-z
-x,-y,-z
x,y,-z
-x,y,z
x,-y,z
1/2+x,1/2+y,z
1/2-x,1/2-y,z
1/2+x,1/2-y,-z
1/2-x,1/2+y,-z
1/2-x,1/2-y,-z
1/2+x,1/2+y,-z
1/2-x,1/2+y,z
1/2+x,1/2-y,z
loop_
_atom_site_type_symbol
_atom_site_label
_atom_site_fract_x
_atom_site_fract_y
_atom_site_fract_z
Si Si1 0.584939 0.353088 0.000000
Si Si2 0.877755 0.189196 0.624650
Si Si3 0.420100 0.396975 0.765570
Si Si4 0.164250 0.247489 0.000000
Si Si5 0.280256 0.854883 0.376587
Si Si6 0.829450 0.727004 0.762247
Si Si7 0.200770 0.945913 0.629766
O O1 0.605370 0.384692 0.891614
O O2 0.635463 0.306635 0.000000
O O3 0.500000 0.338751 0.000000
O O4 0.910286 0.194229 0.500000
O O5 0.924704 0.152031 0.695311
O O6 0.796493 0.170715 0.618671
O O7 0.880594 0.240901 0.683591
O O8 0.500000 0.419839 0.767617
O O9 0.367138 0.435456 0.709583
O O10 0.250000 0.250000 0.000000
O O11 0.136860 0.274288 0.112473
O O12 0.316547 0.852185 0.500000
O O13 0.329371 0.827068 0.286416
O O14 0.267233 0.910240 0.340622
O O15 0.750000 0.750000 0.765944
O O16 0.177256 0.937602 0.500000
O O17 0.227170 0.000000 0.649990
#
# Coordination Sequence:
#
# PCOD8265587 Si02
#       7
#     8  16  16   8  16  16  16
#     4  10  20  34  45  57  84 120 147 173 215 264
#     4   9  15  23  37  56  78  99 126 163 207 254
#     4  10  19  30  43  56  76 108 145 181 217 255
#     4  10  18  26  42  64  82 105 141 181 205 238
#     4   8  14  24  38  56  78 103 125 158 212 264
#     4   9  15  23  36  57  81 100 124 163 206 250
#     4   9  18  31  45  60  78 102 139 187 231 263
#
# _framework density 15.546080999999999
#
# number of rings (size 3 to 8) (size 9 to 14) (size 15 to 20)
#    0.000    2.833    1.667    2.000    2.333    3.667 
#    0.000    1.250    0.000    1.500    0.000    0.000 
#    0.000    0.000    0.000    0.000    0.000    4.167 
#
# Total GULP energy -594854.623217 kJ/mol
# GULP energy per Si atom -12392.804650 kJ/mol
# Density = 1.551070 g / cm^3
# Si number density = 15.546081 Si / 1000 Ang^3
#
#
#
# Elastic Constant Matrix: (Units=GPa)
#
#
# Indices 1 2 3 4 5 6 
#
# 1 6.7788 12.0591 4.1340 0.0000 0.0000 0.0000
# 2 12.0591 111.3675 48.6901 0.0000 0.0000 0.0000
# 3 4.1340 48.6901 123.2534 0.0000 0.0000 0.0000
# 4 0.0000 0.0000 0.0000 18.3368 0.0000 0.0000
# 5 0.0000 0.0000 0.0000 0.0000 11.5840 0.0000
# 6 0.0000 0.0000 0.0000 0.0000 0.0000 14.0608
#
#
#
# Elastic Compliance Matrix: (Units=1/GPa)
#
#
# Indices 1 2 3 4 5 6 
#
# 1 0.183141 -0.020725 0.002045 0.000000 0.000000 0.000000
# 2 -0.020725 0.013199 -0.004519 0.000000 0.000000 0.000000
# 3 0.002045 -0.004519 0.009830 0.000000 0.000000 0.000000
# 4 0.000000 0.000000 0.000000 0.054535 0.000000 0.000000
# 5 0.000000 0.000000 0.000000 0.000000 0.086326 0.000000
# 6 0.000000 0.000000 0.000000 0.000000 0.000000 0.071120
#
#
# Mechanical properties :
#
#
# Convention : Reuss Voigt Hill
#
# Bulk Modulus (GPa) = 6.25893 41.24068 23.74981
# Shear Modulus (GPa) = 9.65610 20.56407 15.11009
#
# Velocity S-wave (km/s) = 2.49495 3.64095 3.12100
# Velocity P-wave (km/s) = 3.51205 6.65289 5.31956
#
# Compressibility (1/GPa) = 0.15977163
#
# Stress axis : x y z
#
# Youngs Moduli (GPa) = 5.46027 75.76237 101.72919
#
# Poissons Ratio (x) = 1.57016 -0.20799
# Poissons Ratio (y) = 0.11316 0.45972
# Poissons Ratio (z) = -0.01116 0.34238
#
# Static dielectric constant tensor:
#      x y z
#    x 2.505470 0.000000 0.000000 
#    y 0.000000 2.959680 0.000000 
#    z 0.000000 0.000000 3.389320 
# 
# 
# High freq. dielectric constant tensor:
#      x y z
#    x 1.533820 0.000000 0.000000 
#    y 0.000000 1.575720 0.000000 
#    z 0.000000 0.000000 1.614490 
# 
# From -- ./inp_files/29534.got.cif
#   From: 2010.03.12/outbox.cif.g09.slc.cpg/sg65_15_cif.got.tgz:29534.got - 2010.04.10 20:52:16.
