data_PCOD8265563
_publ_section_title
;
Structure prediction by ZEFSAII (Michael W. Deem and Ramdas Pophale) SiO2 
 PCOD8265563
Probable space group: C M M M
;
_chemical_formula_sum "Si O2"
_cell_formula_units_Z 96
_cell_length_a 35.628852
_cell_length_b 13.937008
_cell_length_c 13.733831
_cell_angle_alpha 90.000000
_cell_angle_beta 90.000000
_cell_angle_gamma 90.000000
_cell_volume 6819.665564
_symmetry_space_group_name_H-M "C M M M"
_symmetry_group_IT_number 65
_symmetry_cell_setting 'orthorhombic'
loop_
_space_group_symop_operation_xyz
x,y,z
-x,-y,z
x,-y,-z
-x,y,-z
-x,-y,-z
x,y,-z
-x,y,z
x,-y,z
1/2+x,1/2+y,z
1/2-x,1/2-y,z
1/2+x,1/2-y,-z
1/2-x,1/2+y,-z
1/2-x,1/2-y,-z
1/2+x,1/2+y,-z
1/2-x,1/2+y,z
1/2+x,1/2-y,z
loop_
_atom_site_type_symbol
_atom_site_label
_atom_site_fract_x
_atom_site_fract_y
_atom_site_fract_z
Si Si1 0.612685 0.887178 0.776301
Si Si2 0.724823 0.886117 0.296481
Si Si3 0.655395 0.209081 0.389213
Si Si4 0.314212 0.112493 0.893397
Si Si5 0.698105 0.391782 0.612560
Si Si6 0.541561 0.886176 0.108802
O O1 0.621854 0.829132 0.678170
O O2 0.643727 0.864335 0.857928
O O3 0.572945 0.847840 0.816505
O O4 0.611805 0.000000 0.751301
O O5 0.694340 0.846289 0.371875
O O6 0.715418 0.848877 0.186869
O O7 0.766578 0.852740 0.324771
O O8 0.721588 0.000000 0.302822
O O9 0.642620 0.193049 0.500000
O O10 0.662815 0.322244 0.367795
O O11 0.308933 0.000000 0.904084
O O12 0.307617 0.160665 0.000000
O O13 0.710333 0.388306 0.500000
O O14 0.686820 0.500000 0.643357
O O15 0.500000 0.854912 0.145093
O O16 0.544606 0.000000 0.104149
O O17 0.548739 0.845348 0.000000
#
# Coordination Sequence:
#
# PCOD8265563 Si02
#       6
#    16  16  16  16  16  16
#     4   9  16  24  36  55  78 101 122 147 176 207
#     4   9  16  24  36  54  73  94 121 154 189 223
#     4  10  18  26  37  52  71  96 124 153 186 223
#     4   8  13  21  33  49  70  96 122 146 175 209
#     4   9  17  28  40  52  66  87 120 162 200 226
#     4   8  13  22  38  59  81 105 129 148 168 198
#
# _framework density 14.076936
#
# number of rings (size 3 to 8) (size 9 to 14) (size 15 to 20)
#    0.000    3.167    0.000    3.500    0.000    5.333 
#    0.000    0.000    0.000    9.500    0.000    2.333 
#    0.000    0.667    0.000    6.000    0.000    0.167 
#
# Total GULP energy -594863.087754 kJ/mol
# GULP energy per Si atom -12392.980995 kJ/mol
# Density = 1.404490 g / cm^3
# Si number density = 14.076936 Si / 1000 Ang^3
#
#
#
# Elastic Constant Matrix: (Units=GPa)
#
#
# Indices 1 2 3 4 5 6 
#
# 1 81.7719 27.7346 57.3850 0.0000 0.0000 0.0000
# 2 27.7346 26.1926 28.8605 0.0000 0.0000 0.0000
# 3 57.3850 28.8605 103.1768 0.0000 0.0000 0.0000
# 4 0.0000 0.0000 0.0000 8.8742 0.0000 0.0000
# 5 0.0000 0.0000 0.0000 0.0000 23.9421 0.0000
# 6 0.0000 0.0000 0.0000 0.0000 0.0000 11.5593
#
#
#
# Elastic Compliance Matrix: (Units=1/GPa)
#
#
# Indices 1 2 3 4 5 6 
#
# 1 0.023628 -0.015234 -0.008880 0.000000 0.000000 0.000000
# 2 -0.015234 0.065011 -0.009712 0.000000 0.000000 0.000000
# 3 -0.008880 -0.009712 0.017348 0.000000 0.000000 0.000000
# 4 0.000000 0.000000 0.000000 0.112686 0.000000 0.000000
# 5 0.000000 0.000000 0.000000 0.000000 0.041767 0.000000
# 6 0.000000 0.000000 0.000000 0.000000 0.000000 0.086511
#
#
# Mechanical properties :
#
#
# Convention : Reuss Voigt Hill
#
# Bulk Modulus (GPa) = 26.08645 48.78903 37.43774
# Shear Modulus (GPa) = 11.69917 15.35253 13.52585
#
# Velocity S-wave (km/s) = 2.88599 3.30603 3.10312
# Velocity P-wave (km/s) = 5.44764 7.02191 6.28427
#
# Compressibility (1/GPa) = 0.03833407
#
# Stress axis : x y z
#
# Youngs Moduli (GPa) = 42.32282 15.38207 57.64492
#
# Poissons Ratio (x) = 0.23434 0.51189
# Poissons Ratio (y) = 0.64476 0.55983
# Poissons Ratio (z) = 0.37583 0.14939
#
# Static dielectric constant tensor:
#      x y z
#    x 2.708390 0.000000 0.000000 
#    y 0.000000 2.575690 0.000000 
#    z 0.000000 0.000000 2.974090 
# 
# 
# High freq. dielectric constant tensor:
#      x y z
#    x 1.509260 0.000000 0.000000 
#    y 0.000000 1.501620 0.000000 
#    z 0.000000 0.000000 1.539130 
# 
# From -- ./inp_files/47897.got.cif
#   From: 2010.03.12/outbox.cif.g09.slc.cpg/sg65_24_cif.got.tgz:47897.got - 2010.04.10 20:52:16.
