data_PCOD8265687
_publ_section_title
;
Structure prediction by ZEFSAII (Michael W. Deem and Ramdas Pophale) SiO2 
 PCOD8265687
Probable space group: C M M M
;
_chemical_formula_sum "Si O2"
_cell_formula_units_Z 72
_cell_length_a 15.648244
_cell_length_b 28.788696
_cell_length_c 8.938617
_cell_angle_alpha 90.000000
_cell_angle_beta 90.000000
_cell_angle_gamma 90.000000
_cell_volume 4026.780271
_symmetry_space_group_name_H-M "C M M M"
_symmetry_group_IT_number 65
_symmetry_cell_setting 'orthorhombic'
loop_
_space_group_symop_operation_xyz
x,y,z
-x,-y,z
x,-y,-z
-x,y,-z
-x,-y,-z
x,y,-z
-x,y,z
x,-y,z
1/2+x,1/2+y,z
1/2-x,1/2-y,z
1/2+x,1/2-y,-z
1/2-x,1/2+y,-z
1/2-x,1/2-y,-z
1/2+x,1/2+y,-z
1/2-x,1/2+y,z
1/2+x,1/2-y,z
loop_
_atom_site_type_symbol
_atom_site_label
_atom_site_fract_x
_atom_site_fract_y
_atom_site_fract_z
Si Si1 0.594650 0.196864 0.822509
Si Si2 0.595025 0.300807 0.177354
Si Si3 0.249343 0.135993 0.821764
Si Si4 0.500000 0.554946 0.166957
Si Si5 0.327443 0.553326 0.676222
O O1 0.500000 0.180075 0.772429
O O2 0.612002 0.248779 0.760147
O O3 0.665404 0.161232 0.761087
O O4 0.600877 0.198452 0.000000
O O5 0.500000 0.317929 0.226768
O O6 0.667693 0.335067 0.238918
O O7 0.600800 0.299064 0.000000
O O8 0.247103 0.085052 0.746636
O O9 0.249130 0.130698 0.000000
O O10 0.500000 0.500000 0.156705
O O11 0.583728 0.571604 0.254112
O O12 0.500000 0.577073 0.000000
O O13 0.332284 0.559497 0.500000
O O14 0.308692 0.500000 0.720327
#
# Coordination Sequence:
#
# PCOD8265687 Si02
#       5
#    16  16  16   8  16
#     4   8  14  26  44  68  98 127 156 197 246 289
#     4   8  14  24  40  67 101 128 152 190 237 284
#     4  10  18  27  47  74  95 122 163 205 239 277
#     4   9  17  31  51  71  91 119 157 197 231 271
#     4  10  21  35  48  65  95 132 162 192 239 292
#
# _framework density 17.880289000000001
#
# number of rings (size 3 to 8) (size 9 to 14) (size 15 to 20)
#    0.000    3.000    0.000    3.000    1.556    5.333 
#    0.000    0.000    0.000    4.000    0.000    7.778 
#    0.000    0.000    0.000    0.000    0.000    0.000 
#
# Total GULP energy -446222.114685 kJ/mol
# GULP energy per Si atom -12395.058741 kJ/mol
# Density = 1.783959 g / cm^3
# Si number density = 17.880289 Si / 1000 Ang^3
#
#
#
# Elastic Constant Matrix: (Units=GPa)
#
#
# Indices 1 2 3 4 5 6 
#
# 1 120.8609 71.2157 24.1021 0.0000 0.0000 0.0000
# 2 71.2157 99.6843 28.7252 0.0000 0.0000 0.0000
# 3 24.1021 28.7252 37.6719 0.0000 0.0000 0.0000
# 4 0.0000 0.0000 0.0000 13.0651 0.0000 0.0000
# 5 0.0000 0.0000 0.0000 0.0000 10.8713 0.0000
# 6 0.0000 0.0000 0.0000 0.0000 0.0000 31.9844
#
#
#
# Elastic Compliance Matrix: (Units=1/GPa)
#
#
# Indices 1 2 3 4 5 6 
#
# 1 0.014379 -0.009768 -0.001751 0.000000 0.000000 0.000000
# 2 -0.009768 0.019492 -0.008614 0.000000 0.000000 0.000000
# 3 -0.001751 -0.008614 0.034234 0.000000 0.000000 0.000000
# 4 0.000000 0.000000 0.000000 0.076540 0.000000 0.000000
# 5 0.000000 0.000000 0.000000 0.000000 0.091986 0.000000
# 6 0.000000 0.000000 0.000000 0.000000 0.000000 0.031265
#
#
# Mechanical properties :
#
#
# Convention : Reuss Voigt Hill
#
# Bulk Modulus (GPa) = 35.92101 56.25592 46.08847
# Shear Modulus (GPa) = 15.75103 20.12909 17.94006
#
# Velocity S-wave (km/s) = 2.97124 3.35889 3.17099
# Velocity P-wave (km/s) = 5.64840 6.82449 6.26411
#
# Compressibility (1/GPa) = 0.02783886
#
# Stress axis : x y z
#
# Youngs Moduli (GPa) = 69.54731 51.30338 29.21115
#
# Poissons Ratio (x) = 0.50111 0.05116
# Poissons Ratio (y) = 0.67931 0.25161
# Poissons Ratio (z) = 0.12181 0.44190
#
# Static dielectric constant tensor:
#      x y z
#    x 3.514950 0.000000 0.000000 
#    y 0.000000 3.403420 0.000000 
#    z 0.000000 0.000000 2.820450 
# 
# 
# High freq. dielectric constant tensor:
#      x y z
#    x 1.680990 0.000000 0.000000 
#    y 0.000000 1.691830 0.000000 
#    z 0.000000 0.000000 1.642700 
# 
# From -- ./inp_files/7236.got.cif
#   From: 2010.03.12/outbox.cif.g09.slc.cpg/sg65_4_cif.got.tgz:7236.got - 2010.04.10 20:52:16.
