data_PCOD8265519
_publ_section_title
;
Structure prediction by ZEFSAII (Michael W. Deem and Ramdas Pophale) SiO2 
 PCOD8265519
Probable space group: C M M M
;
_chemical_formula_sum "Si O2"
_cell_formula_units_Z 104
_cell_length_a 23.881220
_cell_length_b 8.648341
_cell_length_c 25.799432
_cell_angle_alpha 90.000000
_cell_angle_beta 90.000000
_cell_angle_gamma 90.000000
_cell_volume 5328.432388
_symmetry_space_group_name_H-M "C M M M"
_symmetry_group_IT_number 65
_symmetry_cell_setting 'orthorhombic'
loop_
_space_group_symop_operation_xyz
x,y,z
-x,-y,z
x,-y,-z
-x,y,-z
-x,-y,-z
x,y,-z
-x,y,z
x,-y,z
1/2+x,1/2+y,z
1/2-x,1/2-y,z
1/2+x,1/2-y,-z
1/2-x,1/2+y,-z
1/2-x,1/2-y,-z
1/2+x,1/2+y,-z
1/2-x,1/2+y,z
1/2+x,1/2-y,z
loop_
_atom_site_type_symbol
_atom_site_label
_atom_site_fract_x
_atom_site_fract_y
_atom_site_fract_z
Si Si1 0.691067 0.820635 0.439307
Si Si2 0.000000 0.183276 0.793857
Si Si3 0.115313 0.818762 0.943692
Si Si4 0.310849 0.682419 0.737168
Si Si5 0.380757 0.684332 0.833122
Si Si6 0.888040 0.182106 0.642024
Si Si7 0.000000 0.331667 0.940803
Si Si8 0.500000 0.181242 0.320190
O O1 0.682180 0.794304 0.500000
O O2 0.750000 0.750000 0.420793
O O3 0.640904 0.731190 0.411429
O O4 0.690335 0.000000 0.424034
O O5 0.944134 0.247779 0.822696
O O6 0.000000 0.233598 0.734522
O O7 0.000000 0.000000 0.793651
O O8 0.145356 0.764681 0.890009
O O9 0.052436 0.775703 0.928613
O O10 0.120723 0.000000 0.950620
O O11 0.134693 0.744033 0.000000
O O12 0.306177 0.500000 0.740258
O O13 0.250000 0.750000 0.729501
O O14 0.338907 0.750013 0.789649
O O15 0.348745 0.735334 0.689341
O O16 0.383362 0.500000 0.830179
O O17 0.946443 0.270357 0.646251
O O18 0.899007 0.000000 0.642839
O O19 0.000000 0.500000 0.911435
O O20 0.000000 0.375814 0.000000
O O21 0.500000 0.000000 0.310468
#
# Coordination Sequence:
#
# PCOD8265519 Si02
#       8
#    16   8  16  16  16  16   8   8
#     4  10  21  38  61  91 126 161 198 242 287 328
#     4  10  17  33  54  72 102 145 184 217 269 337
#     4   9  16  27  46  69  91 124 173 220 259 311
#     4  10  21  36  55  78 105 139 178 225 278 327
#     4   9  17  31  52  75 102 136 174 221 273 325
#     4  11  22  39  62  85 113 153 194 232 281 340
#     4   9  16  25  37  58  93 128 153 190 250 311
#     4  12  24  37  56  84 118 149 184 233 281 336
#
# _framework density 19.517935999999999
#
# number of rings (size 3 to 8) (size 9 to 14) (size 15 to 20)
#    0.000    2.077    1.538    2.769    0.000    5.538 
#    0.000    2.692    0.000    2.769    0.000    0.000 
#    0.000    0.000    0.000    0.000    0.000    0.000 
#
# Total GULP energy -644307.538862 kJ/mol
# GULP energy per Si atom -12390.529593 kJ/mol
# Density = 1.947351 g / cm^3
# Si number density = 19.517936 Si / 1000 Ang^3
#
#
#
# Elastic Constant Matrix: (Units=GPa)
#
#
# Indices 1 2 3 4 5 6 
#
# 1 105.9120 17.1970 40.4988 0.0000 0.0000 0.0000
# 2 17.1970 22.3688 17.6306 0.0000 0.0000 0.0000
# 3 40.4988 17.6306 98.1258 0.0000 0.0000 0.0000
# 4 0.0000 0.0000 0.0000 16.3340 0.0000 0.0000
# 5 0.0000 0.0000 0.0000 0.0000 21.3538 0.0000
# 6 0.0000 0.0000 0.0000 0.0000 0.0000 24.8636
#
#
#
# Elastic Compliance Matrix: (Units=1/GPa)
#
#
# Indices 1 2 3 4 5 6 
#
# 1 0.011895 -0.006145 -0.003805 0.000000 0.000000 0.000000
# 2 -0.006145 0.055256 -0.007392 0.000000 0.000000 0.000000
# 3 -0.003805 -0.007392 0.013089 0.000000 0.000000 0.000000
# 4 0.000000 0.000000 0.000000 0.061222 0.000000 0.000000
# 5 0.000000 0.000000 0.000000 0.000000 0.046830 0.000000
# 6 0.000000 0.000000 0.000000 0.000000 0.000000 0.040219
#
#
# Mechanical properties :
#
#
# Convention : Reuss Voigt Hill
#
# Bulk Modulus (GPa) = 21.95118 41.89549 31.92334
# Shear Modulus (GPa) = 17.96101 22.58228 20.27165
#
# Velocity S-wave (km/s) = 3.03682 3.40516 3.22625
# Velocity P-wave (km/s) = 4.85463 6.08045 5.50179
#
# Compressibility (1/GPa) = 0.04555563
#
# Stress axis : x y z
#
# Youngs Moduli (GPa) = 84.07169 18.09770 76.39721
#
# Poissons Ratio (x) = 0.11122 0.29069
# Poissons Ratio (y) = 0.51666 0.56469
# Poissons Ratio (z) = 0.31989 0.13377
#
# Static dielectric constant tensor:
#      x y z
#    x 3.538070 0.000000 0.000000 
#    y 0.000000 3.354080 0.000000 
#    z 0.000000 0.000000 3.903470 
# 
# 
# High freq. dielectric constant tensor:
#      x y z
#    x 1.732850 0.000000 0.000000 
#    y 0.000000 1.741770 0.000000 
#    z 0.000000 0.000000 1.778320 
# 
# From -- ./inp_files/75541.got.cif
#   From: 2010.03.12/outbox.cif.g09.slc.cpg/sg65_38_cif.got.tgz:75541.got - 2010.04.10 20:52:16.
