data_PCOD8265765
_publ_section_title
;
Structure prediction by ZEFSAII (Michael W. Deem and Ramdas Pophale) SiO2 
 PCOD8265765
Probable space group: C M M M
;
_chemical_formula_sum "Si O2"
_cell_formula_units_Z 104
_cell_length_a 29.912934
_cell_length_b 23.010233
_cell_length_c 9.298509
_cell_angle_alpha 90.000000
_cell_angle_beta 90.000000
_cell_angle_gamma 90.000000
_cell_volume 6400.197043
_symmetry_space_group_name_H-M "C M M M"
_symmetry_group_IT_number 65
_symmetry_cell_setting 'orthorhombic'
loop_
_space_group_symop_operation_xyz
x,y,z
-x,-y,z
x,-y,-z
-x,y,-z
-x,-y,-z
x,y,-z
-x,y,z
x,-y,z
1/2+x,1/2+y,z
1/2-x,1/2-y,z
1/2+x,1/2-y,-z
1/2-x,1/2+y,-z
1/2-x,1/2-y,-z
1/2+x,1/2+y,-z
1/2-x,1/2+y,z
1/2+x,1/2-y,z
loop_
_atom_site_type_symbol
_atom_site_label
_atom_site_fract_x
_atom_site_fract_y
_atom_site_fract_z
Si Si1 0.551126 0.162169 0.330952
Si Si2 0.605967 0.389926 0.830200
Si Si3 0.450068 0.500000 0.829238
Si Si4 0.448704 0.276788 0.166849
Si Si5 0.311478 0.566845 0.328638
Si Si6 0.118769 0.565064 0.327785
Si Si7 0.714821 0.931288 0.343231
O O1 0.557216 0.170571 0.500000
O O2 0.500000 0.147811 0.290293
O O3 0.567377 0.221034 0.255754
O O4 0.581097 0.109159 0.271616
O O5 0.575459 0.442884 0.774258
O O6 0.581638 0.330664 0.785906
O O7 0.653265 0.391633 0.749518
O O8 0.614108 0.394113 0.000000
O O9 0.500000 0.500000 0.763817
O O10 0.452803 0.500000 0.000000
O O11 0.500000 0.292694 0.202136
O O12 0.442643 0.262288 0.000000
O O13 0.313878 0.574983 0.500000
O O14 0.321506 0.500000 0.286799
O O15 0.262005 0.586007 0.268317
O O16 0.121296 0.565165 0.500000
O O17 0.106606 0.500000 0.273743
O O18 0.167790 0.585087 0.264721
O O19 0.714589 0.901412 0.500000
O O20 0.715312 0.000000 0.363618
#
# Coordination Sequence:
#
# PCOD8265765 Si02
#       7
#    16  16   8  16  16  16  16
#     4   9  17  28  44  68  93 114 139 175 216 252
#     4  10  18  28  44  64  83 107 143 184 220 254
#     4   9  16  26  41  61  83 105 133 175 220 257
#     4   9  18  32  47  61  80 113 153 181 205 249
#     4   9  16  26  41  62  88 113 138 172 217 263
#     4   8  13  23  42  68  94 116 140 171 208 251
#     4   7  11  21  38  60  85 114 143 169 201 248
#
# _framework density 16.249499
#
# number of rings (size 3 to 8) (size 9 to 14) (size 15 to 20)
#    0.000    3.308    0.769    2.308    0.000    2.769 
#    0.000    1.538    0.000    4.154    0.000   10.769 
#    0.000    0.000    0.000    0.000    0.000    0.000 
#
# Total GULP energy -644282.868314 kJ/mol
# GULP energy per Si atom -12390.055160 kJ/mol
# Density = 1.621251 g / cm^3
# Si number density = 16.249499 Si / 1000 Ang^3
#
#
#
# Elastic Constant Matrix: (Units=GPa)
#
#
# Indices 1 2 3 4 5 6 
#
# 1 143.6961 84.4573 29.7405 0.0000 0.0000 0.0000
# 2 84.4573 111.5487 28.1607 0.0000 0.0000 0.0000
# 3 29.7405 28.1607 19.2927 0.0000 0.0000 0.0000
# 4 0.0000 0.0000 0.0000 17.6871 0.0000 0.0000
# 5 0.0000 0.0000 0.0000 0.0000 12.5211 0.0000
# 6 0.0000 0.0000 0.0000 0.0000 0.0000 20.2898
#
#
#
# Elastic Compliance Matrix: (Units=1/GPa)
#
#
# Indices 1 2 3 4 5 6 
#
# 1 0.013526 -0.007881 -0.009347 0.000000 0.000000 0.000000
# 2 -0.007881 0.018788 -0.015275 0.000000 0.000000 0.000000
# 3 -0.009347 -0.015275 0.088537 0.000000 0.000000 0.000000
# 4 0.000000 0.000000 0.000000 0.056538 0.000000 0.000000
# 5 0.000000 0.000000 0.000000 0.000000 0.079865 0.000000
# 6 0.000000 0.000000 0.000000 0.000000 0.000000 0.049286
#
#
# Mechanical properties :
#
#
# Convention : Reuss Voigt Hill
#
# Bulk Modulus (GPa) = 17.90645 62.13938 40.02292
# Shear Modulus (GPa) = 12.81522 18.91154 15.86338
#
# Velocity S-wave (km/s) = 2.81134 3.41519 3.12787
# Velocity P-wave (km/s) = 4.64562 7.33997 6.14235
#
# Compressibility (1/GPa) = 0.05584578
#
# Stress axis : x y z
#
# Youngs Moduli (GPa) = 73.93287 53.22557 11.29467
#
# Poissons Ratio (x) = 0.41948 0.10557
# Poissons Ratio (y) = 0.58268 0.17252
# Poissons Ratio (z) = 0.69103 0.81300
#
# Static dielectric constant tensor:
#      x y z
#    x 3.456160 0.000000 0.000000 
#    y 0.000000 2.938210 0.000000 
#    z 0.000000 0.000000 2.643170 
# 
# 
# High freq. dielectric constant tensor:
#      x y z
#    x 1.639880 0.000000 0.000000 
#    y 0.000000 1.599170 0.000000 
#    z 0.000000 0.000000 1.579250 
# 
# From -- ./inp_files/18887.got.cif
#   From: 2010.03.12/outbox.cif.g09.slc.cpg/sg65_10_cif.got.tgz:18887.got - 2010.04.10 20:52:16.
