data_PCOD8265960
_publ_section_title
;
Structure prediction by ZEFSAII (Michael W. Deem and Ramdas Pophale) SiO2 
 PCOD8265960
Probable space group: C M M M
;
_chemical_formula_sum "Si O2"
_cell_formula_units_Z 88
_cell_length_a 15.853167
_cell_length_b 29.022540
_cell_length_c 11.825338
_cell_angle_alpha 90.000000
_cell_angle_beta 90.000000
_cell_angle_gamma 90.000000
_cell_volume 5440.828239
_symmetry_space_group_name_H-M "C M M M"
_symmetry_group_IT_number 65
_symmetry_cell_setting 'orthorhombic'
loop_
_space_group_symop_operation_xyz
x,y,z
-x,-y,z
x,-y,-z
-x,y,-z
-x,-y,-z
x,y,-z
-x,y,z
x,-y,z
1/2+x,1/2+y,z
1/2-x,1/2-y,z
1/2+x,1/2-y,-z
1/2-x,1/2+y,-z
1/2-x,1/2-y,-z
1/2+x,1/2+y,-z
1/2-x,1/2+y,z
1/2+x,1/2-y,z
loop_
_atom_site_type_symbol
_atom_site_label
_atom_site_fract_x
_atom_site_fract_y
_atom_site_fract_z
Si Si1 0.847199 0.052787 0.241872
Si Si2 0.251540 0.698040 0.635028
Si Si3 0.093905 0.946059 0.000000
Si Si4 0.406668 0.637441 0.368996
Si Si5 0.908324 0.357078 0.367617
Si Si6 0.323086 0.948921 0.628623
O O1 0.905642 0.087253 0.312125
O O2 0.751864 0.058385 0.283226
O O3 0.878648 0.000000 0.259497
O O4 0.853225 0.068318 0.110859
O O5 0.251755 0.697734 0.500000
O O6 0.250000 0.750000 0.681937
O O7 0.335285 0.671908 0.680733
O O8 0.168036 0.672867 0.684454
O O9 0.000000 0.923134 0.000000
O O10 0.081145 0.000000 0.000000
O O11 0.388380 0.629512 0.500000
O O12 0.500000 0.659050 0.349390
O O13 0.911070 0.347129 0.500000
O O14 0.894084 0.411324 0.343919
O O15 0.000000 0.343744 0.314937
O O16 0.288727 0.941817 0.500000
O O17 0.362488 0.000000 0.642185
#
# Coordination Sequence:
#
# PCOD8265960 Si02
#       6
#    16  16   8  16  16  16
#     4  10  18  29  45  63  89 123 151 180 217 260
#     4   9  17  29  42  58  86 120 150 182 218 258
#     4   9  18  30  42  60  86 117 155 191 218 252
#     4  10  19  29  43  65  92 120 149 179 216 265
#     4   9  16  26  41  61  86 116 148 179 215 261
#     4   9  16  26  42  64  90 117 144 178 219 263
#
# _framework density 16.174009000000002
#
# number of rings (size 3 to 8) (size 9 to 14) (size 15 to 20)
#    0.000    2.636    1.818    1.091    0.000    3.273 
#    0.000    6.364    0.000    0.000    0.000    1.273 
#    0.000    3.636    0.000    0.000    0.000    0.000 
#
# Total GULP energy -545244.053149 kJ/mol
# GULP energy per Si atom -12391.910299 kJ/mol
# Density = 1.613720 g / cm^3
# Si number density = 16.174009 Si / 1000 Ang^3
#
#
#
# Elastic Constant Matrix: (Units=GPa)
#
#
# Indices 1 2 3 4 5 6 
#
# 1 129.8614 61.6144 29.4330 0.0000 0.0000 0.0000
# 2 61.6144 106.4286 21.1696 0.0000 0.0000 0.0000
# 3 29.4330 21.1696 44.1096 0.0000 0.0000 0.0000
# 4 0.0000 0.0000 0.0000 5.8446 0.0000 0.0000
# 5 0.0000 0.0000 0.0000 0.0000 5.9268 0.0000
# 6 0.0000 0.0000 0.0000 0.0000 0.0000 14.8336
#
#
#
# Elastic Compliance Matrix: (Units=1/GPa)
#
#
# Indices 1 2 3 4 5 6 
#
# 1 0.011521 -0.005683 -0.004960 0.000000 0.000000 0.000000
# 2 -0.005683 0.013191 -0.002539 0.000000 0.000000 0.000000
# 3 -0.004960 -0.002539 0.027199 0.000000 0.000000 0.000000
# 4 0.000000 0.000000 0.000000 0.171098 0.000000 0.000000
# 5 0.000000 0.000000 0.000000 0.000000 0.168725 0.000000
# 6 0.000000 0.000000 0.000000 0.000000 0.000000 0.067415
#
#
# Mechanical properties :
#
#
# Convention : Reuss Voigt Hill
#
# Bulk Modulus (GPa) = 39.14319 56.09262 47.61790
# Shear Modulus (GPa) = 10.12086 16.53317 13.32701
#
# Velocity S-wave (km/s) = 2.50421 3.20066 2.87361
# Velocity P-wave (km/s) = 5.71098 6.95809 6.36515
#
# Compressibility (1/GPa) = 0.02554723
#
# Stress axis : x y z
#
# Youngs Moduli (GPa) = 86.79582 75.80837 36.76617
#
# Poissons Ratio (x) = 0.43085 0.18237
# Poissons Ratio (y) = 0.49329 0.09333
# Poissons Ratio (z) = 0.43052 0.19244
#
# Static dielectric constant tensor:
#      x y z
#    x 3.222270 0.000000 0.000000 
#    y 0.000000 3.165200 0.000000 
#    z 0.000000 0.000000 2.761730 
# 
# 
# High freq. dielectric constant tensor:
#      x y z
#    x 1.625260 0.000000 0.000000 
#    y 0.000000 1.617130 0.000000 
#    z 0.000000 0.000000 1.557610 
# 
# From -- ./inp_files/25394.got.cif
#   From: 2010.03.12/outbox.cif.g09.slc.cpg/sg65_13_cif.got.tgz:25394.got - 2010.04.10 20:52:16.
