data_PCOD8265290
_publ_section_title
;
Structure prediction by ZEFSAII (Michael W. Deem and Ramdas Pophale) SiO2 
 PCOD8265290
Probable space group: C M M M
;
_chemical_formula_sum "Si O2"
_cell_formula_units_Z 112
_cell_length_a 26.253709
_cell_length_b 33.633153
_cell_length_c 9.040851
_cell_angle_alpha 90.000000
_cell_angle_beta 90.000000
_cell_angle_gamma 90.000000
_cell_volume 7983.026334
_symmetry_space_group_name_H-M "C M M M"
_symmetry_group_IT_number 65
_symmetry_cell_setting 'orthorhombic'
loop_
_space_group_symop_operation_xyz
x,y,z
-x,-y,z
x,-y,-z
-x,y,-z
-x,-y,-z
x,y,-z
-x,y,z
x,-y,z
1/2+x,1/2+y,z
1/2-x,1/2-y,z
1/2+x,1/2-y,-z
1/2-x,1/2+y,-z
1/2-x,1/2-y,-z
1/2+x,1/2+y,-z
1/2-x,1/2+y,z
1/2+x,1/2-y,z
loop_
_atom_site_type_symbol
_atom_site_label
_atom_site_fract_x
_atom_site_fract_y
_atom_site_fract_z
Si Si1 0.800519 0.276093 0.166904
Si Si2 0.557823 0.346281 0.330843
Si Si3 0.754198 0.842384 0.673275
Si Si4 0.901571 0.921492 0.172570
Si Si5 0.281972 0.500000 0.667793
Si Si6 0.903103 0.000000 0.333522
Si Si7 0.352281 0.290440 0.671159
Si Si8 0.717001 0.579346 0.826093
O O1 0.750000 0.250000 0.172123
O O2 0.791852 0.315685 0.263251
O O3 0.846169 0.250010 0.235690
O O4 0.814827 0.288144 0.000000
O O5 0.570223 0.358472 0.500000
O O6 0.500000 0.331494 0.312593
O O7 0.566553 0.384122 0.228217
O O8 0.594110 0.309975 0.282641
O O9 0.745914 0.848775 0.500000
O O10 0.808154 0.821951 0.708883
O O11 0.751966 0.884500 0.755042
O O12 0.842450 0.914843 0.210763
O O13 0.923500 0.960767 0.251627
O O14 0.910417 0.927073 0.000000
O O15 0.261249 0.500000 0.500000
O O16 0.342533 0.500000 0.670374
O O17 0.261874 0.461090 0.753111
O O18 0.924278 0.000000 0.500000
O O19 0.350164 0.278475 0.500000
O O20 0.727184 0.577700 0.000000
#
# Coordination Sequence:
#
# PCOD8265290 Si02
#       8
#    16  16  16  16   8   8  16  16
#     4   9  17  27  40  59  81 101 122 150 187 231
#     4  10  20  33  47  61  77  99 128 159 193 237
#     4  10  17  26  42  61  80 102 127 155 188 230
#     4  10  19  30  44  60  78  96 120 156 199 240
#     4   9  17  27  39  56  76 101 131 159 189 229
#     4   9  17  29  46  60  73  93 121 154 194 243
#     4   9  17  29  43  58  77 100 125 154 190 231
#     4  10  18  27  40  58  80 103 127 158 195 233
#
# _framework density 14.029767
#
# number of rings (size 3 to 8) (size 9 to 14) (size 15 to 20)
#    0.000    2.429    1.429    2.143    0.000    6.000 
#    0.000    0.357    0.000    2.143    0.000    0.000 
#    0.000    0.000    0.000    0.000    0.000    0.000 
#
# Total GULP energy -694475.303157 kJ/mol
# GULP energy per Si atom -12401.344699 kJ/mol
# Density = 1.399783 g / cm^3
# Si number density = 14.029767 Si / 1000 Ang^3
#
#
#
# Elastic Constant Matrix: (Units=GPa)
#
#
# Indices 1 2 3 4 5 6 
#
# 1 37.2634 42.4471 26.3315 0.0000 0.0000 0.0000
# 2 42.4471 104.7221 56.0527 0.0000 0.0000 0.0000
# 3 26.3315 56.0527 87.5835 0.0000 0.0000 0.0000
# 4 0.0000 0.0000 0.0000 28.5939 0.0000 0.0000
# 5 0.0000 0.0000 0.0000 0.0000 11.8674 0.0000
# 6 0.0000 0.0000 0.0000 0.0000 0.0000 14.2545
#
#
#
# Elastic Compliance Matrix: (Units=1/GPa)
#
#
# Indices 1 2 3 4 5 6 
#
# 1 0.050424 -0.018746 -0.003163 0.000000 0.000000 0.000000
# 2 -0.018746 0.021493 -0.008120 0.000000 0.000000 0.000000
# 3 -0.003163 -0.008120 0.017565 0.000000 0.000000 0.000000
# 4 0.000000 0.000000 0.000000 0.034973 0.000000 0.000000
# 5 0.000000 0.000000 0.000000 0.000000 0.084264 0.000000
# 6 0.000000 0.000000 0.000000 0.000000 0.000000 0.070153
#
#
# Mechanical properties :
#
#
# Convention : Reuss Voigt Hill
#
# Bulk Modulus (GPa) = 33.98306 53.24796 43.61551
# Shear Modulus (GPa) = 14.33742 17.92568 16.13155
#
# Velocity S-wave (km/s) = 3.20023 3.57836 3.39456
# Velocity P-wave (km/s) = 6.15873 7.42353 6.82051
#
# Compressibility (1/GPa) = 0.02942643
#
# Stress axis : x y z
#
# Youngs Moduli (GPa) = 19.83176 46.52583 56.93085
#
# Poissons Ratio (x) = 0.87216 0.18005
# Poissons Ratio (y) = 0.37176 0.46227
# Poissons Ratio (z) = 0.06272 0.37778
#
# Static dielectric constant tensor:
#      x y z
#    x 2.361910 0.000000 0.000000 
#    y 0.000000 2.797220 0.000000 
#    z 0.000000 0.000000 2.881750 
# 
# 
# High freq. dielectric constant tensor:
#      x y z
#    x 1.469480 0.000000 0.000000 
#    y 0.000000 1.532400 0.000000 
#    z 0.000000 0.000000 1.552580 
# 
# From -- ./inp_files/19229.got.cif
#   From: 2010.03.12/outbox.cif.g09.slc.cpg/sg65_10_cif.got.tgz:19229.got - 2010.04.10 20:52:16.
