data_PCOD8265261
_publ_section_title
;
Structure prediction by ZEFSAII (Michael W. Deem and Ramdas Pophale) SiO2 
 PCOD8265261
Probable space group: C M M M
;
_chemical_formula_sum "Si O2"
_cell_formula_units_Z 80
_cell_length_a 30.428524
_cell_length_b 8.737326
_cell_length_c 20.504492
_cell_angle_alpha 90.000000
_cell_angle_beta 90.000000
_cell_angle_gamma 90.000000
_cell_volume 5451.404905
_symmetry_space_group_name_H-M "C M M M"
_symmetry_group_IT_number 65
_symmetry_cell_setting 'orthorhombic'
loop_
_space_group_symop_operation_xyz
x,y,z
-x,-y,z
x,-y,-z
-x,y,-z
-x,-y,-z
x,y,-z
-x,y,z
x,-y,z
1/2+x,1/2+y,z
1/2-x,1/2-y,z
1/2+x,1/2-y,-z
1/2-x,1/2+y,-z
1/2-x,1/2-y,-z
1/2+x,1/2+y,-z
1/2-x,1/2+y,z
1/2+x,1/2-y,z
loop_
_atom_site_type_symbol
_atom_site_label
_atom_site_fract_x
_atom_site_fract_y
_atom_site_fract_z
Si Si1 0.297799 0.319966 0.828876
Si Si2 0.364354 0.825131 0.923136
Si Si3 0.297898 0.678488 0.429264
Si Si4 0.201250 0.318623 0.697824
Si Si5 0.048064 0.827898 0.077415
O O1 0.292885 0.500000 0.820031
O O2 0.250000 0.250000 0.842089
O O3 0.328420 0.282678 0.890052
O O4 0.320489 0.247837 0.763795
O O5 0.413092 0.781611 0.897111
O O6 0.355023 0.000000 0.904397
O O7 0.360642 0.796879 0.000000
O O8 0.321657 0.704463 0.500000
O O9 0.293628 0.500000 0.413489
O O10 0.250000 0.750000 0.434407
O O11 0.323335 0.760388 0.368598
O O12 0.201426 0.500000 0.700404
O O13 0.250000 0.250000 0.695883
O O14 0.000000 0.770948 0.102788
O O15 0.056952 0.000000 0.102725
O O16 0.047594 0.826808 0.000000
#
# Coordination Sequence:
#
# PCOD8265261 Si02
#       5
#    16  16  16  16  16
#     4  11  21  33  46  57  74 101 135 171 206 242
#     4  10  20  32  45  62  82 102 129 165 203 242
#     4   9  15  22  33  50  71  93 119 152 189 227
#     4  10  17  26  39  53  71  94 124 159 195 234
#     4   8  14  26  44  64  84 104 125 151 188 235
#
# _framework density 14.675115999999999
#
# number of rings (size 3 to 8) (size 9 to 14) (size 15 to 20)
#    0.000    2.400    0.000    7.800    0.000    3.200 
#    0.000    2.000    0.000    0.000    0.000    0.000 
#    0.000    0.000    0.000    0.000    0.000    1.000 
#
# Total GULP energy -495597.908744 kJ/mol
# GULP energy per Si atom -12389.947719 kJ/mol
# Density = 1.464171 g / cm^3
# Si number density = 14.675116 Si / 1000 Ang^3
#
#
#
# Elastic Constant Matrix: (Units=GPa)
#
#
# Indices 1 2 3 4 5 6 
#
# 1 54.0512 28.5592 30.9909 0.0000 0.0000 0.0000
# 2 28.5592 118.8100 41.7655 0.0000 0.0000 0.0000
# 3 30.9909 41.7655 69.1629 0.0000 0.0000 0.0000
# 4 0.0000 0.0000 0.0000 23.7641 0.0000 0.0000
# 5 0.0000 0.0000 0.0000 0.0000 0.3949 0.0000
# 6 0.0000 0.0000 0.0000 0.0000 0.0000 18.6647
#
#
#
# Elastic Compliance Matrix: (Units=1/GPa)
#
#
# Indices 1 2 3 4 5 6 
#
# 1 0.025556 -0.002688 -0.009828 0.000000 0.000000 0.000000
# 2 -0.002688 0.010968 -0.005419 0.000000 0.000000 0.000000
# 3 -0.009828 -0.005419 0.022135 0.000000 0.000000 0.000000
# 4 0.000000 0.000000 0.000000 0.042080 0.000000 0.000000
# 5 0.000000 0.000000 0.000000 0.000000 2.532401 0.000000
# 6 0.000000 0.000000 0.000000 0.000000 0.000000 0.053577
#
#
# Mechanical properties :
#
#
# Convention : Reuss Voigt Hill
#
# Bulk Modulus (GPa) = 43.88095 49.40614 46.64354
# Shear Modulus (GPa) = 1.83138 17.94530 9.88834
#
# Velocity S-wave (km/s) = 1.11833 3.50070 2.59861
# Velocity P-wave (km/s) = 5.62442 7.07669 6.39193
#
# Compressibility (1/GPa) = 0.02278893
#
# Stress axis : x y z
#
# Youngs Moduli (GPa) = 39.12907 91.17603 45.17831
#
# Poissons Ratio (x) = 0.24511 0.44402
# Poissons Ratio (y) = 0.10519 0.24480
# Poissons Ratio (z) = 0.38456 0.49404
#
# Static dielectric constant tensor:
#      x y z
#    x 2.603790 0.000000 0.000000 
#    y 0.000000 3.015850 0.000000 
#    z 0.000000 0.000000 3.575290 
# 
# 
# High freq. dielectric constant tensor:
#      x y z
#    x 1.499490 0.000000 0.000000 
#    y 0.000000 1.580840 0.000000 
#    z 0.000000 0.000000 1.555070 
# 
# From -- ./inp_files/50129.got.cif
#   From: 2010.03.12/outbox.cif.g09.slc.cpg/sg65_26_cif.got.tgz:50129.got - 2010.04.10 20:52:16.
