data_PCOD8265533
_publ_section_title
;
Structure prediction by ZEFSAII (Michael W. Deem and Ramdas Pophale) SiO2 
 PCOD8265533
Probable space group: C M M M
;
_chemical_formula_sum "Si O2"
_cell_formula_units_Z 104
_cell_length_a 23.528562
_cell_length_b 25.166499
_cell_length_c 8.549369
_cell_angle_alpha 90.000000
_cell_angle_beta 90.000000
_cell_angle_gamma 90.000000
_cell_volume 5062.350964
_symmetry_space_group_name_H-M "C M M M"
_symmetry_group_IT_number 65
_symmetry_cell_setting 'orthorhombic'
loop_
_space_group_symop_operation_xyz
x,y,z
-x,-y,z
x,-y,-z
-x,y,-z
-x,-y,-z
x,y,-z
-x,y,z
x,-y,z
1/2+x,1/2+y,z
1/2-x,1/2-y,z
1/2+x,1/2-y,-z
1/2-x,1/2+y,-z
1/2-x,1/2-y,-z
1/2+x,1/2+y,-z
1/2-x,1/2+y,z
1/2+x,1/2-y,z
loop_
_atom_site_type_symbol
_atom_site_label
_atom_site_fract_x
_atom_site_fract_y
_atom_site_fract_z
Si Si1 0.886953 0.247265 0.318695
Si Si2 0.000000 0.603634 0.316148
Si Si3 0.500000 0.563059 0.176035
Si Si4 0.882099 0.061360 0.683484
Si Si5 0.617189 0.059093 0.685885
Si Si6 0.806248 0.344942 0.316079
Si Si7 0.316103 0.653952 0.181425
Si Si8 0.500000 0.781705 0.180127
O O1 0.903167 0.249526 0.500000
O O2 0.848896 0.297763 0.271932
O O3 0.853436 0.193619 0.284163
O O4 0.944509 0.247047 0.218606
O O5 0.943796 0.576481 0.243090
O O6 0.000000 0.665962 0.285247
O O7 0.000000 0.594595 0.500000
O O8 0.500000 0.500000 0.174651
O O9 0.555953 0.583271 0.266047
O O10 0.500000 0.586031 0.000000
O O11 0.874735 0.069294 0.500000
O O12 0.833500 0.094023 0.772960
O O13 0.874499 0.000000 0.732041
O O14 0.613162 0.060805 0.500000
O O15 0.665805 0.099743 0.740672
O O16 0.632600 0.000000 0.746019
O O17 0.791914 0.345120 0.500000
O O18 0.749537 0.336369 0.218399
O O19 0.327222 0.664615 0.000000
O O20 0.500000 0.798063 0.000000
#
# Coordination Sequence:
#
# PCOD8265533 Si02
#       8
#    16   8   8  16  16  16  16   8
#     4  11  23  43  67  90 118 156 206 254 301 362
#     4  10  17  34  59  89 123 164 209 251 308 366
#     4   9  17  32  57  88 120 151 183 228 291 353
#     4  10  21  39  63  89 118 156 202 246 291 352
#     4   9  17  31  58  94 125 157 207 262 304 352
#     4  10  21  39  62  87 118 160 209 255 302 357
#     4  12  26  41  60  89 123 158 200 250 310 370
#     4  12  24  38  62  95 129 162 198 250 317 372
#
# _framework density 20.543814999999999
#
# number of rings (size 3 to 8) (size 9 to 14) (size 15 to 20)
#    0.000    1.615    1.538    3.923    0.000    7.077 
#    0.000    4.615    0.000    1.846    0.000    0.000 
#    0.000    0.000    0.000    0.000    0.000    0.000 
#
# Total GULP energy -645029.307376 kJ/mol
# GULP energy per Si atom -12404.409757 kJ/mol
# Density = 2.049706 g / cm^3
# Si number density = 20.543815 Si / 1000 Ang^3
#
#
#
# Elastic Constant Matrix: (Units=GPa)
#
#
# Indices 1 2 3 4 5 6 
#
# 1 122.4349 43.5835 27.2229 0.0000 0.0000 0.0000
# 2 43.5835 102.9025 13.5205 0.0000 0.0000 0.0000
# 3 27.2229 13.5205 54.6360 0.0000 0.0000 0.0000
# 4 0.0000 0.0000 0.0000 16.9661 0.0000 0.0000
# 5 0.0000 0.0000 0.0000 0.0000 21.3627 0.0000
# 6 0.0000 0.0000 0.0000 0.0000 0.0000 29.6599
#
#
#
# Elastic Compliance Matrix: (Units=1/GPa)
#
#
# Indices 1 2 3 4 5 6 
#
# 1 0.010501 -0.003886 -0.004270 0.000000 0.000000 0.000000
# 2 -0.003886 0.011483 -0.000905 0.000000 0.000000 0.000000
# 3 -0.004270 -0.000905 0.020655 0.000000 0.000000 0.000000
# 4 0.000000 0.000000 0.000000 0.058941 0.000000 0.000000
# 5 0.000000 0.000000 0.000000 0.000000 0.046811 0.000000
# 6 0.000000 0.000000 0.000000 0.000000 0.000000 0.033716
#
#
# Mechanical properties :
#
#
# Convention : Reuss Voigt Hill
#
# Bulk Modulus (GPa) = 40.79223 49.84749 45.31986
# Shear Modulus (GPa) = 23.99230 26.64085 25.31658
#
# Velocity S-wave (km/s) = 3.42110 3.60499 3.51425
# Velocity P-wave (km/s) = 5.95857 6.45326 6.21085
#
# Compressibility (1/GPa) = 0.02451447
#
# Stress axis : x y z
#
# Youngs Moduli (GPa) = 95.23354 87.08605 48.41520
#
# Poissons Ratio (x) = 0.33844 0.20674
# Poissons Ratio (y) = 0.37011 0.04383
# Poissons Ratio (z) = 0.40667 0.07883
#
# Static dielectric constant tensor:
#      x y z
#    x 3.836020 0.000000 0.000000 
#    y 0.000000 3.769610 0.000000 
#    z 0.000000 0.000000 3.471250 
# 
# 
# High freq. dielectric constant tensor:
#      x y z
#    x 1.811490 0.000000 0.000000 
#    y 0.000000 1.804690 0.000000 
#    z 0.000000 0.000000 1.782980 
# 
# From -- ./inp_files/12482.got.cif
#   From: 2010.03.12/outbox.cif.g09.slc.cpg/sg65_7_cif.got.tgz:12482.got - 2010.04.10 20:52:16.
