data_PCOD8265746
_publ_section_title
;
Structure prediction by ZEFSAII (Michael W. Deem and Ramdas Pophale) SiO2 
 PCOD8265746
Probable space group: C M M M
;
_chemical_formula_sum "Si O2"
_cell_formula_units_Z 88
_cell_length_a 27.682571
_cell_length_b 9.284190
_cell_length_c 21.566807
_cell_angle_alpha 90.000000
_cell_angle_beta 90.000000
_cell_angle_gamma 90.000000
_cell_volume 5542.890434
_symmetry_space_group_name_H-M "C M M M"
_symmetry_group_IT_number 65
_symmetry_cell_setting 'orthorhombic'
loop_
_space_group_symop_operation_xyz
x,y,z
-x,-y,z
x,-y,-z
-x,y,-z
-x,-y,-z
x,y,-z
-x,y,z
x,-y,z
1/2+x,1/2+y,z
1/2-x,1/2-y,z
1/2+x,1/2-y,-z
1/2-x,1/2+y,-z
1/2-x,1/2-y,-z
1/2+x,1/2+y,-z
1/2-x,1/2+y,z
1/2+x,1/2-y,z
loop_
_atom_site_type_symbol
_atom_site_label
_atom_site_fract_x
_atom_site_fract_y
_atom_site_fract_z
Si Si1 0.201614 0.165808 0.362482
Si Si2 0.107733 0.171618 0.431408
Si Si3 0.198794 0.669131 0.134807
Si Si4 0.354936 0.333058 0.761626
Si Si5 0.446562 0.671391 0.686757
Si Si6 0.297702 0.162325 0.000000
O O1 0.250000 0.250000 0.376310
O O2 0.160827 0.222370 0.409898
O O3 0.184131 0.190463 0.292284
O O4 0.212724 0.000000 0.374461
O O5 0.096236 0.233639 0.500000
O O6 0.068574 0.229399 0.381604
O O7 0.106506 0.000000 0.431995
O O8 0.206726 0.500000 0.149156
O O9 0.250000 0.750000 0.142285
O O10 0.159340 0.734415 0.180743
O O11 0.175404 0.693313 0.065520
O O12 0.356535 0.500000 0.781903
O O13 0.407733 0.279538 0.738315
O O14 0.500000 0.730852 0.703292
O O15 0.446171 0.500000 0.684451
O O16 0.250000 0.250000 0.000000
O O17 0.279725 0.000000 0.000000
#
# Coordination Sequence:
#
# PCOD8265746 Si02
#       6
#    16  16  16  16  16   8
#     4   9  17  27  38  54  79 109 137 167 202 239
#     4   8  14  24  37  55  79 104 132 168 208 248
#     4  10  18  28  43  63  88 116 143 169 199 236
#     4   9  17  28  41  60  85 110 138 172 209 248
#     4   8  14  25  41  60  81 105 134 171 215 257
#     4   8  16  28  40  58  85 114 141 169 198 231
#
# _framework density 15.876194
#
# number of rings (size 3 to 8) (size 9 to 14) (size 15 to 20)
#    0.000    3.273    0.000    3.273    0.000    3.636 
#    0.000    1.818    0.000    0.545    0.000    0.636 
#    0.000    5.091    0.000    8.000    0.000    8.000 
#
# Total GULP energy -545113.789799 kJ/mol
# GULP energy per Si atom -12388.949768 kJ/mol
# Density = 1.584006 g / cm^3
# Si number density = 15.876194 Si / 1000 Ang^3
#
#
#
# Elastic Constant Matrix: (Units=GPa)
#
#
# Indices 1 2 3 4 5 6 
#
# 1 108.2960 26.9958 54.2539 0.0000 0.0000 0.0000
# 2 26.9958 41.3570 39.2058 0.0000 0.0000 0.0000
# 3 54.2539 39.2058 125.8950 0.0000 0.0000 0.0000
# 4 0.0000 0.0000 0.0000 17.1867 0.0000 0.0000
# 5 0.0000 0.0000 0.0000 0.0000 15.3656 0.0000
# 6 0.0000 0.0000 0.0000 0.0000 0.0000 15.6233
#
#
#
# Elastic Compliance Matrix: (Units=1/GPa)
#
#
# Indices 1 2 3 4 5 6 
#
# 1 0.012283 -0.004256 -0.003968 0.000000 0.000000 0.000000
# 2 -0.004256 0.035783 -0.009309 0.000000 0.000000 0.000000
# 3 -0.003968 -0.009309 0.012552 0.000000 0.000000 0.000000
# 4 0.000000 0.000000 0.000000 0.058185 0.000000 0.000000
# 5 0.000000 0.000000 0.000000 0.000000 0.065080 0.000000
# 6 0.000000 0.000000 0.000000 0.000000 0.000000 0.064007
#
#
# Mechanical properties :
#
#
# Convention : Reuss Voigt Hill
#
# Bulk Modulus (GPa) = 39.13676 57.38435 48.26056
# Shear Modulus (GPa) = 17.15424 19.97461 18.56443
#
# Velocity S-wave (km/s) = 3.29066 3.55089 3.42325
# Velocity P-wave (km/s) = 6.25641 7.28252 6.78888
#
# Compressibility (1/GPa) = 0.02555142
#
# Stress axis : x y z
#
# Youngs Moduli (GPa) = 81.41559 27.94623 79.66828
#
# Poissons Ratio (x) = 0.11894 0.31610
# Poissons Ratio (y) = 0.34652 0.74165
# Poissons Ratio (z) = 0.32303 0.26016
#
# Static dielectric constant tensor:
#      x y z
#    x 3.003510 0.000000 0.000000 
#    y 0.000000 2.709110 0.000000 
#    z 0.000000 0.000000 3.576090 
# 
# 
# High freq. dielectric constant tensor:
#      x y z
#    x 1.587430 0.000000 0.000000 
#    y 0.000000 1.577320 0.000000 
#    z 0.000000 0.000000 1.613750 
# 
# From -- ./inp_files/60714.got.cif
#   From: 2010.03.12/outbox.cif.g09.slc.cpg/sg65_31_cif.got.tgz:60714.got - 2010.04.10 20:52:16.
