data_PCOD8265347
_publ_section_title
;
Structure prediction by ZEFSAII (Michael W. Deem and Ramdas Pophale) SiO2 
 PCOD8265347
Probable space group: C M M M
;
_chemical_formula_sum "Si O2"
_cell_formula_units_Z 96
_cell_length_a 8.797193
_cell_length_b 19.556526
_cell_length_c 30.841807
_cell_angle_alpha 90.000000
_cell_angle_beta 90.000000
_cell_angle_gamma 90.000000
_cell_volume 5306.102618
_symmetry_space_group_name_H-M "C M M M"
_symmetry_group_IT_number 65
_symmetry_cell_setting 'orthorhombic'
loop_
_space_group_symop_operation_xyz
x,y,z
-x,-y,z
x,-y,-z
-x,y,-z
-x,-y,-z
x,y,-z
-x,y,z
x,-y,z
1/2+x,1/2+y,z
1/2-x,1/2-y,z
1/2+x,1/2-y,-z
1/2-x,1/2+y,-z
1/2-x,1/2-y,-z
1/2+x,1/2+y,-z
1/2-x,1/2+y,z
1/2+x,1/2-y,z
loop_
_atom_site_type_symbol
_atom_site_label
_atom_site_fract_x
_atom_site_fract_y
_atom_site_fract_z
Si Si1 0.822196 0.675868 0.787882
Si Si2 0.680668 0.325723 0.703825
Si Si3 0.324173 0.823229 0.116936
Si Si4 0.324370 0.421667 0.049338
Si Si5 0.179011 0.675832 0.616958
Si Si6 0.325777 0.421416 0.550338
O O1 0.750000 0.750000 0.790625
O O2 0.739773 0.635812 0.747809
O O3 0.790343 0.643362 0.835363
O O4 0.000000 0.680705 0.777448
O O5 0.500000 0.325358 0.702450
O O6 0.750000 0.250000 0.705093
O O7 0.746857 0.359351 0.659948
O O8 0.500000 0.809109 0.111789
O O9 0.250000 0.750000 0.109595
O O10 0.274249 0.876126 0.080879
O O11 0.500000 0.411883 0.061045
O O12 0.275334 0.500000 0.055681
O O13 0.293115 0.398753 0.000000
O O14 0.250000 0.750000 0.607690
O O15 0.212642 0.626619 0.576823
O O16 0.000000 0.684093 0.623522
O O17 0.295957 0.407006 0.500000
O O18 0.500000 0.404261 0.562282
O O19 0.289459 0.500000 0.561478
#
# Coordination Sequence:
#
# PCOD8265347 Si02
#       6
#    16  16  16  16  16  16
#     4   9  16  27  43  67  98 129 162 199 242 292
#     4  10  17  27  45  69  98 131 166 203 246 295
#     4  10  20  32  50  76 104 133 165 205 249 293
#     4   9  19  36  55  73  96 129 167 206 250 301
#     4  11  21  33  51  76 106 136 169 210 252 294
#     4   9  19  37  58  77 100 132 168 206 251 304
#
# _framework density 18.092375000000001
#
# number of rings (size 3 to 8) (size 9 to 14) (size 15 to 20)
#    0.000    2.333    0.000    7.000    0.000    4.000 
#    0.000    1.667    0.000    1.000    0.000    4.667 
#    0.000    0.000    0.000    0.000    0.000    0.000 
#
# Total GULP energy -594892.658476 kJ/mol
# GULP energy per Si atom -12393.597052 kJ/mol
# Density = 1.805120 g / cm^3
# Si number density = 18.092375 Si / 1000 Ang^3
#
#
#
# Elastic Constant Matrix: (Units=GPa)
#
#
# Indices 1 2 3 4 5 6 
#
# 1 127.9646 34.9001 63.8059 0.0000 0.0000 0.0000
# 2 34.9001 50.0513 50.3537 0.0000 0.0000 0.0000
# 3 63.8059 50.3537 128.5339 0.0000 0.0000 0.0000
# 4 0.0000 0.0000 0.0000 -8.8697 0.0000 0.0000
# 5 0.0000 0.0000 0.0000 0.0000 35.6657 0.0000
# 6 0.0000 0.0000 0.0000 0.0000 0.0000 24.6571
#
#
#
# Elastic Compliance Matrix: (Units=1/GPa)
#
#
# Indices 1 2 3 4 5 6 
#
# 1 0.010746 -0.003510 -0.003960 0.000000 0.000000 0.000000
# 2 -0.003510 0.034122 -0.011625 0.000000 0.000000 0.000000
# 3 -0.003960 -0.011625 0.014300 0.000000 0.000000 0.000000
# 4 0.000000 0.000000 0.000000 -0.112743 0.000000 0.000000
# 5 0.000000 0.000000 0.000000 0.000000 0.028038 0.000000
# 6 0.000000 0.000000 0.000000 0.000000 0.000000 0.040556
#
#
# Mechanical properties :
#
#
# Convention : Reuss Voigt Hill
#
# Bulk Modulus (GPa) = 47.66618 67.18548 57.42583
# Shear Modulus (GPa) = 83.05378 20.78996 51.92187
#
# Velocity S-wave (km/s) = 6.78270 3.39352 5.36288
# Velocity P-wave (km/s) = 9.36714 7.25051 8.37595
#
# Compressibility (1/GPa) = 0.02097923
#
# Stress axis : x y z
#
# Youngs Moduli (GPa) = 93.05605 29.30637 69.93029
#
# Poissons Ratio (x) = 0.10285 0.27690
# Poissons Ratio (y) = 0.32659 0.81296
# Poissons Ratio (z) = 0.36847 0.34070
#
# Static dielectric constant tensor:
#      x y z
#    x 3.370560 0.000000 0.000000 
#    y 0.000000 2.895950 0.000000 
#    z 0.000000 0.000000 4.348350 
# 
# 
# High freq. dielectric constant tensor:
#      x y z
#    x 1.712380 0.000000 0.000000 
#    y 0.000000 1.646350 0.000000 
#    z 0.000000 0.000000 1.726210 
# 
# From -- ./inp_files/73195.got.cif
#   From: 2010.03.12/outbox.cif.g09.slc.cpg/sg65_37_cif.got.tgz:73195.got - 2010.04.10 20:52:16.
