data_PCOD8265358
_publ_section_title
;
Structure prediction by ZEFSAII (Michael W. Deem and Ramdas Pophale) SiO2 
 PCOD8265358
Probable space group: C M M M
;
_chemical_formula_sum "Si O2"
_cell_formula_units_Z 76
_cell_length_a 23.861618
_cell_length_b 15.426474
_cell_length_c 12.337978
_cell_angle_alpha 90.000000
_cell_angle_beta 90.000000
_cell_angle_gamma 90.000000
_cell_volume 4541.617471
_symmetry_space_group_name_H-M "C M M M"
_symmetry_group_IT_number 65
_symmetry_cell_setting 'orthorhombic'
loop_
_space_group_symop_operation_xyz
x,y,z
-x,-y,z
x,-y,-z
-x,y,-z
-x,-y,-z
x,y,-z
-x,y,z
x,-y,z
1/2+x,1/2+y,z
1/2-x,1/2-y,z
1/2+x,1/2-y,-z
1/2-x,1/2+y,-z
1/2-x,1/2-y,-z
1/2+x,1/2+y,-z
1/2-x,1/2+y,z
1/2+x,1/2-y,z
loop_
_atom_site_type_symbol
_atom_site_label
_atom_site_fract_x
_atom_site_fract_y
_atom_site_fract_z
Si Si1 0.000000 0.841735 0.126321
Si Si2 0.380565 0.594050 0.872104
Si Si3 0.500000 0.855562 0.500000
Si Si4 0.878549 0.602131 0.736230
Si Si5 0.314463 0.240641 0.128172
Si Si6 0.500000 0.171121 0.264636
Si Si7 0.121041 0.594518 0.500000
O O1 0.054348 0.896584 0.159019
O O2 0.000000 0.752542 0.188268
O O3 0.000000 0.818375 0.000000
O O4 0.360189 0.500000 0.826692
O O5 0.345090 0.673795 0.823500
O O6 0.372421 0.595045 0.000000
O O7 0.500000 0.797109 0.390619
O O8 0.446186 0.917364 0.500000
O O9 0.865172 0.500000 0.746969
O O10 0.840393 0.654374 0.820145
O O11 0.862202 0.638885 0.614738
O O12 0.944421 0.615220 0.760826
O O13 0.250000 0.250000 0.160330
O O14 0.322958 0.231997 0.000000
O O15 0.148527 0.500000 0.500000
#
# Coordination Sequence:
#
# PCOD8265358 Si02
#       7
#     8  16   4  16  16   8   8
#     4  10  17  27  47  72  96 117 150 201 249 286
#     4   9  17  30  48  68  91 121 158 199 240 281
#     4   8  15  24  42  70  97 130 162 186 227 288
#     4  10  19  32  51  75 102 131 161 196 242 293
#     4  10  21  35  49  69  98 130 165 202 241 288
#     4  10  17  29  48  74 104 130 155 193 240 295
#     4   8  15  28  47  71  97 126 163 200 232 278
#
# _framework density 16.734126
#
# number of rings (size 3 to 8) (size 9 to 14) (size 15 to 20)
#    0.000    2.526    2.105    0.789    0.000    5.053 
#    0.000    2.632    0.000    1.895    0.000    3.684 
#    0.000    0.000    0.000    0.000    0.000    0.000 
#
# Total GULP energy -470765.164894 kJ/mol
# GULP energy per Si atom -12388.556971 kJ/mol
# Density = 1.669604 g / cm^3
# Si number density = 16.734126 Si / 1000 Ang^3
#
#
#
# Elastic Constant Matrix: (Units=GPa)
#
#
# Indices 1 2 3 4 5 6 
#
# 1 96.3748 47.6391 40.8411 0.0000 0.0000 0.0000
# 2 47.6391 118.5376 35.9779 0.0000 0.0000 0.0000
# 3 40.8411 35.9779 43.9502 0.0000 0.0000 0.0000
# 4 0.0000 0.0000 0.0000 10.1496 0.0000 0.0000
# 5 0.0000 0.0000 0.0000 0.0000 15.4424 0.0000
# 6 0.0000 0.0000 0.0000 0.0000 0.0000 13.7921
#
#
#
# Elastic Compliance Matrix: (Units=1/GPa)
#
#
# Indices 1 2 3 4 5 6 
#
# 1 0.017807 -0.002840 -0.014223 0.000000 0.000000 0.000000
# 2 -0.002840 0.011678 -0.006921 0.000000 0.000000 0.000000
# 3 -0.014223 -0.006921 0.041635 0.000000 0.000000 0.000000
# 4 0.000000 0.000000 0.000000 0.098526 0.000000 0.000000
# 5 0.000000 0.000000 0.000000 0.000000 0.064757 0.000000
# 6 0.000000 0.000000 0.000000 0.000000 0.000000 0.072505
#
#
# Mechanical properties :
#
#
# Convention : Reuss Voigt Hill
#
# Bulk Modulus (GPa) = 43.19004 56.41988 49.80496
# Shear Modulus (GPa) = 13.78957 16.83711 15.31334
#
# Velocity S-wave (km/s) = 2.87372 3.17543 3.02834
# Velocity P-wave (km/s) = 6.07261 6.87264 6.48497
#
# Compressibility (1/GPa) = 0.02315349
#
# Stress axis : x y z
#
# Youngs Moduli (GPa) = 56.15743 85.63141 24.01820
#
# Poissons Ratio (x) = 0.24316 0.34161
# Poissons Ratio (y) = 0.15947 0.16623
# Poissons Ratio (z) = 0.79872 0.59264
#
# Static dielectric constant tensor:
#      x y z
#    x 3.265260 0.000000 0.000000 
#    y 0.000000 3.235920 0.000000 
#    z 0.000000 0.000000 3.107030 
# 
# 
# High freq. dielectric constant tensor:
#      x y z
#    x 1.635520 0.000000 0.000000 
#    y 0.000000 1.636600 0.000000 
#    z 0.000000 0.000000 1.620460 
# 
# From -- ./inp_files/24733.got.cif
#   From: 2010.03.12/outbox.cif.g09.slc.cpg/sg65_13_cif.got.tgz:24733.got - 2010.04.10 20:52:16.
