data_PCOD8265714
_publ_section_title
;
Structure prediction by ZEFSAII (Michael W. Deem and Ramdas Pophale) SiO2 
 PCOD8265714
Probable space group: C M M M
;
_chemical_formula_sum "Si O2"
_cell_formula_units_Z 72
_cell_length_a 19.661218
_cell_length_b 21.074562
_cell_length_c 11.249713
_cell_angle_alpha 90.000000
_cell_angle_beta 90.000000
_cell_angle_gamma 90.000000
_cell_volume 4661.336106
_symmetry_space_group_name_H-M "C M M M"
_symmetry_group_IT_number 65
_symmetry_cell_setting 'orthorhombic'
loop_
_space_group_symop_operation_xyz
x,y,z
-x,-y,z
x,-y,-z
-x,y,-z
-x,-y,-z
x,y,-z
-x,y,z
x,-y,z
1/2+x,1/2+y,z
1/2-x,1/2-y,z
1/2+x,1/2-y,-z
1/2-x,1/2+y,-z
1/2-x,1/2-y,-z
1/2+x,1/2+y,-z
1/2-x,1/2+y,z
1/2+x,1/2-y,z
loop_
_atom_site_type_symbol
_atom_site_label
_atom_site_fract_x
_atom_site_fract_y
_atom_site_fract_z
Si Si1 0.786534 0.812651 0.860494
Si Si2 0.075212 0.757283 0.136525
Si Si3 0.077815 0.623580 0.750213
Si Si4 0.080092 0.428878 0.500000
Si Si5 0.205219 0.430697 0.860760
O O1 0.750000 0.750000 0.807009
O O2 0.867441 0.809670 0.832735
O O3 0.754071 0.876386 0.803075
O O4 0.771891 0.814729 0.000000
O O5 0.085100 0.697970 0.223307
O O6 0.000000 0.787412 0.154585
O O7 0.084428 0.733881 0.000000
O O8 0.103143 0.610353 0.615911
O O9 0.126095 0.584206 0.837494
O O10 0.000000 0.600995 0.770564
O O11 0.112219 0.500000 0.500000
O O12 0.000000 0.435428 0.500000
O O13 0.223487 0.500000 0.806258
O O14 0.217136 0.433098 0.000000
#
# Coordination Sequence:
#
# PCOD8265714 Si02
#       5
#    16  16  16   8  16
#     4   9  15  26  42  59  84 115 137 161 204 254
#     4   9  16  26  44  67  84 103 137 176 210 242
#     4  10  18  28  42  60  83 111 142 171 198 239
#     4   9  18  30  40  51  76 118 152 165 188 239
#     4  10  19  28  41  63  86 109 138 172 210 246
#
# _framework density 15.446216
#
# number of rings (size 3 to 8) (size 9 to 14) (size 15 to 20)
#    0.000    2.556    2.222    1.333    0.000    2.667 
#    0.000    1.111    0.000    3.333    0.000    4.667 
#    0.000    0.000    0.000    0.000    0.000   17.778 
#
# Total GULP energy -446111.023539 kJ/mol
# GULP energy per Si atom -12391.972876 kJ/mol
# Density = 1.541106 g / cm^3
# Si number density = 15.446216 Si / 1000 Ang^3
#
#
#
# Elastic Constant Matrix: (Units=GPa)
#
#
# Indices 1 2 3 4 5 6 
#
# 1 109.5559 68.4681 16.4912 0.0000 0.0000 0.0000
# 2 68.4681 111.9358 16.5930 0.0000 0.0000 0.0000
# 3 16.4912 16.5930 24.5511 0.0000 0.0000 0.0000
# 4 0.0000 0.0000 0.0000 9.9316 0.0000 0.0000
# 5 0.0000 0.0000 0.0000 0.0000 7.3168 0.0000
# 6 0.0000 0.0000 0.0000 0.0000 0.0000 20.3423
#
#
#
# Elastic Compliance Matrix: (Units=1/GPa)
#
#
# Indices 1 2 3 4 5 6 
#
# 1 0.015185 -0.008642 -0.004359 0.000000 0.000000 0.000000
# 2 -0.008642 0.014847 -0.004229 0.000000 0.000000 0.000000
# 3 -0.004359 -0.004229 0.046518 0.000000 0.000000 0.000000
# 4 0.000000 0.000000 0.000000 0.100689 0.000000 0.000000
# 5 0.000000 0.000000 0.000000 0.000000 0.136672 0.000000
# 6 0.000000 0.000000 0.000000 0.000000 0.000000 0.049159
#
#
# Mechanical properties :
#
#
# Convention : Reuss Voigt Hill
#
# Bulk Modulus (GPa) = 23.75939 49.90527 36.83233
# Shear Modulus (GPa) = 12.14891 17.15082 14.64987
#
# Velocity S-wave (km/s) = 2.80756 3.33582 3.08302
# Velocity P-wave (km/s) = 5.09168 6.87140 6.04737
#
# Compressibility (1/GPa) = 0.04208862
#
# Stress axis : x y z
#
# Youngs Moduli (GPa) = 65.85532 67.35503 21.49714
#
# Poissons Ratio (x) = 0.58208 0.09371
# Poissons Ratio (y) = 0.56912 0.09092
# Poissons Ratio (z) = 0.28706 0.28487
#
# Static dielectric constant tensor:
#      x y z
#    x 3.070620 0.000000 0.000000 
#    y 0.000000 3.164410 0.000000 
#    z 0.000000 0.000000 2.756740 
# 
# 
# High freq. dielectric constant tensor:
#      x y z
#    x 1.587200 0.000000 0.000000 
#    y 0.000000 1.578010 0.000000 
#    z 0.000000 0.000000 1.549240 
# 
# From -- ./inp_files/26556.got.cif
#   From: 2010.03.12/outbox.cif.g09.slc.cpg/sg65_14_cif.got.tgz:26556.got - 2010.04.10 20:52:16.
