data_PCOD8265477
_publ_section_title
;
Structure prediction by ZEFSAII (Michael W. Deem and Ramdas Pophale) SiO2 
 PCOD8265477
Probable space group: C M M M
;
_chemical_formula_sum "Si O2"
_cell_formula_units_Z 80
_cell_length_a 18.382708
_cell_length_b 14.677592
_cell_length_c 14.204632
_cell_angle_alpha 90.000000
_cell_angle_beta 90.000000
_cell_angle_gamma 90.000000
_cell_volume 3832.606986
_symmetry_space_group_name_H-M "C M M M"
_symmetry_group_IT_number 65
_symmetry_cell_setting 'orthorhombic'
loop_
_space_group_symop_operation_xyz
x,y,z
-x,-y,z
x,-y,-z
-x,y,-z
-x,-y,-z
x,y,-z
-x,y,z
x,-y,z
1/2+x,1/2+y,z
1/2-x,1/2-y,z
1/2+x,1/2-y,-z
1/2-x,1/2+y,-z
1/2-x,1/2-y,-z
1/2+x,1/2+y,-z
1/2-x,1/2+y,z
1/2+x,1/2-y,z
loop_
_atom_site_type_symbol
_atom_site_label
_atom_site_fract_x
_atom_site_fract_y
_atom_site_fract_z
Si Si1 0.268325 0.849260 0.394630
Si Si2 0.608989 0.399070 0.394312
Si Si3 0.418891 0.291161 0.211939
Si Si4 0.218645 0.150018 0.104551
Si Si5 0.351413 0.098365 0.223613
O O1 0.299475 0.837425 0.500000
O O2 0.250000 0.750000 0.349983
O O3 0.195900 0.908717 0.392548
O O4 0.330718 0.895585 0.333421
O O5 0.583778 0.370239 0.500000
O O6 0.578011 0.500000 0.369566
O O7 0.581370 0.323005 0.321072
O O8 0.500000 0.307517 0.171257
O O9 0.360483 0.350874 0.154385
O O10 0.402854 0.183253 0.198473
O O11 0.250000 0.250000 0.096843
O O12 0.276376 0.093351 0.164622
O O13 0.209999 0.107727 0.000000
O O14 0.390889 0.000000 0.207147
#
# Coordination Sequence:
#
# PCOD8265477 Si02
#       5
#    16  16  16  16  16
#     4  10  17  30  55  84 113 144 187 244 292 327
#     4  10  20  35  56  82 112 147 189 238 291 340
#     4  11  23  38  56  84 121 155 189 230 279 342
#     4   9  19  38  61  83 107 140 185 235 284 329
#     4  11  21  36  59  85 115 152 193 235 279 332
#
# _framework density 20.873519999999999
#
# number of rings (size 3 to 8) (size 9 to 14) (size 15 to 20)
#    0.000    1.800    4.000    1.200    0.000    3.200 
#    0.000    1.000    0.000    0.000    0.000   11.200 
#    0.000    0.000    0.000    0.000    0.000    0.000 
#
# Total GULP energy -495736.874697 kJ/mol
# GULP energy per Si atom -12393.421867 kJ/mol
# Density = 2.082601 g / cm^3
# Si number density = 20.873520 Si / 1000 Ang^3
#
#
#
# Elastic Constant Matrix: (Units=GPa)
#
#
# Indices 1 2 3 4 5 6 
#
# 1 88.9887 3.4590 24.5847 0.0000 0.0000 0.0000
# 2 3.4590 104.8919 19.7633 0.0000 0.0000 0.0000
# 3 24.5847 19.7633 106.2202 0.0000 0.0000 0.0000
# 4 0.0000 0.0000 0.0000 1.4321 0.0000 0.0000
# 5 0.0000 0.0000 0.0000 0.0000 7.2395 0.0000
# 6 0.0000 0.0000 0.0000 0.0000 0.0000 0.4249
#
#
#
# Elastic Compliance Matrix: (Units=1/GPa)
#
#
# Indices 1 2 3 4 5 6 
#
# 1 0.012007 0.000132 -0.002804 0.000000 0.000000 0.000000
# 2 0.000132 0.009881 -0.001869 0.000000 0.000000 0.000000
# 3 -0.002804 -0.001869 0.010411 0.000000 0.000000 0.000000
# 4 0.000000 0.000000 0.000000 0.698262 0.000000 0.000000
# 5 0.000000 0.000000 0.000000 0.000000 0.138131 0.000000
# 6 0.000000 0.000000 0.000000 0.000000 0.000000 2.353373
#
#
# Mechanical properties :
#
#
# Convention : Reuss Voigt Hill
#
# Bulk Modulus (GPa) = 43.06932 43.96832 43.51882
# Shear Modulus (GPa) = 1.54374 18.63889 10.09132
#
# Velocity S-wave (km/s) = 0.86091 2.99146 2.20114
# Velocity P-wave (km/s) = 4.65473 5.74819 5.23011
#
# Compressibility (1/GPa) = 0.02321839
#
# Stress axis : x y z
#
# Youngs Moduli (GPa) = 83.28627 101.19983 96.05155
#
# Poissons Ratio (x) = -0.01339 0.26929
# Poissons Ratio (y) = -0.01102 0.17954
# Poissons Ratio (z) = 0.23350 0.18916
#
# Static dielectric constant tensor:
#      x y z
#    x 3.496180 0.000000 0.000000 
#    y 0.000000 3.837800 0.000000 
#    z 0.000000 0.000000 3.948080 
# 
# 
# High freq. dielectric constant tensor:
#      x y z
#    x 1.780350 0.000000 0.000000 
#    y 0.000000 1.813500 0.000000 
#    z 0.000000 0.000000 1.811870 
# 
# From -- ./inp_files/40032.got.cif
#   From: 2010.03.12/outbox.cif.g09.slc.cpg/sg65_21_cif.got.tgz:40032.got - 2010.04.10 20:52:16.
