data_PCOD8265457
_publ_section_title
;
Structure prediction by ZEFSAII (Michael W. Deem and Ramdas Pophale) SiO2 
 PCOD8265457
Probable space group: C M M M
;
_chemical_formula_sum "Si O2"
_cell_formula_units_Z 120
_cell_length_a 16.562654
_cell_length_b 22.670830
_cell_length_c 17.885137
_cell_angle_alpha 90.000000
_cell_angle_beta 90.000000
_cell_angle_gamma 90.000000
_cell_volume 6715.674231
_symmetry_space_group_name_H-M "C M M M"
_symmetry_group_IT_number 65
_symmetry_cell_setting 'orthorhombic'
loop_
_space_group_symop_operation_xyz
x,y,z
-x,-y,z
x,-y,-z
-x,y,-z
-x,-y,-z
x,y,-z
-x,y,z
x,-y,z
1/2+x,1/2+y,z
1/2-x,1/2-y,z
1/2+x,1/2-y,-z
1/2-x,1/2+y,-z
1/2-x,1/2-y,-z
1/2+x,1/2+y,-z
1/2-x,1/2+y,z
1/2+x,1/2-y,z
loop_
_atom_site_type_symbol
_atom_site_label
_atom_site_fract_x
_atom_site_fract_y
_atom_site_fract_z
Si Si1 0.646553 0.626286 0.085804
Si Si2 0.087802 0.232757 0.173784
Si Si3 0.242280 0.679495 0.319949
Si Si4 0.411572 0.304354 0.657963
Si Si5 0.094659 0.434660 0.083890
Si Si6 0.305679 0.159851 0.845198
Si Si7 0.090672 0.000000 0.088515
Si Si8 0.410138 0.816043 0.414185
O O1 0.591836 0.668636 0.136335
O O2 0.738860 0.646777 0.092439
O O3 0.636413 0.559184 0.115881
O O4 0.618368 0.631506 0.000000
O O5 0.098737 0.229070 0.262698
O O6 0.156012 0.275750 0.140644
O O7 0.000000 0.259792 0.155705
O O8 0.250000 0.750000 0.324505
O O9 0.330297 0.655082 0.351046
O O10 0.234244 0.655999 0.236097
O O11 0.164567 0.656265 0.366768
O O12 0.500000 0.337673 0.655347
O O13 0.410984 0.254653 0.594170
O O14 0.131204 0.500000 0.097413
O O15 0.127052 0.390295 0.146542
O O16 0.000000 0.437413 0.093296
O O17 0.117752 0.413361 0.000000
O O18 0.000000 0.000000 0.121239
O O19 0.088373 0.000000 0.000000
O O20 0.394153 0.832228 0.500000
O O21 0.500000 0.839993 0.389490
#
# Coordination Sequence:
#
# PCOD8265457 Si02
#       8
#    16  16  16  16  16  16   8  16
#     4  11  23  36  53  74  98 130 173 226 271 313
#     4  11  21  34  51  72 102 139 172 211 263 318
#     4  10  17  30  46  68 101 135 166 201 252 306
#     4   9  17  30  45  64  96 136 172 205 247 301
#     4   9  20  37  52  67  92 129 173 220 266 315
#     4  12  20  32  51  76 101 131 169 211 266 322
#     4   9  20  40  58  72  93 127 172 219 271 323
#     4   9  17  28  46  72 100 134 174 208 239 292
#
# _framework density 17.868645000000001
#
# number of rings (size 3 to 8) (size 9 to 14) (size 15 to 20)
#    0.000    1.933    4.000    2.000    0.933    5.333 
#    0.000    0.000    0.000    0.000    0.000    0.000 
#    0.000    0.533    0.000    4.733    0.000   16.667 
#
# Total GULP energy -743400.101338 kJ/mol
# GULP energy per Si atom -12390.001689 kJ/mol
# Density = 1.782798 g / cm^3
# Si number density = 17.868645 Si / 1000 Ang^3
#
#
#
# Elastic Constant Matrix: (Units=GPa)
#
#
# Indices 1 2 3 4 5 6 
#
# 1 144.3106 27.4576 24.1706 0.0000 0.0000 0.0000
# 2 27.4576 58.2302 12.9886 0.0000 0.0000 0.0000
# 3 24.1706 12.9886 40.7821 0.0000 0.0000 0.0000
# 4 0.0000 0.0000 0.0000 4.6208 0.0000 0.0000
# 5 0.0000 0.0000 0.0000 0.0000 25.9783 0.0000
# 6 0.0000 0.0000 0.0000 0.0000 0.0000 16.7049
#
#
#
# Elastic Compliance Matrix: (Units=1/GPa)
#
#
# Indices 1 2 3 4 5 6 
#
# 1 0.008145 -0.002975 -0.003880 0.000000 0.000000 0.000000
# 2 -0.002975 0.019573 -0.004470 0.000000 0.000000 0.000000
# 3 -0.003880 -0.004470 0.028244 0.000000 0.000000 0.000000
# 4 0.000000 0.000000 0.000000 0.216413 0.000000 0.000000
# 5 0.000000 0.000000 0.000000 0.000000 0.038494 0.000000
# 6 0.000000 0.000000 0.000000 0.000000 0.000000 0.059863
#
#
# Mechanical properties :
#
#
# Convention : Reuss Voigt Hill
#
# Bulk Modulus (GPa) = 30.01999 41.39515 35.70757
# Shear Modulus (GPa) = 12.36134 21.37455 16.86794
#
# Velocity S-wave (km/s) = 2.63304 3.46237 3.07579
# Velocity P-wave (km/s) = 5.10693 6.26104 5.71320
#
# Compressibility (1/GPa) = 0.03331113
#
# Stress axis : x y z
#
# Youngs Moduli (GPa) = 122.76741 51.08978 35.40581
#
# Poissons Ratio (x) = 0.15201 0.13737
# Poissons Ratio (y) = 0.36528 0.15828
# Poissons Ratio (z) = 0.47634 0.22839
#
# Static dielectric constant tensor:
#      x y z
#    x 3.978340 0.000000 0.000000 
#    y 0.000000 3.008510 0.000000 
#    z 0.000000 0.000000 3.075400 
# 
# 
# High freq. dielectric constant tensor:
#      x y z
#    x 1.726900 0.000000 0.000000 
#    y 0.000000 1.629150 0.000000 
#    z 0.000000 0.000000 1.666570 
# 
# From -- ./inp_files/54972.got.cif
#   From: 2010.03.12/outbox.cif.g09.slc.cpg/sg65_28_cif.got.tgz:54972.got - 2010.04.10 20:52:16.
