data_PCOD8265408
_publ_section_title
;
Structure prediction by ZEFSAII (Michael W. Deem and Ramdas Pophale) SiO2 
 PCOD8265408
Probable space group: C M M M
;
_chemical_formula_sum "Si O2"
_cell_formula_units_Z 72
_cell_length_a 17.769852
_cell_length_b 23.081806
_cell_length_c 9.903360
_cell_angle_alpha 90.000000
_cell_angle_beta 90.000000
_cell_angle_gamma 90.000000
_cell_volume 4061.964876
_symmetry_space_group_name_H-M "C M M M"
_symmetry_group_IT_number 65
_symmetry_cell_setting 'orthorhombic'
loop_
_space_group_symop_operation_xyz
x,y,z
-x,-y,z
x,-y,-z
-x,y,-z
-x,-y,-z
x,y,-z
-x,y,z
x,-y,z
1/2+x,1/2+y,z
1/2-x,1/2-y,z
1/2+x,1/2-y,-z
1/2-x,1/2+y,-z
1/2-x,1/2-y,-z
1/2+x,1/2+y,-z
1/2-x,1/2+y,z
1/2+x,1/2-y,z
loop_
_atom_site_type_symbol
_atom_site_label
_atom_site_fract_x
_atom_site_fract_y
_atom_site_fract_z
Si Si1 0.918474 0.626664 0.840471
Si Si2 0.500000 0.565487 0.660422
Si Si3 0.345628 0.615862 0.651322
Si Si4 0.245217 0.000000 0.356821
Si Si5 0.763322 0.317813 0.845420
Si Si6 0.375390 0.000000 0.158043
O O1 0.845905 0.662730 0.786125
O O2 0.917203 0.558827 0.796875
O O3 0.000000 0.650912 0.786861
O O4 0.917403 0.631872 0.000000
O O5 0.500000 0.500000 0.722518
O O6 0.500000 0.559433 0.500000
O O7 0.429005 0.603748 0.708273
O O8 0.346653 0.643671 0.500000
O O9 0.307509 0.554438 0.645802
O O10 0.302483 0.656771 0.754576
O O11 0.291425 0.000000 0.500000
O O12 0.294728 0.000000 0.225097
O O13 0.750000 0.250000 0.838365
O O14 0.755660 0.340020 0.000000
O O15 0.361157 0.000000 0.000000
#
# Coordination Sequence:
#
# PCOD8265408 Si02
#       6
#    16   8  16   8  16   8
#     4   9  17  30  50  75 100 128 166 208 246 296
#     4   9  16  30  53  81 109 137 171 210 255 318
#     4  10  19  33  55  78 103 137 175 212 255 309
#     4  10  18  28  49  79 105 132 164 202 257 312
#     4  10  21  37  54  74 102 137 177 216 258 302
#     4  10  17  28  51  77  98 126 166 207 250 303
#
# _framework density 17.725411000000001
#
# number of rings (size 3 to 8) (size 9 to 14) (size 15 to 20)
#    0.000    2.333    3.333    0.333    0.000    1.778 
#    2.000    0.556    0.000    4.000    0.000    0.000 
#    0.000    0.000    0.000    0.000    0.000    0.000 
#
# Total GULP energy -445980.156131 kJ/mol
# GULP energy per Si atom -12388.337670 kJ/mol
# Density = 1.768507 g / cm^3
# Si number density = 17.725411 Si / 1000 Ang^3
#
#
#
# Elastic Constant Matrix: (Units=GPa)
#
#
# Indices 1 2 3 4 5 6 
#
# 1 163.2461 48.6284 43.5915 0.0000 0.0000 0.0000
# 2 48.6284 73.9681 31.6763 0.0000 0.0000 0.0000
# 3 43.5915 31.6763 47.8823 0.0000 0.0000 0.0000
# 4 0.0000 0.0000 0.0000 14.4506 0.0000 0.0000
# 5 0.0000 0.0000 0.0000 0.0000 23.1151 0.0000
# 6 0.0000 0.0000 0.0000 0.0000 0.0000 -12.7554
#
#
#
# Elastic Compliance Matrix: (Units=1/GPa)
#
#
# Indices 1 2 3 4 5 6 
#
# 1 0.008608 -0.003213 -0.005711 0.000000 0.000000 0.000000
# 2 -0.003213 0.020063 -0.010347 0.000000 0.000000 0.000000
# 3 -0.005711 -0.010347 0.032928 0.000000 0.000000 0.000000
# 4 0.000000 0.000000 0.000000 0.069201 0.000000 0.000000
# 5 0.000000 0.000000 0.000000 0.000000 0.043262 0.000000
# 6 0.000000 0.000000 0.000000 0.000000 0.000000 -0.078398
#
#
# Mechanical properties :
#
#
# Convention : Reuss Voigt Hill
#
# Bulk Modulus (GPa) = 43.37081 59.20988 51.29035
# Shear Modulus (GPa) = 35.23803 15.70875 25.47339
#
# Velocity S-wave (km/s) = 4.46353 2.98019 3.79504
# Velocity P-wave (km/s) = 7.14741 6.73190 6.94276
#
# Compressibility (1/GPa) = 0.02305698
#
# Stress axis : x y z
#
# Youngs Moduli (GPa) = 116.17276 49.84296 30.36884
#
# Poissons Ratio (x) = 0.16017 0.17343
# Poissons Ratio (y) = 0.37332 0.31423
# Poissons Ratio (z) = 0.66342 0.51573
#
# Static dielectric constant tensor:
#      x y z
#    x 3.703550 0.000000 0.000000 
#    y 0.000000 3.262550 0.000000 
#    z 0.000000 0.000000 3.257060 
# 
# 
# High freq. dielectric constant tensor:
#      x y z
#    x 1.697830 0.000000 0.000000 
#    y 0.000000 1.674240 0.000000 
#    z 0.000000 0.000000 1.648840 
# 
# From -- ./inp_files/9330.got.cif
#   From: 2010.03.12/outbox.cif.g09.slc.cpg/sg65_5_cif.got.tgz:9330.got - 2010.04.10 20:52:16.
