data_PCOD8265857
_publ_section_title
;
Structure prediction by ZEFSAII (Michael W. Deem and Ramdas Pophale) SiO2 
 PCOD8265857
Probable space group: C M M M
;
_chemical_formula_sum "Si O2"
_cell_formula_units_Z 112
_cell_length_a 16.528967
_cell_length_b 15.279096
_cell_length_c 23.367610
_cell_angle_alpha 90.000000
_cell_angle_beta 90.000000
_cell_angle_gamma 90.000000
_cell_volume 5901.435542
_symmetry_space_group_name_H-M "C M M M"
_symmetry_group_IT_number 65
_symmetry_cell_setting 'orthorhombic'
loop_
_space_group_symop_operation_xyz
x,y,z
-x,-y,z
x,-y,-z
-x,y,-z
-x,-y,-z
x,y,-z
-x,y,z
x,-y,z
1/2+x,1/2+y,z
1/2-x,1/2-y,z
1/2+x,1/2-y,-z
1/2-x,1/2+y,-z
1/2-x,1/2-y,-z
1/2+x,1/2+y,-z
1/2-x,1/2+y,z
1/2+x,1/2-y,z
loop_
_atom_site_type_symbol
_atom_site_label
_atom_site_fract_x
_atom_site_fract_y
_atom_site_fract_z
Si Si1 0.096184 0.097728 0.435756
Si Si2 0.095532 0.600487 0.839988
Si Si3 0.859835 0.904785 0.254300
Si Si4 0.198088 0.333151 0.264726
Si Si5 0.905476 0.097753 0.871934
Si Si6 0.096040 0.267676 0.936608
Si Si7 0.590549 0.729689 0.340813
O O1 0.125697 0.119899 0.500000
O O2 0.128825 0.173268 0.393200
O O3 0.000000 0.098024 0.432653
O O4 0.127087 0.000000 0.418217
O O5 0.119999 0.500000 0.851289
O O6 0.134499 0.635323 0.781961
O O7 0.128015 0.657452 0.893520
O O8 0.000000 0.611106 0.832281
O O9 0.766596 0.905590 0.277098
O O10 0.857893 0.885492 0.186758
O O11 0.914975 0.833570 0.285655
O O12 0.897757 0.000000 0.266609
O O13 0.250000 0.250000 0.242313
O O14 0.149578 0.310040 0.323753
O O15 0.875748 0.170815 0.916812
O O16 0.000000 0.108701 0.858422
O O17 0.887242 0.000000 0.896191
O O18 0.000000 0.271541 0.938869
O O19 0.131989 0.284924 0.000000
O O20 0.500000 0.764059 0.354888
#
# Coordination Sequence:
#
# PCOD8265857 Si02
#       7
#    16  16  16  16  16  16  16
#     4   8  14  25  42  67  99 130 158 191 233 281
#     4  10  20  34  52  71  93 125 165 206 244 285
#     4  10  19  30  46  67  93 124 154 188 232 282
#     4  10  20  32  47  67  95 126 155 193 242 290
#     4   9  17  29  47  72  99 127 160 197 242 299
#     4   9  17  29  46  69  95 121 153 198 248 293
#     4  10  18  28  46  71  97 123 154 192 233 277
#
# _framework density 18.978434
#
# number of rings (size 3 to 8) (size 9 to 14) (size 15 to 20)
#    0.000    2.571    0.000    3.857    0.000    3.143 
#    0.000    2.857    0.000    7.714    0.000    4.000 
#    0.000    1.714    0.000   16.143    0.000    0.000 
#
# Total GULP energy -693975.633327 kJ/mol
# GULP energy per Si atom -12392.422024 kJ/mol
# Density = 1.893524 g / cm^3
# Si number density = 18.978434 Si / 1000 Ang^3
#
#
#
# Elastic Constant Matrix: (Units=GPa)
#
#
# Indices 1 2 3 4 5 6 
#
# 1 45.4485 17.6250 20.9385 0.0000 0.0000 0.0000
# 2 17.6250 89.8386 46.0746 0.0000 0.0000 0.0000
# 3 20.9385 46.0746 101.8190 0.0000 0.0000 0.0000
# 4 0.0000 0.0000 0.0000 22.0295 0.0000 0.0000
# 5 0.0000 0.0000 0.0000 0.0000 8.8411 0.0000
# 6 0.0000 0.0000 0.0000 0.0000 0.0000 14.5347
#
#
#
# Elastic Compliance Matrix: (Units=1/GPa)
#
#
# Indices 1 2 3 4 5 6 
#
# 1 0.024888 -0.002940 -0.003788 0.000000 0.000000 0.000000
# 2 -0.002940 0.014842 -0.006112 0.000000 0.000000 0.000000
# 3 -0.003788 -0.006112 0.013366 0.000000 0.000000 0.000000
# 4 0.000000 0.000000 0.000000 0.045394 0.000000 0.000000
# 5 0.000000 0.000000 0.000000 0.000000 0.113108 0.000000
# 6 0.000000 0.000000 0.000000 0.000000 0.000000 0.068801
#
#
# Mechanical properties :
#
#
# Convention : Reuss Voigt Hill
#
# Bulk Modulus (GPa) = 36.47332 45.15360 40.81346
# Shear Modulus (GPa) = 15.86207 19.24558 17.55383
#
# Velocity S-wave (km/s) = 2.89415 3.18791 3.04457
# Velocity P-wave (km/s) = 5.51617 6.11507 5.82332
#
# Compressibility (1/GPa) = 0.02741730
#
# Stress axis : x y z
#
# Youngs Moduli (GPa) = 40.17976 67.37465 74.81705
#
# Poissons Ratio (x) = 0.19809 0.28338
# Poissons Ratio (y) = 0.11813 0.45727
# Poissons Ratio (z) = 0.15219 0.41178
#
# Static dielectric constant tensor:
#      x y z
#    x 3.307010 0.000000 0.000000 
#    y 0.000000 3.675700 0.000000 
#    z 0.000000 0.000000 3.540900 
# 
# 
# High freq. dielectric constant tensor:
#      x y z
#    x 1.708390 0.000000 0.000000 
#    y 0.000000 1.733370 0.000000 
#    z 0.000000 0.000000 1.719170 
# 
# From -- ./inp_files/63952.got.cif
#   From: 2010.03.12/outbox.cif.g09.slc.cpg/sg65_32_cif.got.tgz:63952.got - 2010.04.10 20:52:16.
