data_PCOD8265595
_publ_section_title
;
Structure prediction by ZEFSAII (Michael W. Deem and Ramdas Pophale) SiO2 
 PCOD8265595
Probable space group: C M M M
;
_chemical_formula_sum "Si O2"
_cell_formula_units_Z 104
_cell_length_a 29.853475
_cell_length_b 18.185491
_cell_length_c 12.400789
_cell_angle_alpha 90.000000
_cell_angle_beta 90.000000
_cell_angle_gamma 90.000000
_cell_volume 6732.389600
_symmetry_space_group_name_H-M "C M M M"
_symmetry_group_IT_number 65
_symmetry_cell_setting 'orthorhombic'
loop_
_space_group_symop_operation_xyz
x,y,z
-x,-y,z
x,-y,-z
-x,y,-z
-x,-y,-z
x,y,-z
-x,y,z
x,-y,z
1/2+x,1/2+y,z
1/2-x,1/2-y,z
1/2+x,1/2-y,-z
1/2-x,1/2+y,-z
1/2-x,1/2-y,-z
1/2+x,1/2+y,-z
1/2-x,1/2+y,z
1/2+x,1/2-y,z
loop_
_atom_site_type_symbol
_atom_site_label
_atom_site_fract_x
_atom_site_fract_y
_atom_site_fract_z
Si Si1 0.293583 0.917455 0.628300
Si Si2 0.304742 0.586357 0.380867
Si Si3 0.391706 0.652086 0.303680
Si Si4 0.553066 0.586729 0.500000
Si Si5 0.049414 0.581358 0.627958
Si Si6 0.373434 0.185619 0.371419
Si Si7 0.448602 0.584377 0.125215
O O1 0.294865 0.921650 0.500000
O O2 0.244061 0.890048 0.665170
O O3 0.329033 0.856982 0.669324
O O4 0.304504 0.000000 0.673074
O O5 0.313182 0.621740 0.500000
O O6 0.304330 0.500000 0.393495
O O7 0.344505 0.609625 0.302113
O O8 0.425165 0.623949 0.395986
O O9 0.378453 0.736676 0.314498
O O10 0.415976 0.638251 0.190377
O O11 0.563605 0.500000 0.500000
O O12 0.500000 0.601987 0.500000
O O13 0.052402 0.578606 0.500000
O O14 0.060014 0.500000 0.673533
O O15 0.084956 0.638662 0.672979
O O16 0.000000 0.606813 0.664913
O O17 0.373612 0.195420 0.500000
O O18 0.500000 0.605181 0.150024
O O19 0.440020 0.500000 0.160196
O O20 0.437811 0.595111 0.000000
#
# Coordination Sequence:
#
# PCOD8265595 Si02
#       7
#    16  16  16   8  16  16  16
#     4   8  15  27  43  59  83 126 167 190 210 249
#     4   9  16  27  42  61  87 120 155 187 217 257
#     4  12  20  29  43  68  94 118 142 179 230 273
#     4  11  22  32  42  59  89 127 151 162 197 270
#     4   8  14  24  37  51  73 113 156 187 214 249
#     4  10  18  27  37  61  94 123 151 180 220 265
#     4   9  19  36  54  67  81 110 155 198 226 255
#
# _framework density 15.447710000000001
#
# number of rings (size 3 to 8) (size 9 to 14) (size 15 to 20)
#    0.000    2.538    1.538    4.154    0.000    4.923 
#    0.000    2.308    0.000    0.000    0.000    2.154 
#    0.000    3.692    0.000    8.462    0.000    0.154 
#
# Total GULP energy -644508.465753 kJ/mol
# GULP energy per Si atom -12394.393572 kJ/mol
# Density = 1.541255 g / cm^3
# Si number density = 15.447710 Si / 1000 Ang^3
#
#
#
# Elastic Constant Matrix: (Units=GPa)
#
#
# Indices 1 2 3 4 5 6 
#
# 1 132.7914 58.5363 34.3763 0.0000 0.0000 0.0000
# 2 58.5363 68.4624 24.9097 0.0000 0.0000 0.0000
# 3 34.3763 24.9097 39.5434 0.0000 0.0000 0.0000
# 4 0.0000 0.0000 0.0000 10.7371 0.0000 0.0000
# 5 0.0000 0.0000 0.0000 0.0000 14.7116 0.0000
# 6 0.0000 0.0000 0.0000 0.0000 0.0000 10.4114
#
#
#
# Elastic Compliance Matrix: (Units=1/GPa)
#
#
# Indices 1 2 3 4 5 6 
#
# 1 0.012965 -0.009061 -0.005563 0.000000 0.000000 0.000000
# 2 -0.009061 0.025283 -0.008049 0.000000 0.000000 0.000000
# 3 -0.005563 -0.008049 0.035195 0.000000 0.000000 0.000000
# 4 0.000000 0.000000 0.000000 0.093135 0.000000 0.000000
# 5 0.000000 0.000000 0.000000 0.000000 0.067974 0.000000
# 6 0.000000 0.000000 0.000000 0.000000 0.000000 0.096049
#
#
# Mechanical properties :
#
#
# Convention : Reuss Voigt Hill
#
# Bulk Modulus (GPa) = 35.59204 52.93798 44.26501
# Shear Modulus (GPa) = 12.97649 15.37034 14.17341
#
# Velocity S-wave (km/s) = 2.90147 3.15777 3.03233
# Velocity P-wave (km/s) = 5.85790 6.90209 6.40132
#
# Compressibility (1/GPa) = 0.02809617
#
# Stress axis : x y z
#
# Youngs Moduli (GPa) = 77.13045 39.55271 28.41303
#
# Poissons Ratio (x) = 0.35840 0.15806
# Poissons Ratio (y) = 0.69890 0.22870
# Poissons Ratio (z) = 0.42907 0.31837
#
# Static dielectric constant tensor:
#      x y z
#    x 3.401860 0.000000 0.000000 
#    y 0.000000 3.011280 0.000000 
#    z 0.000000 0.000000 2.454170 
# 
# 
# High freq. dielectric constant tensor:
#      x y z
#    x 1.613110 0.000000 0.000000 
#    y 0.000000 1.592390 0.000000 
#    z 0.000000 0.000000 1.514620 
# 
# From -- ./inp_files/32519.got.cif
#   From: 2010.03.12/outbox.cif.g09.slc.cpg/sg65_17_cif.got.tgz:32519.got - 2010.04.10 20:52:16.
