data_PCOD8265035
_publ_section_title
;
Structure prediction by ZEFSAII (Michael W. Deem and Ramdas Pophale) SiO2 
 PCOD8265035
Probable space group: C M C A
;
_chemical_formula_sum "Si O2"
_cell_formula_units_Z 128
_cell_length_a 9.730128
_cell_length_b 23.414301
_cell_length_c 33.618362
_cell_angle_alpha 90.000000
_cell_angle_beta 90.000000
_cell_angle_gamma 90.000000
_cell_volume 7659.074605
_symmetry_space_group_name_H-M "C M C A"
_symmetry_group_IT_number 64
_symmetry_cell_setting 'orthorhombic'
loop_
_space_group_symop_operation_xyz
x,y,z
-x,1/2-y,1/2+z
x,-y,-z
-x,1/2+y,1/2-z
-x,-y,-z
x,1/2+y,1/2-z
-x,y,z
x,1/2-y,1/2+z
1/2+x,1/2+y,z
1/2-x,-y,1/2+z
1/2+x,1/2-y,-z
1/2-x,y,1/2-z
1/2-x,1/2-y,-z
1/2+x,y,1/2-z
1/2-x,1/2+y,z
1/2+x,-y,1/2+z
loop_
_atom_site_type_symbol
_atom_site_label
_atom_site_fract_x
_atom_site_fract_y
_atom_site_fract_z
Si Si1 0.153410 0.405911 0.866952
Si Si2 0.160363 0.781008 0.212378
Si Si3 0.656852 0.351743 0.714672
Si Si4 0.656062 0.702639 0.422532
Si Si5 0.337008 0.188759 0.625636
Si Si6 0.840312 0.470002 0.577405
Si Si7 0.337217 0.903287 0.435853
Si Si8 0.660357 0.864770 0.520881
O O1 0.196174 0.390953 0.822376
O O2 0.159530 0.347961 0.891334
O O3 0.259979 0.452215 0.882952
O O4 0.000000 0.431784 0.868943
O O5 0.250000 0.803067 0.250000
O O6 0.186442 0.714229 0.204991
O O7 0.213662 0.811474 0.171625
O O8 0.000000 0.794171 0.220973
O O9 0.500000 0.359819 0.727361
O O10 0.750000 0.374732 0.750000
O O11 0.500000 0.713628 0.437776
O O12 0.718629 0.757934 0.400295
O O13 0.752354 0.686518 0.459835
O O14 0.500000 0.194864 0.626745
O O15 0.287606 0.130978 0.603445
O O16 0.782094 0.531916 0.564794
O O17 0.811738 0.425495 0.542097
O O18 0.000000 0.472691 0.588512
O O19 0.500000 0.905098 0.437643
O O20 0.286386 0.871382 0.475699
O O21 0.500000 0.848427 0.523618
#
# Coordination Sequence:
#
# PCOD8265035 Si02
#       8
#    16  16  16  16  16  16  16  16
#     4   9  16  28  45  64  89 117 142 175 222 270
#     4   9  16  28  46  68  91 115 144 178 216 260
#     4   9  16  26  42  66  92 114 138 172 218 268
#     4   9  16  28  45  65  89 118 148 177 218 269
#     4   9  16  28  47  67  90 120 152 181 213 268
#     4   9  17  29  46  66  86 113 153 195 226 255
#     4   9  17  29  46  66  87 118 157 190 220 258
#     4   9  17  29  45  66  91 116 147 191 233 262
#
# _framework density 16.712202000000001
#
# number of rings (size 3 to 8) (size 9 to 14) (size 15 to 20)
#    0.000    3.000    1.250    0.375    0.000    2.500 
#    0.000    1.250    0.000    6.000    0.000    3.500 
#    0.000    0.000    0.000    0.000    0.000    0.000 
#
# Total GULP energy -793336.516516 kJ/mol
# GULP energy per Si atom -12395.883071 kJ/mol
# Density = 1.667416 g / cm^3
# Si number density = 16.712202 Si / 1000 Ang^3
#
#
#
# Elastic Constant Matrix: (Units=GPa)
#
#
# Indices 1 2 3 4 5 6 
#
# 1 41.7798 14.9825 45.5040 0.0000 0.0000 0.0000
# 2 14.9825 47.9274 37.8285 0.0000 0.0000 0.0000
# 3 45.5040 37.8285 131.2375 0.0000 0.0000 0.0000
# 4 0.0000 0.0000 0.0000 16.8894 0.0000 0.0000
# 5 0.0000 0.0000 0.0000 0.0000 26.9837 0.0000
# 6 0.0000 0.0000 0.0000 0.0000 0.0000 13.1076
#
#
#
# Elastic Compliance Matrix: (Units=1/GPa)
#
#
# Indices 1 2 3 4 5 6 
#
# 1 0.038598 -0.001946 -0.012822 0.000000 0.000000 0.000000
# 2 -0.001946 0.027108 -0.007139 0.000000 0.000000 0.000000
# 3 -0.012822 -0.007139 0.014123 0.000000 0.000000 0.000000
# 4 0.000000 0.000000 0.000000 0.059209 0.000000 0.000000
# 5 0.000000 0.000000 0.000000 0.000000 0.037059 0.000000
# 6 0.000000 0.000000 0.000000 0.000000 0.000000 0.076292
#
#
# Mechanical properties :
#
#
# Convention : Reuss Voigt Hill
#
# Bulk Modulus (GPa) = 27.76590 46.39718 37.08154
# Shear Modulus (GPa) = 16.22278 19.57143 17.89711
#
# Velocity S-wave (km/s) = 3.11901 3.42583 3.27601
# Velocity P-wave (km/s) = 5.44253 6.59326 6.04534
#
# Compressibility (1/GPa) = 0.03601540
#
# Stress axis : x y z
#
# Youngs Moduli (GPa) = 25.90809 36.88957 70.80415
#
# Poissons Ratio (x) = 0.07177 0.90787
# Poissons Ratio (y) = 0.05041 0.50548
# Poissons Ratio (z) = 0.33220 0.26336
#
# Static dielectric constant tensor:
#      x y z
#    x 3.013210 0.000000 0.000000 
#    y 0.000000 3.038050 0.000000 
#    z 0.000000 0.000000 3.300390 
# 
# 
# High freq. dielectric constant tensor:
#      x y z
#    x 1.615200 0.000000 0.000000 
#    y 0.000000 1.621730 0.000000 
#    z 0.000000 0.000000 1.648210 
# 
# From -- ./inp_files/49650.got.cif
#   From: 2010.03.12/outbox.cif.g09.slc.cpg/sg64_25_cif.got.tgz:49650.got - 2010.04.10 20:19:32.
