data_PCOD8265538
_publ_section_title
;
Structure prediction by ZEFSAII (Michael W. Deem and Ramdas Pophale) SiO2 
 PCOD8265538
Probable space group: C M M M
;
_chemical_formula_sum "Si O2"
_cell_formula_units_Z 80
_cell_length_a 25.232015
_cell_length_b 9.909348
_cell_length_c 20.419269
_cell_angle_alpha 90.000000
_cell_angle_beta 90.000000
_cell_angle_gamma 90.000000
_cell_volume 5105.487357
_symmetry_space_group_name_H-M "C M M M"
_symmetry_group_IT_number 65
_symmetry_cell_setting 'orthorhombic'
loop_
_space_group_symop_operation_xyz
x,y,z
-x,-y,z
x,-y,-z
-x,y,-z
-x,-y,-z
x,y,-z
-x,y,z
x,-y,z
1/2+x,1/2+y,z
1/2-x,1/2-y,z
1/2+x,1/2-y,-z
1/2-x,1/2+y,-z
1/2-x,1/2-y,-z
1/2+x,1/2+y,-z
1/2-x,1/2+y,z
1/2+x,1/2-y,z
loop_
_atom_site_type_symbol
_atom_site_label
_atom_site_fract_x
_atom_site_fract_y
_atom_site_fract_z
Si Si1 0.186904 0.763065 0.137780
Si Si2 0.835925 0.500000 0.354813
Si Si3 0.860132 0.225154 0.423709
Si Si4 0.559012 0.500000 0.577652
Si Si5 0.177328 0.500000 0.205860
Si Si6 0.802459 0.000000 0.773582
Si Si7 0.698615 0.342445 0.000000
Si Si8 0.788923 0.000000 0.625831
O O1 0.250000 0.750000 0.133024
O O2 0.159256 0.626615 0.162177
O O3 0.171186 0.870721 0.192861
O O4 0.165278 0.807562 0.065915
O O5 0.861536 0.365223 0.384589
O O6 0.848911 0.500000 0.277516
O O7 0.773972 0.500000 0.370984
O O8 0.863072 0.260786 0.500000
O O9 0.910065 0.134938 0.399877
O O10 0.807201 0.136313 0.410945
O O11 0.500000 0.500000 0.608248
O O12 0.556616 0.500000 0.500000
O O13 0.239936 0.500000 0.215593
O O14 0.815813 0.000000 0.697303
O O15 0.750000 0.250000 0.000000
O O16 0.715190 0.500000 0.000000
#
# Coordination Sequence:
#
# PCOD8265538 Si02
#       8
#    16   8  16   8   8   8   8   8
#     4   9  16  24  35  47  67  90 131 175 220 254
#     4  11  20  30  42  62  91 116 147 185 225 253
#     4  10  20  31  45  66  86 111 146 183 222 266
#     4   8  16  34  54  67  83 107 136 173 222 277
#     4   9  18  27  36  50  70 106 136 170 210 252
#     4   9  15  26  37  49  67 101 140 178 209 246
#     4  10  18  24  34  50  68  90 124 180 238 261
#     4  10  19  29  43  58  85 122 155 181 216 260
#
# _framework density 15.669414
#
# number of rings (size 3 to 8) (size 9 to 14) (size 15 to 20)
#    0.000    2.500    1.000    3.000    4.200    5.600 
#    0.000    0.500    0.000    2.400    0.000    0.000 
#    0.000    0.000    0.000    0.000    0.000    0.000 
#
# Total GULP energy -495769.404693 kJ/mol
# GULP energy per Si atom -12394.235117 kJ/mol
# Density = 1.563375 g / cm^3
# Si number density = 15.669414 Si / 1000 Ang^3
#
#
#
# Elastic Constant Matrix: (Units=GPa)
#
#
# Indices 1 2 3 4 5 6 
#
# 1 46.5708 23.9959 14.9443 0.0000 0.0000 0.0000
# 2 23.9959 155.9138 61.8692 0.0000 0.0000 0.0000
# 3 14.9443 61.8692 109.2384 0.0000 0.0000 0.0000
# 4 0.0000 0.0000 0.0000 32.9278 0.0000 0.0000
# 5 0.0000 0.0000 0.0000 0.0000 2.2269 0.0000
# 6 0.0000 0.0000 0.0000 0.0000 0.0000 5.0622
#
#
#
# Elastic Compliance Matrix: (Units=1/GPa)
#
#
# Indices 1 2 3 4 5 6 
#
# 1 0.023513 -0.003021 -0.001505 0.000000 0.000000 0.000000
# 2 -0.003021 0.008661 -0.004492 0.000000 0.000000 0.000000
# 3 -0.001505 -0.004492 0.011904 0.000000 0.000000 0.000000
# 4 0.000000 0.000000 0.000000 0.030369 0.000000 0.000000
# 5 0.000000 0.000000 0.000000 0.000000 0.449055 0.000000
# 6 0.000000 0.000000 0.000000 0.000000 0.000000 0.197543
#
#
# Mechanical properties :
#
#
# Convention : Reuss Voigt Hill
#
# Bulk Modulus (GPa) = 38.40177 57.03800 47.71988
# Shear Modulus (GPa) = 6.68660 22.10428 14.39544
#
# Velocity S-wave (km/s) = 2.06798 3.75996 3.03429
# Velocity P-wave (km/s) = 5.50116 7.43838 6.54188
#
# Compressibility (1/GPa) = 0.02604047
#
# Stress axis : x y z
#
# Youngs Moduli (GPa) = 42.53050 115.45500 84.00189
#
# Poissons Ratio (x) = 0.34883 0.12646
# Poissons Ratio (y) = 0.12850 0.37735
# Poissons Ratio (z) = 0.06403 0.51865
#
# Static dielectric constant tensor:
#      x y z
#    x 2.474420 0.000000 0.000000 
#    y 0.000000 3.196910 0.000000 
#    z 0.000000 0.000000 3.325720 
# 
# 
# High freq. dielectric constant tensor:
#      x y z
#    x 1.509120 0.000000 0.000000 
#    y 0.000000 1.622580 0.000000 
#    z 0.000000 0.000000 1.613880 
# 
# From -- ./inp_files/60141.got.cif
#   From: 2010.03.12/outbox.cif.g09.slc.cpg/sg65_31_cif.got.tgz:60141.got - 2010.04.10 20:52:16.
