data_PCOD8265890
_publ_section_title
;
Structure prediction by ZEFSAII (Michael W. Deem and Ramdas Pophale) SiO2 
 PCOD8265890
Probable space group: C M M M
;
_chemical_formula_sum "Si O2"
_cell_formula_units_Z 72
_cell_length_a 18.173788
_cell_length_b 19.742900
_cell_length_c 11.821091
_cell_angle_alpha 90.000000
_cell_angle_beta 90.000000
_cell_angle_gamma 90.000000
_cell_volume 4241.446213
_symmetry_space_group_name_H-M "C M M M"
_symmetry_group_IT_number 65
_symmetry_cell_setting 'orthorhombic'
loop_
_space_group_symop_operation_xyz
x,y,z
-x,-y,z
x,-y,-z
-x,y,-z
-x,-y,-z
x,y,-z
-x,y,z
x,-y,z
1/2+x,1/2+y,z
1/2-x,1/2-y,z
1/2+x,1/2-y,-z
1/2-x,1/2+y,-z
1/2-x,1/2-y,-z
1/2+x,1/2+y,-z
1/2-x,1/2+y,z
1/2+x,1/2-y,z
loop_
_atom_site_type_symbol
_atom_site_label
_atom_site_fract_x
_atom_site_fract_y
_atom_site_fract_z
Si Si1 0.142338 0.708709 0.000000
Si Si2 0.915788 0.266865 0.236899
Si Si3 0.087053 0.000000 0.369846
Si Si4 0.210780 0.678048 0.625965
Si Si5 0.791395 0.857258 0.000000
Si Si6 0.839738 0.877658 0.240683
O O1 0.091338 0.704061 0.110259
O O2 0.182843 0.780201 0.000000
O O3 0.202301 0.647697 0.000000
O O4 0.869704 0.315615 0.319385
O O5 0.886854 0.190562 0.247438
O O6 0.000000 0.269156 0.275799
O O7 0.114131 0.934637 0.302939
O O8 0.115638 0.000000 0.500000
O O9 0.000000 0.000000 0.368398
O O10 0.202106 0.648648 0.500000
O O11 0.250000 0.750000 0.624614
O O12 0.260775 0.627715 0.698796
O O13 0.822764 0.896287 0.109878
#
# Coordination Sequence:
#
# PCOD8265890 Si02
#       6
#     8  16   8  16   8  16
#     4   9  15  28  46  74 101 130 159 195 255 316
#     4  10  18  28  47  75 105 131 160 204 258 308
#     4  11  24  39  53  71 100 140 180 212 242 282
#     4   9  17  29  46  67  94 130 170 209 250 298
#     4   9  16  29  53  72  95 129 165 209 249 296
#     4  10  19  34  51  71  99 135 175 208 246 293
#
# _framework density 16.975342000000001
#
# number of rings (size 3 to 8) (size 9 to 14) (size 15 to 20)
#    0.000    2.333    2.222    1.667    0.000    1.778 
#    0.000    2.222    0.000    0.000    0.000    0.778 
#    0.000    4.444    0.000    0.000    0.000    0.000 
#
# Total GULP energy -446297.575592 kJ/mol
# GULP energy per Si atom -12397.154878 kJ/mol
# Density = 1.693671 g / cm^3
# Si number density = 16.975342 Si / 1000 Ang^3
#
#
#
# Elastic Constant Matrix: (Units=GPa)
#
#
# Indices 1 2 3 4 5 6 
#
# 1 126.1158 23.5781 56.7729 0.0000 0.0000 0.0000
# 2 23.5781 33.4993 32.3844 0.0000 0.0000 0.0000
# 3 56.7729 32.3844 159.5872 0.0000 0.0000 0.0000
# 4 0.0000 0.0000 0.0000 16.7687 0.0000 0.0000
# 5 0.0000 0.0000 0.0000 0.0000 25.8223 0.0000
# 6 0.0000 0.0000 0.0000 0.0000 0.0000 22.4104
#
#
#
# Elastic Compliance Matrix: (Units=1/GPa)
#
#
# Indices 1 2 3 4 5 6 
#
# 1 0.009948 -0.004455 -0.002635 0.000000 0.000000 0.000000
# 2 -0.004455 0.039131 -0.006356 0.000000 0.000000 0.000000
# 3 -0.002635 -0.006356 0.008493 0.000000 0.000000 0.000000
# 4 0.000000 0.000000 0.000000 0.059635 0.000000 0.000000
# 5 0.000000 0.000000 0.000000 0.000000 0.038726 0.000000
# 6 0.000000 0.000000 0.000000 0.000000 0.000000 0.044622
#
#
# Mechanical properties :
#
#
# Convention : Reuss Voigt Hill
#
# Bulk Modulus (GPa) = 32.59304 60.51923 46.55614
# Shear Modulus (GPa) = 21.03716 26.76474 23.90095
#
# Velocity S-wave (km/s) = 3.52416 3.97506 3.75638
# Velocity P-wave (km/s) = 5.98343 7.53636 6.80434
#
# Compressibility (1/GPa) = 0.03068140
#
# Stress axis : x y z
#
# Youngs Moduli (GPa) = 100.52006 25.55511 117.73820
#
# Poissons Ratio (x) = 0.11384 0.31026
# Poissons Ratio (y) = 0.44777 0.74835
# Poissons Ratio (z) = 0.26488 0.16243
#
# Static dielectric constant tensor:
#      x y z
#    x 3.121900 0.000000 0.000000 
#    y 0.000000 2.731710 0.000000 
#    z 0.000000 0.000000 3.559450 
# 
# 
# High freq. dielectric constant tensor:
#      x y z
#    x 1.652750 0.000000 0.000000 
#    y 0.000000 1.595980 0.000000 
#    z 0.000000 0.000000 1.676240 
# 
# From -- ./inp_files/26364.got.cif
#   From: 2010.03.12/outbox.cif.g09.slc.cpg/sg65_14_cif.got.tgz:26364.got - 2010.04.10 20:52:16.
