data_PCOD8265635
_publ_section_title
;
Structure prediction by ZEFSAII (Michael W. Deem and Ramdas Pophale) SiO2 
 PCOD8265635
Probable space group: C M M M
;
_chemical_formula_sum "Si O2"
_cell_formula_units_Z 104
_cell_length_a 8.886974
_cell_length_b 27.131136
_cell_length_c 26.671848
_cell_angle_alpha 90.000000
_cell_angle_beta 90.000000
_cell_angle_gamma 90.000000
_cell_volume 6430.947963
_symmetry_space_group_name_H-M "C M M M"
_symmetry_group_IT_number 65
_symmetry_cell_setting 'orthorhombic'
loop_
_space_group_symop_operation_xyz
x,y,z
-x,-y,z
x,-y,-z
-x,y,-z
-x,-y,-z
x,y,-z
-x,y,z
x,-y,z
1/2+x,1/2+y,z
1/2-x,1/2-y,z
1/2+x,1/2-y,-z
1/2-x,1/2+y,-z
1/2-x,1/2-y,-z
1/2+x,1/2+y,-z
1/2-x,1/2+y,z
1/2+x,1/2-y,z
loop_
_atom_site_type_symbol
_atom_site_label
_atom_site_fract_x
_atom_site_fract_y
_atom_site_fract_z
Si Si1 0.175196 0.892536 0.904971
Si Si2 0.173023 0.056336 0.198595
Si Si3 0.321803 0.943078 0.000000
Si Si4 0.175751 0.802566 0.552888
Si Si5 0.322227 0.802763 0.146391
Si Si6 0.177161 0.803356 0.338491
Si Si7 0.175009 0.643675 0.751711
O O1 0.201062 0.929480 0.858914
O O2 0.250347 0.839887 0.893690
O O3 0.000000 0.884399 0.916606
O O4 0.256071 0.916604 0.951741
O O5 0.277751 0.088180 0.234987
O O6 0.000000 0.065724 0.213216
O O7 0.220144 0.000000 0.206140
O O8 0.500000 0.937761 0.000000
O O9 0.271341 0.000000 0.000000
O O10 0.219912 0.831008 0.500000
O O11 0.250000 0.750000 0.551364
O O12 0.220099 0.827031 0.606447
O O13 0.000000 0.793375 0.553516
O O14 0.500000 0.800592 0.137931
O O15 0.250000 0.750000 0.136933
O O16 0.281759 0.820145 0.202612
O O17 0.250000 0.750000 0.330705
O O18 0.236278 0.841010 0.297577
O O19 0.000000 0.796957 0.331769
O O20 0.000000 0.645355 0.739824
#
# Coordination Sequence:
#
# PCOD8265635 Si02
#       7
#    16  16   8  16  16  16  16
#     4  10  20  35  55  77  99 124 155 189 226 270
#     4   9  18  33  52  72  94 120 150 186 228 272
#     4  11  23  37  54  77 104 129 153 187 229 271
#     4   8  14  24  37  54  78 111 150 188 226 267
#     4  10  20  34  51  71  96 127 160 192 228 269
#     4  10  18  27  41  61  88 121 155 192 230 268
#     4  10  20  31  45  67  94 123 155 190 226 270
#
# _framework density 16.171800000000001
#
# number of rings (size 3 to 8) (size 9 to 14) (size 15 to 20)
#    0.000    2.385    0.000    3.000    0.000    5.846 
#    0.000    0.385    0.000    0.000    0.000    0.000 
#    0.000    0.615    0.000    7.077    0.000    2.000 
#
# Total GULP energy -644487.973822 kJ/mol
# GULP energy per Si atom -12393.999497 kJ/mol
# Density = 1.613499 g / cm^3
# Si number density = 16.171800 Si / 1000 Ang^3
#
#
#
# Elastic Constant Matrix: (Units=GPa)
#
#
# Indices 1 2 3 4 5 6 
#
# 1 71.2231 43.3083 55.2806 0.0000 0.0000 0.0000
# 2 43.3083 101.4409 60.2124 0.0000 0.0000 0.0000
# 3 55.2806 60.2124 134.4573 0.0000 0.0000 0.0000
# 4 0.0000 0.0000 0.0000 14.5846 0.0000 0.0000
# 5 0.0000 0.0000 0.0000 0.0000 22.4593 0.0000
# 6 0.0000 0.0000 0.0000 0.0000 0.0000 26.4742
#
#
#
# Elastic Compliance Matrix: (Units=1/GPa)
#
#
# Indices 1 2 3 4 5 6 
#
# 1 0.022793 -0.005678 -0.006828 0.000000 0.000000 0.000000
# 2 -0.005678 0.014841 -0.004312 0.000000 0.000000 0.000000
# 3 -0.006828 -0.004312 0.012176 0.000000 0.000000 0.000000
# 4 0.000000 0.000000 0.000000 0.068565 0.000000 0.000000
# 5 0.000000 0.000000 0.000000 0.000000 0.044525 0.000000
# 6 0.000000 0.000000 0.000000 0.000000 0.000000 0.037773
#
#
# Mechanical properties :
#
#
# Convention : Reuss Voigt Hill
#
# Bulk Modulus (GPa) = 61.82878 69.41377 65.62127
# Shear Modulus (GPa) = 20.85938 22.59161 21.72550
#
# Velocity S-wave (km/s) = 3.59536 3.74167 3.66924
# Velocity P-wave (km/s) = 7.45325 7.85383 7.65616
#
# Compressibility (1/GPa) = 0.01617370
#
# Stress axis : x y z
#
# Youngs Moduli (GPa) = 43.87348 67.37908 82.13126
#
# Poissons Ratio (x) = 0.38257 0.56082
# Poissons Ratio (y) = 0.24911 0.35414
# Poissons Ratio (z) = 0.29958 0.29053
#
# Static dielectric constant tensor:
#      x y z
#    x 3.158310 0.000000 0.000000 
#    y 0.000000 2.864380 0.000000 
#    z 0.000000 0.000000 3.507270 
# 
# 
# High freq. dielectric constant tensor:
#      x y z
#    x 1.637000 0.000000 0.000000 
#    y 0.000000 1.590700 0.000000 
#    z 0.000000 0.000000 1.627270 
# 
# From -- ./inp_files/68174.got.cif
#   From: 2010.03.12/outbox.cif.g09.slc.cpg/sg65_35_cif.got.tgz:68174.got - 2010.04.10 20:52:16.
