data_PCOD8265247
_publ_section_title
;
Structure prediction by ZEFSAII (Michael W. Deem and Ramdas Pophale) SiO2 
 PCOD8265247
Probable space group: C M M M
;
_chemical_formula_sum "Si O2"
_cell_formula_units_Z 88
_cell_length_a 20.940297
_cell_length_b 32.351105
_cell_length_c 8.927134
_cell_angle_alpha 90.000000
_cell_angle_beta 90.000000
_cell_angle_gamma 90.000000
_cell_volume 6047.613252
_symmetry_space_group_name_H-M "C M M M"
_symmetry_group_IT_number 65
_symmetry_cell_setting 'orthorhombic'
loop_
_space_group_symop_operation_xyz
x,y,z
-x,-y,z
x,-y,-z
-x,y,-z
-x,-y,-z
x,y,-z
-x,y,z
x,-y,z
1/2+x,1/2+y,z
1/2-x,1/2-y,z
1/2+x,1/2-y,-z
1/2-x,1/2+y,-z
1/2-x,1/2-y,-z
1/2+x,1/2+y,-z
1/2-x,1/2+y,z
1/2+x,1/2-y,z
loop_
_atom_site_type_symbol
_atom_site_label
_atom_site_fract_x
_atom_site_fract_y
_atom_site_fract_z
Si Si1 0.845758 0.247615 0.177743
Si Si2 0.427271 0.314777 0.674131
Si Si3 0.679714 0.620440 0.672130
Si Si4 0.264269 0.806695 0.324963
Si Si5 0.628401 0.546740 0.824018
Si Si6 0.000000 0.048894 0.666165
O O1 0.912039 0.227551 0.234627
O O2 0.790270 0.218315 0.239060
O O3 0.832079 0.293445 0.249528
O O4 0.845288 0.250866 0.000000
O O5 0.415979 0.304983 0.500000
O O6 0.500000 0.328070 0.707837
O O7 0.380365 0.351612 0.725630
O O8 0.670869 0.607825 0.500000
O O9 0.746758 0.644876 0.696559
O O10 0.683098 0.578306 0.768829
O O11 0.263839 0.795175 0.500000
O O12 0.644838 0.500000 0.771254
O O13 0.562754 0.563532 0.752862
O O14 0.621017 0.548322 0.000000
O O15 0.000000 0.068874 0.500000
O O16 0.000000 0.000000 0.656061
#
# Coordination Sequence:
#
# PCOD8265247 Si02
#       6
#    16  16  16  16  16   8
#     4  10  17  25  40  60  79  98 122 154 190 229
#     4   9  18  31  43  56  77 104 131 160 194 233
#     4   9  18  29  43  60  74  96 130 166 197 230
#     4   9  16  28  43  57  74  97 125 155 189 229
#     4  10  20  31  41  55  75  97 122 156 201 244
#     4   9  17  29  43  53  63  87 123 157 187 227
#
# _framework density 14.551195
#
# number of rings (size 3 to 8) (size 9 to 14) (size 15 to 20)
#    0.000    2.636    0.000    5.182    1.273    6.182 
#    0.000    0.000    0.000    0.000    0.000    0.000 
#    0.000    0.000    0.000    0.000    0.000    0.909 
#
# Total GULP energy -545228.609037 kJ/mol
# GULP energy per Si atom -12391.559296 kJ/mol
# Density = 1.451808 g / cm^3
# Si number density = 14.551195 Si / 1000 Ang^3
#
#
#
# Elastic Constant Matrix: (Units=GPa)
#
#
# Indices 1 2 3 4 5 6 
#
# 1 20.4886 25.4480 16.0041 0.0000 0.0000 0.0000
# 2 25.4480 82.2609 41.0122 0.0000 0.0000 0.0000
# 3 16.0041 41.0122 75.0099 0.0000 0.0000 0.0000
# 4 0.0000 0.0000 0.0000 21.2034 0.0000 0.0000
# 5 0.0000 0.0000 0.0000 0.0000 16.3139 0.0000
# 6 0.0000 0.0000 0.0000 0.0000 0.0000 21.5469
#
#
#
# Elastic Compliance Matrix: (Units=1/GPa)
#
#
# Indices 1 2 3 4 5 6 
#
# 1 0.080551 -0.022478 -0.004896 0.000000 0.000000 0.000000
# 2 -0.022478 0.022985 -0.007771 0.000000 0.000000 0.000000
# 3 -0.004896 -0.007771 0.018625 0.000000 0.000000 0.000000
# 4 0.000000 0.000000 0.000000 0.047162 0.000000 0.000000
# 5 0.000000 0.000000 0.000000 0.000000 0.061297 0.000000
# 6 0.000000 0.000000 0.000000 0.000000 0.000000 0.046410
#
#
# Mechanical properties :
#
#
# Convention : Reuss Voigt Hill
#
# Bulk Modulus (GPa) = 19.27896 38.07644 28.67770
# Shear Modulus (GPa) = 13.71322 18.16584 15.93953
#
# Velocity S-wave (km/s) = 3.07320 3.53712 3.31329
# Velocity P-wave (km/s) = 5.08631 6.55024 5.86414
#
# Compressibility (1/GPa) = 0.05187001
#
# Stress axis : x y z
#
# Youngs Moduli (GPa) = 12.41447 43.50754 53.69083
#
# Poissons Ratio (x) = 0.97796 0.26289
# Poissons Ratio (y) = 0.27905 0.41723
# Poissons Ratio (z) = 0.06079 0.33810
#
# Static dielectric constant tensor:
#      x y z
#    x 2.883070 0.000000 0.000000 
#    y 0.000000 3.060030 0.000000 
#    z 0.000000 0.000000 2.868730 
# 
# 
# High freq. dielectric constant tensor:
#      x y z
#    x 1.503640 0.000000 0.000000 
#    y 0.000000 1.541000 0.000000 
#    z 0.000000 0.000000 1.567540 
# 
# From -- ./inp_files/14958.got.cif
#   From: 2010.03.12/outbox.cif.g09.slc.cpg/sg65_8_cif.got.tgz:14958.got - 2010.04.10 20:52:16.
