data_PCOD8265379
_publ_section_title
;
Structure prediction by ZEFSAII (Michael W. Deem and Ramdas Pophale) SiO2 
 PCOD8265379
Probable space group: C M M M
;
_chemical_formula_sum "Si O2"
_cell_formula_units_Z 112
_cell_length_a 13.942851
_cell_length_b 27.950025
_cell_length_c 16.929606
_cell_angle_alpha 90.000000
_cell_angle_beta 90.000000
_cell_angle_gamma 90.000000
_cell_volume 6597.518823
_symmetry_space_group_name_H-M "C M M M"
_symmetry_group_IT_number 65
_symmetry_cell_setting 'orthorhombic'
loop_
_space_group_symop_operation_xyz
x,y,z
-x,-y,z
x,-y,-z
-x,y,-z
-x,-y,-z
x,y,-z
-x,y,z
x,-y,z
1/2+x,1/2+y,z
1/2-x,1/2-y,z
1/2+x,1/2-y,-z
1/2-x,1/2+y,-z
1/2-x,1/2-y,-z
1/2+x,1/2+y,-z
1/2-x,1/2+y,z
1/2+x,1/2-y,z
loop_
_atom_site_type_symbol
_atom_site_label
_atom_site_fract_x
_atom_site_fract_y
_atom_site_fract_z
Si Si1 0.109684 0.830688 0.090536
Si Si2 0.889540 0.235552 0.653598
Si Si3 0.222006 0.357590 0.192148
Si Si4 0.888356 0.553294 0.756212
Si Si5 0.608874 0.764818 0.172505
Si Si6 0.890688 0.586732 0.414985
Si Si7 0.279319 0.826675 0.630111
O O1 0.177556 0.863167 0.145940
O O2 0.126282 0.773835 0.103850
O O3 0.000000 0.843792 0.112169
O O4 0.132804 0.842461 0.000000
O O5 0.861195 0.237392 0.746615
O O6 0.824234 0.196131 0.608087
O O7 0.863729 0.287701 0.620774
O O8 0.000000 0.222864 0.638083
O O9 0.166579 0.408336 0.188854
O O10 0.166584 0.312925 0.152033
O O11 0.234872 0.346333 0.282752
O O12 0.859141 0.500000 0.784150
O O13 0.864362 0.555597 0.661939
O O14 0.000000 0.562904 0.769848
O O15 0.500000 0.781743 0.180641
O O16 0.882635 0.558855 0.500000
O O17 0.814593 0.630088 0.423916
O O18 0.000000 0.605892 0.404457
#
# Coordination Sequence:
#
# PCOD8265379 Si02
#       7
#    16  16  16  16  16  16  16
#     4  10  20  31  44  68 101 130 157 192 230 271
#     4   9  15  24  38  57  85 120 158 195 225 256
#     4  10  17  28  46  67  92 125 159 192 233 275
#     4   9  18  32  51  75  96 115 149 195 235 276
#     4   9  16  26  41  64  94 127 160 189 224 273
#     4   9  17  29  45  66  94 123 146 176 226 281
#     4   9  16  25  40  62  84 116 162 196 220 262
#
# _framework density 16.976078000000001
#
# number of rings (size 3 to 8) (size 9 to 14) (size 15 to 20)
#    0.000    2.714    1.429    1.286    0.000    4.857 
#    0.000    2.857    0.000    3.429    0.000    2.000 
#    0.000    0.000    0.000    6.286    0.000    0.286 
#
# Total GULP energy -693770.729234 kJ/mol
# GULP energy per Si atom -12388.763022 kJ/mol
# Density = 1.693744 g / cm^3
# Si number density = 16.976078 Si / 1000 Ang^3
#
#
#
# Elastic Constant Matrix: (Units=GPa)
#
#
# Indices 1 2 3 4 5 6 
#
# 1 91.9798 42.4820 27.9815 0.0000 0.0000 0.0000
# 2 42.4820 78.2352 23.1666 0.0000 0.0000 0.0000
# 3 27.9815 23.1666 34.6211 0.0000 0.0000 0.0000
# 4 0.0000 0.0000 0.0000 10.5023 0.0000 0.0000
# 5 0.0000 0.0000 0.0000 0.0000 15.6939 0.0000
# 6 0.0000 0.0000 0.0000 0.0000 0.0000 20.0923
#
#
#
# Elastic Compliance Matrix: (Units=1/GPa)
#
#
# Indices 1 2 3 4 5 6 
#
# 1 0.016565 -0.006274 -0.009191 0.000000 0.000000 0.000000
# 2 -0.006274 0.018316 -0.007186 0.000000 0.000000 0.000000
# 3 -0.009191 -0.007186 0.041120 0.000000 0.000000 0.000000
# 4 0.000000 0.000000 0.000000 0.095217 0.000000 0.000000
# 5 0.000000 0.000000 0.000000 0.000000 0.063719 0.000000
# 6 0.000000 0.000000 0.000000 0.000000 0.000000 0.049770
#
#
# Mechanical properties :
#
#
# Convention : Reuss Voigt Hill
#
# Bulk Modulus (GPa) = 32.57090 43.56624 38.06857
# Shear Modulus (GPa) = 14.69537 16.67143 15.68340
#
# Velocity S-wave (km/s) = 2.94539 3.13717 3.04279
# Velocity P-wave (km/s) = 5.54933 6.23230 5.90070
#
# Compressibility (1/GPa) = 0.03070226
#
# Stress axis : x y z
#
# Youngs Moduli (GPa) = 60.36686 54.59584 24.31878
#
# Poissons Ratio (x) = 0.34251 0.22350
# Poissons Ratio (y) = 0.37872 0.17475
# Poissons Ratio (z) = 0.55480 0.39232
#
# Static dielectric constant tensor:
#      x y z
#    x 3.264570 0.000000 0.000000 
#    y 0.000000 3.028470 0.000000 
#    z 0.000000 0.000000 3.009310 
# 
# 
# High freq. dielectric constant tensor:
#      x y z
#    x 1.652580 0.000000 0.000000 
#    y 0.000000 1.620810 0.000000 
#    z 0.000000 0.000000 1.632560 
# 
# From -- ./inp_files/41324.got.cif
#   From: 2010.03.12/outbox.cif.g09.slc.cpg/sg65_21_cif.got.tgz:41324.got - 2010.04.10 20:52:16.
