data_PCOD8265213
_publ_section_title
;
Structure prediction by ZEFSAII (Michael W. Deem and Ramdas Pophale) SiO2 
 PCOD8265213
Probable space group: C M M M
;
_chemical_formula_sum "Si O2"
_cell_formula_units_Z 80
_cell_length_a 29.162275
_cell_length_b 23.022081
_cell_length_c 8.906771
_cell_angle_alpha 90.000000
_cell_angle_beta 90.000000
_cell_angle_gamma 90.000000
_cell_volume 5979.794578
_symmetry_space_group_name_H-M "C M M M"
_symmetry_group_IT_number 65
_symmetry_cell_setting 'orthorhombic'
loop_
_space_group_symop_operation_xyz
x,y,z
-x,-y,z
x,-y,-z
-x,y,-z
-x,-y,-z
x,y,-z
-x,y,z
x,-y,z
1/2+x,1/2+y,z
1/2-x,1/2-y,z
1/2+x,1/2-y,-z
1/2-x,1/2+y,-z
1/2-x,1/2-y,-z
1/2+x,1/2+y,-z
1/2-x,1/2+y,z
1/2+x,1/2-y,z
loop_
_atom_site_type_symbol
_atom_site_label
_atom_site_fract_x
_atom_site_fract_y
_atom_site_fract_z
Si Si1 0.187496 0.734923 0.674981
Si Si2 0.631936 0.872197 0.327772
Si Si3 0.948774 0.564918 0.177327
Si Si4 0.270986 0.666795 0.821923
Si Si5 0.774963 0.433013 0.676360
O O1 0.200437 0.739723 0.500000
O O2 0.141171 0.697024 0.694774
O O3 0.226617 0.700463 0.763382
O O4 0.184711 0.799471 0.749534
O O5 0.622850 0.887456 0.500000
O O6 0.586605 0.887937 0.237715
O O7 0.675372 0.909766 0.270002
O O8 0.935875 0.500000 0.234129
O O9 0.000000 0.580995 0.233385
O O10 0.947130 0.566516 0.000000
O O11 0.266104 0.600757 0.762583
O O12 0.274876 0.667655 0.000000
O O13 0.769025 0.421795 0.500000
O O14 0.770613 0.500000 0.720170
#
# Coordination Sequence:
#
# PCOD8265213 Si02
#       5
#    16  16  16  16  16
#     4   9  16  27  39  50  68  92 116 143 179 219
#     4   9  17  27  40  56  69  86 118 156 185 212
#     4   9  18  30  40  51  70  95 119 145 183 227
#     4  10  17  24  36  54  72  89 115 148 179 210
#     4   9  17  28  39  51  71  98 123 147 180 219
#
# _framework density 13.378387
#
# number of rings (size 3 to 8) (size 9 to 14) (size 15 to 20)
#    0.000    2.800    0.000    6.000    0.000    6.000 
#    0.000    1.000    0.000    0.000    0.000    0.000 
#    0.000    0.000    0.000    0.000    0.000    1.000 
#
# Total GULP energy -495624.351307 kJ/mol
# GULP energy per Si atom -12390.608783 kJ/mol
# Density = 1.334794 g / cm^3
# Si number density = 13.378387 Si / 1000 Ang^3
#
#
#
# Elastic Constant Matrix: (Units=GPa)
#
#
# Indices 1 2 3 4 5 6 
#
# 1 56.5529 48.7518 29.8244 0.0000 0.0000 0.0000
# 2 48.7518 93.1948 40.1293 0.0000 0.0000 0.0000
# 3 29.8244 40.1293 56.8507 0.0000 0.0000 0.0000
# 4 0.0000 0.0000 0.0000 20.6909 0.0000 0.0000
# 5 0.0000 0.0000 0.0000 0.0000 17.5432 0.0000
# 6 0.0000 0.0000 0.0000 0.0000 0.0000 21.1182
#
#
#
# Elastic Compliance Matrix: (Units=1/GPa)
#
#
# Indices 1 2 3 4 5 6 
#
# 1 0.034389 -0.014685 -0.007676 0.000000 0.000000 0.000000
# 2 -0.014685 0.021686 -0.007604 0.000000 0.000000 0.000000
# 3 -0.007676 -0.007604 0.026984 0.000000 0.000000 0.000000
# 4 0.000000 0.000000 0.000000 0.048330 0.000000 0.000000
# 5 0.000000 0.000000 0.000000 0.000000 0.057002 0.000000
# 6 0.000000 0.000000 0.000000 0.000000 0.000000 0.047352
#
#
# Mechanical properties :
#
#
# Convention : Reuss Voigt Hill
#
# Bulk Modulus (GPa) = 43.23138 49.33438 46.28288
# Shear Modulus (GPa) = 16.48080 17.73000 17.10540
#
# Velocity S-wave (km/s) = 3.51365 3.64438 3.57961
# Velocity P-wave (km/s) = 6.98895 7.39357 7.19411
#
# Compressibility (1/GPa) = 0.02313134
#
# Stress axis : x y z
#
# Youngs Moduli (GPa) = 29.07878 46.11221 37.05892
#
# Poissons Ratio (x) = 0.67714 0.28445
# Poissons Ratio (y) = 0.42701 0.28180
# Poissons Ratio (z) = 0.22319 0.35064
#
# Static dielectric constant tensor:
#      x y z
#    x 2.532560 0.000000 0.000000 
#    y 0.000000 3.148390 0.000000 
#    z 0.000000 0.000000 2.641740 
# 
# 
# High freq. dielectric constant tensor:
#      x y z
#    x 1.458790 0.000000 0.000000 
#    y 0.000000 1.503630 0.000000 
#    z 0.000000 0.000000 1.516440 
# 
# From -- ./inp_files/12528.got.cif
#   From: 2010.03.12/outbox.cif.g09.slc.cpg/sg65_7_cif.got.tgz:12528.got - 2010.04.10 20:52:16.
