data_PCOD8265709
_publ_section_title
;
Structure prediction by ZEFSAII (Michael W. Deem and Ramdas Pophale) SiO2 
 PCOD8265709
Probable space group: C M M M
;
_chemical_formula_sum "Si O2"
_cell_formula_units_Z 88
_cell_length_a 30.038965
_cell_length_b 17.719624
_cell_length_c 11.890086
_cell_angle_alpha 90.000000
_cell_angle_beta 90.000000
_cell_angle_gamma 90.000000
_cell_volume 6328.845050
_symmetry_space_group_name_H-M "C M M M"
_symmetry_group_IT_number 65
_symmetry_cell_setting 'orthorhombic'
loop_
_space_group_symop_operation_xyz
x,y,z
-x,-y,z
x,-y,-z
-x,y,-z
-x,-y,-z
x,y,-z
-x,y,z
x,-y,z
1/2+x,1/2+y,z
1/2-x,1/2-y,z
1/2+x,1/2-y,-z
1/2-x,1/2+y,-z
1/2-x,1/2-y,-z
1/2+x,1/2+y,-z
1/2-x,1/2+y,z
1/2+x,1/2-y,z
loop_
_atom_site_type_symbol
_atom_site_label
_atom_site_fract_x
_atom_site_fract_y
_atom_site_fract_z
Si Si1 0.092751 0.085983 0.218383
Si Si2 0.248048 0.411984 0.370643
Si Si3 0.698029 0.743724 0.000000
Si Si4 0.847392 0.915340 0.000000
Si Si5 0.660084 0.665222 0.630911
Si Si6 0.500000 0.590031 0.126483
Si Si7 0.702712 0.209452 0.238289
O O1 0.114682 0.133493 0.317666
O O2 0.043633 0.118712 0.192742
O O3 0.089475 0.000000 0.259068
O O4 0.121961 0.093464 0.107487
O O5 0.238692 0.387901 0.500000
O O6 0.242703 0.500000 0.352421
O O7 0.298439 0.389196 0.338044
O O8 0.211639 0.374004 0.287645
O O9 0.750000 0.750000 0.000000
O O10 0.680955 0.787089 0.112637
O O11 0.687495 0.653747 0.000000
O O12 0.824785 0.000000 0.000000
O O13 0.652277 0.671634 0.500000
O O14 0.668977 0.748541 0.678455
O O15 0.500000 0.500000 0.118395
O O16 0.500000 0.623415 0.000000
O O17 0.750000 0.250000 0.238608
#
# Coordination Sequence:
#
# PCOD8265709 Si02
#       7
#    16  16   8   8  16   8  16
#     4  10  18  28  43  62  80 102 137 178 211 244
#     4   9  17  29  43  58  78 108 146 180 203 235
#     4  10  18  30  39  59  86 108 130 172 214 250
#     4  10  18  29  46  62  77 107 151 183 204 235
#     4  10  18  28  42  59  80 107 141 175 207 244
#     4   9  16  28  43  59  79 101 131 171 214 250
#     4   9  17  28  41  57  79 106 136 171 211 246
#
# _framework density 13.904591
#
# number of rings (size 3 to 8) (size 9 to 14) (size 15 to 20)
#    0.000    2.455    2.727    1.091    0.000    3.273 
#    0.000    0.909    0.000    1.636    0.000    0.000 
#    0.000    0.000    0.000    0.818    0.000   10.545 
#
# Total GULP energy -545342.089913 kJ/mol
# GULP energy per Si atom -12394.138407 kJ/mol
# Density = 1.387294 g / cm^3
# Si number density = 13.904591 Si / 1000 Ang^3
#
#
#
# Elastic Constant Matrix: (Units=GPa)
#
#
# Indices 1 2 3 4 5 6 
#
# 1 73.3447 40.1642 44.3362 0.0000 0.0000 0.0000
# 2 40.1642 64.8258 40.6333 0.0000 0.0000 0.0000
# 3 44.3362 40.6333 103.0353 0.0000 0.0000 0.0000
# 4 0.0000 0.0000 0.0000 33.6206 0.0000 0.0000
# 5 0.0000 0.0000 0.0000 0.0000 29.4613 0.0000
# 6 0.0000 0.0000 0.0000 0.0000 0.0000 15.7013
#
#
#
# Elastic Compliance Matrix: (Units=1/GPa)
#
#
# Indices 1 2 3 4 5 6 
#
# 1 0.022869 -0.010628 -0.005649 0.000000 0.000000 0.000000
# 2 -0.010628 0.025430 -0.005456 0.000000 0.000000 0.000000
# 3 -0.005649 -0.005456 0.014288 0.000000 0.000000 0.000000
# 4 0.000000 0.000000 0.000000 0.029744 0.000000 0.000000
# 5 0.000000 0.000000 0.000000 0.000000 0.033943 0.000000
# 6 0.000000 0.000000 0.000000 0.000000 0.000000 0.063689
#
#
# Mechanical properties :
#
#
# Convention : Reuss Voigt Hill
#
# Bulk Modulus (GPa) = 52.29709 54.60812 53.45261
# Shear Modulus (GPa) = 20.85049 23.49479 22.17264
#
# Velocity S-wave (km/s) = 3.87659 4.11507 3.99761
# Velocity P-wave (km/s) = 7.59805 7.87002 7.73523
#
# Compressibility (1/GPa) = 0.01912152
#
# Stress axis : x y z
#
# Youngs Moduli (GPa) = 43.72685 39.32312 69.98981
#
# Poissons Ratio (x) = 0.41793 0.39540
# Poissons Ratio (y) = 0.46473 0.38183
# Poissons Ratio (z) = 0.24703 0.21453
#
# Static dielectric constant tensor:
#      x y z
#    x 2.615920 0.000000 0.000000 
#    y 0.000000 2.648130 0.000000 
#    z 0.000000 0.000000 3.234290 
# 
# 
# High freq. dielectric constant tensor:
#      x y z
#    x 1.493500 0.000000 0.000000 
#    y 0.000000 1.502250 0.000000 
#    z 0.000000 0.000000 1.546140 
# 
# From -- ./inp_files/34077.got.cif
#   From: 2010.03.12/outbox.cif.g09.slc.cpg/sg65_18_cif.got.tgz:34077.got - 2010.04.10 20:52:16.
