data_PCOD8265640
_publ_section_title
;
Structure prediction by ZEFSAII (Michael W. Deem and Ramdas Pophale) SiO2 
 PCOD8265640
Probable space group: C M M M
;
_chemical_formula_sum "Si O2"
_cell_formula_units_Z 96
_cell_length_a 8.710753
_cell_length_b 27.601387
_cell_length_c 24.572216
_cell_angle_alpha 90.000000
_cell_angle_beta 90.000000
_cell_angle_gamma 90.000000
_cell_volume 5907.869994
_symmetry_space_group_name_H-M "C M M M"
_symmetry_group_IT_number 65
_symmetry_cell_setting 'orthorhombic'
loop_
_space_group_symop_operation_xyz
x,y,z
-x,-y,z
x,-y,-z
-x,y,-z
-x,-y,-z
x,y,-z
-x,y,z
x,-y,z
1/2+x,1/2+y,z
1/2-x,1/2-y,z
1/2+x,1/2-y,-z
1/2-x,1/2+y,-z
1/2-x,1/2-y,-z
1/2+x,1/2+y,-z
1/2-x,1/2+y,z
1/2+x,1/2-y,z
loop_
_atom_site_type_symbol
_atom_site_label
_atom_site_fract_x
_atom_site_fract_y
_atom_site_fract_z
Si Si1 0.818259 0.303524 0.175591
Si Si2 0.678435 0.613857 0.561563
Si Si3 0.180774 0.300685 0.622620
Si Si4 0.179911 0.302421 0.942630
Si Si5 0.817691 0.853122 0.276654
Si Si6 0.819094 0.053066 0.337405
O O1 0.750000 0.250000 0.184568
O O2 0.772274 0.325595 0.115571
O O3 0.747450 0.341637 0.217406
O O4 0.000000 0.300260 0.183921
O O5 0.713297 0.597465 0.500000
O O6 0.500000 0.627340 0.570036
O O7 0.777942 0.660841 0.575971
O O8 0.725591 0.570029 0.601589
O O9 0.250000 0.250000 0.603192
O O10 0.254203 0.314478 0.680488
O O11 0.000000 0.296758 0.629695
O O12 0.250000 0.250000 0.944696
O O13 0.000000 0.295654 0.941755
O O14 0.227828 0.329987 0.000000
O O15 0.760711 0.907133 0.293756
O O16 0.000000 0.849623 0.276473
O O17 0.000000 0.048586 0.332391
O O18 0.744224 0.000000 0.326394
#
# Coordination Sequence:
#
# PCOD8265640 Si02
#       6
#    16  16  16  16  16  16
#     4  10  18  27  41  62  89 120 152 182 213 250
#     4   9  18  32  49  70  93 113 137 170 207 252
#     4  11  21  33  48  64  86 116 148 179 212 249
#     4   8  14  24  37  54  79 113 150 183 212 243
#     4  10  19  31  46  65  89 113 142 179 216 257
#     4   8  15  29  49  70  88 108 136 172 214 257
#
# _framework density 16.249511999999999
#
# number of rings (size 3 to 8) (size 9 to 14) (size 15 to 20)
#    0.000    2.667    0.000    4.000    0.000    1.667 
#    0.000    1.667    0.000   12.500    0.000    4.667 
#    0.000    0.667    0.000    8.333    0.000    0.000 
#
# Total GULP energy -594667.011829 kJ/mol
# GULP energy per Si atom -12388.896080 kJ/mol
# Density = 1.621253 g / cm^3
# Si number density = 16.249512 Si / 1000 Ang^3
#
#
#
# Elastic Constant Matrix: (Units=GPa)
#
#
# Indices 1 2 3 4 5 6 
#
# 1 59.4134 24.2417 33.4041 0.0000 0.0000 0.0000
# 2 24.2417 95.9396 51.3417 0.0000 0.0000 0.0000
# 3 33.4041 51.3417 149.5390 0.0000 0.0000 0.0000
# 4 0.0000 0.0000 0.0000 14.7697 0.0000 0.0000
# 5 0.0000 0.0000 0.0000 0.0000 19.3272 0.0000
# 6 0.0000 0.0000 0.0000 0.0000 0.0000 13.7195
#
#
#
# Elastic Compliance Matrix: (Units=1/GPa)
#
#
# Indices 1 2 3 4 5 6 
#
# 1 0.020053 -0.003271 -0.003356 0.000000 0.000000 0.000000
# 2 -0.003271 0.013303 -0.003837 0.000000 0.000000 0.000000
# 3 -0.003356 -0.003837 0.008754 0.000000 0.000000 0.000000
# 4 0.000000 0.000000 0.000000 0.067706 0.000000 0.000000
# 5 0.000000 0.000000 0.000000 0.000000 0.051741 0.000000
# 6 0.000000 0.000000 0.000000 0.000000 0.000000 0.072889
#
#
# Mechanical properties :
#
#
# Convention : Reuss Voigt Hill
#
# Bulk Modulus (GPa) = 47.20942 58.09634 52.65288
# Shear Modulus (GPa) = 19.05240 22.62357 20.83799
#
# Velocity S-wave (km/s) = 3.42788 3.73535 3.58491
# Velocity P-wave (km/s) = 6.69201 7.37795 7.04333
#
# Compressibility (1/GPa) = 0.02118221
#
# Stress axis : x y z
#
# Youngs Moduli (GPa) = 49.86825 75.17185 114.23008
#
# Poissons Ratio (x) = 0.24586 0.38341
# Poissons Ratio (y) = 0.16310 0.43827
# Poissons Ratio (z) = 0.16738 0.28841
#
# Static dielectric constant tensor:
#      x y z
#    x 2.973240 0.000000 0.000000 
#    y 0.000000 3.009600 0.000000 
#    z 0.000000 0.000000 3.601220 
# 
# 
# High freq. dielectric constant tensor:
#      x y z
#    x 1.620470 0.000000 0.000000 
#    y 0.000000 1.585420 0.000000 
#    z 0.000000 0.000000 1.634420 
# 
# From -- ./inp_files/67854.got.cif
#   From: 2010.03.12/outbox.cif.g09.slc.cpg/sg65_34_cif.got.tgz:67854.got - 2010.04.10 20:52:16.
