data_PCOD8265764
_publ_section_title
;
Structure prediction by ZEFSAII (Michael W. Deem and Ramdas Pophale) SiO2 
 PCOD8265764
Probable space group: C M M M
;
_chemical_formula_sum "Si O2"
_cell_formula_units_Z 80
_cell_length_a 25.642136
_cell_length_b 9.551377
_cell_length_c 21.899371
_cell_angle_alpha 90.000000
_cell_angle_beta 90.000000
_cell_angle_gamma 90.000000
_cell_volume 5363.543752
_symmetry_space_group_name_H-M "C M M M"
_symmetry_group_IT_number 65
_symmetry_cell_setting 'orthorhombic'
loop_
_space_group_symop_operation_xyz
x,y,z
-x,-y,z
x,-y,-z
-x,y,-z
-x,-y,-z
x,y,-z
-x,y,z
x,-y,z
1/2+x,1/2+y,z
1/2-x,1/2-y,z
1/2+x,1/2-y,-z
1/2-x,1/2+y,-z
1/2-x,1/2-y,-z
1/2+x,1/2+y,-z
1/2-x,1/2+y,z
1/2+x,1/2-y,z
loop_
_atom_site_type_symbol
_atom_site_label
_atom_site_fract_x
_atom_site_fract_y
_atom_site_fract_z
Si Si1 0.437701 0.657378 0.500000
Si Si2 0.500000 0.666112 0.931942
Si Si3 0.439840 0.836111 0.253437
Si Si4 0.098574 0.835008 0.854918
Si Si5 0.299592 0.662059 0.070139
Si Si6 0.438025 0.155193 0.609691
O O1 0.415708 0.500000 0.500000
O O2 0.500000 0.657680 0.500000
O O3 0.415901 0.735366 0.439741
O O4 0.500000 0.500000 0.936164
O O5 0.448785 0.719001 0.896936
O O6 0.500000 0.730672 0.000000
O O7 0.500000 0.791791 0.244184
O O8 0.403357 0.745899 0.209112
O O9 0.421074 0.800046 0.322173
O O10 0.432698 0.000000 0.239886
O O11 0.151769 0.794101 0.888504
O O12 0.094479 0.000000 0.842447
O O13 0.285732 0.500000 0.078390
O O14 0.250000 0.750000 0.092359
O O15 0.313858 0.696044 0.000000
O O16 0.500000 0.150355 0.606896
O O17 0.416385 0.000000 0.594260
#
# Coordination Sequence:
#
# PCOD8265764 Si02
#       6
#     8   8  16  16  16  16
#     4   9  15  21  31  51  73  95 130 177 214 233
#     4   9  16  26  41  61  83 106 133 166 205 249
#     4   9  17  28  40  56  81 112 142 171 205 249
#     4  10  18  28  44  64  83 107 139 173 210 253
#     4   9  18  32  48  65  83 105 137 175 214 258
#     4   8  14  24  36  48  68 103 140 168 198 240
#
# _framework density 14.915512
#
# number of rings (size 3 to 8) (size 9 to 14) (size 15 to 20)
#    0.000    3.000    1.000    2.100    0.000    5.200 
#    0.000    2.000    0.000    2.400    0.000    0.000 
#    0.000    0.000    0.000    0.900    0.000   11.900 
#
# Total GULP energy -495908.026306 kJ/mol
# GULP energy per Si atom -12397.700658 kJ/mol
# Density = 1.488156 g / cm^3
# Si number density = 14.915512 Si / 1000 Ang^3
#
#
#
# Elastic Constant Matrix: (Units=GPa)
#
#
# Indices 1 2 3 4 5 6 
#
# 1 73.1071 38.9406 48.1759 0.0000 0.0000 0.0000
# 2 38.9406 71.0564 66.1903 0.0000 0.0000 0.0000
# 3 48.1759 66.1903 129.2850 0.0000 0.0000 0.0000
# 4 0.0000 0.0000 0.0000 28.8899 0.0000 0.0000
# 5 0.0000 0.0000 0.0000 0.0000 12.0013 0.0000
# 6 0.0000 0.0000 0.0000 0.0000 0.0000 17.5530
#
#
#
# Elastic Compliance Matrix: (Units=1/GPa)
#
#
# Indices 1 2 3 4 5 6 
#
# 1 0.020132 -0.007732 -0.003543 0.000000 0.000000 0.000000
# 2 -0.007732 0.029874 -0.012413 0.000000 0.000000 0.000000
# 3 -0.003543 -0.012413 0.015410 0.000000 0.000000 0.000000
# 4 0.000000 0.000000 0.000000 0.034614 0.000000 0.000000
# 5 0.000000 0.000000 0.000000 0.000000 0.083325 0.000000
# 6 0.000000 0.000000 0.000000 0.000000 0.000000 0.056970
#
#
# Mechanical properties :
#
#
# Convention : Reuss Voigt Hill
#
# Bulk Modulus (GPa) = 55.43576 64.45132 59.94354
# Shear Modulus (GPa) = 17.02322 19.69827 18.36075
#
# Velocity S-wave (km/s) = 3.38199 3.63803 3.51234
# Velocity P-wave (km/s) = 7.24553 7.80716 7.53158
#
# Compressibility (1/GPa) = 0.01803890
#
# Stress axis : x y z
#
# Youngs Moduli (GPa) = 49.67206 33.47379 64.89106
#
# Poissons Ratio (x) = 0.25883 0.22992
# Poissons Ratio (y) = 0.38408 0.80552
# Poissons Ratio (z) = 0.17599 0.41552
#
# Static dielectric constant tensor:
#      x y z
#    x 2.499920 0.000000 0.000000 
#    y 0.000000 2.860720 0.000000 
#    z 0.000000 0.000000 3.031380 
# 
# 
# High freq. dielectric constant tensor:
#      x y z
#    x 1.515510 0.000000 0.000000 
#    y 0.000000 1.565720 0.000000 
#    z 0.000000 0.000000 1.577980 
# 
# From -- ./inp_files/65055.got.cif
#   From: 2010.03.12/outbox.cif.g09.slc.cpg/sg65_33_cif.got.tgz:65055.got - 2010.04.10 20:52:16.
