data_PCOD8265420
_publ_section_title
;
Structure prediction by ZEFSAII (Michael W. Deem and Ramdas Pophale) SiO2 
 PCOD8265420
Probable space group: C M M M
;
_chemical_formula_sum "Si O2"
_cell_formula_units_Z 96
_cell_length_a 27.904167
_cell_length_b 14.368944
_cell_length_c 14.223020
_cell_angle_alpha 90.000000
_cell_angle_beta 90.000000
_cell_angle_gamma 90.000000
_cell_volume 5702.768412
_symmetry_space_group_name_H-M "C M M M"
_symmetry_group_IT_number 65
_symmetry_cell_setting 'orthorhombic'
loop_
_space_group_symop_operation_xyz
x,y,z
-x,-y,z
x,-y,-z
-x,y,-z
-x,-y,-z
x,y,-z
-x,y,z
x,-y,z
1/2+x,1/2+y,z
1/2-x,1/2-y,z
1/2+x,1/2-y,-z
1/2-x,1/2+y,-z
1/2-x,1/2-y,-z
1/2+x,1/2+y,-z
1/2-x,1/2+y,z
1/2+x,1/2-y,z
loop_
_atom_site_type_symbol
_atom_site_label
_atom_site_fract_x
_atom_site_fract_y
_atom_site_fract_z
Si Si1 0.151129 0.102902 0.105442
Si Si2 0.241818 0.355929 0.105990
Si Si3 0.184176 0.603449 0.282036
Si Si4 0.445229 0.394872 0.610314
Si Si5 0.364518 0.709382 0.286368
Si Si6 0.720784 0.391189 0.607580
O O1 0.208161 0.091271 0.116193
O O2 0.129830 0.177169 0.178252
O O3 0.129147 0.000000 0.123501
O O4 0.138494 0.137912 0.000000
O O5 0.250000 0.250000 0.136333
O O6 0.203216 0.400534 0.175321
O O7 0.221442 0.363394 0.000000
O O8 0.164641 0.500000 0.307594
O O9 0.141678 0.678888 0.291792
O O10 0.226856 0.632749 0.352498
O O11 0.437971 0.383135 0.500000
O O12 0.500000 0.375832 0.639004
O O13 0.430405 0.500000 0.639954
O O14 0.412770 0.318377 0.660547
O O15 0.318605 0.660770 0.331427
O O16 0.718250 0.357254 0.500000
O O17 0.709794 0.500000 0.615883
#
# Coordination Sequence:
#
# PCOD8265420 Si02
#       6
#    16  16  16  16  16  16
#     4  10  19  29  44  69  99 129 162 200 241 287
#     4  10  17  29  46  64  93 135 176 211 243 275
#     4  11  22  33  43  64  99 136 172 205 234 273
#     4   9  19  36  58  83 103 117 145 196 253 305
#     4  12  20  31  51  72  94 129 166 199 240 291
#     4  10  20  32  46  67  95 126 159 195 237 289
#
# _framework density 16.833929999999999
#
# number of rings (size 3 to 8) (size 9 to 14) (size 15 to 20)
#    0.000    1.667    3.333    3.500    0.000    4.333 
#    0.000    0.000    0.000    1.000    0.000    3.500 
#    0.000    0.000    0.000    3.000    0.000    0.167 
#
# Total GULP energy -595188.451101 kJ/mol
# GULP energy per Si atom -12399.759398 kJ/mol
# Density = 1.679561 g / cm^3
# Si number density = 16.833930 Si / 1000 Ang^3
#
#
#
# Elastic Constant Matrix: (Units=GPa)
#
#
# Indices 1 2 3 4 5 6 
#
# 1 60.6699 48.8084 26.2285 0.0000 0.0000 0.0000
# 2 48.8084 90.1453 36.3684 0.0000 0.0000 0.0000
# 3 26.2285 36.3684 85.5076 0.0000 0.0000 0.0000
# 4 0.0000 0.0000 0.0000 19.0643 0.0000 0.0000
# 5 0.0000 0.0000 0.0000 0.0000 17.9078 0.0000
# 6 0.0000 0.0000 0.0000 0.0000 0.0000 19.0041
#
#
#
# Elastic Compliance Matrix: (Units=1/GPa)
#
#
# Indices 1 2 3 4 5 6 
#
# 1 0.029727 -0.014988 -0.002743 0.000000 0.000000 0.000000
# 2 -0.014988 0.020948 -0.004312 0.000000 0.000000 0.000000
# 3 -0.002743 -0.004312 0.014370 0.000000 0.000000 0.000000
# 4 0.000000 0.000000 0.000000 0.052454 0.000000 0.000000
# 5 0.000000 0.000000 0.000000 0.000000 0.055842 0.000000
# 6 0.000000 0.000000 0.000000 0.000000 0.000000 0.052620
#
#
# Mechanical properties :
#
#
# Convention : Reuss Voigt Hill
#
# Bulk Modulus (GPa) = 47.71613 51.01482 49.36548
# Shear Modulus (GPa) = 18.04823 19.52308 18.78566
#
# Velocity S-wave (km/s) = 3.27790 3.40920 3.34419
# Velocity P-wave (km/s) = 6.53704 6.77255 6.65584
#
# Compressibility (1/GPa) = 0.02095727
#
# Stress axis : x y z
#
# Youngs Moduli (GPa) = 33.63974 47.73653 69.58709
#
# Poissons Ratio (x) = 0.71550 0.19090
# Poissons Ratio (y) = 0.50421 0.30008
# Poissons Ratio (z) = 0.09229 0.20585
#
# Static dielectric constant tensor:
#      x y z
#    x 2.711070 0.000000 0.000000 
#    y 0.000000 5.880360 0.000000 
#    z 0.000000 0.000000 3.358160 
# 
# 
# High freq. dielectric constant tensor:
#      x y z
#    x 1.583730 0.000000 0.000000 
#    y 0.000000 1.650060 0.000000 
#    z 0.000000 0.000000 1.664260 
# 
# From -- ./inp_files/47869.got.cif
#   From: 2010.03.12/outbox.cif.g09.slc.cpg/sg65_24_cif.got.tgz:47869.got - 2010.04.10 20:52:16.
