data_PCOD8265526
_publ_section_title
;
Structure prediction by ZEFSAII (Michael W. Deem and Ramdas Pophale) SiO2 
 PCOD8265526
Probable space group: C M M M
;
_chemical_formula_sum "Si O2"
_cell_formula_units_Z 84
_cell_length_a 23.587627
_cell_length_b 15.341176
_cell_length_c 11.670785
_cell_angle_alpha 90.000000
_cell_angle_beta 90.000000
_cell_angle_gamma 90.000000
_cell_volume 4223.212869
_symmetry_space_group_name_H-M "C M M M"
_symmetry_group_IT_number 65
_symmetry_cell_setting 'orthorhombic'
loop_
_space_group_symop_operation_xyz
x,y,z
-x,-y,z
x,-y,-z
-x,y,-z
-x,-y,-z
x,y,-z
-x,y,z
x,-y,z
1/2+x,1/2+y,z
1/2-x,1/2-y,z
1/2+x,1/2-y,-z
1/2-x,1/2+y,-z
1/2-x,1/2-y,-z
1/2+x,1/2+y,-z
1/2-x,1/2+y,z
1/2+x,1/2-y,z
loop_
_atom_site_type_symbol
_atom_site_label
_atom_site_fract_x
_atom_site_fract_y
_atom_site_fract_z
Si Si1 0.394335 0.904113 0.754797
Si Si2 0.000000 0.151745 0.248885
Si Si3 0.500000 0.836521 0.633392
Si Si4 0.316579 0.264199 0.751839
Si Si5 0.815411 0.762418 0.000000
Si Si6 0.888382 0.902774 0.630288
Si Si7 0.000000 0.793368 0.000000
Si Si8 0.910581 0.644152 0.000000
O O1 0.443925 0.891116 0.662290
O O2 0.347175 0.829427 0.739363
O O3 0.423039 0.906757 0.882326
O O4 0.367260 0.000000 0.732930
O O5 0.944088 0.104293 0.292886
O O6 0.000000 0.251443 0.287860
O O7 0.000000 0.145674 0.111486
O O8 0.500000 0.811342 0.500000
O O9 0.250000 0.250000 0.730730
O O10 0.330720 0.307160 0.877845
O O11 0.340258 0.332648 0.660984
O O12 0.750000 0.750000 0.000000
O O13 0.843690 0.666705 0.000000
O O14 0.906708 0.885009 0.500000
O O15 0.863073 0.000000 0.645231
O O16 0.056177 0.735107 0.000000
#
# Coordination Sequence:
#
# PCOD8265526 Si02
#       8
#    16   8   8  16   8  16   4   8
#     4  11  22  36  58  88 120 158 200 245 298 359
#     4  12  21  40  65  90 120 156 195 246 303 359
#     4  12  23  38  59  83 117 158 195 235 293 357
#     4  10  21  39  62  88 121 160 201 251 307 358
#     4   8  16  33  57  83 114 152 195 244 296 349
#     4  11  24  42  64  89 118 159 209 253 296 355
#     4  12  20  34  62  92 122 158 194 238 304 366
#     4  10  17  34  52  82 118 155 197 239 288 353
#
# _framework density 19.890070999999999
#
# number of rings (size 3 to 8) (size 9 to 14) (size 15 to 20)
#    0.000    1.333    3.810    2.857    0.000    2.667 
#    0.000    3.810    0.000    3.429    0.000    0.000 
#    0.000    0.000    0.000    0.000    0.000    0.000 
#
# Total GULP energy -520508.195093 kJ/mol
# GULP energy per Si atom -12393.052264 kJ/mol
# Density = 1.984480 g / cm^3
# Si number density = 19.890071 Si / 1000 Ang^3
#
#
#
# Elastic Constant Matrix: (Units=GPa)
#
#
# Indices 1 2 3 4 5 6 
#
# 1 120.2251 46.8101 39.7937 0.0000 0.0000 0.0000
# 2 46.8101 121.8402 50.1148 0.0000 0.0000 0.0000
# 3 39.7937 50.1148 132.3883 0.0000 0.0000 0.0000
# 4 0.0000 0.0000 0.0000 20.2465 0.0000 0.0000
# 5 0.0000 0.0000 0.0000 0.0000 5.1627 0.0000
# 6 0.0000 0.0000 0.0000 0.0000 0.0000 13.1522
#
#
#
# Elastic Compliance Matrix: (Units=1/GPa)
#
#
# Indices 1 2 3 4 5 6 
#
# 1 0.010156 -0.003134 -0.001866 0.000000 0.000000 0.000000
# 2 -0.003134 0.010688 -0.003104 0.000000 0.000000 0.000000
# 3 -0.001866 -0.003104 0.009289 0.000000 0.000000 0.000000
# 4 0.000000 0.000000 0.000000 0.049391 0.000000 0.000000
# 5 0.000000 0.000000 0.000000 0.000000 0.193699 0.000000
# 6 0.000000 0.000000 0.000000 0.000000 0.000000 0.076033
#
#
# Mechanical properties :
#
#
# Convention : Reuss Voigt Hill
#
# Bulk Modulus (GPa) = 71.81382 71.98785 71.90084
# Shear Modulus (GPa) = 13.50963 23.56129 18.53546
#
# Velocity S-wave (km/s) = 2.60900 3.44550 3.05601
# Velocity P-wave (km/s) = 6.72753 7.21804 6.97709
#
# Compressibility (1/GPa) = 0.01392490
#
# Stress axis : x y z
#
# Youngs Moduli (GPa) = 98.46656 93.56043 107.64887
#
# Poissons Ratio (x) = 0.29323 0.20090
# Poissons Ratio (y) = 0.30861 0.33413
# Poissons Ratio (z) = 0.18376 0.29040
#
# Static dielectric constant tensor:
#      x y z
#    x 3.551190 0.000000 0.000000 
#    y 0.000000 3.476200 0.000000 
#    z 0.000000 0.000000 4.133620 
# 
# 
# High freq. dielectric constant tensor:
#      x y z
#    x 1.770930 0.000000 0.000000 
#    y 0.000000 1.754470 0.000000 
#    z 0.000000 0.000000 1.789100 
# 
# From -- ./inp_files/30620.got.cif
#   From: 2010.03.12/outbox.cif.g09.slc.cpg/sg65_16_cif.got.tgz:30620.got - 2010.04.10 20:52:16.
