data_PCOD8265239
_publ_section_title
;
Structure prediction by ZEFSAII (Michael W. Deem and Ramdas Pophale) SiO2 
 PCOD8265239
Probable space group: C M M M
;
_chemical_formula_sum "Si O2"
_cell_formula_units_Z 56
_cell_length_a 18.590642
_cell_length_b 8.653402
_cell_length_c 18.620572
_cell_angle_alpha 90.000000
_cell_angle_beta 90.000000
_cell_angle_gamma 90.000000
_cell_volume 2995.534220
_symmetry_space_group_name_H-M "C M M M"
_symmetry_group_IT_number 65
_symmetry_cell_setting 'orthorhombic'
loop_
_space_group_symop_operation_xyz
x,y,z
-x,-y,z
x,-y,-z
-x,y,-z
-x,-y,-z
x,y,-z
-x,y,z
x,-y,z
1/2+x,1/2+y,z
1/2-x,1/2-y,z
1/2+x,1/2-y,-z
1/2-x,1/2+y,-z
1/2-x,1/2-y,-z
1/2+x,1/2+y,-z
1/2-x,1/2+y,z
1/2+x,1/2-y,z
loop_
_atom_site_type_symbol
_atom_site_label
_atom_site_fract_x
_atom_site_fract_y
_atom_site_fract_z
Si Si1 0.919396 0.816400 0.500000
Si Si2 0.671176 0.680230 0.077821
Si Si3 0.329355 0.316558 0.635846
Si Si4 0.830016 0.317373 0.218716
O O1 0.878307 0.756544 0.570585
O O2 0.000000 0.748146 0.500000
O O3 0.921471 0.000000 0.500000
O O4 0.677116 0.500000 0.094986
O O5 0.750000 0.750000 0.071972
O O6 0.629802 0.762344 0.144950
O O7 0.632304 0.707952 0.000000
O O8 0.324832 0.500000 0.639099
O O9 0.250000 0.250000 0.624666
O O10 0.365918 0.252946 0.709413
O O11 0.829770 0.500000 0.224048
O O12 0.750000 0.250000 0.215173
#
# Coordination Sequence:
#
# PCOD8265239 Si02
#       4
#     8  16  16  16
#     4   9  19  34  51  71  92 117 150 188 230 273
#     4   9  15  22  33  51  78 112 148 183 221 264
#     4  10  18  30  49  69  92 119 151 190 227 270
#     4  10  17  25  38  57  84 115 150 186 221 265
#
# _framework density 18.694496000000001
#
# number of rings (size 3 to 8) (size 9 to 14) (size 15 to 20)
#    0.000    2.429    0.000    8.143    0.000    1.714 
#    0.000    2.143    0.000    6.857    0.000    0.000 
#    0.000    1.143    0.000   13.143    0.000   10.286 
#
# Total GULP energy -346886.074120 kJ/mol
# GULP energy per Si atom -12388.788361 kJ/mol
# Density = 1.865195 g / cm^3
# Si number density = 18.694496 Si / 1000 Ang^3
#
#
#
# Elastic Constant Matrix: (Units=GPa)
#
#
# Indices 1 2 3 4 5 6 
#
# 1 43.8234 17.4212 47.9304 0.0000 0.0000 0.0000
# 2 17.4212 117.8260 66.5883 0.0000 0.0000 0.0000
# 3 47.9304 66.5883 236.2229 0.0000 0.0000 0.0000
# 4 0.0000 0.0000 0.0000 28.0030 0.0000 0.0000
# 5 0.0000 0.0000 0.0000 0.0000 1.1915 0.0000
# 6 0.0000 0.0000 0.0000 0.0000 0.0000 7.9417
#
#
#
# Elastic Compliance Matrix: (Units=1/GPa)
#
#
# Indices 1 2 3 4 5 6 
#
# 1 0.029460 -0.001163 -0.005650 0.000000 0.000000 0.000000
# 2 -0.001163 0.010141 -0.002623 0.000000 0.000000 0.000000
# 3 -0.005650 -0.002623 0.006119 0.000000 0.000000 0.000000
# 4 0.000000 0.000000 0.000000 0.035710 0.000000 0.000000
# 5 0.000000 0.000000 0.000000 0.000000 0.839278 0.000000
# 6 0.000000 0.000000 0.000000 0.000000 0.000000 0.125917
#
#
# Mechanical properties :
#
#
# Convention : Reuss Voigt Hill
#
# Bulk Modulus (GPa) = 37.24436 73.52802 55.38619
# Shear Modulus (GPa) = 4.65356 25.15607 14.90482
#
# Velocity S-wave (km/s) = 1.57945 3.67228 2.82668
# Velocity P-wave (km/s) = 4.82619 7.57612 6.35176
#
# Compressibility (1/GPa) = 0.02684970
#
# Stress axis : x y z
#
# Youngs Moduli (GPa) = 33.94381 98.60717 163.42637
#
# Poissons Ratio (x) = 0.11468 0.92333
# Poissons Ratio (y) = 0.03948 0.42862
# Poissons Ratio (z) = 0.19178 0.25862
#
# Static dielectric constant tensor:
#      x y z
#    x 2.749420 0.000000 0.000000 
#    y 0.000000 3.459940 0.000000 
#    z 0.000000 0.000000 5.152320 
# 
# 
# High freq. dielectric constant tensor:
#      x y z
#    x 1.628450 0.000000 0.000000 
#    y 0.000000 1.731170 0.000000 
#    z 0.000000 0.000000 1.770810 
# 
# From -- ./inp_files/55215.got.cif
#   From: 2010.03.12/outbox.cif.g09.slc.cpg/sg65_28_cif.got.tgz:55215.got - 2010.04.10 20:52:16.
