data_PCOD8265930
_publ_section_title
;
Structure prediction by ZEFSAII (Michael W. Deem and Ramdas Pophale) SiO2 
 PCOD8265930
Probable space group: C M M M
;
_chemical_formula_sum "Si O2"
_cell_formula_units_Z 112
_cell_length_a 31.015835
_cell_length_b 32.517762
_cell_length_c 9.014572
_cell_angle_alpha 90.000000
_cell_angle_beta 90.000000
_cell_angle_gamma 90.000000
_cell_volume 9091.786684
_symmetry_space_group_name_H-M "C M M M"
_symmetry_group_IT_number 65
_symmetry_cell_setting 'orthorhombic'
loop_
_space_group_symop_operation_xyz
x,y,z
-x,-y,z
x,-y,-z
-x,y,-z
-x,-y,-z
x,y,-z
-x,y,z
x,-y,z
1/2+x,1/2+y,z
1/2-x,1/2-y,z
1/2+x,1/2-y,-z
1/2-x,1/2+y,-z
1/2-x,1/2-y,-z
1/2+x,1/2+y,-z
1/2-x,1/2+y,z
1/2+x,1/2-y,z
loop_
_atom_site_type_symbol
_atom_site_label
_atom_site_fract_x
_atom_site_fract_y
_atom_site_fract_z
Si Si1 0.579948 0.000000 0.822720
Si Si2 0.883136 0.363353 0.172608
Si Si3 0.177505 0.500000 0.175936
Si Si4 0.162086 0.706662 0.332304
Si Si5 0.950374 0.581355 0.330009
Si Si6 0.249963 0.656047 0.666499
Si Si7 0.295824 0.912315 0.828503
Si Si8 0.793951 0.775499 0.832648
O O1 0.555984 0.960170 0.761829
O O2 0.628910 0.000000 0.762189
O O3 0.577616 0.000000 0.000000
O O4 0.873289 0.318401 0.239073
O O5 0.923756 0.381565 0.258283
O O6 0.843000 0.393618 0.197931
O O7 0.894173 0.358716 0.000000
O O8 0.202952 0.459373 0.229514
O O9 0.173972 0.500000 0.000000
O O10 0.145620 0.713065 0.500000
O O11 0.206545 0.682131 0.330890
O O12 0.169211 0.751023 0.256882
O O13 0.935736 0.574535 0.500000
O O14 0.000000 0.594426 0.321476
O O15 0.266796 0.649622 0.500000
O O16 0.240933 0.611590 0.738062
O O17 0.286710 0.680082 0.757660
O O18 0.283003 0.909349 0.000000
O O19 0.750000 0.750000 0.830793
O O20 0.810054 0.782346 0.000000
#
# Coordination Sequence:
#
# PCOD8265930 Si02
#       8
#     8  16   8  16  16  16  16  16
#     4  11  20  34  49  60  68  82 108 140 174 216
#     4  10  18  29  44  57  69  86 111 136 162 202
#     4   9  16  28  42  55  68  84 108 140 174 208
#     4   9  16  25  37  53  73  91 106 128 159 191
#     4  11  23  35  44  56  73  89 106 135 177 219
#     4   9  16  24  34  50  70  89 109 131 158 191
#     4   9  16  27  40  52  67  86 108 136 168 202
#     4   9  15  23  35  51  69  90 113 131 151 182
#
# _framework density 12.318811
#
# number of rings (size 3 to 8) (size 9 to 14) (size 15 to 20)
#    0.000    2.429    1.429    2.571    0.000    7.714 
#    0.000    0.357    0.000    0.000    0.000    0.000 
#    0.000    0.000    0.000    0.000    0.000    0.000 
#
# Total GULP energy -694364.420039 kJ/mol
# GULP energy per Si atom -12399.364644 kJ/mol
# Density = 1.229077 g / cm^3
# Si number density = 12.318811 Si / 1000 Ang^3
#
#
#
# Elastic Constant Matrix: (Units=GPa)
#
#
# Indices 1 2 3 4 5 6 
#
# 1 29.5234 37.8080 28.1700 0.0000 0.0000 0.0000
# 2 37.8080 81.9792 47.1248 0.0000 0.0000 0.0000
# 3 28.1700 47.1248 96.8740 0.0000 0.0000 0.0000
# 4 0.0000 0.0000 0.0000 19.0011 0.0000 0.0000
# 5 0.0000 0.0000 0.0000 0.0000 14.9669 0.0000
# 6 0.0000 0.0000 0.0000 0.0000 0.0000 11.7561
#
#
#
# Elastic Compliance Matrix: (Units=1/GPa)
#
#
# Indices 1 2 3 4 5 6 
#
# 1 0.087010 -0.035515 -0.008025 0.000000 0.000000 0.000000
# 2 -0.035515 0.031430 -0.004962 0.000000 0.000000 0.000000
# 3 -0.008025 -0.004962 0.015070 0.000000 0.000000 0.000000
# 4 0.000000 0.000000 0.000000 0.052628 0.000000 0.000000
# 5 0.000000 0.000000 0.000000 0.000000 0.066814 0.000000
# 6 0.000000 0.000000 0.000000 0.000000 0.000000 0.085062
#
#
# Mechanical properties :
#
#
# Convention : Reuss Voigt Hill
#
# Bulk Modulus (GPa) = 27.39298 48.28690 37.83994
# Shear Modulus (GPa) = 11.18104 15.49642 13.33873
#
# Velocity S-wave (km/s) = 3.01597 3.55060 3.29415
# Velocity P-wave (km/s) = 5.86627 7.48945 6.72700
#
# Compressibility (1/GPa) = 0.03650570
#
# Stress axis : x y z
#
# Youngs Moduli (GPa) = 11.49298 31.81723 66.35732
#
# Poissons Ratio (x) = 1.12999 0.53253
# Poissons Ratio (y) = 0.40817 0.32924
# Poissons Ratio (z) = 0.09223 0.15787
#
# Static dielectric constant tensor:
#      x y z
#    x 2.179960 0.000000 0.000000 
#    y 0.000000 2.586010 0.000000 
#    z 0.000000 0.000000 2.686130 
# 
# 
# High freq. dielectric constant tensor:
#      x y z
#    x 1.407530 0.000000 0.000000 
#    y 0.000000 1.455380 0.000000 
#    z 0.000000 0.000000 1.483920 
# 
# From -- ./inp_files/19216.got.cif
#   From: 2010.03.12/outbox.cif.g09.slc.cpg/sg65_10_cif.got.tgz:19216.got - 2010.04.10 20:52:16.
