data_PCOD8265835
_publ_section_title
;
Structure prediction by ZEFSAII (Michael W. Deem and Ramdas Pophale) SiO2 
 PCOD8265835
Probable space group: C M M M
;
_chemical_formula_sum "Si O2"
_cell_formula_units_Z 80
_cell_length_a 16.775862
_cell_length_b 13.845601
_cell_length_c 19.023182
_cell_angle_alpha 90.000000
_cell_angle_beta 90.000000
_cell_angle_gamma 90.000000
_cell_volume 4418.550469
_symmetry_space_group_name_H-M "C M M M"
_symmetry_group_IT_number 65
_symmetry_cell_setting 'orthorhombic'
loop_
_space_group_symop_operation_xyz
x,y,z
-x,-y,z
x,-y,-z
-x,y,-z
-x,-y,-z
x,y,-z
-x,y,z
x,-y,z
1/2+x,1/2+y,z
1/2-x,1/2-y,z
1/2+x,1/2-y,-z
1/2-x,1/2+y,-z
1/2-x,1/2-y,-z
1/2+x,1/2+y,-z
1/2-x,1/2+y,z
1/2+x,1/2-y,z
loop_
_atom_site_type_symbol
_atom_site_label
_atom_site_fract_x
_atom_site_fract_y
_atom_site_fract_z
Si Si1 0.905180 0.392125 0.078805
Si Si2 0.910532 0.260454 0.798015
Si Si3 0.822711 0.110122 0.706304
Si Si4 0.863409 0.609506 0.320503
Si Si5 0.657108 0.266446 0.422976
O O1 0.873493 0.500000 0.099012
O O2 0.872898 0.309561 0.131804
O O3 0.000000 0.393533 0.083121
O O4 0.876758 0.365727 0.000000
O O5 0.855196 0.172559 0.771818
O O6 0.916949 0.345335 0.740442
O O7 0.000000 0.221137 0.811725
O O8 0.728009 0.121555 0.703903
O O9 0.860268 0.147556 0.632523
O O10 0.849370 0.000000 0.717050
O O11 0.888324 0.500000 0.333845
O O12 0.879948 0.667142 0.392762
O O13 0.619820 0.290263 0.500000
O O14 0.750000 0.250000 0.432019
#
# Coordination Sequence:
#
# PCOD8265835 Si02
#       5
#    16  16  16  16  16
#     4   8  14  25  42  66  93 115 137 172 219 264
#     4  10  18  28  46  69  90 112 143 182 217 254
#     4   9  18  31  45  62  87 120 152 180 214 255
#     4   9  17  29  45  65  90 117 143 175 220 270
#     4   8  14  25  42  65  88 108 140 186 226 257
#
# _framework density 18.105485999999999
#
# number of rings (size 3 to 8) (size 9 to 14) (size 15 to 20)
#    0.000    3.200    0.000    3.000    0.000    2.400 
#    0.000    4.000    0.000   12.600    0.000   16.800 
#    0.000    0.000    0.000    0.000    0.000    0.000 
#
# Total GULP energy -495663.084165 kJ/mol
# GULP energy per Si atom -12391.577104 kJ/mol
# Density = 1.806428 g / cm^3
# Si number density = 18.105486 Si / 1000 Ang^3
#
#
#
# Elastic Constant Matrix: (Units=GPa)
#
#
# Indices 1 2 3 4 5 6 
#
# 1 20.1920 14.1342 9.7842 0.0000 0.0000 0.0000
# 2 14.1342 131.0218 62.7169 0.0000 0.0000 0.0000
# 3 9.7842 62.7169 128.6920 0.0000 0.0000 0.0000
# 4 0.0000 0.0000 0.0000 25.5343 0.0000 0.0000
# 5 0.0000 0.0000 0.0000 0.0000 8.1770 0.0000
# 6 0.0000 0.0000 0.0000 0.0000 0.0000 19.1848
#
#
#
# Elastic Compliance Matrix: (Units=1/GPa)
#
#
# Indices 1 2 3 4 5 6 
#
# 1 0.053836 -0.005019 -0.001647 0.000000 0.000000 0.000000
# 2 -0.005019 0.010422 -0.004698 0.000000 0.000000 0.000000
# 3 -0.001647 -0.004698 0.010185 0.000000 0.000000 0.000000
# 4 0.000000 0.000000 0.000000 0.039163 0.000000 0.000000
# 5 0.000000 0.000000 0.000000 0.000000 0.122294 0.000000
# 6 0.000000 0.000000 0.000000 0.000000 0.000000 0.052125
#
#
# Mechanical properties :
#
#
# Convention : Reuss Voigt Hill
#
# Bulk Modulus (GPa) = 19.33645 50.35293 34.84469
# Shear Modulus (GPa) = 15.24427 23.46390 19.35409
#
# Velocity S-wave (km/s) = 2.90482 3.60384 3.27305
# Velocity P-wave (km/s) = 4.68548 6.72221 5.79404
#
# Compressibility (1/GPa) = 0.05171579
#
# Stress axis : x y z
#
# Youngs Moduli (GPa) = 18.57489 95.94671 98.18284
#
# Poissons Ratio (x) = 0.48159 0.16170
# Poissons Ratio (y) = 0.09323 0.46123
# Poissons Ratio (z) = 0.03059 0.45073
#
# Static dielectric constant tensor:
#      x y z
#    x 2.892360 0.000000 0.000000 
#    y 0.000000 3.414460 0.000000 
#    z 0.000000 0.000000 3.638630 
# 
# 
# High freq. dielectric constant tensor:
#      x y z
#    x 1.655900 0.000000 0.000000 
#    y 0.000000 1.695340 0.000000 
#    z 0.000000 0.000000 1.698110 
# 
# From -- ./inp_files/52859.got.cif
#   From: 2010.03.12/outbox.cif.g09.slc.cpg/sg65_27_cif.got.tgz:52859.got - 2010.04.10 20:52:16.
