data_PCOD8265999
_publ_section_title
;
Structure prediction by ZEFSAII (Michael W. Deem and Ramdas Pophale) SiO2 
 PCOD8265999
Probable space group: C M M M
;
_chemical_formula_sum "Si O2"
_cell_formula_units_Z 104
_cell_length_a 27.772770
_cell_length_b 28.235385
_cell_length_c 9.332821
_cell_angle_alpha 90.000000
_cell_angle_beta 90.000000
_cell_angle_gamma 90.000000
_cell_volume 7318.563540
_symmetry_space_group_name_H-M "C M M M"
_symmetry_group_IT_number 65
_symmetry_cell_setting 'orthorhombic'
loop_
_space_group_symop_operation_xyz
x,y,z
-x,-y,z
x,-y,-z
-x,y,-z
-x,-y,-z
x,y,-z
-x,y,z
x,-y,z
1/2+x,1/2+y,z
1/2-x,1/2-y,z
1/2+x,1/2-y,-z
1/2-x,1/2+y,-z
1/2-x,1/2-y,-z
1/2+x,1/2+y,-z
1/2-x,1/2+y,z
1/2+x,1/2-y,z
loop_
_atom_site_type_symbol
_atom_site_label
_atom_site_fract_x
_atom_site_fract_y
_atom_site_fract_z
Si Si1 0.000000 0.446584 0.652326
Si Si2 0.176359 0.446379 0.661877
Si Si3 0.223627 0.649685 0.662511
Si Si4 0.209528 0.210454 0.838864
Si Si5 0.086862 0.584334 0.160712
Si Si6 0.857747 0.725011 0.331755
Si Si7 0.444190 0.809188 0.161594
O O1 0.953439 0.437476 0.742713
O O2 0.000000 0.500000 0.607340
O O3 0.000000 0.417707 0.500000
O O4 0.155132 0.442350 0.500000
O O5 0.196043 0.500000 0.688344
O O6 0.217927 0.406973 0.680675
O O7 0.137004 0.433509 0.778413
O O8 0.237894 0.662983 0.500000
O O9 0.267495 0.664070 0.765627
O O10 0.174047 0.677836 0.700909
O O11 0.250000 0.250000 0.843211
O O12 0.165277 0.229211 0.744509
O O13 0.192185 0.198034 0.000000
O O14 0.081178 0.640256 0.162798
O O15 0.081928 0.564735 0.000000
O O16 0.861475 0.734695 0.500000
O O17 0.911981 0.721668 0.269435
O O18 0.500000 0.811836 0.213811
O O19 0.442164 0.788425 0.000000
#
# Coordination Sequence:
#
# PCOD8265999 Si02
#       7
#     8  16  16  16  16  16  16
#     4  11  23  35  45  55  69  93 129 175 223 267
#     4  10  20  33  46  61  83 111 141 173 214 258
#     4   9  17  29  44  63  84 107 136 172 209 250
#     4   9  17  28  44  65  85 106 129 162 209 257
#     4  11  21  33  46  59  76 100 134 177 220 258
#     4  10  18  29  46  65  83 105 134 172 210 252
#     4  10  20  33  45  59  81 109 138 173 216 259
#
# _framework density 14.210438
#
# number of rings (size 3 to 8) (size 9 to 14) (size 15 to 20)
#    0.000    2.077    2.308    2.077    0.000    6.769 
#    0.000    0.000    0.000    0.000    0.000    0.000 
#    0.000    0.000    0.000    0.000    0.000    0.769 
#
# Total GULP energy -644487.603908 kJ/mol
# GULP energy per Si atom -12393.992383 kJ/mol
# Density = 1.417809 g / cm^3
# Si number density = 14.210438 Si / 1000 Ang^3
#
#
#
# Elastic Constant Matrix: (Units=GPa)
#
#
# Indices 1 2 3 4 5 6 
#
# 1 48.9081 41.5491 44.0243 0.0000 0.0000 0.0000
# 2 41.5491 63.1042 44.3255 0.0000 0.0000 0.0000
# 3 44.0243 44.3255 113.2218 0.0000 0.0000 0.0000
# 4 0.0000 0.0000 0.0000 16.8665 0.0000 0.0000
# 5 0.0000 0.0000 0.0000 0.0000 27.1057 0.0000
# 6 0.0000 0.0000 0.0000 0.0000 0.0000 23.7598
#
#
#
# Elastic Compliance Matrix: (Units=1/GPa)
#
#
# Indices 1 2 3 4 5 6 
#
# 1 0.052998 -0.028165 -0.009581 0.000000 0.000000 0.000000
# 2 -0.028165 0.036826 -0.003465 0.000000 0.000000 0.000000
# 3 -0.009581 -0.003465 0.013914 0.000000 0.000000 0.000000
# 4 0.000000 0.000000 0.000000 0.059289 0.000000 0.000000
# 5 0.000000 0.000000 0.000000 0.000000 0.036893 0.000000
# 6 0.000000 0.000000 0.000000 0.000000 0.000000 0.042088
#
#
# Mechanical properties :
#
#
# Convention : Reuss Voigt Hill
#
# Bulk Modulus (GPa) = 46.91565 53.89244 50.40405
# Shear Modulus (GPa) = 15.08135 19.90207 17.49171
#
# Velocity S-wave (km/s) = 3.26127 3.74642 3.51223
# Velocity P-wave (km/s) = 6.87516 7.53134 7.21072
#
# Compressibility (1/GPa) = 0.02131485
#
# Stress axis : x y z
#
# Youngs Moduli (GPa) = 18.86863 27.15509 71.86876
#
# Poissons Ratio (x) = 0.76483 0.68857
# Poissons Ratio (y) = 0.53144 0.24905
# Poissons Ratio (z) = 0.18078 0.09410
#
# Static dielectric constant tensor:
#      x y z
#    x 3.241240 0.000000 0.000000 
#    y 0.000000 2.665660 0.000000 
#    z 0.000000 0.000000 3.051200 
# 
# 
# High freq. dielectric constant tensor:
#      x y z
#    x 1.508410 0.000000 0.000000 
#    y 0.000000 1.508860 0.000000 
#    z 0.000000 0.000000 1.563650 
# 
# From -- ./inp_files/15063.got.cif
#   From: 2010.03.12/outbox.cif.g09.slc.cpg/sg65_8_cif.got.tgz:15063.got - 2010.04.10 20:52:16.
