data_PCOD8265039
_publ_section_title
;
Structure prediction by ZEFSAII (Michael W. Deem and Ramdas Pophale) SiO2 
 PCOD8265039
Probable space group: C M C A
;
_chemical_formula_sum "Si O2"
_cell_formula_units_Z 96
_cell_length_a 16.938140
_cell_length_b 25.904140
_cell_length_c 12.981205
_cell_angle_alpha 90.000000
_cell_angle_beta 90.000000
_cell_angle_gamma 90.000000
_cell_volume 5695.736705
_symmetry_space_group_name_H-M "C M C A"
_symmetry_group_IT_number 64
_symmetry_cell_setting 'orthorhombic'
loop_
_space_group_symop_operation_xyz
x,y,z
-x,1/2-y,1/2+z
x,-y,-z
-x,1/2+y,1/2-z
-x,-y,-z
x,1/2+y,1/2-z
-x,y,z
x,1/2-y,1/2+z
1/2+x,1/2+y,z
1/2-x,-y,1/2+z
1/2+x,1/2-y,-z
1/2-x,y,1/2-z
1/2-x,1/2-y,-z
1/2+x,y,1/2-z
1/2-x,1/2+y,z
1/2+x,-y,1/2+z
loop_
_atom_site_type_symbol
_atom_site_label
_atom_site_fract_x
_atom_site_fract_y
_atom_site_fract_z
Si Si1 0.679223 0.630335 0.826550
Si Si2 0.411107 0.189697 0.025204
Si Si3 0.825100 0.713247 0.503727
Si Si4 0.732853 0.356732 0.632225
Si Si5 0.910826 0.397878 0.137342
Si Si6 0.269476 0.057666 0.971187
O O1 0.750000 0.643368 0.750000
O O2 0.663128 0.682495 0.889611
O O3 0.603896 0.613766 0.758185
O O4 0.700911 0.582915 0.901722
O O5 0.500000 0.181446 0.066862
O O6 0.400806 0.249548 0.989756
O O7 0.348002 0.176000 0.114811
O O8 0.394317 0.154750 0.925327
O O9 0.750000 0.750000 0.500000
O O10 0.810626 0.672242 0.412351
O O11 0.750000 0.367328 0.750000
O O12 0.721219 0.411637 0.577657
O O13 0.000000 0.417841 0.123571
O O14 0.851862 0.441487 0.092950
O O15 0.245272 0.000000 0.000000
#
# Coordination Sequence:
#
# PCOD8265039 Si02
#       6
#    16  16  16  16  16  16
#     4   9  17  30  47  68  92 120 155 193 230 272
#     4   9  18  31  46  68  97 125 157 195 229 268
#     4   9  17  28  43  65  93 125 157 188 226 270
#     4   9  18  31  47  67  95 127 156 190 233 278
#     4   9  18  32  49  71  97 122 152 193 238 279
#     4   9  18  32  51  72  92 118 154 196 236 278
#
# _framework density 16.854711999999999
#
# number of rings (size 3 to 8) (size 9 to 14) (size 15 to 20)
#    0.000    3.000    0.000    3.000    0.000    8.333 
#    0.000    2.500    0.000    1.500    0.000    0.000 
#    0.000    0.000    0.000    0.000    0.000    0.000 
#
# Total GULP energy -594903.950888 kJ/mol
# GULP energy per Si atom -12393.832310 kJ/mol
# Density = 1.681635 g / cm^3
# Si number density = 16.854712 Si / 1000 Ang^3
#
#
#
# Elastic Constant Matrix: (Units=GPa)
#
#
# Indices 1 2 3 4 5 6 
#
# 1 66.7454 20.3961 29.2848 0.0000 0.0000 0.0000
# 2 20.3961 90.5336 29.1237 0.0000 0.0000 0.0000
# 3 29.2848 29.1237 106.5497 0.0000 0.0000 0.0000
# 4 0.0000 0.0000 0.0000 15.3241 0.0000 0.0000
# 5 0.0000 0.0000 0.0000 0.0000 19.2302 0.0000
# 6 0.0000 0.0000 0.0000 0.0000 0.0000 16.2050
#
#
#
# Elastic Compliance Matrix: (Units=1/GPa)
#
#
# Indices 1 2 3 4 5 6 
#
# 1 0.017594 -0.002640 -0.004114 0.000000 0.000000 0.000000
# 2 -0.002640 0.012507 -0.002693 0.000000 0.000000 0.000000
# 3 -0.004114 -0.002693 0.011252 0.000000 0.000000 0.000000
# 4 0.000000 0.000000 0.000000 0.065257 0.000000 0.000000
# 5 0.000000 0.000000 0.000000 0.000000 0.052001 0.000000
# 6 0.000000 0.000000 0.000000 0.000000 0.000000 0.061709
#
#
# Mechanical properties :
#
#
# Convention : Reuss Voigt Hill
#
# Bulk Modulus (GPa) = 44.52631 46.82642 45.67637
# Shear Modulus (GPa) = 20.26746 22.48681 21.37714
#
# Velocity S-wave (km/s) = 3.47144 3.65657 3.56521
# Velocity P-wave (km/s) = 6.52250 6.75796 6.64127
#
# Compressibility (1/GPa) = 0.02245863
#
# Stress axis : x y z
#
# Youngs Moduli (GPa) = 56.83700 79.95710 88.87266
#
# Poissons Ratio (x) = 0.21111 0.36562
# Poissons Ratio (y) = 0.15007 0.23932
# Poissons Ratio (z) = 0.23383 0.21531
#
# Static dielectric constant tensor:
#      x y z
#    x 3.280820 0.000000 0.000000 
#    y 0.000000 3.134490 0.000000 
#    z 0.000000 0.000000 3.139980 
# 
# 
# High freq. dielectric constant tensor:
#      x y z
#    x 1.630740 0.000000 0.000000 
#    y 0.000000 1.639320 0.000000 
#    z 0.000000 0.000000 1.642780 
# 
# From -- ./inp_files/16224.got.cif
#   From: 2010.03.12/outbox.cif.g09.slc.cpg/sg64_9_cif.got.tgz:16224.got - 2010.04.10 20:19:32.
