data_PCOD8265084
_publ_section_title
;
Structure prediction by ZEFSAII (Michael W. Deem and Ramdas Pophale) SiO2 
 PCOD8265084
Probable space group: C M M M
;
_chemical_formula_sum "Si O2"
_cell_formula_units_Z 104
_cell_length_a 27.480392
_cell_length_b 8.978766
_cell_length_c 26.554357
_cell_angle_alpha 90.000000
_cell_angle_beta 90.000000
_cell_angle_gamma 90.000000
_cell_volume 6552.022295
_symmetry_space_group_name_H-M "C M M M"
_symmetry_group_IT_number 65
_symmetry_cell_setting 'orthorhombic'
loop_
_space_group_symop_operation_xyz
x,y,z
-x,-y,z
x,-y,-z
-x,y,-z
-x,-y,-z
x,y,-z
-x,y,z
x,-y,z
1/2+x,1/2+y,z
1/2-x,1/2-y,z
1/2+x,1/2-y,-z
1/2-x,1/2+y,-z
1/2-x,1/2-y,-z
1/2+x,1/2+y,-z
1/2-x,1/2+y,z
1/2+x,1/2-y,z
loop_
_atom_site_type_symbol
_atom_site_label
_atom_site_fract_x
_atom_site_fract_y
_atom_site_fract_z
Si Si1 0.698256 0.671680 0.792747
Si Si2 0.609702 0.328363 0.442449
Si Si3 0.301730 0.326826 0.095955
Si Si4 0.199207 0.673151 0.604475
Si Si5 0.555044 0.172702 0.642027
Si Si6 0.803970 0.677852 0.000000
Si Si7 0.854940 0.328964 0.293802
O O1 0.708250 0.500000 0.781674
O O2 0.750000 0.750000 0.785394
O O3 0.674744 0.693571 0.848688
O O4 0.658144 0.731178 0.754327
O O5 0.593564 0.306900 0.500000
O O6 0.618577 0.500000 0.428969
O O7 0.659498 0.240659 0.432959
O O8 0.566165 0.265777 0.408124
O O9 0.296281 0.500000 0.081531
O O10 0.250000 0.250000 0.100683
O O11 0.330634 0.240669 0.050762
O O12 0.203921 0.500000 0.592523
O O13 0.250000 0.750000 0.593292
O O14 0.183867 0.701588 0.662134
O O15 0.500000 0.203966 0.659681
O O16 0.591358 0.219202 0.687136
O O17 0.563969 0.000000 0.628681
O O18 0.750000 0.750000 0.000000
O O19 0.803132 0.500000 0.000000
O O20 0.854287 0.500000 0.277027
#
# Coordination Sequence:
#
# PCOD8265084 Si02
#       7
#    16  16  16  16  16   8  16
#     4  10  19  28  41  61  86 117 150 182 216 254
#     4  10  21  35  50  70  94 117 143 176 213 254
#     4   9  16  25  35  50  74 106 144 182 216 249
#     4  10  20  33  49  68  90 119 151 180 214 255
#     4   9  19  36  55  72  89 112 142 174 214 264
#     4  10  16  22  34  50  70 102 143 184 221 252
#     4   9  18  31  47  66  87 111 140 176 214 254
#
# _framework density 15.872961999999999
#
# number of rings (size 3 to 8) (size 9 to 14) (size 15 to 20)
#    0.000    2.462    0.000    4.846    0.000    8.308 
#    0.000    1.538    0.000    0.000    0.000    0.000 
#    0.000    0.000    0.000    0.692    0.000   14.077 
#
# Total GULP energy -644588.392316 kJ/mol
# GULP energy per Si atom -12395.930621 kJ/mol
# Density = 1.583683 g / cm^3
# Si number density = 15.872962 Si / 1000 Ang^3
#
#
#
# Elastic Constant Matrix: (Units=GPa)
#
#
# Indices 1 2 3 4 5 6 
#
# 1 75.1567 33.5840 36.4439 0.0000 0.0000 0.0000
# 2 33.5840 110.7650 63.4641 0.0000 0.0000 0.0000
# 3 36.4439 63.4641 115.0872 0.0000 0.0000 0.0000
# 4 0.0000 0.0000 0.0000 29.0514 0.0000 0.0000
# 5 0.0000 0.0000 0.0000 0.0000 9.7761 0.0000
# 6 0.0000 0.0000 0.0000 0.0000 0.0000 19.3061
#
#
#
# Elastic Compliance Matrix: (Units=1/GPa)
#
#
# Indices 1 2 3 4 5 6 
#
# 1 0.016336 -0.002908 -0.003569 0.000000 0.000000 0.000000
# 2 -0.002908 0.013716 -0.006643 0.000000 0.000000 0.000000
# 3 -0.003569 -0.006643 0.013482 0.000000 0.000000 0.000000
# 4 0.000000 0.000000 0.000000 0.034422 0.000000 0.000000
# 5 0.000000 0.000000 0.000000 0.000000 0.102290 0.000000
# 6 0.000000 0.000000 0.000000 0.000000 0.000000 0.051797
#
#
# Mechanical properties :
#
#
# Convention : Reuss Voigt Hill
#
# Bulk Modulus (GPa) = 57.82328 63.11029 60.46678
# Shear Modulus (GPa) = 18.93597 22.79452 20.86524
#
# Velocity S-wave (km/s) = 3.45769 3.79365 3.62956
# Velocity P-wave (km/s) = 7.24215 7.68342 7.46604
#
# Compressibility (1/GPa) = 0.01729407
#
# Stress axis : x y z
#
# Youngs Moduli (GPa) = 61.21545 72.90876 74.17068
#
# Poissons Ratio (x) = 0.21201 0.26475
# Poissons Ratio (y) = 0.17801 0.49269
# Poissons Ratio (z) = 0.21850 0.48431
#
# Static dielectric constant tensor:
#      x y z
#    x 2.699330 0.000000 0.000000 
#    y 0.000000 3.157880 0.000000 
#    z 0.000000 0.000000 3.599220 
# 
# 
# High freq. dielectric constant tensor:
#      x y z
#    x 1.559030 0.000000 0.000000 
#    y 0.000000 1.626810 0.000000 
#    z 0.000000 0.000000 1.614330 
# 
# From -- ./inp_files/76037.got.cif
#   From: 2010.03.12/outbox.cif.g09.slc.cpg/sg65_39_cif.got.tgz:76037.got - 2010.04.10 20:52:16.
