data_PCOD8265130
_publ_section_title
;
Structure prediction by ZEFSAII (Michael W. Deem and Ramdas Pophale) SiO2 
 PCOD8265130
Probable space group: C M M M
;
_chemical_formula_sum "Si O2"
_cell_formula_units_Z 72
_cell_length_a 8.641766
_cell_length_b 23.419912
_cell_length_c 20.887911
_cell_angle_alpha 90.000000
_cell_angle_beta 90.000000
_cell_angle_gamma 90.000000
_cell_volume 4227.491759
_symmetry_space_group_name_H-M "C M M M"
_symmetry_group_IT_number 65
_symmetry_cell_setting 'orthorhombic'
loop_
_space_group_symop_operation_xyz
x,y,z
-x,-y,z
x,-y,-z
-x,y,-z
-x,-y,-z
x,y,-z
-x,y,z
x,-y,z
1/2+x,1/2+y,z
1/2-x,1/2-y,z
1/2+x,1/2-y,-z
1/2-x,1/2+y,-z
1/2-x,1/2-y,-z
1/2+x,1/2+y,-z
1/2-x,1/2+y,z
1/2+x,1/2-y,z
loop_
_atom_site_type_symbol
_atom_site_label
_atom_site_fract_x
_atom_site_fract_y
_atom_site_fract_z
Si Si1 0.682154 0.885080 0.119109
Si Si2 0.683692 0.313489 0.372027
Si Si3 0.682195 0.500000 0.072762
Si Si4 0.182930 0.312714 0.757949
Si Si5 0.182591 0.687836 0.000000
Si Si6 0.816367 0.686187 0.500000
O O1 0.500000 0.894451 0.114026
O O2 0.762976 0.945868 0.113295
O O3 0.729576 0.855310 0.185338
O O4 0.743862 0.845063 0.062229
O O5 0.500000 0.313739 0.375260
O O6 0.750000 0.250000 0.370534
O O7 0.743943 0.341568 0.306087
O O8 0.752543 0.344893 0.435520
O O9 0.500000 0.500000 0.068684
O O10 0.751574 0.500000 0.000000
O O11 0.250000 0.250000 0.772536
O O12 0.000000 0.306773 0.749816
O O13 0.250000 0.750000 0.000000
O O14 0.000000 0.692408 0.000000
O O15 0.750000 0.750000 0.500000
O O16 0.000000 0.686715 0.500000
#
# Coordination Sequence:
#
# PCOD8265130 Si02
#       6
#    16  16   8  16   8   8
#     4  10  21  36  54  71  95 128 162 197 243 297
#     4  10  17  26  40  60  89 126 162 198 237 282
#     4  11  23  37  55  77  95 118 157 206 253 291
#     4  10  19  31  47  70  97 130 164 198 242 291
#     4  10  20  33  50  73  97 126 158 194 237 286
#     4  10  16  24  38  58  86 121 162 203 234 276
#
# _framework density 17.031375000000001
#
# number of rings (size 3 to 8) (size 9 to 14) (size 15 to 20)
#    0.000    1.889    1.111    7.333    0.000    3.111 
#    0.000    0.000    0.000    0.000    0.000    0.000 
#    0.000    0.889    0.000    9.333    0.000    5.111 
#
# Total GULP energy -446294.576116 kJ/mol
# GULP energy per Si atom -12397.071559 kJ/mol
# Density = 1.699261 g / cm^3
# Si number density = 17.031375 Si / 1000 Ang^3
#
#
#
# Elastic Constant Matrix: (Units=GPa)
#
#
# Indices 1 2 3 4 5 6 
#
# 1 103.5924 33.3404 66.8248 0.0000 0.0000 0.0000
# 2 33.3404 90.3336 59.4002 0.0000 0.0000 0.0000
# 3 66.8248 59.4002 184.8413 0.0000 0.0000 0.0000
# 4 0.0000 0.0000 0.0000 6.7995 0.0000 0.0000
# 5 0.0000 0.0000 0.0000 0.0000 28.7640 0.0000
# 6 0.0000 0.0000 0.0000 0.0000 0.0000 22.2736
#
#
#
# Elastic Compliance Matrix: (Units=1/GPa)
#
#
# Indices 1 2 3 4 5 6 
#
# 1 0.012910 -0.002150 -0.003976 0.000000 0.000000 0.000000
# 2 -0.002150 0.014394 -0.003848 0.000000 0.000000 0.000000
# 3 -0.003976 -0.003848 0.008084 0.000000 0.000000 0.000000
# 4 0.000000 0.000000 0.000000 0.147070 0.000000 0.000000
# 5 0.000000 0.000000 0.000000 0.000000 0.034766 0.000000
# 6 0.000000 0.000000 0.000000 0.000000 0.000000 0.044896
#
#
# Mechanical properties :
#
#
# Convention : Reuss Voigt Hill
#
# Bulk Modulus (GPa) = 64.77133 77.54423 71.15778
# Shear Modulus (GPa) = 17.40845 26.18088 21.79466
#
# Velocity S-wave (km/s) = 3.20056 3.92499 3.58114
# Velocity P-wave (km/s) = 7.19523 8.13448 7.67923
#
# Compressibility (1/GPa) = 0.01543893
#
# Stress axis : x y z
#
# Youngs Moduli (GPa) = 77.45734 69.47239 123.69630
#
# Poissons Ratio (x) = 0.14938 0.49187
# Poissons Ratio (y) = 0.16655 0.47602
# Poissons Ratio (z) = 0.30800 0.26735
#
# Static dielectric constant tensor:
#      x y z
#    x 3.210840 0.000000 0.000000 
#    y 0.000000 2.746310 0.000000 
#    z 0.000000 0.000000 4.361830 
# 
# 
# High freq. dielectric constant tensor:
#      x y z
#    x 1.669200 0.000000 0.000000 
#    y 0.000000 1.596090 0.000000 
#    z 0.000000 0.000000 1.682060 
# 
# From -- ./inp_files/59560.got.cif
#   From: 2010.03.12/outbox.cif.g09.slc.cpg/sg65_30_cif.got.tgz:59560.got - 2010.04.10 20:52:16.
