data_PCOD8265029
_publ_section_title
;
Structure prediction by ZEFSAII (Michael W. Deem and Ramdas Pophale) SiO2 
 PCOD8265029
Probable space group: C M C A
;
_chemical_formula_sum "Si O2"
_cell_formula_units_Z 104
_cell_length_a 21.288640
_cell_length_b 14.707205
_cell_length_c 21.267099
_cell_angle_alpha 90.000000
_cell_angle_beta 90.000000
_cell_angle_gamma 90.000000
_cell_volume 6658.651979
_symmetry_space_group_name_H-M "C M C A"
_symmetry_group_IT_number 64
_symmetry_cell_setting 'orthorhombic'
loop_
_space_group_symop_operation_xyz
x,y,z
-x,1/2-y,1/2+z
x,-y,-z
-x,1/2+y,1/2-z
-x,-y,-z
x,1/2+y,1/2-z
-x,y,z
x,1/2-y,1/2+z
1/2+x,1/2+y,z
1/2-x,-y,1/2+z
1/2+x,1/2-y,-z
1/2-x,y,1/2-z
1/2-x,1/2-y,-z
1/2+x,y,1/2-z
1/2-x,1/2+y,z
1/2+x,-y,1/2+z
loop_
_atom_site_type_symbol
_atom_site_label
_atom_site_fract_x
_atom_site_fract_y
_atom_site_fract_z
Si Si1 0.329421 0.888600 0.437789
Si Si2 0.372258 0.087454 0.298233
Si Si3 0.804246 0.089107 0.077784
Si Si4 0.428708 0.794790 0.806530
Si Si5 0.697029 0.206806 0.126755
Si Si6 0.750000 0.346634 0.750000
Si Si7 0.929257 0.593749 0.662371
O O1 0.335073 0.877549 0.512684
O O2 0.294561 0.801102 0.409810
O O3 0.397832 0.895766 0.406125
O O4 0.291768 0.980663 0.421146
O O5 0.356050 0.118591 0.369788
O O6 0.417301 0.158369 0.261458
O O7 0.306358 0.083775 0.262301
O O8 0.400411 0.986695 0.295741
O O9 0.734600 0.130560 0.087478
O O10 0.500000 0.819060 0.829599
O O11 0.376014 0.822911 0.859239
O O12 0.422596 0.686046 0.797174
O O13 0.732780 0.220290 0.192931
O O14 0.000000 0.567833 0.647185
#
# Coordination Sequence:
#
# PCOD8265029 Si02
#       7
#    16  16  16  16  16   8  16
#     4   9  17  29  45  64  88 115 142 176 211 251
#     4   9  16  29  44  62  88 114 138 177 216 247
#     4   9  17  29  43  65  89 110 145 177 210 257
#     4   9  17  29  44  63  85 111 144 174 207 256
#     4   9  16  29  46  63  86 114 139 176 217 250
#     4   8  16  28  42  64  88 106 142 178 212 260
#     4   9  17  29  45  64  87 115 144 172 209 255
#
# _framework density 15.618777
#
# number of rings (size 3 to 8) (size 9 to 14) (size 15 to 20)
#    0.000    3.077    0.000    0.923    0.000    0.000 
#    0.000   40.000    0.000    0.000    0.000    2.154 
#    0.000    1.231    0.000    2.615    0.000    0.000 
#
# Total GULP energy -644210.054184 kJ/mol
# GULP energy per Si atom -12388.654888 kJ/mol
# Density = 1.558323 g / cm^3
# Si number density = 15.618777 Si / 1000 Ang^3
#
#
#
# Elastic Constant Matrix: (Units=GPa)
#
#
# Indices 1 2 3 4 5 6 
#
# 1 94.6689 46.2778 27.9182 0.0000 0.0000 0.0000
# 2 46.2778 78.2683 43.8148 0.0000 0.0000 0.0000
# 3 27.9182 43.8148 87.5535 0.0000 0.0000 0.0000
# 4 0.0000 0.0000 0.0000 24.7988 0.0000 0.0000
# 5 0.0000 0.0000 0.0000 0.0000 12.4612 0.0000
# 6 0.0000 0.0000 0.0000 0.0000 0.0000 23.5634
#
#
#
# Elastic Compliance Matrix: (Units=1/GPa)
#
#
# Indices 1 2 3 4 5 6 
#
# 1 0.014872 -0.008527 -0.000475 0.000000 0.000000 0.000000
# 2 -0.008527 0.022638 -0.008610 0.000000 0.000000 0.000000
# 3 -0.000475 -0.008610 0.015882 0.000000 0.000000 0.000000
# 4 0.000000 0.000000 0.000000 0.040325 0.000000 0.000000
# 5 0.000000 0.000000 0.000000 0.000000 0.080249 0.000000
# 6 0.000000 0.000000 0.000000 0.000000 0.000000 0.042439
#
#
# Mechanical properties :
#
#
# Convention : Reuss Voigt Hill
#
# Bulk Modulus (GPa) = 55.04290 55.16803 55.10546
# Shear Modulus (GPa) = 19.40359 21.66334 20.53346
#
# Velocity S-wave (km/s) = 3.52849 3.72829 3.62976
# Velocity P-wave (km/s) = 7.20543 7.34383 7.27496
#
# Compressibility (1/GPa) = 0.01816765
#
# Stress axis : x y z
#
# Youngs Moduli (GPa) = 67.24197 44.17266 62.96573
#
# Poissons Ratio (x) = 0.37668 0.02989
# Poissons Ratio (y) = 0.57340 0.54213
# Poissons Ratio (z) = 0.03192 0.38032
#
# Static dielectric constant tensor:
#      x y z
#    x 3.107930 0.000000 0.000000 
#    y 0.000000 2.983850 0.000000 
#    z 0.000000 0.000000 3.070180 
# 
# 
# High freq. dielectric constant tensor:
#      x y z
#    x 1.597060 0.000000 0.000000 
#    y 0.000000 1.591440 0.000000 
#    z 0.000000 0.000000 1.590790 
# 
# From -- ./inp_files/41016.got.cif
#   From: 2010.03.12/outbox.cif.g09.slc.cpg/sg64_21_cif.got.tgz:41016.got - 2010.04.10 20:19:32.
