data_PCOD8265622
_publ_section_title
;
Structure prediction by ZEFSAII (Michael W. Deem and Ramdas Pophale) SiO2 
 PCOD8265622
Probable space group: C M M M
;
_chemical_formula_sum "Si O2"
_cell_formula_units_Z 104
_cell_length_a 9.038038
_cell_length_b 27.410515
_cell_length_c 27.108141
_cell_angle_alpha 90.000000
_cell_angle_beta 90.000000
_cell_angle_gamma 90.000000
_cell_volume 6715.697013
_symmetry_space_group_name_H-M "C M M M"
_symmetry_group_IT_number 65
_symmetry_cell_setting 'orthorhombic'
loop_
_space_group_symop_operation_xyz
x,y,z
-x,-y,z
x,-y,-z
-x,y,-z
-x,-y,-z
x,y,-z
-x,y,z
x,-y,z
1/2+x,1/2+y,z
1/2-x,1/2-y,z
1/2+x,1/2-y,-z
1/2-x,1/2+y,-z
1/2-x,1/2-y,-z
1/2+x,1/2+y,-z
1/2-x,1/2+y,z
1/2+x,1/2-y,z
loop_
_atom_site_type_symbol
_atom_site_label
_atom_site_fract_x
_atom_site_fract_y
_atom_site_fract_z
Si Si1 0.327865 0.801066 0.394717
Si Si2 0.825045 0.802747 0.211616
Si Si3 0.173385 0.197988 0.000000
Si Si4 0.330173 0.385767 0.555170
Si Si5 0.671708 0.698957 0.895813
Si Si6 0.827306 0.944276 0.350035
Si Si7 0.673164 0.140571 0.297027
O O1 0.500000 0.793730 0.403153
O O2 0.250000 0.750000 0.402067
O O3 0.268979 0.838327 0.435637
O O4 0.291729 0.821334 0.340433
O O5 0.750000 0.750000 0.218846
O O6 0.789447 0.825766 0.156892
O O7 0.757823 0.841667 0.248786
O O8 0.000000 0.796867 0.221013
O O9 0.250000 0.250000 0.000000
O O10 0.214944 0.170370 0.052379
O O11 0.000000 0.207677 0.000000
O O12 0.298937 0.405562 0.500000
O O13 0.500000 0.369725 0.561542
O O14 0.290266 0.428364 0.593838
O O15 0.500000 0.710429 0.895841
O O16 0.750000 0.750000 0.897094
O O17 0.733832 0.912612 0.311405
O O18 0.000000 0.937161 0.338452
O O19 0.777804 0.000000 0.343806
O O20 0.500000 0.136623 0.285974
#
# Coordination Sequence:
#
# PCOD8265622 Si02
#       7
#    16  16   8  16  16  16  16
#     4  10  20  32  46  63  84 112 144 174 205 242
#     4  10  18  27  40  60  86 115 147 181 216 252
#     4   8  12  20  32  46  68 100 139 178 211 242
#     4   9  18  32  49  69  91 112 135 164 198 240
#     4   8  14  22  33  50  73 104 141 178 212 245
#     4   9  18  33  52  71  89 109 133 164 205 251
#     4  10  20  32  46  64  85 111 142 176 212 250
#
# _framework density 15.486107000000001
#
# number of rings (size 3 to 8) (size 9 to 14) (size 15 to 20)
#    0.000    2.769    0.000    1.846    0.000    4.923 
#    0.000    1.538    0.000    0.000    0.000    4.308 
#    0.000    0.000    0.000    0.692    0.000   15.923 
#
# Total GULP energy -644196.693699 kJ/mol
# GULP energy per Si atom -12388.397956 kJ/mol
# Density = 1.545086 g / cm^3
# Si number density = 15.486107 Si / 1000 Ang^3
#
#
#
# Elastic Constant Matrix: (Units=GPa)
#
#
# Indices 1 2 3 4 5 6 
#
# 1 54.3786 31.6623 44.1235 0.0000 0.0000 0.0000
# 2 31.6623 76.4057 44.2570 0.0000 0.0000 0.0000
# 3 44.1235 44.2570 140.5643 0.0000 0.0000 0.0000
# 4 0.0000 0.0000 0.0000 11.0502 0.0000 0.0000
# 5 0.0000 0.0000 0.0000 0.0000 16.6376 0.0000
# 6 0.0000 0.0000 0.0000 0.0000 0.0000 19.9205
#
#
#
# Elastic Compliance Matrix: (Units=1/GPa)
#
#
# Indices 1 2 3 4 5 6 
#
# 1 0.028190 -0.008019 -0.006324 0.000000 0.000000 0.000000
# 2 -0.008019 0.018288 -0.003241 0.000000 0.000000 0.000000
# 3 -0.006324 -0.003241 0.010120 0.000000 0.000000 0.000000
# 4 0.000000 0.000000 0.000000 0.090496 0.000000 0.000000
# 5 0.000000 0.000000 0.000000 0.000000 0.060105 0.000000
# 6 0.000000 0.000000 0.000000 0.000000 0.000000 0.050200
#
#
# Mechanical properties :
#
#
# Convention : Reuss Voigt Hill
#
# Bulk Modulus (GPa) = 46.66289 56.82604 51.74447
# Shear Modulus (GPa) = 16.68279 19.60870 18.14575
#
# Velocity S-wave (km/s) = 3.28575 3.56225 3.42679
# Velocity P-wave (km/s) = 6.67775 7.32762 7.01022
#
# Compressibility (1/GPa) = 0.02143030
#
# Stress axis : x y z
#
# Youngs Moduli (GPa) = 35.47347 54.67993 98.81587
#
# Poissons Ratio (x) = 0.43846 0.62494
# Poissons Ratio (y) = 0.28445 0.32026
# Poissons Ratio (z) = 0.22434 0.17722
#
# Static dielectric constant tensor:
#      x y z
#    x 3.031960 0.000000 0.000000 
#    y 0.000000 2.604140 0.000000 
#    z 0.000000 0.000000 3.592290 
# 
# 
# High freq. dielectric constant tensor:
#      x y z
#    x 1.604300 0.000000 0.000000 
#    y 0.000000 1.541410 0.000000 
#    z 0.000000 0.000000 1.607710 
# 
# From -- ./inp_files/73745.got.cif
#   From: 2010.03.12/outbox.cif.g09.slc.cpg/sg65_37_cif.got.tgz:73745.got - 2010.04.10 20:52:16.
