data_PCOD8265490
_publ_section_title
;
Structure prediction by ZEFSAII (Michael W. Deem and Ramdas Pophale) SiO2 
 PCOD8265490
Probable space group: C M M M
;
_chemical_formula_sum "Si O2"
_cell_formula_units_Z 128
_cell_length_a 18.570783
_cell_length_b 20.862223
_cell_length_c 19.944922
_cell_angle_alpha 90.000000
_cell_angle_beta 90.000000
_cell_angle_gamma 90.000000
_cell_volume 7727.217575
_symmetry_space_group_name_H-M "C M M M"
_symmetry_group_IT_number 65
_symmetry_cell_setting 'orthorhombic'
loop_
_space_group_symop_operation_xyz
x,y,z
-x,-y,z
x,-y,-z
-x,y,-z
-x,-y,-z
x,y,-z
-x,y,z
x,-y,z
1/2+x,1/2+y,z
1/2-x,1/2-y,z
1/2+x,1/2-y,-z
1/2-x,1/2+y,-z
1/2-x,1/2-y,-z
1/2+x,1/2+y,-z
1/2-x,1/2+y,z
1/2+x,1/2-y,z
loop_
_atom_site_type_symbol
_atom_site_label
_atom_site_fract_x
_atom_site_fract_y
_atom_site_fract_z
Si Si1 0.079058 0.073170 0.186148
Si Si2 0.417983 0.238471 0.076114
Si Si3 0.716751 0.821339 0.695308
Si Si4 0.416442 0.362951 0.424081
Si Si5 0.667970 0.370106 0.076764
Si Si6 0.333827 0.766326 0.573404
Si Si7 0.834903 0.925476 0.687112
Si Si8 0.794400 0.315491 0.155068
O O1 0.120438 0.077575 0.115496
O O2 0.126475 0.103192 0.246121
O O3 0.000000 0.106466 0.182271
O O4 0.067632 0.000000 0.204787
O O5 0.500000 0.243282 0.102997
O O6 0.378667 0.306067 0.081449
O O7 0.372302 0.188697 0.120164
O O8 0.417483 0.213854 0.000000
O O9 0.750000 0.750000 0.699085
O O10 0.656711 0.817386 0.635126
O O11 0.768170 0.879169 0.673140
O O12 0.687839 0.838737 0.769368
O O13 0.399780 0.384376 0.500000
O O14 0.500000 0.351950 0.411667
O O15 0.377759 0.296536 0.406493
O O16 0.388912 0.419336 0.375611
O O17 0.745453 0.365332 0.113211
O O18 0.680179 0.391292 0.000000
O O19 0.359822 0.792744 0.500000
O O20 0.250000 0.750000 0.567768
O O21 0.811374 0.000000 0.694855
O O22 0.750000 0.250000 0.154547
#
# Coordination Sequence:
#
# PCOD8265490 Si02
#       8
#    16  16  16  16  16  16  16  16
#     4  10  21  34  45  61  91 130 166 201 241 283
#     4   9  17  28  43  67  96 120 145 189 251 305
#     4  10  17  31  52  70  91 125 169 209 246 283
#     4  10  20  33  50  75 106 139 172 206 244 291
#     4  10  18  30  46  63  86 122 162 199 238 282
#     4   9  16  29  50  70  93 129 167 204 248 284
#     4  11  21  34  50  71 101 138 172 206 249 298
#     4   9  17  28  45  65  90 120 156 196 239 296
#
# _framework density 16.564823000000001
#
# number of rings (size 3 to 8) (size 9 to 14) (size 15 to 20)
#    0.000    2.250    3.750    1.125    0.000    3.500 
#    0.000    1.875    0.000    0.000    0.000    0.000 
#    0.000    3.500    0.000   10.000    0.000    0.000 
#
# Total GULP energy -792968.233838 kJ/mol
# GULP energy per Si atom -12390.128654 kJ/mol
# Density = 1.652712 g / cm^3
# Si number density = 16.564823 Si / 1000 Ang^3
#
#
#
# Elastic Constant Matrix: (Units=GPa)
#
#
# Indices 1 2 3 4 5 6 
#
# 1 57.4294 20.8616 32.1082 0.0000 0.0000 0.0000
# 2 20.8616 44.5068 24.2303 0.0000 0.0000 0.0000
# 3 32.1082 24.2303 130.9832 0.0000 0.0000 0.0000
# 4 0.0000 0.0000 0.0000 18.4108 0.0000 0.0000
# 5 0.0000 0.0000 0.0000 0.0000 25.2371 0.0000
# 6 0.0000 0.0000 0.0000 0.0000 0.0000 17.8950
#
#
#
# Elastic Compliance Matrix: (Units=1/GPa)
#
#
# Indices 1 2 3 4 5 6 
#
# 1 0.022730 -0.008474 -0.004004 0.000000 0.000000 0.000000
# 2 -0.008474 0.028144 -0.003129 0.000000 0.000000 0.000000
# 3 -0.004004 -0.003129 0.009195 0.000000 0.000000 0.000000
# 4 0.000000 0.000000 0.000000 0.054316 0.000000 0.000000
# 5 0.000000 0.000000 0.000000 0.000000 0.039624 0.000000
# 6 0.000000 0.000000 0.000000 0.000000 0.000000 0.055882
#
#
# Mechanical properties :
#
#
# Convention : Reuss Voigt Hill
#
# Bulk Modulus (GPa) = 34.65720 43.03552 38.84636
# Shear Modulus (GPa) = 19.94233 22.68986 21.31609
#
# Velocity S-wave (km/s) = 3.47348 3.70504 3.59113
# Velocity P-wave (km/s) = 6.08723 6.65880 6.37942
#
# Compressibility (1/GPa) = 0.02885403
#
# Stress axis : x y z
#
# Youngs Moduli (GPa) = 43.99543 35.53154 108.75537
#
# Poissons Ratio (x) = 0.30110 0.43547
# Poissons Ratio (y) = 0.37282 0.34030
# Poissons Ratio (z) = 0.17616 0.11118
#
# Static dielectric constant tensor:
#      x y z
#    x 3.104640 0.000000 0.000000 
#    y 0.000000 2.716490 0.000000 
#    z 0.000000 0.000000 3.874920 
# 
# 
# High freq. dielectric constant tensor:
#      x y z
#    x 1.616130 0.000000 0.000000 
#    y 0.000000 1.587900 0.000000 
#    z 0.000000 0.000000 1.664590 
# 
# From -- ./inp_files/64153.got.cif
#   From: 2010.03.12/outbox.cif.g09.slc.cpg/sg65_33_cif.got.tgz:64153.got - 2010.04.10 20:52:16.
