data_PCOD8265483
_publ_section_title
;
Structure prediction by ZEFSAII (Michael W. Deem and Ramdas Pophale) SiO2 
 PCOD8265483
Probable space group: C M M M
;
_chemical_formula_sum "Si O2"
_cell_formula_units_Z 128
_cell_length_a 17.292970
_cell_length_b 18.534972
_cell_length_c 22.878663
_cell_angle_alpha 90.000000
_cell_angle_beta 90.000000
_cell_angle_gamma 90.000000
_cell_volume 7333.176932
_symmetry_space_group_name_H-M "C M M M"
_symmetry_group_IT_number 65
_symmetry_cell_setting 'orthorhombic'
loop_
_space_group_symop_operation_xyz
x,y,z
-x,-y,z
x,-y,-z
-x,y,-z
-x,-y,-z
x,y,-z
-x,y,z
x,-y,z
1/2+x,1/2+y,z
1/2-x,1/2-y,z
1/2+x,1/2-y,-z
1/2-x,1/2+y,-z
1/2-x,1/2-y,-z
1/2+x,1/2+y,-z
1/2-x,1/2+y,z
1/2+x,1/2-y,z
loop_
_atom_site_type_symbol
_atom_site_label
_atom_site_fract_x
_atom_site_fract_y
_atom_site_fract_z
Si Si1 0.788463 0.322554 0.163276
Si Si2 0.310810 0.417349 0.631009
Si Si3 0.410744 0.302087 0.568931
Si Si4 0.583328 0.582384 0.127713
Si Si5 0.315138 0.194166 0.642545
Si Si6 0.234279 0.914486 0.933674
Si Si7 0.410425 0.784995 0.749373
Si Si8 0.846866 0.130487 0.756380
O O1 0.750000 0.250000 0.137803
O O2 0.796908 0.378768 0.109629
O O3 0.873796 0.308514 0.188610
O O4 0.736603 0.350878 0.216834
O O5 0.304879 0.500000 0.609436
O O6 0.377240 0.376395 0.594883
O O7 0.228171 0.377776 0.619791
O O8 0.333010 0.417582 0.699427
O O9 0.401832 0.305042 0.500000
O O10 0.500000 0.294669 0.588274
O O11 0.363557 0.232096 0.590993
O O12 0.500000 0.620880 0.116246
O O13 0.575200 0.500000 0.109718
O O14 0.650242 0.616251 0.086902
O O15 0.603993 0.586900 0.195993
O O16 0.250000 0.250000 0.666872
O O17 0.371980 0.172193 0.695376
O O18 0.239256 0.000000 0.926088
O O19 0.250048 0.890720 0.000000
O O20 0.500000 0.803655 0.752144
O O21 0.395375 0.700709 0.737666
#
# Coordination Sequence:
#
# PCOD8265483 Si02
#       8
#    16  16  16  16  16  16  16  16
#     4   9  18  32  50  73 102 131 166 212 263 313
#     4  11  22  34  54  81 113 148 180 222 272 322
#     4  10  22  39  59  82 108 144 187 227 267 315
#     4   9  17  27  41  67 102 135 167 206 253 309
#     4  10  18  35  55  78 107 141 185 220 259 314
#     4   9  18  32  50  70  94 133 179 215 255 311
#     4  11  18  29  52  78 101 132 171 221 271 311
#     4  10  17  31  48  73 105 139 171 206 260 324
#
# _framework density 17.454916999999998
#
# number of rings (size 3 to 8) (size 9 to 14) (size 15 to 20)
#    0.000    2.125    3.750    1.500    0.000    4.250 
#    0.000    1.875    0.000    3.000    0.000    1.750 
#    0.000    0.000    0.000    0.000    0.000    0.000 
#
# Total GULP energy -793425.120584 kJ/mol
# GULP energy per Si atom -12397.267509 kJ/mol
# Density = 1.741519 g / cm^3
# Si number density = 17.454917 Si / 1000 Ang^3
#
#
#
# Elastic Constant Matrix: (Units=GPa)
#
#
# Indices 1 2 3 4 5 6 
#
# 1 114.7254 38.5690 43.0608 0.0000 0.0000 0.0000
# 2 38.5690 69.9393 34.7810 0.0000 0.0000 0.0000
# 3 43.0608 34.7810 91.7527 0.0000 0.0000 0.0000
# 4 0.0000 0.0000 0.0000 22.8657 0.0000 0.0000
# 5 0.0000 0.0000 0.0000 0.0000 17.0077 0.0000
# 6 0.0000 0.0000 0.0000 0.0000 0.0000 17.4452
#
#
#
# Elastic Compliance Matrix: (Units=1/GPa)
#
#
# Indices 1 2 3 4 5 6 
#
# 1 0.011655 -0.004569 -0.003738 0.000000 0.000000 0.000000
# 2 -0.004569 0.019410 -0.005214 0.000000 0.000000 0.000000
# 3 -0.003738 -0.005214 0.014630 0.000000 0.000000 0.000000
# 4 0.000000 0.000000 0.000000 0.043734 0.000000 0.000000
# 5 0.000000 0.000000 0.000000 0.000000 0.058797 0.000000
# 6 0.000000 0.000000 0.000000 0.000000 0.000000 0.057322
#
#
# Mechanical properties :
#
#
# Convention : Reuss Voigt Hill
#
# Bulk Modulus (GPa) = 53.60721 56.58214 55.09467
# Shear Modulus (GPa) = 20.93734 22.13082 21.53408
#
# Velocity S-wave (km/s) = 3.46715 3.56460 3.51621
# Velocity P-wave (km/s) = 6.84154 7.03053 6.93668
#
# Compressibility (1/GPa) = 0.01865421
#
# Stress axis : x y z
#
# Youngs Moduli (GPa) = 85.79681 51.51892 68.35401
#
# Poissons Ratio (x) = 0.23536 0.25553
# Poissons Ratio (y) = 0.39196 0.35639
# Poissons Ratio (z) = 0.32073 0.26861
#
# Static dielectric constant tensor:
#      x y z
#    x 3.375140 0.000000 0.000000 
#    y 0.000000 3.081660 0.000000 
#    z 0.000000 0.000000 3.182160 
# 
# 
# High freq. dielectric constant tensor:
#      x y z
#    x 1.666080 0.000000 0.000000 
#    y 0.000000 1.646360 0.000000 
#    z 0.000000 0.000000 1.671220 
# 
# From -- ./inp_files/70690.got.cif
#   From: 2010.03.12/outbox.cif.g09.slc.cpg/sg65_36_cif.got.tgz:70690.got - 2010.04.10 20:52:16.
