data_PCOD8265654
_publ_section_title
;
Structure prediction by ZEFSAII (Michael W. Deem and Ramdas Pophale) SiO2 
 PCOD8265654
Probable space group: C M M M
;
_chemical_formula_sum "Si O2"
_cell_formula_units_Z 104
_cell_length_a 27.243428
_cell_length_b 8.934093
_cell_length_c 26.769397
_cell_angle_alpha 90.000000
_cell_angle_beta 90.000000
_cell_angle_gamma 90.000000
_cell_volume 6515.545933
_symmetry_space_group_name_H-M "C M M M"
_symmetry_group_IT_number 65
_symmetry_cell_setting 'orthorhombic'
loop_
_space_group_symop_operation_xyz
x,y,z
-x,-y,z
x,-y,-z
-x,y,-z
-x,-y,-z
x,y,-z
-x,y,z
x,-y,z
1/2+x,1/2+y,z
1/2-x,1/2-y,z
1/2+x,1/2-y,-z
1/2-x,1/2+y,-z
1/2-x,1/2-y,-z
1/2+x,1/2+y,-z
1/2-x,1/2+y,z
1/2+x,1/2-y,z
loop_
_atom_site_type_symbol
_atom_site_label
_atom_site_fract_x
_atom_site_fract_y
_atom_site_fract_z
Si Si1 0.055023 0.178850 0.340454
Si Si2 0.351453 0.170982 0.091712
Si Si3 0.107027 0.822759 0.758711
Si Si4 0.698768 0.826781 0.803989
Si Si5 0.058368 0.168062 0.447117
Si Si6 0.696905 0.324526 0.000000
Si Si7 0.444351 0.827159 0.847754
O O1 0.089556 0.233613 0.295624
O O2 0.075823 0.241973 0.394285
O O3 0.000000 0.239182 0.330328
O O4 0.053911 0.000000 0.343003
O O5 0.316059 0.197703 0.138640
O O6 0.407415 0.212797 0.106895
O O7 0.348061 0.000000 0.072892
O O8 0.334300 0.280245 0.048313
O O9 0.159258 0.747817 0.767803
O O10 0.067029 0.772600 0.799567
O O11 0.112247 0.000000 0.761550
O O12 0.750000 0.750000 0.793146
O O13 0.702446 0.000000 0.790517
O O14 0.074522 0.249163 0.500000
O O15 0.000000 0.163638 0.444229
O O16 0.079089 0.000000 0.449635
O O17 0.750000 0.250000 0.000000
O O18 0.705425 0.500000 0.000000
O O19 0.500000 0.797248 0.865698
O O20 0.435740 0.000000 0.832544
#
# Coordination Sequence:
#
# PCOD8265654 Si02
#       7
#    16  16  16  16  16   8  16
#     4   8  13  20  31  52  83 116 149 182 214 250
#     4   9  19  35  53  72  93 116 144 177 212 254
#     4  10  18  27  42  65  92 120 148 180 219 263
#     4  10  20  34  51  69  89 114 144 178 217 262
#     4   7   9  14  25  42  69 108 148 181 213 248
#     4  12  24  36  53  74  95 117 142 177 219 262
#     4   9  18  33  51  69  91 121 155 187 217 252
#
# _framework density 15.961824999999999
#
# number of rings (size 3 to 8) (size 9 to 14) (size 15 to 20)
#    0.000    2.923    0.000    4.846    0.000    5.231 
#    0.000    0.385    0.000    2.308    0.000    0.000 
#    0.000    3.077    0.000   18.462    0.000   15.692 
#
# Total GULP energy -644320.678284 kJ/mol
# GULP energy per Si atom -12390.782275 kJ/mol
# Density = 1.592550 g / cm^3
# Si number density = 15.961825 Si / 1000 Ang^3
#
#
#
# Elastic Constant Matrix: (Units=GPa)
#
#
# Indices 1 2 3 4 5 6 
#
# 1 108.8160 38.8739 61.9281 0.0000 0.0000 0.0000
# 2 38.8739 66.7638 49.6859 0.0000 0.0000 0.0000
# 3 61.9281 49.6859 137.4354 0.0000 0.0000 0.0000
# 4 0.0000 0.0000 0.0000 8.6849 0.0000 0.0000
# 5 0.0000 0.0000 0.0000 0.0000 15.2942 0.0000
# 6 0.0000 0.0000 0.0000 0.0000 0.0000 20.5970
#
#
#
# Elastic Compliance Matrix: (Units=1/GPa)
#
#
# Indices 1 2 3 4 5 6 
#
# 1 0.013273 -0.004484 -0.004360 0.000000 0.000000 0.000000
# 2 -0.004484 0.022006 -0.005935 0.000000 0.000000 0.000000
# 3 -0.004360 -0.005935 0.011386 0.000000 0.000000 0.000000
# 4 0.000000 0.000000 0.000000 0.115142 0.000000 0.000000
# 5 0.000000 0.000000 0.000000 0.000000 0.065384 0.000000
# 6 0.000000 0.000000 0.000000 0.000000 0.000000 0.048551
#
#
# Mechanical properties :
#
#
# Convention : Reuss Voigt Hill
#
# Bulk Modulus (GPa) = 58.45335 68.22123 63.33729
# Shear Modulus (GPa) = 16.07704 19.75036 17.91370
#
# Velocity S-wave (km/s) = 3.17711 3.52141 3.35369
# Velocity P-wave (km/s) = 7.08230 7.70499 7.40020
#
# Compressibility (1/GPa) = 0.01710766
#
# Stress axis : x y z
#
# Youngs Moduli (GPa) = 75.34231 45.44233 87.82437
#
# Poissons Ratio (x) = 0.20375 0.38289
# Poissons Ratio (y) = 0.33781 0.52126
# Poissons Ratio (z) = 0.32847 0.26971
#
# Static dielectric constant tensor:
#      x y z
#    x 2.920120 0.000000 0.000000 
#    y 0.000000 2.825430 0.000000 
#    z 0.000000 0.000000 3.354730 
# 
# 
# High freq. dielectric constant tensor:
#      x y z
#    x 1.589460 0.000000 0.000000 
#    y 0.000000 1.590620 0.000000 
#    z 0.000000 0.000000 1.616260 
# 
# From -- ./inp_files/72167.got.cif
#   From: 2010.03.12/outbox.cif.g09.slc.cpg/sg65_37_cif.got.tgz:72167.got - 2010.04.10 20:52:16.
