data_PCOD8265103
_publ_section_title
;
Structure prediction by ZEFSAII (Michael W. Deem and Ramdas Pophale) SiO2 
 PCOD8265103
Probable space group: C M M M
;
_chemical_formula_sum "Si O2"
_cell_formula_units_Z 80
_cell_length_a 8.924923
_cell_length_b 18.825558
_cell_length_c 26.144257
_cell_angle_alpha 90.000000
_cell_angle_beta 90.000000
_cell_angle_gamma 90.000000
_cell_volume 4392.670624
_symmetry_space_group_name_H-M "C M M M"
_symmetry_group_IT_number 65
_symmetry_cell_setting 'orthorhombic'
loop_
_space_group_symop_operation_xyz
x,y,z
-x,-y,z
x,-y,-z
-x,y,-z
-x,-y,-z
x,y,-z
-x,y,z
x,-y,z
1/2+x,1/2+y,z
1/2-x,1/2-y,z
1/2+x,1/2-y,-z
1/2-x,1/2+y,-z
1/2-x,1/2-y,-z
1/2+x,1/2+y,-z
1/2-x,1/2+y,z
1/2+x,1/2-y,z
loop_
_atom_site_type_symbol
_atom_site_label
_atom_site_fract_x
_atom_site_fract_y
_atom_site_fract_z
Si Si1 0.327764 0.916148 0.203358
Si Si2 0.326313 0.674327 0.402232
Si Si3 0.168907 0.915398 0.898893
Si Si4 0.178401 0.328904 0.500000
Si Si5 0.173655 0.826192 0.710932
Si Si6 0.169060 0.415240 0.000000
O O1 0.500000 0.893316 0.203836
O O2 0.256330 0.887171 0.150799
O O3 0.244930 0.882321 0.251132
O O4 0.307280 0.000000 0.207731
O O5 0.500000 0.682392 0.417091
O O6 0.250000 0.750000 0.397400
O O7 0.240564 0.632133 0.448323
O O8 0.306609 0.639676 0.346107
O O9 0.248308 0.885337 0.949718
O O10 0.000000 0.886231 0.897154
O O11 0.171004 0.000000 0.899998
O O12 0.250000 0.250000 0.500000
O O13 0.000000 0.327842 0.500000
O O14 0.250000 0.750000 0.716863
O O15 0.000000 0.815853 0.723935
O O16 0.171456 0.500000 0.000000
O O17 0.000000 0.386517 0.000000
#
# Coordination Sequence:
#
# PCOD8265103 Si02
#       6
#    16  16  16   8  16   8
#     4  10  20  33  49  70  97 128 161 198 239 283
#     4   9  16  26  40  60  87 117 149 186 229 275
#     4   9  16  26  41  62  89 120 154 192 234 280
#     4  10  16  22  36  58  85 116 147 182 227 275
#     4  10  20  33  50  71  96 127 161 198 238 282
#     4   9  15  23  37  59  88 119 150 187 234 283
#
# _framework density 18.212156
#
# number of rings (size 3 to 8) (size 9 to 14) (size 15 to 20)
#    0.000    2.500    0.000    4.800    0.000    7.200 
#    0.000    0.000    0.000    0.000    0.000    1.400 
#    0.000    5.600    0.000    0.000    0.000    0.000 
#
# Total GULP energy -495740.538272 kJ/mol
# GULP energy per Si atom -12393.513457 kJ/mol
# Density = 1.817070 g / cm^3
# Si number density = 18.212156 Si / 1000 Ang^3
#
#
#
# Elastic Constant Matrix: (Units=GPa)
#
#
# Indices 1 2 3 4 5 6 
#
# 1 186.7286 21.6283 103.7703 0.0000 0.0000 0.0000
# 2 21.6283 10.4906 22.3777 0.0000 0.0000 0.0000
# 3 103.7703 22.3777 187.4526 0.0000 0.0000 0.0000
# 4 0.0000 0.0000 0.0000 12.6707 0.0000 0.0000
# 5 0.0000 0.0000 0.0000 0.0000 40.4343 0.0000
# 6 0.0000 0.0000 0.0000 0.0000 0.0000 17.3298
#
#
#
# Elastic Compliance Matrix: (Units=1/GPa)
#
#
# Indices 1 2 3 4 5 6 
#
# 1 0.008449 -0.009984 -0.003485 0.000000 0.000000 0.000000
# 2 -0.009984 0.139688 -0.011149 0.000000 0.000000 0.000000
# 3 -0.003485 -0.011149 0.008595 0.000000 0.000000 0.000000
# 4 0.000000 0.000000 0.000000 0.078922 0.000000 0.000000
# 5 0.000000 0.000000 0.000000 0.000000 0.024731 0.000000
# 6 0.000000 0.000000 0.000000 0.000000 0.000000 0.057704
#
#
# Mechanical properties :
#
#
# Convention : Reuss Voigt Hill
#
# Bulk Modulus (GPa) = 9.30267 75.58049 42.44158
# Shear Modulus (GPa) = 12.40211 29.88000 21.14105
#
# Velocity S-wave (km/s) = 2.61239 4.05490 3.41078
# Velocity P-wave (km/s) = 3.77074 7.96951 6.23424
#
# Compressibility (1/GPa) = 0.10749604
#
# Stress axis : x y z
#
# Youngs Moduli (GPa) = 118.36350 7.15879 116.34837
#
# Poissons Ratio (x) = 0.07147 0.40548
# Poissons Ratio (y) = 1.18175 1.29714
# Poissons Ratio (z) = 0.41251 0.07981
#
# Static dielectric constant tensor:
#      x y z
#    x 3.602200 0.000000 0.000000 
#    y 0.000000 2.597430 0.000000 
#    z 0.000000 0.000000 4.275480 
# 
# 
# High freq. dielectric constant tensor:
#      x y z
#    x 1.729770 0.000000 0.000000 
#    y 0.000000 1.614330 0.000000 
#    z 0.000000 0.000000 1.737190 
# 
# From -- ./inp_files/72908.got.cif
#   From: 2010.03.12/outbox.cif.g09.slc.cpg/sg65_37_cif.got.tgz:72908.got - 2010.04.10 20:52:16.
