data_PCOD8265466
_publ_section_title
;
Structure prediction by ZEFSAII (Michael W. Deem and Ramdas Pophale) SiO2 
 PCOD8265466
Probable space group: C M M M
;
_chemical_formula_sum "Si O2"
_cell_formula_units_Z 80
_cell_length_a 17.528894
_cell_length_b 18.042817
_cell_length_c 14.341579
_cell_angle_alpha 90.000000
_cell_angle_beta 90.000000
_cell_angle_gamma 90.000000
_cell_volume 4535.820178
_symmetry_space_group_name_H-M "C M M M"
_symmetry_group_IT_number 65
_symmetry_cell_setting 'orthorhombic'
loop_
_space_group_symop_operation_xyz
x,y,z
-x,-y,z
x,-y,-z
-x,y,-z
-x,-y,-z
x,y,-z
-x,y,z
x,-y,z
1/2+x,1/2+y,z
1/2-x,1/2-y,z
1/2+x,1/2-y,-z
1/2-x,1/2+y,-z
1/2-x,1/2-y,-z
1/2+x,1/2+y,-z
1/2-x,1/2+y,z
1/2+x,1/2-y,z
loop_
_atom_site_type_symbol
_atom_site_label
_atom_site_fract_x
_atom_site_fract_y
_atom_site_fract_z
Si Si1 0.411651 0.208348 0.217576
Si Si2 0.212988 0.080964 0.395991
Si Si3 0.338157 0.734539 0.604997
Si Si4 0.205266 0.415577 0.210235
Si Si5 0.186825 0.813150 0.105029
O O1 0.500000 0.193570 0.201392
O O2 0.394856 0.223138 0.326457
O O3 0.367815 0.134230 0.183988
O O4 0.386583 0.280466 0.158422
O O5 0.249471 0.088688 0.500000
O O6 0.150001 0.145570 0.383668
O O7 0.281106 0.089251 0.321481
O O8 0.173489 0.000000 0.383859
O O9 0.355875 0.761154 0.500000
O O10 0.250000 0.750000 0.632632
O O11 0.189954 0.500000 0.178287
O O12 0.280783 0.385612 0.157373
O O13 0.250000 0.750000 0.106285
O O14 0.163661 0.835069 0.000000
#
# Coordination Sequence:
#
# PCOD8265466 Si02
#       5
#    16  16  16  16  16
#     4  11  21  33  49  76 113 143 169 204 256 320
#     4   9  16  27  49  76  99 127 167 216 260 294
#     4  10  17  30  51  72  99 137 184 226 253 288
#     4  10  19  33  54  78 103 134 176 218 253 295
#     4   9  18  35  56  75  95 126 173 221 259 298
#
# _framework density 17.637383
#
# number of rings (size 3 to 8) (size 9 to 14) (size 15 to 20)
#    0.000    2.200    4.000    0.600    0.000    1.600 
#    0.000    0.000    0.000    2.400    0.000   14.000 
#    0.000    0.000    0.000    0.000    0.000    0.000 
#
# Total GULP energy -495776.282201 kJ/mol
# GULP energy per Si atom -12394.407055 kJ/mol
# Density = 1.759724 g / cm^3
# Si number density = 17.637383 Si / 1000 Ang^3
#
#
#
# Elastic Constant Matrix: (Units=GPa)
#
#
# Indices 1 2 3 4 5 6 
#
# 1 72.4509 40.5033 32.1076 0.0000 0.0000 0.0000
# 2 40.5033 122.4768 31.7493 0.0000 0.0000 0.0000
# 3 32.1076 31.7493 100.7555 0.0000 0.0000 0.0000
# 4 0.0000 0.0000 0.0000 16.6722 0.0000 0.0000
# 5 0.0000 0.0000 0.0000 0.0000 12.6477 0.0000
# 6 0.0000 0.0000 0.0000 0.0000 0.0000 15.4274
#
#
#
# Elastic Compliance Matrix: (Units=1/GPa)
#
#
# Indices 1 2 3 4 5 6 
#
# 1 0.018515 -0.005002 -0.004324 0.000000 0.000000 0.000000
# 2 -0.005002 0.010242 -0.001634 0.000000 0.000000 0.000000
# 3 -0.004324 -0.001634 0.011818 0.000000 0.000000 0.000000
# 4 0.000000 0.000000 0.000000 0.059980 0.000000 0.000000
# 5 0.000000 0.000000 0.000000 0.000000 0.079066 0.000000
# 6 0.000000 0.000000 0.000000 0.000000 0.000000 0.064820
#
#
# Mechanical properties :
#
#
# Convention : Reuss Voigt Hill
#
# Bulk Modulus (GPa) = 53.60180 56.04484 54.82332
# Shear Modulus (GPa) = 18.34334 21.70433 20.02384
#
# Velocity S-wave (km/s) = 3.22844 3.51178 3.37309
# Velocity P-wave (km/s) = 6.65989 6.94900 6.80598
#
# Compressibility (1/GPa) = 0.01865609
#
# Stress axis : x y z
#
# Youngs Moduli (GPa) = 54.01015 97.63281 84.61909
#
# Poissons Ratio (x) = 0.48837 0.36589
# Poissons Ratio (y) = 0.27016 0.13823
# Poissons Ratio (z) = 0.23354 0.15949
#
# Static dielectric constant tensor:
#      x y z
#    x 2.722180 0.000000 0.000000 
#    y 0.000000 3.591340 0.000000 
#    z 0.000000 0.000000 3.460320 
# 
# 
# High freq. dielectric constant tensor:
#      x y z
#    x 1.614100 0.000000 0.000000 
#    y 0.000000 1.691490 0.000000 
#    z 0.000000 0.000000 1.692160 
# 
# From -- ./inp_files/42333.got.cif
#   From: 2010.03.12/outbox.cif.g09.slc.cpg/sg65_22_cif.got.tgz:42333.got - 2010.04.10 20:52:16.
