data_PCOD8265966
_publ_section_title
;
Structure prediction by ZEFSAII (Michael W. Deem and Ramdas Pophale) SiO2 
 PCOD8265966
Probable space group: C M M M
;
_chemical_formula_sum "Si O2"
_cell_formula_units_Z 104
_cell_length_a 9.038282
_cell_length_b 27.373392
_cell_length_c 26.532072
_cell_angle_alpha 90.000000
_cell_angle_beta 90.000000
_cell_angle_gamma 90.000000
_cell_volume 6564.258442
_symmetry_space_group_name_H-M "C M M M"
_symmetry_group_IT_number 65
_symmetry_cell_setting 'orthorhombic'
loop_
_space_group_symop_operation_xyz
x,y,z
-x,-y,z
x,-y,-z
-x,y,-z
-x,-y,-z
x,y,-z
-x,y,z
x,-y,z
1/2+x,1/2+y,z
1/2-x,1/2-y,z
1/2+x,1/2-y,-z
1/2-x,1/2+y,-z
1/2-x,1/2-y,-z
1/2+x,1/2+y,-z
1/2-x,1/2+y,z
1/2+x,1/2-y,z
loop_
_atom_site_type_symbol
_atom_site_label
_atom_site_fract_x
_atom_site_fract_y
_atom_site_fract_z
Si Si1 0.674054 0.197241 0.109448
Si Si2 0.831513 0.700059 0.000000
Si Si3 0.824473 0.445443 0.444205
Si Si4 0.827149 0.859449 0.196588
Si Si5 0.171068 0.556048 0.750561
Si Si6 0.327723 0.886442 0.650354
Si Si7 0.172897 0.198529 0.703023
O O1 0.500000 0.203614 0.120269
O O2 0.750000 0.250000 0.115825
O O3 0.742195 0.158627 0.147527
O O4 0.704574 0.173613 0.053369
O O5 0.750000 0.750000 0.000000
O O6 0.000000 0.715355 0.000000
O O7 0.777657 0.426745 0.500000
O O8 0.760776 0.500000 0.435304
O O9 0.763753 0.408774 0.401675
O O10 0.000000 0.447834 0.439565
O O11 0.769185 0.913249 0.210351
O O12 0.790846 0.822301 0.241770
O O13 0.000000 0.862293 0.184982
O O14 0.220616 0.500000 0.754600
O O15 0.200020 0.573625 0.693688
O O16 0.000000 0.562986 0.765138
O O17 0.500000 0.872657 0.646482
O O18 0.236649 0.837447 0.660684
O O19 0.250000 0.250000 0.696915
O O20 0.000000 0.204711 0.694151
#
# Coordination Sequence:
#
# PCOD8265966 Si02
#       7
#    16   8  16  16  16  16  16
#     4  10  18  29  45  65  91 120 149 181 216 256
#     4   8  16  28  42  62  87 116 147 178 214 255
#     4   8  13  22  40  68  96 117 140 173 212 254
#     4  10  20  31  44  65  90 117 148 180 218 261
#     4   9  17  29  45  65  89 117 148 180 215 257
#     4   9  16  27  45  67  90 116 145 177 213 255
#     4  10  20  32  45  62  86 115 147 182 218 257
#
# _framework density 15.843373
#
# number of rings (size 3 to 8) (size 9 to 14) (size 15 to 20)
#    0.000    2.769    0.000    2.769    0.000    5.846 
#    0.000    0.000    0.000    2.308    0.000    1.615 
#    0.000    4.308    0.000    0.000    0.000    0.000 
#
# Total GULP energy -644551.389817 kJ/mol
# GULP energy per Si atom -12395.219035 kJ/mol
# Density = 1.580731 g / cm^3
# Si number density = 15.843373 Si / 1000 Ang^3
#
#
#
# Elastic Constant Matrix: (Units=GPa)
#
#
# Indices 1 2 3 4 5 6 
#
# 1 65.0001 50.0593 53.8207 0.0000 0.0000 0.0000
# 2 50.0593 116.7014 67.5603 0.0000 0.0000 0.0000
# 3 53.8207 67.5603 130.3808 0.0000 0.0000 0.0000
# 4 0.0000 0.0000 0.0000 21.5665 0.0000 0.0000
# 5 0.0000 0.0000 0.0000 0.0000 15.7929 0.0000
# 6 0.0000 0.0000 0.0000 0.0000 0.0000 23.3925
#
#
#
# Elastic Compliance Matrix: (Units=1/GPa)
#
#
# Indices 1 2 3 4 5 6 
#
# 1 0.027199 -0.007381 -0.007403 0.000000 0.000000 0.000000
# 2 -0.007381 0.014244 -0.004334 0.000000 0.000000 0.000000
# 3 -0.007403 -0.004334 0.012971 0.000000 0.000000 0.000000
# 4 0.000000 0.000000 0.000000 0.046368 0.000000 0.000000
# 5 0.000000 0.000000 0.000000 0.000000 0.063320 0.000000
# 6 0.000000 0.000000 0.000000 0.000000 0.000000 0.042749
#
#
# Mechanical properties :
#
#
# Convention : Reuss Voigt Hill
#
# Bulk Modulus (GPa) = 61.81154 72.77365 67.29260
# Shear Modulus (GPa) = 19.96169 21.52652 20.74410
#
# Velocity S-wave (km/s) = 3.55341 3.69006 3.62238
# Velocity P-wave (km/s) = 7.47894 8.01176 7.74993
#
# Compressibility (1/GPa) = 0.01617821
#
# Stress axis : x y z
#
# Youngs Moduli (GPa) = 36.76625 70.20419 77.09277
#
# Poissons Ratio (x) = 0.51821 0.57069
# Poissons Ratio (y) = 0.27139 0.33412
# Poissons Ratio (z) = 0.27217 0.30426
#
# Static dielectric constant tensor:
#      x y z
#    x 2.945940 0.000000 0.000000 
#    y 0.000000 2.871970 0.000000 
#    z 0.000000 0.000000 4.089010 
# 
# 
# High freq. dielectric constant tensor:
#      x y z
#    x 1.603030 0.000000 0.000000 
#    y 0.000000 1.586800 0.000000 
#    z 0.000000 0.000000 1.607800 
# 
# From -- ./inp_files/73563.got.cif
#   From: 2010.03.12/outbox.cif.g09.slc.cpg/sg65_37_cif.got.tgz:73563.got - 2010.04.10 20:52:16.
