data_PCOD8265631
_publ_section_title
;
Structure prediction by ZEFSAII (Michael W. Deem and Ramdas Pophale) SiO2 
 PCOD8265631
Probable space group: C M M M
;
_chemical_formula_sum "Si O2"
_cell_formula_units_Z 96
_cell_length_a 26.429134
_cell_length_b 28.497386
_cell_length_c 9.025146
_cell_angle_alpha 90.000000
_cell_angle_beta 90.000000
_cell_angle_gamma 90.000000
_cell_volume 6797.390092
_symmetry_space_group_name_H-M "C M M M"
_symmetry_group_IT_number 65
_symmetry_cell_setting 'orthorhombic'
loop_
_space_group_symop_operation_xyz
x,y,z
-x,-y,z
x,-y,-z
-x,y,-z
-x,-y,-z
x,y,-z
-x,y,z
x,-y,z
1/2+x,1/2+y,z
1/2-x,1/2-y,z
1/2+x,1/2-y,-z
1/2-x,1/2+y,-z
1/2-x,1/2-y,-z
1/2+x,1/2+y,-z
1/2-x,1/2+y,z
1/2+x,1/2-y,z
loop_
_atom_site_type_symbol
_atom_site_label
_atom_site_fract_x
_atom_site_fract_y
_atom_site_fract_z
Si Si1 0.199354 0.719984 0.667137
Si Si2 0.942327 0.147384 0.673246
Si Si3 0.400531 0.550573 0.675565
Si Si4 0.244991 0.857820 0.173697
Si Si5 0.714435 0.552989 0.672077
Si Si6 0.645951 0.299330 0.825813
O O1 0.181269 0.709835 0.500000
O O2 0.250000 0.750000 0.669271
O O3 0.209701 0.671045 0.749992
O O4 0.155982 0.748731 0.752467
O O5 0.928349 0.150785 0.500000
O O6 0.934436 0.093899 0.731708
O O7 0.907042 0.182240 0.763962
O O8 0.000000 0.161959 0.703000
O O9 0.401294 0.548407 0.500000
O O10 0.420927 0.500000 0.736583
O O11 0.343065 0.557627 0.729109
O O12 0.247976 0.910945 0.233303
O O13 0.190522 0.835679 0.215740
O O14 0.254572 0.856939 0.000000
O O15 0.718472 0.566687 0.500000
O O16 0.734298 0.500000 0.698797
O O17 0.641828 0.292097 0.000000
#
# Coordination Sequence:
#
# PCOD8265631 Si02
#       6
#    16  16  16  16  16  16
#     4   9  17  28  44  62  78  98 124 157 196 239
#     4  10  19  29  43  60  76  99 134 173 211 251
#     4   8  14  25  40  56  73  95 128 172 215 248
#     4  10  18  27  41  61  82 103 128 160 199 244
#     4   9  16  26  41  58  77 105 138 169 202 240
#     4  10  19  30  42  57  79 103 126 161 204 248
#
# _framework density 14.123067000000001
#
# number of rings (size 3 to 8) (size 9 to 14) (size 15 to 20)
#    0.000    2.667    1.667    2.500    0.000    4.333 
#    0.000    1.667    0.000    0.500    0.000    1.167 
#    0.000    0.000    0.000    0.000    0.000    0.833 
#
# Total GULP energy -595050.291268 kJ/mol
# GULP energy per Si atom -12396.881068 kJ/mol
# Density = 1.409092 g / cm^3
# Si number density = 14.123067 Si / 1000 Ang^3
#
#
#
# Elastic Constant Matrix: (Units=GPa)
#
#
# Indices 1 2 3 4 5 6 
#
# 1 49.3079 45.0879 31.0116 0.0000 0.0000 0.0000
# 2 45.0879 88.7070 47.7780 0.0000 0.0000 0.0000
# 3 31.0116 47.7780 70.9383 0.0000 0.0000 0.0000
# 4 0.0000 0.0000 0.0000 17.4620 0.0000 0.0000
# 5 0.0000 0.0000 0.0000 0.0000 15.8914 0.0000
# 6 0.0000 0.0000 0.0000 0.0000 0.0000 21.7229
#
#
#
# Elastic Compliance Matrix: (Units=1/GPa)
#
#
# Indices 1 2 3 4 5 6 
#
# 1 0.039386 -0.016862 -0.005861 0.000000 0.000000 0.000000
# 2 -0.016862 0.024910 -0.009405 0.000000 0.000000 0.000000
# 3 -0.005861 -0.009405 0.022994 0.000000 0.000000 0.000000
# 4 0.000000 0.000000 0.000000 0.057267 0.000000 0.000000
# 5 0.000000 0.000000 0.000000 0.000000 0.062927 0.000000
# 6 0.000000 0.000000 0.000000 0.000000 0.000000 0.046034
#
#
# Mechanical properties :
#
#
# Convention : Reuss Voigt Hill
#
# Bulk Modulus (GPa) = 43.41834 50.74534 47.08184
# Shear Modulus (GPa) = 15.36319 16.68697 16.02508
#
# Velocity S-wave (km/s) = 3.30177 3.44108 3.37215
# Velocity P-wave (km/s) = 6.73388 7.19701 6.96929
#
# Compressibility (1/GPa) = 0.02303174
#
# Stress axis : x y z
#
# Youngs Moduli (GPa) = 25.38963 40.14507 43.49014
#
# Poissons Ratio (x) = 0.67694 0.25490
# Poissons Ratio (y) = 0.42813 0.40904
# Poissons Ratio (z) = 0.14881 0.37758
#
# Static dielectric constant tensor:
#      x y z
#    x 2.425390 0.000000 0.000000 
#    y 0.000000 2.911810 0.000000 
#    z 0.000000 0.000000 2.680370 
# 
# 
# High freq. dielectric constant tensor:
#      x y z
#    x 1.485790 0.000000 0.000000 
#    y 0.000000 1.535080 0.000000 
#    z 0.000000 0.000000 1.535710 
# 
# From -- ./inp_files/14558.got.cif
#   From: 2010.03.12/outbox.cif.g09.slc.cpg/sg65_8_cif.got.tgz:14558.got - 2010.04.10 20:52:16.
