data_PCOD8265367
_publ_section_title
;
Structure prediction by ZEFSAII (Michael W. Deem and Ramdas Pophale) SiO2 
 PCOD8265367
Probable space group: C M M M
;
_chemical_formula_sum "Si O2"
_cell_formula_units_Z 88
_cell_length_a 30.558978
_cell_length_b 23.624632
_cell_length_c 8.827132
_cell_angle_alpha 90.000000
_cell_angle_beta 90.000000
_cell_angle_gamma 90.000000
_cell_volume 6372.700365
_symmetry_space_group_name_H-M "C M M M"
_symmetry_group_IT_number 65
_symmetry_cell_setting 'orthorhombic'
loop_
_space_group_symop_operation_xyz
x,y,z
-x,-y,z
x,-y,-z
-x,y,-z
-x,-y,-z
x,y,-z
-x,y,z
x,-y,z
1/2+x,1/2+y,z
1/2-x,1/2-y,z
1/2+x,1/2-y,-z
1/2-x,1/2+y,-z
1/2-x,1/2-y,-z
1/2+x,1/2+y,-z
1/2-x,1/2+y,z
1/2+x,1/2-y,z
loop_
_atom_site_type_symbol
_atom_site_label
_atom_site_fract_x
_atom_site_fract_y
_atom_site_fract_z
Si Si1 0.740084 0.500000 0.180016
Si Si2 0.907834 0.109480 0.820286
Si Si3 0.705191 0.783695 0.830101
Si Si4 0.858208 0.000000 0.820664
Si Si5 0.662458 0.317326 0.678800
Si Si6 0.000000 0.064461 0.179539
Si Si7 0.750308 0.883040 0.321138
O O1 0.690636 0.500000 0.241113
O O2 0.761485 0.556862 0.245619
O O3 0.743950 0.500000 0.000000
O O4 0.884777 0.162320 0.738999
O O5 0.958029 0.101013 0.768111
O O6 0.882650 0.054702 0.758483
O O7 0.903837 0.117307 0.000000
O O8 0.750000 0.750000 0.834658
O O9 0.669126 0.744919 0.748480
O O10 0.712317 0.840870 0.734994
O O11 0.689482 0.798570 0.000000
O O12 0.859625 0.000000 0.000000
O O13 0.661762 0.311494 0.500000
O O14 0.701645 0.360018 0.730139
O O15 0.000000 0.000000 0.246710
O O16 0.000000 0.057902 0.000000
O O17 0.747725 0.888827 0.500000
#
# Coordination Sequence:
#
# PCOD8265367 Si02
#       7
#     8  16  16   8  16   8  16
#     4  11  19  27  40  59  79 104 138 169 198 237
#     4  10  17  28  43  59  75  99 134 172 210 249
#     4   9  17  29  44  59  74  96 127 162 197 236
#     4   9  16  24  39  56  73  97 131 171 206 240
#     4  10  19  29  41  57  77 101 128 163 205 246
#     4   9  16  26  43  61  77  99 133 174 213 248
#     4  10  19  29  40  57  81 104 127 160 202 242
#
# _framework density 13.808902
#
# number of rings (size 3 to 8) (size 9 to 14) (size 15 to 20)
#    0.000    2.273    2.727    1.909    0.000    3.636 
#    0.000    0.909    0.000    0.545    0.000    0.000 
#    0.000    0.000    0.000    0.000    0.000    0.909 
#
# Total GULP energy -545477.407583 kJ/mol
# GULP energy per Si atom -12397.213809 kJ/mol
# Density = 1.377747 g / cm^3
# Si number density = 13.808902 Si / 1000 Ang^3
#
#
#
# Elastic Constant Matrix: (Units=GPa)
#
#
# Indices 1 2 3 4 5 6 
#
# 1 65.4488 47.7356 22.8357 0.0000 0.0000 0.0000
# 2 47.7356 100.7758 37.3002 0.0000 0.0000 0.0000
# 3 22.8357 37.3002 60.6371 0.0000 0.0000 0.0000
# 4 0.0000 0.0000 0.0000 20.1799 0.0000 0.0000
# 5 0.0000 0.0000 0.0000 0.0000 13.2809 0.0000
# 6 0.0000 0.0000 0.0000 0.0000 0.0000 18.0556
#
#
#
# Elastic Compliance Matrix: (Units=1/GPa)
#
#
# Indices 1 2 3 4 5 6 
#
# 1 0.023659 -0.010241 -0.002610 0.000000 0.000000 0.000000
# 2 -0.010241 0.017281 -0.006774 0.000000 0.000000 0.000000
# 3 -0.002610 -0.006774 0.021641 0.000000 0.000000 0.000000
# 4 0.000000 0.000000 0.000000 0.049554 0.000000 0.000000
# 5 0.000000 0.000000 0.000000 0.000000 0.075296 0.000000
# 6 0.000000 0.000000 0.000000 0.000000 0.000000 0.055385
#
#
# Mechanical properties :
#
#
# Convention : Reuss Voigt Hill
#
# Bulk Modulus (GPa) = 42.85979 49.17832 46.01906
# Shear Modulus (GPa) = 17.25071 18.23595 17.74333
#
# Velocity S-wave (km/s) = 3.53830 3.63794 3.58847
# Velocity P-wave (km/s) = 6.91361 7.30321 7.11108
#
# Compressibility (1/GPa) = 0.02333189
#
# Stress axis : x y z
#
# Youngs Moduli (GPa) = 42.26720 57.86728 46.20783
#
# Poissons Ratio (x) = 0.59260 0.12063
# Poissons Ratio (y) = 0.43284 0.31299
# Poissons Ratio (z) = 0.11034 0.39197
#
# Static dielectric constant tensor:
#      x y z
#    x 2.561850 0.000000 0.000000 
#    y 0.000000 2.737390 0.000000 
#    z 0.000000 0.000000 2.645500 
# 
# 
# High freq. dielectric constant tensor:
#      x y z
#    x 1.481370 0.000000 0.000000 
#    y 0.000000 1.514940 0.000000 
#    z 0.000000 0.000000 1.527050 
# 
# From -- ./inp_files/18577.got.cif
#   From: 2010.03.12/outbox.cif.g09.slc.cpg/sg65_10_cif.got.tgz:18577.got - 2010.04.10 20:52:16.
