data_PCOD8265151
_publ_section_title
;
Structure prediction by ZEFSAII (Michael W. Deem and Ramdas Pophale) SiO2 
 PCOD8265151
Probable space group: C M M M
;
_chemical_formula_sum "Si O2"
_cell_formula_units_Z 96
_cell_length_a 27.547237
_cell_length_b 20.365090
_cell_length_c 12.985276
_cell_angle_alpha 90.000000
_cell_angle_beta 90.000000
_cell_angle_gamma 90.000000
_cell_volume 7284.765297
_symmetry_space_group_name_H-M "C M M M"
_symmetry_group_IT_number 65
_symmetry_cell_setting 'orthorhombic'
loop_
_space_group_symop_operation_xyz
x,y,z
-x,-y,z
x,-y,-z
-x,y,-z
-x,-y,-z
x,y,-z
-x,y,z
x,-y,z
1/2+x,1/2+y,z
1/2-x,1/2-y,z
1/2+x,1/2-y,-z
1/2-x,1/2+y,-z
1/2-x,1/2-y,-z
1/2+x,1/2+y,-z
1/2-x,1/2+y,z
1/2+x,1/2-y,z
loop_
_atom_site_type_symbol
_atom_site_label
_atom_site_fract_x
_atom_site_fract_y
_atom_site_fract_z
Si Si1 0.671975 0.231592 0.885861
Si Si2 0.268119 0.354425 0.500000
Si Si3 0.862010 0.662358 0.304756
Si Si4 0.268235 0.645815 0.885806
Si Si5 0.444433 0.924831 0.618617
Si Si6 0.234416 0.576315 0.695032
Si Si7 0.328067 0.768626 0.500000
O O1 0.634949 0.204359 0.800486
O O2 0.685292 0.307675 0.863441
O O3 0.720856 0.190258 0.879609
O O4 0.648641 0.224720 0.000000
O O5 0.268008 0.399764 0.398923
O O6 0.316226 0.309076 0.500000
O O7 0.221494 0.308502 0.500000
O O8 0.911292 0.620908 0.310530
O O9 0.816918 0.612850 0.306086
O O10 0.858856 0.713493 0.398883
O O11 0.264317 0.589205 0.800242
O O12 0.272709 0.614087 0.000000
O O13 0.428359 0.917119 0.500000
O O14 0.500000 0.902888 0.633141
O O15 0.437712 0.000000 0.653484
O O16 0.223398 0.500000 0.683477
#
# Coordination Sequence:
#
# PCOD8265151 Si02
#       7
#    16   8  16  16  16  16   8
#     4   8  14  24  39  54  69  91 118 152 189 217
#     4   9  17  26  32  46  73  95 115 144 183 228
#     4  10  16  25  39  56  71  88 123 164 188 215
#     4   8  14  25  37  50  69  93 122 154 183 211
#     4   9  17  28  40  54  74  98 122 152 192 231
#     4  10  18  24  33  50  72 100 126 152 182 212
#     4   9  16  24  37  53  66  88 116 153 191 214
#
# _framework density 13.178186999999999
#
# number of rings (size 3 to 8) (size 9 to 14) (size 15 to 20)
#    0.000    3.000    0.833    3.250    0.000    4.333 
#    0.000    0.000    0.000    2.000    0.000    1.167 
#    0.000    0.000    0.000    0.000    0.000   34.167 
#
# Total GULP energy -594967.135178 kJ/mol
# GULP energy per Si atom -12395.148650 kJ/mol
# Density = 1.314819 g / cm^3
# Si number density = 13.178187 Si / 1000 Ang^3
#
#
#
# Elastic Constant Matrix: (Units=GPa)
#
#
# Indices 1 2 3 4 5 6 
#
# 1 43.0120 21.9855 31.0257 0.0000 0.0000 0.0000
# 2 21.9855 45.5061 34.0111 0.0000 0.0000 0.0000
# 3 31.0257 34.0111 102.7444 0.0000 0.0000 0.0000
# 4 0.0000 0.0000 0.0000 16.4136 0.0000 0.0000
# 5 0.0000 0.0000 0.0000 0.0000 12.9610 0.0000
# 6 0.0000 0.0000 0.0000 0.0000 0.0000 21.6162
#
#
#
# Elastic Compliance Matrix: (Units=1/GPa)
#
#
# Indices 1 2 3 4 5 6 
#
# 1 0.033743 -0.011543 -0.006368 0.000000 0.000000 0.000000
# 2 -0.011543 0.033148 -0.007487 0.000000 0.000000 0.000000
# 3 -0.006368 -0.007487 0.014134 0.000000 0.000000 0.000000
# 4 0.000000 0.000000 0.000000 0.060925 0.000000 0.000000
# 5 0.000000 0.000000 0.000000 0.000000 0.077155 0.000000
# 6 0.000000 0.000000 0.000000 0.000000 0.000000 0.046262
#
#
# Mechanical properties :
#
#
# Convention : Reuss Voigt Hill
#
# Bulk Modulus (GPa) = 33.08134 40.58968 36.83551
# Shear Modulus (GPa) = 15.32615 17.14748 16.23682
#
# Velocity S-wave (km/s) = 3.41397 3.61113 3.51393
# Velocity P-wave (km/s) = 6.37949 6.94655 6.66905
#
# Compressibility (1/GPa) = 0.03022852
#
# Stress axis : x y z
#
# Youngs Moduli (GPa) = 29.63567 30.16804 70.74916
#
# Poissons Ratio (x) = 0.34822 0.45056
# Poissons Ratio (y) = 0.34207 0.52971
# Poissons Ratio (z) = 0.18873 0.22587
#
# Static dielectric constant tensor:
#      x y z
#    x 2.262260 0.000000 0.000000 
#    y 0.000000 2.562690 0.000000 
#    z 0.000000 0.000000 2.900570 
# 
# 
# High freq. dielectric constant tensor:
#      x y z
#    x 1.445800 0.000000 0.000000 
#    y 0.000000 1.487200 0.000000 
#    z 0.000000 0.000000 1.511940 
# 
# From -- ./inp_files/29531.got.cif
#   From: 2010.03.12/outbox.cif.g09.slc.cpg/sg65_15_cif.got.tgz:29531.got - 2010.04.10 20:52:16.
