data_PCOD8265679
_publ_section_title
;
Structure prediction by ZEFSAII (Michael W. Deem and Ramdas Pophale) SiO2 
 PCOD8265679
Probable space group: C M M M
;
_chemical_formula_sum "Si O2"
_cell_formula_units_Z 80
_cell_length_a 19.949447
_cell_length_b 25.773784
_cell_length_c 9.000376
_cell_angle_alpha 90.000000
_cell_angle_beta 90.000000
_cell_angle_gamma 90.000000
_cell_volume 4627.747970
_symmetry_space_group_name_H-M "C M M M"
_symmetry_group_IT_number 65
_symmetry_cell_setting 'orthorhombic'
loop_
_space_group_symop_operation_xyz
x,y,z
-x,-y,z
x,-y,-z
-x,y,-z
-x,-y,-z
x,y,-z
-x,y,z
x,-y,z
1/2+x,1/2+y,z
1/2-x,1/2-y,z
1/2+x,1/2-y,-z
1/2-x,1/2+y,-z
1/2-x,1/2-y,-z
1/2+x,1/2+y,-z
1/2-x,1/2+y,z
1/2+x,1/2-y,z
loop_
_atom_site_type_symbol
_atom_site_label
_atom_site_fract_x
_atom_site_fract_y
_atom_site_fract_z
Si Si1 0.670613 0.754605 0.163807
Si Si2 0.074566 0.942127 0.823479
Si Si3 0.678258 0.856480 0.324029
Si Si4 0.178953 0.858453 0.823346
Si Si5 0.425123 0.942112 0.323540
O O1 0.750000 0.750000 0.154608
O O2 0.649240 0.800146 0.276084
O O3 0.646307 0.697661 0.218145
O O4 0.641608 0.767619 0.000000
O O5 0.128121 0.901474 0.759396
O O6 0.000000 0.928439 0.764420
O O7 0.094822 0.000000 0.770871
O O8 0.074554 0.939263 0.000000
O O9 0.684635 0.857630 0.500000
O O10 0.750125 0.867958 0.253828
O O11 0.627568 0.900185 0.261762
O O12 0.189966 0.862186 0.000000
O O13 0.425031 0.940341 0.500000
O O14 0.500000 0.928692 0.265259
O O15 0.404504 0.000000 0.269428
#
# Coordination Sequence:
#
# PCOD8265679 Si02
#       5
#    16  16  16  16  16
#     4   8  15  28  43  60  87 120 145 168 209 261
#     4   8  14  26  45  67  88 112 146 183 212 245
#     4  10  18  27  45  70  88 107 143 185 216 248
#     4   9  17  29  45  65  90 118 144 173 214 259
#     4   8  15  29  46  62  84 115 146 175 212 259
#
# _framework density 17.287026000000001
#
# number of rings (size 3 to 8) (size 9 to 14) (size 15 to 20)
#    0.000    3.400    0.000    3.000    0.000    4.400 
#    0.000    1.000    0.000    6.000    0.000    7.000 
#    0.000    0.000    0.000    0.000    0.000    0.000 
#
# Total GULP energy -495649.179972 kJ/mol
# GULP energy per Si atom -12391.229499 kJ/mol
# Density = 1.724768 g / cm^3
# Si number density = 17.287026 Si / 1000 Ang^3
#
#
#
# Elastic Constant Matrix: (Units=GPa)
#
#
# Indices 1 2 3 4 5 6 
#
# 1 95.5598 94.5447 28.2305 0.0000 0.0000 0.0000
# 2 94.5447 174.6528 34.9238 0.0000 0.0000 0.0000
# 3 28.2305 34.9238 33.9811 0.0000 0.0000 0.0000
# 4 0.0000 0.0000 0.0000 19.5017 0.0000 0.0000
# 5 0.0000 0.0000 0.0000 0.0000 12.2365 0.0000
# 6 0.0000 0.0000 0.0000 0.0000 0.0000 17.8172
#
#
#
# Elastic Compliance Matrix: (Units=1/GPa)
#
#
# Indices 1 2 3 4 5 6 
#
# 1 0.024296 -0.011474 -0.008392 0.000000 0.000000 0.000000
# 2 -0.011474 0.012625 -0.003443 0.000000 0.000000 0.000000
# 3 -0.008392 -0.003443 0.039939 0.000000 0.000000 0.000000
# 4 0.000000 0.000000 0.000000 0.051278 0.000000 0.000000
# 5 0.000000 0.000000 0.000000 0.000000 0.081723 0.000000
# 6 0.000000 0.000000 0.000000 0.000000 0.000000 0.056126
#
#
# Mechanical properties :
#
#
# Convention : Reuss Voigt Hill
#
# Bulk Modulus (GPa) = 33.06722 68.84352 50.95537
# Shear Modulus (GPa) = 15.49493 19.67737 17.58615
#
# Velocity S-wave (km/s) = 2.99713 3.37749 3.19298
# Velocity P-wave (km/s) = 5.58094 7.42430 6.56761
#
# Compressibility (1/GPa) = 0.03024143
#
# Stress axis : x y z
#
# Youngs Moduli (GPa) = 41.15892 79.20505 25.03822
#
# Poissons Ratio (x) = 0.90881 0.21012
# Poissons Ratio (y) = 0.47226 0.08622
# Poissons Ratio (z) = 0.34541 0.27273
#
# Static dielectric constant tensor:
#      x y z
#    x 3.213000 0.000000 0.000000 
#    y 0.000000 3.883900 0.000000 
#    z 0.000000 0.000000 2.830640 
# 
# 
# High freq. dielectric constant tensor:
#      x y z
#    x 1.644320 0.000000 0.000000 
#    y 0.000000 1.684250 0.000000 
#    z 0.000000 0.000000 1.625940 
# 
# From -- ./inp_files/9638.got.cif
#   From: 2010.03.12/outbox.cif.g09.slc.cpg/sg65_5_cif.got.tgz:9638.got - 2010.04.10 20:52:16.
