data_PCOD8265774
_publ_section_title
;
Structure prediction by ZEFSAII (Michael W. Deem and Ramdas Pophale) SiO2 
 PCOD8265774
Probable space group: C M M M
;
_chemical_formula_sum "Si O2"
_cell_formula_units_Z 72
_cell_length_a 14.408236
_cell_length_b 34.854823
_cell_length_c 9.625029
_cell_angle_alpha 90.000000
_cell_angle_beta 90.000000
_cell_angle_gamma 90.000000
_cell_volume 4833.656026
_symmetry_space_group_name_H-M "C M M M"
_symmetry_group_IT_number 65
_symmetry_cell_setting 'orthorhombic'
loop_
_space_group_symop_operation_xyz
x,y,z
-x,-y,z
x,-y,-z
-x,y,-z
-x,-y,-z
x,y,-z
-x,y,z
x,-y,z
1/2+x,1/2+y,z
1/2-x,1/2-y,z
1/2+x,1/2-y,-z
1/2-x,1/2+y,-z
1/2-x,1/2-y,-z
1/2+x,1/2+y,-z
1/2-x,1/2+y,z
1/2+x,1/2-y,z
loop_
_atom_site_type_symbol
_atom_site_label
_atom_site_fract_x
_atom_site_fract_y
_atom_site_fract_z
Si Si1 0.610116 0.000000 0.157609
Si Si2 0.202962 0.790011 0.837451
Si Si3 0.000000 0.231768 0.159797
Si Si4 0.312370 0.151813 0.656820
Si Si5 0.107714 0.571364 0.338961
Si Si6 0.500000 0.803694 0.652279
O O1 0.644846 0.037417 0.240466
O O2 0.500000 0.000000 0.155385
O O3 0.649784 0.000000 0.000000
O O4 0.250000 0.750000 0.785186
O O5 0.242431 0.826999 0.759821
O O6 0.093360 0.791154 0.801894
O O7 0.222969 0.794963 0.000000
O O8 0.000000 0.272049 0.232630
O O9 0.000000 0.242746 0.000000
O O10 0.274326 0.156357 0.500000
O O11 0.325364 0.107231 0.695691
O O12 0.412525 0.169787 0.672453
O O13 0.117922 0.559186 0.500000
O O14 0.000000 0.581341 0.307522
O O15 0.500000 0.784190 0.500000
#
# Coordination Sequence:
#
# PCOD8265774 Si02
#       6
#     8  16   8  16  16   8
#     4   9  17  27  39  61  89 116 147 180 213 251
#     4  10  20  32  46  63  85 115 150 186 226 267
#     4  10  20  34  46  60  85 116 149 186 227 272
#     4  10  19  30  45  66  89 114 150 189 222 259
#     4   9  16  28  44  61  85 118 149 177 214 260
#     4  10  18  28  44  65  87 112 146 189 226 256
#
# _framework density 14.895557
#
# number of rings (size 3 to 8) (size 9 to 14) (size 15 to 20)
#    0.000    2.333    3.333    0.333    0.000    3.556 
#    0.000    0.000    0.000    0.000    0.000    0.000 
#    0.000    0.889    0.000   10.000    0.000    4.444 
#
# Total GULP energy -446276.356584 kJ/mol
# GULP energy per Si atom -12396.565461 kJ/mol
# Density = 1.486165 g / cm^3
# Si number density = 14.895557 Si / 1000 Ang^3
#
#
#
# Elastic Constant Matrix: (Units=GPa)
#
#
# Indices 1 2 3 4 5 6 
#
# 1 75.0328 39.8407 37.6429 0.0000 0.0000 0.0000
# 2 39.8407 113.4515 63.4793 0.0000 0.0000 0.0000
# 3 37.6429 63.4793 67.3538 0.0000 0.0000 0.0000
# 4 0.0000 0.0000 0.0000 -35.2193 0.0000 0.0000
# 5 0.0000 0.0000 0.0000 0.0000 21.8841 0.0000
# 6 0.0000 0.0000 0.0000 0.0000 0.0000 28.4186
#
#
#
# Elastic Compliance Matrix: (Units=1/GPa)
#
#
# Indices 1 2 3 4 5 6 
#
# 1 0.018643 -0.001517 -0.008990 0.000000 0.000000 0.000000
# 2 -0.001517 0.018772 -0.016844 0.000000 0.000000 0.000000
# 3 -0.008990 -0.016844 0.035746 0.000000 0.000000 0.000000
# 4 0.000000 0.000000 0.000000 -0.028394 0.000000 0.000000
# 5 0.000000 0.000000 0.000000 0.000000 0.045695 0.000000
# 6 0.000000 0.000000 0.000000 0.000000 0.000000 0.035188
#
#
# Mechanical properties :
#
#
# Convention : Reuss Voigt Hill
#
# Bulk Modulus (GPa) = 54.17206 59.75157 56.96182
# Shear Modulus (GPa) = 26.80884 10.67502 18.74193
#
# Velocity S-wave (km/s) = 4.24699 2.67995 3.55099
# Velocity P-wave (km/s) = 7.77793 7.05528 7.42540
#
# Compressibility (1/GPa) = 0.01845970
#
# Stress axis : x y z
#
# Youngs Moduli (GPa) = 53.63981 53.27129 27.97490
#
# Poissons Ratio (x) = 0.08081 0.25148
# Poissons Ratio (y) = 0.08137 0.47122
# Poissons Ratio (z) = 0.48220 0.89731
#
# Static dielectric constant tensor:
#      x y z
#    x 2.762280 0.000000 0.000000 
#    y 0.000000 2.895210 0.000000 
#    z 0.000000 0.000000 2.998740 
# 
# 
# High freq. dielectric constant tensor:
#      x y z
#    x 1.535160 0.000000 0.000000 
#    y 0.000000 1.561620 0.000000 
#    z 0.000000 0.000000 1.576380 
# 
# From -- ./inp_files/7762.got.cif
#   From: 2010.03.12/outbox.cif.g09.slc.cpg/sg65_4_cif.got.tgz:7762.got - 2010.04.10 20:52:16.
