data_PCOD8265143
_publ_section_title
;
Structure prediction by ZEFSAII (Michael W. Deem and Ramdas Pophale) SiO2 
 PCOD8265143
Probable space group: C M M M
;
_chemical_formula_sum "Si O2"
_cell_formula_units_Z 88
_cell_length_a 19.513246
_cell_length_b 8.602705
_cell_length_c 28.068245
_cell_angle_alpha 90.000000
_cell_angle_beta 90.000000
_cell_angle_gamma 90.000000
_cell_volume 4711.723633
_symmetry_space_group_name_H-M "C M M M"
_symmetry_group_IT_number 65
_symmetry_cell_setting 'orthorhombic'
loop_
_space_group_symop_operation_xyz
x,y,z
-x,-y,z
x,-y,-z
-x,y,-z
-x,-y,-z
x,y,-z
-x,y,z
x,-y,z
1/2+x,1/2+y,z
1/2-x,1/2-y,z
1/2+x,1/2-y,-z
1/2-x,1/2+y,-z
1/2-x,1/2-y,-z
1/2+x,1/2+y,-z
1/2-x,1/2+y,z
1/2+x,1/2-y,z
loop_
_atom_site_type_symbol
_atom_site_label
_atom_site_fract_x
_atom_site_fract_y
_atom_site_fract_z
Si Si1 0.420838 0.321382 0.130549
Si Si2 0.579592 0.819889 0.770122
Si Si3 0.322242 0.818267 0.944825
Si Si4 0.325025 0.682149 0.691960
Si Si5 0.173738 0.316062 0.595334
Si Si6 0.326671 0.683901 0.500000
O O1 0.500000 0.295463 0.118825
O O2 0.404106 0.500000 0.141817
O O3 0.398469 0.220130 0.176087
O O4 0.381376 0.265660 0.084145
O O5 0.500000 0.778128 0.761986
O O6 0.624624 0.715300 0.735384
O O7 0.594572 0.000000 0.760190
O O8 0.250000 0.750000 0.927797
O O9 0.323349 0.000000 0.934306
O O10 0.335288 0.780235 0.000000
O O11 0.317336 0.500000 0.683606
O O12 0.250000 0.750000 0.703172
O O13 0.360057 0.758615 0.644709
O O14 0.173149 0.500000 0.592167
O O15 0.250000 0.250000 0.596809
O O16 0.136025 0.246757 0.548117
O O17 0.325923 0.500000 0.500000
O O18 0.250000 0.750000 0.500000
#
# Coordination Sequence:
#
# PCOD8265143 Si02
#       6
#    16  16  16  16  16   8
#     4  10  21  37  57  81 108 138 174 216 260 307
#     4  10  21  38  58  79 105 137 174 216 262 312
#     4  10  21  37  57  81 110 143 178 216 259 308
#     4  11  21  34  52  76 106 137 173 216 262 311
#     4  10  17  27  42  64  95 130 168 209 257 308
#     4  10  16  24  38  60  91 128 167 206 255 308
#
# _framework density 18.676817
#
# number of rings (size 3 to 8) (size 9 to 14) (size 15 to 20)
#    0.000    1.818    0.000    7.909    0.000    4.364 
#    0.000    5.455    0.000    0.000    0.000    0.636 
#    0.000    5.091    0.000    0.000    0.000    0.000 
#
# Total GULP energy -545613.478032 kJ/mol
# GULP energy per Si atom -12400.306319 kJ/mol
# Density = 1.863431 g / cm^3
# Si number density = 18.676817 Si / 1000 Ang^3
#
#
#
# Elastic Constant Matrix: (Units=GPa)
#
#
# Indices 1 2 3 4 5 6 
#
# 1 53.3070 35.5012 52.7750 0.0000 0.0000 0.0000
# 2 35.5012 134.6408 44.0861 0.0000 0.0000 0.0000
# 3 52.7750 44.0861 114.1448 0.0000 0.0000 0.0000
# 4 0.0000 0.0000 0.0000 39.2147 0.0000 0.0000
# 5 0.0000 0.0000 0.0000 0.0000 0.8872 0.0000
# 6 0.0000 0.0000 0.0000 0.0000 0.0000 25.1867
#
#
#
# Elastic Compliance Matrix: (Units=1/GPa)
#
#
# Indices 1 2 3 4 5 6 
#
# 1 0.037088 -0.004767 -0.015306 0.000000 0.000000 0.000000
# 2 -0.004767 0.009115 -0.001316 0.000000 0.000000 0.000000
# 3 -0.015306 -0.001316 0.016346 0.000000 0.000000 0.000000
# 4 0.000000 0.000000 0.000000 0.025501 0.000000 0.000000
# 5 0.000000 0.000000 0.000000 0.000000 1.127133 0.000000
# 6 0.000000 0.000000 0.000000 0.000000 0.000000 0.039704
#
#
# Mechanical properties :
#
#
# Convention : Reuss Voigt Hill
#
# Bulk Modulus (GPa) = 50.58397 62.97970 56.78183
# Shear Modulus (GPa) = 3.83360 24.37307 14.10334
#
# Velocity S-wave (km/s) = 1.43424 3.61638 2.75094
# Velocity P-wave (km/s) = 5.46675 7.15763 6.36856
#
# Compressibility (1/GPa) = 0.01976911
#
# Stress axis : x y z
#
# Youngs Moduli (GPa) = 26.96313 109.70687 61.17650
#
# Poissons Ratio (x) = 0.52300 0.93639
# Poissons Ratio (y) = 0.12854 0.08053
# Poissons Ratio (z) = 0.41271 0.14442
#
# Static dielectric constant tensor:
#      x y z
#    x 3.133420 0.000000 0.000000 
#    y 0.000000 3.479700 0.000000 
#    z 0.000000 0.000000 4.130380 
# 
# 
# High freq. dielectric constant tensor:
#      x y z
#    x 1.678430 0.000000 0.000000 
#    y 0.000000 1.747050 0.000000 
#    z 0.000000 0.000000 1.745410 
# 
# From -- ./inp_files/71009.got.cif
#   From: 2010.03.12/outbox.cif.g09.slc.cpg/sg65_36_cif.got.tgz:71009.got - 2010.04.10 20:52:16.
