data_PCOD8265986
_publ_section_title
;
Structure prediction by ZEFSAII (Michael W. Deem and Ramdas Pophale) SiO2 
 PCOD8265986
Probable space group: C M M M
;
_chemical_formula_sum "Si O2"
_cell_formula_units_Z 128
_cell_length_a 21.678616
_cell_length_b 18.588630
_cell_length_c 18.980647
_cell_angle_alpha 90.000000
_cell_angle_beta 90.000000
_cell_angle_gamma 90.000000
_cell_volume 7648.740873
_symmetry_space_group_name_H-M "C M M M"
_symmetry_group_IT_number 65
_symmetry_cell_setting 'orthorhombic'
loop_
_space_group_symop_operation_xyz
x,y,z
-x,-y,z
x,-y,-z
-x,y,-z
-x,-y,-z
x,y,-z
-x,y,z
x,-y,z
1/2+x,1/2+y,z
1/2-x,1/2-y,z
1/2+x,1/2-y,-z
1/2-x,1/2+y,-z
1/2-x,1/2-y,-z
1/2+x,1/2+y,-z
1/2-x,1/2+y,z
1/2+x,1/2-y,z
loop_
_atom_site_type_symbol
_atom_site_label
_atom_site_fract_x
_atom_site_fract_y
_atom_site_fract_z
Si Si1 0.069142 0.210795 0.417873
Si Si2 0.242618 0.418529 0.326730
Si Si3 0.618493 0.582103 0.336735
Si Si4 0.254748 0.084786 0.162639
Si Si5 0.569090 0.580877 0.809495
Si Si6 0.310188 0.201595 0.582289
Si Si7 0.360569 0.345577 0.917436
Si Si8 0.689603 0.200529 0.921891
O O1 0.076434 0.198294 0.500000
O O2 0.075495 0.132819 0.383035
O O3 0.125397 0.261953 0.392572
O O4 0.000000 0.241604 0.400108
O O5 0.218846 0.500000 0.334588
O O6 0.310563 0.409926 0.360359
O O7 0.246619 0.397026 0.244997
O O8 0.195266 0.369514 0.370221
O O9 0.595411 0.500000 0.346383
O O10 0.613472 0.604523 0.254538
O O11 0.193849 0.111725 0.122703
O O12 0.311027 0.132750 0.131080
O O13 0.265051 0.000000 0.148942
O O14 0.500000 0.589543 0.781603
O O15 0.584947 0.500000 0.831678
O O16 0.577336 0.627978 0.879923
O O17 0.313087 0.180728 0.500000
O O18 0.250000 0.250000 0.597886
O O19 0.363253 0.259116 0.905605
O O20 0.357769 0.365081 0.000000
O O21 0.750000 0.250000 0.916590
O O22 0.683282 0.167776 0.000000
#
# Coordination Sequence:
#
# PCOD8265986 Si02
#       8
#    16  16  16  16  16  16  16  16
#     4  10  21  36  54  77 104 134 170 211 253 300
#     4  10  20  32  50  75 101 130 166 207 252 301
#     4  10  19  33  49  70 103 138 171 208 250 297
#     4  10  18  29  45  68  94 120 154 194 240 297
#     4  10  20  32  45  64  93 130 171 210 242 280
#     4  10  20  35  53  75 102 133 169 208 252 298
#     4  10  19  31  45  63  92 127 163 203 246 290
#     4   8  16  28  41  61  88 118 151 189 237 286
#
# _framework density 16.734780000000001
#
# number of rings (size 3 to 8) (size 9 to 14) (size 15 to 20)
#    0.000    2.250    2.500    1.875    0.000    5.750 
#    0.000    2.500    0.000    0.375    0.000    1.750 
#    0.000    1.500    0.000    2.750    0.000    0.000 
#
# Total GULP energy -793123.016590 kJ/mol
# GULP energy per Si atom -12392.547134 kJ/mol
# Density = 1.669669 g / cm^3
# Si number density = 16.734780 Si / 1000 Ang^3
#
#
#
# Elastic Constant Matrix: (Units=GPa)
#
#
# Indices 1 2 3 4 5 6 
#
# 1 75.6157 40.2898 35.5016 0.0000 0.0000 0.0000
# 2 40.2898 90.9306 51.6902 0.0000 0.0000 0.0000
# 3 35.5016 51.6902 65.7898 0.0000 0.0000 0.0000
# 4 0.0000 0.0000 0.0000 32.2248 0.0000 0.0000
# 5 0.0000 0.0000 0.0000 0.0000 18.7103 0.0000
# 6 0.0000 0.0000 0.0000 0.0000 0.0000 23.4153
#
#
#
# Elastic Compliance Matrix: (Units=1/GPa)
#
#
# Indices 1 2 3 4 5 6 
#
# 1 0.018725 -0.004613 -0.006480 0.000000 0.000000 0.000000
# 2 -0.004613 0.021010 -0.014018 0.000000 0.000000 0.000000
# 3 -0.006480 -0.014018 0.029710 0.000000 0.000000 0.000000
# 4 0.000000 0.000000 0.000000 0.031032 0.000000 0.000000
# 5 0.000000 0.000000 0.000000 0.000000 0.053446 0.000000
# 6 0.000000 0.000000 0.000000 0.000000 0.000000 0.042707
#
#
# Mechanical properties :
#
#
# Convention : Reuss Voigt Hill
#
# Bulk Modulus (GPa) = 52.02009 54.14437 53.08223
# Shear Modulus (GPa) = 19.74247 21.86038 20.80142
#
# Velocity S-wave (km/s) = 3.43844 3.61818 3.52945
# Velocity P-wave (km/s) = 6.84955 7.06255 6.95686
#
# Compressibility (1/GPa) = 0.01922334
#
# Stress axis : x y z
#
# Youngs Moduli (GPa) = 53.40414 47.59632 33.65828
#
# Poissons Ratio (x) = 0.21957 0.21810
# Poissons Ratio (y) = 0.24636 0.47182
# Poissons Ratio (z) = 0.34606 0.66720
#
# Static dielectric constant tensor:
#      x y z
#    x 3.160080 0.000000 0.000000 
#    y 0.000000 3.331500 0.000000 
#    z 0.000000 0.000000 3.209820 
# 
# 
# High freq. dielectric constant tensor:
#      x y z
#    x 1.613680 0.000000 0.000000 
#    y 0.000000 1.634810 0.000000 
#    z 0.000000 0.000000 1.649990 
# 
# From -- ./inp_files/56229.got.cif
#   From: 2010.03.12/outbox.cif.g09.slc.cpg/sg65_29_cif.got.tgz:56229.got - 2010.04.10 20:52:16.
