data_PCOD8265541
_publ_section_title
;
Structure prediction by ZEFSAII (Michael W. Deem and Ramdas Pophale) SiO2 
 PCOD8265541
Probable space group: C M M M
;
_chemical_formula_sum "Si O2"
_cell_formula_units_Z 80
_cell_length_a 22.747972
_cell_length_b 10.218510
_cell_length_c 20.552761
_cell_angle_alpha 90.000000
_cell_angle_beta 90.000000
_cell_angle_gamma 90.000000
_cell_volume 4777.497091
_symmetry_space_group_name_H-M "C M M M"
_symmetry_group_IT_number 65
_symmetry_cell_setting 'orthorhombic'
loop_
_space_group_symop_operation_xyz
x,y,z
-x,-y,z
x,-y,-z
-x,y,-z
-x,-y,-z
x,y,-z
-x,y,z
x,-y,z
1/2+x,1/2+y,z
1/2-x,1/2-y,z
1/2+x,1/2-y,-z
1/2-x,1/2+y,-z
1/2-x,1/2-y,-z
1/2+x,1/2+y,-z
1/2-x,1/2+y,z
1/2+x,1/2-y,z
loop_
_atom_site_type_symbol
_atom_site_label
_atom_site_fract_x
_atom_site_fract_y
_atom_site_fract_z
Si Si1 0.175786 0.500000 0.365114
Si Si2 0.184854 0.000000 0.646043
Si Si3 0.000000 0.147041 0.423120
Si Si4 0.625381 0.738844 0.576722
Si Si5 0.679149 0.000000 0.781278
Si Si6 0.306987 0.158401 0.000000
Si Si7 0.319089 0.500000 0.205504
Si Si8 0.820151 0.740653 0.137205
O O1 0.245512 0.500000 0.360609
O O2 0.151130 0.622854 0.403501
O O3 0.153500 0.500000 0.291182
O O4 0.163319 0.871169 0.610873
O O5 0.159688 0.000000 0.719753
O O6 0.942369 0.226122 0.400173
O O7 0.000000 0.134552 0.500000
O O8 0.000000 0.000000 0.393213
O O9 0.631182 0.719381 0.500000
O O10 0.654786 0.130020 0.815104
O O11 0.749086 0.000000 0.789443
O O12 0.250000 0.250000 0.000000
O O13 0.342780 0.200896 0.935230
O O14 0.293008 0.000000 0.000000
O O15 0.344623 0.377306 0.164844
O O16 0.750000 0.750000 0.137219
#
# Coordination Sequence:
#
# PCOD8265541 Si02
#       8
#     8   8   8  16   8   8   8  16
#     4  11  23  33  48  76 107 130 163 205 254 302
#     4  11  21  35  52  72 101 136 173 199 244 306
#     4   9  18  37  59  73  89 121 165 204 248 309
#     4  11  22  36  55  75  97 128 165 211 255 299
#     4   9  16  30  41  54  86 127 153 186 230 289
#     4  10  18  24  36  56  78 108 156 207 243 268
#     4   9  18  28  41  60  82 121 161 196 228 279
#     4   9  16  25  39  54  79 112 158 199 234 267
#
# _framework density 16.745169000000001
#
# number of rings (size 3 to 8) (size 9 to 14) (size 15 to 20)
#    0.000    2.100    2.000    2.400    4.200    6.000 
#    0.000    1.500    0.000    0.000    0.000    0.000 
#    0.000    0.000    0.000    0.000    0.000   70.000 
#
# Total GULP energy -495713.882076 kJ/mol
# GULP energy per Si atom -12392.847052 kJ/mol
# Density = 1.670706 g / cm^3
# Si number density = 16.745169 Si / 1000 Ang^3
#
#
#
# Elastic Constant Matrix: (Units=GPa)
#
#
# Indices 1 2 3 4 5 6 
#
# 1 52.6080 28.7956 25.0123 0.0000 0.0000 0.0000
# 2 28.7956 160.7883 64.2995 0.0000 0.0000 0.0000
# 3 25.0123 64.2995 124.1592 0.0000 0.0000 0.0000
# 4 0.0000 0.0000 0.0000 -45.9516 0.0000 0.0000
# 5 0.0000 0.0000 0.0000 0.0000 -0.5861 0.0000
# 6 0.0000 0.0000 0.0000 0.0000 0.0000 17.6227
#
#
#
# Elastic Compliance Matrix: (Units=1/GPa)
#
#
# Indices 1 2 3 4 5 6 
#
# 1 0.021930 -0.002725 -0.003007 0.000000 0.000000 0.000000
# 2 -0.002725 0.008182 -0.003689 0.000000 0.000000 0.000000
# 3 -0.003007 -0.003689 0.010570 0.000000 0.000000 0.000000
# 4 0.000000 0.000000 0.000000 -0.021762 0.000000 0.000000
# 5 0.000000 0.000000 0.000000 0.000000 -1.706226 0.000000
# 6 0.000000 0.000000 0.000000 0.000000 0.000000 0.056745
#
#
# Mechanical properties :
#
#
# Convention : Reuss Voigt Hill
#
# Bulk Modulus (GPa) = 45.78378 63.75225 54.76802
# Shear Modulus (GPa) = -3.11635 8.84689 2.86527
#
# Velocity S-wave (km/s) = -1.36568 2.30103 1.30951
# Velocity P-wave (km/s) = 4.99140 6.72416 5.92150
#
# Compressibility (1/GPa) = 0.02184179
#
# Stress axis : x y z
#
# Youngs Moduli (GPa) = 45.60062 122.21281 94.60674
#
# Poissons Ratio (x) = 0.33304 0.28444
# Poissons Ratio (y) = 0.12426 0.34896
# Poissons Ratio (z) = 0.13710 0.45079
#
# Static dielectric constant tensor:
#      x y z
#    x 2.736470 0.000000 0.000000 
#    y 0.000000 3.335540 0.000000 
#    z 0.000000 0.000000 3.514160 
# 
# 
# High freq. dielectric constant tensor:
#      x y z
#    x 1.573090 0.000000 0.000000 
#    y 0.000000 1.667680 0.000000 
#    z 0.000000 0.000000 1.657150 
# 
# From -- ./inp_files/60139.got.cif
#   From: 2010.03.12/outbox.cif.g09.slc.cpg/sg65_31_cif.got.tgz:60139.got - 2010.04.10 20:52:16.
