data_PCOD8265853
_publ_section_title
;
Structure prediction by ZEFSAII (Michael W. Deem and Ramdas Pophale) SiO2 
 PCOD8265853
Probable space group: C M M M
;
_chemical_formula_sum "Si O2"
_cell_formula_units_Z 96
_cell_length_a 8.837670
_cell_length_b 19.199131
_cell_length_c 30.854797
_cell_angle_alpha 90.000000
_cell_angle_beta 90.000000
_cell_angle_gamma 90.000000
_cell_volume 5235.305702
_symmetry_space_group_name_H-M "C M M M"
_symmetry_group_IT_number 65
_symmetry_cell_setting 'orthorhombic'
loop_
_space_group_symop_operation_xyz
x,y,z
-x,-y,z
x,-y,-z
-x,y,-z
-x,-y,-z
x,y,-z
-x,y,z
x,-y,z
1/2+x,1/2+y,z
1/2-x,1/2-y,z
1/2+x,1/2-y,-z
1/2-x,1/2+y,-z
1/2-x,1/2-y,-z
1/2+x,1/2+y,-z
1/2-x,1/2+y,z
1/2+x,1/2-y,z
loop_
_atom_site_type_symbol
_atom_site_label
_atom_site_fract_x
_atom_site_fract_y
_atom_site_fract_z
Si Si1 0.319894 0.826299 0.624896
Si Si2 0.823146 0.321707 0.949725
Si Si3 0.822734 0.174767 0.709650
Si Si4 0.679681 0.077808 0.452062
Si Si5 0.820692 0.920460 0.117373
Si Si6 0.323555 0.675070 0.195100
O O1 0.500000 0.822272 0.625628
O O2 0.250000 0.750000 0.620607
O O3 0.260231 0.863764 0.669355
O O4 0.256532 0.870445 0.584392
O O5 0.750000 0.250000 0.932500
O O6 0.753420 0.387215 0.925031
O O7 0.000000 0.317363 0.940713
O O8 0.784908 0.332821 0.000000
O O9 0.750000 0.250000 0.712044
O O10 0.791581 0.141448 0.757097
O O11 0.000000 0.179675 0.699462
O O12 0.732978 0.102673 0.500000
O O13 0.500000 0.077009 0.450092
O O14 0.741348 0.000000 0.442998
O O15 0.761821 0.879649 0.159936
O O16 0.000000 0.915794 0.112909
O O17 0.766068 0.000000 0.121138
O O18 0.500000 0.687669 0.189023
O O19 0.250000 0.750000 0.187916
#
# Coordination Sequence:
#
# PCOD8265853 Si02
#       6
#    16  16  16  16  16  16
#     4  10  18  28  46  71  96 120 150 192 238 283
#     4  10  21  37  57  80 105 133 168 209 250 295
#     4   9  16  28  46  68  95 125 157 194 237 284
#     4   8  15  29  47  65  87 119 158 194 228 272
#     4  10  21  36  53  75 105 138 170 205 247 295
#     4   9  18  32  51  73  95 125 165 204 241 284
#
# _framework density 18.337039000000001
#
# number of rings (size 3 to 8) (size 9 to 14) (size 15 to 20)
#    0.000    2.667    0.000    3.500    0.000    4.667 
#    0.000    2.500    0.000    4.500    0.000    4.667 
#    0.000    0.000    0.000    0.000    0.000    0.000 
#
# Total GULP energy -594909.540593 kJ/mol
# GULP energy per Si atom -12393.948762 kJ/mol
# Density = 1.829530 g / cm^3
# Si number density = 18.337039 Si / 1000 Ang^3
#
#
#
# Elastic Constant Matrix: (Units=GPa)
#
#
# Indices 1 2 3 4 5 6 
#
# 1 51.9995 32.4622 40.3753 0.0000 0.0000 0.0000
# 2 32.4622 108.5105 79.6938 0.0000 0.0000 0.0000
# 3 40.3753 79.6938 145.4218 0.0000 0.0000 0.0000
# 4 0.0000 0.0000 0.0000 15.2144 0.0000 0.0000
# 5 0.0000 0.0000 0.0000 0.0000 23.5457 0.0000
# 6 0.0000 0.0000 0.0000 0.0000 0.0000 18.7246
#
#
#
# Elastic Compliance Matrix: (Units=1/GPa)
#
#
# Indices 1 2 3 4 5 6 
#
# 1 0.025548 -0.004073 -0.004861 0.000000 0.000000 0.000000
# 2 -0.004073 0.016073 -0.007677 0.000000 0.000000 0.000000
# 3 -0.004861 -0.007677 0.012434 0.000000 0.000000 0.000000
# 4 0.000000 0.000000 0.000000 0.065727 0.000000 0.000000
# 5 0.000000 0.000000 0.000000 0.000000 0.042471 0.000000
# 6 0.000000 0.000000 0.000000 0.000000 0.000000 0.053406
#
#
# Mechanical properties :
#
#
# Convention : Reuss Voigt Hill
#
# Bulk Modulus (GPa) = 48.00408 67.88825 57.94617
# Shear Modulus (GPa) = 19.54467 21.72364 20.63415
#
# Velocity S-wave (km/s) = 3.26829 3.44566 3.35815
# Velocity P-wave (km/s) = 6.36222 7.27550 6.83414
#
# Compressibility (1/GPa) = 0.02083156
#
# Stress axis : x y z
#
# Youngs Moduli (GPa) = 39.14194 62.21782 80.42744
#
# Poissons Ratio (x) = 0.25339 0.39098
# Poissons Ratio (y) = 0.15941 0.61747
# Poissons Ratio (z) = 0.19028 0.47767
#
# Static dielectric constant tensor:
#      x y z
#    x 3.240700 0.000000 0.000000 
#    y 0.000000 3.251190 0.000000 
#    z 0.000000 0.000000 4.208470 
# 
# 
# High freq. dielectric constant tensor:
#      x y z
#    x 1.698680 0.000000 0.000000 
#    y 0.000000 1.680370 0.000000 
#    z 0.000000 0.000000 1.734220 
# 
# From -- ./inp_files/73102.got.cif
#   From: 2010.03.12/outbox.cif.g09.slc.cpg/sg65_37_cif.got.tgz:73102.got - 2010.04.10 20:52:16.
