data_PCOD8265278
_publ_section_title
;
Structure prediction by ZEFSAII (Michael W. Deem and Ramdas Pophale) SiO2 
 PCOD8265278
Probable space group: C M M M
;
_chemical_formula_sum "Si O2"
_cell_formula_units_Z 104
_cell_length_a 16.115414
_cell_length_b 16.698656
_cell_length_c 24.023371
_cell_angle_alpha 90.000000
_cell_angle_beta 90.000000
_cell_angle_gamma 90.000000
_cell_volume 6464.827383
_symmetry_space_group_name_H-M "C M M M"
_symmetry_group_IT_number 65
_symmetry_cell_setting 'orthorhombic'
loop_
_space_group_symop_operation_xyz
x,y,z
-x,-y,z
x,-y,-z
-x,y,-z
-x,-y,-z
x,y,-z
-x,y,z
x,-y,z
1/2+x,1/2+y,z
1/2-x,1/2-y,z
1/2+x,1/2-y,-z
1/2-x,1/2+y,-z
1/2-x,1/2-y,-z
1/2+x,1/2+y,-z
1/2-x,1/2+y,z
1/2+x,1/2-y,z
loop_
_atom_site_type_symbol
_atom_site_label
_atom_site_fract_x
_atom_site_fract_y
_atom_site_fract_z
Si Si1 0.655768 0.333788 0.211942
Si Si2 0.409423 0.094773 0.500000
Si Si3 0.674658 0.093615 0.811584
Si Si4 0.900490 0.590163 0.380393
Si Si5 0.500000 0.590888 0.836055
Si Si6 0.595911 0.806619 0.721702
Si Si7 0.165018 0.277308 0.895377
Si Si8 0.500000 0.288815 0.062092
O O1 0.737853 0.386767 0.218556
O O2 0.578657 0.392513 0.202924
O O3 0.644576 0.276343 0.265798
O O4 0.662116 0.276477 0.159358
O O5 0.500000 0.135858 0.500000
O O6 0.364651 0.118073 0.441396
O O7 0.420579 0.000000 0.500000
O O8 0.603187 0.130468 0.772605
O O9 0.669989 0.130813 0.874060
O O10 0.661242 0.000000 0.818079
O O11 0.869483 0.500000 0.365766
O O12 0.867747 0.652456 0.334210
O O13 0.000000 0.589958 0.382201
O O14 0.500000 0.500000 0.855937
O O15 0.500000 0.641066 0.892981
O O16 0.500000 0.784651 0.714980
O O17 0.250000 0.250000 0.927893
O O18 0.082608 0.265677 0.932057
O O19 0.500000 0.325660 0.000000
#
# Coordination Sequence:
#
# PCOD8265278 Si02
#       8
#    16   8  16  16   8  16  16   8
#     4   9  17  31  45  64  89 118 147 175 221 274
#     4   7  10  18  30  46  75 116 154 187 224 262
#     4  10  19  29  45  67  89 115 152 186 217 261
#     4   8  13  20  32  53  83 118 154 188 222 263
#     4  10  18  31  52  69  89 115 143 186 224 252
#     4  10  17  26  40  63  93 120 145 177 220 272
#     4   8  17  32  48  65  90 120 150 183 222 272
#     4  10  20  33  51  72  92 119 154 184 222 272
#
# _framework density 16.087050000000001
#
# number of rings (size 3 to 8) (size 9 to 14) (size 15 to 20)
#    0.000    3.000    0.769    3.231    3.231    1.385 
#    0.000    0.000    0.000    0.923    0.000    2.154 
#    0.000    0.000    0.000    2.769    0.000    0.000 
#
# Total GULP energy -644260.916783 kJ/mol
# GULP energy per Si atom -12389.633015 kJ/mol
# Density = 1.605044 g / cm^3
# Si number density = 16.087050 Si / 1000 Ang^3
#
#
#
# Elastic Constant Matrix: (Units=GPa)
#
#
# Indices 1 2 3 4 5 6 
#
# 1 64.2773 13.9261 13.7442 0.0000 0.0000 0.0000
# 2 13.9261 80.1521 26.0401 0.0000 0.0000 0.0000
# 3 13.7442 26.0401 76.9658 0.0000 0.0000 0.0000
# 4 0.0000 0.0000 0.0000 14.2803 0.0000 0.0000
# 5 0.0000 0.0000 0.0000 0.0000 6.6922 0.0000
# 6 0.0000 0.0000 0.0000 0.0000 0.0000 17.7003
#
#
#
# Elastic Compliance Matrix: (Units=1/GPa)
#
#
# Indices 1 2 3 4 5 6 
#
# 1 0.016497 -0.002145 -0.002220 0.000000 0.000000 0.000000
# 2 -0.002145 0.014296 -0.004454 0.000000 0.000000 0.000000
# 3 -0.002220 -0.004454 0.014896 0.000000 0.000000 0.000000
# 4 0.000000 0.000000 0.000000 0.070027 0.000000 0.000000
# 5 0.000000 0.000000 0.000000 0.000000 0.149428 0.000000
# 6 0.000000 0.000000 0.000000 0.000000 0.000000 0.056496
#
#
# Mechanical properties :
#
#
# Convention : Reuss Voigt Hill
#
# Bulk Modulus (GPa) = 35.64916 36.53511 36.09213
# Shear Modulus (GPa) = 14.34192 18.91354 16.62773
#
# Velocity S-wave (km/s) = 2.98907 3.43257 3.21847
# Velocity P-wave (km/s) = 5.84132 6.20244 6.02458
#
# Compressibility (1/GPa) = 0.02805115
#
# Stress axis : x y z
#
# Youngs Moduli (GPa) = 60.61687 69.95005 67.13159
#
# Poissons Ratio (x) = 0.15004 0.14905
# Poissons Ratio (y) = 0.13002 0.29899
# Poissons Ratio (z) = 0.13458 0.31154
#
# Static dielectric constant tensor:
#      x y z
#    x 3.246110 0.000000 0.000000 
#    y 0.000000 2.933270 0.000000 
#    z 0.000000 0.000000 3.095280 
# 
# 
# High freq. dielectric constant tensor:
#      x y z
#    x 1.605130 0.000000 0.000000 
#    y 0.000000 1.597030 0.000000 
#    z 0.000000 0.000000 1.594990 
# 
# From -- ./inp_files/70567.got.cif
#   From: 2010.03.12/outbox.cif.g09.slc.cpg/sg65_36_cif.got.tgz:70567.got - 2010.04.10 20:52:16.
