data_PCOD8265291
_publ_section_title
;
Structure prediction by ZEFSAII (Michael W. Deem and Ramdas Pophale) SiO2 
 PCOD8265291
Probable space group: C M M M
;
_chemical_formula_sum "Si O2"
_cell_formula_units_Z 88
_cell_length_a 28.339918
_cell_length_b 17.608894
_cell_length_c 11.798584
_cell_angle_alpha 90.000000
_cell_angle_beta 90.000000
_cell_angle_gamma 90.000000
_cell_volume 5887.901789
_symmetry_space_group_name_H-M "C M M M"
_symmetry_group_IT_number 65
_symmetry_cell_setting 'orthorhombic'
loop_
_space_group_symop_operation_xyz
x,y,z
-x,-y,z
x,-y,-z
-x,y,-z
-x,-y,-z
x,y,-z
-x,y,z
x,-y,z
1/2+x,1/2+y,z
1/2-x,1/2-y,z
1/2+x,1/2-y,-z
1/2-x,1/2+y,-z
1/2-x,1/2-y,-z
1/2+x,1/2+y,-z
1/2-x,1/2+y,z
1/2+x,1/2-y,z
loop_
_atom_site_type_symbol
_atom_site_label
_atom_site_fract_x
_atom_site_fract_y
_atom_site_fract_z
Si Si1 0.087570 0.084369 0.231548
Si Si2 0.222284 0.414082 0.369715
Si Si3 0.694619 0.732452 0.000000
Si Si4 0.868367 0.908274 0.000000
Si Si5 0.672620 0.632289 0.631637
Si Si6 0.500000 0.591221 0.370080
Si Si7 0.695843 0.224788 0.240454
O O1 0.133884 0.080639 0.308900
O O2 0.045233 0.124904 0.301048
O O3 0.069764 0.000000 0.207090
O O4 0.100913 0.118742 0.108596
O O5 0.213919 0.390721 0.500000
O O6 0.206341 0.500000 0.346265
O O7 0.277215 0.405064 0.339777
O O8 0.190792 0.359960 0.290142
O O9 0.750000 0.750000 0.000000
O O10 0.680383 0.642043 0.000000
O O11 0.673940 0.771665 0.886273
O O12 0.856537 0.000000 0.000000
O O13 0.661995 0.633473 0.500000
O O14 0.667879 0.717917 0.678220
O O15 0.500000 0.500000 0.375042
O O16 0.500000 0.622233 0.500000
O O17 0.750000 0.250000 0.239521
#
# Coordination Sequence:
#
# PCOD8265291 Si02
#       7
#    16  16   8   8  16   8  16
#     4  10  19  30  44  62  84 112 147 185 220 262
#     4   9  17  28  41  59  83 110 143 184 223 261
#     4  10  18  32  43  59  84 116 146 188 228 256
#     4  10  20  33  48  64  83 115 161 197 220 253
#     4  10  17  26  42  61  81 108 145 183 220 260
#     4   9  18  31  45  63  89 114 136 175 234 281
#     4   9  17  28  41  57  79 108 142 179 221 262
#
# _framework density 14.945902
#
# number of rings (size 3 to 8) (size 9 to 14) (size 15 to 20)
#    0.000    2.455    1.818    1.636    0.000    4.364 
#    0.000    2.273    0.000    0.000    0.000    0.000 
#    0.000    0.000    0.000    0.818    0.000   11.273 
#
# Total GULP energy -545189.557498 kJ/mol
# GULP energy per Si atom -12390.671761 kJ/mol
# Density = 1.491188 g / cm^3
# Si number density = 14.945902 Si / 1000 Ang^3
#
#
#
# Elastic Constant Matrix: (Units=GPa)
#
#
# Indices 1 2 3 4 5 6 
#
# 1 39.8843 15.8095 29.6786 0.0000 0.0000 0.0000
# 2 15.8095 66.1103 30.1741 0.0000 0.0000 0.0000
# 3 29.6786 30.1741 107.4197 0.0000 0.0000 0.0000
# 4 0.0000 0.0000 0.0000 22.7096 0.0000 0.0000
# 5 0.0000 0.0000 0.0000 0.0000 19.7838 0.0000
# 6 0.0000 0.0000 0.0000 0.0000 0.0000 10.1460
#
#
#
# Elastic Compliance Matrix: (Units=1/GPa)
#
#
# Indices 1 2 3 4 5 6 
#
# 1 0.032557 -0.004221 -0.007809 0.000000 0.000000 0.000000
# 2 -0.004221 0.017898 -0.003861 0.000000 0.000000 0.000000
# 3 -0.007809 -0.003861 0.012551 0.000000 0.000000 0.000000
# 4 0.000000 0.000000 0.000000 0.044034 0.000000 0.000000
# 5 0.000000 0.000000 0.000000 0.000000 0.050546 0.000000
# 6 0.000000 0.000000 0.000000 0.000000 0.000000 0.098561
#
#
# Mechanical properties :
#
#
# Convention : Reuss Voigt Hill
#
# Bulk Modulus (GPa) = 32.02791 40.52654 36.27723
# Shear Modulus (GPa) = 16.75944 19.71134 18.23539
#
# Velocity S-wave (km/s) = 3.35227 3.63553 3.49677
# Velocity P-wave (km/s) = 6.03816 6.69307 6.37403
#
# Compressibility (1/GPa) = 0.03122277
#
# Stress axis : x y z
#
# Youngs Moduli (GPa) = 30.71555 55.87195 79.67179
#
# Poissons Ratio (x) = 0.23585 0.62218
# Poissons Ratio (y) = 0.12966 0.30763
# Poissons Ratio (z) = 0.23987 0.21574
#
# Static dielectric constant tensor:
#      x y z
#    x 2.653450 0.000000 0.000000 
#    y 0.000000 2.777020 0.000000 
#    z 0.000000 0.000000 3.286370 
# 
# 
# High freq. dielectric constant tensor:
#      x y z
#    x 1.524800 0.000000 0.000000 
#    y 0.000000 1.539460 0.000000 
#    z 0.000000 0.000000 1.596810 
# 
# From -- ./inp_files/34100.got.cif
#   From: 2010.03.12/outbox.cif.g09.slc.cpg/sg65_18_cif.got.tgz:34100.got - 2010.04.10 20:52:16.
