data_PCOD8265451
_publ_section_title
;
Structure prediction by ZEFSAII (Michael W. Deem and Ramdas Pophale) SiO2 
 PCOD8265451
Probable space group: C M M M
;
_chemical_formula_sum "Si O2"
_cell_formula_units_Z 88
_cell_length_a 28.392236
_cell_length_b 15.472159
_cell_length_c 11.469353
_cell_angle_alpha 90.000000
_cell_angle_beta 90.000000
_cell_angle_gamma 90.000000
_cell_volume 5038.362786
_symmetry_space_group_name_H-M "C M M M"
_symmetry_group_IT_number 65
_symmetry_cell_setting 'orthorhombic'
loop_
_space_group_symop_operation_xyz
x,y,z
-x,-y,z
x,-y,-z
-x,y,-z
-x,-y,-z
x,y,-z
-x,y,z
x,-y,z
1/2+x,1/2+y,z
1/2-x,1/2-y,z
1/2+x,1/2-y,-z
1/2-x,1/2+y,-z
1/2-x,1/2-y,-z
1/2+x,1/2+y,-z
1/2-x,1/2+y,z
1/2+x,1/2-y,z
loop_
_atom_site_type_symbol
_atom_site_label
_atom_site_fract_x
_atom_site_fract_y
_atom_site_fract_z
Si Si1 0.711780 0.095424 0.500000
Si Si2 0.113834 0.248065 0.137620
Si Si3 0.947496 0.405411 0.138287
Si Si4 0.579636 0.593316 0.500000
Si Si5 0.817407 0.134619 0.500000
Si Si6 0.197305 0.731910 0.694509
Si Si7 0.445798 0.602027 0.250290
O O1 0.768431 0.083365 0.500000
O O2 0.695343 0.144207 0.617575
O O3 0.689090 0.000000 0.500000
O O4 0.082996 0.327093 0.188764
O O5 0.164881 0.265746 0.192067
O O6 0.088946 0.156866 0.167847
O O7 0.120508 0.251803 0.000000
O O8 0.927103 0.500000 0.175086
O O9 0.000000 0.395325 0.188950
O O10 0.948915 0.398616 0.000000
O O11 0.554898 0.500000 0.500000
O O12 0.635980 0.576892 0.500000
O O13 0.561795 0.639291 0.618176
O O14 0.820929 0.191649 0.614617
O O15 0.250000 0.750000 0.738296
O O16 0.500000 0.616383 0.211922
O O17 0.432207 0.500000 0.241026
#
# Coordination Sequence:
#
# PCOD8265451 Si02
#       7
#     8  16  16   8   8  16  16
#     4   9  18  32  55  81 101 126 165 219 276 320
#     4  11  21  33  52  74 102 145 182 208 253 310
#     4   8  15  29  48  69  92 121 165 215 250 285
#     4  10  17  29  53  78  99 128 168 214 266 312
#     4   9  15  32  54  74  98 127 166 214 260 309
#     4   9  19  34  51  74 104 131 168 214 259 310
#     4  10  21  35  52  77 107 137 174 221 266 311
#
# _framework density 17.465992
#
# number of rings (size 3 to 8) (size 9 to 14) (size 15 to 20)
#    0.000    2.545    1.818    2.727    0.000    3.636 
#    0.000    0.909    0.000    0.000    0.000    2.545 
#    0.000    7.636    0.000    0.000    0.000    0.000 
#
# Total GULP energy -545188.203417 kJ/mol
# GULP energy per Si atom -12390.640987 kJ/mol
# Density = 1.742624 g / cm^3
# Si number density = 17.465992 Si / 1000 Ang^3
#
#
#
# Elastic Constant Matrix: (Units=GPa)
#
#
# Indices 1 2 3 4 5 6 
#
# 1 100.6335 44.9860 42.5642 0.0000 0.0000 0.0000
# 2 44.9860 112.4342 37.1079 0.0000 0.0000 0.0000
# 3 42.5642 37.1079 80.5512 0.0000 0.0000 0.0000
# 4 0.0000 0.0000 0.0000 14.6254 0.0000 0.0000
# 5 0.0000 0.0000 0.0000 0.0000 17.1014 0.0000
# 6 0.0000 0.0000 0.0000 0.0000 0.0000 17.8792
#
#
#
# Elastic Compliance Matrix: (Units=1/GPa)
#
#
# Indices 1 2 3 4 5 6 
#
# 1 0.014008 -0.003729 -0.005684 0.000000 0.000000 0.000000
# 2 -0.003729 0.011481 -0.003319 0.000000 0.000000 0.000000
# 3 -0.005684 -0.003319 0.016947 0.000000 0.000000 0.000000
# 4 0.000000 0.000000 0.000000 0.068374 0.000000 0.000000
# 5 0.000000 0.000000 0.000000 0.000000 0.058475 0.000000
# 6 0.000000 0.000000 0.000000 0.000000 0.000000 0.055931
#
#
# Mechanical properties :
#
#
# Convention : Reuss Voigt Hill
#
# Bulk Modulus (GPa) = 58.91820 60.32614 59.62217
# Shear Modulus (GPa) = 19.50550 21.18525 20.34538
#
# Velocity S-wave (km/s) = 3.34544 3.48651 3.41670
# Velocity P-wave (km/s) = 6.98061 7.12895 7.05517
#
# Compressibility (1/GPa) = 0.01697268
#
# Stress axis : x y z
#
# Youngs Moduli (GPa) = 71.38695 87.09775 59.00733
#
# Poissons Ratio (x) = 0.32476 0.33542
# Poissons Ratio (y) = 0.26618 0.19584
# Poissons Ratio (z) = 0.40579 0.28907
#
# Static dielectric constant tensor:
#      x y z
#    x 3.249900 0.000000 0.000000 
#    y 0.000000 3.300500 0.000000 
#    z 0.000000 0.000000 3.003680 
# 
# 
# High freq. dielectric constant tensor:
#      x y z
#    x 1.673920 0.000000 0.000000 
#    y 0.000000 1.673530 0.000000 
#    z 0.000000 0.000000 1.649070 
# 
# From -- ./inp_files/33826.got.cif
#   From: 2010.03.12/outbox.cif.g09.slc.cpg/sg65_17_cif.got.tgz:33826.got - 2010.04.10 20:52:16.
