data_PCOD8265673
_publ_section_title
;
Structure prediction by ZEFSAII (Michael W. Deem and Ramdas Pophale) SiO2 
 PCOD8265673
Probable space group: C M M M
;
_chemical_formula_sum "Si O2"
_cell_formula_units_Z 120
_cell_length_a 17.568627
_cell_length_b 21.970389
_cell_length_c 18.436689
_cell_angle_alpha 90.000000
_cell_angle_beta 90.000000
_cell_angle_gamma 90.000000
_cell_volume 7116.369648
_symmetry_space_group_name_H-M "C M M M"
_symmetry_group_IT_number 65
_symmetry_cell_setting 'orthorhombic'
loop_
_space_group_symop_operation_xyz
x,y,z
-x,-y,z
x,-y,-z
-x,y,-z
-x,-y,-z
x,y,-z
-x,y,z
x,-y,z
1/2+x,1/2+y,z
1/2-x,1/2-y,z
1/2+x,1/2-y,-z
1/2-x,1/2+y,-z
1/2-x,1/2-y,-z
1/2+x,1/2+y,-z
1/2-x,1/2+y,z
1/2+x,1/2-y,z
loop_
_atom_site_type_symbol
_atom_site_label
_atom_site_fract_x
_atom_site_fract_y
_atom_site_fract_z
Si Si1 0.000000 0.428648 0.920556
Si Si2 0.586599 0.729836 0.830846
Si Si3 0.784922 0.183091 0.579567
Si Si4 0.913383 0.569122 0.287097
Si Si5 0.123814 0.352780 0.414662
Si Si6 0.634539 0.863304 0.154081
Si Si7 0.414238 0.272543 0.663419
Si Si8 0.219577 0.818192 0.082856
O O1 0.920969 0.411039 0.883267
O O2 0.000000 0.500000 0.924367
O O3 0.000000 0.398736 0.000000
O O4 0.500000 0.708416 0.843329
O O5 0.597690 0.797624 0.860823
O O6 0.608257 0.735613 0.746735
O O7 0.640441 0.681180 0.872103
O O8 0.817974 0.170211 0.500000
O O9 0.750000 0.250000 0.584238
O O10 0.714790 0.138515 0.596832
O O11 0.856003 0.176276 0.633742
O O12 0.882498 0.500000 0.283185
O O13 0.913039 0.591548 0.370673
O O14 0.862118 0.615165 0.238428
O O15 0.000000 0.571874 0.257963
O O16 0.101937 0.355489 0.500000
O O17 0.093097 0.289775 0.381443
O O18 0.719759 0.863758 0.120587
O O19 0.500000 0.297164 0.655750
O O20 0.250000 0.750000 0.085610
O O21 0.205234 0.839220 0.000000
#
# Coordination Sequence:
#
# PCOD8265673 Si02
#       8
#     8  16  16  16  16  16  16  16
#     4  11  22  34  52  74  97 129 167 207 249 289
#     4  10  19  31  48  73 100 133 164 193 239 294
#     4   8  16  28  42  62  89 121 156 195 238 282
#     4  11  22  34  49  69  94 127 168 210 248 287
#     4  10  20  32  47  65  92 130 169 204 241 285
#     4  11  19  34  51  68  97 132 165 204 243 289
#     4  10  18  27  44  69  96 125 161 194 229 282
#     4   9  20  33  48  73  98 127 165 198 236 296
#
# _framework density 16.86253
#
# number of rings (size 3 to 8) (size 9 to 14) (size 15 to 20)
#    0.000    2.067    2.667    2.400    1.867    4.533 
#    0.000    0.667    0.000    0.000    0.000    0.000 
#    0.000    3.733    0.000    9.467    0.000    0.000 
#
# Total GULP energy -743668.275256 kJ/mol
# GULP energy per Si atom -12394.471254 kJ/mol
# Density = 1.682415 g / cm^3
# Si number density = 16.862530 Si / 1000 Ang^3
#
#
#
# Elastic Constant Matrix: (Units=GPa)
#
#
# Indices 1 2 3 4 5 6 
#
# 1 104.0690 25.7479 53.2779 0.0000 0.0000 0.0000
# 2 25.7479 36.7623 21.8942 0.0000 0.0000 0.0000
# 3 53.2779 21.8942 113.0964 0.0000 0.0000 0.0000
# 4 0.0000 0.0000 0.0000 15.9429 0.0000 0.0000
# 5 0.0000 0.0000 0.0000 0.0000 25.8853 0.0000
# 6 0.0000 0.0000 0.0000 0.0000 0.0000 18.0455
#
#
#
# Elastic Compliance Matrix: (Units=1/GPa)
#
#
# Indices 1 2 3 4 5 6 
#
# 1 0.013957 -0.006623 -0.005293 0.000000 0.000000 0.000000
# 2 -0.006623 0.033890 -0.003441 0.000000 0.000000 0.000000
# 3 -0.005293 -0.003441 0.012001 0.000000 0.000000 0.000000
# 4 0.000000 0.000000 0.000000 0.062724 0.000000 0.000000
# 5 0.000000 0.000000 0.000000 0.000000 0.038632 0.000000
# 6 0.000000 0.000000 0.000000 0.000000 0.000000 0.055416
#
#
# Mechanical properties :
#
#
# Convention : Reuss Voigt Hill
#
# Bulk Modulus (GPa) = 34.32288 50.64084 42.48186
# Shear Modulus (GPa) = 19.45183 22.17525 20.81354
#
# Velocity S-wave (km/s) = 3.40008 3.63031 3.51708
# Velocity P-wave (km/s) = 5.98438 6.90427 6.46072
#
# Compressibility (1/GPa) = 0.02913508
#
# Stress axis : x y z
#
# Youngs Moduli (GPa) = 71.64665 29.50742 83.32323
#
# Poissons Ratio (x) = 0.19544 0.44102
# Poissons Ratio (y) = 0.47454 0.28668
# Poissons Ratio (z) = 0.37922 0.10152
#
# Static dielectric constant tensor:
#      x y z
#    x 3.407190 0.000000 0.000000 
#    y 0.000000 2.710230 0.000000 
#    z 0.000000 0.000000 3.400190 
# 
# 
# High freq. dielectric constant tensor:
#      x y z
#    x 1.648360 0.000000 0.000000 
#    y 0.000000 1.586070 0.000000 
#    z 0.000000 0.000000 1.668170 
# 
# From -- ./inp_files/54924.got.cif
#   From: 2010.03.12/outbox.cif.g09.slc.cpg/sg65_28_cif.got.tgz:54924.got - 2010.04.10 20:52:16.
