data_PCOD8265638
_publ_section_title
;
Structure prediction by ZEFSAII (Michael W. Deem and Ramdas Pophale) SiO2 
 PCOD8265638
Probable space group: C M M M
;
_chemical_formula_sum "Si O2"
_cell_formula_units_Z 96
_cell_length_a 27.518824
_cell_length_b 8.946782
_cell_length_c 24.159201
_cell_angle_alpha 90.000000
_cell_angle_beta 90.000000
_cell_angle_gamma 90.000000
_cell_volume 5948.114131
_symmetry_space_group_name_H-M "C M M M"
_symmetry_group_IT_number 65
_symmetry_cell_setting 'orthorhombic'
loop_
_space_group_symop_operation_xyz
x,y,z
-x,-y,z
x,-y,-z
-x,y,-z
-x,-y,-z
x,y,-z
-x,y,z
x,-y,z
1/2+x,1/2+y,z
1/2-x,1/2-y,z
1/2+x,1/2-y,-z
1/2-x,1/2+y,-z
1/2-x,1/2-y,-z
1/2+x,1/2+y,-z
1/2-x,1/2+y,z
1/2+x,1/2-y,z
loop_
_atom_site_type_symbol
_atom_site_label
_atom_site_fract_x
_atom_site_fract_y
_atom_site_fract_z
Si Si1 0.613107 0.827344 0.938171
Si Si2 0.698725 0.324586 0.883604
Si Si3 0.697749 0.824935 0.560070
Si Si4 0.697158 0.677386 0.332538
Si Si5 0.140518 0.824973 0.776210
Si Si6 0.445573 0.176188 0.832360
O O1 0.661752 0.731110 0.930508
O O2 0.572509 0.777179 0.893794
O O3 0.626898 0.000000 0.929131
O O4 0.592580 0.799215 0.000000
O O5 0.705182 0.500000 0.888448
O O6 0.750000 0.250000 0.894075
O O7 0.678435 0.275794 0.823571
O O8 0.671414 0.801122 0.500000
O O9 0.750000 0.750000 0.556448
O O10 0.671251 0.742572 0.611539
O O11 0.703113 0.000000 0.573138
O O12 0.702890 0.500000 0.336408
O O13 0.750000 0.750000 0.323804
O O14 0.662592 0.725616 0.282242
O O15 0.088862 0.745325 0.785232
O O16 0.130875 0.000000 0.778488
O O17 0.500000 0.239381 0.824717
O O18 0.444854 0.000000 0.825004
#
# Coordination Sequence:
#
# PCOD8265638 Si02
#       6
#    16  16  16  16  16  16
#     4   9  18  32  48  66  88 112 139 172 210 254
#     4  10  19  31  46  63  86 115 146 178 212 251
#     4   9  16  25  37  55  82 117 154 186 215 247
#     4  10  18  27  41  62  88 118 152 184 215 251
#     4   9  19  32  45  64  88 114 144 178 215 257
#     4   9  18  32  50  70  88 108 136 172 216 262
#
# _framework density 16.139569000000002
#
# number of rings (size 3 to 8) (size 9 to 14) (size 15 to 20)
#    0.000    2.667    0.000    3.000    0.000    4.333 
#    0.000    1.667    0.000    0.000    0.000    4.667 
#    0.000    0.667    0.000    7.333    0.000    5.333 
#
# Total GULP energy -594978.384245 kJ/mol
# GULP energy per Si atom -12395.383005 kJ/mol
# Density = 1.610283 g / cm^3
# Si number density = 16.139569 Si / 1000 Ang^3
#
#
#
# Elastic Constant Matrix: (Units=GPa)
#
#
# Indices 1 2 3 4 5 6 
#
# 1 96.3540 31.7504 44.5725 0.0000 0.0000 0.0000
# 2 31.7504 57.6037 36.7156 0.0000 0.0000 0.0000
# 3 44.5725 36.7156 126.6722 0.0000 0.0000 0.0000
# 4 0.0000 0.0000 0.0000 26.1776 0.0000 0.0000
# 5 0.0000 0.0000 0.0000 0.0000 15.5320 0.0000
# 6 0.0000 0.0000 0.0000 0.0000 0.0000 21.6133
#
#
#
# Elastic Compliance Matrix: (Units=1/GPa)
#
#
# Indices 1 2 3 4 5 6 
#
# 1 0.013676 -0.005484 -0.003223 0.000000 0.000000 0.000000
# 2 -0.005484 0.023493 -0.004880 0.000000 0.000000 0.000000
# 3 -0.003223 -0.004880 0.010443 0.000000 0.000000 0.000000
# 4 0.000000 0.000000 0.000000 0.038201 0.000000 0.000000
# 5 0.000000 0.000000 0.000000 0.000000 0.064383 0.000000
# 6 0.000000 0.000000 0.000000 0.000000 0.000000 0.046268
#
#
# Mechanical properties :
#
#
# Convention : Reuss Voigt Hill
#
# Bulk Modulus (GPa) = 48.92608 56.30078 52.61343
# Shear Modulus (GPa) = 21.69670 23.83734 22.76702
#
# Velocity S-wave (km/s) = 3.67047 3.84728 3.75991
# Velocity P-wave (km/s) = 6.95294 7.39560 7.17768
#
# Compressibility (1/GPa) = 0.02043900
#
# Stress axis : x y z
#
# Youngs Moduli (GPa) = 73.11899 42.56590 95.76009
#
# Poissons Ratio (x) = 0.23343 0.30861
# Poissons Ratio (y) = 0.40099 0.46728
# Poissons Ratio (z) = 0.23565 0.20771
#
# Static dielectric constant tensor:
#      x y z
#    x 2.837900 0.000000 0.000000 
#    y 0.000000 3.093860 0.000000 
#    z 0.000000 0.000000 3.568360 
# 
# 
# High freq. dielectric constant tensor:
#      x y z
#    x 1.578760 0.000000 0.000000 
#    y 0.000000 1.628450 0.000000 
#    z 0.000000 0.000000 1.625680 
# 
# From -- ./inp_files/71415.got.cif
#   From: 2010.03.12/outbox.cif.g09.slc.cpg/sg65_36_cif.got.tgz:71415.got - 2010.04.10 20:52:16.
