data_PCOD8265248
_publ_section_title
;
Structure prediction by ZEFSAII (Michael W. Deem and Ramdas Pophale) SiO2 
 PCOD8265248
Probable space group: C M M M
;
_chemical_formula_sum "Si O2"
_cell_formula_units_Z 72
_cell_length_a 9.670628
_cell_length_b 38.900928
_cell_length_c 12.953231
_cell_angle_alpha 90.000000
_cell_angle_beta 90.000000
_cell_angle_gamma 90.000000
_cell_volume 4872.958916
_symmetry_space_group_name_H-M "C M M M"
_symmetry_group_IT_number 65
_symmetry_cell_setting 'orthorhombic'
loop_
_space_group_symop_operation_xyz
x,y,z
-x,-y,z
x,-y,-z
-x,y,-z
-x,-y,-z
x,y,-z
-x,y,z
x,-y,z
1/2+x,1/2+y,z
1/2-x,1/2-y,z
1/2+x,1/2-y,-z
1/2-x,1/2+y,-z
1/2-x,1/2-y,-z
1/2+x,1/2+y,-z
1/2-x,1/2+y,z
1/2+x,1/2-y,z
loop_
_atom_site_type_symbol
_atom_site_label
_atom_site_fract_x
_atom_site_fract_y
_atom_site_fract_z
Si Si1 0.836013 0.961676 0.385520
Si Si2 0.161647 0.356419 0.880022
Si Si3 0.335487 0.417252 0.805003
Si Si4 0.847316 0.720537 0.122734
Si Si5 0.336445 0.461600 0.000000
O O1 0.788018 0.949733 0.500000
O O2 0.782456 0.934950 0.300362
O O3 0.000000 0.963194 0.379835
O O4 0.778161 0.000000 0.362169
O O5 0.257066 0.381122 0.811890
O O6 0.202738 0.317662 0.846554
O O7 0.000000 0.363311 0.858620
O O8 0.195728 0.362434 0.000000
O O9 0.500000 0.410886 0.806985
O O10 0.286401 0.441528 0.898626
O O11 0.750000 0.750000 0.171102
O O12 0.000000 0.727107 0.167423
O O13 0.850680 0.723217 0.000000
O O14 0.272067 0.500000 0.000000
O O15 0.500000 0.464427 0.000000
#
# Coordination Sequence:
#
# PCOD8265248 Si02
#       5
#    16  16  16  16   8
#     4   8  14  25  41  60  80 102 131 170 213 248
#     4   9  17  28  39  53  81 115 137 157 196 243
#     4  10  17  25  40  61  80 102 135 170 201 236
#     4   8  14  24  37  53  73 102 136 164 190 224
#     4   9  16  24  35  55  80 101 126 165 204 231
#
# _framework density 14.775416
#
# number of rings (size 3 to 8) (size 9 to 14) (size 15 to 20)
#    0.000    3.222    1.111    2.667    0.000    3.556 
#    0.000    2.222    0.000    4.000    0.000    1.556 
#    0.000    0.889    0.000    2.000    0.000    3.111 
#
# Total GULP energy -446163.459667 kJ/mol
# GULP energy per Si atom -12393.429435 kJ/mol
# Density = 1.474179 g / cm^3
# Si number density = 14.775416 Si / 1000 Ang^3
#
#
#
# Elastic Constant Matrix: (Units=GPa)
#
#
# Indices 1 2 3 4 5 6 
#
# 1 40.6523 53.4758 27.2371 0.0000 0.0000 0.0000
# 2 53.4758 139.4722 57.7537 0.0000 0.0000 0.0000
# 3 27.2371 57.7537 82.5169 0.0000 0.0000 0.0000
# 4 0.0000 0.0000 0.0000 15.5197 0.0000 0.0000
# 5 0.0000 0.0000 0.0000 0.0000 7.6578 0.0000
# 6 0.0000 0.0000 0.0000 0.0000 0.0000 24.2160
#
#
#
# Elastic Compliance Matrix: (Units=1/GPa)
#
#
# Indices 1 2 3 4 5 6 
#
# 1 0.050746 -0.017630 -0.004411 0.000000 0.000000 0.000000
# 2 -0.017630 0.016221 -0.005534 0.000000 0.000000 0.000000
# 3 -0.004411 -0.005534 0.017448 0.000000 0.000000 0.000000
# 4 0.000000 0.000000 0.000000 0.064434 0.000000 0.000000
# 5 0.000000 0.000000 0.000000 0.000000 0.130585 0.000000
# 6 0.000000 0.000000 0.000000 0.000000 0.000000 0.041295
#
#
# Mechanical properties :
#
#
# Convention : Reuss Voigt Hill
#
# Bulk Modulus (GPa) = 34.17047 59.95274 47.06160
# Shear Modulus (GPa) = 12.96569 17.75703 15.36136
#
# Velocity S-wave (km/s) = 2.96551 3.47045 3.22787
# Velocity P-wave (km/s) = 5.90783 7.53146 6.76850
#
# Compressibility (1/GPa) = 0.02926503
#
# Stress axis : x y z
#
# Youngs Moduli (GPa) = 19.70616 61.64821 57.31422
#
# Poissons Ratio (x) = 1.08687 0.25279
# Poissons Ratio (y) = 0.34742 0.31716
# Poissons Ratio (z) = 0.08692 0.34115
#
# Static dielectric constant tensor:
#      x y z
#    x 2.656290 0.000000 0.000000 
#    y 0.000000 3.024240 0.000000 
#    z 0.000000 0.000000 2.727660 
# 
# 
# High freq. dielectric constant tensor:
#      x y z
#    x 1.534680 0.000000 0.000000 
#    y 0.000000 1.571700 0.000000 
#    z 0.000000 0.000000 1.526110 
# 
# From -- ./inp_files/22690.got.cif
#   From: 2010.03.12/outbox.cif.g09.slc.cpg/sg65_12_cif.got.tgz:22690.got - 2010.04.10 20:52:16.
