data_PCOD8265967
_publ_section_title
;
Structure prediction by ZEFSAII (Michael W. Deem and Ramdas Pophale) SiO2 
 PCOD8265967
Probable space group: C M M M
;
_chemical_formula_sum "Si O2"
_cell_formula_units_Z 104
_cell_length_a 27.324765
_cell_length_b 9.016287
_cell_length_c 26.188577
_cell_angle_alpha 90.000000
_cell_angle_beta 90.000000
_cell_angle_gamma 90.000000
_cell_volume 6452.025334
_symmetry_space_group_name_H-M "C M M M"
_symmetry_group_IT_number 65
_symmetry_cell_setting 'orthorhombic'
loop_
_space_group_symop_operation_xyz
x,y,z
-x,-y,z
x,-y,-z
-x,y,-z
-x,-y,-z
x,y,-z
-x,y,z
x,-y,z
1/2+x,1/2+y,z
1/2-x,1/2-y,z
1/2+x,1/2-y,-z
1/2-x,1/2+y,-z
1/2-x,1/2-y,-z
1/2+x,1/2+y,-z
1/2-x,1/2+y,z
1/2+x,1/2-y,z
loop_
_atom_site_type_symbol
_atom_site_label
_atom_site_fract_x
_atom_site_fract_y
_atom_site_fract_z
Si Si1 0.887560 0.327739 0.145102
Si Si2 0.802885 0.674444 0.389178
Si Si3 0.358988 0.326683 0.300222
Si Si4 0.943808 0.170032 0.058745
Si Si5 0.301722 0.673731 0.801841
Si Si6 0.443904 0.172098 0.246763
Si Si7 0.300220 0.169176 0.500000
O O1 0.874347 0.500000 0.142092
O O2 0.909507 0.276158 0.091560
O O3 0.837968 0.238228 0.155595
O O4 0.927120 0.294158 0.189111
O O5 0.796563 0.500000 0.378477
O O6 0.750000 0.750000 0.382781
O O7 0.841242 0.742255 0.350190
O O8 0.826643 0.705875 0.445917
O O9 0.361573 0.500000 0.311703
O O10 0.321933 0.289221 0.254381
O O11 0.412996 0.268991 0.286579
O O12 0.000000 0.216753 0.066980
O O13 0.936120 0.000000 0.075628
O O14 0.928828 0.191246 0.000000
O O15 0.296214 0.500000 0.810734
O O16 0.250000 0.750000 0.808657
O O17 0.500000 0.220760 0.252041
O O18 0.436254 0.000000 0.260086
O O19 0.250000 0.250000 0.500000
O O20 0.285300 0.000000 0.500000
#
# Coordination Sequence:
#
# PCOD8265967 Si02
#       7
#    16  16  16  16  16  16   8
#     4  10  19  31  49  72  96 122 153 189 228 271
#     4  10  18  29  45  65  92 123 154 189 227 269
#     4  10  20  31  45  68  94 122 155 188 226 271
#     4   9  18  32  49  70  97 127 156 187 226 271
#     4  10  20  33  48  67  93 124 157 191 226 268
#     4   9  18  32  48  67  93 123 153 187 228 271
#     4   8  16  28  42  62  87 118 153 186 224 269
#
# _framework density 16.118969
#
# number of rings (size 3 to 8) (size 9 to 14) (size 15 to 20)
#    0.000    2.462    0.000    3.231    0.000    5.846 
#    0.000    0.769    0.000    0.462    0.000    0.538 
#    0.000    4.308    0.000    0.000    0.000    0.000 
#
# Total GULP energy -644715.515660 kJ/mol
# GULP energy per Si atom -12398.375301 kJ/mol
# Density = 1.608228 g / cm^3
# Si number density = 16.118969 Si / 1000 Ang^3
#
#
#
# Elastic Constant Matrix: (Units=GPa)
#
#
# Indices 1 2 3 4 5 6 
#
# 1 107.4387 51.5993 53.2276 0.0000 0.0000 0.0000
# 2 51.5993 81.4167 52.3245 0.0000 0.0000 0.0000
# 3 53.2276 52.3245 101.1170 0.0000 0.0000 0.0000
# 4 0.0000 0.0000 0.0000 27.4832 0.0000 0.0000
# 5 0.0000 0.0000 0.0000 0.0000 20.1246 0.0000
# 6 0.0000 0.0000 0.0000 0.0000 0.0000 29.6212
#
#
#
# Elastic Compliance Matrix: (Units=1/GPa)
#
#
# Indices 1 2 3 4 5 6 
#
# 1 0.014541 -0.006437 -0.004323 0.000000 0.000000 0.000000
# 2 -0.006437 0.021252 -0.007609 0.000000 0.000000 0.000000
# 3 -0.004323 -0.007609 0.016103 0.000000 0.000000 0.000000
# 4 0.000000 0.000000 0.000000 0.036386 0.000000 0.000000
# 5 0.000000 0.000000 0.000000 0.000000 0.049691 0.000000
# 6 0.000000 0.000000 0.000000 0.000000 0.000000 0.033760
#
#
# Mechanical properties :
#
#
# Convention : Reuss Voigt Hill
#
# Bulk Modulus (GPa) = 65.97490 67.14169 66.55830
# Shear Modulus (GPa) = 23.41672 24.30052 23.85862
#
# Velocity S-wave (km/s) = 3.81562 3.88696 3.85146
# Velocity P-wave (km/s) = 7.77372 7.86695 7.82048
#
# Compressibility (1/GPa) = 0.01515728
#
# Stress axis : x y z
#
# Youngs Moduli (GPa) = 68.77069 47.05420 62.10183
#
# Poissons Ratio (x) = 0.30289 0.26849
# Poissons Ratio (y) = 0.44269 0.47252
# Poissons Ratio (z) = 0.29732 0.35802
#
# Static dielectric constant tensor:
#      x y z
#    x 2.882880 0.000000 0.000000 
#    y 0.000000 3.132610 0.000000 
#    z 0.000000 0.000000 3.468630 
# 
# 
# High freq. dielectric constant tensor:
#      x y z
#    x 1.597740 0.000000 0.000000 
#    y 0.000000 1.633760 0.000000 
#    z 0.000000 0.000000 1.614980 
# 
# From -- ./inp_files/68202.got.cif
#   From: 2010.03.12/outbox.cif.g09.slc.cpg/sg65_35_cif.got.tgz:68202.got - 2010.04.10 20:52:16.
