data_PCOD8265852
_publ_section_title
;
Structure prediction by ZEFSAII (Michael W. Deem and Ramdas Pophale) SiO2 
 PCOD8265852
Probable space group: C M M M
;
_chemical_formula_sum "Si O2"
_cell_formula_units_Z 96
_cell_length_a 8.979305
_cell_length_b 27.541329
_cell_length_c 23.588557
_cell_angle_alpha 90.000000
_cell_angle_beta 90.000000
_cell_angle_gamma 90.000000
_cell_volume 5833.497163
_symmetry_space_group_name_H-M "C M M M"
_symmetry_group_IT_number 65
_symmetry_cell_setting 'orthorhombic'
loop_
_space_group_symop_operation_xyz
x,y,z
-x,-y,z
x,-y,-z
-x,y,-z
-x,-y,-z
x,y,-z
-x,y,z
x,-y,z
1/2+x,1/2+y,z
1/2-x,1/2-y,z
1/2+x,1/2-y,-z
1/2-x,1/2+y,-z
1/2-x,1/2-y,-z
1/2+x,1/2+y,-z
1/2-x,1/2+y,z
1/2+x,1/2-y,z
loop_
_atom_site_type_symbol
_atom_site_label
_atom_site_fract_x
_atom_site_fract_y
_atom_site_fract_z
Si Si1 0.325240 0.698654 0.272634
Si Si2 0.829512 0.855710 0.842166
Si Si3 0.823326 0.445797 0.562591
Si Si4 0.823472 0.610283 0.328582
Si Si5 0.171515 0.944697 0.230940
Si Si6 0.825947 0.700286 0.064564
O O1 0.500000 0.702739 0.283505
O O2 0.250000 0.750000 0.282670
O O3 0.289794 0.680228 0.209430
O O4 0.256860 0.661263 0.317736
O O5 0.794617 0.910957 0.823502
O O6 0.727719 0.843676 0.896002
O O7 0.000000 0.849409 0.860615
O O8 0.770444 0.428288 0.500000
O O9 0.760480 0.500000 0.574701
O O10 0.766540 0.408427 0.610185
O O11 0.000000 0.448066 0.564841
O O12 0.777152 0.569899 0.282667
O O13 0.000000 0.617618 0.325946
O O14 0.000000 0.936505 0.249826
O O15 0.203295 0.000000 0.213235
O O16 0.750000 0.750000 0.084920
O O17 0.000000 0.707431 0.071652
O O18 0.781384 0.687889 0.000000
#
# Coordination Sequence:
#
# PCOD8265852 Si02
#       6
#    16  16  16  16  16  16
#     4  10  20  33  48  68  94 122 152 188 230 273
#     4   9  18  31  48  69  91 118 150 184 224 268
#     4   8  14  25  42  66  95 123 151 186 226 267
#     4  10  18  28  46  71  95 121 154 189 227 274
#     4   9  18  32  48  67  94 125 154 188 230 271
#     4  10  20  32  47  68  93 120 149 183 224 268
#
# _framework density 16.456681
#
# number of rings (size 3 to 8) (size 9 to 14) (size 15 to 20)
#    0.000    2.667    0.000    4.000    0.000    6.667 
#    0.000    0.000    0.000    3.000    0.000    9.333 
#    0.000    0.000    0.000    0.000    0.000    0.000 
#
# Total GULP energy -595161.829005 kJ/mol
# GULP energy per Si atom -12399.204771 kJ/mol
# Density = 1.641922 g / cm^3
# Si number density = 16.456681 Si / 1000 Ang^3
#
#
#
# Elastic Constant Matrix: (Units=GPa)
#
#
# Indices 1 2 3 4 5 6 
#
# 1 61.9361 44.4988 43.4568 0.0000 0.0000 0.0000
# 2 44.4988 134.9642 67.6982 0.0000 0.0000 0.0000
# 3 43.4568 67.6982 107.0448 0.0000 0.0000 0.0000
# 4 0.0000 0.0000 0.0000 25.9100 0.0000 0.0000
# 5 0.0000 0.0000 0.0000 0.0000 18.3736 0.0000
# 6 0.0000 0.0000 0.0000 0.0000 0.0000 25.5798
#
#
#
# Elastic Compliance Matrix: (Units=1/GPa)
#
#
# Indices 1 2 3 4 5 6 
#
# 1 0.024300 -0.004487 -0.007027 0.000000 0.000000 0.000000
# 2 -0.004487 0.011680 -0.005565 0.000000 0.000000 0.000000
# 3 -0.007027 -0.005565 0.015715 0.000000 0.000000 0.000000
# 4 0.000000 0.000000 0.000000 0.038595 0.000000 0.000000
# 5 0.000000 0.000000 0.000000 0.000000 0.054426 0.000000
# 6 0.000000 0.000000 0.000000 0.000000 0.000000 0.039093
#
#
# Mechanical properties :
#
#
# Convention : Reuss Voigt Hill
#
# Bulk Modulus (GPa) = 57.02750 68.36143 62.69446
# Shear Modulus (GPa) = 22.33996 23.85876 23.09936
#
# Velocity S-wave (km/s) = 3.68843 3.81174 3.75059
# Velocity P-wave (km/s) = 7.27101 7.81044 7.54555
#
# Compressibility (1/GPa) = 0.01753540
#
# Stress axis : x y z
#
# Youngs Moduli (GPa) = 41.15209 85.61342 63.63547
#
# Poissons Ratio (x) = 0.38415 0.44719
# Poissons Ratio (y) = 0.18465 0.35416
# Poissons Ratio (z) = 0.28919 0.47648
#
# Static dielectric constant tensor:
#      x y z
#    x 3.013280 0.000000 0.000000 
#    y 0.000000 3.117560 0.000000 
#    z 0.000000 0.000000 3.145410 
# 
# 
# High freq. dielectric constant tensor:
#      x y z
#    x 1.628910 0.000000 0.000000 
#    y 0.000000 1.627280 0.000000 
#    z 0.000000 0.000000 1.621640 
# 
# From -- ./inp_files/68016.got.cif
#   From: 2010.03.12/outbox.cif.g09.slc.cpg/sg65_35_cif.got.tgz:68016.got - 2010.04.10 20:52:16.
