data_PCOD8265749
_publ_section_title
;
Structure prediction by ZEFSAII (Michael W. Deem and Ramdas Pophale) SiO2 
 PCOD8265749
Probable space group: C M M M
;
_chemical_formula_sum "Si O2"
_cell_formula_units_Z 96
_cell_length_a 27.464020
_cell_length_b 8.725737
_cell_length_c 24.545534
_cell_angle_alpha 90.000000
_cell_angle_beta 90.000000
_cell_angle_gamma 90.000000
_cell_volume 5882.185421
_symmetry_space_group_name_H-M "C M M M"
_symmetry_group_IT_number 65
_symmetry_cell_setting 'orthorhombic'
loop_
_space_group_symop_operation_xyz
x,y,z
-x,-y,z
x,-y,-z
-x,y,-z
-x,-y,-z
x,y,-z
-x,y,z
x,-y,z
1/2+x,1/2+y,z
1/2-x,1/2-y,z
1/2+x,1/2-y,-z
1/2-x,1/2+y,-z
1/2-x,1/2-y,-z
1/2+x,1/2+y,-z
1/2-x,1/2+y,z
1/2+x,1/2-y,z
loop_
_atom_site_type_symbol
_atom_site_label
_atom_site_fract_x
_atom_site_fract_y
_atom_site_fract_z
Si Si1 0.944620 0.818873 0.666771
Si Si2 0.696114 0.318186 0.175912
Si Si3 0.302560 0.679315 0.942571
Si Si4 0.800662 0.180097 0.624294
Si Si5 0.605517 0.680119 0.559548
Si Si6 0.355358 0.181234 0.723721
O O1 0.932100 0.759818 0.605453
O O2 0.910018 0.736167 0.710086
O O3 0.000000 0.775694 0.680497
O O4 0.934934 0.000000 0.670469
O O5 0.698684 0.500000 0.185358
O O6 0.750000 0.250000 0.184376
O O7 0.673927 0.274252 0.115664
O O8 0.658103 0.242777 0.216963
O O9 0.295187 0.500000 0.941786
O O10 0.250000 0.750000 0.944562
O O11 0.330370 0.726696 0.000000
O O12 0.750000 0.250000 0.604361
O O13 0.839760 0.221376 0.577853
O O14 0.816255 0.253373 0.681377
O O15 0.795850 0.000000 0.633320
O O16 0.595224 0.755584 0.500000
O O17 0.599304 0.500000 0.554133
O O18 0.353217 0.000000 0.722641
#
# Coordination Sequence:
#
# PCOD8265749 Si02
#       6
#    16  16  16  16  16  16
#     4   9  18  33  52  71  90 112 138 173 220 269
#     4  10  18  28  43  64  92 123 155 188 220 256
#     4   8  14  24  38  57  83 117 153 185 216 250
#     4  10  19  31  46  64  88 118 150 182 218 258
#     4   8  15  28  46  69  93 114 139 172 210 258
#     4  11  21  32  46  64  88 116 149 186 221 261
#
# _framework density 16.320464999999999
#
# number of rings (size 3 to 8) (size 9 to 14) (size 15 to 20)
#    0.000    2.667    0.000    4.000    0.000    1.667 
#    0.000    1.667    0.000   12.000    0.000    4.667 
#    0.000    0.667    0.000    7.667    0.000    2.167 
#
# Total GULP energy -594669.496801 kJ/mol
# GULP energy per Si atom -12388.947850 kJ/mol
# Density = 1.628332 g / cm^3
# Si number density = 16.320465 Si / 1000 Ang^3
#
#
#
# Elastic Constant Matrix: (Units=GPa)
#
#
# Indices 1 2 3 4 5 6 
#
# 1 75.4648 28.7184 40.5976 0.0000 0.0000 0.0000
# 2 28.7184 63.8467 34.5427 0.0000 0.0000 0.0000
# 3 40.5976 34.5427 141.3672 0.0000 0.0000 0.0000
# 4 0.0000 0.0000 0.0000 13.3207 0.0000 0.0000
# 5 0.0000 0.0000 0.0000 0.0000 16.1441 0.0000
# 6 0.0000 0.0000 0.0000 0.0000 0.0000 21.3619
#
#
#
# Elastic Compliance Matrix: (Units=1/GPa)
#
#
# Indices 1 2 3 4 5 6 
#
# 1 0.017413 -0.005908 -0.003557 0.000000 0.000000 0.000000
# 2 -0.005908 0.020053 -0.003203 0.000000 0.000000 0.000000
# 3 -0.003557 -0.003203 0.008878 0.000000 0.000000 0.000000
# 4 0.000000 0.000000 0.000000 0.075071 0.000000 0.000000
# 5 0.000000 0.000000 0.000000 0.000000 0.061942 0.000000
# 6 0.000000 0.000000 0.000000 0.000000 0.000000 0.046812
#
#
# Mechanical properties :
#
#
# Convention : Reuss Voigt Hill
#
# Bulk Modulus (GPa) = 47.60208 54.26621 50.93415
# Shear Modulus (GPa) = 19.04699 21.95335 20.50017
#
# Velocity S-wave (km/s) = 3.41993 3.67160 3.54800
# Velocity P-wave (km/s) = 6.69515 7.16218 6.93260
#
# Compressibility (1/GPa) = 0.02100748
#
# Stress axis : x y z
#
# Youngs Moduli (GPa) = 57.42806 49.86795 112.63818
#
# Poissons Ratio (x) = 0.29462 0.40066
# Poissons Ratio (y) = 0.33928 0.36081
# Poissons Ratio (z) = 0.20428 0.15974
#
# Static dielectric constant tensor:
#      x y z
#    x 2.843860 0.000000 0.000000 
#    y 0.000000 2.944420 0.000000 
#    z 0.000000 0.000000 3.703130 
# 
# 
# High freq. dielectric constant tensor:
#      x y z
#    x 1.588650 0.000000 0.000000 
#    y 0.000000 1.622530 0.000000 
#    z 0.000000 0.000000 1.638530 
# 
# From -- ./inp_files/71418.got.cif
#   From: 2010.03.12/outbox.cif.g09.slc.cpg/sg65_36_cif.got.tgz:71418.got - 2010.04.10 20:52:16.
