data_PCOD8265397
_publ_section_title
;
Structure prediction by ZEFSAII (Michael W. Deem and Ramdas Pophale) SiO2 
 PCOD8265397
Probable space group: C M M M
;
_chemical_formula_sum "Si O2"
_cell_formula_units_Z 96
_cell_length_a 20.981722
_cell_length_b 18.368686
_cell_length_c 14.328158
_cell_angle_alpha 90.000000
_cell_angle_beta 90.000000
_cell_angle_gamma 90.000000
_cell_volume 5522.167564
_symmetry_space_group_name_H-M "C M M M"
_symmetry_group_IT_number 65
_symmetry_cell_setting 'orthorhombic'
loop_
_space_group_symop_operation_xyz
x,y,z
-x,-y,z
x,-y,-z
-x,y,-z
-x,-y,-z
x,y,-z
-x,y,z
x,-y,z
1/2+x,1/2+y,z
1/2-x,1/2-y,z
1/2+x,1/2-y,-z
1/2-x,1/2+y,-z
1/2-x,1/2-y,-z
1/2+x,1/2+y,-z
1/2-x,1/2+y,z
1/2+x,1/2-y,z
loop_
_atom_site_type_symbol
_atom_site_label
_atom_site_fract_x
_atom_site_fract_y
_atom_site_fract_z
Si Si1 0.870991 0.083804 0.397186
Si Si2 0.570883 0.086387 0.104357
Si Si3 0.807328 0.086574 0.104601
Si Si4 0.687312 0.086600 0.227977
Si Si5 0.240334 0.332708 0.606134
Si Si6 0.430720 0.413896 0.209096
O O1 0.901015 0.097680 0.500000
O O2 0.807511 0.128700 0.383087
O O3 0.921269 0.106695 0.318114
O O4 0.851019 0.000000 0.384324
O O5 0.500000 0.111363 0.136552
O O6 0.623781 0.115517 0.176205
O O7 0.574696 0.000000 0.101382
O O8 0.585207 0.116202 0.000000
O O9 0.748091 0.111990 0.167178
O O10 0.873392 0.118755 0.146806
O O11 0.809878 0.000000 0.103173
O O12 0.798878 0.117271 0.000000
O O13 0.689419 0.127014 0.327538
O O14 0.686368 0.000000 0.243300
O O15 0.214458 0.337120 0.500000
O O16 0.250000 0.250000 0.638106
O O17 0.500000 0.382367 0.178069
O O18 0.431211 0.500000 0.196617
#
# Coordination Sequence:
#
# PCOD8265397 Si02
#       6
#    16  16  16  16  16  16
#     4   9  16  28  46  66  89 116 149 190 232 271
#     4   8  14  25  44  74 106 128 150 186 232 279
#     4   9  16  25  39  63  93 122 153 188 223 261
#     4  10  17  28  49  73  96 122 155 193 231 272
#     4  10  20  32  47  68  94 121 152 192 236 281
#     4   9  16  25  38  61  92 121 149 184 226 268
#
# _framework density 17.384478000000001
#
# number of rings (size 3 to 8) (size 9 to 14) (size 15 to 20)
#    0.000    2.833    1.667    1.500    0.000    3.667 
#    0.000    3.333    0.000    3.500    0.000    4.667 
#    0.000    0.000    0.000    0.000    0.000    0.000 
#
# Total GULP energy -594894.719882 kJ/mol
# GULP energy per Si atom -12393.639998 kJ/mol
# Density = 1.734491 g / cm^3
# Si number density = 17.384478 Si / 1000 Ang^3
#
#
#
# Elastic Constant Matrix: (Units=GPa)
#
#
# Indices 1 2 3 4 5 6 
#
# 1 124.6607 20.1350 62.7198 0.0000 0.0000 0.0000
# 2 20.1350 30.9305 27.5092 0.0000 0.0000 0.0000
# 3 62.7198 27.5092 117.2748 0.0000 0.0000 0.0000
# 4 0.0000 0.0000 0.0000 6.0064 0.0000 0.0000
# 5 0.0000 0.0000 0.0000 0.0000 29.4317 0.0000
# 6 0.0000 0.0000 0.0000 0.0000 0.0000 1.9783
#
#
#
# Elastic Compliance Matrix: (Units=1/GPa)
#
#
# Indices 1 2 3 4 5 6 
#
# 1 0.011121 -0.002464 -0.005370 0.000000 0.000000 0.000000
# 2 -0.002464 0.041399 -0.008393 0.000000 0.000000 0.000000
# 3 -0.005370 -0.008393 0.013368 0.000000 0.000000 0.000000
# 4 0.000000 0.000000 0.000000 0.166488 0.000000 0.000000
# 5 0.000000 0.000000 0.000000 0.000000 0.033977 0.000000
# 6 0.000000 0.000000 0.000000 0.000000 0.000000 0.505489
#
#
# Mechanical properties :
#
#
# Convention : Reuss Voigt Hill
#
# Bulk Modulus (GPa) = 29.90944 54.84378 42.37661
# Shear Modulus (GPa) = 6.13164 18.31676 12.22420
#
# Velocity S-wave (km/s) = 1.88009 3.24948 2.65461
# Velocity P-wave (km/s) = 4.68562 6.75980 5.81592
#
# Compressibility (1/GPa) = 0.03343426
#
# Stress axis : x y z
#
# Youngs Moduli (GPa) = 89.91608 24.15496 74.80710
#
# Poissons Ratio (x) = 0.05951 0.40171
# Poissons Ratio (y) = 0.22154 0.62788
# Poissons Ratio (z) = 0.48284 0.20274
#
# Static dielectric constant tensor:
#      x y z
#    x 3.416680 0.000000 0.000000 
#    y 0.000000 1.077170 0.000000 
#    z 0.000000 0.000000 3.552470 
# 
# 
# High freq. dielectric constant tensor:
#      x y z
#    x 1.665500 0.000000 0.000000 
#    y 0.000000 1.609380 0.000000 
#    z 0.000000 0.000000 1.681170 
# 
# From -- ./inp_files/44534.got.cif
#   From: 2010.03.12/outbox.cif.g09.slc.cpg/sg65_23_cif.got.tgz:44534.got - 2010.04.10 20:52:16.
