data_PCOD8265717
_publ_section_title
;
Structure prediction by ZEFSAII (Michael W. Deem and Ramdas Pophale) SiO2 
 PCOD8265717
Probable space group: C M M M
;
_chemical_formula_sum "Si O2"
_cell_formula_units_Z 128
_cell_length_a 23.374439
_cell_length_b 25.597355
_cell_length_c 14.030068
_cell_angle_alpha 90.000000
_cell_angle_beta 90.000000
_cell_angle_gamma 90.000000
_cell_volume 8394.523783
_symmetry_space_group_name_H-M "C M M M"
_symmetry_group_IT_number 65
_symmetry_cell_setting 'orthorhombic'
loop_
_space_group_symop_operation_xyz
x,y,z
-x,-y,z
x,-y,-z
-x,y,-z
-x,-y,-z
x,y,-z
-x,y,z
x,-y,z
1/2+x,1/2+y,z
1/2-x,1/2-y,z
1/2+x,1/2-y,-z
1/2-x,1/2+y,-z
1/2-x,1/2-y,-z
1/2+x,1/2+y,-z
1/2-x,1/2+y,z
1/2+x,1/2-y,z
loop_
_atom_site_type_symbol
_atom_site_label
_atom_site_fract_x
_atom_site_fract_y
_atom_site_fract_z
Si Si1 0.303083 0.289005 0.760529
Si Si2 0.435857 0.441472 0.613118
Si Si3 0.662829 0.060378 0.206803
Si Si4 0.633744 0.782057 0.104564
Si Si5 0.774122 0.559615 0.393374
Si Si6 0.238206 0.361354 0.894535
Si Si7 0.565434 0.121449 0.889932
Si Si8 0.334588 0.631203 0.389136
O O1 0.250000 0.250000 0.739934
O O2 0.355638 0.259895 0.812760
O O3 0.286776 0.337610 0.827482
O O4 0.327139 0.312931 0.662606
O O5 0.430887 0.443066 0.500000
O O6 0.500000 0.424225 0.644095
O O7 0.422887 0.500000 0.652360
O O8 0.389638 0.399939 0.652702
O O9 0.674638 0.070675 0.319108
O O10 0.715249 0.084141 0.146714
O O11 0.602374 0.085812 0.180433
O O12 0.659756 0.000000 0.181257
O O13 0.686979 0.820716 0.100380
O O14 0.578099 0.817082 0.128410
O O15 0.627356 0.755046 0.000000
O O16 0.797756 0.570478 0.500000
O O17 0.752441 0.500000 0.383843
O O18 0.721008 0.596393 0.370063
O O19 0.263660 0.370877 0.000000
O O20 0.500000 0.110018 0.865824
O O21 0.580169 0.107636 0.000000
O O22 0.342708 0.643910 0.500000
#
# Coordination Sequence:
#
# PCOD8265717 Si02
#       8
#    16  16  16  16  16  16  16  16
#     4  10  18  28  42  61  87 116 151 183 216 258
#     4   8  14  26  45  66  86 110 140 175 217 262
#     4  10  18  28  44  67  94 121 146 176 222 274
#     4   8  15  28  46  62  78 107 146 185 222 256
#     4   9  17  29  45  65  90 121 155 186 217 258
#     4   9  16  27  42  62  87 114 143 175 215 265
#     4   9  18  32  49  68  89 114 148 188 229 273
#     4  10  18  28  43  65  92 121 148 181 220 260
#
# _framework density 15.248036000000001
#
# number of rings (size 3 to 8) (size 9 to 14) (size 15 to 20)
#    0.000    2.875    1.250    2.250    0.000    4.500 
#    0.000    1.250    0.000    0.375    0.000    1.750 
#    0.000    0.000    0.000    5.500    0.000    0.500 
#
# Total GULP energy -793258.945603 kJ/mol
# GULP energy per Si atom -12394.671025 kJ/mol
# Density = 1.521333 g / cm^3
# Si number density = 15.248036 Si / 1000 Ang^3
#
#
#
# Elastic Constant Matrix: (Units=GPa)
#
#
# Indices 1 2 3 4 5 6 
#
# 1 73.4963 46.4319 42.0778 0.0000 0.0000 0.0000
# 2 46.4319 86.7921 52.6634 0.0000 0.0000 0.0000
# 3 42.0778 52.6634 82.3934 0.0000 0.0000 0.0000
# 4 0.0000 0.0000 0.0000 24.9175 0.0000 0.0000
# 5 0.0000 0.0000 0.0000 0.0000 13.1157 0.0000
# 6 0.0000 0.0000 0.0000 0.0000 0.0000 20.5486
#
#
#
# Elastic Compliance Matrix: (Units=1/GPa)
#
#
# Indices 1 2 3 4 5 6 
#
# 1 0.022310 -0.008204 -0.006150 0.000000 0.000000 0.000000
# 2 -0.008204 0.021838 -0.009769 0.000000 0.000000 0.000000
# 3 -0.006150 -0.009769 0.021521 0.000000 0.000000 0.000000
# 4 0.000000 0.000000 0.000000 0.040132 0.000000 0.000000
# 5 0.000000 0.000000 0.000000 0.000000 0.076245 0.000000
# 6 0.000000 0.000000 0.000000 0.000000 0.000000 0.048665
#
#
# Mechanical properties :
#
#
# Convention : Reuss Voigt Hill
#
# Bulk Modulus (GPa) = 57.38954 58.33645 57.86300
# Shear Modulus (GPa) = 17.55840 18.48360 18.02100
#
# Velocity S-wave (km/s) = 3.39709 3.48544 3.44154
# Velocity P-wave (km/s) = 7.28738 7.38506 7.33638
#
# Compressibility (1/GPa) = 0.01742478
#
# Stress axis : x y z
#
# Youngs Moduli (GPa) = 44.82340 45.79196 46.46532
#
# Poissons Ratio (x) = 0.37566 0.28576
# Poissons Ratio (y) = 0.36771 0.45390
# Poissons Ratio (z) = 0.27566 0.44732
#
# Static dielectric constant tensor:
#      x y z
#    x 2.871170 0.000000 0.000000 
#    y 0.000000 2.953530 0.000000 
#    z 0.000000 0.000000 2.936850 
# 
# 
# High freq. dielectric constant tensor:
#      x y z
#    x 1.560530 0.000000 0.000000 
#    y 0.000000 1.577800 0.000000 
#    z 0.000000 0.000000 1.571240 
# 
# From -- ./inp_files/31480.got.cif
#   From: 2010.03.12/outbox.cif.g09.slc.cpg/sg65_16_cif.got.tgz:31480.got - 2010.04.10 20:52:16.
