data_PCOD8265847
_publ_section_title
;
Structure prediction by ZEFSAII (Michael W. Deem and Ramdas Pophale) SiO2 
 PCOD8265847
Probable space group: C M M M
;
_chemical_formula_sum "Si O2"
_cell_formula_units_Z 56
_cell_length_a 8.730627
_cell_length_b 18.295442
_cell_length_c 18.470161
_cell_angle_alpha 90.000000
_cell_angle_beta 90.000000
_cell_angle_gamma 90.000000
_cell_volume 2950.251374
_symmetry_space_group_name_H-M "C M M M"
_symmetry_group_IT_number 65
_symmetry_cell_setting 'orthorhombic'
loop_
_space_group_symop_operation_xyz
x,y,z
-x,-y,z
x,-y,-z
-x,y,-z
-x,-y,-z
x,y,-z
-x,y,z
x,-y,z
1/2+x,1/2+y,z
1/2-x,1/2-y,z
1/2+x,1/2-y,-z
1/2-x,1/2+y,-z
1/2-x,1/2-y,-z
1/2+x,1/2+y,-z
1/2-x,1/2+y,z
1/2+x,1/2-y,z
loop_
_atom_site_type_symbol
_atom_site_label
_atom_site_fract_x
_atom_site_fract_y
_atom_site_fract_z
Si Si1 0.817851 0.417942 0.860800
Si Si2 0.179238 0.170247 0.421607
Si Si3 0.681374 0.169468 0.721555
Si Si4 0.182045 0.330085 0.000000
O O1 0.751140 0.500000 0.864010
O O2 0.758416 0.379441 0.787802
O O3 0.000000 0.420265 0.861981
O O4 0.756660 0.372924 0.929625
O O5 0.208300 0.130799 0.500000
O O6 0.250000 0.250000 0.426192
O O7 0.260280 0.130721 0.353253
O O8 0.000000 0.176409 0.405616
O O9 0.500000 0.174738 0.720751
O O10 0.750000 0.250000 0.730119
O O11 0.250000 0.250000 0.000000
O O12 0.000000 0.324842 0.000000
#
# Coordination Sequence:
#
# PCOD8265847 Si02
#       4
#    16  16  16   8
#     4   9  18  32  50  72  96 126 164 198 230 274
#     4   9  16  26  42  65  93 123 156 195 237 282
#     4  10  18  28  46  70  96 124 156 198 240 281
#     4  10  19  33  55  77  99 126 156 196 238 278
#
# _framework density 18.981434
#
# number of rings (size 3 to 8) (size 9 to 14) (size 15 to 20)
#    0.000    2.571    0.000    4.714    0.000    3.429 
#    0.000    1.429    0.000    9.429    0.000    6.000 
#    0.000    0.000    0.000    0.000    0.000    0.000 
#
# Total GULP energy -346983.987385 kJ/mol
# GULP energy per Si atom -12392.285264 kJ/mol
# Density = 1.893823 g / cm^3
# Si number density = 18.981434 Si / 1000 Ang^3
#
#
#
# Elastic Constant Matrix: (Units=GPa)
#
#
# Indices 1 2 3 4 5 6 
#
# 1 59.4010 22.0967 42.7964 0.0000 0.0000 0.0000
# 2 22.0967 107.9460 83.4243 0.0000 0.0000 0.0000
# 3 42.7964 83.4243 229.6768 0.0000 0.0000 0.0000
# 4 0.0000 0.0000 0.0000 8.5777 0.0000 0.0000
# 5 0.0000 0.0000 0.0000 0.0000 25.3829 0.0000
# 6 0.0000 0.0000 0.0000 0.0000 0.0000 17.1204
#
#
#
# Elastic Compliance Matrix: (Units=1/GPa)
#
#
# Indices 1 2 3 4 5 6 
#
# 1 0.019657 -0.001659 -0.003060 0.000000 0.000000 0.000000
# 2 -0.001659 0.013019 -0.004420 0.000000 0.000000 0.000000
# 3 -0.003060 -0.004420 0.006530 0.000000 0.000000 0.000000
# 4 0.000000 0.000000 0.000000 0.116581 0.000000 0.000000
# 5 0.000000 0.000000 0.000000 0.000000 0.039397 0.000000
# 6 0.000000 0.000000 0.000000 0.000000 0.000000 0.058410
#
#
# Mechanical properties :
#
#
# Convention : Reuss Voigt Hill
#
# Bulk Modulus (GPa) = 47.78321 77.07318 62.42820
# Shear Modulus (GPa) = 17.93103 26.79662 22.36383
#
# Velocity S-wave (km/s) = 3.07687 3.76137 3.43621
# Velocity P-wave (km/s) = 6.15233 7.71729 6.97881
#
# Compressibility (1/GPa) = 0.02092785
#
# Stress axis : x y z
#
# Youngs Moduli (GPa) = 50.87375 76.80954 153.14986
#
# Poissons Ratio (x) = 0.12740 0.46867
# Poissons Ratio (y) = 0.08438 0.67690
# Poissons Ratio (z) = 0.15568 0.33949
#
# Static dielectric constant tensor:
#      x y z
#    x 3.334540 0.000000 0.000000 
#    y 0.000000 3.206380 0.000000 
#    z 0.000000 0.000000 4.542060 
# 
# 
# High freq. dielectric constant tensor:
#      x y z
#    x 1.716650 0.000000 0.000000 
#    y 0.000000 1.693760 0.000000 
#    z 0.000000 0.000000 1.771920 
# 
# From -- ./inp_files/53902.got.cif
#   From: 2010.03.12/outbox.cif.g09.slc.cpg/sg65_27_cif.got.tgz:53902.got - 2010.04.10 20:52:16.
