data_PCOD8265432
_publ_section_title
;
Structure prediction by ZEFSAII (Michael W. Deem and Ramdas Pophale) SiO2 
 PCOD8265432
Probable space group: C M M M
;
_chemical_formula_sum "Si O2"
_cell_formula_units_Z 128
_cell_length_a 18.035506
_cell_length_b 19.676616
_cell_length_c 21.174031
_cell_angle_alpha 90.000000
_cell_angle_beta 90.000000
_cell_angle_gamma 90.000000
_cell_volume 7514.191970
_symmetry_space_group_name_H-M "C M M M"
_symmetry_group_IT_number 65
_symmetry_cell_setting 'orthorhombic'
loop_
_space_group_symop_operation_xyz
x,y,z
-x,-y,z
x,-y,-z
-x,y,-z
-x,-y,-z
x,y,-z
-x,y,z
x,-y,z
1/2+x,1/2+y,z
1/2-x,1/2-y,z
1/2+x,1/2-y,-z
1/2-x,1/2+y,-z
1/2-x,1/2-y,-z
1/2+x,1/2+y,-z
1/2-x,1/2+y,z
1/2+x,1/2-y,z
loop_
_atom_site_type_symbol
_atom_site_label
_atom_site_fract_x
_atom_site_fract_y
_atom_site_fract_z
Si Si1 0.580411 0.577949 0.659323
Si Si2 0.682295 0.799698 0.073668
Si Si3 0.819011 0.877252 0.768563
Si Si4 0.709196 0.580251 0.572886
Si Si5 0.681427 0.923907 0.833645
Si Si6 0.416405 0.161560 0.742830
Si Si7 0.779787 0.680058 0.337654
Si Si8 0.417757 0.720332 0.841514
O O1 0.500000 0.615581 0.659703
O O2 0.566335 0.500000 0.645809
O O3 0.619857 0.584922 0.726735
O O4 0.630994 0.606072 0.602176
O O5 0.750000 0.750000 0.091298
O O6 0.688925 0.872398 0.107793
O O7 0.608398 0.761078 0.096438
O O8 0.677216 0.814757 0.000000
O O9 0.761172 0.929613 0.799280
O O10 0.770851 0.826689 0.725057
O O11 0.860719 0.839523 0.825583
O O12 0.711968 0.600603 0.500000
O O13 0.721062 0.500000 0.583275
O O14 0.772604 0.619325 0.611598
O O15 0.618853 0.899023 0.784408
O O16 0.660386 0.000000 0.857010
O O17 0.500000 0.140526 0.722166
O O18 0.366444 0.178266 0.681355
O O19 0.419294 0.230463 0.781894
O O20 0.750000 0.750000 0.369205
O O21 0.500000 0.691298 0.855084
#
# Coordination Sequence:
#
# PCOD8265432 Si02
#       8
#    16  16  16  16  16  16  16  16
#     4   9  17  28  44  69  99 129 161 199 244 294
#     4  10  20  35  53  72  98 133 176 220 252 296
#     4  10  17  29  48  72 105 128 160 199 249 304
#     4   9  19  34  49  67  95 133 175 211 248 300
#     4  10  20  32  52  76 104 137 170 211 257 305
#     4   9  19  32  50  76 106 135 165 204 259 314
#     4  10  18  30  52  75 100 128 163 212 253 298
#     4  10  18  30  51  76 100 132 164 200 253 308
#
# _framework density 17.034433
#
# number of rings (size 3 to 8) (size 9 to 14) (size 15 to 20)
#    0.000    2.375    2.500    0.750    0.000    4.250 
#    0.000    1.250    0.000    0.375    0.000    4.375 
#    0.000    2.000    0.000    0.000    0.000    0.000 
#
# Total GULP energy -793266.276731 kJ/mol
# GULP energy per Si atom -12394.785574 kJ/mol
# Density = 1.699566 g / cm^3
# Si number density = 17.034433 Si / 1000 Ang^3
#
#
#
# Elastic Constant Matrix: (Units=GPa)
#
#
# Indices 1 2 3 4 5 6 
#
# 1 127.7857 30.7263 45.6154 0.0000 0.0000 0.0000
# 2 30.7263 71.0132 30.3522 0.0000 0.0000 0.0000
# 3 45.6154 30.3522 86.5646 0.0000 0.0000 0.0000
# 4 0.0000 0.0000 0.0000 20.1199 0.0000 0.0000
# 5 0.0000 0.0000 0.0000 0.0000 13.1011 0.0000
# 6 0.0000 0.0000 0.0000 0.0000 0.0000 16.5320
#
#
#
# Elastic Compliance Matrix: (Units=1/GPa)
#
#
# Indices 1 2 3 4 5 6 
#
# 1 0.009985 -0.002437 -0.004407 0.000000 0.000000 0.000000
# 2 -0.002437 0.017159 -0.004733 0.000000 0.000000 0.000000
# 3 -0.004407 -0.004733 0.015534 0.000000 0.000000 0.000000
# 4 0.000000 0.000000 0.000000 0.049702 0.000000 0.000000
# 5 0.000000 0.000000 0.000000 0.000000 0.076329 0.000000
# 6 0.000000 0.000000 0.000000 0.000000 0.000000 0.060489
#
#
# Mechanical properties :
#
#
# Convention : Reuss Voigt Hill
#
# Bulk Modulus (GPa) = 51.21633 55.41681 53.31657
# Shear Modulus (GPa) = 19.31560 21.86190 20.58875
#
# Velocity S-wave (km/s) = 3.37102 3.58634 3.48034
# Velocity P-wave (km/s) = 6.72929 7.05351 6.89330
#
# Compressibility (1/GPa) = 0.01952502
#
# Stress axis : x y z
#
# Youngs Moduli (GPa) = 100.15347 58.27881 64.37585
#
# Poissons Ratio (x) = 0.14200 0.28371
# Poissons Ratio (y) = 0.24403 0.30466
# Poissons Ratio (z) = 0.44139 0.27580
#
# Static dielectric constant tensor:
#      x y z
#    x 3.518480 0.000000 0.000000 
#    y 0.000000 3.033360 0.000000 
#    z 0.000000 0.000000 2.961170 
# 
# 
# High freq. dielectric constant tensor:
#      x y z
#    x 1.661220 0.000000 0.000000 
#    y 0.000000 1.643580 0.000000 
#    z 0.000000 0.000000 1.632140 
# 
# From -- ./inp_files/64155.got.cif
#   From: 2010.03.12/outbox.cif.g09.slc.cpg/sg65_33_cif.got.tgz:64155.got - 2010.04.10 20:52:16.
