data_PCOD8265059
_publ_section_title
;
Structure prediction by ZEFSAII (Michael W. Deem and Ramdas Pophale) SiO2 
 PCOD8265059
Probable space group: C M M M
;
_chemical_formula_sum "Si O2"
_cell_formula_units_Z 96
_cell_length_a 17.590397
_cell_length_b 14.701158
_cell_length_c 20.127270
_cell_angle_alpha 90.000000
_cell_angle_beta 90.000000
_cell_angle_gamma 90.000000
_cell_volume 5204.896032
_symmetry_space_group_name_H-M "C M M M"
_symmetry_group_IT_number 65
_symmetry_cell_setting 'orthorhombic'
loop_
_space_group_symop_operation_xyz
x,y,z
-x,-y,z
x,-y,-z
-x,y,-z
-x,-y,-z
x,y,-z
-x,y,z
x,-y,z
1/2+x,1/2+y,z
1/2-x,1/2-y,z
1/2+x,1/2-y,-z
1/2-x,1/2+y,-z
1/2-x,1/2-y,-z
1/2+x,1/2+y,-z
1/2-x,1/2+y,z
1/2+x,1/2-y,z
loop_
_atom_site_type_symbol
_atom_site_label
_atom_site_fract_x
_atom_site_fract_y
_atom_site_fract_z
Si Si1 0.911257 0.000000 0.252688
Si Si2 0.088671 0.500000 0.384414
Si Si3 0.777427 0.000000 0.845342
Si Si4 0.707817 0.843154 0.073370
Si Si5 0.910556 0.195832 0.699513
Si Si6 0.414673 0.182860 0.817882
Si Si7 0.589686 0.801503 0.427840
Si Si8 0.131737 0.500000 0.240998
O O1 0.862151 0.000000 0.185039
O O2 0.891744 0.911517 0.297439
O O3 0.000000 0.000000 0.231392
O O4 0.109833 0.408627 0.424129
O O5 0.140365 0.500000 0.319484
O O6 0.000000 0.500000 0.364558
O O7 0.765213 0.088230 0.890541
O O8 0.717375 0.000000 0.785701
O O9 0.750000 0.750000 0.064960
O O10 0.631579 0.825533 0.114406
O O11 0.685818 0.880787 0.000000
O O12 0.877726 0.244072 0.766237
O O13 0.874555 0.241410 0.632665
O O14 0.000000 0.214680 0.699172
O O15 0.500000 0.211868 0.837323
O O16 0.416291 0.086460 0.781640
O O17 0.620361 0.767013 0.500000
O O18 0.500000 0.788275 0.425385
#
# Coordination Sequence:
#
# PCOD8265059 Si02
#       8
#     8   8   8  16  16  16  16   8
#     4  10  20  35  54  73  92 121 170 226 265 296
#     4  10  15  24  43  69 105 140 167 198 240 293
#     4  10  21  36  54  76 100 128 166 204 260 302
#     4  10  21  36  53  74 104 137 168 206 253 307
#     4   9  17  29  47  71 100 129 165 218 260 286
#     4  10  18  30  50  75 104 136 168 208 252 300
#     4   9  16  25  41  70 106 139 170 205 250 302
#     4  10  18  28  47  76 105 128 159 197 249 308
#
# _framework density 18.444172999999999
#
# number of rings (size 3 to 8) (size 9 to 14) (size 15 to 20)
#    0.000    2.333    1.667    2.250    0.000    1.333 
#    0.000    0.417    0.000    7.500    0.000    3.500 
#    0.000    0.000    0.000    0.000    0.000    0.000 
#
# Total GULP energy -594964.834698 kJ/mol
# GULP energy per Si atom -12395.100723 kJ/mol
# Density = 1.840219 g / cm^3
# Si number density = 18.444173 Si / 1000 Ang^3
#
#
#
# Elastic Constant Matrix: (Units=GPa)
#
#
# Indices 1 2 3 4 5 6 
#
# 1 45.0106 22.4375 39.3809 0.0000 0.0000 0.0000
# 2 22.4375 125.2070 57.4659 0.0000 0.0000 0.0000
# 3 39.3809 57.4659 157.2429 0.0000 0.0000 0.0000
# 4 0.0000 0.0000 0.0000 24.3403 0.0000 0.0000
# 5 0.0000 0.0000 0.0000 0.0000 0.5176 0.0000
# 6 0.0000 0.0000 0.0000 0.0000 0.0000 24.8068
#
#
#
# Elastic Compliance Matrix: (Units=1/GPa)
#
#
# Indices 1 2 3 4 5 6 
#
# 1 0.028963 -0.002236 -0.006436 0.000000 0.000000 0.000000
# 2 -0.002236 0.009769 -0.003010 0.000000 0.000000 0.000000
# 3 -0.006436 -0.003010 0.009072 0.000000 0.000000 0.000000
# 4 0.000000 0.000000 0.000000 0.041084 0.000000 0.000000
# 5 0.000000 0.000000 0.000000 0.000000 1.932083 0.000000
# 6 0.000000 0.000000 0.000000 0.000000 0.000000 0.040312
#
#
# Mechanical properties :
#
#
# Convention : Reuss Voigt Hill
#
# Bulk Modulus (GPa) = 40.91940 62.89211 51.90575
# Shear Modulus (GPa) = 2.38915 23.81134 13.10025
#
# Velocity S-wave (km/s) = 1.13937 3.59694 2.66797
# Velocity P-wave (km/s) = 4.89536 7.17100 6.13954
#
# Compressibility (1/GPa) = 0.02443829
#
# Stress axis : x y z
#
# Youngs Moduli (GPa) = 34.52662 102.36387 110.23325
#
# Poissons Ratio (x) = 0.22890 0.70951
# Poissons Ratio (y) = 0.07721 0.33182
# Poissons Ratio (z) = 0.22223 0.30813
#
# Static dielectric constant tensor:
#      x y z
#    x 3.081070 0.000000 0.000000 
#    y 0.000000 3.484240 0.000000 
#    z 0.000000 0.000000 3.708090 
# 
# 
# High freq. dielectric constant tensor:
#      x y z
#    x 1.667280 0.000000 0.000000 
#    y 0.000000 1.724830 0.000000 
#    z 0.000000 0.000000 1.719150 
# 
# From -- ./inp_files/62716.got.cif
#   From: 2010.03.12/outbox.cif.g09.slc.cpg/sg65_32_cif.got.tgz:62716.got - 2010.04.10 20:52:16.
