data_PCOD8265191
_publ_section_title
;
Structure prediction by ZEFSAII (Michael W. Deem and Ramdas Pophale) SiO2 
 PCOD8265191
Probable space group: C M M M
;
_chemical_formula_sum "Si O2"
_cell_formula_units_Z 96
_cell_length_a 22.625242
_cell_length_b 25.677279
_cell_length_c 9.282965
_cell_angle_alpha 90.000000
_cell_angle_beta 90.000000
_cell_angle_gamma 90.000000
_cell_volume 5392.981694
_symmetry_space_group_name_H-M "C M M M"
_symmetry_group_IT_number 65
_symmetry_cell_setting 'orthorhombic'
loop_
_space_group_symop_operation_xyz
x,y,z
-x,-y,z
x,-y,-z
-x,y,-z
-x,-y,-z
x,y,-z
-x,y,z
x,-y,z
1/2+x,1/2+y,z
1/2-x,1/2-y,z
1/2+x,1/2-y,-z
1/2-x,1/2+y,-z
1/2-x,1/2-y,-z
1/2+x,1/2+y,-z
1/2-x,1/2+y,z
1/2+x,1/2-y,z
loop_
_atom_site_type_symbol
_atom_site_label
_atom_site_fract_x
_atom_site_fract_y
_atom_site_fract_z
Si Si1 0.260835 0.557317 0.667185
Si Si2 0.569618 0.000000 0.664174
Si Si3 0.250000 0.250000 0.246292
Si Si4 0.633363 0.801650 0.159617
Si Si5 0.066608 0.219772 0.329085
Si Si6 0.856096 0.579515 0.171365
Si Si7 0.325905 0.656690 0.661493
O O1 0.244899 0.569835 0.500000
O O2 0.291296 0.500000 0.678532
O O3 0.202832 0.554852 0.763753
O O4 0.302714 0.603034 0.733716
O O5 0.589493 0.051179 0.751431
O O6 0.500000 0.000000 0.659436
O O7 0.595036 0.000000 0.500000
O O8 0.303041 0.226817 0.151546
O O9 0.276789 0.297419 0.339907
O O10 0.586211 0.775121 0.265228
O O11 0.641662 0.860141 0.214077
O O12 0.606127 0.800532 0.000000
O O13 0.072055 0.224722 0.500000
O O14 0.112301 0.176166 0.266826
O O15 0.000000 0.205583 0.281377
O O16 0.857898 0.570409 0.000000
O O17 0.341615 0.641714 0.500000
#
# Coordination Sequence:
#
# PCOD8265191 Si02
#       7
#    16   8   8  16  16  16  16
#     4  10  19  32  52  77 105 136 171 214 261 311
#     4  11  25  43  59  75  97 135 184 223 256 299
#     4  10  16  30  48  74 107 138 169 208 259 314
#     4  10  21  33  50  76 107 138 168 209 259 313
#     4   9  19  35  53  73 100 137 178 215 254 305
#     4  11  22  36  53  77 105 136 170 213 264 308
#     4   9  17  29  49  77 104 134 171 215 263 309
#
# _framework density 17.800912
#
# number of rings (size 3 to 8) (size 9 to 14) (size 15 to 20)
#    0.000    2.083    2.500    1.250    0.000    3.667 
#    0.000    3.333    0.000    0.500    0.000    3.500 
#    0.000    0.000    0.000    5.833    0.000    5.833 
#
# Total GULP energy -594867.947766 kJ/mol
# GULP energy per Si atom -12393.082245 kJ/mol
# Density = 1.776040 g / cm^3
# Si number density = 17.800912 Si / 1000 Ang^3
#
#
#
# Elastic Constant Matrix: (Units=GPa)
#
#
# Indices 1 2 3 4 5 6 
#
# 1 106.2030 55.0852 26.4919 0.0000 0.0000 0.0000
# 2 55.0852 143.4490 30.9439 0.0000 0.0000 0.0000
# 3 26.4919 30.9439 61.0238 0.0000 0.0000 0.0000
# 4 0.0000 0.0000 0.0000 21.2007 0.0000 0.0000
# 5 0.0000 0.0000 0.0000 0.0000 13.5718 0.0000
# 6 0.0000 0.0000 0.0000 0.0000 0.0000 23.1497
#
#
#
# Elastic Compliance Matrix: (Units=1/GPa)
#
#
# Indices 1 2 3 4 5 6 
#
# 1 0.012327 -0.004019 -0.003314 0.000000 0.000000 0.000000
# 2 -0.004019 0.009138 -0.002889 0.000000 0.000000 0.000000
# 3 -0.003314 -0.002889 0.019290 0.000000 0.000000 0.000000
# 4 0.000000 0.000000 0.000000 0.047168 0.000000 0.000000
# 5 0.000000 0.000000 0.000000 0.000000 0.073682 0.000000
# 6 0.000000 0.000000 0.000000 0.000000 0.000000 0.043197
#
#
# Mechanical properties :
#
#
# Convention : Reuss Voigt Hill
#
# Bulk Modulus (GPa) = 49.23069 59.52418 54.37743
# Shear Modulus (GPa) = 21.55028 24.79476 23.17252
#
# Velocity S-wave (km/s) = 3.48318 3.73620 3.61191
# Velocity P-wave (km/s) = 6.62518 7.21967 6.92881
#
# Compressibility (1/GPa) = 0.02031253
#
# Stress axis : x y z
#
# Youngs Moduli (GPa) = 81.12296 109.43888 51.83929
#
# Poissons Ratio (x) = 0.43982 0.17177
# Poissons Ratio (y) = 0.32602 0.14975
# Poissons Ratio (z) = 0.26881 0.31614
#
# Static dielectric constant tensor:
#      x y z
#    x 3.316710 0.000000 0.000000 
#    y 0.000000 3.631340 0.000000 
#    z 0.000000 0.000000 3.157970 
# 
# 
# High freq. dielectric constant tensor:
#      x y z
#    x 1.671120 0.000000 0.000000 
#    y 0.000000 1.695680 0.000000 
#    z 0.000000 0.000000 1.675050 
# 
# From -- ./inp_files/14667.got.cif
#   From: 2010.03.12/outbox.cif.g09.slc.cpg/sg65_8_cif.got.tgz:14667.got - 2010.04.10 20:52:16.
