data_PCOD8265998
_publ_section_title
;
Structure prediction by ZEFSAII (Michael W. Deem and Ramdas Pophale) SiO2 
 PCOD8265998
Probable space group: C M M M
;
_chemical_formula_sum "Si O2"
_cell_formula_units_Z 88
_cell_length_a 9.250472
_cell_length_b 28.214814
_cell_length_c 23.373562
_cell_angle_alpha 90.000000
_cell_angle_beta 90.000000
_cell_angle_gamma 90.000000
_cell_volume 6100.507790
_symmetry_space_group_name_H-M "C M M M"
_symmetry_group_IT_number 65
_symmetry_cell_setting 'orthorhombic'
loop_
_space_group_symop_operation_xyz
x,y,z
-x,-y,z
x,-y,-z
-x,y,-z
-x,-y,-z
x,y,-z
-x,y,z
x,-y,z
1/2+x,1/2+y,z
1/2-x,1/2-y,z
1/2+x,1/2-y,-z
1/2-x,1/2+y,-z
1/2-x,1/2-y,-z
1/2+x,1/2+y,-z
1/2-x,1/2+y,z
1/2+x,1/2-y,z
loop_
_atom_site_type_symbol
_atom_site_label
_atom_site_fract_x
_atom_site_fract_y
_atom_site_fract_z
Si Si1 0.662379 0.556359 0.936957
Si Si2 0.667888 0.554248 0.719533
Si Si3 0.662056 0.943537 0.169804
Si Si4 0.830816 0.701885 0.566412
Si Si5 0.171287 0.052615 0.500000
Si Si6 0.829768 0.113097 0.392438
O O1 0.500000 0.575199 0.926975
O O2 0.662720 0.500000 0.933541
O O3 0.764179 0.577697 0.887438
O O4 0.718031 0.572433 0.000000
O O5 0.500000 0.557655 0.734712
O O6 0.710472 0.500000 0.705039
O O7 0.754005 0.574116 0.774070
O O8 0.708822 0.586665 0.666031
O O9 0.500000 0.923718 0.172498
O O10 0.664940 0.000000 0.167562
O O11 0.804242 0.689415 0.500000
O O12 0.750000 0.750000 0.582963
O O13 0.760599 0.661367 0.605543
O O14 0.000000 0.707044 0.580264
O O15 0.224743 0.079781 0.556219
O O16 0.000000 0.048805 0.500000
O O17 0.239441 0.000000 0.500000
O O18 0.000000 0.124316 0.397784
#
# Coordination Sequence:
#
# PCOD8265998 Si02
#       6
#    16  16  16  16   8  16
#     4   8  13  21  33  48  66  90 122 162 205 243
#     4   9  17  28  41  57  78 107 141 171 199 237
#     4   9  16  24  34  49  70  98 131 167 204 237
#     4  10  20  33  49  66  84 103 126 158 201 250
#     4   9  16  26  42  63  84 105 132 167 202 237
#     4  10  18  29  46  65  83 104 133 168 205 243
#
# _framework density 14.425027999999999
#
# number of rings (size 3 to 8) (size 9 to 14) (size 15 to 20)
#    0.000    2.818    0.909    2.182    0.000    6.182 
#    0.000    1.818    0.000    2.182    0.000    0.000 
#    0.000    0.000    0.000    0.000    0.000    0.909 
#
# Total GULP energy -545500.435726 kJ/mol
# GULP energy per Si atom -12397.737176 kJ/mol
# Density = 1.439220 g / cm^3
# Si number density = 14.425028 Si / 1000 Ang^3
#
#
#
# Elastic Constant Matrix: (Units=GPa)
#
#
# Indices 1 2 3 4 5 6 
#
# 1 81.6763 38.1926 64.8254 0.0000 0.0000 0.0000
# 2 38.1926 65.0503 42.1110 0.0000 0.0000 0.0000
# 3 64.8254 42.1110 131.5698 0.0000 0.0000 0.0000
# 4 0.0000 0.0000 0.0000 2.6664 0.0000 0.0000
# 5 0.0000 0.0000 0.0000 0.0000 16.8468 0.0000
# 6 0.0000 0.0000 0.0000 0.0000 0.0000 16.8652
#
#
#
# Elastic Compliance Matrix: (Units=1/GPa)
#
#
# Indices 1 2 3 4 5 6 
#
# 1 0.022812 -0.007716 -0.008770 0.000000 0.000000 0.000000
# 2 -0.007716 0.022000 -0.003240 0.000000 0.000000 0.000000
# 3 -0.008770 -0.003240 0.012959 0.000000 0.000000 0.000000
# 4 0.000000 0.000000 0.000000 0.375031 0.000000 0.000000
# 5 0.000000 0.000000 0.000000 0.000000 0.059358 0.000000
# 6 0.000000 0.000000 0.000000 0.000000 0.000000 0.059294
#
#
# Mechanical properties :
#
#
# Convention : Reuss Voigt Hill
#
# Bulk Modulus (GPa) = 54.58772 63.17269 58.88020
# Shear Modulus (GPa) = 8.37503 16.15352 12.26427
#
# Velocity S-wave (km/s) = 2.41216 3.35001 2.91900
# Velocity P-wave (km/s) = 6.75889 7.67153 7.22962
#
# Compressibility (1/GPa) = 0.01831914
#
# Stress axis : x y z
#
# Youngs Moduli (GPa) = 43.83583 45.45376 77.16908
#
# Poissons Ratio (x) = 0.35073 0.67678
# Poissons Ratio (y) = 0.33825 0.25001
# Poissons Ratio (z) = 0.38445 0.14726
#
# Static dielectric constant tensor:
#      x y z
#    x 2.831800 0.000000 0.000000 
#    y 0.000000 2.443200 0.000000 
#    z 0.000000 0.000000 2.920720 
# 
# 
# High freq. dielectric constant tensor:
#      x y z
#    x 1.550550 0.000000 0.000000 
#    y 0.000000 1.495510 0.000000 
#    z 0.000000 0.000000 1.551630 
# 
# From -- ./inp_files/60655.got.cif
#   From: 2010.03.12/outbox.cif.g09.slc.cpg/sg65_31_cif.got.tgz:60655.got - 2010.04.10 20:52:16.
