data_PCOD8265787
_publ_section_title
;
Structure prediction by ZEFSAII (Michael W. Deem and Ramdas Pophale) SiO2 
 PCOD8265787
Probable space group: C M M M
;
_chemical_formula_sum "Si O2"
_cell_formula_units_Z 104
_cell_length_a 26.787372
_cell_length_b 8.992993
_cell_length_c 22.922969
_cell_angle_alpha 90.000000
_cell_angle_beta 90.000000
_cell_angle_gamma 90.000000
_cell_volume 5522.112261
_symmetry_space_group_name_H-M "C M M M"
_symmetry_group_IT_number 65
_symmetry_cell_setting 'orthorhombic'
loop_
_space_group_symop_operation_xyz
x,y,z
-x,-y,z
x,-y,-z
-x,y,-z
-x,-y,-z
x,y,-z
-x,y,z
x,-y,z
1/2+x,1/2+y,z
1/2-x,1/2-y,z
1/2+x,1/2-y,-z
1/2-x,1/2+y,-z
1/2-x,1/2-y,-z
1/2+x,1/2+y,-z
1/2-x,1/2+y,z
1/2+x,1/2-y,z
loop_
_atom_site_type_symbol
_atom_site_label
_atom_site_fract_x
_atom_site_fract_y
_atom_site_fract_z
Si Si1 0.592082 0.676476 0.359428
Si Si2 0.500000 0.677639 0.434231
Si Si3 0.701564 0.674231 0.363569
Si Si4 0.793570 0.666172 0.242542
Si Si5 0.123108 0.666185 0.148982
Si Si6 0.301289 0.670616 0.931456
Si Si7 0.941512 0.829123 0.234336
O O1 0.586977 0.500000 0.356046
O O2 0.549209 0.740596 0.401723
O O3 0.646354 0.721512 0.386945
O O4 0.584674 0.736784 0.293089
O O5 0.500000 0.500000 0.433886
O O6 0.500000 0.739326 0.500000
O O7 0.709053 0.500000 0.369904
O O8 0.750000 0.750000 0.395351
O O9 0.699770 0.723995 0.296786
O O10 0.778072 0.500000 0.262909
O O11 0.750000 0.750000 0.205104
O O12 0.842410 0.658438 0.205129
O O13 0.110497 0.500000 0.126273
O O14 0.150009 0.755913 0.097553
O O15 0.073783 0.745190 0.174365
O O16 0.297147 0.500000 0.911545
O O17 0.250000 0.750000 0.912534
O O18 0.309836 0.685771 0.000000
O O19 0.000000 0.809285 0.243335
O O20 0.926263 0.000000 0.225590
#
# Coordination Sequence:
#
# PCOD8265787 Si02
#       7
#    16   8  16  16  16  16  16
#     4   9  16  28  47  73 104 139 174 217 274 326
#     4   9  16  28  50  80 109 135 174 229 278 321
#     4  10  18  28  44  66  99 137 171 208 253 313
#     4  10  19  28  40  64  97 130 165 200 242 296
#     4  11  22  33  49  74 105 138 175 217 264 321
#     4  10  21  37  57  80 107 141 182 224 267 317
#     4  10  19  33  53  74 102 139 175 216 274 337
#
# _framework density 18.833373999999999
#
# number of rings (size 3 to 8) (size 9 to 14) (size 15 to 20)
#    0.000    2.077    2.308    3.231    0.000    4.308 
#    0.000    0.000    0.000    0.923    0.000    3.231 
#    0.000   10.462    0.000    0.000    0.000    0.615 
#
# Total GULP energy -644290.782907 kJ/mol
# GULP energy per Si atom -12390.207364 kJ/mol
# Density = 1.879051 g / cm^3
# Si number density = 18.833374 Si / 1000 Ang^3
#
#
#
# Elastic Constant Matrix: (Units=GPa)
#
#
# Indices 1 2 3 4 5 6 
#
# 1 123.7978 42.0496 34.7817 0.0000 0.0000 0.0000
# 2 42.0496 87.4927 26.7048 0.0000 0.0000 0.0000
# 3 34.7817 26.7048 61.0905 0.0000 0.0000 0.0000
# 4 0.0000 0.0000 0.0000 10.3592 0.0000 0.0000
# 5 0.0000 0.0000 0.0000 0.0000 23.2173 0.0000
# 6 0.0000 0.0000 0.0000 0.0000 0.0000 26.3315
#
#
#
# Elastic Compliance Matrix: (Units=1/GPa)
#
#
# Indices 1 2 3 4 5 6 
#
# 1 0.010583 -0.003747 -0.004387 0.000000 0.000000 0.000000
# 2 -0.003747 0.014516 -0.004212 0.000000 0.000000 0.000000
# 3 -0.004387 -0.004212 0.020708 0.000000 0.000000 0.000000
# 4 0.000000 0.000000 0.000000 0.096532 0.000000 0.000000
# 5 0.000000 0.000000 0.000000 0.000000 0.043071 0.000000
# 6 0.000000 0.000000 0.000000 0.000000 0.000000 0.037977
#
#
# Mechanical properties :
#
#
# Convention : Reuss Voigt Hill
#
# Bulk Modulus (GPa) = 47.36143 53.27258 50.31701
# Shear Modulus (GPa) = 19.59862 23.23794 21.41828
#
# Velocity S-wave (km/s) = 3.22938 3.51646 3.37597
# Velocity P-wave (km/s) = 6.25359 6.69589 6.47852
#
# Compressibility (1/GPa) = 0.02111423
#
# Stress axis : x y z
#
# Youngs Moduli (GPa) = 94.48989 68.88929 48.28967
#
# Poissons Ratio (x) = 0.25814 0.21187
# Poissons Ratio (y) = 0.35407 0.20340
# Poissons Ratio (z) = 0.41457 0.29016
#
# Static dielectric constant tensor:
#      x y z
#    x 3.972440 0.000000 0.000000 
#    y 0.000000 3.567660 0.000000 
#    z 0.000000 0.000000 3.156130 
# 
# 
# High freq. dielectric constant tensor:
#      x y z
#    x 1.739890 0.000000 0.000000 
#    y 0.000000 1.715730 0.000000 
#    z 0.000000 0.000000 1.693410 
# 
# From -- ./inp_files/71833.got.cif
#   From: 2010.03.12/outbox.cif.g09.slc.cpg/sg65_36_cif.got.tgz:71833.got - 2010.04.10 20:52:16.
