data_PCOD8265008
_publ_section_title
;
Structure prediction by ZEFSAII (Michael W. Deem and Ramdas Pophale) SiO2 
 PCOD8265008
Probable space group: C M C A
;
_chemical_formula_sum "Si O2"
_cell_formula_units_Z 72
_cell_length_a 13.813642
_cell_length_b 10.023277
_cell_length_c 24.067946
_cell_angle_alpha 90.000000
_cell_angle_beta 90.000000
_cell_angle_gamma 90.000000
_cell_volume 3332.398708
_symmetry_space_group_name_H-M "C M C A"
_symmetry_group_IT_number 64
_symmetry_cell_setting 'orthorhombic'
loop_
_space_group_symop_operation_xyz
x,y,z
-x,1/2-y,1/2+z
x,-y,-z
-x,1/2+y,1/2-z
-x,-y,-z
x,1/2+y,1/2-z
-x,y,z
x,1/2-y,1/2+z
1/2+x,1/2+y,z
1/2-x,-y,1/2+z
1/2+x,1/2-y,-z
1/2-x,y,1/2-z
1/2-x,1/2-y,-z
1/2+x,y,1/2-z
1/2-x,1/2+y,z
1/2+x,-y,1/2+z
loop_
_atom_site_type_symbol
_atom_site_label
_atom_site_fract_x
_atom_site_fract_y
_atom_site_fract_z
Si Si1 0.500000 0.676295 0.608877
Si Si2 0.299163 0.171062 0.191349
Si Si3 0.500000 0.541817 0.169258
Si Si4 0.199333 0.563773 0.632777
Si Si5 0.691295 0.368259 0.467325
Si Si6 0.500000 0.438663 0.700869
O O1 0.597094 0.679962 0.569440
O O2 0.500000 0.551877 0.652492
O O3 0.500000 0.803699 0.650360
O O4 0.250000 0.175847 0.250000
O O5 0.264863 0.298076 0.158171
O O6 0.269012 0.040915 0.159867
O O7 0.413506 0.164972 0.195247
O O8 0.411179 0.467076 0.141917
O O9 0.500000 0.509823 0.235280
O O10 0.221165 0.570932 0.568182
O O11 0.653509 0.500000 0.500000
O O12 0.750000 0.250000 0.500000
#
# Coordination Sequence:
#
# PCOD8265008 Si02
#       6
#     8  16   8  16  16   8
#     4  12  27  49  74 109 145 191 253 301 365 443
#     4  12  25  43  69 104 145 190 231 282 357 443
#     4  12  27  42  72 111 148 189 234 291 360 452
#     4  12  26  46  70 105 146 185 242 298 358 428
#     4  12  27  50  76 101 140 192 253 314 370 417
#     4  12  27  41  72 104 152 186 231 278 370 439
#
# _framework density 21.606058000000001
#
# number of rings (size 3 to 8) (size 9 to 14) (size 15 to 20)
#    0.000    0.000    4.444    5.667    3.111    0.889 
#    0.000    2.222    0.000    0.000    0.000    0.000 
#    0.000    0.000    0.000    0.000    0.000    0.000 
#
# Total GULP energy -445994.334576 kJ/mol
# GULP energy per Si atom -12388.731516 kJ/mol
# Density = 2.155688 g / cm^3
# Si number density = 21.606058 Si / 1000 Ang^3
#
#
#
# Elastic Constant Matrix: (Units=GPa)
#
#
# Indices 1 2 3 4 5 6 
#
# 1 135.0435 27.9067 44.8827 0.0000 0.0000 0.0000
# 2 27.9067 141.7885 49.8894 0.0000 0.0000 0.0000
# 3 44.8827 49.8894 125.6925 0.0000 0.0000 0.0000
# 4 0.0000 0.0000 0.0000 52.4397 0.0000 0.0000
# 5 0.0000 0.0000 0.0000 0.0000 49.1531 0.0000
# 6 0.0000 0.0000 0.0000 0.0000 0.0000 52.1360
#
#
#
# Elastic Compliance Matrix: (Units=1/GPa)
#
#
# Indices 1 2 3 4 5 6 
#
# 1 0.008462 -0.000700 -0.002744 0.000000 0.000000 0.000000
# 2 -0.000700 0.008256 -0.003027 0.000000 0.000000 0.000000
# 3 -0.002744 -0.003027 0.010137 0.000000 0.000000 0.000000
# 4 0.000000 0.000000 0.000000 0.019070 0.000000 0.000000
# 5 0.000000 0.000000 0.000000 0.000000 0.020345 0.000000
# 6 0.000000 0.000000 0.000000 0.000000 0.000000 0.019181
#
#
# Mechanical properties :
#
#
# Convention : Reuss Voigt Hill
#
# Bulk Modulus (GPa) = 71.87415 71.98690 71.93053
# Shear Modulus (GPa) = 48.53077 49.40215 48.96646
#
# Velocity S-wave (km/s) = 4.74451 4.78692 4.76576
# Velocity P-wave (km/s) = 7.95939 7.99644 7.97793
#
# Compressibility (1/GPa) = 0.01391321
#
# Stress axis : x y z
#
# Youngs Moduli (GPa) = 118.18172 121.13087 98.64848
#
# Poissons Ratio (x) = 0.08480 0.27065
# Poissons Ratio (y) = 0.08273 0.29859
# Poissons Ratio (z) = 0.32425 0.36664
#
# Static dielectric constant tensor:
#      x y z
#    x 4.260400 0.000000 0.000000 
#    y 0.000000 4.108480 0.000000 
#    z 0.000000 0.000000 4.204770 
# 
# 
# High freq. dielectric constant tensor:
#      x y z
#    x 1.870640 0.000000 0.000000 
#    y 0.000000 1.866350 0.000000 
#    z 0.000000 0.000000 1.859180 
# 
# From -- ./inp_files/49852.got.cif
#   From: 2010.03.12/outbox.cif.g09.slc.cpg/sg64_25_cif.got.tgz:49852.got - 2010.04.10 20:19:32.
