data_PCOD8265690
_publ_section_title
;
Structure prediction by ZEFSAII (Michael W. Deem and Ramdas Pophale) SiO2 
 PCOD8265690
Probable space group: C M M M
;
_chemical_formula_sum "Si O2"
_cell_formula_units_Z 72
_cell_length_a 9.672634
_cell_length_b 39.342702
_cell_length_c 12.704389
_cell_angle_alpha 90.000000
_cell_angle_beta 90.000000
_cell_angle_gamma 90.000000
_cell_volume 4834.624197
_symmetry_space_group_name_H-M "C M M M"
_symmetry_group_IT_number 65
_symmetry_cell_setting 'orthorhombic'
loop_
_space_group_symop_operation_xyz
x,y,z
-x,-y,z
x,-y,-z
-x,y,-z
-x,-y,-z
x,y,-z
-x,y,z
x,-y,z
1/2+x,1/2+y,z
1/2-x,1/2-y,z
1/2+x,1/2-y,-z
1/2-x,1/2+y,-z
1/2-x,1/2-y,-z
1/2+x,1/2+y,-z
1/2-x,1/2+y,z
1/2+x,1/2-y,z
loop_
_atom_site_type_symbol
_atom_site_label
_atom_site_fract_x
_atom_site_fract_y
_atom_site_fract_z
Si Si1 0.340938 0.901525 0.124558
Si Si2 0.660422 0.217430 0.379974
Si Si3 0.655189 0.462442 0.125092
Si Si4 0.337472 0.829621 0.806458
Si Si5 0.835198 0.284238 0.000000
O O1 0.500000 0.907726 0.154246
O O2 0.257271 0.933742 0.170136
O O3 0.278139 0.867749 0.180267
O O4 0.322577 0.896902 0.000000
O O5 0.689588 0.206507 0.500000
O O6 0.500000 0.226894 0.362195
O O7 0.750000 0.250000 0.347881
O O8 0.704883 0.185845 0.306666
O O9 0.500000 0.454685 0.164496
O O10 0.701757 0.500000 0.164575
O O11 0.660006 0.461778 0.000000
O O12 0.500000 0.832993 0.819728
O O13 0.284389 0.804918 0.898032
O O14 0.750000 0.250000 0.000000
O O15 0.000000 0.277130 0.000000
#
# Coordination Sequence:
#
# PCOD8265690 Si02
#       5
#    16  16  16  16   8
#     4   9  15  24  38  54  73 100 131 157 184 221
#     4   9  17  29  44  59  75  98 129 164 200 235
#     4   8  14  24  36  51  75 105 130 153 184 220
#     4   9  16  27  41  56  77 103 128 157 195 233
#     4  10  18  28  40  54  75 102 129 157 190 229
#
# _framework density 14.892574
#
# number of rings (size 3 to 8) (size 9 to 14) (size 15 to 20)
#    0.000    3.111    1.111    1.333    0.000    0.444 
#    0.000    4.444    0.000    0.000    0.000    0.000 
#    0.000    0.889    0.000   11.111    0.000    2.222 
#
# Total GULP energy -446196.746882 kJ/mol
# GULP energy per Si atom -12394.354080 kJ/mol
# Density = 1.485868 g / cm^3
# Si number density = 14.892574 Si / 1000 Ang^3
#
#
#
# Elastic Constant Matrix: (Units=GPa)
#
#
# Indices 1 2 3 4 5 6 
#
# 1 52.4405 63.4674 23.2823 0.0000 0.0000 0.0000
# 2 63.4674 164.9205 48.2968 0.0000 0.0000 0.0000
# 3 23.2823 48.2968 54.5641 0.0000 0.0000 0.0000
# 4 0.0000 0.0000 0.0000 15.6959 0.0000 0.0000
# 5 0.0000 0.0000 0.0000 0.0000 9.1224 0.0000
# 6 0.0000 0.0000 0.0000 0.0000 0.0000 27.8486
#
#
#
# Elastic Compliance Matrix: (Units=1/GPa)
#
#
# Indices 1 2 3 4 5 6 
#
# 1 0.036403 -0.012771 -0.004229 0.000000 0.000000 0.000000
# 2 -0.012771 0.012665 -0.005761 0.000000 0.000000 0.000000
# 3 -0.004229 -0.005761 0.025231 0.000000 0.000000 0.000000
# 4 0.000000 0.000000 0.000000 0.063711 0.000000 0.000000
# 5 0.000000 0.000000 0.000000 0.000000 0.109620 0.000000
# 6 0.000000 0.000000 0.000000 0.000000 0.000000 0.035908
#
#
# Mechanical properties :
#
#
# Convention : Reuss Voigt Hill
#
# Bulk Modulus (GPa) = 34.74991 60.22421 47.48706
# Shear Modulus (GPa) = 14.76434 19.65864 17.21149
#
# Velocity S-wave (km/s) = 3.15205 3.63716 3.40326
# Velocity P-wave (km/s) = 6.05240 7.62663 6.88466
#
# Compressibility (1/GPa) = 0.02877705
#
# Stress axis : x y z
#
# Youngs Moduli (GPa) = 27.47039 78.95566 39.63334
#
# Poissons Ratio (x) = 1.00831 0.16762
# Poissons Ratio (y) = 0.35081 0.22834
# Poissons Ratio (z) = 0.11618 0.45490
#
# Static dielectric constant tensor:
#      x y z
#    x 2.795530 0.000000 0.000000 
#    y 0.000000 3.165000 0.000000 
#    z 0.000000 0.000000 2.648920 
# 
# 
# High freq. dielectric constant tensor:
#      x y z
#    x 1.552530 0.000000 0.000000 
#    y 0.000000 1.577180 0.000000 
#    z 0.000000 0.000000 1.527980 
# 
# From -- ./inp_files/22719.got.cif
#   From: 2010.03.12/outbox.cif.g09.slc.cpg/sg65_12_cif.got.tgz:22719.got - 2010.04.10 20:52:16.
