data_PCOD8265052
_publ_section_title
;
Structure prediction by ZEFSAII (Michael W. Deem and Ramdas Pophale) SiO2 
 PCOD8265052
Probable space group: C M M M
;
_chemical_formula_sum "Si O2"
_cell_formula_units_Z 60
_cell_length_a 20.987454
_cell_length_b 17.939786
_cell_length_c 10.316784
_cell_angle_alpha 90.000000
_cell_angle_beta 90.000000
_cell_angle_gamma 90.000000
_cell_volume 3884.376816
_symmetry_space_group_name_H-M "C M M M"
_symmetry_group_IT_number 65
_symmetry_cell_setting 'orthorhombic'
loop_
_space_group_symop_operation_xyz
x,y,z
-x,-y,z
x,-y,-z
-x,y,-z
-x,-y,-z
x,y,-z
-x,y,z
x,-y,z
1/2+x,1/2+y,z
1/2-x,1/2-y,z
1/2+x,1/2-y,-z
1/2-x,1/2+y,-z
1/2-x,1/2-y,-z
1/2+x,1/2+y,-z
1/2-x,1/2+y,z
1/2+x,1/2-y,z
loop_
_atom_site_type_symbol
_atom_site_label
_atom_site_fract_x
_atom_site_fract_y
_atom_site_fract_z
Si Si1 0.670827 0.165036 0.000000
Si Si2 0.250000 0.750000 0.204951
Si Si3 0.075433 0.791971 0.000000
Si Si4 0.424933 0.585410 0.500000
Si Si5 0.640920 0.646548 0.745959
Si Si6 0.694706 0.500000 0.144321
Si Si7 0.185422 0.500000 0.000000
O O1 0.716041 0.185375 0.120941
O O2 0.647455 0.078418 0.000000
O O3 0.604856 0.209495 0.000000
O O4 0.305656 0.709548 0.287474
O O5 0.098760 0.833659 0.871208
O O6 0.000000 0.786260 0.000000
O O7 0.398129 0.500000 0.500000
O O8 0.500000 0.581622 0.500000
O O9 0.403796 0.633717 0.376602
O O10 0.676356 0.570500 0.772865
O O11 0.770984 0.500000 0.128870
O O12 0.662381 0.500000 0.000000
#
# Coordination Sequence:
#
# PCOD8265052 Si02
#       7
#     8   8   8   8  16   8   4
#     4   9  16  26  46  74  97 118 150 194 238 274
#     4   9  16  29  48  72  92 118 154 194 238 274
#     4  10  20  33  49  68  94 128 164 192 218 270
#     4  11  24  35  44  64  98 132 156 187 234 276
#     4  11  19  33  50  69  96 122 156 196 231 278
#     4  10  16  27  48  77  94 117 150 190 236 280
#     4  10  14  26  47  76  99 118 144 192 246 280
#
# _framework density 15.446493
#
# number of rings (size 3 to 8) (size 9 to 14) (size 15 to 20)
#    0.400    1.467    5.333    1.600    0.000    0.533 
#    0.000    1.000    0.000    0.000    0.000    0.000 
#    0.000    0.000    0.000   18.533    0.000    0.000 
#
# Total GULP energy -371681.596881 kJ/mol
# GULP energy per Si atom -12389.386563 kJ/mol
# Density = 1.541134 g / cm^3
# Si number density = 15.446493 Si / 1000 Ang^3
#
#
#
# Elastic Constant Matrix: (Units=GPa)
#
#
# Indices 1 2 3 4 5 6 
#
# 1 88.8306 38.1324 33.0439 0.0000 0.0000 0.0000
# 2 38.1324 114.9469 35.8303 0.0000 0.0000 0.0000
# 3 33.0439 35.8303 86.9843 0.0000 0.0000 0.0000
# 4 0.0000 0.0000 0.0000 76.9584 0.0000 0.0000
# 5 0.0000 0.0000 0.0000 0.0000 18.5344 0.0000
# 6 0.0000 0.0000 0.0000 0.0000 0.0000 21.8512
#
#
#
# Elastic Compliance Matrix: (Units=1/GPa)
#
#
# Indices 1 2 3 4 5 6 
#
# 1 0.014230 -0.003483 -0.003971 0.000000 0.000000 0.000000
# 2 -0.003483 0.010834 -0.003140 0.000000 0.000000 0.000000
# 3 -0.003971 -0.003140 0.014298 0.000000 0.000000 0.000000
# 4 0.000000 0.000000 0.000000 0.012994 0.000000 0.000000
# 5 0.000000 0.000000 0.000000 0.000000 0.053954 0.000000
# 6 0.000000 0.000000 0.000000 0.000000 0.000000 0.045764
#
#
# Mechanical properties :
#
#
# Convention : Reuss Voigt Hill
#
# Bulk Modulus (GPa) = 55.02120 56.08612 55.55366
# Shear Modulus (GPa) = 27.88347 35.71915 31.80131
#
# Velocity S-wave (km/s) = 4.25333 4.81400 4.54233
# Velocity P-wave (km/s) = 7.73427 8.20294 7.97205
#
# Compressibility (1/GPa) = 0.01817481
#
# Stress axis : x y z
#
# Youngs Moduli (GPa) = 70.27621 92.30499 69.93941
#
# Poissons Ratio (x) = 0.32147 0.27773
# Poissons Ratio (y) = 0.24475 0.21958
# Poissons Ratio (z) = 0.27907 0.28980
#
# Static dielectric constant tensor:
#      x y z
#    x 2.814790 0.000000 0.000000 
#    y 0.000000 3.080370 0.000000 
#    z 0.000000 0.000000 2.814380 
# 
# 
# High freq. dielectric constant tensor:
#      x y z
#    x 1.575890 0.000000 0.000000 
#    y 0.000000 1.599020 0.000000 
#    z 0.000000 0.000000 1.568820 
# 
# From -- ./inp_files/10907.got.cif
#   From: 2010.03.12/outbox.cif.g09.slc.cpg/sg65_6_cif.got.tgz:10907.got - 2010.04.10 20:52:16.
