data_PCOD8265106
_publ_section_title
;
Structure prediction by ZEFSAII (Michael W. Deem and Ramdas Pophale) SiO2 
 PCOD8265106
Probable space group: C M M M
;
_chemical_formula_sum "Si O2"
_cell_formula_units_Z 72
_cell_length_a 8.721975
_cell_length_b 23.540234
_cell_length_c 20.758782
_cell_angle_alpha 90.000000
_cell_angle_beta 90.000000
_cell_angle_gamma 90.000000
_cell_volume 4262.137745
_symmetry_space_group_name_H-M "C M M M"
_symmetry_group_IT_number 65
_symmetry_cell_setting 'orthorhombic'
loop_
_space_group_symop_operation_xyz
x,y,z
-x,-y,z
x,-y,-z
-x,y,-z
-x,-y,-z
x,y,-z
-x,y,z
x,-y,z
1/2+x,1/2+y,z
1/2-x,1/2-y,z
1/2+x,1/2-y,-z
1/2-x,1/2+y,-z
1/2-x,1/2-y,-z
1/2+x,1/2+y,-z
1/2-x,1/2+y,z
1/2+x,1/2-y,z
loop_
_atom_site_type_symbol
_atom_site_label
_atom_site_fract_x
_atom_site_fract_y
_atom_site_fract_z
Si Si1 0.319432 0.313414 0.000000
Si Si2 0.681376 0.378855 0.381834
Si Si3 0.181196 0.688135 0.500000
Si Si4 0.678630 0.812418 0.732328
Si Si5 0.176689 0.688810 0.875115
Si Si6 0.819025 0.000000 0.572118
O O1 0.250000 0.250000 0.000000
O O2 0.259858 0.344680 0.065639
O O3 0.500000 0.312391 0.000000
O O4 0.500000 0.371889 0.389350
O O5 0.763245 0.343245 0.436619
O O6 0.735014 0.356910 0.312704
O O7 0.734243 0.444332 0.388871
O O8 0.250000 0.750000 0.500000
O O9 0.000000 0.691897 0.500000
O O10 0.500000 0.807914 0.714030
O O11 0.750000 0.750000 0.724432
O O12 0.699373 0.838665 0.804476
O O13 0.250000 0.750000 0.869350
O O14 0.000000 0.694654 0.893394
O O15 0.746894 0.000000 0.500000
O O16 0.000000 0.000000 0.564992
#
# Coordination Sequence:
#
# PCOD8265106 Si02
#       6
#     8  16   8  16  16   8
#     4  10  16  22  36  58  86 119 160 199 230 270
#     4  11  21  36  56  74  95 124 158 198 240 288
#     4  12  24  37  52  73  99 126 158 194 235 284
#     4  10  20  33  48  70  99 131 164 199 240 288
#     4   9  16  26  40  58  87 124 160 194 231 275
#     4   9  18  36  58  76  94 119 156 195 242 294
#
# _framework density 16.892931999999998
#
# number of rings (size 3 to 8) (size 9 to 14) (size 15 to 20)
#    0.000    1.889    1.111    6.000    0.000    2.667 
#    0.000    2.778    0.000    0.000    0.000    0.000 
#    0.000    0.889    0.000   10.000    0.000    5.556 
#
# Total GULP energy -446173.668843 kJ/mol
# GULP energy per Si atom -12393.713023 kJ/mol
# Density = 1.685448 g / cm^3
# Si number density = 16.892932 Si / 1000 Ang^3
#
#
#
# Elastic Constant Matrix: (Units=GPa)
#
#
# Indices 1 2 3 4 5 6 
#
# 1 126.5590 40.0377 59.3743 0.0000 0.0000 0.0000
# 2 40.0377 94.6977 53.7902 0.0000 0.0000 0.0000
# 3 59.3743 53.7902 142.3752 0.0000 0.0000 0.0000
# 4 0.0000 0.0000 0.0000 -14.8098 0.0000 0.0000
# 5 0.0000 0.0000 0.0000 0.0000 19.6071 0.0000
# 6 0.0000 0.0000 0.0000 0.0000 0.0000 15.8849
#
#
#
# Elastic Compliance Matrix: (Units=1/GPa)
#
#
# Indices 1 2 3 4 5 6 
#
# 1 0.010243 -0.002425 -0.003355 0.000000 0.000000 0.000000
# 2 -0.002425 0.014019 -0.004285 0.000000 0.000000 0.000000
# 3 -0.003355 -0.004285 0.010042 0.000000 0.000000 0.000000
# 4 0.000000 0.000000 0.000000 -0.067523 0.000000 0.000000
# 5 0.000000 0.000000 0.000000 0.000000 0.051002 0.000000
# 6 0.000000 0.000000 0.000000 0.000000 0.000000 0.062953
#
#
# Mechanical properties :
#
#
# Convention : Reuss Voigt Hill
#
# Bulk Modulus (GPa) = 70.55652 74.44850 72.50251
# Shear Modulus (GPa) = 47.35248 18.16509 32.75878
#
# Velocity S-wave (km/s) = 5.30017 3.28275 4.40841
# Velocity P-wave (km/s) = 8.90580 7.65082 8.30206
#
# Compressibility (1/GPa) = 0.01417303
#
# Stress axis : x y z
#
# Youngs Moduli (GPa) = 97.63083 71.33058 99.58104
#
# Poissons Ratio (x) = 0.17295 0.33414
# Poissons Ratio (y) = 0.23671 0.42675
# Poissons Ratio (z) = 0.32759 0.30568
#
# Static dielectric constant tensor:
#      x y z
#    x 3.229190 0.000000 0.000000 
#    y 0.000000 2.883310 0.000000 
#    z 0.000000 0.000000 4.214000 
# 
# 
# High freq. dielectric constant tensor:
#      x y z
#    x 1.665380 0.000000 0.000000 
#    y 0.000000 1.591460 0.000000 
#    z 0.000000 0.000000 1.674720 
# 
# From -- ./inp_files/59584.got.cif
#   From: 2010.03.12/outbox.cif.g09.slc.cpg/sg65_30_cif.got.tgz:59584.got - 2010.04.10 20:52:16.
