data_PCOD8265217
_publ_section_title
;
Structure prediction by ZEFSAII (Michael W. Deem and Ramdas Pophale) SiO2 
 PCOD8265217
Probable space group: C M M M
;
_chemical_formula_sum "Si O2"
_cell_formula_units_Z 112
_cell_length_a 35.688032
_cell_length_b 13.590571
_cell_length_c 14.840626
_cell_angle_alpha 90.000000
_cell_angle_beta 90.000000
_cell_angle_gamma 90.000000
_cell_volume 7198.011297
_symmetry_space_group_name_H-M "C M M M"
_symmetry_group_IT_number 65
_symmetry_cell_setting 'orthorhombic'
loop_
_space_group_symop_operation_xyz
x,y,z
-x,-y,z
x,-y,-z
-x,y,-z
-x,-y,-z
x,y,-z
-x,y,z
x,-y,z
1/2+x,1/2+y,z
1/2-x,1/2-y,z
1/2+x,1/2-y,-z
1/2-x,1/2+y,-z
1/2-x,1/2-y,-z
1/2+x,1/2+y,-z
1/2-x,1/2+y,z
1/2+x,1/2-y,z
loop_
_atom_site_type_symbol
_atom_site_label
_atom_site_fract_x
_atom_site_fract_y
_atom_site_fract_z
Si Si1 0.310456 0.617428 0.399882
Si Si2 0.793207 0.612407 0.102949
Si Si3 0.041078 0.884511 0.272917
Si Si4 0.338557 0.703110 0.102775
Si Si5 0.394207 0.384336 0.398235
Si Si6 0.915682 0.886838 0.101310
Si Si7 0.775399 0.884782 0.220128
O O1 0.297790 0.653800 0.500000
O O2 0.311790 0.500000 0.399252
O O3 0.352478 0.657792 0.378081
O O4 0.281747 0.656110 0.322522
O O5 0.804270 0.500000 0.125885
O O6 0.829678 0.680744 0.115880
O O7 0.761832 0.657459 0.171160
O O8 0.777987 0.619791 0.000000
O O9 0.073828 0.836287 0.334461
O O10 0.050136 0.863975 0.168105
O O11 0.000000 0.838397 0.294017
O O12 0.039382 0.000000 0.292612
O O13 0.381260 0.682898 0.130251
O O14 0.312079 0.636004 0.162704
O O15 0.332060 0.670147 0.000000
O O16 0.405861 0.359503 0.500000
O O17 0.392942 0.500000 0.380990
O O18 0.902385 0.000000 0.110713
O O19 0.929419 0.864046 0.000000
O O20 0.769333 0.000000 0.223701
#
# Coordination Sequence:
#
# PCOD8265217 Si02
#       7
#    16  16  16  16  16  16  16
#     4   8  14  24  37  53  74 102 134 163 188 214
#     4   9  18  30  41  55  75  97 123 158 201 242
#     4   9  16  24  34  50  74 102 126 147 175 212
#     4  10  18  27  40  56  75  99 127 159 193 228
#     4   8  13  21  32  46  66  93 126 160 185 205
#     4   9  17  27  38  54  75  99 128 156 179 210
#     4  10  17  24  38  58  79 102 126 154 190 231
#
# _framework density 15.559853
#
# number of rings (size 3 to 8) (size 9 to 14) (size 15 to 20)
#    0.000    3.000    0.000    3.000    0.000    5.429 
#    0.000    2.857    0.000    1.714    0.000    0.000 
#    0.000    0.571    0.000    5.571    0.000    0.143 
#
# Total GULP energy -693876.572043 kJ/mol
# GULP energy per Si atom -12390.653072 kJ/mol
# Density = 1.552444 g / cm^3
# Si number density = 15.559853 Si / 1000 Ang^3
#
#
#
# Elastic Constant Matrix: (Units=GPa)
#
#
# Indices 1 2 3 4 5 6 
#
# 1 56.7071 18.8610 34.1493 0.0000 0.0000 0.0000
# 2 18.8610 16.8919 14.6282 0.0000 0.0000 0.0000
# 3 34.1493 14.6282 71.8732 0.0000 0.0000 0.0000
# 4 0.0000 0.0000 0.0000 7.1483 0.0000 0.0000
# 5 0.0000 0.0000 0.0000 0.0000 22.2885 0.0000
# 6 0.0000 0.0000 0.0000 0.0000 0.0000 11.6177
#
#
#
# Elastic Compliance Matrix: (Units=1/GPa)
#
#
# Indices 1 2 3 4 5 6 
#
# 1 0.033018 -0.028263 -0.009936 0.000000 0.000000 0.000000
# 2 -0.028263 0.096059 -0.006122 0.000000 0.000000 0.000000
# 3 -0.009936 -0.006122 0.019880 0.000000 0.000000 0.000000
# 4 0.000000 0.000000 0.000000 0.139894 0.000000 0.000000
# 5 0.000000 0.000000 0.000000 0.000000 0.044866 0.000000
# 6 0.000000 0.000000 0.000000 0.000000 0.000000 0.086076
#
#
# Mechanical properties :
#
#
# Convention : Reuss Voigt Hill
#
# Bulk Modulus (GPa) = 16.57934 31.19433 23.88684
# Shear Modulus (GPa) = 9.46004 13.39982 11.42993
#
# Velocity S-wave (km/s) = 2.46840 2.93777 2.71325
# Velocity P-wave (km/s) = 4.33616 5.62128 5.02001
#
# Compressibility (1/GPa) = 0.06031602
#
# Stress axis : x y z
#
# Youngs Moduli (GPa) = 30.28641 10.41030 50.30131
#
# Poissons Ratio (x) = 0.29422 0.49978
# Poissons Ratio (y) = 0.85598 0.30795
# Poissons Ratio (z) = 0.30092 0.06373
#
# Static dielectric constant tensor:
#      x y z
#    x 3.065010 0.000000 0.000000 
#    y 0.000000 2.521820 0.000000 
#    z 0.000000 0.000000 3.312910 
# 
# 
# High freq. dielectric constant tensor:
#      x y z
#    x 1.581900 0.000000 0.000000 
#    y 0.000000 1.530450 0.000000 
#    z 0.000000 0.000000 1.611050 
# 
# From -- ./inp_files/47996.got.cif
#   From: 2010.03.12/outbox.cif.g09.slc.cpg/sg65_24_cif.got.tgz:47996.got - 2010.04.10 20:52:16.
