data_PCOD8265972
_publ_section_title
;
Structure prediction by ZEFSAII (Michael W. Deem and Ramdas Pophale) SiO2 
 PCOD8265972
Probable space group: C M M M
;
_chemical_formula_sum "Si O2"
_cell_formula_units_Z 96
_cell_length_a 27.115751
_cell_length_b 9.036605
_cell_length_c 23.876925
_cell_angle_alpha 90.000000
_cell_angle_beta 90.000000
_cell_angle_gamma 90.000000
_cell_volume 5850.666345
_symmetry_space_group_name_H-M "C M M M"
_symmetry_group_IT_number 65
_symmetry_cell_setting 'orthorhombic'
loop_
_space_group_symop_operation_xyz
x,y,z
-x,-y,z
x,-y,-z
-x,y,-z
-x,-y,-z
x,y,-z
-x,y,z
x,-y,z
1/2+x,1/2+y,z
1/2-x,1/2-y,z
1/2+x,1/2-y,-z
1/2-x,1/2+y,-z
1/2-x,1/2-y,-z
1/2+x,1/2+y,-z
1/2-x,1/2+y,z
1/2+x,1/2-y,z
loop_
_atom_site_type_symbol
_atom_site_label
_atom_site_fract_x
_atom_site_fract_y
_atom_site_fract_z
Si Si1 0.610228 0.171476 0.110696
Si Si2 0.857132 0.172870 0.279816
Si Si3 0.301923 0.326244 0.833372
Si Si4 0.196946 0.673871 0.378616
Si Si5 0.055476 0.676013 0.000000
Si Si6 0.199402 0.331113 0.500000
Si Si7 0.556482 0.170096 0.224445
O O1 0.659684 0.264414 0.121231
O O2 0.571095 0.196360 0.160141
O O3 0.625157 0.000000 0.105233
O O4 0.584712 0.232334 0.054524
O O5 0.820329 0.212701 0.229079
O O6 0.840752 0.259294 0.334689
O O7 0.912028 0.225634 0.265040
O O8 0.857744 0.000000 0.292634
O O9 0.296414 0.500000 0.842190
O O10 0.250000 0.250000 0.843827
O O11 0.203620 0.500000 0.367123
O O12 0.250000 0.750000 0.372240
O O13 0.172610 0.705220 0.440692
O O14 0.052325 0.500000 0.000000
O O15 0.000000 0.741856 0.000000
O O16 0.214519 0.500000 0.500000
O O17 0.250000 0.250000 0.500000
O O18 0.500000 0.215997 0.232064
O O19 0.565691 0.000000 0.241351
#
# Coordination Sequence:
#
# PCOD8265972 Si02
#       7
#    16  16  16  16   8   8  16
#     4   9  17  30  49  72  96 120 149 184 223 270
#     4  10  20  31  45  68  94 121 154 190 229 272
#     4  10  20  33  48  66  91 122 155 190 227 268
#     4  10  18  29  45  66  94 125 156 189 224 266
#     4   9  16  28  50  77  98 117 146 185 226 269
#     4   8  16  28  42  62  89 122 155 186 222 263
#     4   9  17  30  48  69  93 121 151 185 227 273
#
# _framework density 16.408387999999999
#
# number of rings (size 3 to 8) (size 9 to 14) (size 15 to 20)
#    0.000    2.583    0.000    2.500    0.000    6.333 
#    0.000    0.833    0.000    2.000    0.000    0.583 
#    0.000    4.667    0.000    0.000    0.000    0.000 
#
# Total GULP energy -595062.404430 kJ/mol
# GULP energy per Si atom -12397.133426 kJ/mol
# Density = 1.637104 g / cm^3
# Si number density = 16.408388 Si / 1000 Ang^3
#
#
#
# Elastic Constant Matrix: (Units=GPa)
#
#
# Indices 1 2 3 4 5 6 
#
# 1 118.0646 50.0850 64.7255 0.0000 0.0000 0.0000
# 2 50.0850 70.5123 54.0562 0.0000 0.0000 0.0000
# 3 64.7255 54.0562 132.5741 0.0000 0.0000 0.0000
# 4 0.0000 0.0000 0.0000 19.8814 0.0000 0.0000
# 5 0.0000 0.0000 0.0000 0.0000 17.4916 0.0000
# 6 0.0000 0.0000 0.0000 0.0000 0.0000 25.7699
#
#
#
# Elastic Compliance Matrix: (Units=1/GPa)
#
#
# Indices 1 2 3 4 5 6 
#
# 1 0.013354 -0.006528 -0.003858 0.000000 0.000000 0.000000
# 2 -0.006528 0.023822 -0.006526 0.000000 0.000000 0.000000
# 3 -0.003858 -0.006526 0.012088 0.000000 0.000000 0.000000
# 4 0.000000 0.000000 0.000000 0.050298 0.000000 0.000000
# 5 0.000000 0.000000 0.000000 0.000000 0.057170 0.000000
# 6 0.000000 0.000000 0.000000 0.000000 0.000000 0.038805
#
#
# Mechanical properties :
#
#
# Convention : Reuss Voigt Hill
#
# Bulk Modulus (GPa) = 64.76959 73.20937 68.98948
# Shear Modulus (GPa) = 21.32128 22.78089 22.05108
#
# Velocity S-wave (km/s) = 3.60865 3.73012 3.66989
# Velocity P-wave (km/s) = 7.54469 7.95397 7.75203
#
# Compressibility (1/GPa) = 0.01543934
#
# Stress axis : x y z
#
# Youngs Moduli (GPa) = 74.88238 41.97854 82.72968
#
# Poissons Ratio (x) = 0.27403 0.31918
# Poissons Ratio (y) = 0.48882 0.53990
# Poissons Ratio (z) = 0.28891 0.27396
#
# Static dielectric constant tensor:
#      x y z
#    x 2.945770 0.000000 0.000000 
#    y 0.000000 3.077770 0.000000 
#    z 0.000000 0.000000 3.406670 
# 
# 
# High freq. dielectric constant tensor:
#      x y z
#    x 1.612980 0.000000 0.000000 
#    y 0.000000 1.632450 0.000000 
#    z 0.000000 0.000000 1.630060 
# 
# From -- ./inp_files/71721.got.cif
#   From: 2010.03.12/outbox.cif.g09.slc.cpg/sg65_36_cif.got.tgz:71721.got - 2010.04.10 20:52:16.
