data_PCOD8265043
_publ_section_title
;
Structure prediction by ZEFSAII (Michael W. Deem and Ramdas Pophale) SiO2 
 PCOD8265043
Probable space group: C M C A
;
_chemical_formula_sum "Si O2"
_cell_formula_units_Z 48
_cell_length_a 9.000000
_cell_length_b 21.000000
_cell_length_c 27.000000
_cell_angle_alpha 90.000000
_cell_angle_beta 90.000000
_cell_angle_gamma 90.000000
_cell_volume 5103.000000
_symmetry_space_group_name_H-M "C M C A"
_symmetry_group_IT_number 64
_symmetry_cell_setting 'orthorhombic'
loop_
_space_group_symop_operation_xyz
x,y,z
-x,1/2-y,1/2+z
x,-y,-z
-x,1/2+y,1/2-z
-x,-y,-z
x,1/2+y,1/2-z
-x,y,z
x,1/2-y,1/2+z
1/2+x,1/2+y,z
1/2-x,-y,1/2+z
1/2+x,1/2-y,-z
1/2-x,y,1/2-z
1/2-x,1/2-y,-z
1/2+x,y,1/2-z
1/2-x,1/2+y,z
1/2+x,-y,1/2+z
loop_
_atom_site_type_symbol
_atom_site_label
_atom_site_fract_x
_atom_site_fract_y
_atom_site_fract_z
Si Si1 0.174335 0.503822 0.442298
Si Si2 0.674465 0.740394 0.948293
Si Si3 0.171674 0.183345 0.700685
Si Si4 0.330311 0.125603 0.100644
Si Si5 0.828246 0.380353 0.100321
Si Si6 0.326929 0.814751 0.799637
O O1 0.214662 0.500000 0.500000
O O2 0.223672 0.572729 0.422418
O O3 0.259046 0.448172 0.413444
O O4 0.000000 0.495753 0.433119
O O5 0.500000 0.728974 0.953911
O O6 0.710559 0.803811 0.917691
O O7 0.743145 0.677293 0.925113
O O8 0.750000 0.750000 0.000000
O O9 0.250000 0.156549 0.750000
O O10 0.187402 0.128937 0.659248
O O11 0.250835 0.248621 0.683408
O O12 0.000000 0.198814 0.711512
O O13 0.500000 0.108028 0.086905
O O14 0.306469 0.129681 0.159749
O O15 0.000000 0.379147 0.083509
O O16 0.500000 0.800412 0.790738
O O17 0.250000 0.840762 0.750000
#
# Coordination Sequence:
#
# PCOD8265043 Si02
#       6
#    16  16  16  16  16  16
#     4  11  25  42  61  85 115 155 199 245 296 351
#     4  11  22  37  58  86 118 151 193 245 296 346
#     4  10  20  34  57  88 119 153 192 237 291 347
#     4  10  22  39  59  84 117 155 193 238 291 348
#     4  11  23  39  60  87 118 155 197 241 293 352
#     4  10  19  34  57  87 119 153 191 236 292 347
#
# _framework density 9.4062319999999993
#
# number of rings (size 3 to 8) (size 9 to 14) (size 15 to 20)
#    0.000    1.500    1.667    4.500    0.000    8.667 
#    0.000    0.833    0.000    0.000    0.000    0.000 
#    0.000    0.000    0.000    0.000    0.000    0.000 
#
# Total GULP energy -595219.922236 kJ/mol
# GULP energy per Si atom -12400.415047 kJ/mol
# Density = 0.938482 g / cm^3
# Si number density = 9.406232 Si / 1000 Ang^3
#
#
#
# Elastic Constant Matrix: (Units=GPa)
#
#
# Indices 1 2 3 4 5 6 
#
# 1 140.8382 51.2036 55.5179 0.0000 0.0000 0.0000
# 2 51.2036 83.1134 31.1467 0.0000 0.0000 0.0000
# 3 55.5179 31.1467 99.1683 0.0000 0.0000 0.0000
# 4 0.0000 0.0000 0.0000 32.0735 0.0000 0.0000
# 5 0.0000 0.0000 0.0000 0.0000 30.9788 0.0000
# 6 0.0000 0.0000 0.0000 0.0000 0.0000 37.5995
#
#
#
# Elastic Compliance Matrix: (Units=1/GPa)
#
#
# Indices 1 2 3 4 5 6 
#
# 1 0.010615 -0.004888 -0.004407 0.000000 0.000000 0.000000
# 2 -0.004888 0.015887 -0.002254 0.000000 0.000000 0.000000
# 3 -0.004407 -0.002254 0.013259 0.000000 0.000000 0.000000
# 4 0.000000 0.000000 0.000000 0.031178 0.000000 0.000000
# 5 0.000000 0.000000 0.000000 0.000000 0.032280 0.000000
# 6 0.000000 0.000000 0.000000 0.000000 0.000000 0.026596
#
#
# Mechanical properties :
#
#
# Convention : Reuss Voigt Hill
#
# Bulk Modulus (GPa) = 60.01007 66.53960 63.27483
# Shear Modulus (GPa) = 31.55212 32.48046 32.01629
#
# Velocity S-wave (km/s) = 4.09980 4.15967 4.12984
# Velocity P-wave (km/s) = 7.37424 7.64966 7.51321
#
# Compressibility (1/GPa) = 0.01666387
#
# Stress axis : x y z
#
# Youngs Moduli (GPa) = 94.20877 62.94260 75.42007
#
# Poissons Ratio (x) = 0.30765 0.33240
# Poissons Ratio (y) = 0.46047 0.16997
# Poissons Ratio (z) = 0.41521 0.14185
#
# Static dielectric constant tensor:
#      x y z
#    x 3.638130 0.000000 0.000000 
#    y 0.000000 3.313110 0.000000 
#    z 0.000000 0.000000 3.591190 
# 
# 
# High freq. dielectric constant tensor:
#      x y z
#    x 1.751400 0.000000 0.000000 
#    y 0.000000 1.720530 0.000000 
#    z 0.000000 0.000000 1.742310 
# 
# From -- ./inp_files/48022.got.cif
#   From: 2010.03.12/outbox.ucp.g09.slc.cvg/sg64_25_cif.got.tgz:48022.got - 2010.05.04 19:41:48.
