data_PCOD8265883
_publ_section_title
;
Structure prediction by ZEFSAII (Michael W. Deem and Ramdas Pophale) SiO2 
 PCOD8265883
Probable space group: C M M M
;
_chemical_formula_sum "Si O2"
_cell_formula_units_Z 88
_cell_length_a 27.266958
_cell_length_b 8.930419
_cell_length_c 21.110900
_cell_angle_alpha 90.000000
_cell_angle_beta 90.000000
_cell_angle_gamma 90.000000
_cell_volume 5140.617300
_symmetry_space_group_name_H-M "C M M M"
_symmetry_group_IT_number 65
_symmetry_cell_setting 'orthorhombic'
loop_
_space_group_symop_operation_xyz
x,y,z
-x,-y,z
x,-y,-z
-x,y,-z
-x,-y,-z
x,y,-z
-x,y,z
x,-y,z
1/2+x,1/2+y,z
1/2-x,1/2-y,z
1/2+x,1/2-y,-z
1/2-x,1/2+y,-z
1/2-x,1/2-y,-z
1/2+x,1/2+y,-z
1/2-x,1/2+y,z
1/2+x,1/2-y,z
loop_
_atom_site_type_symbol
_atom_site_label
_atom_site_fract_x
_atom_site_fract_y
_atom_site_fract_z
Si Si1 0.148369 0.670978 0.383825
Si Si2 0.803091 0.824481 0.500000
Si Si3 0.555669 0.827019 0.306777
Si Si4 0.554825 0.322331 0.069511
Si Si5 0.607286 0.322504 0.806143
Si Si6 0.801211 0.326787 0.251684
O O1 0.151737 0.500000 0.407780
O O2 0.165640 0.780321 0.438783
O O3 0.092443 0.712617 0.364497
O O4 0.183753 0.697519 0.324343
O O5 0.750000 0.750000 0.500000
O O6 0.794526 0.000000 0.500000
O O7 0.500000 0.796957 0.329241
O O8 0.567331 0.726750 0.245881
O O9 0.564228 0.000000 0.287455
O O10 0.500000 0.258415 0.079944
O O11 0.552690 0.500000 0.072779
O O12 0.589878 0.262973 0.125174
O O13 0.574480 0.271210 0.000000
O O14 0.612644 0.500000 0.803341
O O15 0.659509 0.248058 0.794384
O O16 0.797487 0.500000 0.234501
O O17 0.750000 0.250000 0.238214
#
# Coordination Sequence:
#
# PCOD8265883 Si02
#       6
#    16   8  16  16  16  16
#     4   9  19  35  53  73  97 125 158 194 234 283
#     4  12  24  36  53  74  97 125 156 195 241 286
#     4   9  18  33  52  73  99 131 164 199 239 282
#     4   8  14  25  42  67  99 131 162 196 234 279
#     4  10  18  28  47  74 100 128 162 200 242 287
#     4  10  20  34  52  73  97 125 158 199 244 288
#
# _framework density 17.118566000000001
#
# number of rings (size 3 to 8) (size 9 to 14) (size 15 to 20)
#    0.000    2.545    0.000    4.636    0.000    6.182 
#    0.000    0.455    0.000    5.455    0.000    6.364 
#    0.000    0.000    0.000    0.000    0.000    0.000 
#
# Total GULP energy -545547.011141 kJ/mol
# GULP energy per Si atom -12398.795708 kJ/mol
# Density = 1.707960 g / cm^3
# Si number density = 17.118566 Si / 1000 Ang^3
#
#
#
# Elastic Constant Matrix: (Units=GPa)
#
#
# Indices 1 2 3 4 5 6 
#
# 1 142.7346 52.9331 71.3024 0.0000 0.0000 0.0000
# 2 52.9331 87.9822 56.3524 0.0000 0.0000 0.0000
# 3 71.3024 56.3524 122.8833 0.0000 0.0000 0.0000
# 4 0.0000 0.0000 0.0000 17.3707 0.0000 0.0000
# 5 0.0000 0.0000 0.0000 0.0000 21.8172 0.0000
# 6 0.0000 0.0000 0.0000 0.0000 0.0000 26.2196
#
#
#
# Elastic Compliance Matrix: (Units=1/GPa)
#
#
# Indices 1 2 3 4 5 6 
#
# 1 0.010552 -0.003436 -0.004547 0.000000 0.000000 0.000000
# 2 -0.003436 0.017212 -0.005899 0.000000 0.000000 0.000000
# 3 -0.004547 -0.005899 0.013481 0.000000 0.000000 0.000000
# 4 0.000000 0.000000 0.000000 0.057568 0.000000 0.000000
# 5 0.000000 0.000000 0.000000 0.000000 0.045835 0.000000
# 6 0.000000 0.000000 0.000000 0.000000 0.000000 0.038139
#
#
# Mechanical properties :
#
#
# Convention : Reuss Voigt Hill
#
# Bulk Modulus (GPa) = 74.18149 79.41954 76.80051
# Shear Modulus (GPa) = 23.25094 24.61565 23.93329
#
# Velocity S-wave (km/s) = 3.68941 3.79615 3.74316
# Velocity P-wave (km/s) = 7.84710 8.10610 7.97765
#
# Compressibility (1/GPa) = 0.01348045
#
# Stress axis : x y z
#
# Youngs Moduli (GPa) = 94.77251 58.10038 74.17636
#
# Poissons Ratio (x) = 0.19963 0.33727
# Poissons Ratio (y) = 0.32563 0.43759
# Poissons Ratio (z) = 0.43091 0.34275
#
# Static dielectric constant tensor:
#      x y z
#    x 3.284790 0.000000 0.000000 
#    y 0.000000 3.095900 0.000000 
#    z 0.000000 0.000000 3.249360 
# 
# 
# High freq. dielectric constant tensor:
#      x y z
#    x 1.662720 0.000000 0.000000 
#    y 0.000000 1.651810 0.000000 
#    z 0.000000 0.000000 1.649490 
# 
# From -- ./inp_files/65749.got.cif
#   From: 2010.03.12/outbox.cif.g09.slc.cpg/sg65_33_cif.got.tgz:65749.got - 2010.04.10 20:52:16.
