data_PCOD8265829
_publ_section_title
;
Structure prediction by ZEFSAII (Michael W. Deem and Ramdas Pophale) SiO2 
 PCOD8265829
Probable space group: C M M M
;
_chemical_formula_sum "Si O2"
_cell_formula_units_Z 88
_cell_length_a 13.382397
_cell_length_b 18.069405
_cell_length_c 19.020579
_cell_angle_alpha 90.000000
_cell_angle_beta 90.000000
_cell_angle_gamma 90.000000
_cell_volume 4599.403322
_symmetry_space_group_name_H-M "C M M M"
_symmetry_group_IT_number 65
_symmetry_cell_setting 'orthorhombic'
loop_
_space_group_symop_operation_xyz
x,y,z
-x,-y,z
x,-y,-z
-x,y,-z
-x,-y,-z
x,y,-z
-x,y,z
x,-y,z
1/2+x,1/2+y,z
1/2-x,1/2-y,z
1/2+x,1/2-y,-z
1/2-x,1/2+y,-z
1/2-x,1/2-y,-z
1/2+x,1/2+y,-z
1/2-x,1/2+y,z
1/2+x,1/2-y,z
loop_
_atom_site_type_symbol
_atom_site_label
_atom_site_fract_x
_atom_site_fract_y
_atom_site_fract_z
Si Si1 0.612383 0.912403 0.923223
Si Si2 0.793968 0.585548 0.782059
Si Si3 0.619479 0.294932 0.579602
Si Si4 0.619355 0.000000 0.578784
Si Si5 0.617093 0.146422 0.650609
Si Si6 0.386876 0.416232 0.689178
O O1 0.500000 0.884790 0.905547
O O2 0.688779 0.886465 0.862003
O O3 0.612653 0.000000 0.927258
O O4 0.646052 0.880968 0.000000
O O5 0.830587 0.500000 0.773610
O O6 0.858575 0.640757 0.733173
O O7 0.677770 0.592984 0.760379
O O8 0.659657 0.304317 0.500000
O O9 0.500000 0.293559 0.579404
O O10 0.663670 0.218629 0.612602
O O11 0.656663 0.362901 0.628251
O O12 0.663851 0.072534 0.616192
O O13 0.500000 0.000000 0.582432
O O14 0.658873 0.000000 0.500000
O O15 0.500000 0.149641 0.638403
O O16 0.500000 0.394410 0.709352
O O17 0.381116 0.500000 0.660263
#
# Coordination Sequence:
#
# PCOD8265829 Si02
#       6
#    16  16  16   8  16  16
#     4   8  14  25  44  73 107 137 159 184 227 285
#     4  10  18  29  47  70  99 129 163 198 236 286
#     4   9  18  33  51  69  92 124 163 209 257 300
#     4   9  16  26  40  60  94 134 158 177 216 278
#     4  10  18  28  45  71  99 127 156 187 234 297
#     4   9  19  35  52  67  86 119 168 221 263 290
#
# _framework density 19.132916999999999
#
# number of rings (size 3 to 8) (size 9 to 14) (size 15 to 20)
#    0.000    2.818    0.909    1.636    0.000    4.000 
#    0.000    4.545    0.000    0.545    0.000    6.364 
#    0.000    4.364    0.000    0.182    0.000    0.000 
#
# Total GULP energy -545395.912247 kJ/mol
# GULP energy per Si atom -12395.361642 kJ/mol
# Density = 1.908937 g / cm^3
# Si number density = 19.132917 Si / 1000 Ang^3
#
#
#
# Elastic Constant Matrix: (Units=GPa)
#
#
# Indices 1 2 3 4 5 6 
#
# 1 39.8688 37.3301 48.9564 0.0000 0.0000 0.0000
# 2 37.3301 88.5521 61.3408 0.0000 0.0000 0.0000
# 3 48.9564 61.3408 188.7440 0.0000 0.0000 0.0000
# 4 0.0000 0.0000 0.0000 19.7576 0.0000 0.0000
# 5 0.0000 0.0000 0.0000 0.0000 26.0172 0.0000
# 6 0.0000 0.0000 0.0000 0.0000 0.0000 21.5092
#
#
#
# Elastic Compliance Matrix: (Units=1/GPa)
#
#
# Indices 1 2 3 4 5 6 
#
# 1 0.048818 -0.015239 -0.007710 0.000000 0.000000 0.000000
# 2 -0.015239 0.019331 -0.002330 0.000000 0.000000 0.000000
# 3 -0.007710 -0.002330 0.008055 0.000000 0.000000 0.000000
# 4 0.000000 0.000000 0.000000 0.050614 0.000000 0.000000
# 5 0.000000 0.000000 0.000000 0.000000 0.038436 0.000000
# 6 0.000000 0.000000 0.000000 0.000000 0.000000 0.046492
#
#
# Mechanical properties :
#
#
# Convention : Reuss Voigt Hill
#
# Bulk Modulus (GPa) = 38.99126 68.04661 53.51893
# Shear Modulus (GPa) = 18.46028 24.75930 21.60979
#
# Velocity S-wave (km/s) = 3.10956 3.60122 3.36438
# Velocity P-wave (km/s) = 5.77199 7.27558 6.56696
#
# Compressibility (1/GPa) = 0.02564678
#
# Stress axis : x y z
#
# Youngs Moduli (GPa) = 20.48414 51.73079 124.14524
#
# Poissons Ratio (x) = 0.78834 0.95713
# Poissons Ratio (y) = 0.31216 0.28922
# Poissons Ratio (z) = 0.15793 0.12052
#
# Static dielectric constant tensor:
#      x y z
#    x 3.373640 0.000000 0.000000 
#    y 0.000000 3.448780 0.000000 
#    z 0.000000 0.000000 3.726680 
# 
# 
# High freq. dielectric constant tensor:
#      x y z
#    x 1.743150 0.000000 0.000000 
#    y 0.000000 1.719470 0.000000 
#    z 0.000000 0.000000 1.727910 
# 
# From -- ./inp_files/52983.got.cif
#   From: 2010.03.12/outbox.cif.g09.slc.cpg/sg65_27_cif.got.tgz:52983.got - 2010.04.10 20:52:16.
