data_PCOD8265719
_publ_section_title
;
Structure prediction by ZEFSAII (Michael W. Deem and Ramdas Pophale) SiO2 
 PCOD8265719
Probable space group: C M M M
;
_chemical_formula_sum "Si O2"
_cell_formula_units_Z 88
_cell_length_a 8.818393
_cell_length_b 29.187463
_cell_length_c 21.021556
_cell_angle_alpha 90.000000
_cell_angle_beta 90.000000
_cell_angle_gamma 90.000000
_cell_volume 5410.665131
_symmetry_space_group_name_H-M "C M M M"
_symmetry_group_IT_number 65
_symmetry_cell_setting 'orthorhombic'
loop_
_space_group_symop_operation_xyz
x,y,z
-x,-y,z
x,-y,-z
-x,y,-z
-x,-y,-z
x,y,-z
-x,y,z
x,-y,z
1/2+x,1/2+y,z
1/2-x,1/2-y,z
1/2+x,1/2-y,-z
1/2-x,1/2+y,-z
1/2-x,1/2-y,-z
1/2+x,1/2+y,-z
1/2-x,1/2+y,z
1/2+x,1/2-y,z
loop_
_atom_site_type_symbol
_atom_site_label
_atom_site_fract_x
_atom_site_fract_y
_atom_site_fract_z
Si Si1 0.819361 0.699451 0.805573
Si Si2 0.177428 0.799589 0.068920
Si Si3 0.331545 0.554253 0.500000
Si Si4 0.178873 0.551020 0.629130
Si Si5 0.179140 0.358116 0.686842
Si Si6 0.320782 0.798516 0.429063
O O1 0.750000 0.750000 0.796325
O O2 0.760810 0.675935 0.871620
O O3 0.756073 0.666487 0.749715
O O4 0.000000 0.702945 0.805966
O O5 0.250000 0.750000 0.064020
O O6 0.000000 0.795161 0.084056
O O7 0.202874 0.824584 0.000000
O O8 0.338422 0.500000 0.500000
O O9 0.500000 0.575440 0.500000
O O10 0.244147 0.570258 0.562964
O O11 0.240761 0.500000 0.646932
O O12 0.225291 0.587843 0.683761
O O13 0.000000 0.549278 0.620389
O O14 0.242316 0.334067 0.623034
O O15 0.000000 0.353222 0.688373
O O16 0.271193 0.814722 0.500000
O O17 0.500000 0.793498 0.424878
O O18 0.250000 0.750000 0.411951
#
# Coordination Sequence:
#
# PCOD8265719 Si02
#       6
#    16  16   8  16  16  16
#     4  10  18  28  42  61  88 117 144 174 206 244
#     4   9  16  26  41  61  85 113 144 174 203 239
#     4   9  17  29  43  61  84 103 124 165 220 263
#     4   9  17  30  48  65  80 104 139 173 208 259
#     4   9  18  29  43  63  83 107 139 174 213 249
#     4   9  17  29  43  56  75 105 137 173 208 239
#
# _framework density 16.264175000000002
#
# number of rings (size 3 to 8) (size 9 to 14) (size 15 to 20)
#    0.000    2.818    0.000    3.000    1.273    2.182 
#    0.000    3.636    0.000    0.000    0.000    0.000 
#    0.000    0.727    0.000    9.091    0.000    1.455 
#
# Total GULP energy -545106.954568 kJ/mol
# GULP energy per Si atom -12388.794422 kJ/mol
# Density = 1.622716 g / cm^3
# Si number density = 16.264175 Si / 1000 Ang^3
#
#
#
# Elastic Constant Matrix: (Units=GPa)
#
#
# Indices 1 2 3 4 5 6 
#
# 1 43.6325 20.0225 28.4520 0.0000 0.0000 0.0000
# 2 20.0225 77.4540 66.1413 0.0000 0.0000 0.0000
# 3 28.4520 66.1413 140.9643 0.0000 0.0000 0.0000
# 4 0.0000 0.0000 0.0000 12.3208 0.0000 0.0000
# 5 0.0000 0.0000 0.0000 0.0000 16.9489 0.0000
# 6 0.0000 0.0000 0.0000 0.0000 0.0000 12.2670
#
#
#
# Elastic Compliance Matrix: (Units=1/GPa)
#
#
# Indices 1 2 3 4 5 6 
#
# 1 0.027078 -0.003892 -0.003639 0.000000 0.000000 0.000000
# 2 -0.003892 0.022102 -0.009585 0.000000 0.000000 0.000000
# 3 -0.003639 -0.009585 0.012326 0.000000 0.000000 0.000000
# 4 0.000000 0.000000 0.000000 0.081163 0.000000 0.000000
# 5 0.000000 0.000000 0.000000 0.000000 0.059001 0.000000
# 6 0.000000 0.000000 0.000000 0.000000 0.000000 0.081519
#
#
# Mechanical properties :
#
#
# Convention : Reuss Voigt Hill
#
# Bulk Modulus (GPa) = 36.66595 54.58691 45.62643
# Shear Modulus (GPa) = 15.31337 18.13635 16.72486
#
# Velocity S-wave (km/s) = 3.07178 3.34295 3.21023
# Velocity P-wave (km/s) = 5.93077 6.96677 6.46954
#
# Compressibility (1/GPa) = 0.02727326
#
# Stress axis : x y z
#
# Youngs Moduli (GPa) = 36.93063 45.24499 81.13123
#
# Poissons Ratio (x) = 0.17611 0.29524
# Poissons Ratio (y) = 0.14374 0.77762
# Poissons Ratio (z) = 0.13439 0.43366
#
# Static dielectric constant tensor:
#      x y z
#    x 3.006240 0.000000 0.000000 
#    y 0.000000 2.972320 0.000000 
#    z 0.000000 0.000000 3.725830 
# 
# 
# High freq. dielectric constant tensor:
#      x y z
#    x 1.617250 0.000000 0.000000 
#    y 0.000000 1.588520 0.000000 
#    z 0.000000 0.000000 1.622970 
# 
# From -- ./inp_files/60692.got.cif
#   From: 2010.03.12/outbox.cif.g09.slc.cpg/sg65_31_cif.got.tgz:60692.got - 2010.04.10 20:52:16.
