data_PCOD8265368
_publ_section_title
;
Structure prediction by ZEFSAII (Michael W. Deem and Ramdas Pophale) SiO2 
 PCOD8265368
Probable space group: C M M M
;
_chemical_formula_sum "Si O2"
_cell_formula_units_Z 72
_cell_length_a 10.309797
_cell_length_b 28.231147
_cell_length_c 16.685372
_cell_angle_alpha 90.000000
_cell_angle_beta 90.000000
_cell_angle_gamma 90.000000
_cell_volume 4856.400903
_symmetry_space_group_name_H-M "C M M M"
_symmetry_group_IT_number 65
_symmetry_cell_setting 'orthorhombic'
loop_
_space_group_symop_operation_xyz
x,y,z
-x,-y,z
x,-y,-z
-x,y,-z
-x,-y,-z
x,y,-z
-x,y,z
x,-y,z
1/2+x,1/2+y,z
1/2-x,1/2-y,z
1/2+x,1/2-y,-z
1/2-x,1/2+y,-z
1/2-x,1/2-y,-z
1/2+x,1/2+y,-z
1/2-x,1/2+y,z
1/2+x,1/2-y,z
loop_
_atom_site_type_symbol
_atom_site_label
_atom_site_fract_x
_atom_site_fract_y
_atom_site_fract_z
Si Si1 0.000000 0.192620 0.590565
Si Si2 0.500000 0.805172 0.410803
Si Si3 0.647765 0.792058 0.000000
Si Si4 0.153632 0.448157 0.910578
Si Si5 0.251461 0.193755 0.685652
Si Si6 0.650618 0.148234 0.159375
O O1 0.000000 0.248844 0.585388
O O2 0.125302 0.174949 0.639149
O O3 0.000000 0.171711 0.500000
O O4 0.500000 0.826524 0.500000
O O5 0.373456 0.823817 0.365685
O O6 0.750000 0.750000 0.000000
O O7 0.672302 0.823973 0.922684
O O8 0.500000 0.772168 0.000000
O O9 0.194810 0.500000 0.876086
O O10 0.200351 0.405850 0.852733
O O11 0.000000 0.444565 0.917527
O O12 0.212026 0.441879 0.000000
O O13 0.250000 0.250000 0.696554
O O14 0.257865 0.170746 0.773217
O O15 0.500000 0.150879 0.185870
#
# Coordination Sequence:
#
# PCOD8265368 Si02
#       6
#     8   8   8  16  16  16
#     4   9  18  30  44  61  84 115 148 183 220 257
#     4   9  16  28  44  61  82 113 146 181 224 267
#     4  10  20  32  43  59  89 129 160 182 203 248
#     4   8  13  23  41  63  85 110 143 183 226 263
#     4  10  18  28  42  62  89 117 149 182 216 256
#     4  10  17  28  43  62  89 119 151 181 219 257
#
# _framework density 14.825794999999999
#
# number of rings (size 3 to 8) (size 9 to 14) (size 15 to 20)
#    0.000    2.667    2.222    2.000    0.000    2.667 
#    2.000    0.000    0.000    0.000    0.000    0.778 
#    0.000    8.000    0.000    0.000    0.000    0.000 
#
# Total GULP energy -446215.754652 kJ/mol
# GULP energy per Si atom -12394.882074 kJ/mol
# Density = 1.479205 g / cm^3
# Si number density = 14.825795 Si / 1000 Ang^3
#
#
#
# Elastic Constant Matrix: (Units=GPa)
#
#
# Indices 1 2 3 4 5 6 
#
# 1 87.5784 32.2215 53.1798 0.0000 0.0000 0.0000
# 2 32.2215 73.6338 40.1346 0.0000 0.0000 0.0000
# 3 53.1798 40.1346 122.0402 0.0000 0.0000 0.0000
# 4 0.0000 0.0000 0.0000 3.4648 0.0000 0.0000
# 5 0.0000 0.0000 0.0000 0.0000 25.1243 0.0000
# 6 0.0000 0.0000 0.0000 0.0000 0.0000 8.5910
#
#
#
# Elastic Compliance Matrix: (Units=1/GPa)
#
#
# Indices 1 2 3 4 5 6 
#
# 1 0.016444 -0.004009 -0.005847 0.000000 0.000000 0.000000
# 2 -0.004009 0.017524 -0.004016 0.000000 0.000000 0.000000
# 3 -0.005847 -0.004016 0.012063 0.000000 0.000000 0.000000
# 4 0.000000 0.000000 0.000000 0.288614 0.000000 0.000000
# 5 0.000000 0.000000 0.000000 0.000000 0.039802 0.000000
# 6 0.000000 0.000000 0.000000 0.000000 0.000000 0.116401
#
#
# Mechanical properties :
#
#
# Convention : Reuss Voigt Hill
#
# Bulk Modulus (GPa) = 54.68537 59.36938 57.02737
# Shear Modulus (GPa) = 9.52950 17.95046 13.73998
#
# Velocity S-wave (km/s) = 2.53803 3.48337 3.04758
# Velocity P-wave (km/s) = 6.74938 7.50400 7.13667
#
# Compressibility (1/GPa) = 0.01828643
#
# Stress axis : x y z
#
# Youngs Moduli (GPa) = 60.81353 57.06496 82.89976
#
# Poissons Ratio (x) = 0.22875 0.48473
# Poissons Ratio (y) = 0.24377 0.33294
# Poissons Ratio (z) = 0.35559 0.22919
#
# Static dielectric constant tensor:
#      x y z
#    x 2.737680 0.000000 0.000000 
#    y 0.000000 2.806170 0.000000 
#    z 0.000000 0.000000 2.921460 
# 
# 
# High freq. dielectric constant tensor:
#      x y z
#    x 1.544560 0.000000 0.000000 
#    y 0.000000 1.533060 0.000000 
#    z 0.000000 0.000000 1.569500 
# 
# From -- ./inp_files/37065.got.cif
#   From: 2010.03.12/outbox.cif.g09.slc.cpg/sg65_19_cif.got.tgz:37065.got - 2010.04.10 20:52:16.
