data_PCOD8265014
_publ_section_title
;
Structure prediction by ZEFSAII (Michael W. Deem and Ramdas Pophale) SiO2 
 PCOD8265014
Probable space group: C M C A
;
_chemical_formula_sum "Si O2"
_cell_formula_units_Z 64
_cell_length_a 21.850261
_cell_length_b 13.606426
_cell_length_c 9.943115
_cell_angle_alpha 90.000000
_cell_angle_beta 90.000000
_cell_angle_gamma 90.000000
_cell_volume 2956.127458
_symmetry_space_group_name_H-M "C M C A"
_symmetry_group_IT_number 64
_symmetry_cell_setting 'orthorhombic'
loop_
_space_group_symop_operation_xyz
x,y,z
-x,1/2-y,1/2+z
x,-y,-z
-x,1/2+y,1/2-z
-x,-y,-z
x,1/2+y,1/2-z
-x,y,z
x,1/2-y,1/2+z
1/2+x,1/2+y,z
1/2-x,-y,1/2+z
1/2+x,1/2-y,-z
1/2-x,y,1/2-z
1/2-x,1/2-y,-z
1/2+x,y,1/2-z
1/2-x,1/2+y,z
1/2+x,-y,1/2+z
loop_
_atom_site_type_symbol
_atom_site_label
_atom_site_fract_x
_atom_site_fract_y
_atom_site_fract_z
Si Si1 0.000000 0.353062 0.555664
Si Si2 0.881813 0.944480 0.364095
Si Si3 0.000000 0.835514 0.257784
Si Si4 0.129714 0.070004 0.115645
Si Si5 0.206575 0.735783 0.877150
O O1 0.000000 0.312815 0.402152
O O2 0.942159 0.421482 0.585096
O O3 0.000000 0.264868 0.661031
O O4 0.829163 0.865980 0.392262
O O5 0.940304 0.895858 0.296116
O O6 0.900811 0.000000 0.500000
O O7 0.855658 0.023568 0.259826
O O8 0.157445 0.177857 0.120182
O O9 0.159100 0.000000 0.000000
O O10 0.250000 0.736753 0.750000
O O11 0.250000 0.750000 0.000000
#
# Coordination Sequence:
#
# PCOD8265014 Si02
#       5
#     8  16   8  16  16
#     4  12  26  45  78 108 147 188 228 303 374 433
#     4  12  27  46  74 108 144 191 241 296 366 428
#     4  12  26  46  76 110 147 183 238 296 374 435
#     4  12  25  47  76 102 146 190 238 298 367 430
#     4  12  28  47  71 104 144 190 249 299 348 422
#
# _framework density 21.649946
#
# number of rings (size 3 to 8) (size 9 to 14) (size 15 to 20)
#    0.000    0.000    5.000    4.500    3.500    6.000 
#    0.000    0.000    0.000    0.000    0.000    0.000 
#    0.000    0.000    0.000    0.000    0.000    0.000 
#
# Total GULP energy -396985.463764 kJ/mol
# GULP energy per Si atom -12405.795743 kJ/mol
# Density = 2.160067 g / cm^3
# Si number density = 21.649946 Si / 1000 Ang^3
#
#
#
# Elastic Constant Matrix: (Units=GPa)
#
#
# Indices 1 2 3 4 5 6 
#
# 1 103.9909 33.3058 17.3157 0.0000 0.0000 0.0000
# 2 33.3058 121.2970 55.5714 0.0000 0.0000 0.0000
# 3 17.3157 55.5714 150.2766 0.0000 0.0000 0.0000
# 4 0.0000 0.0000 0.0000 44.5052 0.0000 0.0000
# 5 0.0000 0.0000 0.0000 0.0000 32.2342 0.0000
# 6 0.0000 0.0000 0.0000 0.0000 0.0000 50.6702
#
#
#
# Elastic Compliance Matrix: (Units=1/GPa)
#
#
# Indices 1 2 3 4 5 6 
#
# 1 0.010547 -0.002816 -0.000174 0.000000 0.000000 0.000000
# 2 -0.002816 0.010678 -0.003624 0.000000 0.000000 0.000000
# 3 -0.000174 -0.003624 0.008015 0.000000 0.000000 0.000000
# 4 0.000000 0.000000 0.000000 0.022469 0.000000 0.000000
# 5 0.000000 0.000000 0.000000 0.000000 0.031023 0.000000
# 6 0.000000 0.000000 0.000000 0.000000 0.000000 0.019735
#
#
# Mechanical properties :
#
#
# Convention : Reuss Voigt Hill
#
# Bulk Modulus (GPa) = 62.45693 65.32781 63.89237
# Shear Modulus (GPa) = 41.31099 43.44003 42.37551
#
# Velocity S-wave (km/s) = 4.37296 4.48423 4.42894
# Velocity P-wave (km/s) = 7.37619 7.55322 7.46523
#
# Compressibility (1/GPa) = 0.01601103
#
# Stress axis : x y z
#
# Youngs Moduli (GPa) = 94.81189 93.65108 124.77226
#
# Poissons Ratio (x) = 0.26376 0.02169
# Poissons Ratio (y) = 0.26703 0.45219
# Poissons Ratio (z) = 0.01648 0.33940
#
# Static dielectric constant tensor:
#      x y z
#    x 3.976530 0.000000 0.000000 
#    y 0.000000 4.181300 0.000000 
#    z 0.000000 0.000000 4.272560 
# 
# 
# High freq. dielectric constant tensor:
#      x y z
#    x 1.857010 0.000000 0.000000 
#    y 0.000000 1.870750 0.000000 
#    z 0.000000 0.000000 1.871350 
# 
# From -- ./inp_files/9003.got.cif
#   From: 2010.03.12/outbox.cif.g09.slc.cpg/sg64_5_cif.got.tgz:9003.got - 2010.04.10 20:19:32.
