data_PCOD8265574
_publ_section_title
;
Structure prediction by ZEFSAII (Michael W. Deem and Ramdas Pophale) SiO2 
 PCOD8265574
Probable space group: C M M M
;
_chemical_formula_sum "Si O2"
_cell_formula_units_Z 96
_cell_length_a 25.844140
_cell_length_b 9.523875
_cell_length_c 23.513642
_cell_angle_alpha 90.000000
_cell_angle_beta 90.000000
_cell_angle_gamma 90.000000
_cell_volume 5787.562225
_symmetry_space_group_name_H-M "C M M M"
_symmetry_group_IT_number 65
_symmetry_cell_setting 'orthorhombic'
loop_
_space_group_symop_operation_xyz
x,y,z
-x,-y,z
x,-y,-z
-x,y,-z
-x,-y,-z
x,y,-z
-x,y,z
x,-y,z
1/2+x,1/2+y,z
1/2-x,1/2-y,z
1/2+x,1/2-y,-z
1/2-x,1/2+y,-z
1/2-x,1/2-y,-z
1/2+x,1/2+y,-z
1/2-x,1/2+y,z
1/2+x,1/2-y,z
loop_
_atom_site_type_symbol
_atom_site_label
_atom_site_fract_x
_atom_site_fract_y
_atom_site_fract_z
Si Si1 0.300784 0.663838 0.565704
Si Si2 0.441445 0.163553 0.259908
Si Si3 0.352882 0.161646 0.174964
Si Si4 0.118225 0.845846 0.343649
Si Si5 0.800338 0.338365 0.063435
Si Si6 0.792376 0.153839 0.745134
O O1 0.313642 0.691206 0.500000
O O2 0.289690 0.500000 0.578624
O O3 0.250000 0.750000 0.584407
O O4 0.351728 0.713903 0.600715
O O5 0.500000 0.207070 0.245298
O O6 0.407754 0.204840 0.203867
O O7 0.424758 0.240827 0.318612
O O8 0.436437 0.000000 0.273549
O O9 0.348956 0.186408 0.106750
O O10 0.307587 0.259260 0.198992
O O11 0.341479 0.000000 0.190417
O O12 0.159657 0.866087 0.294941
O O13 0.093644 0.000000 0.357023
O O14 0.783062 0.500000 0.065621
O O15 0.750000 0.250000 0.081132
O O16 0.819453 0.296491 0.000000
O O17 0.750000 0.250000 0.712886
O O18 0.770508 0.000000 0.762008
#
# Coordination Sequence:
#
# PCOD8265574 Si02
#       6
#    16  16  16  16  16  16
#     4   9  17  29  45  66  93 123 152 179 208 248
#     4   9  18  32  49  67  85 108 141 182 227 269
#     4   9  17  29  44  61  83 111 141 175 215 257
#     4   9  18  30  44  64  88 114 144 178 215 256
#     4   9  17  28  42  61  86 116 146 173 203 244
#     4  10  18  26  38  59  87 114 140 171 208 252
#
# _framework density 16.587294
#
# number of rings (size 3 to 8) (size 9 to 14) (size 15 to 20)
#    0.000    2.833    0.000    1.500    0.000    3.667 
#    0.000    0.000    0.000    1.000    0.000    7.000 
#    0.000    0.000    0.000   12.500    0.000   13.000 
#
# Total GULP energy -594673.359365 kJ/mol
# GULP energy per Si atom -12389.028320 kJ/mol
# Density = 1.654954 g / cm^3
# Si number density = 16.587294 Si / 1000 Ang^3
#
#
#
# Elastic Constant Matrix: (Units=GPa)
#
#
# Indices 1 2 3 4 5 6 
#
# 1 82.5505 38.2397 44.4150 0.0000 0.0000 0.0000
# 2 38.2397 71.2579 29.0019 0.0000 0.0000 0.0000
# 3 44.4150 29.0019 98.6037 0.0000 0.0000 0.0000
# 4 0.0000 0.0000 0.0000 24.1731 0.0000 0.0000
# 5 0.0000 0.0000 0.0000 0.0000 22.0795 0.0000
# 6 0.0000 0.0000 0.0000 0.0000 0.0000 21.5327
#
#
#
# Elastic Compliance Matrix: (Units=1/GPa)
#
#
# Indices 1 2 3 4 5 6 
#
# 1 0.019070 -0.007654 -0.006339 0.000000 0.000000 0.000000
# 2 -0.007654 0.019014 -0.002145 0.000000 0.000000 0.000000
# 3 -0.006339 -0.002145 0.013628 0.000000 0.000000 0.000000
# 4 0.000000 0.000000 0.000000 0.041368 0.000000 0.000000
# 5 0.000000 0.000000 0.000000 0.000000 0.045291 0.000000
# 6 0.000000 0.000000 0.000000 0.000000 0.000000 0.046441
#
#
# Mechanical properties :
#
#
# Convention : Reuss Voigt Hill
#
# Bulk Modulus (GPa) = 51.44916 52.85837 52.15376
# Shear Modulus (GPa) = 22.36495 22.94077 22.65286
#
# Velocity S-wave (km/s) = 3.67593 3.72295 3.69951
# Velocity P-wave (km/s) = 7.00722 7.10045 7.05399
#
# Compressibility (1/GPa) = 0.01943666
#
# Stress axis : x y z
#
# Youngs Moduli (GPa) = 52.43962 52.59347 73.38045
#
# Poissons Ratio (x) = 0.40253 0.46512
# Poissons Ratio (y) = 0.40136 0.15740
# Poissons Ratio (z) = 0.33239 0.11281
#
# Static dielectric constant tensor:
#      x y z
#    x 2.977720 0.000000 0.000000 
#    y 0.000000 3.597820 0.000000 
#    z 0.000000 0.000000 3.253910 
# 
# 
# High freq. dielectric constant tensor:
#      x y z
#    x 1.604230 0.000000 0.000000 
#    y 0.000000 1.644320 0.000000 
#    z 0.000000 0.000000 1.634340 
# 
# From -- ./inp_files/68003.got.cif
#   From: 2010.03.12/outbox.cif.g09.slc.cpg/sg65_35_cif.got.tgz:68003.got - 2010.04.10 20:52:16.
