data_PCOD8265711
_publ_section_title
;
Structure prediction by ZEFSAII (Michael W. Deem and Ramdas Pophale) SiO2 
 PCOD8265711
Probable space group: C M M M
;
_chemical_formula_sum "Si O2"
_cell_formula_units_Z 80
_cell_length_a 8.836218
_cell_length_b 25.483116
_cell_length_c 23.967433
_cell_angle_alpha 90.000000
_cell_angle_beta 90.000000
_cell_angle_gamma 90.000000
_cell_volume 5396.851585
_symmetry_space_group_name_H-M "C M M M"
_symmetry_group_IT_number 65
_symmetry_cell_setting 'orthorhombic'
loop_
_space_group_symop_operation_xyz
x,y,z
-x,-y,z
x,-y,-z
-x,y,-z
-x,-y,-z
x,y,-z
-x,y,z
x,-y,z
1/2+x,1/2+y,z
1/2-x,1/2-y,z
1/2+x,1/2-y,-z
1/2-x,1/2+y,-z
1/2-x,1/2-y,-z
1/2+x,1/2+y,-z
1/2-x,1/2+y,z
1/2+x,1/2-y,z
loop_
_atom_site_type_symbol
_atom_site_label
_atom_site_fract_x
_atom_site_fract_y
_atom_site_fract_z
Si Si1 0.820693 0.100509 0.129423
Si Si2 0.679973 0.500000 0.937572
Si Si3 0.178907 0.500000 0.563833
Si Si4 0.335439 0.441524 0.347060
Si Si5 0.173664 0.437557 0.761064
Si Si6 0.321965 0.805360 0.063709
O O1 0.759090 0.051405 0.093669
O O2 0.771984 0.092339 0.192992
O O3 0.746065 0.152420 0.105431
O O4 0.000000 0.105716 0.125855
O O5 0.500000 0.500000 0.938038
O O6 0.746193 0.500000 0.000000
O O7 0.232093 0.500000 0.500000
O O8 0.244866 0.552802 0.593887
O O9 0.000000 0.500000 0.570012
O O10 0.500000 0.413196 0.355265
O O11 0.367250 0.500000 0.324692
O O12 0.233821 0.415307 0.298703
O O13 0.190658 0.500000 0.767544
O O14 0.000000 0.420583 0.766675
O O15 0.500000 0.801709 0.072415
O O16 0.250000 0.750000 0.079878
O O17 0.280379 0.820522 0.000000
#
# Coordination Sequence:
#
# PCOD8265711 Si02
#       6
#    16   8   8  16  16  16
#     4  11  20  31  48  67  89 113 142 176 214 261
#     4   9  18  29  41  60  85 110 134 163 204 253
#     4   9  15  22  33  50  73 104 144 185 220 253
#     4   8  15  24  36  51  72 101 137 177 213 249
#     4  10  18  28  42  59  84 112 141 175 213 256
#     4  10  21  37  54  70  87 109 140 178 221 268
#
# _framework density 14.823456999999999
#
# number of rings (size 3 to 8) (size 9 to 14) (size 15 to 20)
#    0.600    1.800    1.000    3.000    0.000    3.600 
#    0.000    0.000    0.000    2.400    0.000    0.000 
#    0.000    0.000    0.000    0.000    0.000    1.000 
#
# Total GULP energy -495684.954641 kJ/mol
# GULP energy per Si atom -12392.123866 kJ/mol
# Density = 1.478972 g / cm^3
# Si number density = 14.823457 Si / 1000 Ang^3
#
#
#
# Elastic Constant Matrix: (Units=GPa)
#
#
# Indices 1 2 3 4 5 6 
#
# 1 75.4856 27.0395 36.0973 0.0000 0.0000 0.0000
# 2 27.0395 55.2420 35.9673 0.0000 0.0000 0.0000
# 3 36.0973 35.9673 120.8181 0.0000 0.0000 0.0000
# 4 0.0000 0.0000 0.0000 30.8648 0.0000 0.0000
# 5 0.0000 0.0000 0.0000 0.0000 25.9564 0.0000
# 6 0.0000 0.0000 0.0000 0.0000 0.0000 17.3665
#
#
#
# Elastic Compliance Matrix: (Units=1/GPa)
#
#
# Indices 1 2 3 4 5 6 
#
# 1 0.017024 -0.006228 -0.003232 0.000000 0.000000 0.000000
# 2 -0.006228 0.024733 -0.005502 0.000000 0.000000 0.000000
# 3 -0.003232 -0.005502 0.010881 0.000000 0.000000 0.000000
# 4 0.000000 0.000000 0.000000 0.032399 0.000000 0.000000
# 5 0.000000 0.000000 0.000000 0.000000 0.038526 0.000000
# 6 0.000000 0.000000 0.000000 0.000000 0.000000 0.057582
#
#
# Mechanical properties :
#
#
# Convention : Reuss Voigt Hill
#
# Bulk Modulus (GPa) = 44.02874 49.97266 47.00070
# Shear Modulus (GPa) = 22.86843 25.00031 23.93437
#
# Velocity S-wave (km/s) = 3.93201 4.11120 4.02260
# Velocity P-wave (km/s) = 7.09794 7.50473 7.30417
#
# Compressibility (1/GPa) = 0.02271244
#
# Stress axis : x y z
#
# Youngs Moduli (GPa) = 58.73959 40.43153 91.90698
#
# Poissons Ratio (x) = 0.25183 0.29706
# Poissons Ratio (y) = 0.36586 0.50568
# Poissons Ratio (z) = 0.18986 0.22246
#
# Static dielectric constant tensor:
#      x y z
#    x 2.973420 0.000000 0.000000 
#    y 0.000000 2.414060 0.000000 
#    z 0.000000 0.000000 2.863810 
# 
# 
# High freq. dielectric constant tensor:
#      x y z
#    x 1.583590 0.000000 0.000000 
#    y 0.000000 1.507260 0.000000 
#    z 0.000000 0.000000 1.564220 
# 
# From -- ./inp_files/67776.got.cif
#   From: 2010.03.12/outbox.cif.g09.slc.cpg/sg65_34_cif.got.tgz:67776.got - 2010.04.10 20:52:16.
