data_PCOD8265317
_publ_section_title
;
Structure prediction by ZEFSAII (Michael W. Deem and Ramdas Pophale) SiO2 
 PCOD8265317
Probable space group: C M M M
;
_chemical_formula_sum "Si O2"
_cell_formula_units_Z 68
_cell_length_a 16.598065
_cell_length_b 21.951125
_cell_length_c 13.876016
_cell_angle_alpha 90.000000
_cell_angle_beta 90.000000
_cell_angle_gamma 90.000000
_cell_volume 5055.673695
_symmetry_space_group_name_H-M "C M M M"
_symmetry_group_IT_number 65
_symmetry_cell_setting 'orthorhombic'
loop_
_space_group_symop_operation_xyz
x,y,z
-x,-y,z
x,-y,-z
-x,y,-z
-x,-y,-z
x,y,-z
-x,y,z
x,-y,z
1/2+x,1/2+y,z
1/2-x,1/2-y,z
1/2+x,1/2-y,-z
1/2-x,1/2+y,-z
1/2-x,1/2-y,-z
1/2+x,1/2+y,-z
1/2-x,1/2+y,z
1/2+x,1/2-y,z
loop_
_atom_site_type_symbol
_atom_site_label
_atom_site_fract_x
_atom_site_fract_y
_atom_site_fract_z
Si Si1 0.590578 0.500000 0.673307
Si Si2 0.681201 0.703928 0.658923
Si Si3 0.268382 0.130556 0.500000
Si Si4 0.092615 0.880631 0.200682
Si Si5 0.406625 0.777526 0.500000
Si Si6 0.096037 0.068788 0.000000
Si Si7 0.286347 0.500000 0.500000
O O1 0.500000 0.500000 0.629524
O O2 0.603795 0.558895 0.737750
O O3 0.655879 0.500000 0.590886
O O4 0.750000 0.750000 0.694431
O O5 0.720222 0.651234 0.594417
O O6 0.641636 0.675134 0.753501
O O7 0.614651 0.738924 0.595194
O O8 0.357511 0.159148 0.500000
O O9 0.273264 0.057676 0.500000
O O10 0.126346 0.894416 0.093772
O O11 0.000000 0.860474 0.196494
O O12 0.500000 0.794045 0.500000
O O13 0.000000 0.064030 0.000000
O O14 0.131506 0.000000 0.000000
#
# Coordination Sequence:
#
# PCOD8265317 Si02
#       7
#     8  16   8  16   8   8   4
#     4  10  19  25  38  60  86 110 133 158 191 238
#     4   9  17  29  41  58  80 106 135 163 195 234
#     4   9  18  27  41  59  81 106 131 160 200 248
#     4  10  17  27  41  60  80 107 136 162 194 232
#     4   9  17  30  43  57  77 106 140 167 192 230
#     4   9  16  26  39  56  82 108 132 158 191 238
#     4  12  17  28  39  60  88 106 128 162 213 228
#
# _framework density 13.450234999999999
#
# number of rings (size 3 to 8) (size 9 to 14) (size 15 to 20)
#    0.000    2.471    3.529    2.294    0.000    0.000 
#    0.000    0.882    0.000    0.000    0.000    0.000 
#    0.000    0.000    0.000    0.000    0.000   29.176 
#
# Total GULP energy -421516.174629 kJ/mol
# GULP energy per Si atom -12397.534548 kJ/mol
# Density = 1.341962 g / cm^3
# Si number density = 13.450235 Si / 1000 Ang^3
#
#
#
# Elastic Constant Matrix: (Units=GPa)
#
#
# Indices 1 2 3 4 5 6 
#
# 1 74.0764 44.4099 40.2977 0.0000 0.0000 0.0000
# 2 44.4099 99.8727 48.5630 0.0000 0.0000 0.0000
# 3 40.2977 48.5630 101.2252 0.0000 0.0000 0.0000
# 4 0.0000 0.0000 0.0000 37.6885 0.0000 0.0000
# 5 0.0000 0.0000 0.0000 0.0000 16.5808 0.0000
# 6 0.0000 0.0000 0.0000 0.0000 0.0000 22.1593
#
#
#
# Elastic Compliance Matrix: (Units=1/GPa)
#
#
# Indices 1 2 3 4 5 6 
#
# 1 0.020072 -0.006573 -0.004837 0.000000 0.000000 0.000000
# 2 -0.006573 0.015212 -0.004681 0.000000 0.000000 0.000000
# 3 -0.004837 -0.004681 0.014050 0.000000 0.000000 0.000000
# 4 0.000000 0.000000 0.000000 0.026533 0.000000 0.000000
# 5 0.000000 0.000000 0.000000 0.000000 0.060311 0.000000
# 6 0.000000 0.000000 0.000000 0.000000 0.000000 0.045128
#
#
# Mechanical properties :
#
#
# Convention : Reuss Voigt Hill
#
# Bulk Modulus (GPa) = 58.30500 60.19060 59.24780
# Shear Modulus (GPa) = 22.80969 24.74597 23.77783
#
# Velocity S-wave (km/s) = 4.12255 4.29396 4.20913
# Velocity P-wave (km/s) = 8.13039 8.33258 8.23211
#
# Compressibility (1/GPa) = 0.01715119
#
# Stress axis : x y z
#
# Youngs Moduli (GPa) = 49.82159 65.73854 71.17266
#
# Poissons Ratio (x) = 0.43211 0.34426
# Poissons Ratio (y) = 0.32748 0.33317
# Poissons Ratio (z) = 0.24099 0.30773
#
# Static dielectric constant tensor:
#      x y z
#    x 2.445470 0.000000 0.000000 
#    y 0.000000 2.653290 0.000000 
#    z 0.000000 0.000000 2.753560 
# 
# 
# High freq. dielectric constant tensor:
#      x y z
#    x 1.484120 0.000000 0.000000 
#    y 0.000000 1.509220 0.000000 
#    z 0.000000 0.000000 1.507920 
# 
# From -- ./inp_files/30366.got.cif
#   From: 2010.03.12/outbox.cif.g09.slc.cpg/sg65_16_cif.got.tgz:30366.got - 2010.04.10 20:52:16.
