data_PCOD8265164
_publ_section_title
;
Structure prediction by ZEFSAII (Michael W. Deem and Ramdas Pophale) SiO2 
 PCOD8265164
Probable space group: C M M M
;
_chemical_formula_sum "Si O2"
_cell_formula_units_Z 96
_cell_length_a 12.220825
_cell_length_b 18.620462
_cell_length_c 22.451582
_cell_angle_alpha 90.000000
_cell_angle_beta 90.000000
_cell_angle_gamma 90.000000
_cell_volume 5109.023795
_symmetry_space_group_name_H-M "C M M M"
_symmetry_group_IT_number 65
_symmetry_cell_setting 'orthorhombic'
loop_
_space_group_symop_operation_xyz
x,y,z
-x,-y,z
x,-y,-z
-x,y,-z
-x,-y,-z
x,y,-z
-x,y,z
x,-y,z
1/2+x,1/2+y,z
1/2-x,1/2-y,z
1/2+x,1/2-y,-z
1/2-x,1/2+y,-z
1/2-x,1/2-y,-z
1/2+x,1/2+y,-z
1/2-x,1/2+y,z
1/2+x,1/2-y,z
loop_
_atom_site_type_symbol
_atom_site_label
_atom_site_fract_x
_atom_site_fract_y
_atom_site_fract_z
Si Si1 0.877041 0.914668 0.500000
Si Si2 0.500000 0.079657 0.881367
Si Si3 0.000000 0.384805 0.748636
Si Si4 0.263626 0.166849 0.730110
Si Si5 0.736125 0.086282 0.388753
Si Si6 0.500000 0.922383 0.382166
Si Si7 0.128527 0.916404 0.172433
Si Si8 0.221853 0.584934 0.933821
O O1 0.815178 0.886965 0.558778
O O2 0.000000 0.883587 0.500000
O O3 0.878586 0.000000 0.500000
O O4 0.500000 0.071433 0.809897
O O5 0.609983 0.118555 0.905602
O O6 0.500000 0.000000 0.908059
O O7 0.890566 0.337860 0.747421
O O8 0.000000 0.433994 0.689699
O O9 0.250000 0.250000 0.717310
O O10 0.225560 0.122044 0.672310
O O11 0.186709 0.136457 0.781656
O O12 0.612474 0.115700 0.403016
O O13 0.736708 0.000000 0.381250
O O14 0.500000 0.000000 0.412716
O O15 0.174571 0.895535 0.107304
O O16 0.000000 0.901430 0.172897
O O17 0.154674 0.000000 0.187841
O O18 0.209911 0.500000 0.936828
O O19 0.240759 0.616942 0.000000
#
# Coordination Sequence:
#
# PCOD8265164 Si02
#       8
#     8   8   8  16  16   8  16  16
#     4   9  18  33  54  81 111 146 186 221 262 318
#     4  10  16  26  50  80 108 136 170 221 282 335
#     4  10  19  33  51  76 104 143 179 222 280 326
#     4  11  23  37  56  81 112 146 186 232 281 329
#     4   9  18  34  56  82 111 141 178 223 271 323
#     4   8  15  27  49  80 107 131 167 214 265 319
#     4  10  21  36  55  81 111 148 189 228 277 337
#     4   9  17  29  48  78 111 139 173 223 280 333
#
# _framework density 18.790282999999999
#
# number of rings (size 3 to 8) (size 9 to 14) (size 15 to 20)
#    0.000    2.417    1.667    1.000    1.167    3.667 
#    0.000    5.417    0.000    0.500    0.000    0.000 
#    0.000    0.000    0.000    0.000    0.000    0.000 
#
# Total GULP energy -594766.083211 kJ/mol
# GULP energy per Si atom -12390.960067 kJ/mol
# Density = 1.874752 g / cm^3
# Si number density = 18.790283 Si / 1000 Ang^3
#
#
#
# Elastic Constant Matrix: (Units=GPa)
#
#
# Indices 1 2 3 4 5 6 
#
# 1 155.3424 29.1121 77.2153 0.0000 0.0000 0.0000
# 2 29.1121 50.8261 25.9102 0.0000 0.0000 0.0000
# 3 77.2153 25.9102 141.4784 0.0000 0.0000 0.0000
# 4 0.0000 0.0000 0.0000 2.3615 0.0000 0.0000
# 5 0.0000 0.0000 0.0000 0.0000 27.7043 0.0000
# 6 0.0000 0.0000 0.0000 0.0000 0.0000 11.9079
#
#
#
# Elastic Compliance Matrix: (Units=1/GPa)
#
#
# Indices 1 2 3 4 5 6 
#
# 1 0.009231 -0.002999 -0.004489 0.000000 0.000000 0.000000
# 2 -0.002999 0.022675 -0.002516 0.000000 0.000000 0.000000
# 3 -0.004489 -0.002516 0.009979 0.000000 0.000000 0.000000
# 4 0.000000 0.000000 0.000000 0.423453 0.000000 0.000000
# 5 0.000000 0.000000 0.000000 0.000000 0.036095 0.000000
# 6 0.000000 0.000000 0.000000 0.000000 0.000000 0.083978
#
#
# Mechanical properties :
#
#
# Convention : Reuss Voigt Hill
#
# Bulk Modulus (GPa) = 45.70884 68.01356 56.86120
# Shear Modulus (GPa) = 8.16046 22.75538 15.45792
#
# Velocity S-wave (km/s) = 2.08623 3.48374 2.87131
# Velocity P-wave (km/s) = 5.49379 7.24270 6.42800
#
# Compressibility (1/GPa) = 0.02187761
#
# Stress axis : x y z
#
# Youngs Moduli (GPa) = 108.33645 44.10101 100.21306
#
# Poissons Ratio (x) = 0.13225 0.44981
# Poissons Ratio (y) = 0.32488 0.25214
# Poissons Ratio (z) = 0.48628 0.11096
#
# Static dielectric constant tensor:
#      x y z
#    x 3.735520 0.000000 0.000000 
#    y 0.000000 2.869160 0.000000 
#    z 0.000000 0.000000 3.560130 
# 
# 
# High freq. dielectric constant tensor:
#      x y z
#    x 1.746430 0.000000 0.000000 
#    y 0.000000 1.666690 0.000000 
#    z 0.000000 0.000000 1.734390 
# 
# From -- ./inp_files/61691.got.cif
#   From: 2010.03.12/outbox.cif.g09.slc.cpg/sg65_31_cif.got.tgz:61691.got - 2010.04.10 20:52:16.
