data_PCOD8265593
_publ_section_title
;
Structure prediction by ZEFSAII (Michael W. Deem and Ramdas Pophale) SiO2 
 PCOD8265593
Probable space group: C M M M
;
_chemical_formula_sum "Si O2"
_cell_formula_units_Z 104
_cell_length_a 19.224016
_cell_length_b 25.172309
_cell_length_c 14.637805
_cell_angle_alpha 90.000000
_cell_angle_beta 90.000000
_cell_angle_gamma 90.000000
_cell_volume 7083.422242
_symmetry_space_group_name_H-M "C M M M"
_symmetry_group_IT_number 65
_symmetry_cell_setting 'orthorhombic'
loop_
_space_group_symop_operation_xyz
x,y,z
-x,-y,z
x,-y,-z
-x,y,-z
-x,-y,-z
x,y,-z
-x,y,z
x,-y,z
1/2+x,1/2+y,z
1/2-x,1/2-y,z
1/2+x,1/2-y,-z
1/2-x,1/2+y,-z
1/2-x,1/2-y,-z
1/2+x,1/2+y,-z
1/2-x,1/2+y,z
1/2+x,1/2-y,z
loop_
_atom_site_type_symbol
_atom_site_label
_atom_site_fract_x
_atom_site_fract_y
_atom_site_fract_z
Si Si1 0.864481 0.437623 0.287673
Si Si2 0.420740 0.558262 0.391586
Si Si3 0.000000 0.437658 0.601167
Si Si4 0.304038 0.850263 0.393580
Si Si5 0.578625 0.768777 0.608636
Si Si6 0.851681 0.836571 0.393148
Si Si7 0.077689 0.437082 0.099771
O O1 0.848585 0.500000 0.295899
O O2 0.933029 0.419970 0.342832
O O3 0.802999 0.404846 0.335213
O O4 0.872572 0.418583 0.182259
O O5 0.414794 0.557477 0.500000
O O6 0.500000 0.568493 0.361505
O O7 0.395958 0.500000 0.354539
O O8 0.374334 0.606435 0.350061
O O9 0.000000 0.500000 0.588567
O O10 0.000000 0.410408 0.500000
O O11 0.313307 0.864381 0.500000
O O12 0.366083 0.812585 0.357036
O O13 0.229353 0.823475 0.375325
O O14 0.581460 0.766877 0.500000
O O15 0.500000 0.781938 0.642603
O O16 0.602592 0.711543 0.648573
O O17 0.867156 0.839593 0.500000
O O18 0.071555 0.500000 0.105271
O O19 0.000000 0.413478 0.112642
O O20 0.107572 0.419605 0.000000
#
# Coordination Sequence:
#
# PCOD8265593 Si02
#       7
#    16  16   8  16  16  16  16
#     4  10  18  27  37  52  75 104 133 160 193 227
#     4   8  13  21  35  54  70  85 114 158 201 237
#     4   9  16  24  33  45  67 103 138 160 178 210
#     4  10  20  28  36  52  76 105 135 163 187 224
#     4   9  17  28  41  53  65  89 129 173 207 229
#     4   9  16  27  39  50  69  97 126 160 200 233
#     4   8  13  23  39  55  69  89 123 166 206 236
#
# _framework density 14.682169
#
# number of rings (size 3 to 8) (size 9 to 14) (size 15 to 20)
#    0.000    3.000    0.769    2.308    1.077    5.231 
#    0.000    1.538    0.000    0.000    0.000    0.000 
#    0.000    2.462    0.000    0.308    0.000    2.462 
#
# Total GULP energy -644256.303752 kJ/mol
# GULP energy per Si atom -12389.544303 kJ/mol
# Density = 1.464875 g / cm^3
# Si number density = 14.682169 Si / 1000 Ang^3
#
#
#
# Elastic Constant Matrix: (Units=GPa)
#
#
# Indices 1 2 3 4 5 6 
#
# 1 68.6503 37.9277 12.0342 0.0000 0.0000 0.0000
# 2 37.9277 78.6418 14.3211 0.0000 0.0000 0.0000
# 3 12.0342 14.3211 51.5233 0.0000 0.0000 0.0000
# 4 0.0000 0.0000 0.0000 5.1068 0.0000 0.0000
# 5 0.0000 0.0000 0.0000 0.0000 5.7165 0.0000
# 6 0.0000 0.0000 0.0000 0.0000 0.0000 23.3134
#
#
#
# Elastic Compliance Matrix: (Units=1/GPa)
#
#
# Indices 1 2 3 4 5 6 
#
# 1 0.020072 -0.009297 -0.002104 0.000000 0.000000 0.000000
# 2 -0.009297 0.017700 -0.002748 0.000000 0.000000 0.000000
# 3 -0.002104 -0.002748 0.020664 0.000000 0.000000 0.000000
# 4 0.000000 0.000000 0.000000 0.195816 0.000000 0.000000
# 5 0.000000 0.000000 0.000000 0.000000 0.174932 0.000000
# 6 0.000000 0.000000 0.000000 0.000000 0.000000 0.042894
#
#
# Mechanical properties :
#
#
# Convention : Reuss Voigt Hill
#
# Bulk Modulus (GPa) = 33.18161 36.37572 34.77867
# Shear Modulus (GPa) = 9.79581 15.79618 12.79600
#
# Velocity S-wave (km/s) = 2.58581 3.28361 2.95538
# Velocity P-wave (km/s) = 5.61820 6.26142 5.94851
#
# Compressibility (1/GPa) = 0.03013718
#
# Stress axis : x y z
#
# Youngs Moduli (GPa) = 49.82095 56.49627 48.39332
#
# Poissons Ratio (x) = 0.52526 0.10182
# Poissons Ratio (y) = 0.46320 0.13300
# Poissons Ratio (z) = 0.10482 0.15527
#
# Static dielectric constant tensor:
#      x y z
#    x 2.820040 0.000000 0.000000 
#    y 0.000000 2.964190 0.000000 
#    z 0.000000 0.000000 2.555800 
# 
# 
# High freq. dielectric constant tensor:
#      x y z
#    x 1.552870 0.000000 0.000000 
#    y 0.000000 1.558200 0.000000 
#    z 0.000000 0.000000 1.490330 
# 
# From -- ./inp_files/43111.got.cif
#   From: 2010.03.12/outbox.cif.g09.slc.cpg/sg65_22_cif.got.tgz:43111.got - 2010.04.10 20:52:16.
