data_PCOD8265178
_publ_section_title
;
Structure prediction by ZEFSAII (Michael W. Deem and Ramdas Pophale) SiO2 
 PCOD8265178
Probable space group: C M M M
;
_chemical_formula_sum "Si O2"
_cell_formula_units_Z 88
_cell_length_a 20.190828
_cell_length_b 19.732095
_cell_length_c 11.933288
_cell_angle_alpha 90.000000
_cell_angle_beta 90.000000
_cell_angle_gamma 90.000000
_cell_volume 4754.309484
_symmetry_space_group_name_H-M "C M M M"
_symmetry_group_IT_number 65
_symmetry_cell_setting 'orthorhombic'
loop_
_space_group_symop_operation_xyz
x,y,z
-x,-y,z
x,-y,-z
-x,y,-z
-x,-y,-z
x,y,-z
-x,y,z
x,-y,z
1/2+x,1/2+y,z
1/2-x,1/2-y,z
1/2+x,1/2-y,-z
1/2-x,1/2+y,-z
1/2-x,1/2-y,-z
1/2+x,1/2+y,-z
1/2-x,1/2+y,z
1/2+x,1/2-y,z
loop_
_atom_site_type_symbol
_atom_site_label
_atom_site_fract_x
_atom_site_fract_y
_atom_site_fract_z
Si Si1 0.313767 0.923294 0.233845
Si Si2 0.076686 0.183395 0.629379
Si Si3 0.162584 0.922228 0.242928
Si Si4 0.098208 0.726433 0.000000
Si Si5 0.206289 0.627823 0.000000
Si Si6 0.426536 0.818356 0.756266
Si Si7 0.355219 0.372431 0.000000
O O1 0.239042 0.899609 0.265309
O O2 0.372149 0.874611 0.279719
O O3 0.327836 0.000000 0.274826
O O4 0.315911 0.920426 0.100404
O O5 0.093015 0.195764 0.500000
O O6 0.118188 0.120365 0.673306
O O7 0.098111 0.250059 0.696877
O O8 0.000000 0.166577 0.649029
O O9 0.154548 0.000000 0.276368
O O10 0.136105 0.914988 0.114555
O O11 0.173359 0.701535 0.000000
O O12 0.064867 0.695725 0.888803
O O13 0.095159 0.808199 0.000000
O O14 0.280708 0.652969 0.000000
O O15 0.500000 0.840296 0.712739
#
# Coordination Sequence:
#
# PCOD8265178 Si02
#       7
#    16  16  16   8   8  16   8
#     4   9  18  32  52  79 111 144 177 215 260 311
#     4  10  22  40  59  77 101 138 179 219 264 314
#     4  10  20  35  55  81 110 140 176 216 261 315
#     4  10  16  28  49  77 107 139 175 218 263 305
#     4   8  16  25  45  75 108 144 179 208 248 311
#     4  10  20  34  53  79 110 142 179 220 262 311
#     4  10  16  29  50  77 110 141 167 210 264 313
#
# _framework density 18.509523000000002
#
# number of rings (size 3 to 8) (size 9 to 14) (size 15 to 20)
#    0.000    2.364    1.818    1.091    0.000    4.000 
#    0.000    3.182    0.000    6.000    0.000    2.545 
#    0.000    0.000    0.000    0.000    0.000    0.000 
#
# Total GULP energy -545224.163294 kJ/mol
# GULP energy per Si atom -12391.458257 kJ/mol
# Density = 1.846739 g / cm^3
# Si number density = 18.509523 Si / 1000 Ang^3
#
#
#
# Elastic Constant Matrix: (Units=GPa)
#
#
# Indices 1 2 3 4 5 6 
#
# 1 83.6785 55.6648 28.2358 0.0000 0.0000 0.0000
# 2 55.6648 105.0946 29.9274 0.0000 0.0000 0.0000
# 3 28.2358 29.9274 72.1984 0.0000 0.0000 0.0000
# 4 0.0000 0.0000 0.0000 6.3392 0.0000 0.0000
# 5 0.0000 0.0000 0.0000 0.0000 20.4226 0.0000
# 6 0.0000 0.0000 0.0000 0.0000 0.0000 30.6295
#
#
#
# Elastic Compliance Matrix: (Units=1/GPa)
#
#
# Indices 1 2 3 4 5 6 
#
# 1 0.019310 -0.009158 -0.003756 0.000000 0.000000 0.000000
# 2 -0.009158 0.015132 -0.002691 0.000000 0.000000 0.000000
# 3 -0.003756 -0.002691 0.016435 0.000000 0.000000 0.000000
# 4 0.000000 0.000000 0.000000 0.157749 0.000000 0.000000
# 5 0.000000 0.000000 0.000000 0.000000 0.048965 0.000000
# 6 0.000000 0.000000 0.000000 0.000000 0.000000 0.032648
#
#
# Mechanical properties :
#
#
# Convention : Reuss Voigt Hill
#
# Bulk Modulus (GPa) = 50.84505 54.29196 52.56851
# Shear Modulus (GPa) = 15.24363 21.28782 18.26573
#
# Velocity S-wave (km/s) = 2.87288 3.39499 3.14479
# Velocity P-wave (km/s) = 6.20757 6.69056 6.45358
#
# Compressibility (1/GPa) = 0.01966760
#
# Stress axis : x y z
#
# Youngs Moduli (GPa) = 51.78624 66.08341 60.84603
#
# Poissons Ratio (x) = 0.60522 0.22852
# Poissons Ratio (y) = 0.47428 0.16373
# Poissons Ratio (z) = 0.19449 0.17782
#
# Static dielectric constant tensor:
#      x y z
#    x 3.413710 0.000000 0.000000 
#    y 0.000000 3.279690 0.000000 
#    z 0.000000 0.000000 3.242240 
# 
# 
# High freq. dielectric constant tensor:
#      x y z
#    x 1.718320 0.000000 0.000000 
#    y 0.000000 1.711920 0.000000 
#    z 0.000000 0.000000 1.695400 
# 
# From -- ./inp_files/28767.got.cif
#   From: 2010.03.12/outbox.cif.g09.slc.cpg/sg65_15_cif.got.tgz:28767.got - 2010.04.10 20:52:16.
