data_PCOD8265129
_publ_section_title
;
Structure prediction by ZEFSAII (Michael W. Deem and Ramdas Pophale) SiO2 
 PCOD8265129
Probable space group: C M M M
;
_chemical_formula_sum "Si O2"
_cell_formula_units_Z 72
_cell_length_a 23.576930
_cell_length_b 8.661366
_cell_length_c 20.848996
_cell_angle_alpha 90.000000
_cell_angle_beta 90.000000
_cell_angle_gamma 90.000000
_cell_volume 4257.540529
_symmetry_space_group_name_H-M "C M M M"
_symmetry_group_IT_number 65
_symmetry_cell_setting 'orthorhombic'
loop_
_space_group_symop_operation_xyz
x,y,z
-x,-y,z
x,-y,-z
-x,y,-z
-x,-y,-z
x,y,-z
-x,y,z
x,-y,z
1/2+x,1/2+y,z
1/2-x,1/2-y,z
1/2+x,1/2-y,-z
1/2-x,1/2+y,-z
1/2-x,1/2-y,-z
1/2+x,1/2+y,-z
1/2-x,1/2+y,z
1/2+x,1/2-y,z
loop_
_atom_site_type_symbol
_atom_site_label
_atom_site_fract_x
_atom_site_fract_y
_atom_site_fract_z
Si Si1 0.313338 0.683251 0.500000
Si Si2 0.379045 0.319276 0.115759
Si Si3 0.187000 0.683199 0.372004
Si Si4 0.688084 0.318305 0.242372
Si Si5 0.188536 0.319920 0.000000
Si Si6 0.000000 0.817604 0.072141
O O1 0.312669 0.500000 0.500000
O O2 0.250000 0.750000 0.500000
O O3 0.344187 0.746876 0.435390
O O4 0.373261 0.500000 0.101016
O O5 0.354920 0.277686 0.185411
O O6 0.444402 0.263456 0.111225
O O7 0.343854 0.229267 0.063339
O O8 0.186884 0.500000 0.376156
O O9 0.250000 0.750000 0.369897
O O10 0.159140 0.741763 0.305658
O O11 0.694884 0.500000 0.253224
O O12 0.750000 0.250000 0.226507
O O13 0.250000 0.250000 0.000000
O O14 0.195594 0.500000 0.000000
O O15 0.000000 0.000000 0.066082
O O16 0.000000 0.746597 0.000000
#
# Coordination Sequence:
#
# PCOD8265129 Si02
#       6
#     8  16  16  16   8   8
#     4  10  16  24  38  58  86 119 158 195 226 264
#     4  10  20  35  54  73  94 123 159 197 239 288
#     4  10  17  26  40  59  87 122 158 191 229 273
#     4  10  19  30  45  66  93 124 158 193 235 281
#     4  12  24  35  50  71  97 124 156 194 237 286
#     4   9  16  32  58  76  92 119 156 197 242 290
#
# _framework density 16.911172000000001
#
# number of rings (size 3 to 8) (size 9 to 14) (size 15 to 20)
#    0.000    1.889    1.111    8.000    0.000    3.556 
#    0.000    1.111    0.000    0.000    0.000    0.000 
#    0.000    0.889    0.000   10.444    0.000    3.111 
#
# Total GULP energy -446239.528152 kJ/mol
# GULP energy per Si atom -12395.542449 kJ/mol
# Density = 1.687268 g / cm^3
# Si number density = 16.911172 Si / 1000 Ang^3
#
#
#
# Elastic Constant Matrix: (Units=GPa)
#
#
# Indices 1 2 3 4 5 6 
#
# 1 95.1597 35.6873 63.4428 0.0000 0.0000 0.0000
# 2 35.6873 124.0640 74.1248 0.0000 0.0000 0.0000
# 3 63.4428 74.1248 171.3383 0.0000 0.0000 0.0000
# 4 0.0000 0.0000 0.0000 30.4592 0.0000 0.0000
# 5 0.0000 0.0000 0.0000 0.0000 2.2077 0.0000
# 6 0.0000 0.0000 0.0000 0.0000 0.0000 12.7323
#
#
#
# Elastic Compliance Matrix: (Units=1/GPa)
#
#
# Indices 1 2 3 4 5 6 
#
# 1 0.014098 -0.001263 -0.004674 0.000000 0.000000 0.000000
# 2 -0.001263 0.010983 -0.004284 0.000000 0.000000 0.000000
# 3 -0.004674 -0.004284 0.009420 0.000000 0.000000 0.000000
# 4 0.000000 0.000000 0.000000 0.032831 0.000000 0.000000
# 5 0.000000 0.000000 0.000000 0.000000 0.452963 0.000000
# 6 0.000000 0.000000 0.000000 0.000000 0.000000 0.078540
#
#
# Mechanical properties :
#
#
# Convention : Reuss Voigt Hill
#
# Bulk Modulus (GPa) = 71.12184 81.89685 76.50934
# Shear Modulus (GPa) = 8.01328 23.56698 15.79013
#
# Velocity S-wave (km/s) = 2.17916 3.73711 3.05898
# Velocity P-wave (km/s) = 6.96269 8.19476 7.60372
#
# Compressibility (1/GPa) = 0.01406038
#
# Stress axis : x y z
#
# Youngs Moduli (GPa) = 70.93010 91.04842 106.15252
#
# Poissons Ratio (x) = 0.11498 0.49615
# Poissons Ratio (y) = 0.08957 0.45475
# Poissons Ratio (z) = 0.33153 0.39005
#
# Static dielectric constant tensor:
#      x y z
#    x 2.906120 0.000000 0.000000 
#    y 0.000000 3.181730 0.000000 
#    z 0.000000 0.000000 4.185370 
# 
# 
# High freq. dielectric constant tensor:
#      x y z
#    x 1.593230 0.000000 0.000000 
#    y 0.000000 1.658230 0.000000 
#    z 0.000000 0.000000 1.675620 
# 
# From -- ./inp_files/70758.got.cif
#   From: 2010.03.12/outbox.cif.g09.slc.cpg/sg65_36_cif.got.tgz:70758.got - 2010.04.10 20:52:16.
