data_PCOD8265341
_publ_section_title
;
Structure prediction by ZEFSAII (Michael W. Deem and Ramdas Pophale) SiO2 
 PCOD8265341
Probable space group: C M M M
;
_chemical_formula_sum "Si O2"
_cell_formula_units_Z 96
_cell_length_a 24.452821
_cell_length_b 13.781445
_cell_length_c 15.728977
_cell_angle_alpha 90.000000
_cell_angle_beta 90.000000
_cell_angle_gamma 90.000000
_cell_volume 5300.589871
_symmetry_space_group_name_H-M "C M M M"
_symmetry_group_IT_number 65
_symmetry_cell_setting 'orthorhombic'
loop_
_space_group_symop_operation_xyz
x,y,z
-x,-y,z
x,-y,-z
-x,y,-z
-x,-y,-z
x,y,-z
-x,y,z
x,-y,z
1/2+x,1/2+y,z
1/2-x,1/2-y,z
1/2+x,1/2-y,-z
1/2-x,1/2+y,-z
1/2-x,1/2-y,-z
1/2+x,1/2+y,-z
1/2-x,1/2+y,z
1/2+x,1/2-y,z
loop_
_atom_site_type_symbol
_atom_site_label
_atom_site_fract_x
_atom_site_fract_y
_atom_site_fract_z
Si Si1 0.877921 0.114735 0.167375
Si Si2 0.146470 0.615457 0.904925
Si Si3 0.937854 0.609904 0.764588
Si Si4 0.435074 0.610306 0.500000
Si Si5 0.062868 0.202749 0.673348
Si Si6 0.767195 0.885105 0.095037
Si Si7 0.438119 0.384230 0.000000
O O1 0.902156 0.152125 0.254522
O O2 0.814674 0.149758 0.159352
O O3 0.882516 0.000000 0.167876
O O4 0.909612 0.156965 0.085215
O O5 0.146648 0.500000 0.902112
O O6 0.101578 0.653380 0.837965
O O7 0.207084 0.656242 0.879686
O O8 0.130786 0.650262 0.000000
O O9 0.921892 0.500000 0.737691
O O10 0.931953 0.680175 0.682634
O O11 0.000000 0.612916 0.799503
O O12 0.412323 0.500000 0.500000
O O13 0.500000 0.609360 0.500000
O O14 0.413593 0.668365 0.417421
O O15 0.000000 0.169436 0.683679
O O16 0.763703 0.000000 0.095588
O O17 0.782528 0.850074 0.000000
O O18 0.434496 0.500000 0.000000
O O19 0.500000 0.346906 0.000000
#
# Coordination Sequence:
#
# PCOD8265341 Si02
#       7
#    16  16  16   8  16  16   8
#     4  10  17  27  44  67  98 133 163 194 236 288
#     4   8  14  26  46  68  92 129 173 210 245 285
#     4   9  18  33  50  69  95 125 160 208 256 293
#     4   9  18  34  55  77 102 129 156 192 240 294
#     4  10  20  33  49  72  98 126 162 203 244 292
#     4   8  13  24  42  65  94 129 167 204 240 282
#     4   9  16  24  36  58  92 133 166 190 226 281
#
# _framework density 18.111191999999999
#
# number of rings (size 3 to 8) (size 9 to 14) (size 15 to 20)
#    0.000    3.000    0.833    2.000    0.000    2.000 
#    1.500    2.917    0.000    4.500    0.000    2.333 
#    0.000    5.333    0.000    0.000    0.000    0.000 
#
# Total GULP energy -594863.533945 kJ/mol
# GULP energy per Si atom -12392.990291 kJ/mol
# Density = 1.806997 g / cm^3
# Si number density = 18.111192 Si / 1000 Ang^3
#
#
#
# Elastic Constant Matrix: (Units=GPa)
#
#
# Indices 1 2 3 4 5 6 
#
# 1 89.3824 33.5200 61.7244 0.0000 0.0000 0.0000
# 2 33.5200 53.5326 54.3303 0.0000 0.0000 0.0000
# 3 61.7244 54.3303 142.7367 0.0000 0.0000 0.0000
# 4 0.0000 0.0000 0.0000 24.9741 0.0000 0.0000
# 5 0.0000 0.0000 0.0000 0.0000 14.1435 0.0000
# 6 0.0000 0.0000 0.0000 0.0000 0.0000 4.2224
#
#
#
# Elastic Compliance Matrix: (Units=1/GPa)
#
#
# Indices 1 2 3 4 5 6 
#
# 1 0.016770 -0.005118 -0.005304 0.000000 0.000000 0.000000
# 2 -0.005118 0.032001 -0.009967 0.000000 0.000000 0.000000
# 3 -0.005304 -0.009967 0.013093 0.000000 0.000000 0.000000
# 4 0.000000 0.000000 0.000000 0.040041 0.000000 0.000000
# 5 0.000000 0.000000 0.000000 0.000000 0.070704 0.000000
# 6 0.000000 0.000000 0.000000 0.000000 0.000000 0.236833
#
#
# Mechanical properties :
#
#
# Convention : Reuss Voigt Hill
#
# Bulk Modulus (GPa) = 47.42514 64.97790 56.20152
# Shear Modulus (GPa) = 10.93495 17.73980 14.33737
#
# Velocity S-wave (km/s) = 2.45983 3.13308 2.81665
# Velocity P-wave (km/s) = 5.85748 7.00310 6.45575
#
# Compressibility (1/GPa) = 0.02108587
#
# Stress axis : x y z
#
# Youngs Moduli (GPa) = 59.63105 31.24937 76.37410
#
# Poissons Ratio (x) = 0.15992 0.40508
# Poissons Ratio (y) = 0.30517 0.76126
# Poissons Ratio (z) = 0.31628 0.31148
#
# Static dielectric constant tensor:
#      x y z
#    x 3.619530 0.000000 0.000000 
#    y 0.000000 3.404130 0.000000 
#    z 0.000000 0.000000 3.183280 
# 
# 
# High freq. dielectric constant tensor:
#      x y z
#    x 1.693640 0.000000 0.000000 
#    y 0.000000 1.713570 0.000000 
#    z 0.000000 0.000000 1.657440 
# 
# From -- ./inp_files/46975.got.cif
#   From: 2010.03.12/outbox.cif.g09.slc.cpg/sg65_24_cif.got.tgz:46975.got - 2010.04.10 20:52:16.
