data_PCOD8265022
_publ_section_title
;
Structure prediction by ZEFSAII (Michael W. Deem and Ramdas Pophale) SiO2 
 PCOD8265022
Probable space group: C M C A
;
_chemical_formula_sum "Si O2"
_cell_formula_units_Z 96
_cell_length_a 18.782959
_cell_length_b 17.851092
_cell_length_c 15.719661
_cell_angle_alpha 90.000000
_cell_angle_beta 90.000000
_cell_angle_gamma 90.000000
_cell_volume 5270.744629
_symmetry_space_group_name_H-M "C M C A"
_symmetry_group_IT_number 64
_symmetry_cell_setting 'orthorhombic'
loop_
_space_group_symop_operation_xyz
x,y,z
-x,1/2-y,1/2+z
x,-y,-z
-x,1/2+y,1/2-z
-x,-y,-z
x,1/2+y,1/2-z
-x,y,z
x,1/2-y,1/2+z
1/2+x,1/2+y,z
1/2-x,-y,1/2+z
1/2+x,1/2-y,-z
1/2-x,y,1/2-z
1/2-x,1/2-y,-z
1/2+x,y,1/2-z
1/2-x,1/2+y,z
1/2+x,-y,1/2+z
loop_
_atom_site_type_symbol
_atom_site_label
_atom_site_fract_x
_atom_site_fract_y
_atom_site_fract_z
Si Si1 0.790345 0.563650 0.835326
Si Si2 0.676272 0.720136 0.599629
Si Si3 0.346322 0.544461 0.917862
Si Si4 0.336767 0.777611 0.420035
Si Si5 0.077763 0.954887 0.247371
Si Si6 0.919632 0.776298 0.246764
O O1 0.750000 0.595755 0.750000
O O2 0.820084 0.630728 0.892549
O O3 0.732245 0.515668 0.887571
O O4 0.859158 0.513313 0.808502
O O5 0.639612 0.740598 0.509420
O O6 0.757201 0.750872 0.603267
O O7 0.629028 0.755671 0.676135
O O8 0.341009 0.633081 0.932200
O O9 0.406242 0.522358 0.849434
O O10 0.370359 0.500000 0.000000
O O11 0.388523 0.750471 0.344421
O O12 0.080714 0.865540 0.253470
O O13 0.000000 0.985971 0.274081
O O14 0.000000 0.744910 0.255229
#
# Coordination Sequence:
#
# PCOD8265022 Si02
#       6
#    16  16  16  16  16  16
#     4   8  14  26  44  61  79 103 135 173 204 240
#     4   9  15  26  44  62  81 108 137 167 210 247
#     4   9  16  26  41  61  83 106 133 169 208 241
#     4   9  17  27  42  64  86 108 140 175 204 247
#     4   8  14  25  42  61  77  99 134 170 202 237
#     4   9  16  26  41  62  86 108 133 169 208 246
#
# _framework density 18.213746
#
# number of rings (size 3 to 8) (size 9 to 14) (size 15 to 20)
#    0.000    3.333    0.000    3.500    0.000    1.000 
#    0.000    0.000    0.000   21.500    0.000    0.000 
#    0.000    0.000    0.000    0.000    0.000    0.333 
#
# Total GULP energy -594662.315686 kJ/mol
# GULP energy per Si atom -12388.798243 kJ/mol
# Density = 1.817229 g / cm^3
# Si number density = 18.213746 Si / 1000 Ang^3
#
#
#
# Elastic Constant Matrix: (Units=GPa)
#
#
# Indices 1 2 3 4 5 6 
#
# 1 123.3112 9.7742 53.3972 0.0000 0.0000 0.0000
# 2 9.7742 10.6798 16.1232 0.0000 0.0000 0.0000
# 3 53.3972 16.1232 121.9119 0.0000 0.0000 0.0000
# 4 0.0000 0.0000 0.0000 25.3090 0.0000 0.0000
# 5 0.0000 0.0000 0.0000 0.0000 23.6476 0.0000
# 6 0.0000 0.0000 0.0000 0.0000 0.0000 8.1012
#
#
#
# Elastic Compliance Matrix: (Units=1/GPa)
#
#
# Indices 1 2 3 4 5 6 
#
# 1 0.010095 -0.003203 -0.003998 0.000000 0.000000 0.000000
# 2 -0.003203 0.118010 -0.014204 0.000000 0.000000 0.000000
# 3 -0.003998 -0.014204 0.011832 0.000000 0.000000 0.000000
# 4 0.000000 0.000000 0.000000 0.039512 0.000000 0.000000
# 5 0.000000 0.000000 0.000000 0.000000 0.042288 0.000000
# 6 0.000000 0.000000 0.000000 0.000000 0.000000 0.123438
#
#
# Mechanical properties :
#
#
# Convention : Reuss Voigt Hill
#
# Bulk Modulus (GPa) = 10.29584 46.05467 28.17526
# Shear Modulus (GPa) = 11.89457 23.18545 17.54001
#
# Velocity S-wave (km/s) = 2.55827 3.57173 3.10661
# Velocity P-wave (km/s) = 3.79359 6.50771 5.32643
#
# Compressibility (1/GPa) = 0.09712656
#
# Stress axis : x y z
#
# Youngs Moduli (GPa) = 99.06271 8.47386 84.51505
#
# Poissons Ratio (x) = 0.02714 0.33787
# Poissons Ratio (y) = 0.31731 1.20047
# Poissons Ratio (z) = 0.39603 0.12036
#
# Static dielectric constant tensor:
#      x y z
#    x 3.775750 0.000000 0.000000 
#    y 0.000000 2.633580 0.000000 
#    z 0.000000 0.000000 3.487690 
# 
# 
# High freq. dielectric constant tensor:
#      x y z
#    x 1.714440 0.000000 0.000000 
#    y 0.000000 1.625790 0.000000 
#    z 0.000000 0.000000 1.709870 
# 
# From -- ./inp_files/17474.got.cif
#   From: 2010.03.12/outbox.cif.g09.slc.cpg/sg64_9_cif.got.tgz:17474.got - 2010.04.10 20:19:32.
