data_PCOD8265932
_publ_section_title
;
Structure prediction by ZEFSAII (Michael W. Deem and Ramdas Pophale) SiO2 
 PCOD8265932
Probable space group: C M M M
;
_chemical_formula_sum "Si O2"
_cell_formula_units_Z 88
_cell_length_a 9.867591
_cell_length_b 28.093655
_cell_length_c 22.967943
_cell_angle_alpha 90.000000
_cell_angle_beta 90.000000
_cell_angle_gamma 90.000000
_cell_volume 6367.097301
_symmetry_space_group_name_H-M "C M M M"
_symmetry_group_IT_number 65
_symmetry_cell_setting 'orthorhombic'
loop_
_space_group_symop_operation_xyz
x,y,z
-x,-y,z
x,-y,-z
-x,y,-z
-x,-y,-z
x,y,-z
-x,y,z
x,-y,z
1/2+x,1/2+y,z
1/2-x,1/2-y,z
1/2+x,1/2-y,-z
1/2-x,1/2+y,-z
1/2-x,1/2-y,-z
1/2+x,1/2+y,-z
1/2-x,1/2+y,z
1/2+x,1/2-y,z
loop_
_atom_site_type_symbol
_atom_site_label
_atom_site_fract_x
_atom_site_fract_y
_atom_site_fract_z
Si Si1 0.654211 0.707747 0.066956
Si Si2 0.158300 0.444845 0.792950
Si Si3 0.658139 0.394088 0.885015
Si Si4 0.350740 0.943644 0.338788
Si Si5 0.660911 0.446566 0.000000
Si Si6 0.848612 0.943399 0.435411
O O1 0.500000 0.725283 0.072988
O O2 0.750000 0.750000 0.089293
O O3 0.680341 0.662105 0.107160
O O4 0.686203 0.694109 0.000000
O O5 0.192465 0.500000 0.805540
O O6 0.252546 0.411311 0.831379
O O7 0.195267 0.431225 0.726604
O O8 0.000000 0.435024 0.805544
O O9 0.500000 0.406046 0.873830
O O10 0.714093 0.420384 0.942473
O O11 0.500000 0.922430 0.350934
O O12 0.248584 0.920958 0.386097
O O13 0.356286 0.000000 0.345807
O O14 0.718195 0.500000 0.000000
O O15 0.500000 0.445186 0.000000
O O16 0.798538 0.928079 0.500000
O O17 0.000000 0.923933 0.424416
O O18 0.849060 0.000000 0.430807
#
# Coordination Sequence:
#
# PCOD8265932 Si02
#       6
#    16  16  16  16   8  16
#     4   9  17  30  46  63  81  97 118 152 193 237
#     4   9  18  30  40  53  77 105 132 164 197 229
#     4  10  18  29  44  61  77  97 128 161 192 232
#     4   8  14  24  35  46  64  93 126 157 188 222
#     4   9  16  26  40  57  77  99 123 155 192 225
#     4   8  13  20  30  46  67  88 114 154 197 227
#
# _framework density 13.821054999999999
#
# number of rings (size 3 to 8) (size 9 to 14) (size 15 to 20)
#    0.000    3.182    0.909    2.182    0.000    2.909 
#    0.000    4.091    0.000    1.636    0.000    0.000 
#    0.000    0.000    0.000    0.000    0.000    0.909 
#
# Total GULP energy -545376.383049 kJ/mol
# GULP energy per Si atom -12394.917797 kJ/mol
# Density = 1.378960 g / cm^3
# Si number density = 13.821055 Si / 1000 Ang^3
#
#
#
# Elastic Constant Matrix: (Units=GPa)
#
#
# Indices 1 2 3 4 5 6 
#
# 1 77.4141 37.2710 65.5056 0.0000 0.0000 0.0000
# 2 37.2710 50.9586 33.2540 0.0000 0.0000 0.0000
# 3 65.5056 33.2540 107.4306 0.0000 0.0000 0.0000
# 4 0.0000 0.0000 0.0000 3.3550 0.0000 0.0000
# 5 0.0000 0.0000 0.0000 0.0000 27.7687 0.0000
# 6 0.0000 0.0000 0.0000 0.0000 0.0000 17.6062
#
#
#
# Elastic Compliance Matrix: (Units=1/GPa)
#
#
# Indices 1 2 3 4 5 6 
#
# 1 0.032927 -0.013761 -0.015818 0.000000 0.000000 0.000000
# 2 -0.013761 0.030342 -0.001001 0.000000 0.000000 0.000000
# 3 -0.015818 -0.001001 0.019263 0.000000 0.000000 0.000000
# 4 0.000000 0.000000 0.000000 0.298062 0.000000 0.000000
# 5 0.000000 0.000000 0.000000 0.000000 0.036012 0.000000
# 6 0.000000 0.000000 0.000000 0.000000 0.000000 0.056798
#
#
# Mechanical properties :
#
#
# Convention : Reuss Voigt Hill
#
# Bulk Modulus (GPa) = 46.78946 56.42939 51.60942
# Shear Modulus (GPa) = 9.23040 16.39750 12.81395
#
# Velocity S-wave (km/s) = 2.58708 3.44817 3.04819
# Velocity P-wave (km/s) = 6.54609 7.53461 7.05768
#
# Compressibility (1/GPa) = 0.02137234
#
# Stress axis : x y z
#
# Youngs Moduli (GPa) = 30.37007 32.95790 51.91248
#
# Poissons Ratio (x) = 0.45352 0.82114
# Poissons Ratio (y) = 0.41791 0.05199
# Poissons Ratio (z) = 0.48039 0.03301
#
# Static dielectric constant tensor:
#      x y z
#    x 2.847720 0.000000 0.000000 
#    y 0.000000 2.362040 0.000000 
#    z 0.000000 0.000000 2.798790 
# 
# 
# High freq. dielectric constant tensor:
#      x y z
#    x 1.526910 0.000000 0.000000 
#    y 0.000000 1.473880 0.000000 
#    z 0.000000 0.000000 1.523400 
# 
# From -- ./inp_files/51468.got.cif
#   From: 2010.03.12/outbox.cif.g09.slc.cpg/sg65_26_cif.got.tgz:51468.got - 2010.04.10 20:52:16.
