data_PCOD8265849
_publ_section_title
;
Structure prediction by ZEFSAII (Michael W. Deem and Ramdas Pophale) SiO2 
 PCOD8265849
Probable space group: C M M M
;
_chemical_formula_sum "Si O2"
_cell_formula_units_Z 112
_cell_length_a 17.516682
_cell_length_b 20.507992
_cell_length_c 17.849785
_cell_angle_alpha 90.000000
_cell_angle_beta 90.000000
_cell_angle_gamma 90.000000
_cell_volume 6412.213507
_symmetry_space_group_name_H-M "C M M M"
_symmetry_group_IT_number 65
_symmetry_cell_setting 'orthorhombic'
loop_
_space_group_symop_operation_xyz
x,y,z
-x,-y,z
x,-y,-z
-x,y,-z
-x,-y,-z
x,y,-z
-x,y,z
x,-y,z
1/2+x,1/2+y,z
1/2-x,1/2-y,z
1/2+x,1/2-y,-z
1/2-x,1/2+y,-z
1/2-x,1/2-y,-z
1/2+x,1/2+y,-z
1/2-x,1/2+y,z
1/2+x,1/2-y,z
loop_
_atom_site_type_symbol
_atom_site_label
_atom_site_fract_x
_atom_site_fract_y
_atom_site_fract_z
Si Si1 0.290561 0.152097 0.280016
Si Si2 0.087460 0.303165 0.086787
Si Si3 0.796023 0.816864 0.417295
Si Si4 0.679417 0.427144 0.914273
Si Si5 0.085649 0.758179 0.319916
Si Si6 0.342546 0.927246 0.151218
Si Si7 0.651742 0.691239 0.817426
O O1 0.245249 0.135109 0.357256
O O2 0.364078 0.195188 0.299606
O O3 0.318143 0.086908 0.237784
O O4 0.234464 0.191441 0.223516
O O5 0.095970 0.374924 0.122884
O O6 0.145210 0.253086 0.126875
O O7 0.000000 0.280879 0.098272
O O8 0.109714 0.305762 0.000000
O O9 0.798707 0.849355 0.500000
O O10 0.750000 0.750000 0.419308
O O11 0.881334 0.798686 0.390418
O O12 0.651302 0.500000 0.892985
O O13 0.770009 0.421889 0.903147
O O14 0.635802 0.375232 0.862616
O O15 0.660103 0.411000 0.000000
O O16 0.086756 0.804231 0.246445
O O17 0.000000 0.736226 0.339327
O O18 0.377813 0.000000 0.148216
#
# Coordination Sequence:
#
# PCOD8265849 Si02
#       7
#    16  16  16  16  16  16  16
#     4   9  18  31  50  72  98 130 170 204 252 293
#     4  11  23  34  47  70  98 131 171 215 264 308
#     4   8  15  28  47  73 102 128 154 193 244 292
#     4   9  18  31  48  70  92 118 159 212 263 304
#     4  10  18  28  46  71 100 132 163 199 240 292
#     4  10  20  33  48  67  95 130 169 211 253 304
#     4  10  18  31  50  70  95 129 169 213 255 300
#
# _framework density 17.466667000000001
#
# number of rings (size 3 to 8) (size 9 to 14) (size 15 to 20)
#    0.000    2.429    1.429    2.571    2.000    1.429 
#    0.000    2.857    0.000    2.143    0.000    5.000 
#    0.000    0.000    0.000   19.571    0.000    0.714 
#
# Total GULP energy -693993.858193 kJ/mol
# GULP energy per Si atom -12392.747468 kJ/mol
# Density = 1.742691 g / cm^3
# Si number density = 17.466667 Si / 1000 Ang^3
#
#
#
# Elastic Constant Matrix: (Units=GPa)
#
#
# Indices 1 2 3 4 5 6 
#
# 1 78.0393 20.8211 32.6504 0.0000 0.0000 0.0000
# 2 20.8211 82.5721 43.9548 0.0000 0.0000 0.0000
# 3 32.6504 43.9548 130.4748 0.0000 0.0000 0.0000
# 4 0.0000 0.0000 0.0000 18.2376 0.0000 0.0000
# 5 0.0000 0.0000 0.0000 0.0000 16.0168 0.0000
# 6 0.0000 0.0000 0.0000 0.0000 0.0000 10.0977
#
#
#
# Elastic Compliance Matrix: (Units=1/GPa)
#
#
# Indices 1 2 3 4 5 6 
#
# 1 0.014610 -0.002118 -0.002943 0.000000 0.000000 0.000000
# 2 -0.002118 0.015064 -0.004545 0.000000 0.000000 0.000000
# 3 -0.002943 -0.004545 0.009932 0.000000 0.000000 0.000000
# 4 0.000000 0.000000 0.000000 0.054832 0.000000 0.000000
# 5 0.000000 0.000000 0.000000 0.000000 0.062434 0.000000
# 6 0.000000 0.000000 0.000000 0.000000 0.000000 0.099033
#
#
# Mechanical properties :
#
#
# Convention : Reuss Voigt Hill
#
# Bulk Modulus (GPa) = 49.03027 53.99321 51.51174
# Shear Modulus (GPa) = 17.73594 21.78108 19.75851
#
# Velocity S-wave (km/s) = 3.19002 3.53513 3.36700
# Velocity P-wave (km/s) = 6.45755 6.90233 6.68364
#
# Compressibility (1/GPa) = 0.02039557
#
# Stress axis : x y z
#
# Youngs Moduli (GPa) = 68.44523 66.38380 100.68662
#
# Poissons Ratio (x) = 0.14057 0.29629
# Poissons Ratio (y) = 0.14494 0.45761
# Poissons Ratio (z) = 0.20142 0.30171
#
# Static dielectric constant tensor:
#      x y z
#    x 3.030500 0.000000 0.000000 
#    y 0.000000 3.086990 0.000000 
#    z 0.000000 0.000000 3.631700 
# 
# 
# High freq. dielectric constant tensor:
#      x y z
#    x 1.654290 0.000000 0.000000 
#    y 0.000000 1.642440 0.000000 
#    z 0.000000 0.000000 1.679240 
# 
# From -- ./inp_files/54854.got.cif
#   From: 2010.03.12/outbox.cif.g09.slc.cpg/sg65_28_cif.got.tgz:54854.got - 2010.04.10 20:52:16.
