data_PCOD8265011
_publ_section_title
;
Structure prediction by ZEFSAII (Michael W. Deem and Ramdas Pophale) SiO2 
 PCOD8265011
Probable space group: C M C A
;
_chemical_formula_sum "Si O2"
_cell_formula_units_Z 48
_cell_length_a 17.188599
_cell_length_b 7.331175
_cell_length_c 15.647800
_cell_angle_alpha 90.000000
_cell_angle_beta 90.000000
_cell_angle_gamma 90.000000
_cell_volume 1971.820389
_symmetry_space_group_name_H-M "C M C A"
_symmetry_group_IT_number 64
_symmetry_cell_setting 'orthorhombic'
loop_
_space_group_symop_operation_xyz
x,y,z
-x,1/2-y,1/2+z
x,-y,-z
-x,1/2+y,1/2-z
-x,-y,-z
x,1/2+y,1/2-z
-x,y,z
x,1/2-y,1/2+z
1/2+x,1/2+y,z
1/2-x,-y,1/2+z
1/2+x,1/2-y,-z
1/2-x,y,1/2-z
1/2-x,1/2-y,-z
1/2+x,y,1/2-z
1/2-x,1/2+y,z
1/2+x,-y,1/2+z
loop_
_atom_site_type_symbol
_atom_site_label
_atom_site_fract_x
_atom_site_fract_y
_atom_site_fract_z
Si Si1 0.158002 0.609409 0.167520
Si Si2 0.910534 0.020070 0.845473
Si Si3 0.800923 0.750874 0.915055
O O1 0.133334 0.529538 0.258021
O O2 0.096380 0.763703 0.137393
O O3 0.158430 0.444128 0.099443
O O4 0.243543 0.703984 0.165144
O O5 0.000000 0.961189 0.841236
O O6 0.868050 0.905065 0.920236
O O7 0.750000 0.750000 0.000000
#
# Coordination Sequence:
#
# PCOD8265011 Si02
#       3
#    16  16  16
#     4  12  25  44  77 109 148 204 262 312 376 461
#     4  12  27  46  76 116 155 198 259 329 388 452
#     4  12  27  47  77 115 153 207 261 315 381 468
#
# _framework density 24.342987000000001
#
# number of rings (size 3 to 8) (size 9 to 14) (size 15 to 20)
#    0.000    0.000    6.667    3.000    0.000    1.333 
#    0.000    5.000    0.000   10.000    0.000    0.000 
#    0.000    0.000    0.000    0.000    0.000    0.000 
#
# Total GULP energy -297549.200896 kJ/mol
# GULP energy per Si atom -12397.883371 kJ/mol
# Density = 2.428758 g / cm^3
# Si number density = 24.342987 Si / 1000 Ang^3
#
#
#
# Elastic Constant Matrix: (Units=GPa)
#
#
# Indices 1 2 3 4 5 6 
#
# 1 163.0434 55.9563 74.6063 0.0000 0.0000 0.0000
# 2 55.9563 203.1633 73.9222 0.0000 0.0000 0.0000
# 3 74.6063 73.9222 111.6650 0.0000 0.0000 0.0000
# 4 0.0000 0.0000 0.0000 29.3861 0.0000 0.0000
# 5 0.0000 0.0000 0.0000 0.0000 22.1320 0.0000
# 6 0.0000 0.0000 0.0000 0.0000 0.0000 43.2587
#
#
#
# Elastic Compliance Matrix: (Units=1/GPa)
#
#
# Indices 1 2 3 4 5 6 
#
# 1 0.008856 -0.000377 -0.005667 0.000000 0.000000 0.000000
# 2 -0.000377 0.006500 -0.004051 0.000000 0.000000 0.000000
# 3 -0.005667 -0.004051 0.015424 0.000000 0.000000 0.000000
# 4 0.000000 0.000000 0.000000 0.034030 0.000000 0.000000
# 5 0.000000 0.000000 0.000000 0.000000 0.045184 0.000000
# 6 0.000000 0.000000 0.000000 0.000000 0.000000 0.023117
#
#
# Mechanical properties :
#
#
# Convention : Reuss Voigt Hill
#
# Bulk Modulus (GPa) = 94.43983 98.53794 96.48888
# Shear Modulus (GPa) = 31.88162 37.18114 34.53138
#
# Velocity S-wave (km/s) = 3.62288 3.91242 3.77043
# Velocity P-wave (km/s) = 7.50867 7.80873 7.66017
#
# Compressibility (1/GPa) = 0.01058875
#
# Stress axis : x y z
#
# Youngs Moduli (GPa) = 112.91738 153.84581 64.83552
#
# Poissons Ratio (x) = 0.05801 0.36744
# Poissons Ratio (y) = 0.04258 0.26265
# Poissons Ratio (z) = 0.63994 0.62324
#
# Static dielectric constant tensor:
#      x y z
#    x 4.301930 0.000000 0.000000 
#    y 0.000000 5.218490 0.000000 
#    z 0.000000 0.000000 4.174730 
# 
# 
# High freq. dielectric constant tensor:
#      x y z
#    x 1.947960 0.000000 0.000000 
#    y 0.000000 1.995240 0.000000 
#    z 0.000000 0.000000 1.953910 
# 
# From -- ./inp_files/24651.got.cif
#   From: 2010.03.12/outbox.cif.g09.slc.cpg/sg64_13_cif.got.tgz:24651.got - 2010.04.10 20:19:32.
