data_PCOD8265340
_publ_section_title
;
Structure prediction by ZEFSAII (Michael W. Deem and Ramdas Pophale) SiO2 
 PCOD8265340
Probable space group: C M M M
;
_chemical_formula_sum "Si O2"
_cell_formula_units_Z 88
_cell_length_a 13.976569
_cell_length_b 28.598849
_cell_length_c 13.856158
_cell_angle_alpha 90.000000
_cell_angle_beta 90.000000
_cell_angle_gamma 90.000000
_cell_volume 5538.497379
_symmetry_space_group_name_H-M "C M M M"
_symmetry_group_IT_number 65
_symmetry_cell_setting 'orthorhombic'
loop_
_space_group_symop_operation_xyz
x,y,z
-x,-y,z
x,-y,-z
-x,y,-z
-x,-y,-z
x,y,-z
-x,y,z
x,-y,z
1/2+x,1/2+y,z
1/2-x,1/2-y,z
1/2+x,1/2-y,-z
1/2-x,1/2+y,-z
1/2-x,1/2-y,-z
1/2+x,1/2+y,-z
1/2-x,1/2+y,z
1/2+x,1/2-y,z
loop_
_atom_site_type_symbol
_atom_site_label
_atom_site_fract_x
_atom_site_fract_y
_atom_site_fract_z
Si Si1 0.638996 0.741887 0.105841
Si Si2 0.885626 0.096814 0.302453
Si Si3 0.893803 0.726152 0.307047
Si Si4 0.886651 0.000000 0.391904
Si Si5 0.711213 0.684541 0.612463
Si Si6 0.890485 0.865544 0.104385
O O1 0.750000 0.750000 0.102155
O O2 0.596040 0.774111 0.190227
O O3 0.618255 0.688428 0.132805
O O4 0.594206 0.753841 0.000000
O O5 0.851182 0.045720 0.335095
O O6 0.834054 0.133825 0.371761
O O7 0.848031 0.103983 0.192417
O O8 0.000000 0.103482 0.311154
O O9 0.818162 0.687062 0.341802
O O10 0.857233 0.776908 0.340058
O O11 0.000000 0.715973 0.349707
O O12 0.843671 0.000000 0.500000
O O13 0.000000 0.000000 0.397501
O O14 0.719820 0.695218 0.500000
O O15 0.000000 0.879565 0.093413
O O16 0.839490 0.875643 0.000000
#
# Coordination Sequence:
#
# PCOD8265340 Si02
#       6
#    16  16  16   8  16  16
#     4  10  17  27  44  65  91 121 154 189 223 264
#     4  10  18  31  49  68  91 118 148 188 235 280
#     4  11  20  32  46  65  93 122 155 191 225 265
#     4   9  18  30  45  67  90 114 149 190 231 275
#     4  11  22  33  45  64  89 121 160 192 228 274
#     4   9  16  26  41  61  85 115 148 178 215 268
#
# _framework density 15.888786
#
# number of rings (size 3 to 8) (size 9 to 14) (size 15 to 20)
#    0.000    1.909    3.636    2.727    0.000    4.364 
#    0.000    0.455    0.000    2.727    0.000    0.636 
#    0.000    2.182    0.000    0.000    0.000   18.455 
#
# Total GULP energy -545264.439367 kJ/mol
# GULP energy per Si atom -12392.373622 kJ/mol
# Density = 1.585262 g / cm^3
# Si number density = 15.888786 Si / 1000 Ang^3
#
#
#
# Elastic Constant Matrix: (Units=GPa)
#
#
# Indices 1 2 3 4 5 6 
#
# 1 77.9128 20.3760 17.4688 0.0000 0.0000 0.0000
# 2 20.3760 61.1083 27.7001 0.0000 0.0000 0.0000
# 3 17.4688 27.7001 124.0020 0.0000 0.0000 0.0000
# 4 0.0000 0.0000 0.0000 23.3293 0.0000 0.0000
# 5 0.0000 0.0000 0.0000 0.0000 11.0255 0.0000
# 6 0.0000 0.0000 0.0000 0.0000 0.0000 22.0360
#
#
#
# Elastic Compliance Matrix: (Units=1/GPa)
#
#
# Indices 1 2 3 4 5 6 
#
# 1 0.014182 -0.004254 -0.001048 0.000000 0.000000 0.000000
# 2 -0.004254 0.019484 -0.003753 0.000000 0.000000 0.000000
# 3 -0.001048 -0.003753 0.009050 0.000000 0.000000 0.000000
# 4 0.000000 0.000000 0.000000 0.042865 0.000000 0.000000
# 5 0.000000 0.000000 0.000000 0.000000 0.090699 0.000000
# 6 0.000000 0.000000 0.000000 0.000000 0.000000 0.045380
#
#
# Mechanical properties :
#
#
# Convention : Reuss Voigt Hill
#
# Bulk Modulus (GPa) = 40.63870 43.79032 42.21451
# Shear Modulus (GPa) = 20.16350 24.44337 22.30344
#
# Velocity S-wave (km/s) = 3.56622 3.92650 3.75069
# Velocity P-wave (km/s) = 6.52608 6.94096 6.73672
#
# Compressibility (1/GPa) = 0.02460709
#
# Stress axis : x y z
#
# Youngs Moduli (GPa) = 70.51045 51.32378 110.49276
#
# Poissons Ratio (x) = 0.21833 0.11576
# Poissons Ratio (y) = 0.29996 0.41470
# Poissons Ratio (z) = 0.07387 0.19263
#
# Static dielectric constant tensor:
#      x y z
#    x 2.880130 0.000000 0.000000 
#    y 0.000000 2.778880 0.000000 
#    z 0.000000 0.000000 3.615090 
# 
# 
# High freq. dielectric constant tensor:
#      x y z
#    x 1.580140 0.000000 0.000000 
#    y 0.000000 1.566950 0.000000 
#    z 0.000000 0.000000 1.639400 
# 
# From -- ./inp_files/40943.got.cif
#   From: 2010.03.12/outbox.cif.g09.slc.cpg/sg65_21_cif.got.tgz:40943.got - 2010.04.10 20:52:16.
