data_PCOD8265979
_publ_section_title
;
Structure prediction by ZEFSAII (Michael W. Deem and Ramdas Pophale) SiO2 
 PCOD8265979
Probable space group: C M M M
;
_chemical_formula_sum "Si O2"
_cell_formula_units_Z 104
_cell_length_a 28.946880
_cell_length_b 9.494985
_cell_length_c 23.399104
_cell_angle_alpha 90.000000
_cell_angle_beta 90.000000
_cell_angle_gamma 90.000000
_cell_volume 6431.248213
_symmetry_space_group_name_H-M "C M M M"
_symmetry_group_IT_number 65
_symmetry_cell_setting 'orthorhombic'
loop_
_space_group_symop_operation_xyz
x,y,z
-x,-y,z
x,-y,-z
-x,y,-z
-x,-y,-z
x,y,-z
-x,y,z
x,-y,z
1/2+x,1/2+y,z
1/2-x,1/2-y,z
1/2+x,1/2-y,-z
1/2-x,1/2+y,-z
1/2-x,1/2-y,-z
1/2+x,1/2+y,-z
1/2-x,1/2+y,z
1/2+x,1/2-y,z
loop_
_atom_site_type_symbol
_atom_site_label
_atom_site_fract_x
_atom_site_fract_y
_atom_site_fract_z
Si Si1 0.390255 0.832468 0.563257
Si Si2 0.106067 0.665512 0.219407
Si Si3 0.054405 0.152885 0.000000
Si Si4 0.051863 0.332404 0.331392
Si Si5 0.206437 0.336495 0.389762
Si Si6 0.946832 0.832082 0.876127
Si Si7 0.706950 0.838730 0.743001
O O1 0.404782 0.779444 0.500000
O O2 0.425508 0.770880 0.610444
O O3 0.338379 0.781621 0.576563
O O4 0.391297 0.000000 0.566479
O O5 0.096931 0.500000 0.209982
O O6 0.081217 0.718738 0.277105
O O7 0.086316 0.753049 0.167122
O O8 0.160459 0.699138 0.222859
O O9 0.067345 0.227282 0.939712
O O10 0.000000 0.129724 0.000000
O O11 0.078548 0.000000 0.000000
O O12 0.051785 0.500000 0.333786
O O13 0.000000 0.272626 0.326346
O O14 0.216035 0.500000 0.401236
O O15 0.250000 0.250000 0.413154
O O16 0.197675 0.305606 0.323210
O O17 0.000000 0.794133 0.862110
O O18 0.939518 0.000000 0.872675
O O19 0.750000 0.750000 0.767279
O O20 0.720417 0.000000 0.751897
#
# Coordination Sequence:
#
# PCOD8265979 Si02
#       7
#    16  16   8  16  16  16  16
#     4   9  16  26  40  58  81 110 145 183 220 260
#     4  10  18  29  45  67  93 120 148 183 229 274
#     4   7  12  26  45  63  90 127 158 183 214 251
#     4   9  16  26  40  58  83 115 147 179 219 265
#     4   9  16  28  44  62  84 109 138 175 221 270
#     4   9  17  29  46  69  96 126 158 187 214 252
#     4   9  17  29  45  63  87 116 146 180 223 274
#
# _framework density 16.171044999999999
#
# number of rings (size 3 to 8) (size 9 to 14) (size 15 to 20)
#    0.000    3.000    1.538    1.385    0.000    2.154 
#    0.000    1.923    0.000    1.385    0.000    0.538 
#    0.000    0.000    0.000    4.615    0.000    4.615 
#
# Total GULP energy -644446.053668 kJ/mol
# GULP energy per Si atom -12393.193340 kJ/mol
# Density = 1.613424 g / cm^3
# Si number density = 16.171045 Si / 1000 Ang^3
#
#
#
# Elastic Constant Matrix: (Units=GPa)
#
#
# Indices 1 2 3 4 5 6 
#
# 1 110.8690 35.2698 65.2562 0.0000 0.0000 0.0000
# 2 35.2698 29.8629 32.7002 0.0000 0.0000 0.0000
# 3 65.2562 32.7002 125.8632 0.0000 0.0000 0.0000
# 4 0.0000 0.0000 0.0000 13.7511 0.0000 0.0000
# 5 0.0000 0.0000 0.0000 0.0000 22.3741 0.0000
# 6 0.0000 0.0000 0.0000 0.0000 0.0000 22.8752
#
#
#
# Elastic Compliance Matrix: (Units=1/GPa)
#
#
# Indices 1 2 3 4 5 6 
#
# 1 0.016304 -0.013975 -0.004822 0.000000 0.000000 0.000000
# 2 -0.013975 0.058780 -0.008026 0.000000 0.000000 0.000000
# 3 -0.004822 -0.008026 0.012530 0.000000 0.000000 0.000000
# 4 0.000000 0.000000 0.000000 0.072722 0.000000 0.000000
# 5 0.000000 0.000000 0.000000 0.000000 0.044695 0.000000
# 6 0.000000 0.000000 0.000000 0.000000 0.000000 0.043715
#
#
# Mechanical properties :
#
#
# Convention : Reuss Voigt Hill
#
# Bulk Modulus (GPa) = 29.43948 59.22752 44.33350
# Shear Modulus (GPa) = 15.93801 20.69133 18.31467
#
# Velocity S-wave (km/s) = 3.14282 3.58093 3.36900
# Velocity P-wave (km/s) = 5.60485 7.33503 6.52752
#
# Compressibility (1/GPa) = 0.03396799
#
# Stress axis : x y z
#
# Youngs Moduli (GPa) = 61.33566 17.01249 79.80596
#
# Poissons Ratio (x) = 0.23776 0.38483
# Poissons Ratio (y) = 0.85719 0.64051
# Poissons Ratio (z) = 0.29577 0.13654
#
# Static dielectric constant tensor:
#      x y z
#    x 3.122880 0.000000 0.000000 
#    y 0.000000 2.676690 0.000000 
#    z 0.000000 0.000000 3.185110 
# 
# 
# High freq. dielectric constant tensor:
#      x y z
#    x 1.616960 0.000000 0.000000 
#    y 0.000000 1.577430 0.000000 
#    z 0.000000 0.000000 1.616960 
# 
# From -- ./inp_files/72186.got.cif
#   From: 2010.03.12/outbox.cif.g09.slc.cpg/sg65_37_cif.got.tgz:72186.got - 2010.04.10 20:52:16.
