data_PCOD8265426
_publ_section_title
;
Structure prediction by ZEFSAII (Michael W. Deem and Ramdas Pophale) SiO2 
 PCOD8265426
Probable space group: C M M M
;
_chemical_formula_sum "Si O2"
_cell_formula_units_Z 120
_cell_length_a 32.649046
_cell_length_b 19.209649
_cell_length_c 10.252816
_cell_angle_alpha 90.000000
_cell_angle_beta 90.000000
_cell_angle_gamma 90.000000
_cell_volume 6430.327447
_symmetry_space_group_name_H-M "C M M M"
_symmetry_group_IT_number 65
_symmetry_cell_setting 'orthorhombic'
loop_
_space_group_symop_operation_xyz
x,y,z
-x,-y,z
x,-y,-z
-x,y,-z
-x,-y,-z
x,y,-z
-x,y,z
x,-y,z
1/2+x,1/2+y,z
1/2-x,1/2-y,z
1/2+x,1/2-y,-z
1/2-x,1/2+y,-z
1/2-x,1/2-y,-z
1/2+x,1/2+y,-z
1/2-x,1/2+y,z
1/2+x,1/2-y,z
loop_
_atom_site_type_symbol
_atom_site_label
_atom_site_fract_x
_atom_site_fract_y
_atom_site_fract_z
Si Si1 0.454779 0.924950 0.654230
Si Si2 0.686833 0.362506 0.347213
Si Si3 0.601269 0.417757 0.256978
Si Si4 0.228006 0.422568 0.655016
Si Si5 0.546496 0.685142 0.143561
Si Si6 0.046234 0.082100 0.500000
Si Si7 0.821057 0.708646 0.652243
Si Si8 0.413733 0.212982 0.654798
O O1 0.457771 0.926511 0.500000
O O2 0.500000 0.910132 0.711766
O O3 0.424068 0.865362 0.697816
O O4 0.438536 0.000000 0.705122
O O5 0.676631 0.370438 0.500000
O O6 0.646923 0.387322 0.269333
O O7 0.724810 0.410344 0.304439
O O8 0.700569 0.282550 0.315513
O O9 0.603712 0.500000 0.237397
O O10 0.577461 0.381123 0.138213
O O11 0.572880 0.393621 0.377471
O O12 0.224574 0.420368 0.500000
O O13 0.214716 0.500000 0.705605
O O14 0.200371 0.359791 0.716960
O O15 0.500000 0.659586 0.168554
O O16 0.558297 0.736941 0.259866
O O17 0.549760 0.720675 0.000000
O O18 0.000000 0.114582 0.500000
O O19 0.042073 0.000000 0.500000
O O20 0.820586 0.693581 0.500000
O O21 0.867167 0.720907 0.699542
O O22 0.420872 0.227591 0.500000
#
# Coordination Sequence:
#
# PCOD8265426 Si02
#       8
#    16  16  16  16  16   8  16  16
#     4   8  14  25  43  71 104 133 165 210 264 316
#     4  10  17  29  47  72 107 143 177 218 267 320
#     4  11  21  34  53  76 101 135 180 224 267 318
#     4   9  17  27  42  69 109 150 177 207 263 325
#     4  11  25  41  55  75 107 145 181 222 272 325
#     4   9  18  30  46  74 105 128 161 219 276 311
#     4   9  17  28  44  70 103 137 176 217 260 312
#     4  10  19  33  55  81 106 141 184 226 269 317
#
# _framework density 18.661569
#
# number of rings (size 3 to 8) (size 9 to 14) (size 15 to 20)
#    0.000    2.333    2.000    2.000    0.933    4.533 
#    0.000    3.333    0.000    0.400    0.000    3.733 
#    0.000    1.067    0.000    0.000    0.000    0.000 
#
# Total GULP energy -743361.801798 kJ/mol
# GULP energy per Si atom -12389.363363 kJ/mol
# Density = 1.861909 g / cm^3
# Si number density = 18.661569 Si / 1000 Ang^3
#
#
#
# Elastic Constant Matrix: (Units=GPa)
#
#
# Indices 1 2 3 4 5 6 
#
# 1 70.1978 40.6947 26.2725 0.0000 0.0000 0.0000
# 2 40.6947 101.8394 21.4463 0.0000 0.0000 0.0000
# 3 26.2725 21.4463 40.4121 0.0000 0.0000 0.0000
# 4 0.0000 0.0000 0.0000 6.2997 0.0000 0.0000
# 5 0.0000 0.0000 0.0000 0.0000 9.4976 0.0000
# 6 0.0000 0.0000 0.0000 0.0000 0.0000 33.7521
#
#
#
# Elastic Compliance Matrix: (Units=1/GPa)
#
#
# Indices 1 2 3 4 5 6 
#
# 1 0.022121 -0.006542 -0.010909 0.000000 0.000000 0.000000
# 2 -0.006542 0.012990 -0.002640 0.000000 0.000000 0.000000
# 3 -0.010909 -0.002640 0.033239 0.000000 0.000000 0.000000
# 4 0.000000 0.000000 0.000000 0.158738 0.000000 0.000000
# 5 0.000000 0.000000 0.000000 0.000000 0.105290 0.000000
# 6 0.000000 0.000000 0.000000 0.000000 0.000000 0.029628
#
#
# Mechanical properties :
#
#
# Convention : Reuss Voigt Hill
#
# Bulk Modulus (GPa) = 35.50430 43.25294 39.37862
# Shear Modulus (GPa) = 12.14838 18.17893 15.16366
#
# Velocity S-wave (km/s) = 2.55421 3.12450 2.85364
# Velocity P-wave (km/s) = 5.26928 6.02035 5.65729
#
# Compressibility (1/GPa) = 0.02816560
#
# Stress axis : x y z
#
# Youngs Moduli (GPa) = 45.20599 76.98462 30.08554
#
# Poissons Ratio (x) = 0.50364 0.32821
# Poissons Ratio (y) = 0.29574 0.07944
# Poissons Ratio (z) = 0.49317 0.20327
#
# Static dielectric constant tensor:
#      x y z
#    x 3.579030 0.000000 0.000000 
#    y 0.000000 3.861100 0.000000 
#    z 0.000000 0.000000 2.858770 
# 
# 
# High freq. dielectric constant tensor:
#      x y z
#    x 1.731440 0.000000 0.000000 
#    y 0.000000 1.741860 0.000000 
#    z 0.000000 0.000000 1.643210 
# 
# From -- ./inp_files/34277.got.cif
#   From: 2010.03.12/outbox.cif.g09.slc.cpg/sg65_18_cif.got.tgz:34277.got - 2010.04.10 20:52:16.
