data_PCOD8265318
_publ_section_title
;
Structure prediction by ZEFSAII (Michael W. Deem and Ramdas Pophale) SiO2 
 PCOD8265318
Probable space group: C M M M
;
_chemical_formula_sum "Si O2"
_cell_formula_units_Z 80
_cell_length_a 10.047370
_cell_length_b 33.737801
_cell_length_c 16.306389
_cell_angle_alpha 90.000000
_cell_angle_beta 90.000000
_cell_angle_gamma 90.000000
_cell_volume 5527.477284
_symmetry_space_group_name_H-M "C M M M"
_symmetry_group_IT_number 65
_symmetry_cell_setting 'orthorhombic'
loop_
_space_group_symop_operation_xyz
x,y,z
-x,-y,z
x,-y,-z
-x,y,-z
-x,-y,-z
x,y,-z
-x,y,z
x,-y,z
1/2+x,1/2+y,z
1/2-x,1/2-y,z
1/2+x,1/2-y,-z
1/2-x,1/2+y,-z
1/2-x,1/2-y,-z
1/2+x,1/2+y,-z
1/2-x,1/2+y,z
1/2+x,1/2-y,z
loop_
_atom_site_type_symbol
_atom_site_label
_atom_site_fract_x
_atom_site_fract_y
_atom_site_fract_z
Si Si1 0.653956 0.578004 0.180031
Si Si2 0.000000 0.790675 0.097002
Si Si3 0.151133 0.046163 0.356764
Si Si4 0.000000 0.702454 0.903126
Si Si5 0.257802 0.655772 0.097263
Si Si6 0.841666 0.000000 0.092565
Si Si7 0.652644 0.046925 0.500000
O O1 0.500000 0.584120 0.155649
O O2 0.671660 0.573330 0.277198
O O3 0.736717 0.615018 0.146967
O O4 0.714069 0.539059 0.136734
O O5 0.000000 0.746574 0.136143
O O6 0.872913 0.814876 0.126951
O O7 0.000000 0.786703 0.000000
O O8 0.262420 0.060923 0.421139
O O9 0.000000 0.051882 0.391129
O O10 0.171526 0.000000 0.333598
O O11 0.125862 0.677740 0.873861
O O12 0.000000 0.707205 0.000000
O O13 0.264135 0.646973 0.000000
O O14 0.000000 0.000000 0.098903
O O15 0.789988 0.000000 0.000000
O O16 0.500000 0.064011 0.500000
O O17 0.645760 0.000000 0.500000
#
# Coordination Sequence:
#
# PCOD8265318 Si02
#       7
#    16   8  16   8  16   8   8
#     4  10  17  27  41  62  87 114 150 188 218 250
#     4   9  16  28  46  63  79 106 147 189 225 264
#     4   9  16  28  45  63  84 111 143 179 217 258
#     4   9  18  30  42  59  83 112 145 183 229 274
#     4  10  18  28  43  62  86 115 150 187 221 258
#     4   9  16  24  38  58  83 114 152 195 223 235
#     4   9  17  29  45  65  85 105 138 175 216 266
#
# _framework density 14.473148
#
# number of rings (size 3 to 8) (size 9 to 14) (size 15 to 20)
#    0.000    2.600    2.000    1.500    0.000    4.400 
#    1.800    0.000    0.000    0.600    0.000    2.800 
#    0.000    0.000    0.000    5.400    0.000    0.100 
#
# Total GULP energy -495852.425125 kJ/mol
# GULP energy per Si atom -12396.310628 kJ/mol
# Density = 1.444021 g / cm^3
# Si number density = 14.473148 Si / 1000 Ang^3
#
#
#
# Elastic Constant Matrix: (Units=GPa)
#
#
# Indices 1 2 3 4 5 6 
#
# 1 103.7497 50.6972 35.7828 0.0000 0.0000 0.0000
# 2 50.6972 113.8663 35.9943 0.0000 0.0000 0.0000
# 3 35.7828 35.9943 60.6811 0.0000 0.0000 0.0000
# 4 0.0000 0.0000 0.0000 6.0731 0.0000 0.0000
# 5 0.0000 0.0000 0.0000 0.0000 -280.6318 0.0000
# 6 0.0000 0.0000 0.0000 0.0000 0.0000 8.0749
#
#
#
# Elastic Compliance Matrix: (Units=1/GPa)
#
#
# Indices 1 2 3 4 5 6 
#
# 1 0.013650 -0.004348 -0.005470 0.000000 0.000000 0.000000
# 2 -0.004348 0.012194 -0.004669 0.000000 0.000000 0.000000
# 3 -0.005470 -0.004669 0.022475 0.000000 0.000000 0.000000
# 4 0.000000 0.000000 0.000000 0.164661 0.000000 0.000000
# 5 0.000000 0.000000 0.000000 0.000000 -0.003563 0.000000
# 6 0.000000 0.000000 0.000000 0.000000 0.000000 0.123840
#
#
# Mechanical properties :
#
#
# Convention : Reuss Voigt Hill
#
# Bulk Modulus (GPa) = 51.69507 58.13841 54.91674
# Shear Modulus (GPa) = 13.56194 -42.90856 -14.67331
#
# Velocity S-wave (km/s) = 3.06443 -5.45081 -3.18752
# Velocity P-wave (km/s) = 6.95100 0.80118 4.94764
#
# Compressibility (1/GPa) = 0.01934421
#
# Stress axis : x y z
#
# Youngs Moduli (GPa) = 73.26057 82.00616 44.49457
#
# Poissons Ratio (x) = 0.35659 0.24338
# Poissons Ratio (y) = 0.31856 0.20775
# Poissons Ratio (z) = 0.40072 0.38290
#
# Static dielectric constant tensor:
#      x y z
#    x 2.859250 0.000000 0.000000 
#    y 0.000000 2.762070 0.000000 
#    z 0.000000 0.000000 2.573330 
# 
# 
# High freq. dielectric constant tensor:
#      x y z
#    x 1.545590 0.000000 0.000000 
#    y 0.000000 1.539280 0.000000 
#    z 0.000000 0.000000 1.520170 
# 
# From -- ./inp_files/50259.got.cif
#   From: 2010.03.12/outbox.cif.g09.slc.cpg/sg65_26_cif.got.tgz:50259.got - 2010.04.10 20:52:16.
