data_PCOD8265641
_publ_section_title
;
Structure prediction by ZEFSAII (Michael W. Deem and Ramdas Pophale) SiO2 
 PCOD8265641
Probable space group: C M M M
;
_chemical_formula_sum "Si O2"
_cell_formula_units_Z 88
_cell_length_a 26.912438
_cell_length_b 20.318818
_cell_length_c 9.061224
_cell_angle_alpha 90.000000
_cell_angle_beta 90.000000
_cell_angle_gamma 90.000000
_cell_volume 4954.939421
_symmetry_space_group_name_H-M "C M M M"
_symmetry_group_IT_number 65
_symmetry_cell_setting 'orthorhombic'
loop_
_space_group_symop_operation_xyz
x,y,z
-x,-y,z
x,-y,-z
-x,y,-z
-x,-y,-z
x,y,-z
-x,y,z
x,-y,z
1/2+x,1/2+y,z
1/2-x,1/2-y,z
1/2+x,1/2-y,-z
1/2-x,1/2+y,-z
1/2-x,1/2-y,-z
1/2+x,1/2+y,-z
1/2-x,1/2+y,z
1/2+x,1/2-y,z
loop_
_atom_site_type_symbol
_atom_site_label
_atom_site_fract_x
_atom_site_fract_y
_atom_site_fract_z
Si Si1 0.628477 0.272904 0.671252
Si Si2 0.440905 0.500000 0.333444
Si Si3 0.715265 0.627699 0.670622
Si Si4 0.326837 0.141961 0.671214
Si Si5 0.217021 0.000000 0.826227
Si Si6 0.058188 0.130520 0.171078
Si Si7 0.320534 0.000000 0.329531
O O1 0.612272 0.273761 0.500000
O O2 0.680361 0.310130 0.695651
O O3 0.637701 0.199046 0.736921
O O4 0.584613 0.305061 0.764891
O O5 0.500000 0.500000 0.329888
O O6 0.420299 0.500000 0.500000
O O7 0.421169 0.434723 0.252085
O O8 0.718697 0.607265 0.500000
O O9 0.770409 0.644510 0.733316
O O10 0.691980 0.565810 0.759471
O O11 0.323511 0.159449 0.500000
O O12 0.350501 0.068499 0.699381
O O13 0.274362 0.000000 0.779381
O O14 0.210697 0.000000 0.000000
O O15 0.000000 0.139842 0.199272
O O16 0.070674 0.122620 0.000000
O O17 0.301774 0.000000 0.500000
#
# Coordination Sequence:
#
# PCOD8265641 Si02
#       7
#    16   8  16  16   8  16   8
#     4  10  19  30  48  72  94 119 155 195 231 272
#     4   9  17  32  55  76  91 114 154 200 237 270
#     4   9  17  30  46  64  91 125 156 187 228 276
#     4   8  14  27  48  72  94 119 152 188 227 274
#     4  10  18  27  41  62  89 123 162 197 224 256
#     4  10  21  36  51  68  94 126 156 189 233 280
#     4   8  14  28  49  67  89 122 155 187 228 279
#
# _framework density 17.760055999999999
#
# number of rings (size 3 to 8) (size 9 to 14) (size 15 to 20)
#    0.000    2.818    0.000    3.273    0.000    5.818 
#    0.000    4.545    0.000    5.455    0.000    0.636 
#    0.000    5.091    0.000    0.000    0.000    0.000 
#
# Total GULP energy -545272.348010 kJ/mol
# GULP energy per Si atom -12392.553364 kJ/mol
# Density = 1.771963 g / cm^3
# Si number density = 17.760056 Si / 1000 Ang^3
#
#
#
# Elastic Constant Matrix: (Units=GPa)
#
#
# Indices 1 2 3 4 5 6 
#
# 1 41.7604 43.7499 30.5906 0.0000 0.0000 0.0000
# 2 43.7499 167.7057 53.3928 0.0000 0.0000 0.0000
# 3 30.5906 53.3928 81.8139 0.0000 0.0000 0.0000
# 4 0.0000 0.0000 0.0000 10.7077 0.0000 0.0000
# 5 0.0000 0.0000 0.0000 0.0000 17.2470 0.0000
# 6 0.0000 0.0000 0.0000 0.0000 0.0000 15.4740
#
#
#
# Elastic Compliance Matrix: (Units=1/GPa)
#
#
# Indices 1 2 3 4 5 6 
#
# 1 0.038367 -0.006869 -0.009863 0.000000 0.000000 0.000000
# 2 -0.006869 0.008756 -0.003146 0.000000 0.000000 0.000000
# 3 -0.009863 -0.003146 0.017964 0.000000 0.000000 0.000000
# 4 0.000000 0.000000 0.000000 0.093391 0.000000 0.000000
# 5 0.000000 0.000000 0.000000 0.000000 0.057981 0.000000
# 6 0.000000 0.000000 0.000000 0.000000 0.000000 0.064625
#
#
# Mechanical properties :
#
#
# Convention : Reuss Voigt Hill
#
# Bulk Modulus (GPa) = 39.47677 60.74962 50.11319
# Shear Modulus (GPa) = 15.18446 19.58884 17.38665
#
# Velocity S-wave (km/s) = 2.92717 3.32470 3.13225
# Velocity P-wave (km/s) = 5.80522 7.00130 6.43113
#
# Compressibility (1/GPa) = 0.02533135
#
# Stress axis : x y z
#
# Youngs Moduli (GPa) = 26.06403 114.20219 55.66711
#
# Poissons Ratio (x) = 0.78444 0.54904
# Poissons Ratio (y) = 0.17903 0.17514
# Poissons Ratio (z) = 0.25707 0.35931
#
# Static dielectric constant tensor:
#      x y z
#    x 2.919650 0.000000 0.000000 
#    y 0.000000 3.740830 0.000000 
#    z 0.000000 0.000000 3.085020 
# 
# 
# High freq. dielectric constant tensor:
#      x y z
#    x 1.639940 0.000000 0.000000 
#    y 0.000000 1.701840 0.000000 
#    z 0.000000 0.000000 1.663310 
# 
# From -- ./inp_files/18572.got.cif
#   From: 2010.03.12/outbox.cif.g09.slc.cpg/sg65_10_cif.got.tgz:18572.got - 2010.04.10 20:52:16.
