data_PCOD8265919
_publ_section_title
;
Structure prediction by ZEFSAII (Michael W. Deem and Ramdas Pophale) SiO2 
 PCOD8265919
Probable space group: C M M M
;
_chemical_formula_sum "Si O2"
_cell_formula_units_Z 96
_cell_length_a 17.826935
_cell_length_b 25.329318
_cell_length_c 14.490080
_cell_angle_alpha 90.000000
_cell_angle_beta 90.000000
_cell_angle_gamma 90.000000
_cell_volume 6542.910213
_symmetry_space_group_name_H-M "C M M M"
_symmetry_group_IT_number 65
_symmetry_cell_setting 'orthorhombic'
loop_
_space_group_symop_operation_xyz
x,y,z
-x,-y,z
x,-y,-z
-x,y,-z
-x,-y,-z
x,y,-z
-x,y,z
x,-y,z
1/2+x,1/2+y,z
1/2-x,1/2-y,z
1/2+x,1/2-y,-z
1/2-x,1/2+y,-z
1/2-x,1/2-y,-z
1/2+x,1/2+y,-z
1/2-x,1/2+y,z
1/2+x,1/2-y,z
loop_
_atom_site_type_symbol
_atom_site_label
_atom_site_fract_x
_atom_site_fract_y
_atom_site_fract_z
Si Si1 0.413617 0.440212 0.768482
Si Si2 0.412831 0.751815 0.106271
Si Si3 0.416375 0.635933 0.395075
Si Si4 0.663385 0.643030 0.892415
Si Si5 0.790630 0.306161 0.210272
Si Si6 0.236745 0.188867 0.399934
O O1 0.500000 0.438357 0.798533
O O2 0.383809 0.500000 0.764014
O O3 0.401572 0.414877 0.667980
O O4 0.366612 0.409408 0.844814
O O5 0.500000 0.758830 0.122772
O O6 0.389860 0.692391 0.134147
O O7 0.373669 0.796035 0.170775
O O8 0.389549 0.761882 0.000000
O O9 0.412001 0.615924 0.500000
O O10 0.500000 0.660148 0.374878
O O11 0.351377 0.679058 0.375151
O O12 0.747732 0.654564 0.858562
O O13 0.664699 0.631947 0.000000
O O14 0.750000 0.250000 0.213072
O O15 0.788762 0.331137 0.314471
O O16 0.256655 0.161829 0.500000
O O17 0.250000 0.250000 0.412342
#
# Coordination Sequence:
#
# PCOD8265919 Si02
#       6
#    16  16  16  16  16  16
#     4  10  20  31  42  59  83 110 144 184 219 249
#     4   9  17  28  43  63  85 110 143 179 209 244
#     4   9  17  30  47  63  81 111 148 180 210 247
#     4  10  18  29  43  59  82 114 147 176 209 252
#     4   9  16  27  42  62  82 109 139 171 209 249
#     4   9  16  27  42  62  85 108 137 169 206 252
#
# _framework density 14.672370000000001
#
# number of rings (size 3 to 8) (size 9 to 14) (size 15 to 20)
#    0.000    2.667    1.667    1.000    0.000    3.667 
#    0.000    2.500    0.000    0.500    0.000    0.000 
#    0.000    0.667    0.000    3.500    0.000    5.833 
#
# Total GULP energy -594806.300737 kJ/mol
# GULP energy per Si atom -12391.797932 kJ/mol
# Density = 1.463897 g / cm^3
# Si number density = 14.672370 Si / 1000 Ang^3
#
#
#
# Elastic Constant Matrix: (Units=GPa)
#
#
# Indices 1 2 3 4 5 6 
#
# 1 73.8310 46.7291 45.7749 0.0000 0.0000 0.0000
# 2 46.7291 70.4603 40.5217 0.0000 0.0000 0.0000
# 3 45.7749 40.5217 95.5157 0.0000 0.0000 0.0000
# 4 0.0000 0.0000 0.0000 -10.7012 0.0000 0.0000
# 5 0.0000 0.0000 0.0000 0.0000 22.9693 0.0000
# 6 0.0000 0.0000 0.0000 0.0000 0.0000 18.7083
#
#
#
# Elastic Compliance Matrix: (Units=1/GPa)
#
#
# Indices 1 2 3 4 5 6 
#
# 1 0.026390 -0.013529 -0.006907 0.000000 0.000000 0.000000
# 2 -0.013529 0.025709 -0.004423 0.000000 0.000000 0.000000
# 3 -0.006907 -0.004423 0.015656 0.000000 0.000000 0.000000
# 4 0.000000 0.000000 0.000000 -0.093448 0.000000 0.000000
# 5 0.000000 0.000000 0.000000 0.000000 0.043536 0.000000
# 6 0.000000 0.000000 0.000000 0.000000 0.000000 0.053452
#
#
# Mechanical properties :
#
#
# Convention : Reuss Voigt Hill
#
# Bulk Modulus (GPa) = 55.44617 56.20651 55.82634
# Shear Modulus (GPa) = 39.36178 13.31404 26.33791
#
# Velocity S-wave (km/s) = 5.18511 3.01561 4.24142
# Velocity P-wave (km/s) = 8.58596 7.10747 7.88146
#
# Compressibility (1/GPa) = 0.01803551
#
# Stress axis : x y z
#
# Youngs Moduli (GPa) = 37.89312 38.89754 63.87268
#
# Poissons Ratio (x) = 0.52626 0.44120
# Poissons Ratio (y) = 0.51267 0.28250
# Poissons Ratio (z) = 0.26174 0.17204
#
# Static dielectric constant tensor:
#      x y z
#    x 2.838960 0.000000 0.000000 
#    y 0.000000 2.556220 0.000000 
#    z 0.000000 0.000000 3.333540 
# 
# 
# High freq. dielectric constant tensor:
#      x y z
#    x 1.542390 0.000000 0.000000 
#    y 0.000000 1.513330 0.000000 
#    z 0.000000 0.000000 1.586190 
# 
# From -- ./inp_files/44544.got.cif
#   From: 2010.03.12/outbox.cif.g09.slc.cpg/sg65_23_cif.got.tgz:44544.got - 2010.04.10 20:52:16.
