data_PCOD8265175
_publ_section_title
;
Structure prediction by ZEFSAII (Michael W. Deem and Ramdas Pophale) SiO2 
 PCOD8265175
Probable space group: C M M M
;
_chemical_formula_sum "Si O2"
_cell_formula_units_Z 96
_cell_length_a 8.696159
_cell_length_b 24.094702
_cell_length_c 25.713990
_cell_angle_alpha 90.000000
_cell_angle_beta 90.000000
_cell_angle_gamma 90.000000
_cell_volume 5387.887287
_symmetry_space_group_name_H-M "C M M M"
_symmetry_group_IT_number 65
_symmetry_cell_setting 'orthorhombic'
loop_
_space_group_symop_operation_xyz
x,y,z
-x,-y,z
x,-y,-z
-x,y,-z
-x,-y,-z
x,y,-z
-x,y,z
x,-y,z
1/2+x,1/2+y,z
1/2-x,1/2-y,z
1/2+x,1/2-y,-z
1/2-x,1/2+y,-z
1/2-x,1/2-y,-z
1/2+x,1/2+y,-z
1/2-x,1/2+y,z
1/2+x,1/2-y,z
loop_
_atom_site_type_symbol
_atom_site_label
_atom_site_fract_x
_atom_site_fract_y
_atom_site_fract_z
Si Si1 0.816364 0.688777 0.749654
Si Si2 0.822871 0.000000 0.324909
Si Si3 0.324050 0.887012 0.840463
Si Si4 0.318920 0.691891 0.557954
Si Si5 0.183416 0.437243 0.942579
Si Si6 0.183208 0.879675 0.345974
Si Si7 0.171608 0.500000 0.219435
O O1 0.750000 0.750000 0.745700
O O2 0.750346 0.659980 0.802836
O O3 0.762513 0.653146 0.700640
O O4 0.000000 0.690458 0.749280
O O5 0.752713 0.057045 0.347924
O O6 0.799837 0.000000 0.263386
O O7 0.000000 0.000000 0.338823
O O8 0.500000 0.869980 0.846630
O O9 0.250499 0.894358 0.898561
O O10 0.303558 0.946693 0.815282
O O11 0.259860 0.675757 0.500000
O O12 0.500000 0.698366 0.558174
O O13 0.250000 0.750000 0.576443
O O14 0.265439 0.645694 0.598878
O O15 0.245897 0.500000 0.933914
O O16 0.000000 0.439081 0.937724
O O17 0.233286 0.416003 0.000000
O O18 0.000000 0.877102 0.337477
O O19 0.000000 0.500000 0.244192
#
# Coordination Sequence:
#
# PCOD8265175 Si02
#       7
#    16   8  16  16  16  16   8
#     4  11  22  34  49  69  95 127 162 200 241 283
#     4  10  20  32  47  71 103 131 156 189 232 282
#     4   9  16  26  43  66  94 124 154 191 236 284
#     4   9  18  33  52  72  94 123 160 200 239 277
#     4   8  12  19  35  62  94 121 145 183 235 281
#     4  10  20  34  51  73 101 128 157 194 236 284
#     4  10  16  28  47  69  95 125 160 193 230 284
#
# _framework density 17.817746
#
# number of rings (size 3 to 8) (size 9 to 14) (size 15 to 20)
#    0.000    2.500    2.500    1.500    0.000    2.000 
#    0.000    0.417    0.000    3.000    0.000    0.000 
#    0.000   10.667    0.000    0.000    0.000    0.167 
#
# Total GULP energy -594694.585092 kJ/mol
# GULP energy per Si atom -12389.470523 kJ/mol
# Density = 1.777719 g / cm^3
# Si number density = 17.817746 Si / 1000 Ang^3
#
#
#
# Elastic Constant Matrix: (Units=GPa)
#
#
# Indices 1 2 3 4 5 6 
#
# 1 18.4291 23.2498 22.4317 0.0000 0.0000 0.0000
# 2 23.2498 144.6654 84.6581 0.0000 0.0000 0.0000
# 3 22.4317 84.6581 151.9469 0.0000 0.0000 0.0000
# 4 0.0000 0.0000 0.0000 9.8479 0.0000 0.0000
# 5 0.0000 0.0000 0.0000 0.0000 15.2732 0.0000
# 6 0.0000 0.0000 0.0000 0.0000 0.0000 6.9552
#
#
#
# Elastic Compliance Matrix: (Units=1/GPa)
#
#
# Indices 1 2 3 4 5 6 
#
# 1 0.071778 -0.007916 -0.006186 0.000000 0.000000 0.000000
# 2 -0.007916 0.011130 -0.005032 0.000000 0.000000 0.000000
# 3 -0.006186 -0.005032 0.010298 0.000000 0.000000 0.000000
# 4 0.000000 0.000000 0.000000 0.101545 0.000000 0.000000
# 5 0.000000 0.000000 0.000000 0.000000 0.065474 0.000000
# 6 0.000000 0.000000 0.000000 0.000000 0.000000 0.143778
#
#
# Mechanical properties :
#
#
# Convention : Reuss Voigt Hill
#
# Bulk Modulus (GPa) = 18.20245 63.96897 41.08571
# Shear Modulus (GPa) = 10.85578 18.72869 14.79223
#
# Velocity S-wave (km/s) = 2.47101 3.24562 2.88444
# Velocity P-wave (km/s) = 4.28711 7.07285 5.84827
#
# Compressibility (1/GPa) = 0.05493767
#
# Stress axis : x y z
#
# Youngs Moduli (GPa) = 13.93180 89.85065 97.10324
#
# Poissons Ratio (x) = 0.71122 0.60071
# Poissons Ratio (y) = 0.11028 0.48866
# Poissons Ratio (z) = 0.08619 0.45216
#
# Static dielectric constant tensor:
#      x y z
#    x 2.986510 0.000000 0.000000 
#    y 0.000000 3.457350 0.000000 
#    z 0.000000 0.000000 3.748630 
# 
# 
# High freq. dielectric constant tensor:
#      x y z
#    x 1.649170 0.000000 0.000000 
#    y 0.000000 1.679350 0.000000 
#    z 0.000000 0.000000 1.698890 
# 
# From -- ./inp_files/73487.got.cif
#   From: 2010.03.12/outbox.cif.g09.slc.cpg/sg65_37_cif.got.tgz:73487.got - 2010.04.10 20:52:16.
