data_PCOD8265689
_publ_section_title
;
Structure prediction by ZEFSAII (Michael W. Deem and Ramdas Pophale) SiO2 
 PCOD8265689
Probable space group: C M M M
;
_chemical_formula_sum "Si O2"
_cell_formula_units_Z 104
_cell_length_a 19.921383
_cell_length_b 25.088329
_cell_length_c 14.634039
_cell_angle_alpha 90.000000
_cell_angle_beta 90.000000
_cell_angle_gamma 90.000000
_cell_volume 7314.007973
_symmetry_space_group_name_H-M "C M M M"
_symmetry_group_IT_number 65
_symmetry_cell_setting 'orthorhombic'
loop_
_space_group_symop_operation_xyz
x,y,z
-x,-y,z
x,-y,-z
-x,y,-z
-x,-y,-z
x,y,-z
-x,y,z
x,-y,z
1/2+x,1/2+y,z
1/2-x,1/2-y,z
1/2+x,1/2-y,-z
1/2-x,1/2+y,-z
1/2-x,1/2-y,-z
1/2+x,1/2+y,-z
1/2-x,1/2+y,z
1/2+x,1/2-y,z
loop_
_atom_site_type_symbol
_atom_site_label
_atom_site_fract_x
_atom_site_fract_y
_atom_site_fract_z
Si Si1 0.857573 0.397699 0.390886
Si Si2 0.188220 0.284166 0.606299
Si Si3 0.922890 0.798954 0.395508
Si Si4 0.421486 0.398363 0.286746
Si Si5 0.420126 0.439798 0.900649
Si Si6 0.000000 0.561002 0.608645
Si Si7 0.278751 0.000000 0.608148
Si Si8 0.625639 0.500000 0.391615
O O1 0.856901 0.395275 0.500000
O O2 0.823984 0.343207 0.351147
O O3 0.934167 0.406870 0.356702
O O4 0.813893 0.446962 0.352871
O O5 0.204823 0.291039 0.500000
O O6 0.250000 0.250000 0.650728
O O7 0.118507 0.254131 0.623556
O O8 0.915122 0.817888 0.500000
O O9 0.890841 0.845671 0.333213
O O10 0.000000 0.786145 0.371925
O O11 0.500000 0.389262 0.279247
O O12 0.390714 0.405921 0.184499
O O13 0.409638 0.448423 0.351313
O O14 0.500000 0.440459 0.895037
O O15 0.393268 0.500000 0.890592
O O16 0.397331 0.416467 0.000000
O O17 0.000000 0.500000 0.646319
O O18 0.000000 0.558120 0.500000
O O19 0.202423 0.000000 0.640023
O O20 0.285708 0.000000 0.500000
O O21 0.617014 0.500000 0.500000
#
# Coordination Sequence:
#
# PCOD8265689 Si02
#       8
#    16  16  16  16  16   8   8   8
#     4   9  16  26  39  53  69  89 120 163 209 245
#     4   9  18  28  39  50  66  97 135 168 194 225
#     4   9  18  29  38  51  74 103 134 166 194 219
#     4  10  18  28  39  53  74 101 133 166 194 222
#     4   8  13  23  39  56  72  90 117 158 206 244
#     4   9  14  22  38  58  72  82 106 157 219 262
#     4   9  18  28  36  51  72  97 125 159 201 236
#     4  11  21  26  35  50  73 109 142 164 184 214
#
# _framework density 14.219290000000001
#
# number of rings (size 3 to 8) (size 9 to 14) (size 15 to 20)
#    0.000    2.846    1.538    1.154    3.231    1.231 
#    0.000    0.000    0.000    0.000    0.000    0.000 
#    0.000    0.615    0.000    0.000    0.000    0.000 
#
# Total GULP energy -644324.686213 kJ/mol
# GULP energy per Si atom -12390.859350 kJ/mol
# Density = 1.418693 g / cm^3
# Si number density = 14.219290 Si / 1000 Ang^3
#
#
#
# Elastic Constant Matrix: (Units=GPa)
#
#
# Indices 1 2 3 4 5 6 
#
# 1 35.6650 29.1377 9.3027 0.0000 0.0000 0.0000
# 2 29.1377 109.1709 23.7367 0.0000 0.0000 0.0000
# 3 9.3027 23.7367 52.6234 0.0000 0.0000 0.0000
# 4 0.0000 0.0000 0.0000 3.0881 0.0000 0.0000
# 5 0.0000 0.0000 0.0000 0.0000 3.2434 0.0000
# 6 0.0000 0.0000 0.0000 0.0000 0.0000 -31.3502
#
#
#
# Elastic Compliance Matrix: (Units=1/GPa)
#
#
# Indices 1 2 3 4 5 6 
#
# 1 0.036098 -0.009144 -0.002257 0.000000 0.000000 0.000000
# 2 -0.009144 0.012472 -0.004009 0.000000 0.000000 0.000000
# 3 -0.002257 -0.004009 0.021210 0.000000 0.000000 0.000000
# 4 0.000000 0.000000 0.000000 0.323820 0.000000 0.000000
# 5 0.000000 0.000000 0.000000 0.000000 0.308320 0.000000
# 6 0.000000 0.000000 0.000000 0.000000 0.000000 -0.031898
#
#
# Mechanical properties :
#
#
# Convention : Reuss Voigt Hill
#
# Bulk Modulus (GPa) = 25.66717 35.75704 30.71210
# Shear Modulus (GPa) = 7.00447 4.01508 5.50978
#
# Velocity S-wave (km/s) = 2.22188 1.68221 1.97060
# Velocity P-wave (km/s) = 4.96714 5.38280 5.17914
#
# Compressibility (1/GPa) = 0.03896028
#
# Stress axis : x y z
#
# Youngs Moduli (GPa) = 27.70269 80.17861 47.14669
#
# Poissons Ratio (x) = 0.73313 0.10640
# Poissons Ratio (y) = 0.25331 0.18903
# Poissons Ratio (z) = 0.06252 0.32146
#
# Static dielectric constant tensor:
#      x y z
#    x 2.767220 0.000000 0.000000 
#    y 0.000000 2.947390 0.000000 
#    z 0.000000 0.000000 2.592060 
# 
# 
# High freq. dielectric constant tensor:
#      x y z
#    x 1.532640 0.000000 0.000000 
#    y 0.000000 1.546860 0.000000 
#    z 0.000000 0.000000 1.476870 
# 
# From -- ./inp_files/44760.got.cif
#   From: 2010.03.12/outbox.cif.g09.slc.cpg/sg65_23_cif.got.tgz:44760.got - 2010.04.10 20:52:16.
