data_PCOD8265905
_publ_section_title
;
Structure prediction by ZEFSAII (Michael W. Deem and Ramdas Pophale) SiO2 
 PCOD8265905
Probable space group: C M M M
;
_chemical_formula_sum "Si O2"
_cell_formula_units_Z 80
_cell_length_a 24.782634
_cell_length_b 8.842964
_cell_length_c 20.191410
_cell_angle_alpha 90.000000
_cell_angle_beta 90.000000
_cell_angle_gamma 90.000000
_cell_volume 4424.986679
_symmetry_space_group_name_H-M "C M M M"
_symmetry_group_IT_number 65
_symmetry_cell_setting 'orthorhombic'
loop_
_space_group_symop_operation_xyz
x,y,z
-x,-y,z
x,-y,-z
-x,y,-z
-x,-y,-z
x,y,-z
-x,y,z
x,-y,z
1/2+x,1/2+y,z
1/2-x,1/2-y,z
1/2+x,1/2-y,-z
1/2-x,1/2+y,-z
1/2-x,1/2-y,-z
1/2+x,1/2+y,-z
1/2-x,1/2+y,z
1/2+x,1/2-y,z
loop_
_atom_site_type_symbol
_atom_site_label
_atom_site_fract_x
_atom_site_fract_y
_atom_site_fract_z
Si Si1 0.607699 0.824033 0.741958
Si Si2 0.000000 0.671964 0.880767
Si Si3 0.191364 0.822728 0.000000
Si Si4 0.808178 0.321104 0.368442
Si Si5 0.500000 0.325099 0.255709
Si Si6 0.809612 0.819248 0.500000
Si Si7 0.382231 0.826508 0.893972
O O1 0.657417 0.778273 0.695897
O O2 0.554357 0.743914 0.713060
O O3 0.620888 0.775053 0.817340
O O4 0.595680 0.000000 0.739579
O O5 0.000000 0.792217 0.822237
O O6 0.944146 0.694626 0.921436
O O7 0.000000 0.500000 0.851111
O O8 0.250000 0.750000 0.000000
O O9 0.158468 0.776235 0.065208
O O10 0.199221 0.000000 0.000000
O O11 0.803134 0.500000 0.379409
O O12 0.750000 0.250000 0.355847
O O13 0.837023 0.245392 0.432985
O O14 0.500000 0.500000 0.270731
O O15 0.750000 0.750000 0.500000
O O16 0.809389 0.000000 0.500000
O O17 0.364018 0.000000 0.902819
#
# Coordination Sequence:
#
# PCOD8265905 Si02
#       7
#    16   8   8  16   8   8  16
#     4   9  19  35  55  77 104 137 171 206 252 307
#     4   8  16  33  57  80 104 131 161 200 253 309
#     4  12  26  41  54  71  99 138 176 212 255 306
#     4  10  19  32  51  76 104 135 170 210 254 302
#     4  10  18  28  49  78 107 136 168 208 252 294
#     4  10  18  30  48  71 102 137 170 208 252 300
#     4   9  18  36  58  79 102 132 169 208 251 303
#
# _framework density 18.079152000000001
#
# number of rings (size 3 to 8) (size 9 to 14) (size 15 to 20)
#    0.000    2.400    0.000    5.700    0.000    6.000 
#    0.000    4.000    0.000    0.600    0.000    4.200 
#    0.000    0.000    0.000    0.000    0.000    0.000 
#
# Total GULP energy -495764.452421 kJ/mol
# GULP energy per Si atom -12394.111311 kJ/mol
# Density = 1.803800 g / cm^3
# Si number density = 18.079152 Si / 1000 Ang^3
#
#
#
# Elastic Constant Matrix: (Units=GPa)
#
#
# Indices 1 2 3 4 5 6 
#
# 1 132.6990 62.3129 68.9458 0.0000 0.0000 0.0000
# 2 62.3129 105.5945 52.4920 0.0000 0.0000 0.0000
# 3 68.9458 52.4920 108.8528 0.0000 0.0000 0.0000
# 4 0.0000 0.0000 0.0000 26.9900 0.0000 0.0000
# 5 0.0000 0.0000 0.0000 0.0000 -2.8986 0.0000
# 6 0.0000 0.0000 0.0000 0.0000 0.0000 28.9872
#
#
#
# Elastic Compliance Matrix: (Units=1/GPa)
#
#
# Indices 1 2 3 4 5 6 
#
# 1 0.012738 -0.004612 -0.005844 0.000000 0.000000 0.000000
# 2 -0.004612 0.014126 -0.003891 0.000000 0.000000 0.000000
# 3 -0.005844 -0.003891 0.014765 0.000000 0.000000 0.000000
# 4 0.000000 0.000000 0.000000 0.037051 0.000000 0.000000
# 5 0.000000 0.000000 0.000000 0.000000 -0.344998 0.000000
# 6 0.000000 0.000000 0.000000 0.000000 0.000000 0.034498
#
#
# Mechanical properties :
#
#
# Convention : Reuss Voigt Hill
#
# Bulk Modulus (GPa) = 77.31015 79.40530 78.35772
# Shear Modulus (GPa) = -25.14885 21.50876 -1.82005
#
# Velocity S-wave (km/s) = -3.73371 3.45294 -1.00444
# Velocity P-wave (km/s) = 4.92619 7.74037 6.48771
#
# Compressibility (1/GPa) = 0.01293491
#
# Stress axis : x y z
#
# Youngs Moduli (GPa) = 78.50689 70.79253 67.72961
#
# Poissons Ratio (x) = 0.32647 0.39582
# Poissons Ratio (y) = 0.36204 0.26353
# Poissons Ratio (z) = 0.45880 0.27545
#
# Static dielectric constant tensor:
#      x y z
#    x 3.440530 0.000000 0.000000 
#    y 0.000000 3.281980 0.000000 
#    z 0.000000 0.000000 3.622080 
# 
# 
# High freq. dielectric constant tensor:
#      x y z
#    x 1.692570 0.000000 0.000000 
#    y 0.000000 1.700770 0.000000 
#    z 0.000000 0.000000 1.686680 
# 
# From -- ./inp_files/65102.got.cif
#   From: 2010.03.12/outbox.cif.g09.slc.cpg/sg65_33_cif.got.tgz:65102.got - 2010.04.10 20:52:16.
