data_PCOD8265668
_publ_section_title
;
Structure prediction by ZEFSAII (Michael W. Deem and Ramdas Pophale) SiO2 
 PCOD8265668
Probable space group: C M M M
;
_chemical_formula_sum "Si O2"
_cell_formula_units_Z 112
_cell_length_a 27.297477
_cell_length_b 13.806895
_cell_length_c 15.846849
_cell_angle_alpha 90.000000
_cell_angle_beta 90.000000
_cell_angle_gamma 90.000000
_cell_volume 5972.572778
_symmetry_space_group_name_H-M "C M M M"
_symmetry_group_IT_number 65
_symmetry_cell_setting 'orthorhombic'
loop_
_space_group_symop_operation_xyz
x,y,z
-x,-y,z
x,-y,-z
-x,y,-z
-x,-y,-z
x,y,-z
-x,y,z
x,-y,z
1/2+x,1/2+y,z
1/2-x,1/2-y,z
1/2+x,1/2-y,-z
1/2-x,1/2+y,-z
1/2-x,1/2-y,-z
1/2+x,1/2+y,-z
1/2-x,1/2+y,z
1/2+x,1/2-y,z
loop_
_atom_site_type_symbol
_atom_site_label
_atom_site_fract_x
_atom_site_fract_y
_atom_site_fract_z
Si Si1 0.845433 0.886685 0.156136
Si Si2 0.727729 0.609654 0.593387
Si Si3 0.947463 0.890187 0.099394
Si Si4 0.855635 0.207280 0.674894
Si Si5 0.444558 0.610222 0.401498
Si Si6 0.191932 0.612250 0.735551
Si Si7 0.243546 0.385761 0.093366
O O1 0.898014 0.836800 0.132172
O O2 0.836849 0.867417 0.254056
O O3 0.798667 0.842726 0.105377
O O4 0.848252 0.000000 0.135826
O O5 0.751306 0.625237 0.500000
O O6 0.708398 0.500000 0.601996
O O7 0.681806 0.683429 0.599028
O O8 0.766112 0.632181 0.667074
O O9 0.000000 0.842361 0.128584
O O10 0.947342 0.000000 0.133633
O O11 0.944951 0.889217 0.000000
O O12 0.911302 0.186052 0.648988
O O13 0.852962 0.318415 0.707879
O O14 0.439846 0.631383 0.500000
O O15 0.500000 0.626926 0.370949
O O16 0.428348 0.500000 0.381683
O O17 0.175081 0.500000 0.734901
O O18 0.208792 0.647178 0.829269
O O19 0.247219 0.500000 0.099287
O O20 0.224277 0.353122 0.000000
#
# Coordination Sequence:
#
# PCOD8265668 Si02
#       7
#    16  16  16  16  16  16  16
#     4  10  18  27  43  70 100 130 171 221 265 323
#     4  10  20  34  53  77 107 140 172 211 260 314
#     4   8  14  25  40  60  92 132 166 198 247 313
#     4  12  21  31  52  76 104 138 177 216 261 312
#     4   9  19  36  57  83 114 144 175 212 257 317
#     4  10  22  38  51  72 105 138 183 231 269 315
#     4   9  17  32  52  69  96 141 183 226 280 329
#
# _framework density 18.752386999999999
#
# number of rings (size 3 to 8) (size 9 to 14) (size 15 to 20)
#    0.000    2.286    1.429    3.429    0.000    5.143 
#    0.000    3.571    0.000    0.429    0.000    1.000 
#    0.000    0.000    0.000    5.143    0.000    0.143 
#
# Total GULP energy -693774.615277 kJ/mol
# GULP energy per Si atom -12388.832416 kJ/mol
# Density = 1.870971 g / cm^3
# Si number density = 18.752387 Si / 1000 Ang^3
#
#
#
# Elastic Constant Matrix: (Units=GPa)
#
#
# Indices 1 2 3 4 5 6 
#
# 1 85.6087 44.1631 38.3908 0.0000 0.0000 0.0000
# 2 44.1631 69.3073 26.4643 0.0000 0.0000 0.0000
# 3 38.3908 26.4643 107.9002 0.0000 0.0000 0.0000
# 4 0.0000 0.0000 0.0000 9.1057 0.0000 0.0000
# 5 0.0000 0.0000 0.0000 0.0000 28.8728 0.0000
# 6 0.0000 0.0000 0.0000 0.0000 0.0000 19.3836
#
#
#
# Elastic Compliance Matrix: (Units=1/GPa)
#
#
# Indices 1 2 3 4 5 6 
#
# 1 0.018965 -0.010491 -0.004175 0.000000 0.000000 0.000000
# 2 -0.010491 0.021722 -0.001595 0.000000 0.000000 0.000000
# 3 -0.004175 -0.001595 0.011144 0.000000 0.000000 0.000000
# 4 0.000000 0.000000 0.000000 0.109821 0.000000 0.000000
# 5 0.000000 0.000000 0.000000 0.000000 0.034635 0.000000
# 6 0.000000 0.000000 0.000000 0.000000 0.000000 0.051590
#
#
# Mechanical properties :
#
#
# Convention : Reuss Voigt Hill
#
# Bulk Modulus (GPa) = 51.78480 53.42807 52.60644
# Shear Modulus (GPa) = 17.43163 21.72565 19.57864
#
# Velocity S-wave (km/s) = 3.05219 3.40745 3.23470
# Velocity P-wave (km/s) = 6.33215 6.63582 6.48576
#
# Compressibility (1/GPa) = 0.01931068
#
# Stress axis : x y z
#
# Youngs Moduli (GPa) = 52.72878 46.03574 89.73082
#
# Poissons Ratio (x) = 0.48294 0.37460
# Poissons Ratio (y) = 0.55315 0.14314
# Poissons Ratio (z) = 0.22013 0.07344
#
# Static dielectric constant tensor:
#      x y z
#    x 3.352790 0.000000 0.000000 
#    y 0.000000 3.173830 0.000000 
#    z 0.000000 0.000000 3.608480 
# 
# 
# High freq. dielectric constant tensor:
#      x y z
#    x 1.706600 0.000000 0.000000 
#    y 0.000000 1.684670 0.000000 
#    z 0.000000 0.000000 1.742390 
# 
# From -- ./inp_files/45761.got.cif
#   From: 2010.03.12/outbox.cif.g09.slc.cpg/sg65_23_cif.got.tgz:45761.got - 2010.04.10 20:52:16.
