data_PCOD8265231
_publ_section_title
;
Structure prediction by ZEFSAII (Michael W. Deem and Ramdas Pophale) SiO2 
 PCOD8265231
Probable space group: C M M M
;
_chemical_formula_sum "Si O2"
_cell_formula_units_Z 104
_cell_length_a 19.450845
_cell_length_b 8.786194
_cell_length_c 33.836126
_cell_angle_alpha 90.000000
_cell_angle_beta 90.000000
_cell_angle_gamma 90.000000
_cell_volume 5782.556634
_symmetry_space_group_name_H-M "C M M M"
_symmetry_group_IT_number 65
_symmetry_cell_setting 'orthorhombic'
loop_
_space_group_symop_operation_xyz
x,y,z
-x,-y,z
x,-y,-z
-x,y,-z
-x,-y,-z
x,y,-z
-x,y,z
x,-y,z
1/2+x,1/2+y,z
1/2-x,1/2-y,z
1/2+x,1/2-y,-z
1/2-x,1/2+y,-z
1/2-x,1/2-y,-z
1/2+x,1/2+y,-z
1/2-x,1/2+y,z
1/2+x,1/2-y,z
loop_
_atom_site_type_symbol
_atom_site_label
_atom_site_fract_x
_atom_site_fract_y
_atom_site_fract_z
Si Si1 0.325543 0.179576 0.415516
Si Si2 0.173924 0.819090 0.338380
Si Si3 0.676456 0.823502 0.500000
Si Si4 0.824834 0.319647 0.741008
Si Si5 0.421355 0.177359 0.813154
Si Si6 0.820535 0.321165 0.044895
Si Si7 0.080410 0.824689 0.105789
O O1 0.250000 0.250000 0.418055
O O2 0.364750 0.259877 0.378419
O O3 0.362545 0.216186 0.458302
O O4 0.321540 0.000000 0.407350
O O5 0.250000 0.750000 0.339534
O O6 0.140129 0.752248 0.298446
O O7 0.174581 0.000000 0.337085
O O8 0.750000 0.750000 0.500000
O O9 0.692288 0.000000 0.500000
O O10 0.818269 0.500000 0.735899
O O11 0.750000 0.250000 0.749263
O O12 0.874338 0.272701 0.776677
O O13 0.500000 0.220100 0.802931
O O14 0.394694 0.267466 0.851428
O O15 0.413755 0.000000 0.822441
O O16 0.813521 0.500000 0.047611
O O17 0.750000 0.250000 0.061268
O O18 0.883693 0.267920 0.071192
O O19 0.834130 0.266672 0.000000
O O20 0.000000 0.794362 0.100967
O O21 0.100129 0.000000 0.101606
#
# Coordination Sequence:
#
# PCOD8265231 Si02
#       7
#    16  16   8  16  16  16  16
#     4   9  14  21  31  45  67  97 135 176 219 265
#     4  10  17  25  37  54  78 108 142 181 225 271
#     4   8  14  20  28  42  62  92 131 174 215 260
#     4  10  19  31  48  69  92 119 153 193 235 280
#     4   9  19  36  55  73  96 128 164 201 242 287
#     4  10  21  37  57  80 107 139 173 210 251 293
#     4  10  21  36  55  79 106 136 169 205 245 291
#
# _framework density 17.985123999999999
#
# number of rings (size 3 to 8) (size 9 to 14) (size 15 to 20)
#    0.000    2.462    0.000    5.077    0.000    4.615 
#    0.000    3.077    0.000    0.000    0.000    0.000 
#    0.000    0.000    0.000    0.692    0.000   16.615 
#
# Total GULP energy -644372.021184 kJ/mol
# GULP energy per Si atom -12391.769638 kJ/mol
# Density = 1.794419 g / cm^3
# Si number density = 17.985124 Si / 1000 Ang^3
#
#
#
# Elastic Constant Matrix: (Units=GPa)
#
#
# Indices 1 2 3 4 5 6 
#
# 1 38.8558 25.2446 50.7650 0.0000 0.0000 0.0000
# 2 25.2446 95.5305 61.3081 0.0000 0.0000 0.0000
# 3 50.7650 61.3081 163.5784 0.0000 0.0000 0.0000
# 4 0.0000 0.0000 0.0000 31.3271 0.0000 0.0000
# 5 0.0000 0.0000 0.0000 0.0000 1.0291 0.0000
# 6 0.0000 0.0000 0.0000 0.0000 0.0000 19.1344
#
#
#
# Elastic Compliance Matrix: (Units=1/GPa)
#
#
# Indices 1 2 3 4 5 6 
#
# 1 0.044310 -0.003798 -0.012328 0.000000 0.000000 0.000000
# 2 -0.003798 0.014109 -0.004109 0.000000 0.000000 0.000000
# 3 -0.012328 -0.004109 0.011479 0.000000 0.000000 0.000000
# 4 0.000000 0.000000 0.000000 0.031921 0.000000 0.000000
# 5 0.000000 0.000000 0.000000 0.000000 0.971705 0.000000
# 6 0.000000 0.000000 0.000000 0.000000 0.000000 0.052262
#
#
# Mechanical properties :
#
#
# Convention : Reuss Voigt Hill
#
# Bulk Modulus (GPa) = 33.98097 63.62223 48.80160
# Shear Modulus (GPa) = 4.25147 21.00793 12.62970
#
# Velocity S-wave (km/s) = 1.53916 3.42142 2.65284
# Velocity P-wave (km/s) = 4.70039 7.14562 6.04787
#
# Compressibility (1/GPa) = 0.02942824
#
# Stress axis : x y z
#
# Youngs Moduli (GPa) = 22.56839 70.87890 87.11395
#
# Poissons Ratio (x) = 0.26917 1.07392
# Poissons Ratio (y) = 0.08571 0.35797
# Poissons Ratio (z) = 0.27822 0.29126
#
# Static dielectric constant tensor:
#      x y z
#    x 2.838360 0.000000 0.000000 
#    y 0.000000 3.342380 0.000000 
#    z 0.000000 0.000000 4.315220 
# 
# 
# High freq. dielectric constant tensor:
#      x y z
#    x 1.629440 0.000000 0.000000 
#    y 0.000000 1.710570 0.000000 
#    z 0.000000 0.000000 1.726630 
# 
# From -- ./inp_files/78375.got.cif
#   From: 2010.03.12/outbox.cif.g09.slc.cpg/sg65_40_cif.got.tgz:78375.got - 2010.04.10 20:52:16.
