data_PCOD8265608
_publ_section_title
;
Structure prediction by ZEFSAII (Michael W. Deem and Ramdas Pophale) SiO2 
 PCOD8265608
Probable space group: C M M M
;
_chemical_formula_sum "Si O2"
_cell_formula_units_Z 120
_cell_length_a 29.726403
_cell_length_b 21.822237
_cell_length_c 14.116170
_cell_angle_alpha 90.000000
_cell_angle_beta 90.000000
_cell_angle_gamma 90.000000
_cell_volume 9157.111645
_symmetry_space_group_name_H-M "C M M M"
_symmetry_group_IT_number 65
_symmetry_cell_setting 'orthorhombic'
loop_
_space_group_symop_operation_xyz
x,y,z
-x,-y,z
x,-y,-z
-x,y,-z
-x,-y,-z
x,y,-z
-x,y,z
x,-y,z
1/2+x,1/2+y,z
1/2-x,1/2-y,z
1/2+x,1/2-y,-z
1/2-x,1/2+y,-z
1/2-x,1/2-y,-z
1/2+x,1/2+y,-z
1/2-x,1/2+y,z
1/2+x,1/2-y,z
loop_
_atom_site_type_symbol
_atom_site_label
_atom_site_fract_x
_atom_site_fract_y
_atom_site_fract_z
Si Si1 0.861387 0.370919 0.888833
Si Si2 0.223030 0.842184 0.240757
Si Si3 0.586035 0.070806 0.726186
Si Si4 0.757357 0.930137 0.393919
Si Si5 0.500000 0.926998 0.390291
Si Si6 0.840219 0.371595 0.392672
Si Si7 0.180906 0.280544 0.240220
Si Si8 0.732927 0.932098 0.109801
O O1 0.903680 0.394570 0.826265
O O2 0.845944 0.303543 0.853162
O O3 0.818570 0.414198 0.867051
O O4 0.874422 0.369338 0.000000
O O5 0.212145 0.885426 0.330563
O O6 0.181915 0.793650 0.233465
O O7 0.268686 0.804534 0.248005
O O8 0.229164 0.887039 0.151424
O O9 0.542429 0.097058 0.671073
O O10 0.626337 0.079309 0.652509
O O11 0.579411 0.000000 0.751475
O O12 0.775979 0.925919 0.500000
O O13 0.707120 0.905248 0.386381
O O14 0.759069 0.000000 0.357235
O O15 0.500000 0.901797 0.500000
O O16 0.500000 0.000000 0.395839
O O17 0.853708 0.356209 0.500000
O O18 0.843002 0.307360 0.334680
O O19 0.740119 0.000000 0.151641
O O20 0.741617 0.930365 0.000000
#
# Coordination Sequence:
#
# PCOD8265608 Si02
#       8
#    16  16  16  16   8  16  16  16
#     4   9  17  28  40  52  68  89 113 145 178 208
#     4   9  15  24  34  45  65  88 109 142 180 212
#     4  10  18  27  40  56  71  89 113 138 171 215
#     4   9  16  23  32  48  67  89 117 146 179 215
#     4   9  18  30  41  55  75  93 108 132 168 209
#     4   9  16  25  37  51  67  87 113 147 179 209
#     4   8  16  25  34  49  64  84 114 141 175 216
#     4   9  16  24  35  51  67  86 114 146 181 214
#
# _framework density 13.104568
#
# number of rings (size 3 to 8) (size 9 to 14) (size 15 to 20)
#    0.000    3.000    0.000    2.400    0.000    3.200 
#    0.000    5.667    0.000    1.200    0.000    0.000 
#    0.000    0.000    0.000    0.000    0.000    0.000 
#
# Total GULP energy -743321.452788 kJ/mol
# GULP energy per Si atom -12388.690880 kJ/mol
# Density = 1.307474 g / cm^3
# Si number density = 13.104568 Si / 1000 Ang^3
#
#
#
# Elastic Constant Matrix: (Units=GPa)
#
#
# Indices 1 2 3 4 5 6 
#
# 1 24.4572 22.7458 28.9612 0.0000 0.0000 0.0000
# 2 22.7458 78.7010 43.0614 0.0000 0.0000 0.0000
# 3 28.9612 43.0614 98.4485 0.0000 0.0000 0.0000
# 4 0.0000 0.0000 0.0000 15.3588 0.0000 0.0000
# 5 0.0000 0.0000 0.0000 0.0000 14.9607 0.0000
# 6 0.0000 0.0000 0.0000 0.0000 0.0000 9.6340
#
#
#
# Elastic Compliance Matrix: (Units=1/GPa)
#
#
# Indices 1 2 3 4 5 6 
#
# 1 0.070220 -0.011821 -0.015486 0.000000 0.000000 0.000000
# 2 -0.011821 0.018694 -0.004699 0.000000 0.000000 0.000000
# 3 -0.015486 -0.004699 0.016769 0.000000 0.000000 0.000000
# 4 0.000000 0.000000 0.000000 0.065109 0.000000 0.000000
# 5 0.000000 0.000000 0.000000 0.000000 0.066842 0.000000
# 6 0.000000 0.000000 0.000000 0.000000 0.000000 0.103799
#
#
# Mechanical properties :
#
#
# Convention : Reuss Voigt Hill
#
# Bulk Modulus (GPa) = 23.99859 43.46036 33.72947
# Shear Modulus (GPa) = 11.92358 15.11325 13.51842
#
# Velocity S-wave (km/s) = 3.01969 3.39968 3.21531
# Velocity P-wave (km/s) = 5.52367 6.97472 6.29117
#
# Compressibility (1/GPa) = 0.04166912
#
# Stress axis : x y z
#
# Youngs Moduli (GPa) = 14.24089 53.49293 59.63459
#
# Poissons Ratio (x) = 0.63236 0.92353
# Poissons Ratio (y) = 0.16835 0.28024
# Poissons Ratio (z) = 0.22054 0.25138
#
# Static dielectric constant tensor:
#      x y z
#    x 2.314590 0.000000 0.000000 
#    y 0.000000 2.769780 0.000000 
#    z 0.000000 0.000000 2.872960 
# 
# 
# High freq. dielectric constant tensor:
#      x y z
#    x 1.437180 0.000000 0.000000 
#    y 0.000000 1.484960 0.000000 
#    z 0.000000 0.000000 1.515010 
# 
# From -- ./inp_files/47291.got.cif
#   From: 2010.03.12/outbox.cif.g09.slc.cpg/sg65_24_cif.got.tgz:47291.got - 2010.04.10 20:52:16.
