data_PCOD8265943
_publ_section_title
;
Structure prediction by ZEFSAII (Michael W. Deem and Ramdas Pophale) SiO2 
 PCOD8265943
Probable space group: C M M M
;
_chemical_formula_sum "Si O2"
_cell_formula_units_Z 104
_cell_length_a 27.258420
_cell_length_b 8.919731
_cell_length_c 26.864250
_cell_angle_alpha 90.000000
_cell_angle_beta 90.000000
_cell_angle_gamma 90.000000
_cell_volume 6531.713942
_symmetry_space_group_name_H-M "C M M M"
_symmetry_group_IT_number 65
_symmetry_cell_setting 'orthorhombic'
loop_
_space_group_symop_operation_xyz
x,y,z
-x,-y,z
x,-y,-z
-x,y,-z
-x,-y,-z
x,y,-z
-x,y,z
x,-y,z
1/2+x,1/2+y,z
1/2-x,1/2-y,z
1/2+x,1/2-y,-z
1/2-x,1/2+y,-z
1/2-x,1/2-y,-z
1/2+x,1/2+y,-z
1/2-x,1/2+y,z
1/2+x,1/2-y,z
loop_
_atom_site_type_symbol
_atom_site_label
_atom_site_fract_x
_atom_site_fract_y
_atom_site_fract_z
Si Si1 0.300959 0.671648 0.500000
Si Si2 0.300040 0.677663 0.208470
Si Si3 0.103329 0.176521 0.846844
Si Si4 0.850063 0.323119 0.699681
Si Si5 0.554674 0.173342 0.757090
Si Si6 0.803598 0.823008 0.392028
Si Si7 0.055350 0.178256 0.054539
O O1 0.287153 0.500000 0.500000
O O2 0.250000 0.750000 0.500000
O O3 0.327258 0.710247 0.552712
O O4 0.294838 0.500000 0.214171
O O5 0.250000 0.750000 0.188326
O O6 0.341668 0.723574 0.168519
O O7 0.312302 0.748126 0.261946
O O8 0.064084 0.238429 0.807830
O O9 0.090999 0.240667 0.901947
O O10 0.097387 0.000000 0.845955
O O11 0.840464 0.500000 0.698712
O O12 0.905941 0.282308 0.714792
O O13 0.841406 0.252904 0.645716
O O14 0.500000 0.211539 0.737356
O O15 0.560265 0.000000 0.770469
O O16 0.750000 0.750000 0.386151
O O17 0.799290 0.000000 0.381410
O O18 0.000000 0.235157 0.064534
O O19 0.055977 0.000000 0.054856
O O20 0.073294 0.235877 0.000000
#
# Coordination Sequence:
#
# PCOD8265943 Si02
#       7
#     8  16  16  16  16  16  16
#     4   8  16  28  42  60  83 112 141 171 206 245
#     4  10  19  30  43  60  83 111 143 176 209 246
#     4   9  17  28  44  65  85 108 140 175 208 245
#     4  10  19  30  44  63  86 112 141 172 208 248
#     4   9  18  31  45  62  86 114 140 168 207 253
#     4  10  18  29  44  63  88 115 143 173 207 246
#     4   8  13  22  39  64  89 108 129 164 210 253
#
# _framework density 15.922314
#
# number of rings (size 3 to 8) (size 9 to 14) (size 15 to 20)
#    0.000    2.769    0.000    2.769    0.000    2.769 
#    0.000    0.000    0.000    0.923    0.000    2.692 
#    0.000    4.308    0.000    0.000    0.000    0.462 
#
# Total GULP energy -644416.259099 kJ/mol
# GULP energy per Si atom -12392.620367 kJ/mol
# Density = 1.588607 g / cm^3
# Si number density = 15.922314 Si / 1000 Ang^3
#
#
#
# Elastic Constant Matrix: (Units=GPa)
#
#
# Indices 1 2 3 4 5 6 
#
# 1 95.2966 28.6836 62.6293 0.0000 0.0000 0.0000
# 2 28.6836 44.9052 37.1775 0.0000 0.0000 0.0000
# 3 62.6293 37.1775 149.4018 0.0000 0.0000 0.0000
# 4 0.0000 0.0000 0.0000 13.3241 0.0000 0.0000
# 5 0.0000 0.0000 0.0000 0.0000 21.6447 0.0000
# 6 0.0000 0.0000 0.0000 0.0000 0.0000 17.7160
#
#
#
# Elastic Compliance Matrix: (Units=1/GPa)
#
#
# Indices 1 2 3 4 5 6 
#
# 1 0.015569 -0.005720 -0.005103 0.000000 0.000000 0.000000
# 2 -0.005720 0.030149 -0.005105 0.000000 0.000000 0.000000
# 3 -0.005103 -0.005105 0.010103 0.000000 0.000000 0.000000
# 4 0.000000 0.000000 0.000000 0.075052 0.000000 0.000000
# 5 0.000000 0.000000 0.000000 0.000000 0.046201 0.000000
# 6 0.000000 0.000000 0.000000 0.000000 0.000000 0.056446
#
#
# Mechanical properties :
#
#
# Convention : Reuss Voigt Hill
#
# Bulk Modulus (GPa) = 41.72659 60.73160 51.22910
# Shear Modulus (GPa) = 18.29066 21.27782 19.78424
#
# Velocity S-wave (km/s) = 3.39299 3.65958 3.52880
# Velocity P-wave (km/s) = 6.45082 7.48879 6.98910
#
# Compressibility (1/GPa) = 0.02396553
#
# Stress axis : x y z
#
# Youngs Moduli (GPa) = 64.22995 33.16869 98.98192
#
# Poissons Ratio (x) = 0.18972 0.50513
# Poissons Ratio (y) = 0.36739 0.50526
# Poissons Ratio (z) = 0.32778 0.16931
#
# Static dielectric constant tensor:
#      x y z
#    x 2.992020 0.000000 0.000000 
#    y 0.000000 2.963550 0.000000 
#    z 0.000000 0.000000 3.663430 
# 
# 
# High freq. dielectric constant tensor:
#      x y z
#    x 1.588310 0.000000 0.000000 
#    y 0.000000 1.608390 0.000000 
#    z 0.000000 0.000000 1.611360 
# 
# From -- ./inp_files/76044.got.cif
#   From: 2010.03.12/outbox.cif.g09.slc.cpg/sg65_39_cif.got.tgz:76044.got - 2010.04.10 20:52:16.
