data_PCOD8265176
_publ_section_title
;
Structure prediction by ZEFSAII (Michael W. Deem and Ramdas Pophale) SiO2 
 PCOD8265176
Probable space group: C M M M
;
_chemical_formula_sum "Si O2"
_cell_formula_units_Z 72
_cell_length_a 22.507796
_cell_length_b 18.595783
_cell_length_c 10.324891
_cell_angle_alpha 90.000000
_cell_angle_beta 90.000000
_cell_angle_gamma 90.000000
_cell_volume 4321.484060
_symmetry_space_group_name_H-M "C M M M"
_symmetry_group_IT_number 65
_symmetry_cell_setting 'orthorhombic'
loop_
_space_group_symop_operation_xyz
x,y,z
-x,-y,z
x,-y,-z
-x,y,-z
-x,-y,-z
x,y,-z
-x,y,z
x,-y,z
1/2+x,1/2+y,z
1/2-x,1/2-y,z
1/2+x,1/2-y,-z
1/2-x,1/2+y,-z
1/2-x,1/2-y,-z
1/2+x,1/2+y,-z
1/2-x,1/2+y,z
1/2+x,1/2-y,z
loop_
_atom_site_type_symbol
_atom_site_label
_atom_site_fract_x
_atom_site_fract_y
_atom_site_fract_z
Si Si1 0.750000 0.250000 0.291512
Si Si2 0.431095 0.726698 0.150770
Si Si3 0.810450 0.500000 0.848262
Si Si4 0.795009 0.000000 0.646770
Si Si5 0.354498 0.349240 0.641107
Si Si6 0.841849 0.654666 0.851432
O O1 0.701361 0.294681 0.371581
O O2 0.783845 0.310439 0.210433
O O3 0.500000 0.730608 0.185150
O O4 0.399551 0.668790 0.242781
O O5 0.402893 0.804539 0.184075
O O6 0.420731 0.705656 0.000000
O O7 0.753959 0.500000 0.756895
O O8 0.849140 0.570756 0.813543
O O9 0.791187 0.500000 0.000000
O O10 0.834905 0.069832 0.668667
O O11 0.767935 0.000000 0.500000
O O12 0.386352 0.344903 0.500000
O O13 0.827870 0.662579 0.000000
#
# Coordination Sequence:
#
# PCOD8265176 Si02
#       6
#     8  16   8   8  16  16
#     4  10  16  28  48  70 103 128 163 196 241 292
#     4   9  19  36  54  71  95 129 168 208 247 286
#     4  10  18  30  47  73 103 132 164 196 234 293
#     4  10  20  34  47  70 107 136 156 191 244 299
#     4  10  20  32  50  74 100 129 163 201 244 291
#     4   9  17  28  47  73 101 129 162 202 244 285
#
# _framework density 16.660943
#
# number of rings (size 3 to 8) (size 9 to 14) (size 15 to 20)
#    0.000    2.444    2.222    0.667    0.000    2.222 
#    0.000    1.111    0.000    6.667    0.000    0.000 
#    0.000    4.889    0.000    0.000    0.000    0.000 
#
# Total GULP energy -446068.286208 kJ/mol
# GULP energy per Si atom -12390.785728 kJ/mol
# Density = 1.662302 g / cm^3
# Si number density = 16.660943 Si / 1000 Ang^3
#
#
#
# Elastic Constant Matrix: (Units=GPa)
#
#
# Indices 1 2 3 4 5 6 
#
# 1 92.5761 42.6424 54.4511 0.0000 0.0000 0.0000
# 2 42.6424 127.7847 53.3443 0.0000 0.0000 0.0000
# 3 54.4511 53.3443 81.8614 0.0000 0.0000 0.0000
# 4 0.0000 0.0000 0.0000 55.0347 0.0000 0.0000
# 5 0.0000 0.0000 0.0000 0.0000 14.0304 0.0000
# 6 0.0000 0.0000 0.0000 0.0000 0.0000 12.4356
#
#
#
# Elastic Compliance Matrix: (Units=1/GPa)
#
#
# Indices 1 2 3 4 5 6 
#
# 1 0.017919 -0.001379 -0.011020 0.000000 0.000000 0.000000
# 2 -0.001379 0.010856 -0.006157 0.000000 0.000000 0.000000
# 3 -0.011020 -0.006157 0.023558 0.000000 0.000000 0.000000
# 4 0.000000 0.000000 0.000000 0.018170 0.000000 0.000000
# 5 0.000000 0.000000 0.000000 0.000000 0.071274 0.000000
# 6 0.000000 0.000000 0.000000 0.000000 0.000000 0.080414
#
#
# Mechanical properties :
#
#
# Convention : Reuss Voigt Hill
#
# Bulk Modulus (GPa) = 65.70094 67.01087 66.35591
# Shear Modulus (GPa) = 18.91226 26.41908 22.66567
#
# Velocity S-wave (km/s) = 3.37282 3.98639 3.69237
# Velocity P-wave (km/s) = 7.39510 7.84194 7.62180
#
# Compressibility (1/GPa) = 0.01522048
#
# Stress axis : x y z
#
# Youngs Moduli (GPa) = 55.80612 92.11370 42.44790
#
# Poissons Ratio (x) = 0.12704 0.46779
# Poissons Ratio (y) = 0.07697 0.26135
# Poissons Ratio (z) = 0.61501 0.56714
#
# Static dielectric constant tensor:
#      x y z
#    x 2.929140 0.000000 0.000000 
#    y 0.000000 2.874140 0.000000 
#    z 0.000000 0.000000 3.191340 
# 
# 
# High freq. dielectric constant tensor:
#      x y z
#    x 1.613410 0.000000 0.000000 
#    y 0.000000 1.653470 0.000000 
#    z 0.000000 0.000000 1.646580 
# 
# From -- ./inp_files/26388.got.cif
#   From: 2010.03.12/outbox.cif.g09.slc.cpg/sg65_14_cif.got.tgz:26388.got - 2010.04.10 20:52:16.
