data_PCOD8265614
_publ_section_title
;
Structure prediction by ZEFSAII (Michael W. Deem and Ramdas Pophale) SiO2 
 PCOD8265614
Probable space group: C M M M
;
_chemical_formula_sum "Si O2"
_cell_formula_units_Z 96
_cell_length_a 23.192793
_cell_length_b 18.611600
_cell_length_c 13.778552
_cell_angle_alpha 90.000000
_cell_angle_beta 90.000000
_cell_angle_gamma 90.000000
_cell_volume 5947.580673
_symmetry_space_group_name_H-M "C M M M"
_symmetry_group_IT_number 65
_symmetry_cell_setting 'orthorhombic'
loop_
_space_group_symop_operation_xyz
x,y,z
-x,-y,z
x,-y,-z
-x,y,-z
-x,-y,-z
x,y,-z
-x,y,z
x,-y,z
1/2+x,1/2+y,z
1/2-x,1/2-y,z
1/2+x,1/2-y,-z
1/2-x,1/2+y,-z
1/2-x,1/2-y,-z
1/2+x,1/2+y,-z
1/2-x,1/2+y,z
1/2+x,1/2-y,z
loop_
_atom_site_type_symbol
_atom_site_label
_atom_site_fract_x
_atom_site_fract_y
_atom_site_fract_z
Si Si1 0.879293 0.353298 0.612447
Si Si2 0.673221 0.915081 0.106411
Si Si3 0.564378 0.705082 0.385576
Si Si4 0.562666 0.083560 0.787438
Si Si5 0.647409 0.418058 0.386602
Si Si6 0.769308 0.584164 0.300113
O O1 0.892945 0.367235 0.500000
O O2 0.896024 0.272425 0.644340
O O3 0.918914 0.406309 0.675466
O O4 0.812037 0.368321 0.633775
O O5 0.611485 0.882820 0.141915
O O6 0.721742 0.895774 0.186317
O O7 0.667427 0.000000 0.098773
O O8 0.688948 0.882912 0.000000
O O9 0.557943 0.701883 0.500000
O O10 0.500000 0.709982 0.339271
O O11 0.595781 0.632518 0.349044
O O12 0.500000 0.119602 0.807193
O O13 0.557787 0.000000 0.807827
O O14 0.660576 0.406264 0.500000
O O15 0.629261 0.500000 0.365276
O O16 0.704473 0.396279 0.327820
O O17 0.782674 0.500000 0.319195
#
# Coordination Sequence:
#
# PCOD8265614 Si02
#       6
#    16  16  16  16  16  16
#     4  10  18  27  40  57  83 116 143 170 203 239
#     4   8  14  25  40  57  79 106 134 171 215 248
#     4   9  18  30  42  59  83 112 146 176 203 241
#     4   9  17  26  36  55  81 110 148 182 204 237
#     4   9  17  29  45  64  86 110 135 169 211 250
#     4   9  17  28  42  63  88 111 141 174 203 246
#
# _framework density 16.141016
#
# number of rings (size 3 to 8) (size 9 to 14) (size 15 to 20)
#    0.000    3.000    0.000    2.500    0.000    4.333 
#    0.000    6.667    0.000    0.000    0.000    9.333 
#    0.000    6.000    0.000    6.500    0.000    0.167 
#
# Total GULP energy -594841.765771 kJ/mol
# GULP energy per Si atom -12392.536787 kJ/mol
# Density = 1.610428 g / cm^3
# Si number density = 16.141016 Si / 1000 Ang^3
#
#
#
# Elastic Constant Matrix: (Units=GPa)
#
#
# Indices 1 2 3 4 5 6 
#
# 1 96.4001 43.2483 26.8513 0.0000 0.0000 0.0000
# 2 43.2483 48.7935 11.4088 0.0000 0.0000 0.0000
# 3 26.8513 11.4088 73.9368 0.0000 0.0000 0.0000
# 4 0.0000 0.0000 0.0000 5.9546 0.0000 0.0000
# 5 0.0000 0.0000 0.0000 0.0000 12.5484 0.0000
# 6 0.0000 0.0000 0.0000 0.0000 0.0000 22.6853
#
#
#
# Elastic Compliance Matrix: (Units=1/GPa)
#
#
# Indices 1 2 3 4 5 6 
#
# 1 0.018472 -0.015358 -0.004339 0.000000 0.000000 0.000000
# 2 -0.015358 0.034031 0.000326 0.000000 0.000000 0.000000
# 3 -0.004339 0.000326 0.015050 0.000000 0.000000 0.000000
# 4 0.000000 0.000000 0.000000 0.167936 0.000000 0.000000
# 5 0.000000 0.000000 0.000000 0.000000 0.079692 0.000000
# 6 0.000000 0.000000 0.000000 0.000000 0.000000 0.044081
#
#
# Mechanical properties :
#
#
# Convention : Reuss Voigt Hill
#
# Bulk Modulus (GPa) = 34.70702 42.46079 38.58391
# Shear Modulus (GPa) = 12.26668 17.41248 14.83958
#
# Velocity S-wave (km/s) = 2.75975 3.28803 3.03540
# Velocity P-wave (km/s) = 5.63063 6.38577 6.02005
#
# Compressibility (1/GPa) = 0.02881261
#
# Stress axis : x y z
#
# Youngs Moduli (GPa) = 54.13534 29.38479 66.44380
#
# Poissons Ratio (x) = 0.45131 0.28827
# Poissons Ratio (y) = 0.83144 -0.02169
# Poissons Ratio (z) = 0.23487 -0.00959
#
# Static dielectric constant tensor:
#      x y z
#    x 3.235790 0.000000 0.000000 
#    y 0.000000 2.898800 0.000000 
#    z 0.000000 0.000000 3.077960 
# 
# 
# High freq. dielectric constant tensor:
#      x y z
#    x 1.620760 0.000000 0.000000 
#    y 0.000000 1.590300 0.000000 
#    z 0.000000 0.000000 1.592570 
# 
# From -- ./inp_files/29235.got.cif
#   From: 2010.03.12/outbox.cif.g09.slc.cpg/sg65_15_cif.got.tgz:29235.got - 2010.04.10 20:52:16.
