data_PCOD8265935
_publ_section_title
;
Structure prediction by ZEFSAII (Michael W. Deem and Ramdas Pophale) SiO2 
 PCOD8265935
Probable space group: C M M M
;
_chemical_formula_sum "Si O2"
_cell_formula_units_Z 80
_cell_length_a 36.015299
_cell_length_b 9.104319
_cell_length_c 16.852795
_cell_angle_alpha 90.000000
_cell_angle_beta 90.000000
_cell_angle_gamma 90.000000
_cell_volume 5525.943357
_symmetry_space_group_name_H-M "C M M M"
_symmetry_group_IT_number 65
_symmetry_cell_setting 'orthorhombic'
loop_
_space_group_symop_operation_xyz
x,y,z
-x,-y,z
x,-y,-z
-x,y,-z
-x,-y,-z
x,y,-z
-x,y,z
x,-y,z
1/2+x,1/2+y,z
1/2-x,1/2-y,z
1/2+x,1/2-y,-z
1/2-x,1/2+y,-z
1/2-x,1/2-y,-z
1/2+x,1/2+y,-z
1/2-x,1/2+y,z
1/2+x,1/2-y,z
loop_
_atom_site_type_symbol
_atom_site_label
_atom_site_fract_x
_atom_site_fract_y
_atom_site_fract_z
Si Si1 0.860267 0.172929 0.908288
Si Si2 0.042374 0.669651 0.346163
Si Si3 0.714214 0.165503 0.094219
Si Si4 0.500000 0.825491 0.910946
Si Si5 0.955839 0.834407 0.500000
Si Si6 0.073140 0.327993 0.822789
O O1 0.822401 0.247972 0.878902
O O2 0.892562 0.234629 0.853341
O O3 0.856331 0.000000 0.896123
O O4 0.868710 0.212257 0.000000
O O5 0.043227 0.500000 0.369386
O O6 0.059392 0.757594 0.420498
O O7 0.068123 0.701737 0.270523
O O8 0.000000 0.717438 0.326631
O O9 0.750000 0.250000 0.129296
O O10 0.713107 0.000000 0.128512
O O11 0.716840 0.161153 0.000000
O O12 0.536635 0.767759 0.867189
O O13 0.500000 0.000000 0.908665
O O14 0.500000 0.763497 0.000000
O O15 0.000000 0.822172 0.500000
O O16 0.941415 0.000000 0.500000
O O17 0.079706 0.500000 0.840652
#
# Coordination Sequence:
#
# PCOD8265935 Si02
#       6
#    16  16  16   8   8  16
#     4  10  20  31  41  57  83 113 144 177 213 252
#     4   9  16  28  44  61  80 102 133 172 213 256
#     4   9  16  27  44  63  81 103 133 170 211 254
#     4   9  16  26  41  58  75 100 140 185 219 247
#     4   9  17  27  41  61  81 101 128 161 206 259
#     4  10  18  29  44  61  79 105 142 181 218 253
#
# _framework density 14.477166
#
# number of rings (size 3 to 8) (size 9 to 14) (size 15 to 20)
#    0.000    2.600    1.000    2.100    0.000    6.400 
#    0.000    0.500    0.000    1.800    0.000    0.000 
#    0.000    0.000    0.000    0.900    0.000   11.800 
#
# Total GULP energy -495980.543110 kJ/mol
# GULP energy per Si atom -12399.513578 kJ/mol
# Density = 1.444422 g / cm^3
# Si number density = 14.477166 Si / 1000 Ang^3
#
#
#
# Elastic Constant Matrix: (Units=GPa)
#
#
# Indices 1 2 3 4 5 6 
#
# 1 103.7218 51.8299 40.1749 0.0000 0.0000 0.0000
# 2 51.8299 87.0088 44.6224 0.0000 0.0000 0.0000
# 3 40.1749 44.6224 78.1986 0.0000 0.0000 0.0000
# 4 0.0000 0.0000 0.0000 17.9197 0.0000 0.0000
# 5 0.0000 0.0000 0.0000 0.0000 3.5786 0.0000
# 6 0.0000 0.0000 0.0000 0.0000 0.0000 25.2854
#
#
#
# Elastic Compliance Matrix: (Units=1/GPa)
#
#
# Indices 1 2 3 4 5 6 
#
# 1 0.014387 -0.006757 -0.003536 0.000000 0.000000 0.000000
# 2 -0.006757 0.019421 -0.007611 0.000000 0.000000 0.000000
# 3 -0.003536 -0.007611 0.018948 0.000000 0.000000 0.000000
# 4 0.000000 0.000000 0.000000 0.055804 0.000000 0.000000
# 5 0.000000 0.000000 0.000000 0.000000 0.279440 0.000000
# 6 0.000000 0.000000 0.000000 0.000000 0.000000 0.039548
#
#
# Mechanical properties :
#
#
# Convention : Reuss Voigt Hill
#
# Bulk Modulus (GPa) = 59.00166 60.24263 59.62214
# Shear Modulus (GPa) = 10.66084 18.17688 14.41886
#
# Velocity S-wave (km/s) = 2.71660 3.54723 3.15933
# Velocity P-wave (km/s) = 7.11922 7.64719 7.38793
#
# Compressibility (1/GPa) = 0.01694868
#
# Stress axis : x y z
#
# Youngs Moduli (GPa) = 69.50657 51.48967 52.77731
#
# Poissons Ratio (x) = 0.34791 0.18661
# Poissons Ratio (y) = 0.46965 0.40169
# Poissons Ratio (z) = 0.24576 0.39189
#
# Static dielectric constant tensor:
#      x y z
#    x 2.715640 0.000000 0.000000 
#    y 0.000000 2.834460 0.000000 
#    z 0.000000 0.000000 2.669570 
# 
# 
# High freq. dielectric constant tensor:
#      x y z
#    x 1.531730 0.000000 0.000000 
#    y 0.000000 1.555650 0.000000 
#    z 0.000000 0.000000 1.524380 
# 
# From -- ./inp_files/57874.got.cif
#   From: 2010.03.12/outbox.cif.g09.slc.cpg/sg65_29_cif.got.tgz:57874.got - 2010.04.10 20:52:16.
