data_PCOD8265287
_publ_section_title
;
Structure prediction by ZEFSAII (Michael W. Deem and Ramdas Pophale) SiO2 
 PCOD8265287
Probable space group: C M M M
;
_chemical_formula_sum "Si O2"
_cell_formula_units_Z 80
_cell_length_a 18.219907
_cell_length_b 22.415446
_cell_length_c 12.976752
_cell_angle_alpha 90.000000
_cell_angle_beta 90.000000
_cell_angle_gamma 90.000000
_cell_volume 5299.800785
_symmetry_space_group_name_H-M "C M M M"
_symmetry_group_IT_number 65
_symmetry_cell_setting 'orthorhombic'
loop_
_space_group_symop_operation_xyz
x,y,z
-x,-y,z
x,-y,-z
-x,y,-z
-x,-y,-z
x,y,-z
-x,y,z
x,-y,z
1/2+x,1/2+y,z
1/2-x,1/2-y,z
1/2+x,1/2-y,-z
1/2-x,1/2+y,-z
1/2-x,1/2-y,-z
1/2+x,1/2+y,-z
1/2-x,1/2+y,z
1/2+x,1/2-y,z
loop_
_atom_site_type_symbol
_atom_site_label
_atom_site_fract_x
_atom_site_fract_y
_atom_site_fract_z
Si Si1 0.335523 0.255810 0.620126
Si Si2 0.587179 0.066870 0.500000
Si Si3 0.912844 0.433275 0.114231
Si Si4 0.087314 0.642053 0.305187
Si Si5 0.082319 0.127712 0.622867
Si Si6 0.087165 0.000000 0.387116
O O1 0.354762 0.246492 0.500000
O O2 0.250000 0.250000 0.641797
O O3 0.378290 0.207236 0.686853
O O4 0.362245 0.320677 0.659122
O O5 0.500000 0.063967 0.500000
O O6 0.615746 0.101215 0.399206
O O7 0.619925 0.000000 0.500000
O O8 0.883077 0.500000 0.137271
O O9 0.882955 0.387528 0.199699
O O10 0.000000 0.434823 0.120065
O O11 0.887310 0.412550 0.000000
O O12 0.000000 0.648178 0.307197
O O13 0.081906 0.122220 0.500000
O O14 0.109086 0.062858 0.668839
O O15 0.000000 0.143290 0.661649
O O16 0.124179 0.000000 0.500000
O O17 0.000000 0.000000 0.398903
#
# Coordination Sequence:
#
# PCOD8265287 Si02
#       6
#    16   8  16  16  16   8
#     4  10  19  28  37  50  80 114 142 167 202 243
#     4   9  16  24  37  58  82 107 137 170 196 224
#     4   8  14  25  42  64  86 106 132 171 214 244
#     4  10  17  26  42  60  80 108 143 174 201 243
#     4   8  13  22  38  54  68  91 128 170 206 240
#     4   7  10  18  34  54  66  78 112 164 210 237
#
# _framework density 15.094908
#
# number of rings (size 3 to 8) (size 9 to 14) (size 15 to 20)
#    0.000    3.200    1.000    3.000    0.000    3.200 
#    0.000    0.000    4.400    0.600    0.000    0.000 
#    0.000    0.000    0.000    0.000    0.000   18.300 
#
# Total GULP energy -495604.548691 kJ/mol
# GULP energy per Si atom -12390.113717 kJ/mol
# Density = 1.506055 g / cm^3
# Si number density = 15.094908 Si / 1000 Ang^3
#
#
#
# Elastic Constant Matrix: (Units=GPa)
#
#
# Indices 1 2 3 4 5 6 
#
# 1 40.4188 44.4449 16.4747 0.0000 0.0000 0.0000
# 2 44.4449 162.0693 51.0201 0.0000 0.0000 0.0000
# 3 16.4747 51.0201 74.9956 0.0000 0.0000 0.0000
# 4 0.0000 0.0000 0.0000 16.3004 0.0000 0.0000
# 5 0.0000 0.0000 0.0000 0.0000 5.6176 0.0000
# 6 0.0000 0.0000 0.0000 0.0000 0.0000 4.8496
#
#
#
# Elastic Compliance Matrix: (Units=1/GPa)
#
#
# Indices 1 2 3 4 5 6 
#
# 1 0.035554 -0.009279 -0.001498 0.000000 0.000000 0.000000
# 2 -0.009279 0.010273 -0.004951 0.000000 0.000000 0.000000
# 3 -0.001498 -0.004951 0.017031 0.000000 0.000000 0.000000
# 4 0.000000 0.000000 0.000000 0.061348 0.000000 0.000000
# 5 0.000000 0.000000 0.000000 0.000000 0.178013 0.000000
# 6 0.000000 0.000000 0.000000 0.000000 0.000000 0.206203
#
#
# Mechanical properties :
#
#
# Convention : Reuss Voigt Hill
#
# Bulk Modulus (GPa) = 31.84303 55.70701 43.77502
# Shear Modulus (GPa) = 9.08519 16.38979 12.73749
#
# Velocity S-wave (km/s) = 2.45597 3.29870 2.90802
# Velocity P-wave (km/s) = 5.40216 7.17587 6.35124
#
# Compressibility (1/GPa) = 0.03140404
#
# Stress axis : x y z
#
# Youngs Moduli (GPa) = 28.12589 97.34067 58.71585
#
# Poissons Ratio (x) = 0.90319 0.08796
# Poissons Ratio (y) = 0.26097 0.29068
# Poissons Ratio (z) = 0.04214 0.48190
#
# Static dielectric constant tensor:
#      x y z
#    x 2.606750 0.000000 0.000000 
#    y 0.000000 3.293820 0.000000 
#    z 0.000000 0.000000 2.684420 
# 
# 
# High freq. dielectric constant tensor:
#      x y z
#    x 1.534250 0.000000 0.000000 
#    y 0.000000 1.597590 0.000000 
#    z 0.000000 0.000000 1.524730 
# 
# From -- ./inp_files/44502.got.cif
#   From: 2010.03.12/outbox.cif.g09.slc.cpg/sg65_23_cif.got.tgz:44502.got - 2010.04.10 20:52:16.
