data_PCOD8265146
_publ_section_title
;
Structure prediction by ZEFSAII (Michael W. Deem and Ramdas Pophale) SiO2 
 PCOD8265146
Probable space group: C M M M
;
_chemical_formula_sum "Si O2"
_cell_formula_units_Z 48
_cell_length_a 8.550646
_cell_length_b 18.098792
_cell_length_c 15.832435
_cell_angle_alpha 90.000000
_cell_angle_beta 90.000000
_cell_angle_gamma 90.000000
_cell_volume 2450.170065
_symmetry_space_group_name_H-M "C M M M"
_symmetry_group_IT_number 65
_symmetry_cell_setting 'orthorhombic'
loop_
_space_group_symop_operation_xyz
x,y,z
-x,-y,z
x,-y,-z
-x,y,-z
-x,-y,-z
x,y,-z
-x,y,z
x,-y,z
1/2+x,1/2+y,z
1/2-x,1/2-y,z
1/2+x,1/2-y,-z
1/2-x,1/2+y,-z
1/2-x,1/2-y,-z
1/2+x,1/2+y,-z
1/2-x,1/2+y,z
1/2+x,1/2-y,z
loop_
_atom_site_type_symbol
_atom_site_label
_atom_site_fract_x
_atom_site_fract_y
_atom_site_fract_z
Si Si1 0.685048 0.332481 0.669702
Si Si2 0.815419 0.668329 0.842111
Si Si3 0.184825 0.332825 0.500000
Si Si4 0.321416 0.587370 0.000000
O O1 0.500000 0.333361 0.666460
O O2 0.750000 0.250000 0.671177
O O3 0.745554 0.369162 0.756565
O O4 0.752076 0.373038 0.585338
O O5 0.750000 0.750000 0.858602
O O6 0.000000 0.673422 0.833731
O O7 0.767804 0.615999 0.918172
O O8 0.250000 0.250000 0.500000
O O9 0.000000 0.332484 0.500000
O O10 0.313904 0.500000 0.000000
O O11 0.500000 0.616015 0.000000
#
# Coordination Sequence:
#
# PCOD8265146 Si02
#       4
#    16  16   8   8
#     4  10  17  27  43  67  99 134 171 209 254 303
#     4  11  21  35  55  79 107 138 175 216 260 309
#     4  10  16  24  38  62  97 134 169 206 253 302
#     4  11  24  41  58  77 103 135 172 215 264 315
#
# _framework density 19.590475000000001
#
# number of rings (size 3 to 8) (size 9 to 14) (size 15 to 20)
#    0.000    1.500    0.000   12.500    0.000    1.333 
#    0.000    0.000    0.000    0.000    0.000    1.167 
#    0.000    9.333    0.000    0.000    0.000    0.000 
#
# Total GULP energy -297508.760967 kJ/mol
# GULP energy per Si atom -12396.198374 kJ/mol
# Density = 1.954589 g / cm^3
# Si number density = 19.590475 Si / 1000 Ang^3
#
#
#
# Elastic Constant Matrix: (Units=GPa)
#
#
# Indices 1 2 3 4 5 6 
#
# 1 219.9931 20.7481 80.5663 0.0000 0.0000 0.0000
# 2 20.7481 28.3566 27.2494 0.0000 0.0000 0.0000
# 3 80.5663 27.2494 216.0361 0.0000 0.0000 0.0000
# 4 0.0000 0.0000 0.0000 5.8506 0.0000 0.0000
# 5 0.0000 0.0000 0.0000 0.0000 47.5762 0.0000
# 6 0.0000 0.0000 0.0000 0.0000 0.0000 15.6002
#
#
#
# Elastic Compliance Matrix: (Units=1/GPa)
#
#
# Indices 1 2 3 4 5 6 
#
# 1 0.005392 -0.002291 -0.001722 0.000000 0.000000 0.000000
# 2 -0.002291 0.041102 -0.004330 0.000000 0.000000 0.000000
# 3 -0.001722 -0.004330 0.005817 0.000000 0.000000 0.000000
# 4 0.000000 0.000000 0.000000 0.170923 0.000000 0.000000
# 5 0.000000 0.000000 0.000000 0.000000 0.021019 0.000000
# 6 0.000000 0.000000 0.000000 0.000000 0.000000 0.064102
#
#
# Mechanical properties :
#
#
# Convention : Reuss Voigt Hill
#
# Bulk Modulus (GPa) = 28.06928 80.16814 54.11871
# Shear Modulus (GPa) = 14.84047 36.19353 25.51700
#
# Velocity S-wave (km/s) = 2.75532 4.30293 3.61296
# Velocity P-wave (km/s) = 4.94788 8.10541 6.71488
#
# Compressibility (1/GPa) = 0.03562614
#
# Stress axis : x y z
#
# Youngs Moduli (GPa) = 185.45058 24.32958 171.90343
#
# Poissons Ratio (x) = 0.05573 0.29602
# Poissons Ratio (y) = 0.42480 0.74436
# Poissons Ratio (z) = 0.31935 0.10535
#
# Static dielectric constant tensor:
#      x y z
#    x 3.772230 0.000000 0.000000 
#    y 0.000000 2.856360 0.000000 
#    z 0.000000 0.000000 3.973910 
# 
# 
# High freq. dielectric constant tensor:
#      x y z
#    x 1.790180 0.000000 0.000000 
#    y 0.000000 1.677660 0.000000 
#    z 0.000000 0.000000 1.805080 
# 
# From -- ./inp_files/35234.got.cif
#   From: 2010.03.12/outbox.cif.g09.slc.cpg/sg65_18_cif.got.tgz:35234.got - 2010.04.10 20:52:16.
