data_PCOD8265250
_publ_section_title
;
Structure prediction by ZEFSAII (Michael W. Deem and Ramdas Pophale) SiO2 
 PCOD8265250
Probable space group: C M M M
;
_chemical_formula_sum "Si O2"
_cell_formula_units_Z 128
_cell_length_a 17.069908
_cell_length_b 17.839899
_cell_length_c 27.808916
_cell_angle_alpha 90.000000
_cell_angle_beta 90.000000
_cell_angle_gamma 90.000000
_cell_volume 8468.522232
_symmetry_space_group_name_H-M "C M M M"
_symmetry_group_IT_number 65
_symmetry_cell_setting 'orthorhombic'
loop_
_space_group_symop_operation_xyz
x,y,z
-x,-y,z
x,-y,-z
-x,y,-z
-x,-y,-z
x,y,-z
-x,y,z
x,-y,z
1/2+x,1/2+y,z
1/2-x,1/2-y,z
1/2+x,1/2-y,-z
1/2-x,1/2+y,-z
1/2-x,1/2-y,-z
1/2+x,1/2+y,-z
1/2-x,1/2+y,z
1/2+x,1/2-y,z
loop_
_atom_site_type_symbol
_atom_site_label
_atom_site_fract_x
_atom_site_fract_y
_atom_site_fract_z
Si Si1 0.783551 0.414933 0.944746
Si Si2 0.168798 0.293158 0.553542
Si Si3 0.907619 0.917629 0.697902
Si Si4 0.089317 0.703639 0.054602
Si Si5 0.815839 0.189858 0.120658
Si Si6 0.091452 0.831722 0.394384
Si Si7 0.224968 0.918370 0.443190
Si Si8 0.407904 0.412796 0.193827
O O1 0.792128 0.500000 0.926669
O O2 0.866704 0.374788 0.937386
O O3 0.718899 0.373141 0.913788
O O4 0.756358 0.411645 0.000000
O O5 0.129529 0.297247 0.500000
O O6 0.250000 0.250000 0.548495
O O7 0.110487 0.255030 0.592409
O O8 0.196533 0.374022 0.573898
O O9 0.881817 0.853228 0.659997
O O10 0.880105 0.897027 0.751505
O O11 0.000000 0.923867 0.698709
O O12 0.873996 0.000000 0.682926
O O13 0.118567 0.767288 0.090458
O O14 0.000000 0.686474 0.066295
O O15 0.101880 0.732467 0.000000
O O16 0.750000 0.250000 0.138488
O O17 0.856442 0.146256 0.164213
O O18 0.141626 0.882244 0.430244
O O19 0.000000 0.848258 0.402404
O O20 0.226686 0.922049 0.500000
O O21 0.230163 0.000000 0.419424
O O22 0.500000 0.395958 0.186333
O O23 0.390875 0.500000 0.180109
#
# Coordination Sequence:
#
# PCOD8265250 Si02
#       8
#    16  16  16  16  16  16  16  16
#     4   9  17  28  42  60  82 109 138 166 198 236
#     4   8  15  27  39  54  80 112 139 159 187 232
#     4   8  15  27  41  59  83 107 129 158 201 247
#     4   9  17  28  42  60  82 109 138 166 197 235
#     4  10  18  28  42  61  86 109 130 163 206 244
#     4  10  17  25  41  63  84 103 126 164 210 245
#     4   9  17  28  41  57  80 112 143 165 190 231
#     4   9  17  30  47  62  77 103 138 169 196 234
#
# _framework density 15.114796999999999
#
# number of rings (size 3 to 8) (size 9 to 14) (size 15 to 20)
#    0.000    3.000    0.000    3.375    0.000    3.500 
#    0.000    3.750    0.000    0.375    0.000    7.000 
#    0.000    0.000    0.000   18.125    0.000    3.375 
#
# Total GULP energy -792951.676258 kJ/mol
# GULP energy per Si atom -12389.869942 kJ/mol
# Density = 1.508039 g / cm^3
# Si number density = 15.114797 Si / 1000 Ang^3
#
#
#
# Elastic Constant Matrix: (Units=GPa)
#
#
# Indices 1 2 3 4 5 6 
#
# 1 54.8141 47.2400 37.8684 0.0000 0.0000 0.0000
# 2 47.2400 107.1384 46.9691 0.0000 0.0000 0.0000
# 3 37.8684 46.9691 66.5745 0.0000 0.0000 0.0000
# 4 0.0000 0.0000 0.0000 16.9727 0.0000 0.0000
# 5 0.0000 0.0000 0.0000 0.0000 18.7588 0.0000
# 6 0.0000 0.0000 0.0000 0.0000 0.0000 19.7220
#
#
#
# Elastic Compliance Matrix: (Units=1/GPa)
#
#
# Indices 1 2 3 4 5 6 
#
# 1 0.036255 -0.010055 -0.013529 0.000000 0.000000 0.000000
# 2 -0.010055 0.016302 -0.005782 0.000000 0.000000 0.000000
# 3 -0.013529 -0.005782 0.026795 0.000000 0.000000 0.000000
# 4 0.000000 0.000000 0.000000 0.058918 0.000000 0.000000
# 5 0.000000 0.000000 0.000000 0.000000 0.053308 0.000000
# 6 0.000000 0.000000 0.000000 0.000000 0.000000 0.050705
#
#
# Mechanical properties :
#
#
# Convention : Reuss Voigt Hill
#
# Bulk Modulus (GPa) = 48.49268 54.74243 51.61756
# Shear Modulus (GPa) = 16.23965 17.52066 16.88016
#
# Velocity S-wave (km/s) = 3.28139 3.40836 3.34548
# Velocity P-wave (km/s) = 6.81977 7.19622 7.01052
#
# Compressibility (1/GPa) = 0.02062167
#
# Stress axis : x y z
#
# Youngs Moduli (GPa) = 27.58212 61.34230 37.32022
#
# Poissons Ratio (x) = 0.61680 0.50489
# Poissons Ratio (y) = 0.27734 0.21578
# Poissons Ratio (z) = 0.37315 0.35467
#
# Static dielectric constant tensor:
#      x y z
#    x 2.782410 0.000000 0.000000 
#    y 0.000000 3.622990 0.000000 
#    z 0.000000 0.000000 2.944790 
# 
# 
# High freq. dielectric constant tensor:
#      x y z
#    x 1.558080 0.000000 0.000000 
#    y 0.000000 1.580020 0.000000 
#    z 0.000000 0.000000 1.565080 
# 
# From -- ./inp_files/70700.got.cif
#   From: 2010.03.12/outbox.cif.g09.slc.cpg/sg65_36_cif.got.tgz:70700.got - 2010.04.10 20:52:16.
