data_PCOD8265994
_publ_section_title
;
Structure prediction by ZEFSAII (Michael W. Deem and Ramdas Pophale) SiO2 
 PCOD8265994
Probable space group: C M M M
;
_chemical_formula_sum "Si O2"
_cell_formula_units_Z 88
_cell_length_a 23.812664
_cell_length_b 29.979770
_cell_length_c 9.219672
_cell_angle_alpha 90.000000
_cell_angle_beta 90.000000
_cell_angle_gamma 90.000000
_cell_volume 6581.907151
_symmetry_space_group_name_H-M "C M M M"
_symmetry_group_IT_number 65
_symmetry_cell_setting 'orthorhombic'
loop_
_space_group_symop_operation_xyz
x,y,z
-x,-y,z
x,-y,-z
-x,y,-z
-x,-y,-z
x,y,-z
-x,y,z
x,-y,z
1/2+x,1/2+y,z
1/2-x,1/2-y,z
1/2+x,1/2-y,-z
1/2-x,1/2+y,-z
1/2-x,1/2-y,-z
1/2+x,1/2+y,-z
1/2-x,1/2+y,z
1/2+x,1/2-y,z
loop_
_atom_site_type_symbol
_atom_site_label
_atom_site_fract_x
_atom_site_fract_y
_atom_site_fract_z
Si Si1 0.604349 0.414393 0.169589
Si Si2 0.500000 0.641865 0.828151
Si Si3 0.718413 0.796660 0.336974
Si Si4 0.434045 0.500000 0.327597
Si Si5 0.877186 0.745313 0.169624
Si Si6 0.000000 0.760521 0.171842
Si Si7 0.685176 0.664068 0.167323
O O1 0.553904 0.384175 0.226345
O O2 0.601314 0.458592 0.265442
O O3 0.659904 0.384948 0.198650
O O4 0.598766 0.427002 0.000000
O O5 0.500000 0.690525 0.756656
O O6 0.500000 0.646179 0.000000
O O7 0.706417 0.812718 0.500000
O O8 0.750000 0.750000 0.332892
O O9 0.659443 0.791197 0.254506
O O10 0.757747 0.833023 0.259503
O O11 0.500000 0.500000 0.276907
O O12 0.430633 0.500000 0.500000
O O13 0.858869 0.796304 0.207082
O O14 0.941949 0.736650 0.219295
O O15 0.869247 0.736290 0.000000
O O16 0.000000 0.765660 0.000000
O O17 0.701750 0.669056 0.000000
#
# Coordination Sequence:
#
# PCOD8265994 Si02
#       7
#    16   8  16   8  16   8  16
#     4  10  18  29  46  60  71  93 128 166 202 239
#     4   9  14  23  40  59  74  90 122 164 201 235
#     4   9  17  27  37  51  74 101 124 150 187 229
#     4  11  23  33  39  53  79 105 127 156 197 242
#     4   9  15  24  39  57  76  96 122 157 193 229
#     4   9  14  22  38  60  79  96 122 161 203 232
#     4   9  16  26  42  60  72  89 123 164 198 229
#
# _framework density 13.369984000000001
#
# number of rings (size 3 to 8) (size 9 to 14) (size 15 to 20)
#    0.000    2.636    2.727    0.818    0.000    3.273 
#    0.000    0.455    0.000    1.091    0.000    0.000 
#    0.000    0.000    0.000    0.000    0.000    0.909 
#
# Total GULP energy -545304.793066 kJ/mol
# GULP energy per Si atom -12393.290751 kJ/mol
# Density = 1.333955 g / cm^3
# Si number density = 13.369984 Si / 1000 Ang^3
#
#
#
# Elastic Constant Matrix: (Units=GPa)
#
#
# Indices 1 2 3 4 5 6 
#
# 1 105.7707 42.1790 46.3488 0.0000 0.0000 0.0000
# 2 42.1790 51.3927 32.0362 0.0000 0.0000 0.0000
# 3 46.3488 32.0362 59.9690 0.0000 0.0000 0.0000
# 4 0.0000 0.0000 0.0000 11.7250 0.0000 0.0000
# 5 0.0000 0.0000 0.0000 0.0000 13.3859 0.0000
# 6 0.0000 0.0000 0.0000 0.0000 0.0000 23.3376
#
#
#
# Elastic Compliance Matrix: (Units=1/GPa)
#
#
# Indices 1 2 3 4 5 6 
#
# 1 0.016367 -0.008317 -0.008207 0.000000 0.000000 0.000000
# 2 -0.008317 0.033399 -0.011414 0.000000 0.000000 0.000000
# 3 -0.008207 -0.011414 0.029116 0.000000 0.000000 0.000000
# 4 0.000000 0.000000 0.000000 0.085288 0.000000 0.000000
# 5 0.000000 0.000000 0.000000 0.000000 0.074705 0.000000
# 6 0.000000 0.000000 0.000000 0.000000 0.000000 0.042849
#
#
# Mechanical properties :
#
#
# Convention : Reuss Voigt Hill
#
# Bulk Modulus (GPa) = 43.46685 50.91782 47.19233
# Shear Modulus (GPa) = 14.48144 16.12760 15.30452
#
# Velocity S-wave (km/s) = 3.29467 3.47689 3.38700
# Velocity P-wave (km/s) = 6.85962 7.36781 7.11825
#
# Compressibility (1/GPa) = 0.02300604
#
# Stress axis : x y z
#
# Youngs Moduli (GPa) = 61.09714 29.94085 34.34576
#
# Poissons Ratio (x) = 0.24902 0.28187
# Poissons Ratio (y) = 0.50816 0.39202
# Poissons Ratio (z) = 0.50141 0.34175
#
# Static dielectric constant tensor:
#      x y z
#    x 2.709420 0.000000 0.000000 
#    y 0.000000 2.422380 0.000000 
#    z 0.000000 0.000000 2.576130 
# 
# 
# High freq. dielectric constant tensor:
#      x y z
#    x 1.499250 0.000000 0.000000 
#    y 0.000000 1.465110 0.000000 
#    z 0.000000 0.000000 1.499220 
# 
# From -- ./inp_files/15016.got.cif
#   From: 2010.03.12/outbox.cif.g09.slc.cpg/sg65_8_cif.got.tgz:15016.got - 2010.04.10 20:52:16.
