data_PCOD8265731
_publ_section_title
;
Structure prediction by ZEFSAII (Michael W. Deem and Ramdas Pophale) SiO2 
 PCOD8265731
Probable space group: C M M M
;
_chemical_formula_sum "Si O2"
_cell_formula_units_Z 104
_cell_length_a 9.389070
_cell_length_b 26.716285
_cell_length_c 22.876969
_cell_angle_alpha 90.000000
_cell_angle_beta 90.000000
_cell_angle_gamma 90.000000
_cell_volume 5738.483382
_symmetry_space_group_name_H-M "C M M M"
_symmetry_group_IT_number 65
_symmetry_cell_setting 'orthorhombic'
loop_
_space_group_symop_operation_xyz
x,y,z
-x,-y,z
x,-y,-z
-x,y,-z
-x,-y,-z
x,y,-z
-x,y,z
x,-y,z
1/2+x,1/2+y,z
1/2-x,1/2-y,z
1/2+x,1/2-y,-z
1/2-x,1/2+y,-z
1/2-x,1/2-y,-z
1/2+x,1/2+y,-z
1/2-x,1/2+y,z
1/2+x,1/2-y,z
loop_
_atom_site_type_symbol
_atom_site_label
_atom_site_fract_x
_atom_site_fract_y
_atom_site_fract_z
Si Si1 0.158299 0.294509 0.266191
Si Si2 0.169810 0.500000 0.066128
Si Si3 0.342470 0.204327 0.128895
Si Si4 0.830026 0.593740 0.859769
Si Si5 0.665095 0.701049 0.433723
Si Si6 0.838378 0.441239 0.733588
Si Si7 0.832389 0.128329 0.668745
O O1 0.250000 0.250000 0.295175
O O2 0.144032 0.287268 0.197681
O O3 0.246615 0.344001 0.279734
O O4 0.000000 0.295215 0.294444
O O5 0.228370 0.550199 0.097542
O O6 0.000000 0.500000 0.068535
O O7 0.226697 0.500000 0.000000
O O8 0.500000 0.207618 0.100588
O O9 0.250000 0.250000 0.101532
O O10 0.275434 0.148687 0.118140
O O11 0.778717 0.582467 0.793961
O O12 0.000000 0.594686 0.859648
O O13 0.706291 0.686401 0.500000
O O14 0.500000 0.714489 0.427954
O O15 0.750000 0.750000 0.412873
O O16 0.704202 0.653100 0.393813
O O17 0.834054 0.500000 0.741184
O O18 0.735893 0.426748 0.678054
O O19 0.000000 0.422877 0.721244
O O20 0.000000 0.128181 0.680774
#
# Coordination Sequence:
#
# PCOD8265731 Si02
#       7
#    16   8  16  16  16  16  16
#     4  10  18  28  42  64  96 131 163 195 237 292
#     4   9  16  26  48  80 105 127 166 219 262 298
#     4   9  17  28  43  64  95 134 166 196 237 296
#     4   9  15  28  47  69 101 135 165 204 258 309
#     4   9  19  35  52  71  97 131 168 205 249 298
#     4  10  19  33  52  71  96 134 167 201 258 321
#     4  11  21  31  47  71  99 128 162 208 251 299
#
# _framework density 18.123253999999999
#
# number of rings (size 3 to 8) (size 9 to 14) (size 15 to 20)
#    0.000    2.385    2.308    1.385    0.000    3.385 
#    0.000    0.000    0.000    0.923    0.000    3.231 
#    0.000    4.308    0.000    0.000    0.000    0.000 
#
# Total GULP energy -644350.159424 kJ/mol
# GULP energy per Si atom -12391.349220 kJ/mol
# Density = 1.808200 g / cm^3
# Si number density = 18.123254 Si / 1000 Ang^3
#
#
#
# Elastic Constant Matrix: (Units=GPa)
#
#
# Indices 1 2 3 4 5 6 
#
# 1 73.0538 44.1028 28.6328 0.0000 0.0000 0.0000
# 2 44.1028 130.2154 45.0344 0.0000 0.0000 0.0000
# 3 28.6328 45.0344 71.1929 0.0000 0.0000 0.0000
# 4 0.0000 0.0000 0.0000 22.9718 0.0000 0.0000
# 5 0.0000 0.0000 0.0000 0.0000 11.3706 0.0000
# 6 0.0000 0.0000 0.0000 0.0000 0.0000 29.8987
#
#
#
# Elastic Compliance Matrix: (Units=1/GPa)
#
#
# Indices 1 2 3 4 5 6 
#
# 1 0.018216 -0.004654 -0.004382 0.000000 0.000000 0.000000
# 2 -0.004654 0.011019 -0.005099 0.000000 0.000000 0.000000
# 3 -0.004382 -0.005099 0.019034 0.000000 0.000000 0.000000
# 4 0.000000 0.000000 0.000000 0.043532 0.000000 0.000000
# 5 0.000000 0.000000 0.000000 0.000000 0.087946 0.000000
# 6 0.000000 0.000000 0.000000 0.000000 0.000000 0.033446
#
#
# Mechanical properties :
#
#
# Convention : Reuss Voigt Hill
#
# Bulk Modulus (GPa) = 50.00145 56.66689 53.33417
# Shear Modulus (GPa) = 20.15081 23.29436 21.72258
#
# Velocity S-wave (km/s) = 3.33810 3.58904 3.46584
# Velocity P-wave (km/s) = 6.51972 6.96493 6.74600
#
# Compressibility (1/GPa) = 0.01999942
#
# Stress axis : x y z
#
# Youngs Moduli (GPa) = 54.89775 90.75092 52.53754
#
# Poissons Ratio (x) = 0.42235 0.23023
# Poissons Ratio (y) = 0.25549 0.26787
# Poissons Ratio (z) = 0.24057 0.46271
#
# Static dielectric constant tensor:
#      x y z
#    x 3.556010 0.000000 0.000000 
#    y 0.000000 3.718360 0.000000 
#    z 0.000000 0.000000 3.119910 
# 
# 
# High freq. dielectric constant tensor:
#      x y z
#    x 1.677730 0.000000 0.000000 
#    y 0.000000 1.708510 0.000000 
#    z 0.000000 0.000000 1.668310 
# 
# From -- ./inp_files/68261.got.cif
#   From: 2010.03.12/outbox.cif.g09.slc.cpg/sg65_35_cif.got.tgz:68261.got - 2010.04.10 20:52:16.
