data_PCOD8265815
_publ_section_title
;
Structure prediction by ZEFSAII (Michael W. Deem and Ramdas Pophale) SiO2 
 PCOD8265815
Probable space group: C M M M
;
_chemical_formula_sum "Si O2"
_cell_formula_units_Z 96
_cell_length_a 26.661526
_cell_length_b 9.703538
_cell_length_c 22.593511
_cell_angle_alpha 90.000000
_cell_angle_beta 90.000000
_cell_angle_gamma 90.000000
_cell_volume 5845.192777
_symmetry_space_group_name_H-M "C M M M"
_symmetry_group_IT_number 65
_symmetry_cell_setting 'orthorhombic'
loop_
_space_group_symop_operation_xyz
x,y,z
-x,-y,z
x,-y,-z
-x,y,-z
-x,-y,-z
x,y,-z
-x,y,z
x,-y,z
1/2+x,1/2+y,z
1/2-x,1/2-y,z
1/2+x,1/2-y,-z
1/2-x,1/2+y,-z
1/2-x,1/2-y,-z
1/2+x,1/2+y,-z
1/2-x,1/2+y,z
1/2+x,1/2-y,z
loop_
_atom_site_type_symbol
_atom_site_label
_atom_site_fract_x
_atom_site_fract_y
_atom_site_fract_z
Si Si1 0.559424 0.754226 0.355724
Si Si2 0.386016 0.838649 0.238098
Si Si3 0.199493 0.835032 0.819494
Si Si4 0.059336 0.500000 0.435323
Si Si5 0.940589 0.000000 0.567114
Si Si6 0.361558 0.656133 0.933917
Si Si7 0.056945 0.342933 0.118189
O O1 0.500000 0.755182 0.343178
O O2 0.587752 0.771040 0.294377
O O3 0.578131 0.871654 0.398978
O O4 0.578020 0.624596 0.392804
O O5 0.339176 0.739220 0.224758
O O6 0.426010 0.827852 0.185727
O O7 0.370427 0.000000 0.247743
O O8 0.250000 0.750000 0.810665
O O9 0.182120 0.810501 0.887125
O O10 0.205088 0.000000 0.805741
O O11 0.084552 0.500000 0.500000
O O12 0.000000 0.500000 0.442176
O O13 0.917694 0.000000 0.500000
O O14 0.000000 0.000000 0.560244
O O15 0.380196 0.500000 0.925103
O O16 0.409647 0.751931 0.925236
O O17 0.339891 0.680015 0.000000
O O18 0.062133 0.500000 0.096897
O O19 0.000000 0.291101 0.113558
#
# Coordination Sequence:
#
# PCOD8265815 Si02
#       7
#    16  16  16   8   8  16  16
#     4  10  18  28  45  69 100 139 175 206 239 280
#     4  10  19  32  50  72  99 128 165 207 248 292
#     4  10  21  37  56  75  97 123 153 197 252 302
#     4   9  16  26  42  66  97 135 176 209 235 269
#     4   9  18  30  42  62  99 143 178 207 241 279
#     4   9  19  35  52  72  98 127 160 197 239 291
#     4   9  18  31  47  68  98 134 168 204 241 278
#
# _framework density 16.423752
#
# number of rings (size 3 to 8) (size 9 to 14) (size 15 to 20)
#    0.000    2.500    0.833    1.500    1.167    4.667 
#    0.000    1.667    0.000    0.000    0.000    0.000 
#    0.000    4.000    0.000    0.000    0.000    0.000 
#
# Total GULP energy -594867.575957 kJ/mol
# GULP energy per Si atom -12393.074499 kJ/mol
# Density = 1.638637 g / cm^3
# Si number density = 16.423752 Si / 1000 Ang^3
#
#
#
# Elastic Constant Matrix: (Units=GPa)
#
#
# Indices 1 2 3 4 5 6 
#
# 1 75.4713 43.5106 33.0084 0.0000 0.0000 0.0000
# 2 43.5106 121.4641 51.4970 0.0000 0.0000 0.0000
# 3 33.0084 51.4970 113.4325 0.0000 0.0000 0.0000
# 4 0.0000 0.0000 0.0000 35.0158 0.0000 0.0000
# 5 0.0000 0.0000 0.0000 0.0000 14.9518 0.0000
# 6 0.0000 0.0000 0.0000 0.0000 0.0000 27.3098
#
#
#
# Elastic Compliance Matrix: (Units=1/GPa)
#
#
# Indices 1 2 3 4 5 6 
#
# 1 0.017370 -0.005052 -0.002761 0.000000 0.000000 0.000000
# 2 -0.005052 0.011664 -0.003825 0.000000 0.000000 0.000000
# 3 -0.002761 -0.003825 0.011356 0.000000 0.000000 0.000000
# 4 0.000000 0.000000 0.000000 0.028559 0.000000 0.000000
# 5 0.000000 0.000000 0.000000 0.000000 0.066881 0.000000
# 6 0.000000 0.000000 0.000000 0.000000 0.000000 0.036617
#
#
# Mechanical properties :
#
#
# Convention : Reuss Voigt Hill
#
# Bulk Modulus (GPa) = 58.43233 62.93333 60.68283
# Shear Modulus (GPa) = 24.82269 27.61227 26.21748
#
# Velocity S-wave (km/s) = 3.89188 4.10474 3.99973
# Velocity P-wave (km/s) = 7.47334 7.80172 7.63930
#
# Compressibility (1/GPa) = 0.01711381
#
# Stress axis : x y z
#
# Youngs Moduli (GPa) = 57.57024 85.73143 88.05877
#
# Poissons Ratio (x) = 0.43308 0.24315
# Poissons Ratio (y) = 0.29082 0.33687
# Poissons Ratio (z) = 0.15897 0.32796
#
# Static dielectric constant tensor:
#      x y z
#    x 2.777050 0.000000 0.000000 
#    y 0.000000 3.401130 0.000000 
#    z 0.000000 0.000000 3.193550 
# 
# 
# High freq. dielectric constant tensor:
#      x y z
#    x 1.591220 0.000000 0.000000 
#    y 0.000000 1.649740 0.000000 
#    z 0.000000 0.000000 1.636990 
# 
# From -- ./inp_files/71449.got.cif
#   From: 2010.03.12/outbox.cif.g09.slc.cpg/sg65_36_cif.got.tgz:71449.got - 2010.04.10 20:52:16.
