data_PCOD8265091
_publ_section_title
;
Structure prediction by ZEFSAII (Michael W. Deem and Ramdas Pophale) SiO2 
 PCOD8265091
Probable space group: C M M M
;
_chemical_formula_sum "Si O2"
_cell_formula_units_Z 72
_cell_length_a 8.799616
_cell_length_b 23.631177
_cell_length_c 20.977379
_cell_angle_alpha 90.000000
_cell_angle_beta 90.000000
_cell_angle_gamma 90.000000
_cell_volume 4362.147018
_symmetry_space_group_name_H-M "C M M M"
_symmetry_group_IT_number 65
_symmetry_cell_setting 'orthorhombic'
loop_
_space_group_symop_operation_xyz
x,y,z
-x,-y,z
x,-y,-z
-x,y,-z
-x,-y,-z
x,y,-z
-x,y,z
x,-y,z
1/2+x,1/2+y,z
1/2-x,1/2-y,z
1/2+x,1/2-y,-z
1/2-x,1/2+y,-z
1/2-x,1/2-y,-z
1/2+x,1/2+y,-z
1/2-x,1/2+y,z
1/2+x,1/2-y,z
loop_
_atom_site_type_symbol
_atom_site_label
_atom_site_fract_x
_atom_site_fract_y
_atom_site_fract_z
Si Si1 0.679911 0.620876 0.615040
Si Si2 0.679526 0.500000 0.571488
Si Si3 0.820036 0.687034 0.000000
Si Si4 0.678098 0.688591 0.123759
Si Si5 0.676819 0.310833 0.263554
Si Si6 0.179648 0.311458 0.500000
O O1 0.500000 0.627124 0.603879
O O2 0.732928 0.555583 0.609902
O O3 0.731501 0.643866 0.684112
O O4 0.766526 0.656315 0.562407
O O5 0.500000 0.500000 0.565348
O O6 0.749890 0.500000 0.500000
O O7 0.750000 0.750000 0.000000
O O8 0.759084 0.655632 0.935486
O O9 0.000000 0.688445 0.000000
O O10 0.500000 0.692249 0.109398
O O11 0.750000 0.750000 0.127105
O O12 0.712388 0.661899 0.193547
O O13 0.500000 0.299210 0.270099
O O14 0.750000 0.250000 0.275565
O O15 0.250000 0.250000 0.500000
O O16 0.000000 0.306494 0.500000
#
# Coordination Sequence:
#
# PCOD8265091 Si02
#       6
#    16   8   8  16  16   8
#     4  10  19  34  52  70  91 118 153 189 226 274
#     4   9  16  30  54  74  88 115 150 187 231 274
#     4  10  16  22  34  54  78 111 148 179 207 246
#     4   9  15  24  36  54  80 112 144 177 214 253
#     4   9  18  29  44  64  89 118 149 183 222 268
#     4  12  24  35  48  69  93 120 150 186 227 272
#
# _framework density 16.505634000000001
#
# number of rings (size 3 to 8) (size 9 to 14) (size 15 to 20)
#    0.000    2.333    1.111    4.667    0.000    3.556 
#    0.000    1.111    0.000    0.000    0.000    0.000 
#    0.000    0.889    0.000   11.333    0.000    2.222 
#
# Total GULP energy -446063.457166 kJ/mol
# GULP energy per Si atom -12390.651588 kJ/mol
# Density = 1.646807 g / cm^3
# Si number density = 16.505634 Si / 1000 Ang^3
#
#
#
# Elastic Constant Matrix: (Units=GPa)
#
#
# Indices 1 2 3 4 5 6 
#
# 1 78.4117 30.0094 57.1566 0.0000 0.0000 0.0000
# 2 30.0094 96.0797 67.0974 0.0000 0.0000 0.0000
# 3 57.1566 67.0974 188.2881 0.0000 0.0000 0.0000
# 4 0.0000 0.0000 0.0000 -52.4107 0.0000 0.0000
# 5 0.0000 0.0000 0.0000 0.0000 16.7740 0.0000
# 6 0.0000 0.0000 0.0000 0.0000 0.0000 12.5468
#
#
#
# Elastic Compliance Matrix: (Units=1/GPa)
#
#
# Indices 1 2 3 4 5 6 
#
# 1 0.016730 -0.002235 -0.004282 0.000000 0.000000 0.000000
# 2 -0.002235 0.014155 -0.004366 0.000000 0.000000 0.000000
# 3 -0.004282 -0.004366 0.008167 0.000000 0.000000 0.000000
# 4 0.000000 0.000000 0.000000 -0.019080 0.000000 0.000000
# 5 0.000000 0.000000 0.000000 0.000000 0.059616 0.000000
# 6 0.000000 0.000000 0.000000 0.000000 0.000000 0.079701
#
#
# Mechanical properties :
#
#
# Convention : Reuss Voigt Hill
#
# Bulk Modulus (GPa) = 57.85079 74.58958 66.22019
# Shear Modulus (GPa) = 26.76425 9.28310 18.02367
#
# Velocity S-wave (km/s) = 4.03118 2.37411 3.30808
# Velocity P-wave (km/s) = 7.53608 7.26662 7.40257
#
# Compressibility (1/GPa) = 0.01728585
#
# Stress axis : x y z
#
# Youngs Moduli (GPa) = 59.77324 70.64682 122.44977
#
# Poissons Ratio (x) = 0.15790 0.52434
# Poissons Ratio (y) = 0.13359 0.53458
# Poissons Ratio (z) = 0.25595 0.30842
#
# Static dielectric constant tensor:
#      x y z
#    x 3.126990 0.000000 0.000000 
#    y 0.000000 2.798920 0.000000 
#    z 0.000000 0.000000 4.972850 
# 
# 
# High freq. dielectric constant tensor:
#      x y z
#    x 1.632720 0.000000 0.000000 
#    y 0.000000 1.576590 0.000000 
#    z 0.000000 0.000000 1.660830 
# 
# From -- ./inp_files/59573.got.cif
#   From: 2010.03.12/outbox.cif.g09.slc.cpg/sg65_30_cif.got.tgz:59573.got - 2010.04.10 20:52:16.
