data_PCOD8265227
_publ_section_title
;
Structure prediction by ZEFSAII (Michael W. Deem and Ramdas Pophale) SiO2 
 PCOD8265227
Probable space group: C M M M
;
_chemical_formula_sum "Si O2"
_cell_formula_units_Z 72
_cell_length_a 24.286870
_cell_length_b 22.934428
_cell_length_c 8.585313
_cell_angle_alpha 90.000000
_cell_angle_beta 90.000000
_cell_angle_gamma 90.000000
_cell_volume 4782.066314
_symmetry_space_group_name_H-M "C M M M"
_symmetry_group_IT_number 65
_symmetry_cell_setting 'orthorhombic'
loop_
_space_group_symop_operation_xyz
x,y,z
-x,-y,z
x,-y,-z
-x,y,-z
-x,-y,-z
x,y,-z
-x,y,z
x,-y,z
1/2+x,1/2+y,z
1/2-x,1/2-y,z
1/2+x,1/2-y,-z
1/2-x,1/2+y,-z
1/2-x,1/2-y,-z
1/2+x,1/2+y,-z
1/2-x,1/2+y,z
1/2+x,1/2-y,z
loop_
_atom_site_type_symbol
_atom_site_label
_atom_site_fract_x
_atom_site_fract_y
_atom_site_fract_z
Si Si1 0.173629 0.213386 0.182690
Si Si2 0.790369 0.676555 0.683195
Si Si3 0.259427 0.934521 0.181224
Si Si4 0.642861 0.400962 0.684569
Si Si5 0.061432 0.000000 0.684965
O O1 0.162997 0.277033 0.262113
O O2 0.234548 0.192493 0.226816
O O3 0.132009 0.164088 0.247495
O O4 0.166161 0.219963 0.000000
O O5 0.781337 0.680968 0.500000
O O6 0.802862 0.609934 0.735489
O O7 0.199132 0.928873 0.254396
O O8 0.281485 0.000000 0.208620
O O9 0.255440 0.919134 0.000000
O O10 0.646388 0.397174 0.500000
O O11 0.593071 0.442013 0.742108
O O12 0.059091 0.000000 0.500000
O O13 0.000000 0.000000 0.756488
#
# Coordination Sequence:
#
# PCOD8265227 Si02
#       5
#    16  16  16  16   8
#     4  10  17  26  38  52  72  93 117 150 191 229
#     4  10  17  25  37  53  72  93 122 154 184 218
#     4  10  18  26  37  53  76 101 126 154 189 228
#     4  10  17  27  42  56  70  92 125 159 194 233
#     4   9  18  30  43  59  77  97 125 165 207 241
#
# _framework density 15.056252000000001
#
# number of rings (size 3 to 8) (size 9 to 14) (size 15 to 20)
#    0.000    2.111    1.111    9.333    0.000    1.333 
#    0.000    0.000    0.000    5.333    0.000    0.000 
#    0.000    0.000    0.000    0.000    0.000    1.111 
#
# Total GULP energy -446118.494755 kJ/mol
# GULP energy per Si atom -12392.180410 kJ/mol
# Density = 1.502198 g / cm^3
# Si number density = 15.056252 Si / 1000 Ang^3
#
#
#
# Elastic Constant Matrix: (Units=GPa)
#
#
# Indices 1 2 3 4 5 6 
#
# 1 33.8842 44.1364 13.9780 0.0000 0.0000 0.0000
# 2 44.1364 155.0616 48.4705 0.0000 0.0000 0.0000
# 3 13.9780 48.4705 63.5629 0.0000 0.0000 0.0000
# 4 0.0000 0.0000 0.0000 24.4765 0.0000 0.0000
# 5 0.0000 0.0000 0.0000 0.0000 0.0600 0.0000
# 6 0.0000 0.0000 0.0000 0.0000 0.0000 13.7004
#
#
#
# Elastic Compliance Matrix: (Units=1/GPa)
#
#
# Indices 1 2 3 4 5 6 
#
# 1 0.046903 -0.013295 -0.000176 0.000000 0.000000 0.000000
# 2 -0.013295 0.012236 -0.006407 0.000000 0.000000 0.000000
# 3 -0.000176 -0.006407 0.020657 0.000000 0.000000 0.000000
# 4 0.000000 0.000000 0.000000 0.040856 0.000000 0.000000
# 5 0.000000 0.000000 0.000000 0.000000 16.659404 0.000000
# 6 0.000000 0.000000 0.000000 0.000000 0.000000 0.072991
#
#
# Mechanical properties :
#
#
# Convention : Reuss Voigt Hill
#
# Bulk Modulus (GPa) = 24.97542 51.74207 38.35874
# Shear Modulus (GPa) = 0.29575 17.37564 8.83569
#
# Velocity S-wave (km/s) = 0.44369 3.40081 2.42512
# Velocity P-wave (km/s) = 4.10933 7.06124 5.77701
#
# Compressibility (1/GPa) = 0.04003937
#
# Stress axis : x y z
#
# Youngs Moduli (GPa) = 21.32069 81.72490 48.41007
#
# Poissons Ratio (x) = 1.08656 0.00851
# Poissons Ratio (y) = 0.28347 0.31017
# Poissons Ratio (z) = 0.00375 0.52362
#
# Static dielectric constant tensor:
#      x y z
#    x 2.453040 0.000000 0.000000 
#    y 0.000000 4.020470 0.000000 
#    z 0.000000 0.000000 2.949110 
# 
# 
# High freq. dielectric constant tensor:
#      x y z
#    x 1.478370 0.000000 0.000000 
#    y 0.000000 1.603890 0.000000 
#    z 0.000000 0.000000 1.592560 
# 
# From -- ./inp_files/14465.got.cif
#   From: 2010.03.12/outbox.cif.g09.slc.cpg/sg65_8_cif.got.tgz:14465.got - 2010.04.10 20:52:16.
