data_PCOD8265556
_publ_section_title
;
Structure prediction by ZEFSAII (Michael W. Deem and Ramdas Pophale) SiO2 
 PCOD8265556
Probable space group: C M M M
;
_chemical_formula_sum "Si O2"
_cell_formula_units_Z 88
_cell_length_a 31.335601
_cell_length_b 17.740560
_cell_length_c 11.941860
_cell_angle_alpha 90.000000
_cell_angle_beta 90.000000
_cell_angle_gamma 90.000000
_cell_volume 6638.612644
_symmetry_space_group_name_H-M "C M M M"
_symmetry_group_IT_number 65
_symmetry_cell_setting 'orthorhombic'
loop_
_space_group_symop_operation_xyz
x,y,z
-x,-y,z
x,-y,-z
-x,y,-z
-x,-y,-z
x,y,-z
-x,y,z
x,-y,z
1/2+x,1/2+y,z
1/2-x,1/2-y,z
1/2+x,1/2-y,-z
1/2-x,1/2+y,-z
1/2-x,1/2-y,-z
1/2+x,1/2+y,-z
1/2-x,1/2+y,z
1/2+x,1/2-y,z
loop_
_atom_site_type_symbol
_atom_site_label
_atom_site_fract_x
_atom_site_fract_y
_atom_site_fract_z
Si Si1 0.092552 0.410251 0.129928
Si Si2 0.300986 0.254510 0.000000
Si Si3 0.330667 0.823885 0.223974
Si Si4 0.712315 0.582166 0.000000
Si Si5 0.000000 0.418118 0.131826
Si Si6 0.794662 0.793244 0.373612
Si Si7 0.748902 0.415881 0.240218
O O1 0.095747 0.500000 0.150073
O O2 0.124336 0.366072 0.212142
O O3 0.045048 0.378466 0.163332
O O4 0.103100 0.392415 0.000000
O O5 0.250000 0.250000 0.000000
O O6 0.318628 0.214008 0.107857
O O7 0.316996 0.342623 0.000000
O O8 0.331820 0.758033 0.317917
O O9 0.295887 0.884457 0.264138
O O10 0.742791 0.586149 0.892804
O O11 0.687613 0.500000 0.000000
O O12 0.000000 0.500000 0.190074
O O13 0.000000 0.430404 0.000000
O O14 0.808372 0.812835 0.500000
O O15 0.750000 0.750000 0.369477
O O16 0.788457 0.869440 0.302404
O O17 0.746445 0.500000 0.288470
#
# Coordination Sequence:
#
# PCOD8265556 Si02
#       7
#    16   8  16   8   8  16  16
#     4   9  16  24  37  59  83 107 131 158 193 236
#     4  12  16  26  36  53  77 106 124 158 206 240
#     4  11  17  25  39  57  77  98 133 168 197 232
#     4  10  18  26  36  52  74 101 127 156 198 235
#     4   7  12  24  36  50  81 113 129 146 186 239
#     4   9  18  30  40  49  68 101 135 166 200 231
#     4  10  18  26  37  53  75 101 131 166 197 230
#
# _framework density 13.255782
#
# number of rings (size 3 to 8) (size 9 to 14) (size 15 to 20)
#    0.000    2.273    4.545    2.182    0.000    0.364 
#    0.000    0.000    0.000    1.636    0.000    0.636 
#    0.000    2.182    0.000    4.091    0.000    2.091 
#
# Total GULP energy -545117.692027 kJ/mol
# GULP energy per Si atom -12389.038455 kJ/mol
# Density = 1.322561 g / cm^3
# Si number density = 13.255782 Si / 1000 Ang^3
#
#
#
# Elastic Constant Matrix: (Units=GPa)
#
#
# Indices 1 2 3 4 5 6 
#
# 1 76.7183 34.6027 25.9401 0.0000 0.0000 0.0000
# 2 34.6027 90.1165 28.5192 0.0000 0.0000 0.0000
# 3 25.9401 28.5192 69.1268 0.0000 0.0000 0.0000
# 4 0.0000 0.0000 0.0000 4.1500 0.0000 0.0000
# 5 0.0000 0.0000 0.0000 0.0000 7.4816 0.0000
# 6 0.0000 0.0000 0.0000 0.0000 0.0000 12.4483
#
#
#
# Elastic Compliance Matrix: (Units=1/GPa)
#
#
# Indices 1 2 3 4 5 6 
#
# 1 0.016752 -0.005110 -0.004178 0.000000 0.000000 0.000000
# 2 -0.005110 0.014322 -0.003991 0.000000 0.000000 0.000000
# 3 -0.004178 -0.003991 0.017681 0.000000 0.000000 0.000000
# 4 0.000000 0.000000 0.000000 0.240964 0.000000 0.000000
# 5 0.000000 0.000000 0.000000 0.000000 0.133661 0.000000
# 6 0.000000 0.000000 0.000000 0.000000 0.000000 0.080332
#
#
# Mechanical properties :
#
#
# Convention : Reuss Voigt Hill
#
# Bulk Modulus (GPa) = 45.05303 46.00951 45.53127
# Shear Modulus (GPa) = 9.29938 14.60929 11.95434
#
# Velocity S-wave (km/s) = 2.65152 3.32340 3.00629
# Velocity P-wave (km/s) = 6.59055 7.03641 6.81712
#
# Compressibility (1/GPa) = 0.02219607
#
# Stress axis : x y z
#
# Youngs Moduli (GPa) = 59.69331 69.82246 56.55928
#
# Poissons Ratio (x) = 0.35681 0.23631
# Poissons Ratio (y) = 0.30505 0.22573
# Poissons Ratio (z) = 0.24940 0.27867
#
# Static dielectric constant tensor:
#      x y z
#    x 2.541170 0.000000 0.000000 
#    y 0.000000 2.877280 0.000000 
#    z 0.000000 0.000000 2.586580 
# 
# 
# High freq. dielectric constant tensor:
#      x y z
#    x 1.459830 0.000000 0.000000 
#    y 0.000000 1.503830 0.000000 
#    z 0.000000 0.000000 1.489570 
# 
# From -- ./inp_files/34074.got.cif
#   From: 2010.03.12/outbox.cif.g09.slc.cpg/sg65_18_cif.got.tgz:34074.got - 2010.04.10 20:52:16.
