data_PCOD8265897
_publ_section_title
;
Structure prediction by ZEFSAII (Michael W. Deem and Ramdas Pophale) SiO2 
 PCOD8265897
Probable space group: C M M M
;
_chemical_formula_sum "Si O2"
_cell_formula_units_Z 72
_cell_length_a 28.872669
_cell_length_b 8.574555
_cell_length_c 15.655734
_cell_angle_alpha 90.000000
_cell_angle_beta 90.000000
_cell_angle_gamma 90.000000
_cell_volume 3875.894581
_symmetry_space_group_name_H-M "C M M M"
_symmetry_group_IT_number 65
_symmetry_cell_setting 'orthorhombic'
loop_
_space_group_symop_operation_xyz
x,y,z
-x,-y,z
x,-y,-z
-x,y,-z
-x,-y,-z
x,y,-z
-x,y,z
x,-y,z
1/2+x,1/2+y,z
1/2-x,1/2-y,z
1/2+x,1/2-y,-z
1/2-x,1/2+y,-z
1/2-x,1/2-y,-z
1/2+x,1/2+y,-z
1/2-x,1/2+y,z
1/2+x,1/2-y,z
loop_
_atom_site_type_symbol
_atom_site_label
_atom_site_fract_x
_atom_site_fract_y
_atom_site_fract_z
Si Si1 0.052038 0.185039 0.094569
Si Si2 0.300902 0.183659 0.174760
Si Si3 0.386678 0.314011 0.749565
Si Si4 0.301443 0.314962 0.000000
Si Si5 0.051778 0.814757 0.405140
O O1 0.084910 0.251093 0.168753
O O2 0.000000 0.249852 0.108228
O O3 0.050948 0.000000 0.101105
O O4 0.070394 0.234694 0.000000
O O5 0.250000 0.250000 0.193311
O O6 0.335524 0.238005 0.249691
O O7 0.296835 0.000000 0.168689
O O8 0.323997 0.251347 0.087178
O O9 0.382337 0.500000 0.750110
O O10 0.412083 0.250796 0.664515
O O11 0.250000 0.250000 0.000000
O O12 0.303464 0.500000 0.000000
O O13 0.067003 0.759084 0.500000
O O14 0.000000 0.752487 0.384506
O O15 0.050939 0.000000 0.400989
#
# Coordination Sequence:
#
# PCOD8265897 Si02
#       5
#    16  16  16   8  16
#     4   8  14  24  39  64  97 129 163 201 237 283
#     4  11  22  36  51  71 100 134 171 214 259 304
#     4  10  18  28  48  75 100 132 171 212 255 302
#     4  10  18  32  52  72  95 126 167 210 252 295
#     4   8  14  26  47  77 109 136 167 211 257 301
#
# _framework density 18.576356000000001
#
# number of rings (size 3 to 8) (size 9 to 14) (size 15 to 20)
#    0.000    2.667    0.000    6.333    1.556    2.667 
#    0.000    0.000    0.000    4.000    0.000    3.111 
#    0.000    0.000    0.000    0.000    0.000    0.000 
#
# Total GULP energy -446174.519979 kJ/mol
# GULP energy per Si atom -12393.736666 kJ/mol
# Density = 1.853408 g / cm^3
# Si number density = 18.576356 Si / 1000 Ang^3
#
#
#
# Elastic Constant Matrix: (Units=GPa)
#
#
# Indices 1 2 3 4 5 6 
#
# 1 115.7285 31.2323 86.7921 0.0000 0.0000 0.0000
# 2 31.2323 74.0759 31.1561 0.0000 0.0000 0.0000
# 3 86.7921 31.1561 140.3101 0.0000 0.0000 0.0000
# 4 0.0000 0.0000 0.0000 10.9414 0.0000 0.0000
# 5 0.0000 0.0000 0.0000 0.0000 30.3613 0.0000
# 6 0.0000 0.0000 0.0000 0.0000 0.0000 18.0648
#
#
#
# Elastic Compliance Matrix: (Units=1/GPa)
#
#
# Indices 1 2 3 4 5 6 
#
# 1 0.016691 -0.002973 -0.009665 0.000000 0.000000 0.000000
# 2 -0.002973 0.015420 -0.001585 0.000000 0.000000 0.000000
# 3 -0.009665 -0.001585 0.013457 0.000000 0.000000 0.000000
# 4 0.000000 0.000000 0.000000 0.091396 0.000000 0.000000
# 5 0.000000 0.000000 0.000000 0.000000 0.032937 0.000000
# 6 0.000000 0.000000 0.000000 0.000000 0.000000 0.055356
#
#
# Mechanical properties :
#
#
# Convention : Reuss Voigt Hill
#
# Bulk Modulus (GPa) = 58.39953 69.83059 64.11506
# Shear Modulus (GPa) = 19.27447 23.93577 21.60512
#
# Velocity S-wave (km/s) = 3.22464 3.59347 3.41404
# Velocity P-wave (km/s) = 6.73574 7.40879 7.08027
#
# Compressibility (1/GPa) = 0.01712343
#
# Stress axis : x y z
#
# Youngs Moduli (GPa) = 59.91129 64.85206 74.30827
#
# Poissons Ratio (x) = 0.19277 0.71817
# Poissons Ratio (y) = 0.17809 0.11780
# Poissons Ratio (z) = 0.57903 0.10281
#
# Static dielectric constant tensor:
#      x y z
#    x 3.529600 0.000000 0.000000 
#    y 0.000000 2.901110 0.000000 
#    z 0.000000 0.000000 3.816470 
# 
# 
# High freq. dielectric constant tensor:
#      x y z
#    x 1.720300 0.000000 0.000000 
#    y 0.000000 1.676150 0.000000 
#    z 0.000000 0.000000 1.708440 
# 
# From -- ./inp_files/47459.got.cif
#   From: 2010.03.12/outbox.cif.g09.slc.cpg/sg65_24_cif.got.tgz:47459.got - 2010.04.10 20:52:16.
