data_PCOD8265518
_publ_section_title
;
Structure prediction by ZEFSAII (Michael W. Deem and Ramdas Pophale) SiO2 
 PCOD8265518
Probable space group: C M M M
;
_chemical_formula_sum "Si O2"
_cell_formula_units_Z 112
_cell_length_a 18.128210
_cell_length_b 17.314215
_cell_length_c 19.730325
_cell_angle_alpha 90.000000
_cell_angle_beta 90.000000
_cell_angle_gamma 90.000000
_cell_volume 6192.870074
_symmetry_space_group_name_H-M "C M M M"
_symmetry_group_IT_number 65
_symmetry_cell_setting 'orthorhombic'
loop_
_space_group_symop_operation_xyz
x,y,z
-x,-y,z
x,-y,-z
-x,y,-z
-x,-y,-z
x,y,-z
-x,y,z
x,-y,z
1/2+x,1/2+y,z
1/2-x,1/2-y,z
1/2+x,1/2-y,-z
1/2-x,1/2+y,-z
1/2-x,1/2-y,-z
1/2+x,1/2+y,-z
1/2-x,1/2+y,z
1/2+x,1/2-y,z
loop_
_atom_site_type_symbol
_atom_site_label
_atom_site_fract_x
_atom_site_fract_y
_atom_site_fract_z
Si Si1 0.586811 0.087759 0.621304
Si Si2 0.912877 0.205843 0.924085
Si Si3 0.340801 0.679063 0.707018
Si Si4 0.086525 0.915409 0.184334
Si Si5 0.837438 0.260777 0.425299
Si Si6 0.178440 0.290915 0.169706
Si Si7 0.799812 0.586922 0.265856
O O1 0.500000 0.109333 0.624432
O O2 0.632526 0.150675 0.577640
O O3 0.621520 0.089772 0.696421
O O4 0.596603 0.000000 0.591431
O O5 0.881394 0.136614 0.876963
O O6 0.885544 0.284053 0.886839
O O7 0.000000 0.207186 0.926431
O O8 0.880827 0.197991 0.000000
O O9 0.394176 0.616046 0.741070
O O10 0.373176 0.708766 0.634841
O O11 0.339043 0.751559 0.757658
O O12 0.260416 0.640360 0.695603
O O13 0.000000 0.918623 0.177188
O O14 0.121462 0.000000 0.175738
O O15 0.859984 0.229423 0.500000
O O16 0.750000 0.250000 0.416086
O O17 0.250000 0.250000 0.137229
O O18 0.190521 0.380717 0.188875
O O19 0.769589 0.500000 0.260854
#
# Coordination Sequence:
#
# PCOD8265518 Si02
#       7
#    16  16  16  16  16  16  16
#     4  10  21  36  54  78 108 140 175 221 276 325
#     4   9  18  31  48  73 103 134 167 207 258 313
#     4  10  17  33  52  76 101 133 172 219 264 310
#     4   9  18  31  50  76 102 133 172 214 262 315
#     4  11  21  36  56  77 104 139 180 220 261 321
#     4   9  17  30  50  72  99 129 170 209 256 305
#     4  10  18  31  53  77 102 135 174 220 267 312
#
# _framework density 18.085314
#
# number of rings (size 3 to 8) (size 9 to 14) (size 15 to 20)
#    0.000    2.286    2.857    0.857    0.000    2.286 
#    0.000    2.143    0.000    2.143    0.000    2.000 
#    0.000    0.000    0.000    0.000    0.000    0.000 
#
# Total GULP energy -693759.485859 kJ/mol
# GULP energy per Si atom -12388.562247 kJ/mol
# Density = 1.804415 g / cm^3
# Si number density = 18.085314 Si / 1000 Ang^3
#
#
#
# Elastic Constant Matrix: (Units=GPa)
#
#
# Indices 1 2 3 4 5 6 
#
# 1 46.7760 27.3811 25.6655 0.0000 0.0000 0.0000
# 2 27.3811 86.8165 55.1131 0.0000 0.0000 0.0000
# 3 25.6655 55.1131 137.8445 0.0000 0.0000 0.0000
# 4 0.0000 0.0000 0.0000 17.2904 0.0000 0.0000
# 5 0.0000 0.0000 0.0000 0.0000 17.8928 0.0000
# 6 0.0000 0.0000 0.0000 0.0000 0.0000 24.1336
#
#
#
# Elastic Compliance Matrix: (Units=1/GPa)
#
#
# Indices 1 2 3 4 5 6 
#
# 1 0.026686 -0.007052 -0.002149 0.000000 0.000000 0.000000
# 2 -0.007052 0.017300 -0.005604 0.000000 0.000000 0.000000
# 3 -0.002149 -0.005604 0.009895 0.000000 0.000000 0.000000
# 4 0.000000 0.000000 0.000000 0.057835 0.000000 0.000000
# 5 0.000000 0.000000 0.000000 0.000000 0.055888 0.000000
# 6 0.000000 0.000000 0.000000 0.000000 0.000000 0.041436
#
#
# Mechanical properties :
#
#
# Convention : Reuss Voigt Hill
#
# Bulk Modulus (GPa) = 41.20155 54.19515 47.69835
# Shear Modulus (GPa) = 20.26412 22.74854 21.50633
#
# Velocity S-wave (km/s) = 3.35098 3.55046 3.45216
# Velocity P-wave (km/s) = 6.14844 6.84391 6.50548
#
# Compressibility (1/GPa) = 0.02427093
#
# Stress axis : x y z
#
# Youngs Moduli (GPa) = 37.47316 57.80274 101.05856
#
# Poissons Ratio (x) = 0.40763 0.21718
# Poissons Ratio (y) = 0.26427 0.56632
# Poissons Ratio (z) = 0.08053 0.32392
#
# Static dielectric constant tensor:
#      x y z
#    x 3.241100 0.000000 0.000000 
#    y 0.000000 3.608560 0.000000 
#    z 0.000000 0.000000 3.355900 
# 
# 
# High freq. dielectric constant tensor:
#      x y z
#    x 1.688640 0.000000 0.000000 
#    y 0.000000 1.694600 0.000000 
#    z 0.000000 0.000000 1.682380 
# 
# From -- ./inp_files/63957.got.cif
#   From: 2010.03.12/outbox.cif.g09.slc.cpg/sg65_32_cif.got.tgz:63957.got - 2010.04.10 20:52:16.
