data_PCOD8265138
_publ_section_title
;
Structure prediction by ZEFSAII (Michael W. Deem and Ramdas Pophale) SiO2 
 PCOD8265138
Probable space group: C M M M
;
_chemical_formula_sum "Si O2"
_cell_formula_units_Z 72
_cell_length_a 8.535417
_cell_length_b 23.366287
_cell_length_c 20.870540
_cell_angle_alpha 90.000000
_cell_angle_beta 90.000000
_cell_angle_gamma 90.000000
_cell_volume 4162.441437
_symmetry_space_group_name_H-M "C M M M"
_symmetry_group_IT_number 65
_symmetry_cell_setting 'orthorhombic'
loop_
_space_group_symop_operation_xyz
x,y,z
-x,-y,z
x,-y,-z
-x,y,-z
-x,-y,-z
x,y,-z
-x,y,z
x,-y,z
1/2+x,1/2+y,z
1/2-x,1/2-y,z
1/2+x,1/2-y,-z
1/2-x,1/2+y,-z
1/2-x,1/2-y,-z
1/2+x,1/2+y,-z
1/2-x,1/2+y,z
1/2+x,1/2-y,z
loop_
_atom_site_type_symbol
_atom_site_label
_atom_site_fract_x
_atom_site_fract_y
_atom_site_fract_z
Si Si1 0.685385 0.686162 0.628808
Si Si2 0.686047 0.000000 0.925710
Si Si3 0.315299 0.687215 0.000000
Si Si4 0.684756 0.186573 0.239578
Si Si5 0.814889 0.314197 0.500000
Si Si6 0.186042 0.882442 0.122267
O O1 0.500000 0.685263 0.627218
O O2 0.750000 0.750000 0.628920
O O3 0.747661 0.658562 0.694725
O O4 0.751582 0.654569 0.564725
O O5 0.757292 0.946560 0.888376
O O6 0.500000 0.000000 0.920573
O O7 0.740791 0.000000 0.000000
O O8 0.250000 0.750000 0.000000
O O9 0.253249 0.654605 0.937619
O O10 0.500000 0.689354 0.000000
O O11 0.500000 0.191651 0.244810
O O12 0.750000 0.250000 0.225361
O O13 0.732898 0.142941 0.184657
O O14 0.750000 0.250000 0.500000
O O15 0.000000 0.313996 0.500000
O O16 0.000000 0.880272 0.129969
#
# Coordination Sequence:
#
# PCOD8265138 Si02
#       6
#    16   8   8  16   8  16
#     4  10  17  27  42  63  92 130 170 208 248 297
#     4  11  23  39  59  81 101 128 165 210 259 307
#     4  10  22  35  52  75 101 130 164 202 247 298
#     4  11  21  34  50  73 103 137 172 211 257 309
#     4  10  16  24  38  60  90 127 168 209 246 290
#     4  11  22  38  56  76 100 133 169 210 256 306
#
# _framework density 17.297542
#
# number of rings (size 3 to 8) (size 9 to 14) (size 15 to 20)
#    0.000    1.444    1.111    9.333    0.000    4.000 
#    0.000    0.000    0.000    0.000    0.000    0.000 
#    0.000    0.889    0.000    8.889    0.000    6.000 
#
# Total GULP energy -446341.162404 kJ/mol
# GULP energy per Si atom -12398.365622 kJ/mol
# Density = 1.725817 g / cm^3
# Si number density = 17.297542 Si / 1000 Ang^3
#
#
#
# Elastic Constant Matrix: (Units=GPa)
#
#
# Indices 1 2 3 4 5 6 
#
# 1 140.9887 25.4713 60.2304 0.0000 0.0000 0.0000
# 2 25.4713 80.7983 48.9098 0.0000 0.0000 0.0000
# 3 60.2304 48.9098 175.5010 0.0000 0.0000 0.0000
# 4 0.0000 0.0000 0.0000 0.5060 0.0000 0.0000
# 5 0.0000 0.0000 0.0000 0.0000 23.7261 0.0000
# 6 0.0000 0.0000 0.0000 0.0000 0.0000 23.4861
#
#
#
# Elastic Compliance Matrix: (Units=1/GPa)
#
#
# Indices 1 2 3 4 5 6 
#
# 1 0.008390 -0.001085 -0.002577 0.000000 0.000000 0.000000
# 2 -0.001085 0.015028 -0.003816 0.000000 0.000000 0.000000
# 3 -0.002577 -0.003816 0.007646 0.000000 0.000000 0.000000
# 4 0.000000 0.000000 0.000000 1.976285 0.000000 0.000000
# 5 0.000000 0.000000 0.000000 0.000000 0.042148 0.000000
# 6 0.000000 0.000000 0.000000 0.000000 0.000000 0.042578
#
#
# Mechanical properties :
#
#
# Convention : Reuss Voigt Hill
#
# Bulk Modulus (GPa) = 62.07935 74.05676 68.06806
# Shear Modulus (GPa) = 2.36698 27.05539 14.71119
#
# Velocity S-wave (km/s) = 1.17105 3.95918 2.91946
# Velocity P-wave (km/s) = 6.14781 7.98790 7.12749
#
# Compressibility (1/GPa) = 0.01610841
#
# Stress axis : x y z
#
# Youngs Moduli (GPa) = 119.19490 66.54075 130.79113
#
# Poissons Ratio (x) = 0.07219 0.33704
# Poissons Ratio (y) = 0.12932 0.49908
# Poissons Ratio (z) = 0.30715 0.25391
#
# Static dielectric constant tensor:
#      x y z
#    x 3.343900 0.000000 0.000000 
#    y 0.000000 2.765890 0.000000 
#    z 0.000000 0.000000 4.746220 
# 
# 
# High freq. dielectric constant tensor:
#      x y z
#    x 1.689990 0.000000 0.000000 
#    y 0.000000 1.607930 0.000000 
#    z 0.000000 0.000000 1.693690 
# 
# From -- ./inp_files/59376.got.cif
#   From: 2010.03.12/outbox.cif.g09.slc.cpg/sg65_30_cif.got.tgz:59376.got - 2010.04.10 20:52:16.
