data_PCOD8265779
_publ_section_title
;
Structure prediction by ZEFSAII (Michael W. Deem and Ramdas Pophale) SiO2 
 PCOD8265779
Probable space group: C M M M
;
_chemical_formula_sum "Si O2"
_cell_formula_units_Z 64
_cell_length_a 25.701844
_cell_length_b 9.352792
_cell_length_c 17.099710
_cell_angle_alpha 90.000000
_cell_angle_beta 90.000000
_cell_angle_gamma 90.000000
_cell_volume 4110.496705
_symmetry_space_group_name_H-M "C M M M"
_symmetry_group_IT_number 65
_symmetry_cell_setting 'orthorhombic'
loop_
_space_group_symop_operation_xyz
x,y,z
-x,-y,z
x,-y,-z
-x,y,-z
-x,-y,-z
x,y,-z
-x,y,z
x,-y,z
1/2+x,1/2+y,z
1/2-x,1/2-y,z
1/2+x,1/2-y,-z
1/2-x,1/2+y,-z
1/2-x,1/2-y,-z
1/2+x,1/2+y,-z
1/2-x,1/2+y,z
1/2+x,1/2-y,z
loop_
_atom_site_type_symbol
_atom_site_label
_atom_site_fract_x
_atom_site_fract_y
_atom_site_fract_z
Si Si1 0.439068 0.169162 0.169199
Si Si2 0.800784 0.833456 0.410384
Si Si3 0.500000 0.330220 0.587220
Si Si4 0.901739 0.830996 0.685572
Si Si5 0.439732 0.833669 0.000000
O O1 0.500000 0.206998 0.180082
O O2 0.404215 0.252681 0.231431
O O3 0.430669 0.000000 0.178636
O O4 0.418206 0.224503 0.083385
O O5 0.814463 0.794724 0.500000
O O6 0.750000 0.750000 0.381272
O O7 0.848689 0.785590 0.356715
O O8 0.789172 0.000000 0.401295
O O9 0.500000 0.500000 0.582316
O O10 0.500000 0.264875 0.500000
O O11 0.449020 0.275391 0.632027
O O12 0.905170 0.000000 0.699083
O O13 0.500000 0.799746 0.000000
O O14 0.429312 0.000000 0.000000
#
# Coordination Sequence:
#
# PCOD8265779 Si02
#       5
#    16  16   8  16   8
#     4   9  16  27  43  63  89 119 149 178 211 256
#     4   9  18  32  48  65  85 113 151 190 223 257
#     4   9  16  26  41  60  85 118 148 171 203 255
#     4  10  18  28  44  66  90 115 146 181 218 260
#     4   7  12  24  41  59  82 117 152 175 202 252
#
# _framework density 15.569894
#
# number of rings (size 3 to 8) (size 9 to 14) (size 15 to 20)
#    0.000    3.000    1.250    2.250    0.000    4.000 
#    0.000    0.625    0.000    5.250    0.000    0.875 
#    0.000    0.000    0.000    0.000    0.000    0.000 
#
# Total GULP energy -396548.763198 kJ/mol
# GULP energy per Si atom -12392.148850 kJ/mol
# Density = 1.553446 g / cm^3
# Si number density = 15.569894 Si / 1000 Ang^3
#
#
#
# Elastic Constant Matrix: (Units=GPa)
#
#
# Indices 1 2 3 4 5 6 
#
# 1 107.7005 35.6891 72.3471 0.0000 0.0000 0.0000
# 2 35.6891 29.5037 40.8314 0.0000 0.0000 0.0000
# 3 72.3471 40.8314 155.0330 0.0000 0.0000 0.0000
# 4 0.0000 0.0000 0.0000 26.1354 0.0000 0.0000
# 5 0.0000 0.0000 0.0000 0.0000 18.7735 0.0000
# 6 0.0000 0.0000 0.0000 0.0000 0.0000 21.4924
#
#
#
# Elastic Compliance Matrix: (Units=1/GPa)
#
#
# Indices 1 2 3 4 5 6 
#
# 1 0.016897 -0.014991 -0.003937 0.000000 0.000000 0.000000
# 2 -0.014991 0.066634 -0.010554 0.000000 0.000000 0.000000
# 3 -0.003937 -0.010554 0.011067 0.000000 0.000000 0.000000
# 4 0.000000 0.000000 0.000000 0.038262 0.000000 0.000000
# 5 0.000000 0.000000 0.000000 0.000000 0.053267 0.000000
# 6 0.000000 0.000000 0.000000 0.000000 0.000000 0.046528
#
#
# Mechanical properties :
#
#
# Convention : Reuss Voigt Hill
#
# Bulk Modulus (GPa) = 28.06283 65.55250 46.80767
# Shear Modulus (GPa) = 16.47460 22.83823 19.65641
#
# Velocity S-wave (km/s) = 3.25638 3.83406 3.55697
# Velocity P-wave (km/s) = 5.67465 7.86089 6.85548
#
# Compressibility (1/GPa) = 0.03563433
#
# Stress axis : x y z
#
# Youngs Moduli (GPa) = 59.18093 15.00735 90.35850
#
# Poissons Ratio (x) = 0.22498 0.35574
# Poissons Ratio (y) = 0.88720 0.95363
# Poissons Ratio (z) = 0.23299 0.15838
#
# Static dielectric constant tensor:
#      x y z
#    x 2.779880 0.000000 0.000000 
#    y 0.000000 2.686770 0.000000 
#    z 0.000000 0.000000 3.295870 
# 
# 
# High freq. dielectric constant tensor:
#      x y z
#    x 1.566230 0.000000 0.000000 
#    y 0.000000 1.571280 0.000000 
#    z 0.000000 0.000000 1.609470 
# 
# From -- ./inp_files/49662.got.cif
#   From: 2010.03.12/outbox.cif.g09.slc.cpg/sg65_25_cif.got.tgz:49662.got - 2010.04.10 20:52:16.
