data_PCOD8265937
_publ_section_title
;
Structure prediction by ZEFSAII (Michael W. Deem and Ramdas Pophale) SiO2 
 PCOD8265937
Probable space group: C M M M
;
_chemical_formula_sum "Si O2"
_cell_formula_units_Z 72
_cell_length_a 18.359380
_cell_length_b 20.801689
_cell_length_c 11.744889
_cell_angle_alpha 90.000000
_cell_angle_beta 90.000000
_cell_angle_gamma 90.000000
_cell_volume 4485.444906
_symmetry_space_group_name_H-M "C M M M"
_symmetry_group_IT_number 65
_symmetry_cell_setting 'orthorhombic'
loop_
_space_group_symop_operation_xyz
x,y,z
-x,-y,z
x,-y,-z
-x,y,-z
-x,-y,-z
x,y,-z
-x,y,z
x,-y,z
1/2+x,1/2+y,z
1/2-x,1/2-y,z
1/2+x,1/2-y,-z
1/2-x,1/2+y,-z
1/2-x,1/2-y,-z
1/2+x,1/2+y,-z
1/2-x,1/2+y,z
1/2+x,1/2-y,z
loop_
_atom_site_type_symbol
_atom_site_label
_atom_site_fract_x
_atom_site_fract_y
_atom_site_fract_z
Si Si1 0.086592 0.241424 0.373173
Si Si2 0.413572 0.427593 0.000000
Si Si3 0.341460 0.500000 0.634964
Si Si4 0.918591 0.617391 0.635585
Si Si5 0.913379 0.117980 0.242028
Si Si6 0.676255 0.000000 0.364334
O O1 0.118370 0.228393 0.500000
O O2 0.110734 0.311882 0.327489
O O3 0.115506 0.186694 0.287432
O O4 0.000000 0.240310 0.379895
O O5 0.385933 0.390344 0.112231
O O6 0.381772 0.500000 0.000000
O O7 0.500000 0.430979 0.000000
O O8 0.344769 0.500000 0.500000
O O9 0.381489 0.437095 0.678911
O O10 0.258606 0.500000 0.680178
O O11 0.921653 0.615037 0.500000
O O12 0.864379 0.563263 0.684205
O O13 0.000000 0.604664 0.683848
O O14 0.000000 0.113091 0.249714
O O15 0.673465 0.000000 0.500000
#
# Coordination Sequence:
#
# PCOD8265937 Si02
#       6
#    16   8   8  16  16   8
#     4   8  14  24  40  64  89 111 137 168 204 250
#     4   9  16  28  44  62  79 102 142 186 217 238
#     4  11  21  28  37  59  89 119 146 170 202 247
#     4   8  13  24  43  63  84 112 142 171 207 249
#     4  10  18  29  44  61  84 111 142 176 208 246
#     4   9  17  27  38  59  89 114 142 177 206 243
#
# _framework density 16.051919000000002
#
# number of rings (size 3 to 8) (size 9 to 14) (size 15 to 20)
#    0.000    3.000    1.111    2.667    0.000    3.111 
#    0.000    1.111    0.000    5.333    0.000    4.667 
#    0.000    0.000    0.000   14.222    0.000    4.444 
#
# Total GULP energy -446178.853465 kJ/mol
# GULP energy per Si atom -12393.857041 kJ/mol
# Density = 1.601538 g / cm^3
# Si number density = 16.051919 Si / 1000 Ang^3
#
#
#
# Elastic Constant Matrix: (Units=GPa)
#
#
# Indices 1 2 3 4 5 6 
#
# 1 38.7851 33.6237 17.9397 0.0000 0.0000 0.0000
# 2 33.6237 157.0755 52.4663 0.0000 0.0000 0.0000
# 3 17.9397 52.4663 74.6841 0.0000 0.0000 0.0000
# 4 0.0000 0.0000 0.0000 3.8767 0.0000 0.0000
# 5 0.0000 0.0000 0.0000 0.0000 6.1466 0.0000
# 6 0.0000 0.0000 0.0000 0.0000 0.0000 3.2518
#
#
#
# Elastic Compliance Matrix: (Units=1/GPa)
#
#
# Indices 1 2 3 4 5 6 
#
# 1 0.032467 -0.005677 -0.003811 0.000000 0.000000 0.000000
# 2 -0.005677 0.009311 -0.005177 0.000000 0.000000 0.000000
# 3 -0.003811 -0.005177 0.017942 0.000000 0.000000 0.000000
# 4 0.000000 0.000000 0.000000 0.257951 0.000000 0.000000
# 5 0.000000 0.000000 0.000000 0.000000 0.162691 0.000000
# 6 0.000000 0.000000 0.000000 0.000000 0.000000 0.307523
#
#
# Mechanical properties :
#
#
# Convention : Reuss Voigt Hill
#
# Bulk Modulus (GPa) = 32.90531 53.17822 43.04176
# Shear Modulus (GPa) = 6.04342 13.75603 9.89972
#
# Velocity S-wave (km/s) = 1.94245 2.93058 2.48610
# Velocity P-wave (km/s) = 5.05713 6.68221 5.92564
#
# Compressibility (1/GPa) = 0.03039023
#
# Stress axis : x y z
#
# Youngs Moduli (GPa) = 30.80017 107.40041 55.73449
#
# Poissons Ratio (x) = 0.60973 0.21238
# Poissons Ratio (y) = 0.17486 0.28856
# Poissons Ratio (z) = 0.11737 0.55605
#
# Static dielectric constant tensor:
#      x y z
#    x 2.838110 0.000000 0.000000 
#    y 0.000000 3.520560 0.000000 
#    z 0.000000 0.000000 2.879030 
# 
# 
# High freq. dielectric constant tensor:
#      x y z
#    x 1.580650 0.000000 0.000000 
#    y 0.000000 1.633920 0.000000 
#    z 0.000000 0.000000 1.571810 
# 
# From -- ./inp_files/26573.got.cif
#   From: 2010.03.12/outbox.cif.g09.slc.cpg/sg65_14_cif.got.tgz:26573.got - 2010.04.10 20:52:16.
