data_PCOD8265190
_publ_section_title
;
Structure prediction by ZEFSAII (Michael W. Deem and Ramdas Pophale) SiO2 
 PCOD8265190
Probable space group: C M M M
;
_chemical_formula_sum "Si O2"
_cell_formula_units_Z 88
_cell_length_a 18.915366
_cell_length_b 13.638331
_cell_length_c 20.374821
_cell_angle_alpha 90.000000
_cell_angle_beta 90.000000
_cell_angle_gamma 90.000000
_cell_volume 5256.174531
_symmetry_space_group_name_H-M "C M M M"
_symmetry_group_IT_number 65
_symmetry_cell_setting 'orthorhombic'
loop_
_space_group_symop_operation_xyz
x,y,z
-x,-y,z
x,-y,-z
-x,y,-z
-x,-y,-z
x,y,-z
-x,y,z
x,-y,z
1/2+x,1/2+y,z
1/2-x,1/2-y,z
1/2+x,1/2-y,-z
1/2-x,1/2+y,-z
1/2-x,1/2-y,-z
1/2+x,1/2+y,-z
1/2-x,1/2+y,z
1/2+x,1/2-y,z
loop_
_atom_site_type_symbol
_atom_site_label
_atom_site_fract_x
_atom_site_fract_y
_atom_site_fract_z
Si Si1 0.000000 0.883434 0.926203
Si Si2 0.583037 0.110125 0.500000
Si Si3 0.803118 0.611390 0.726168
Si Si4 0.635179 0.612304 0.849222
Si Si5 0.416789 0.797875 0.363597
Si Si6 0.353936 0.390315 0.305054
Si Si7 0.250000 0.750000 0.830621
O O1 0.067787 0.844821 0.886938
O O2 0.000000 0.000000 0.926723
O O3 0.000000 0.841105 0.000000
O O4 0.500000 0.096781 0.500000
O O5 0.606424 0.172816 0.436913
O O6 0.617046 0.000000 0.500000
O O7 0.804617 0.500000 0.752207
O O8 0.872377 0.631014 0.683419
O O9 0.729992 0.628976 0.685991
O O10 0.804141 0.685279 0.787129
O O11 0.649977 0.500000 0.868565
O O12 0.625034 0.623311 0.771142
O O13 0.701879 0.677074 0.873794
O O14 0.500000 0.815069 0.351266
O O15 0.397242 0.684522 0.350490
O O16 0.374061 0.500000 0.328165
#
# Coordination Sequence:
#
# PCOD8265190 Si02
#       7
#     8   8  16  16  16  16   8
#     4   9  18  32  50  74 105 136 169 206 237 278
#     4   9  20  36  48  63  93 133 169 202 252 304
#     4  10  18  31  49  69  99 128 158 201 251 296
#     4   9  17  29  49  73 101 134 162 197 248 291
#     4  11  20  32  51  71  93 125 166 210 250 298
#     4   9  18  32  50  73 100 129 157 197 253 307
#     4  10  16  30  47  73 102 130 158 200 248 302
#
# _framework density 16.742215000000002
#
# number of rings (size 3 to 8) (size 9 to 14) (size 15 to 20)
#    0.000    2.364    3.636    2.182    1.273    1.455 
#    0.000    2.727    0.000    3.818    0.000    0.000 
#    0.000    2.909    0.000    0.000    0.000    0.000 
#
# Total GULP energy -545375.674938 kJ/mol
# GULP energy per Si atom -12394.901703 kJ/mol
# Density = 1.670411 g / cm^3
# Si number density = 16.742215 Si / 1000 Ang^3
#
#
#
# Elastic Constant Matrix: (Units=GPa)
#
#
# Indices 1 2 3 4 5 6 
#
# 1 114.2151 43.1403 52.2899 0.0000 0.0000 0.0000
# 2 43.1403 100.0895 37.0761 0.0000 0.0000 0.0000
# 3 52.2899 37.0761 58.4830 0.0000 0.0000 0.0000
# 4 0.0000 0.0000 0.0000 13.0573 0.0000 0.0000
# 5 0.0000 0.0000 0.0000 0.0000 5.3345 0.0000
# 6 0.0000 0.0000 0.0000 0.0000 0.0000 29.9313
#
#
#
# Elastic Compliance Matrix: (Units=1/GPa)
#
#
# Indices 1 2 3 4 5 6 
#
# 1 0.015115 -0.001972 -0.012264 0.000000 0.000000 0.000000
# 2 -0.001972 0.013315 -0.006678 0.000000 0.000000 0.000000
# 3 -0.012264 -0.006678 0.032298 0.000000 0.000000 0.000000
# 4 0.000000 0.000000 0.000000 0.076586 0.000000 0.000000
# 5 0.000000 0.000000 0.000000 0.000000 0.187459 0.000000
# 6 0.000000 0.000000 0.000000 0.000000 0.000000 0.033410
#
#
# Mechanical properties :
#
#
# Convention : Reuss Voigt Hill
#
# Bulk Modulus (GPa) = 52.91129 59.75559 56.33344
# Shear Modulus (GPa) = 12.30586 19.01671 15.66128
#
# Velocity S-wave (km/s) = 2.71407 3.37390 3.06181
# Velocity P-wave (km/s) = 6.44156 7.13769 6.79854
#
# Compressibility (1/GPa) = 0.01889956
#
# Stress axis : x y z
#
# Youngs Moduli (GPa) = 66.15930 75.10515 30.96144
#
# Poissons Ratio (x) = 0.14809 0.37972
# Poissons Ratio (y) = 0.13045 0.20676
# Poissons Ratio (z) = 0.81140 0.50156
#
# Static dielectric constant tensor:
#      x y z
#    x 3.193950 0.000000 0.000000 
#    y 0.000000 3.356660 0.000000 
#    z 0.000000 0.000000 2.925010 
# 
# 
# High freq. dielectric constant tensor:
#      x y z
#    x 1.641550 0.000000 0.000000 
#    y 0.000000 1.654100 0.000000 
#    z 0.000000 0.000000 1.602510 
# 
# From -- ./inp_files/54369.got.cif
#   From: 2010.03.12/outbox.cif.g09.slc.cpg/sg65_28_cif.got.tgz:54369.got - 2010.04.10 20:52:16.
