data_PCOD8265833
_publ_section_title
;
Structure prediction by ZEFSAII (Michael W. Deem and Ramdas Pophale) SiO2 
 PCOD8265833
Probable space group: C M M M
;
_chemical_formula_sum "Si O2"
_cell_formula_units_Z 72
_cell_length_a 27.355942
_cell_length_b 10.209977
_cell_length_c 16.299818
_cell_angle_alpha 90.000000
_cell_angle_beta 90.000000
_cell_angle_gamma 90.000000
_cell_volume 4552.596846
_symmetry_space_group_name_H-M "C M M M"
_symmetry_group_IT_number 65
_symmetry_cell_setting 'orthorhombic'
loop_
_space_group_symop_operation_xyz
x,y,z
-x,-y,z
x,-y,-z
-x,y,-z
-x,-y,-z
x,y,-z
-x,y,z
x,-y,z
1/2+x,1/2+y,z
1/2-x,1/2-y,z
1/2+x,1/2-y,-z
1/2-x,1/2+y,-z
1/2-x,1/2-y,-z
1/2+x,1/2+y,-z
1/2-x,1/2+y,z
1/2+x,1/2-y,z
loop_
_atom_site_type_symbol
_atom_site_label
_atom_site_fract_x
_atom_site_fract_y
_atom_site_fract_z
Si Si1 0.381683 0.500000 0.596922
Si Si2 0.814011 0.500000 0.738437
Si Si3 0.698732 0.500000 0.280561
Si Si4 0.554368 0.739650 0.403206
Si Si5 0.202607 0.157752 0.000000
Si Si6 0.110618 0.500000 0.403653
Si Si7 0.192196 0.760421 0.171892
O O1 0.376526 0.500000 0.500000
O O2 0.326161 0.500000 0.630123
O O3 0.411210 0.625002 0.630842
O O4 0.757147 0.500000 0.713472
O O5 0.840813 0.500000 0.651094
O O6 0.829223 0.624048 0.794261
O O7 0.678010 0.373012 0.235062
O O8 0.549995 0.725526 0.500000
O O9 0.500000 0.729553 0.364443
O O10 0.577976 0.876852 0.379082
O O11 0.250000 0.250000 0.000000
O O12 0.171905 0.197897 0.081630
O O13 0.215075 0.000000 0.000000
O O14 0.125669 0.500000 0.500000
O O15 0.250000 0.750000 0.164664
#
# Coordination Sequence:
#
# PCOD8265833 Si02
#       7
#     8   8   8  16   8   8  16
#     4  10  19  29  45  66  89 121 159 191 227 271
#     4  10  20  31  43  64  93 129 162 192 220 259
#     4  10  18  31  43  60  91 129 158 188 220 257
#     4   9  17  30  47  66  86 110 146 195 247 289
#     4  10  18  28  46  68  88 114 155 195 232 280
#     4  10  19  31  47  66  89 123 163 195 227 269
#     4   9  18  29  44  61  87 119 155 189 230 268
#
# _framework density 15.815149
#
# number of rings (size 3 to 8) (size 9 to 14) (size 15 to 20)
#    0.000    2.444    1.111    2.000    4.667    3.111 
#    0.000    0.000    0.000    8.000    0.000    0.000 
#    0.000    0.000    0.000   70.000    0.000    7.778 
#
# Total GULP energy -446140.657135 kJ/mol
# GULP energy per Si atom -12392.796032 kJ/mol
# Density = 1.577915 g / cm^3
# Si number density = 15.815149 Si / 1000 Ang^3
#
#
#
# Elastic Constant Matrix: (Units=GPa)
#
#
# Indices 1 2 3 4 5 6 
#
# 1 61.7146 33.9511 39.9175 0.0000 0.0000 0.0000
# 2 33.9511 143.7492 42.0955 0.0000 0.0000 0.0000
# 3 39.9175 42.0955 80.0126 0.0000 0.0000 0.0000
# 4 0.0000 0.0000 0.0000 6.0329 0.0000 0.0000
# 5 0.0000 0.0000 0.0000 0.0000 4.2335 0.0000
# 6 0.0000 0.0000 0.0000 0.0000 0.0000 24.1783
#
#
#
# Elastic Compliance Matrix: (Units=1/GPa)
#
#
# Indices 1 2 3 4 5 6 
#
# 1 0.024740 -0.002635 -0.010956 0.000000 0.000000 0.000000
# 2 -0.002635 0.008504 -0.003160 0.000000 0.000000 0.000000
# 3 -0.010956 -0.003160 0.019626 0.000000 0.000000 0.000000
# 4 0.000000 0.000000 0.000000 0.165757 0.000000 0.000000
# 5 0.000000 0.000000 0.000000 0.000000 0.236209 0.000000
# 6 0.000000 0.000000 0.000000 0.000000 0.000000 0.041359
#
#
# Mechanical properties :
#
#
# Convention : Reuss Voigt Hill
#
# Bulk Modulus (GPa) = 51.62919 57.48939 54.55929
# Shear Modulus (GPa) = 9.32571 18.18979 13.75775
#
# Velocity S-wave (km/s) = 2.43095 3.39507 2.95262
# Velocity P-wave (km/s) = 6.37147 7.19711 6.79684
#
# Compressibility (1/GPa) = 0.01936889
#
# Stress axis : x y z
#
# Youngs Moduli (GPa) = 40.42106 117.59034 50.95195
#
# Poissons Ratio (x) = 0.30981 0.55824
# Poissons Ratio (y) = 0.10650 0.16099
# Poissons Ratio (z) = 0.44286 0.37155
#
# Static dielectric constant tensor:
#      x y z
#    x 2.712570 0.000000 0.000000 
#    y 0.000000 3.449580 0.000000 
#    z 0.000000 0.000000 3.084730 
# 
# 
# High freq. dielectric constant tensor:
#      x y z
#    x 1.561870 0.000000 0.000000 
#    y 0.000000 1.634710 0.000000 
#    z 0.000000 0.000000 1.588140 
# 
# From -- ./inp_files/46620.got.cif
#   From: 2010.03.12/outbox.cif.g09.slc.cpg/sg65_24_cif.got.tgz:46620.got - 2010.04.10 20:52:16.
