data_PCOD8265613
_publ_section_title
;
Structure prediction by ZEFSAII (Michael W. Deem and Ramdas Pophale) SiO2 
 PCOD8265613
Probable space group: C M M M
;
_chemical_formula_sum "Si O2"
_cell_formula_units_Z 88
_cell_length_a 13.855196
_cell_length_b 30.149492
_cell_length_c 13.628879
_cell_angle_alpha 90.000000
_cell_angle_beta 90.000000
_cell_angle_gamma 90.000000
_cell_volume 5693.152387
_symmetry_space_group_name_H-M "C M M M"
_symmetry_group_IT_number 65
_symmetry_cell_setting 'orthorhombic'
loop_
_space_group_symop_operation_xyz
x,y,z
-x,-y,z
x,-y,-z
-x,y,-z
-x,-y,-z
x,y,-z
-x,y,z
x,-y,z
1/2+x,1/2+y,z
1/2-x,1/2-y,z
1/2+x,1/2-y,-z
1/2-x,1/2+y,-z
1/2-x,1/2-y,-z
1/2+x,1/2+y,-z
1/2-x,1/2+y,z
1/2+x,1/2-y,z
loop_
_atom_site_type_symbol
_atom_site_label
_atom_site_fract_x
_atom_site_fract_y
_atom_site_fract_z
Si Si1 0.386476 0.088638 0.216577
Si Si2 0.886491 0.676792 0.893159
Si Si3 0.292118 0.136920 0.611689
Si Si4 0.385257 0.000000 0.889144
Si Si5 0.108348 0.187265 0.613760
Si Si6 0.114743 0.720939 0.700010
O O1 0.500000 0.087213 0.240134
O O2 0.361167 0.126801 0.138749
O O3 0.330843 0.097951 0.318349
O O4 0.348580 0.042926 0.170072
O O5 0.847965 0.710878 0.810819
O O6 0.000000 0.682070 0.902428
O O7 0.838727 0.686287 0.000000
O O8 0.307258 0.121110 0.500000
O O9 0.178381 0.145638 0.634051
O O10 0.347186 0.183401 0.626400
O O11 0.500000 0.000000 0.895303
O O12 0.343021 0.000000 0.000000
O O13 0.108329 0.200340 0.500000
O O14 0.150553 0.230071 0.671268
O O15 0.000000 0.174826 0.648934
O O16 0.000000 0.718647 0.693225
#
# Coordination Sequence:
#
# PCOD8265613 Si02
#       6
#    16  16  16   8  16  16
#     4   9  17  27  41  63  86 107 133 161 190 234
#     4   8  13  22  36  54  78 107 135 163 195 228
#     4  10  18  27  40  57  81 112 138 165 204 244
#     4   9  16  28  47  67  88 113 135 157 189 230
#     4   9  17  28  41  57  76 102 141 182 210 233
#     4   9  16  24  37  58  82 109 141 173 202 238
#
# _framework density 15.457166000000001
#
# number of rings (size 3 to 8) (size 9 to 14) (size 15 to 20)
#    0.000    3.000    0.000    3.273    0.000    5.818 
#    0.000    0.455    0.000   11.455    0.000    0.636 
#    0.000    3.636    0.000    0.000    0.000    0.000 
#
# Total GULP energy -545368.355014 kJ/mol
# GULP energy per Si atom -12394.735341 kJ/mol
# Density = 1.542198 g / cm^3
# Si number density = 15.457166 Si / 1000 Ang^3
#
#
#
# Elastic Constant Matrix: (Units=GPa)
#
#
# Indices 1 2 3 4 5 6 
#
# 1 30.2095 24.7596 31.3033 0.0000 0.0000 0.0000
# 2 24.7596 71.2432 54.1319 0.0000 0.0000 0.0000
# 3 31.3033 54.1319 118.3129 0.0000 0.0000 0.0000
# 4 0.0000 0.0000 0.0000 20.2079 0.0000 0.0000
# 5 0.0000 0.0000 0.0000 0.0000 10.5864 0.0000
# 6 0.0000 0.0000 0.0000 0.0000 0.0000 15.4995
#
#
#
# Elastic Compliance Matrix: (Units=1/GPa)
#
#
# Indices 1 2 3 4 5 6 
#
# 1 0.051064 -0.011468 -0.008264 0.000000 0.000000 0.000000
# 2 -0.011468 0.024092 -0.007989 0.000000 0.000000 0.000000
# 3 -0.008264 -0.007989 0.014294 0.000000 0.000000 0.000000
# 4 0.000000 0.000000 0.000000 0.049486 0.000000 0.000000
# 5 0.000000 0.000000 0.000000 0.000000 0.094461 0.000000
# 6 0.000000 0.000000 0.000000 0.000000 0.000000 0.064518
#
#
# Mechanical properties :
#
#
# Convention : Reuss Voigt Hill
#
# Bulk Modulus (GPa) = 29.40364 48.90611 39.15488
# Shear Modulus (GPa) = 13.71025 16.56348 15.13687
#
# Velocity S-wave (km/s) = 2.98146 3.27704 3.13274
# Velocity P-wave (km/s) = 5.56022 6.78433 6.20255
#
# Compressibility (1/GPa) = 0.03400939
#
# Stress axis : x y z
#
# Youngs Moduli (GPa) = 19.58328 41.50803 69.96127
#
# Poissons Ratio (x) = 0.47600 0.57814
# Poissons Ratio (y) = 0.22457 0.55889
# Poissons Ratio (z) = 0.16183 0.33159
#
# Static dielectric constant tensor:
#      x y z
#    x 2.830830 0.000000 0.000000 
#    y 0.000000 2.803090 0.000000 
#    z 0.000000 0.000000 3.233940 
# 
# 
# High freq. dielectric constant tensor:
#      x y z
#    x 1.563120 0.000000 0.000000 
#    y 0.000000 1.561480 0.000000 
#    z 0.000000 0.000000 1.599300 
# 
# From -- ./inp_files/40564.got.cif
#   From: 2010.03.12/outbox.cif.g09.slc.cpg/sg65_21_cif.got.tgz:40564.got - 2010.04.10 20:52:16.
