data_PCOD8265676
_publ_section_title
;
Structure prediction by ZEFSAII (Michael W. Deem and Ramdas Pophale) SiO2 
 PCOD8265676
Probable space group: C M M M
;
_chemical_formula_sum "Si O2"
_cell_formula_units_Z 68
_cell_length_a 14.062641
_cell_length_b 23.813109
_cell_length_c 12.864482
_cell_angle_alpha 90.000000
_cell_angle_beta 90.000000
_cell_angle_gamma 90.000000
_cell_volume 4307.996021
_symmetry_space_group_name_H-M "C M M M"
_symmetry_group_IT_number 65
_symmetry_cell_setting 'orthorhombic'
loop_
_space_group_symop_operation_xyz
x,y,z
-x,-y,z
x,-y,-z
-x,y,-z
-x,-y,-z
x,y,-z
-x,y,z
x,-y,z
1/2+x,1/2+y,z
1/2-x,1/2-y,z
1/2+x,1/2-y,-z
1/2-x,1/2+y,-z
1/2-x,1/2-y,-z
1/2+x,1/2+y,-z
1/2-x,1/2+y,z
1/2+x,1/2-y,z
loop_
_atom_site_type_symbol
_atom_site_label
_atom_site_fract_x
_atom_site_fract_y
_atom_site_fract_z
Si Si1 0.893170 0.000000 0.376759
Si Si2 0.500000 0.711283 0.000000
Si Si3 0.500000 0.780709 0.791867
Si Si4 0.500000 0.310083 0.615636
Si Si5 0.314109 0.617609 0.619501
Si Si6 0.208979 0.686681 0.785606
Si Si7 0.288016 0.686226 0.000000
O O1 0.833714 0.945592 0.341000
O O2 0.904341 0.000000 0.500000
O O3 0.000000 0.000000 0.328377
O O4 0.500000 0.748135 0.101476
O O5 0.402011 0.676276 0.000000
O O6 0.500000 0.740470 0.694004
O O7 0.404823 0.817195 0.788417
O O8 0.500000 0.284299 0.500000
O O9 0.589702 0.348697 0.634386
O O10 0.279053 0.618659 0.500000
O O11 0.235206 0.646765 0.690123
O O12 0.250000 0.750000 0.769219
O O13 0.248248 0.659512 0.893295
O O14 0.250000 0.750000 0.000000
#
# Coordination Sequence:
#
# PCOD8265676 Si02
#       7
#     8   4   8   8  16  16   8
#     4   9  16  30  52  74  94 121 162 204 241 286
#     4  12  16  28  48  66  94 126 170 200 224 280
#     4  12  20  30  45  69 100 132 163 194 231 288
#     4  10  18  27  44  70  99 129 155 186 236 294
#     4  10  19  31  48  72  99 126 158 197 242 289
#     4  11  20  31  47  70  99 131 162 196 239 284
#     4  10  18  30  46  69  95 131 163 195 233 277
#
# _framework density 15.784601
#
# number of rings (size 3 to 8) (size 9 to 14) (size 15 to 20)
#    0.000    1.529    8.235    0.000    0.000    1.412 
#    0.000    0.000    0.000    1.412    0.000    3.294 
#    0.000    2.824    0.000    0.000    0.000    0.000 
#
# Total GULP energy -421428.151846 kJ/mol
# GULP energy per Si atom -12394.945643 kJ/mol
# Density = 1.574867 g / cm^3
# Si number density = 15.784601 Si / 1000 Ang^3
#
#
#
# Elastic Constant Matrix: (Units=GPa)
#
#
# Indices 1 2 3 4 5 6 
#
# 1 139.9680 39.0710 55.6721 0.0000 0.0000 0.0000
# 2 39.0710 54.7675 42.6803 0.0000 0.0000 0.0000
# 3 55.6721 42.6803 106.2656 0.0000 0.0000 0.0000
# 4 0.0000 0.0000 0.0000 9.9620 0.0000 0.0000
# 5 0.0000 0.0000 0.0000 0.0000 33.3754 0.0000
# 6 0.0000 0.0000 0.0000 0.0000 0.0000 13.1316
#
#
#
# Elastic Compliance Matrix: (Units=1/GPa)
#
#
# Indices 1 2 3 4 5 6 
#
# 1 0.009673 -0.004296 -0.003342 0.000000 0.000000 0.000000
# 2 -0.004296 0.028486 -0.009190 0.000000 0.000000 0.000000
# 3 -0.003342 -0.009190 0.014852 0.000000 0.000000 0.000000
# 4 0.000000 0.000000 0.000000 0.100381 0.000000 0.000000
# 5 0.000000 0.000000 0.000000 0.000000 0.029962 0.000000
# 6 0.000000 0.000000 0.000000 0.000000 0.000000 0.076152
#
#
# Mechanical properties :
#
#
# Convention : Reuss Voigt Hill
#
# Bulk Modulus (GPa) = 51.66838 63.98310 57.82574
# Shear Modulus (GPa) = 16.68805 22.19900 19.44353
#
# Velocity S-wave (km/s) = 3.25504 3.75423 3.51351
# Velocity P-wave (km/s) = 6.85066 7.70814 7.29202
#
# Compressibility (1/GPa) = 0.01935420
#
# Stress axis : x y z
#
# Youngs Moduli (GPa) = 103.37960 35.10518 67.32882
#
# Poissons Ratio (x) = 0.15082 0.22503
# Poissons Ratio (y) = 0.44414 0.61877
# Poissons Ratio (z) = 0.34551 0.32262
#
# Static dielectric constant tensor:
#      x y z
#    x 3.372570 0.000000 0.000000 
#    y 0.000000 2.806280 0.000000 
#    z 0.000000 0.000000 3.268140 
# 
# 
# High freq. dielectric constant tensor:
#      x y z
#    x 1.609400 0.000000 0.000000 
#    y 0.000000 1.555670 0.000000 
#    z 0.000000 0.000000 1.614900 
# 
# From -- ./inp_files/24957.got.cif
#   From: 2010.03.12/outbox.cif.g09.slc.cpg/sg65_13_cif.got.tgz:24957.got - 2010.04.10 20:52:16.
