data_PCOD8265869
_publ_section_title
;
Structure prediction by ZEFSAII (Michael W. Deem and Ramdas Pophale) SiO2 
 PCOD8265869
Probable space group: C M M M
;
_chemical_formula_sum "Si O2"
_cell_formula_units_Z 104
_cell_length_a 21.344655
_cell_length_b 12.569434
_cell_length_c 22.756131
_cell_angle_alpha 90.000000
_cell_angle_beta 90.000000
_cell_angle_gamma 90.000000
_cell_volume 6105.247672
_symmetry_space_group_name_H-M "C M M M"
_symmetry_group_IT_number 65
_symmetry_cell_setting 'orthorhombic'
loop_
_space_group_symop_operation_xyz
x,y,z
-x,-y,z
x,-y,-z
-x,y,-z
-x,-y,-z
x,y,-z
-x,y,z
x,-y,z
1/2+x,1/2+y,z
1/2-x,1/2-y,z
1/2+x,1/2-y,-z
1/2-x,1/2+y,-z
1/2-x,1/2-y,-z
1/2+x,1/2+y,-z
1/2-x,1/2+y,z
1/2+x,1/2-y,z
loop_
_atom_site_type_symbol
_atom_site_label
_atom_site_fract_x
_atom_site_fract_y
_atom_site_fract_z
Si Si1 0.428720 0.121217 0.907045
Si Si2 0.660239 0.378478 0.187420
Si Si3 0.821551 0.214397 0.935267
Si Si4 0.070157 0.303674 0.220798
Si Si5 0.069923 0.626202 0.565053
Si Si6 0.750000 0.250000 0.737343
Si Si7 0.145718 0.621163 0.324952
O O1 0.500000 0.159560 0.924850
O O2 0.373007 0.190495 0.935274
O O3 0.421817 0.125108 0.836976
O O4 0.419168 0.000000 0.928002
O O5 0.647033 0.500000 0.203255
O O6 0.663138 0.367974 0.116588
O O7 0.605372 0.307971 0.214355
O O8 0.723875 0.340826 0.219047
O O9 0.750000 0.250000 0.925225
O O10 0.826627 0.160358 0.000000
O O11 0.093653 0.375445 0.274295
O O12 0.000000 0.270444 0.233672
O O13 0.093795 0.660203 0.500000
O O14 0.066714 0.500000 0.570184
O O15 0.117293 0.669181 0.614597
O O16 0.000000 0.672371 0.575577
O O17 0.798256 0.303018 0.693250
O O18 0.168766 0.500000 0.333329
#
# Coordination Sequence:
#
# PCOD8265869 Si02
#       7
#    16  16  16  16  16   8  16
#     4   9  18  33  53  76 102 129 154 194 255 305
#     4  10  20  35  52  67  91 127 156 191 245 293
#     4  10  21  36  50  71  98 126 164 205 240 291
#     4   9  18  31  48  74  99 119 154 200 239 289
#     4   8  14  25  42  67  98 128 157 190 232 281
#     4  10  20  34  46  70  94 122 160 206 234 282
#     4  10  18  28  47  70  96 130 162 196 239 283
#
# _framework density 17.034526
#
# number of rings (size 3 to 8) (size 9 to 14) (size 15 to 20)
#    0.000    2.615    0.769    1.846    0.000    3.385 
#    0.000    2.692    0.000    0.000    0.000    4.308 
#    0.000    5.538    0.000   49.385    0.000    3.846 
#
# Total GULP energy -644426.104518 kJ/mol
# GULP energy per Si atom -12392.809702 kJ/mol
# Density = 1.699575 g / cm^3
# Si number density = 17.034526 Si / 1000 Ang^3
#
#
#
# Elastic Constant Matrix: (Units=GPa)
#
#
# Indices 1 2 3 4 5 6 
#
# 1 97.8954 25.0743 38.9954 0.0000 0.0000 0.0000
# 2 25.0743 66.0626 18.8575 0.0000 0.0000 0.0000
# 3 38.9954 18.8575 115.1557 0.0000 0.0000 0.0000
# 4 0.0000 0.0000 0.0000 13.6177 0.0000 0.0000
# 5 0.0000 0.0000 0.0000 0.0000 61.8791 0.0000
# 6 0.0000 0.0000 0.0000 0.0000 0.0000 17.3264
#
#
#
# Elastic Compliance Matrix: (Units=1/GPa)
#
#
# Indices 1 2 3 4 5 6 
#
# 1 0.012635 -0.003750 -0.003665 0.000000 0.000000 0.000000
# 2 -0.003750 0.016992 -0.001513 0.000000 0.000000 0.000000
# 3 -0.003665 -0.001513 0.010173 0.000000 0.000000 0.000000
# 4 0.000000 0.000000 0.000000 0.073434 0.000000 0.000000
# 5 0.000000 0.000000 0.000000 0.000000 0.016161 0.000000
# 6 0.000000 0.000000 0.000000 0.000000 0.000000 0.057716
#
#
# Mechanical properties :
#
#
# Convention : Reuss Voigt Hill
#
# Bulk Modulus (GPa) = 45.56701 49.44090 47.50395
# Shear Modulus (GPa) = 23.55384 31.64373 27.59879
#
# Velocity S-wave (km/s) = 3.72252 4.31469 4.02950
# Velocity P-wave (km/s) = 6.72934 7.34228 7.04248
#
# Compressibility (1/GPa) = 0.02194570
#
# Stress axis : x y z
#
# Youngs Moduli (GPa) = 79.14423 58.85055 98.30335
#
# Poissons Ratio (x) = 0.22067 0.36025
# Poissons Ratio (y) = 0.29676 0.14872
# Poissons Ratio (z) = 0.29003 0.08903
#
# Static dielectric constant tensor:
#      x y z
#    x 3.342740 0.000000 0.000000 
#    y 0.000000 2.781090 0.000000 
#    z 0.000000 0.000000 3.376800 
# 
# 
# High freq. dielectric constant tensor:
#      x y z
#    x 1.662190 0.000000 0.000000 
#    y 0.000000 1.618580 0.000000 
#    z 0.000000 0.000000 1.662460 
# 
# From -- ./inp_files/71201.got.cif
#   From: 2010.03.12/outbox.cif.g09.slc.cpg/sg65_36_cif.got.tgz:71201.got - 2010.04.10 20:52:16.
