data_PCOD8265343
_publ_section_title
;
Structure prediction by ZEFSAII (Michael W. Deem and Ramdas Pophale) SiO2 
 PCOD8265343
Probable space group: C M M M
;
_chemical_formula_sum "Si O2"
_cell_formula_units_Z 88
_cell_length_a 24.126897
_cell_length_b 32.658691
_cell_length_c 7.950163
_cell_angle_alpha 90.000000
_cell_angle_beta 90.000000
_cell_angle_gamma 90.000000
_cell_volume 6264.353784
_symmetry_space_group_name_H-M "C M M M"
_symmetry_group_IT_number 65
_symmetry_cell_setting 'orthorhombic'
loop_
_space_group_symop_operation_xyz
x,y,z
-x,-y,z
x,-y,-z
-x,y,-z
-x,-y,-z
x,y,-z
-x,y,z
x,-y,z
1/2+x,1/2+y,z
1/2-x,1/2-y,z
1/2+x,1/2-y,-z
1/2-x,1/2+y,-z
1/2-x,1/2-y,-z
1/2+x,1/2+y,-z
1/2-x,1/2+y,z
1/2+x,1/2-y,z
loop_
_atom_site_type_symbol
_atom_site_label
_atom_site_fract_x
_atom_site_fract_y
_atom_site_fract_z
Si Si1 0.435414 0.048313 0.000000
Si Si2 0.500000 0.156755 0.690518
Si Si3 0.722534 0.292175 0.695590
Si Si4 0.379998 0.250107 0.800869
Si Si5 0.175961 0.333379 0.807109
Si Si6 0.102087 0.598831 0.691150
Si Si7 0.000000 0.743584 0.188204
O O1 0.403792 0.063408 0.830870
O O2 0.500000 0.062056 0.000000
O O3 0.430538 0.000000 0.000000
O O4 0.500000 0.173405 0.500000
O O5 0.553282 0.130107 0.728793
O O6 0.500000 0.194387 0.817913
O O7 0.727900 0.299918 0.500000
O O8 0.750000 0.250000 0.756079
O O9 0.657955 0.289027 0.748552
O O10 0.757263 0.328151 0.786717
O O11 0.355050 0.207042 0.730188
O O12 0.442048 0.257871 0.724402
O O13 0.383299 0.246710 0.000000
O O14 0.158371 0.374745 0.710366
O O15 0.159926 0.339260 0.000000
O O16 0.099043 0.580721 0.500000
O O17 0.000000 0.760899 0.000000
#
# Coordination Sequence:
#
# PCOD8265343 Si02
#       7
#     8   8  16  16  16  16   8
#     4  11  24  38  52  66  85 112 136 163 210 265
#     4  10  20  28  40  61  82 101 131 175 216 249
#     4   9  17  27  37  52  78 105 131 166 208 251
#     4   9  17  26  37  54  77 105 137 171 209 252
#     4  10  17  27  45  62  79 103 133 170 212 253
#     4  11  21  33  49  68  85 104 136 175 212 256
#     4  10  18  26  40  56  77 107 139 177 215 252
#
# _framework density 14.047737
#
# number of rings (size 3 to 8) (size 9 to 14) (size 15 to 20)
#    0.000    2.091    3.636    1.091    1.273    4.000 
#    0.000    0.909    0.000    0.000    0.000    0.000 
#    0.000    0.000    0.000    0.000    0.000    0.000 
#
# Total GULP energy -545244.546629 kJ/mol
# GULP energy per Si atom -12391.921514 kJ/mol
# Density = 1.401576 g / cm^3
# Si number density = 14.047737 Si / 1000 Ang^3
#
#
#
# Elastic Constant Matrix: (Units=GPa)
#
#
# Indices 1 2 3 4 5 6 
#
# 1 92.2368 31.0826 19.1500 0.0000 0.0000 0.0000
# 2 31.0826 41.0777 21.8799 0.0000 0.0000 0.0000
# 3 19.1500 21.8799 55.3040 0.0000 0.0000 0.0000
# 4 0.0000 0.0000 0.0000 12.0295 0.0000 0.0000
# 5 0.0000 0.0000 0.0000 0.0000 14.6852 0.0000
# 6 0.0000 0.0000 0.0000 0.0000 0.0000 20.1091
#
#
#
# Elastic Compliance Matrix: (Units=1/GPa)
#
#
# Indices 1 2 3 4 5 6 
#
# 1 0.014585 -0.010575 -0.000867 0.000000 0.000000 0.000000
# 2 -0.010575 0.038511 -0.011574 0.000000 0.000000 0.000000
# 3 -0.000867 -0.011574 0.022961 0.000000 0.000000 0.000000
# 4 0.000000 0.000000 0.000000 0.083129 0.000000 0.000000
# 5 0.000000 0.000000 0.000000 0.000000 0.068096 0.000000
# 6 0.000000 0.000000 0.000000 0.000000 0.000000 0.049729
#
#
# Mechanical properties :
#
#
# Convention : Reuss Voigt Hill
#
# Bulk Modulus (GPa) = 33.30486 36.98262 35.14374
# Shear Modulus (GPa) = 15.01274 17.13182 16.07228
#
# Velocity S-wave (km/s) = 3.27264 3.49598 3.38615
# Velocity P-wave (km/s) = 6.16766 6.53295 6.35293
#
# Compressibility (1/GPa) = 0.03002565
#
# Stress axis : x y z
#
# Youngs Moduli (GPa) = 68.56306 25.96683 43.55183
#
# Poissons Ratio (x) = 0.27459 0.03775
# Poissons Ratio (y) = 0.72502 0.50408
# Poissons Ratio (z) = 0.05943 0.30055
#
# Static dielectric constant tensor:
#      x y z
#    x 2.795810 0.000000 0.000000 
#    y 0.000000 2.331010 0.000000 
#    z 0.000000 0.000000 2.740570 
# 
# 
# High freq. dielectric constant tensor:
#      x y z
#    x 1.531840 0.000000 0.000000 
#    y 0.000000 1.465570 0.000000 
#    z 0.000000 0.000000 1.546090 
# 
# From -- ./inp_files/15012.got.cif
#   From: 2010.03.12/outbox.cif.g09.slc.cpg/sg65_8_cif.got.tgz:15012.got - 2010.04.10 20:52:16.
