data_PCOD8265843
_publ_section_title
;
Structure prediction by ZEFSAII (Michael W. Deem and Ramdas Pophale) SiO2 
 PCOD8265843
Probable space group: C M M M
;
_chemical_formula_sum "Si O2"
_cell_formula_units_Z 104
_cell_length_a 28.038530
_cell_length_b 23.688296
_cell_length_c 9.248433
_cell_angle_alpha 90.000000
_cell_angle_beta 90.000000
_cell_angle_gamma 90.000000
_cell_volume 6142.670454
_symmetry_space_group_name_H-M "C M M M"
_symmetry_group_IT_number 65
_symmetry_cell_setting 'orthorhombic'
loop_
_space_group_symop_operation_xyz
x,y,z
-x,-y,z
x,-y,-z
-x,y,-z
-x,-y,-z
x,y,-z
-x,y,z
x,-y,z
1/2+x,1/2+y,z
1/2-x,1/2-y,z
1/2+x,1/2-y,-z
1/2-x,1/2+y,-z
1/2-x,1/2-y,-z
1/2+x,1/2+y,-z
1/2-x,1/2+y,z
1/2+x,1/2-y,z
loop_
_atom_site_type_symbol
_atom_site_label
_atom_site_fract_x
_atom_site_fract_y
_atom_site_fract_z
Si Si1 0.445663 0.733958 0.332072
Si Si2 0.908884 0.132069 0.170739
Si Si3 0.869870 0.566151 0.167782
Si Si4 0.777434 0.567109 0.336701
Si Si5 0.055728 0.637252 0.334874
Si Si6 0.500000 0.436788 0.172026
Si Si7 0.815077 0.065386 0.831659
O O1 0.441240 0.719190 0.500000
O O2 0.500000 0.724862 0.279387
O O3 0.410532 0.693696 0.242458
O O4 0.429926 0.798161 0.302981
O O5 0.860609 0.101134 0.218205
O O6 0.953113 0.095123 0.229037
O O7 0.911539 0.139579 0.000000
O O8 0.876907 0.500000 0.194974
O O9 0.823674 0.589761 0.252079
O O10 0.916576 0.596955 0.226115
O O11 0.862861 0.579946 0.000000
O O12 0.778470 0.590584 0.500000
O O13 0.777616 0.500000 0.334007
O O14 0.729872 0.588946 0.257598
O O15 0.068564 0.621482 0.500000
O O16 0.000000 0.628139 0.306866
O O17 0.500000 0.500000 0.236021
O O18 0.500000 0.439193 0.000000
O O19 0.825720 0.000000 0.797233
O O20 0.803630 0.073648 0.000000
#
# Coordination Sequence:
#
# PCOD8265843 Si02
#       7
#    16  16  16  16  16   8  16
#     4   9  18  33  50  67  92 127 166 206 245 283
#     4  10  18  28  46  70  94 126 167 207 245 290
#     4  10  20  33  51  77 106 131 154 188 238 288
#     4   9  17  30  49  71  95 127 165 199 233 284
#     4   9  19  35  53  73  98 131 167 198 232 281
#     4   9  16  26  41  65  97 129 162 201 244 291
#     4   9  17  29  45  68  98 129 162 203 249 291
#
# _framework density 16.930747
#
# number of rings (size 3 to 8) (size 9 to 14) (size 15 to 20)
#    0.000    2.692    0.769    2.308    0.000    6.462 
#    0.000    3.077    0.000    2.769    0.000    6.462 
#    0.000    0.000    0.000    0.000    0.000    0.000 
#
# Total GULP energy -644848.985455 kJ/mol
# GULP energy per Si atom -12400.942028 kJ/mol
# Density = 1.689221 g / cm^3
# Si number density = 16.930747 Si / 1000 Ang^3
#
#
#
# Elastic Constant Matrix: (Units=GPa)
#
#
# Indices 1 2 3 4 5 6 
#
# 1 115.3683 52.7773 60.8585 0.0000 0.0000 0.0000
# 2 52.7773 64.2491 46.3263 0.0000 0.0000 0.0000
# 3 60.8585 46.3263 81.4197 0.0000 0.0000 0.0000
# 4 0.0000 0.0000 0.0000 27.1374 0.0000 0.0000
# 5 0.0000 0.0000 0.0000 0.0000 30.9575 0.0000
# 6 0.0000 0.0000 0.0000 0.0000 0.0000 13.7216
#
#
#
# Elastic Compliance Matrix: (Units=1/GPa)
#
#
# Indices 1 2 3 4 5 6 
#
# 1 0.016344 -0.007829 -0.007762 0.000000 0.000000 0.000000
# 2 -0.007829 0.030142 -0.011298 0.000000 0.000000 0.000000
# 3 -0.007762 -0.011298 0.024513 0.000000 0.000000 0.000000
# 4 0.000000 0.000000 0.000000 0.036849 0.000000 0.000000
# 5 0.000000 0.000000 0.000000 0.000000 0.032302 0.000000
# 6 0.000000 0.000000 0.000000 0.000000 0.000000 0.072878
#
#
# Mechanical properties :
#
#
# Convention : Reuss Voigt Hill
#
# Bulk Modulus (GPa) = 58.07288 64.55127 61.31207
# Shear Modulus (GPa) = 18.34546 21.10164 19.72355
#
# Velocity S-wave (km/s) = 3.29532 3.53420 3.41685
# Velocity P-wave (km/s) = 6.98953 7.40699 7.20129
#
# Compressibility (1/GPa) = 0.01721974
#
# Stress axis : x y z
#
# Youngs Moduli (GPa) = 61.18465 33.17611 40.79548
#
# Poissons Ratio (x) = 0.25973 0.31666
# Poissons Ratio (y) = 0.47901 0.46093
# Poissons Ratio (z) = 0.47492 0.37484
#
# Static dielectric constant tensor:
#      x y z
#    x 3.180500 0.000000 0.000000 
#    y 0.000000 2.965740 0.000000 
#    z 0.000000 0.000000 3.092820 
# 
# 
# High freq. dielectric constant tensor:
#      x y z
#    x 1.652300 0.000000 0.000000 
#    y 0.000000 1.629490 0.000000 
#    z 0.000000 0.000000 1.647920 
# 
# From -- ./inp_files/14707.got.cif
#   From: 2010.03.12/outbox.cif.g09.slc.cpg/sg65_8_cif.got.tgz:14707.got - 2010.04.10 20:52:16.
