data_PCOD8265696
_publ_section_title
;
Structure prediction by ZEFSAII (Michael W. Deem and Ramdas Pophale) SiO2 
 PCOD8265696
Probable space group: C M M M
;
_chemical_formula_sum "Si O2"
_cell_formula_units_Z 80
_cell_length_a 18.182545
_cell_length_b 36.394883
_cell_length_c 9.133060
_cell_angle_alpha 90.000000
_cell_angle_beta 90.000000
_cell_angle_gamma 90.000000
_cell_volume 6043.817049
_symmetry_space_group_name_H-M "C M M M"
_symmetry_group_IT_number 65
_symmetry_cell_setting 'orthorhombic'
loop_
_space_group_symop_operation_xyz
x,y,z
-x,-y,z
x,-y,-z
-x,y,-z
-x,-y,-z
x,y,-z
-x,y,z
x,-y,z
1/2+x,1/2+y,z
1/2-x,1/2-y,z
1/2+x,1/2-y,-z
1/2-x,1/2+y,-z
1/2-x,1/2-y,-z
1/2+x,1/2+y,-z
1/2-x,1/2+y,z
1/2+x,1/2-y,z
loop_
_atom_site_type_symbol
_atom_site_label
_atom_site_fract_x
_atom_site_fract_y
_atom_site_fract_z
Si Si1 0.084331 0.752908 0.170616
Si Si2 0.336884 0.177477 0.171963
Si Si3 0.912863 0.611030 0.667741
Si Si4 0.912674 0.459535 0.164261
Si Si5 0.708912 0.711435 0.665393
O O1 0.111696 0.712118 0.209930
O O2 0.129571 0.783694 0.259059
O O3 0.000000 0.756152 0.218857
O O4 0.095584 0.760875 0.000000
O O5 0.375892 0.141867 0.234437
O O6 0.256929 0.181817 0.245983
O O7 0.325343 0.172883 0.000000
O O8 0.888731 0.615742 0.500000
O O9 0.883727 0.571491 0.724417
O O10 0.000000 0.614366 0.686322
O O11 0.884185 0.500000 0.214103
O O12 0.000000 0.459623 0.164651
O O13 0.884343 0.450842 0.000000
O O14 0.697901 0.697409 0.500000
O O15 0.750000 0.750000 0.670061
#
# Coordination Sequence:
#
# PCOD8265696 Si02
#       5
#    16  16  16  16  16
#     4   9  17  28  41  56  72  92 121 154 185 219
#     4  10  18  28  41  54  71  96 124 153 185 220
#     4  10  19  27  36  53  75  96 120 153 190 223
#     4   8  14  25  39  52  67  90 120 151 181 215
#     4   9  17  28  40  54  72  93 117 147 185 225
#
# _framework density 13.236668999999999
#
# number of rings (size 3 to 8) (size 9 to 14) (size 15 to 20)
#    0.000    2.800    0.000    3.000    0.000    6.000 
#    0.000    2.000    0.000    0.000    0.000    0.000 
#    0.000    0.000    0.000    0.000    0.000    1.000 
#
# Total GULP energy -495901.187025 kJ/mol
# GULP energy per Si atom -12397.529676 kJ/mol
# Density = 1.320654 g / cm^3
# Si number density = 13.236669 Si / 1000 Ang^3
#
#
#
# Elastic Constant Matrix: (Units=GPa)
#
#
# Indices 1 2 3 4 5 6 
#
# 1 66.8999 26.6763 38.8115 0.0000 0.0000 0.0000
# 2 26.6763 55.9868 40.0146 0.0000 0.0000 0.0000
# 3 38.8115 40.0146 81.7209 0.0000 0.0000 0.0000
# 4 0.0000 0.0000 0.0000 21.0849 0.0000 0.0000
# 5 0.0000 0.0000 0.0000 0.0000 20.0402 0.0000
# 6 0.0000 0.0000 0.0000 0.0000 0.0000 11.3581
#
#
#
# Elastic Compliance Matrix: (Units=1/GPa)
#
#
# Indices 1 2 3 4 5 6 
#
# 1 0.021345 -0.004500 -0.007934 0.000000 0.000000 0.000000
# 2 -0.004500 0.028426 -0.011782 0.000000 0.000000 0.000000
# 3 -0.007934 -0.011782 0.021774 0.000000 0.000000 0.000000
# 4 0.000000 0.000000 0.000000 0.047427 0.000000 0.000000
# 5 0.000000 0.000000 0.000000 0.000000 0.049900 0.000000
# 6 0.000000 0.000000 0.000000 0.000000 0.000000 0.088043
#
#
# Mechanical properties :
#
#
# Convention : Reuss Voigt Hill
#
# Bulk Modulus (GPa) = 43.26442 46.17916 44.72179
# Shear Modulus (GPa) = 15.97192 17.10366 16.53779
#
# Velocity S-wave (km/s) = 3.47744 3.59854 3.53851
# Velocity P-wave (km/s) = 6.99140 7.22696 7.11016
#
# Compressibility (1/GPa) = 0.02311368
#
# Stress axis : x y z
#
# Youngs Moduli (GPa) = 46.84978 35.17920 45.92694
#
# Poissons Ratio (x) = 0.15830 0.36438
# Poissons Ratio (y) = 0.21081 0.54110
# Poissons Ratio (z) = 0.37170 0.41447
#
# Static dielectric constant tensor:
#      x y z
#    x 2.471840 0.000000 0.000000 
#    y 0.000000 2.630980 0.000000 
#    z 0.000000 0.000000 2.811920 
# 
# 
# High freq. dielectric constant tensor:
#      x y z
#    x 1.465340 0.000000 0.000000 
#    y 0.000000 1.481650 0.000000 
#    z 0.000000 0.000000 1.518710 
# 
# From -- ./inp_files/9872.got.cif
#   From: 2010.03.12/outbox.cif.g09.slc.cpg/sg65_5_cif.got.tgz:9872.got - 2010.04.10 20:52:16.
