data_PCOD8265450
_publ_section_title
;
Structure prediction by ZEFSAII (Michael W. Deem and Ramdas Pophale) SiO2 
 PCOD8265450
Probable space group: C M M M
;
_chemical_formula_sum "Si O2"
_cell_formula_units_Z 64
_cell_length_a 14.647249
_cell_length_b 18.939898
_cell_length_c 12.207504
_cell_angle_alpha 90.000000
_cell_angle_beta 90.000000
_cell_angle_gamma 90.000000
_cell_volume 3386.574045
_symmetry_space_group_name_H-M "C M M M"
_symmetry_group_IT_number 65
_symmetry_cell_setting 'orthorhombic'
loop_
_space_group_symop_operation_xyz
x,y,z
-x,-y,z
x,-y,-z
-x,y,-z
-x,-y,-z
x,y,-z
-x,y,z
x,-y,z
1/2+x,1/2+y,z
1/2-x,1/2-y,z
1/2+x,1/2-y,-z
1/2-x,1/2+y,-z
1/2-x,1/2-y,-z
1/2+x,1/2+y,-z
1/2-x,1/2+y,z
1/2+x,1/2-y,z
loop_
_atom_site_type_symbol
_atom_site_label
_atom_site_fract_x
_atom_site_fract_y
_atom_site_fract_z
Si Si1 0.102437 0.192042 0.766663
Si Si2 0.651922 0.286138 0.000000
Si Si3 0.736335 0.081482 0.237718
Si Si4 0.606421 0.174820 0.626628
Si Si5 0.745227 0.577341 0.000000
O O1 0.101104 0.231056 0.886372
O O2 0.169864 0.125879 0.754606
O O3 0.135241 0.251235 0.681075
O O4 0.000000 0.166077 0.739651
O O5 0.750000 0.250000 0.000000
O O6 0.659714 0.370799 0.000000
O O7 0.660784 0.110118 0.320047
O O8 0.757231 0.000000 0.267464
O O9 0.696860 0.088359 0.112396
O O10 0.632797 0.179270 0.500000
O O11 0.500000 0.159409 0.644540
O O12 0.700688 0.500000 0.000000
#
# Coordination Sequence:
#
# PCOD8265450 Si02
#       5
#    16   8  16  16   8
#     4  10  20  34  54  81 112 145 179 216 263 320
#     4  10  17  29  52  80 109 140 178 222 260 301
#     4  10  20  35  56  80 108 142 177 218 266 316
#     4  10  22  39  57  77 103 138 180 226 276 327
#     4   8  16  31  49  73 106 139 168 201 252 313
#
# _framework density 18.898154000000002
#
# number of rings (size 3 to 8) (size 9 to 14) (size 15 to 20)
#    0.000    2.250    0.000    4.125    0.000    3.500 
#    0.000    3.125    0.000    9.750    0.000    5.250 
#    0.000    0.000    0.000    0.000    0.000    0.000 
#
# Total GULP energy -396540.011706 kJ/mol
# GULP energy per Si atom -12391.875366 kJ/mol
# Density = 1.885514 g / cm^3
# Si number density = 18.898154 Si / 1000 Ang^3
#
#
#
# Elastic Constant Matrix: (Units=GPa)
#
#
# Indices 1 2 3 4 5 6 
#
# 1 73.2375 58.7558 50.1268 0.0000 0.0000 0.0000
# 2 58.7558 128.2606 69.5856 0.0000 0.0000 0.0000
# 3 50.1268 69.5856 153.8095 0.0000 0.0000 0.0000
# 4 0.0000 0.0000 0.0000 22.2909 0.0000 0.0000
# 5 0.0000 0.0000 0.0000 0.0000 28.1509 0.0000
# 6 0.0000 0.0000 0.0000 0.0000 0.0000 22.3520
#
#
#
# Elastic Compliance Matrix: (Units=1/GPa)
#
#
# Indices 1 2 3 4 5 6 
#
# 1 0.023014 -0.008579 -0.003619 0.000000 0.000000 0.000000
# 2 -0.008579 0.013531 -0.003326 0.000000 0.000000 0.000000
# 3 -0.003619 -0.003326 0.009186 0.000000 0.000000 0.000000
# 4 0.000000 0.000000 0.000000 0.044861 0.000000 0.000000
# 5 0.000000 0.000000 0.000000 0.000000 0.035523 0.000000
# 6 0.000000 0.000000 0.000000 0.000000 0.000000 0.044739
#
#
# Mechanical properties :
#
#
# Convention : Reuss Voigt Hill
#
# Bulk Modulus (GPa) = 68.10640 79.13821 73.62231
# Shear Modulus (GPa) = 24.17849 26.34805 25.26327
#
# Velocity S-wave (km/s) = 3.58076 3.73797 3.66021
# Velocity P-wave (km/s) = 7.29471 7.78440 7.54353
#
# Compressibility (1/GPa) = 0.01468291
#
# Stress axis : x y z
#
# Youngs Moduli (GPa) = 43.45194 73.90437 108.86690
#
# Poissons Ratio (x) = 0.63404 0.39398
# Poissons Ratio (y) = 0.37278 0.36205
# Poissons Ratio (z) = 0.15725 0.24578
#
# Static dielectric constant tensor:
#      x y z
#    x 3.204010 0.000000 0.000000 
#    y 0.000000 3.523990 0.000000 
#    z 0.000000 0.000000 3.837290 
# 
# 
# High freq. dielectric constant tensor:
#      x y z
#    x 1.708320 0.000000 0.000000 
#    y 0.000000 1.733250 0.000000 
#    z 0.000000 0.000000 1.748540 
# 
# From -- ./inp_files/23985.got.cif
#   From: 2010.03.12/outbox.cif.g09.slc.cpg/sg65_12_cif.got.tgz:23985.got - 2010.04.10 20:52:16.
