data_PCOD8265139
_publ_section_title
;
Structure prediction by ZEFSAII (Michael W. Deem and Ramdas Pophale) SiO2 
 PCOD8265139
Probable space group: C M M M
;
_chemical_formula_sum "Si O2"
_cell_formula_units_Z 72
_cell_length_a 8.577167
_cell_length_b 18.969370
_cell_length_c 23.527066
_cell_angle_alpha 90.000000
_cell_angle_beta 90.000000
_cell_angle_gamma 90.000000
_cell_volume 3827.934910
_symmetry_space_group_name_H-M "C M M M"
_symmetry_group_IT_number 65
_symmetry_cell_setting 'orthorhombic'
loop_
_space_group_symop_operation_xyz
x,y,z
-x,-y,z
x,-y,-z
-x,y,-z
-x,-y,-z
x,y,-z
-x,y,z
x,-y,z
1/2+x,1/2+y,z
1/2-x,1/2-y,z
1/2+x,1/2-y,-z
1/2-x,1/2+y,-z
1/2-x,1/2-y,-z
1/2+x,1/2+y,-z
1/2-x,1/2+y,z
1/2+x,1/2-y,z
loop_
_atom_site_type_symbol
_atom_site_label
_atom_site_fract_x
_atom_site_fract_y
_atom_site_fract_z
Si Si1 0.315412 0.824894 0.063729
Si Si2 0.314895 0.171945 0.269895
Si Si3 0.815169 0.171344 0.614119
Si Si4 0.184631 0.328964 0.500000
Si Si5 0.314568 0.078890 0.835485
O O1 0.500000 0.820398 0.065903
O O2 0.250000 0.750000 0.083860
O O3 0.252695 0.884294 0.106863
O O4 0.257196 0.843568 0.000000
O O5 0.500000 0.175815 0.273931
O O6 0.250000 0.250000 0.259543
O O7 0.247387 0.136237 0.327735
O O8 0.255799 0.122808 0.218739
O O9 0.750000 0.250000 0.614857
O O10 0.748393 0.132664 0.557319
O O11 0.000000 0.170766 0.612458
O O12 0.250000 0.250000 0.500000
O O13 0.000000 0.328731 0.500000
O O14 0.500000 0.076439 0.835772
O O15 0.245196 0.000000 0.832793
#
# Coordination Sequence:
#
# PCOD8265139 Si02
#       5
#    16  16  16   8  16
#     4   9  17  30  50  74  98 125 157 194 236 282
#     4  10  18  29  46  66  90 121 157 196 237 281
#     4  10  17  26  40  61  90 121 154 191 234 281
#     4  10  16  24  38  60  91 122 153 188 233 283
#     4   9  18  31  47  69  95 123 158 199 239 279
#
# _framework density 18.809097999999999
#
# number of rings (size 3 to 8) (size 9 to 14) (size 15 to 20)
#    0.000    2.444    0.000    7.000    0.000    0.444 
#    0.000    3.333    0.000    6.000    0.000    3.889 
#    0.000    6.222    0.000    0.000    0.000    0.000 
#
# Total GULP energy -446202.447498 kJ/mol
# GULP energy per Si atom -12394.512431 kJ/mol
# Density = 1.876629 g / cm^3
# Si number density = 18.809098 Si / 1000 Ang^3
#
#
#
# Elastic Constant Matrix: (Units=GPa)
#
#
# Indices 1 2 3 4 5 6 
#
# 1 91.0314 21.1880 42.9046 0.0000 0.0000 0.0000
# 2 21.1880 95.3844 82.5678 0.0000 0.0000 0.0000
# 3 42.9046 82.5678 198.1545 0.0000 0.0000 0.0000
# 4 0.0000 0.0000 0.0000 5.5228 0.0000 0.0000
# 5 0.0000 0.0000 0.0000 0.0000 23.9510 0.0000
# 6 0.0000 0.0000 0.0000 0.0000 0.0000 14.1378
#
#
#
# Elastic Compliance Matrix: (Units=1/GPa)
#
#
# Indices 1 2 3 4 5 6 
#
# 1 0.012261 -0.000666 -0.002377 0.000000 0.000000 0.000000
# 2 -0.000666 0.016435 -0.006704 0.000000 0.000000 0.000000
# 3 -0.002377 -0.006704 0.008355 0.000000 0.000000 0.000000
# 4 0.000000 0.000000 0.000000 0.181068 0.000000 0.000000
# 5 0.000000 0.000000 0.000000 0.000000 0.041752 0.000000
# 6 0.000000 0.000000 0.000000 0.000000 0.000000 0.070732
#
#
# Mechanical properties :
#
#
# Convention : Reuss Voigt Hill
#
# Bulk Modulus (GPa) = 56.95928 75.32123 66.14026
# Shear Modulus (GPa) = 14.04698 24.58299 19.31498
#
# Velocity S-wave (km/s) = 2.73576 3.61913 3.20800
# Velocity P-wave (km/s) = 6.35042 7.58921 6.99728
#
# Compressibility (1/GPa) = 0.01755640
#
# Stress axis : x y z
#
# Youngs Moduli (GPa) = 81.56194 60.84567 119.69165
#
# Poissons Ratio (x) = 0.04050 0.28455
# Poissons Ratio (y) = 0.05429 0.80242
# Poissons Ratio (z) = 0.19390 0.40792
#
# Static dielectric constant tensor:
#      x y z
#    x 3.254130 0.000000 0.000000 
#    y 0.000000 3.696150 0.000000 
#    z 0.000000 0.000000 4.677010 
# 
# 
# High freq. dielectric constant tensor:
#      x y z
#    x 1.718460 0.000000 0.000000 
#    y 0.000000 1.672360 0.000000 
#    z 0.000000 0.000000 1.763220 
# 
# From -- ./inp_files/67111.got.cif
#   From: 2010.03.12/outbox.cif.g09.slc.cpg/sg65_34_cif.got.tgz:67111.got - 2010.04.10 20:52:16.
