data_PCOD8265785
_publ_section_title
;
Structure prediction by ZEFSAII (Michael W. Deem and Ramdas Pophale) SiO2 
 PCOD8265785
Probable space group: C M M M
;
_chemical_formula_sum "Si O2"
_cell_formula_units_Z 88
_cell_length_a 27.367973
_cell_length_b 9.114867
_cell_length_c 21.274553
_cell_angle_alpha 90.000000
_cell_angle_beta 90.000000
_cell_angle_gamma 90.000000
_cell_volume 5307.052851
_symmetry_space_group_name_H-M "C M M M"
_symmetry_group_IT_number 65
_symmetry_cell_setting 'orthorhombic'
loop_
_space_group_symop_operation_xyz
x,y,z
-x,-y,z
x,-y,-z
-x,y,-z
-x,-y,-z
x,y,-z
-x,y,z
x,-y,z
1/2+x,1/2+y,z
1/2-x,1/2-y,z
1/2+x,1/2-y,-z
1/2-x,1/2+y,-z
1/2-x,1/2-y,-z
1/2+x,1/2+y,-z
1/2-x,1/2+y,z
1/2+x,1/2-y,z
loop_
_atom_site_type_symbol
_atom_site_label
_atom_site_fract_x
_atom_site_fract_y
_atom_site_fract_z
Si Si1 0.799719 0.667441 0.000000
Si Si2 0.110025 0.331127 0.571978
Si Si3 0.444659 0.669433 0.675185
Si Si4 0.197839 0.671730 0.136281
Si Si5 0.800491 0.829604 0.371640
Si Si6 0.354437 0.332584 0.243805
O O1 0.750000 0.750000 0.000000
O O2 0.826139 0.703595 0.066625
O O3 0.784529 0.500000 0.000000
O O4 0.093749 0.314867 0.500000
O O5 0.119144 0.500000 0.590301
O O6 0.066246 0.266925 0.614092
O O7 0.159478 0.241161 0.582966
O O8 0.500000 0.697195 0.697560
O O9 0.435341 0.500000 0.656643
O O10 0.408462 0.712323 0.732117
O O11 0.206316 0.500000 0.147770
O O12 0.250000 0.750000 0.144989
O O13 0.158585 0.729443 0.185765
O O14 0.750000 0.750000 0.384863
O O15 0.815559 0.807346 0.299279
O O16 0.795472 0.000000 0.388655
O O17 0.353473 0.500000 0.220588
#
# Coordination Sequence:
#
# PCOD8265785 Si02
#       6
#     8  16  16  16  16  16
#     4   8  16  28  40  60  91 126 161 191 218 255
#     4  10  21  35  50  70  95 121 151 188 229 275
#     4   9  19  36  55  72  91 117 149 188 235 283
#     4  10  18  28  44  66  95 129 160 189 222 261
#     4  10  20  33  49  68  93 125 158 192 229 271
#     4   9  18  31  47  69  93 117 150 189 228 272
#
# _framework density 16.581707999999999
#
# number of rings (size 3 to 8) (size 9 to 14) (size 15 to 20)
#    0.000    2.545    0.000    3.273    0.000    8.364 
#    0.000    1.818    0.000    0.000    0.000    0.636 
#    0.000    5.091    0.000    0.000    0.000    0.000 
#
# Total GULP energy -545438.809899 kJ/mol
# GULP energy per Si atom -12396.336589 kJ/mol
# Density = 1.654397 g / cm^3
# Si number density = 16.581708 Si / 1000 Ang^3
#
#
#
# Elastic Constant Matrix: (Units=GPa)
#
#
# Indices 1 2 3 4 5 6 
#
# 1 94.3423 40.7189 41.9267 0.0000 0.0000 0.0000
# 2 40.7189 96.7093 58.4975 0.0000 0.0000 0.0000
# 3 41.9267 58.4975 110.9655 0.0000 0.0000 0.0000
# 4 0.0000 0.0000 0.0000 26.6489 0.0000 0.0000
# 5 0.0000 0.0000 0.0000 0.0000 14.2512 0.0000
# 6 0.0000 0.0000 0.0000 0.0000 0.0000 24.3006
#
#
#
# Elastic Compliance Matrix: (Units=1/GPa)
#
#
# Indices 1 2 3 4 5 6 
#
# 1 0.013654 -0.003859 -0.003125 0.000000 0.000000 0.000000
# 2 -0.003859 0.016272 -0.007120 0.000000 0.000000 0.000000
# 3 -0.003125 -0.007120 0.013946 0.000000 0.000000 0.000000
# 4 0.000000 0.000000 0.000000 0.037525 0.000000 0.000000
# 5 0.000000 0.000000 0.000000 0.000000 0.070169 0.000000
# 6 0.000000 0.000000 0.000000 0.000000 0.000000 0.041151
#
#
# Mechanical properties :
#
#
# Convention : Reuss Voigt Hill
#
# Bulk Modulus (GPa) = 63.83847 64.92261 64.38054
# Shear Modulus (GPa) = 22.10968 23.76507 22.93738
#
# Velocity S-wave (km/s) = 3.65551 3.78988 3.72330
# Velocity P-wave (km/s) = 7.50999 7.64128 7.57592
#
# Compressibility (1/GPa) = 0.01566454
#
# Stress axis : x y z
#
# Youngs Moduli (GPa) = 73.23946 61.45633 71.70612
#
# Poissons Ratio (x) = 0.23715 0.22406
# Poissons Ratio (y) = 0.28262 0.51054
# Poissons Ratio (z) = 0.22885 0.43756
#
# Static dielectric constant tensor:
#      x y z
#    x 2.931270 0.000000 0.000000 
#    y 0.000000 3.244640 0.000000 
#    z 0.000000 0.000000 3.435650 
# 
# 
# High freq. dielectric constant tensor:
#      x y z
#    x 1.612020 0.000000 0.000000 
#    y 0.000000 1.652370 0.000000 
#    z 0.000000 0.000000 1.634000 
# 
# From -- ./inp_files/60270.got.cif
#   From: 2010.03.12/outbox.cif.g09.slc.cpg/sg65_31_cif.got.tgz:60270.got - 2010.04.10 20:52:16.
