data_PCOD8265482
_publ_section_title
;
Structure prediction by ZEFSAII (Michael W. Deem and Ramdas Pophale) SiO2 
 PCOD8265482
Probable space group: C M M M
;
_chemical_formula_sum "Si O2"
_cell_formula_units_Z 80
_cell_length_a 14.011420
_cell_length_b 18.750169
_cell_length_c 17.937731
_cell_angle_alpha 90.000000
_cell_angle_beta 90.000000
_cell_angle_gamma 90.000000
_cell_volume 4712.537779
_symmetry_space_group_name_H-M "C M M M"
_symmetry_group_IT_number 65
_symmetry_cell_setting 'orthorhombic'
loop_
_space_group_symop_operation_xyz
x,y,z
-x,-y,z
x,-y,-z
-x,y,-z
-x,-y,-z
x,y,-z
-x,y,z
x,-y,z
1/2+x,1/2+y,z
1/2-x,1/2-y,z
1/2+x,1/2-y,-z
1/2-x,1/2+y,-z
1/2-x,1/2-y,-z
1/2+x,1/2+y,-z
1/2-x,1/2+y,z
1/2+x,1/2-y,z
loop_
_atom_site_type_symbol
_atom_site_label
_atom_site_fract_x
_atom_site_fract_y
_atom_site_fract_z
Si Si1 0.392252 0.584147 0.083912
Si Si2 0.890745 0.078534 0.648397
Si Si3 0.358162 0.727938 0.418620
Si Si4 0.894238 0.284591 0.264149
Si Si5 0.209488 0.858480 0.220398
O O1 0.500000 0.606063 0.109011
O O2 0.381995 0.500000 0.086894
O O3 0.310215 0.617995 0.135813
O O4 0.373469 0.611750 0.000000
O O5 0.864566 0.142406 0.592460
O O6 0.827298 0.081354 0.723058
O O7 0.000000 0.087213 0.673186
O O8 0.873697 0.000000 0.611511
O O9 0.403513 0.745210 0.500000
O O10 0.250000 0.750000 0.417136
O O11 0.406944 0.774529 0.353725
O O12 0.852127 0.211984 0.232777
O O13 0.822110 0.346940 0.237885
O O14 0.000000 0.301032 0.231894
#
# Coordination Sequence:
#
# PCOD8265482 Si02
#       5
#    16  16  16  16  16
#     4   9  17  29  49  77 102 125 155 190 237 300
#     4  10  19  30  48  75 101 126 160 204 257 310
#     4  10  18  32  50  70  98 132 167 202 252 308
#     4  10  19  31  48  71  95 127 173 209 238 289
#     4  10  17  31  48  70  98 133 158 200 249 290
#
# _framework density 16.975991
#
# number of rings (size 3 to 8) (size 9 to 14) (size 15 to 20)
#    0.000    2.200    4.000    4.800    0.000    3.600 
#    0.000    3.000    0.000    4.200    0.000    1.400 
#    0.000    3.200    0.000    0.000    0.000    0.000 
#
# Total GULP energy -495591.602187 kJ/mol
# GULP energy per Si atom -12389.790055 kJ/mol
# Density = 1.693735 g / cm^3
# Si number density = 16.975991 Si / 1000 Ang^3
#
#
#
# Elastic Constant Matrix: (Units=GPa)
#
#
# Indices 1 2 3 4 5 6 
#
# 1 129.0620 43.7518 36.2837 0.0000 0.0000 0.0000
# 2 43.7518 57.1563 19.2027 0.0000 0.0000 0.0000
# 3 36.2837 19.2027 92.8066 0.0000 0.0000 0.0000
# 4 0.0000 0.0000 0.0000 15.4651 0.0000 0.0000
# 5 0.0000 0.0000 0.0000 0.0000 13.3874 0.0000
# 6 0.0000 0.0000 0.0000 0.0000 0.0000 22.0006
#
#
#
# Elastic Compliance Matrix: (Units=1/GPa)
#
#
# Indices 1 2 3 4 5 6 
#
# 1 0.011089 -0.007557 -0.002772 0.000000 0.000000 0.000000
# 2 -0.007557 0.023953 -0.002002 0.000000 0.000000 0.000000
# 3 -0.002772 -0.002002 0.012273 0.000000 0.000000 0.000000
# 4 0.000000 0.000000 0.000000 0.064662 0.000000 0.000000
# 5 0.000000 0.000000 0.000000 0.000000 0.074697 0.000000
# 6 0.000000 0.000000 0.000000 0.000000 0.000000 0.045453
#
#
# Mechanical properties :
#
#
# Convention : Reuss Voigt Hill
#
# Bulk Modulus (GPa) = 44.14209 53.05569 48.59889
# Shear Modulus (GPa) = 18.91497 22.15639 20.53568
#
# Velocity S-wave (km/s) = 3.34161 3.61662 3.48183
# Velocity P-wave (km/s) = 6.39903 6.98292 6.69734
#
# Compressibility (1/GPa) = 0.02265412
#
# Stress axis : x y z
#
# Youngs Moduli (GPa) = 90.17584 41.74766 81.48029
#
# Poissons Ratio (x) = 0.31551 0.22585
# Poissons Ratio (y) = 0.68150 0.16309
# Poissons Ratio (z) = 0.24995 0.08356
#
# Static dielectric constant tensor:
#      x y z
#    x 3.204820 0.000000 0.000000 
#    y 0.000000 2.559340 0.000000 
#    z 0.000000 0.000000 3.524360 
# 
# 
# High freq. dielectric constant tensor:
#      x y z
#    x 1.647700 0.000000 0.000000 
#    y 0.000000 1.629830 0.000000 
#    z 0.000000 0.000000 1.648220 
# 
# From -- ./inp_files/52858.got.cif
#   From: 2010.03.12/outbox.cif.g09.slc.cpg/sg65_27_cif.got.tgz:52858.got - 2010.04.10 20:52:16.
