data_PCOD8265751
_publ_section_title
;
Structure prediction by ZEFSAII (Michael W. Deem and Ramdas Pophale) SiO2 
 PCOD8265751
Probable space group: C M M M
;
_chemical_formula_sum "Si O2"
_cell_formula_units_Z 72
_cell_length_a 23.891266
_cell_length_b 8.035698
_cell_length_c 21.895607
_cell_angle_alpha 90.000000
_cell_angle_beta 90.000000
_cell_angle_gamma 90.000000
_cell_volume 4203.584284
_symmetry_space_group_name_H-M "C M M M"
_symmetry_group_IT_number 65
_symmetry_cell_setting 'orthorhombic'
loop_
_space_group_symop_operation_xyz
x,y,z
-x,-y,z
x,-y,-z
-x,y,-z
-x,-y,-z
x,y,-z
-x,y,z
x,-y,z
1/2+x,1/2+y,z
1/2-x,1/2-y,z
1/2+x,1/2-y,-z
1/2-x,1/2+y,-z
1/2-x,1/2-y,-z
1/2+x,1/2+y,-z
1/2-x,1/2+y,z
1/2+x,1/2-y,z
loop_
_atom_site_type_symbol
_atom_site_label
_atom_site_fract_x
_atom_site_fract_y
_atom_site_fract_z
Si Si1 0.500000 0.817190 0.569190
Si Si2 0.563590 0.188806 0.271381
Si Si3 0.686330 0.302711 0.500000
Si Si4 0.066108 0.817424 0.858075
Si Si5 0.433173 0.000000 0.069544
Si Si6 0.613497 0.310307 0.610981
O O1 0.500000 0.868008 0.500000
O O2 0.447200 0.702644 0.581918
O O3 0.500000 0.000000 0.604795
O O4 0.500000 0.236125 0.294423
O O5 0.581184 0.298033 0.213312
O O6 0.610135 0.214584 0.324252
O O7 0.564487 0.000000 0.248739
O O8 0.678388 0.500000 0.500000
O O9 0.750000 0.250000 0.500000
O O10 0.657624 0.231404 0.562223
O O11 0.091749 0.666905 0.898377
O O12 0.000000 0.811285 0.866086
O O13 0.088653 0.000000 0.879394
O O14 0.500000 0.000000 0.073951
O O15 0.412429 0.000000 0.000000
O O16 0.629398 0.500000 0.624509
#
# Coordination Sequence:
#
# PCOD8265751 Si02
#       6
#     8  16   8  16   8  16
#     4  11  21  31  45  69  95 117 141 180 239 294
#     4  10  18  28  43  66  92 117 147 186 238 292
#     4  10  24  41  54  67  87 118 158 200 237 284
#     4   9  16  26  39  56  81 115 151 192 237 275
#     4   9  16  26  38  54  80 115 157 199 227 264
#     4  11  21  33  49  70  91 116 149 190 242 291
#
# _framework density 17.128240000000002
#
# number of rings (size 3 to 8) (size 9 to 14) (size 15 to 20)
#    0.000    2.000    3.333    1.667    0.000    3.556 
#    0.000    2.222    0.000    0.000    0.000    0.000 
#    0.000    0.000    0.000    0.000    0.000    1.111 
#
# Total GULP energy -446077.341356 kJ/mol
# GULP energy per Si atom -12391.037260 kJ/mol
# Density = 1.708926 g / cm^3
# Si number density = 17.128240 Si / 1000 Ang^3
#
#
#
# Elastic Constant Matrix: (Units=GPa)
#
#
# Indices 1 2 3 4 5 6 
#
# 1 53.7027 8.6716 26.2088 0.0000 0.0000 0.0000
# 2 8.6716 98.2490 52.0246 0.0000 0.0000 0.0000
# 3 26.2088 52.0246 108.4825 0.0000 0.0000 0.0000
# 4 0.0000 0.0000 0.0000 25.0270 0.0000 0.0000
# 5 0.0000 0.0000 0.0000 0.0000 6.1931 0.0000
# 6 0.0000 0.0000 0.0000 0.0000 0.0000 15.1357
#
#
#
# Elastic Compliance Matrix: (Units=1/GPa)
#
#
# Indices 1 2 3 4 5 6 
#
# 1 0.021203 0.001127 -0.005663 0.000000 0.000000 0.000000
# 2 0.001127 0.013703 -0.006844 0.000000 0.000000 0.000000
# 3 -0.005663 -0.006844 0.013868 0.000000 0.000000 0.000000
# 4 0.000000 0.000000 0.000000 0.039957 0.000000 0.000000
# 5 0.000000 0.000000 0.000000 0.000000 0.161470 0.000000
# 6 0.000000 0.000000 0.000000 0.000000 0.000000 0.066069
#
#
# Mechanical properties :
#
#
# Convention : Reuss Voigt Hill
#
# Bulk Modulus (GPa) = 38.43977 48.24935 43.34456
# Shear Modulus (GPa) = 14.38023 20.83976 17.61000
#
# Velocity S-wave (km/s) = 2.90066 3.49189 3.20992
# Velocity P-wave (km/s) = 5.80599 6.66996 6.25292
#
# Compressibility (1/GPa) = 0.02601473
#
# Stress axis : x y z
#
# Youngs Moduli (GPa) = 47.16360 72.97912 72.10724
#
# Poissons Ratio (x) = -0.08227 0.40835
# Poissons Ratio (y) = -0.05317 0.49348
# Poissons Ratio (z) = 0.26709 0.49944
#
# Static dielectric constant tensor:
#      x y z
#    x 2.605820 0.000000 0.000000 
#    y 0.000000 3.382860 0.000000 
#    z 0.000000 0.000000 3.286310 
# 
# 
# High freq. dielectric constant tensor:
#      x y z
#    x 1.568780 0.000000 0.000000 
#    y 0.000000 1.676750 0.000000 
#    z 0.000000 0.000000 1.665560 
# 
# From -- ./inp_files/65008.got.cif
#   From: 2010.03.12/outbox.cif.g09.slc.cpg/sg65_33_cif.got.tgz:65008.got - 2010.04.10 20:52:16.
