data_PCOD8265545
_publ_section_title
;
Structure prediction by ZEFSAII (Michael W. Deem and Ramdas Pophale) SiO2 
 PCOD8265545
Probable space group: C M M M
;
_chemical_formula_sum "Si O2"
_cell_formula_units_Z 88
_cell_length_a 27.741279
_cell_length_b 14.316287
_cell_length_c 12.346770
_cell_angle_alpha 90.000000
_cell_angle_beta 90.000000
_cell_angle_gamma 90.000000
_cell_volume 4903.545781
_symmetry_space_group_name_H-M "C M M M"
_symmetry_group_IT_number 65
_symmetry_cell_setting 'orthorhombic'
loop_
_space_group_symop_operation_xyz
x,y,z
-x,-y,z
x,-y,-z
-x,y,-z
-x,-y,-z
x,y,-z
-x,y,z
x,-y,z
1/2+x,1/2+y,z
1/2-x,1/2-y,z
1/2+x,1/2-y,-z
1/2-x,1/2+y,-z
1/2-x,1/2-y,-z
1/2+x,1/2+y,-z
1/2-x,1/2+y,z
1/2+x,1/2-y,z
loop_
_atom_site_type_symbol
_atom_site_label
_atom_site_fract_x
_atom_site_fract_y
_atom_site_fract_z
Si Si1 0.500000 0.104904 0.371385
Si Si2 0.273399 0.603018 0.234442
Si Si3 0.383310 0.391110 0.237013
Si Si4 0.408381 0.778606 0.627293
Si Si5 0.727313 0.348805 0.000000
Si Si6 0.187291 0.609238 0.374471
Si Si7 0.376178 0.393599 0.000000
O O1 0.500000 0.098828 0.500000
O O2 0.452786 0.159321 0.330513
O O3 0.500000 0.000000 0.322693
O O4 0.275587 0.500000 0.283290
O O5 0.327452 0.643454 0.244283
O O6 0.232137 0.653752 0.306225
O O7 0.256618 0.598406 0.109131
O O8 0.389440 0.500000 0.271571
O O9 0.412429 0.322933 0.315974
O O10 0.404346 0.377300 0.113509
O O11 0.411556 0.760223 0.500000
O O12 0.360116 0.833760 0.659086
O O13 0.750000 0.250000 0.000000
O O14 0.670402 0.328826 0.000000
O O15 0.199589 0.623513 0.500000
O O16 0.177955 0.500000 0.347868
O O17 0.355954 0.500000 0.000000
#
# Coordination Sequence:
#
# PCOD8265545 Si02
#       7
#     8  16  16  16   8  16   8
#     4   9  18  36  59  78  97 124 159 200 247 295
#     4   9  18  31  45  64  97 135 167 200 240 283
#     4   9  18  32  50  71 100 134 167 200 237 285
#     4  10  20  32  51  76  99 123 160 204 248 296
#     4  10  18  24  42  66  90 124 168 210 240 273
#     4   9  18  31  46  67  97 132 167 202 238 284
#     4   8  16  32  48  63  90 134 176 206 234 273
#
# _framework density 17.946197999999999
#
# number of rings (size 3 to 8) (size 9 to 14) (size 15 to 20)
#    0.000    2.818    0.000    2.455    5.091    3.273 
#    0.000    4.091    0.000    2.182    0.000    4.455 
#    0.000    0.000    0.000    0.000    0.000    0.000 
#
# Total GULP energy -545122.780614 kJ/mol
# GULP energy per Si atom -12389.154105 kJ/mol
# Density = 1.790535 g / cm^3
# Si number density = 17.946198 Si / 1000 Ang^3
#
#
#
# Elastic Constant Matrix: (Units=GPa)
#
#
# Indices 1 2 3 4 5 6 
#
# 1 71.3225 40.0867 38.5084 0.0000 0.0000 0.0000
# 2 40.0867 99.4455 38.9938 0.0000 0.0000 0.0000
# 3 38.5084 38.9938 74.0177 0.0000 0.0000 0.0000
# 4 0.0000 0.0000 0.0000 22.1405 0.0000 0.0000
# 5 0.0000 0.0000 0.0000 0.0000 5.9426 0.0000
# 6 0.0000 0.0000 0.0000 0.0000 0.0000 26.1463
#
#
#
# Elastic Compliance Matrix: (Units=1/GPa)
#
#
# Indices 1 2 3 4 5 6 
#
# 1 0.021589 -0.005418 -0.008378 0.000000 0.000000 0.000000
# 2 -0.005418 0.014033 -0.004574 0.000000 0.000000 0.000000
# 3 -0.008378 -0.004574 0.020279 0.000000 0.000000 0.000000
# 4 0.000000 0.000000 0.000000 0.045166 0.000000 0.000000
# 5 0.000000 0.000000 0.000000 0.000000 0.168276 0.000000
# 6 0.000000 0.000000 0.000000 0.000000 0.000000 0.038246
#
#
# Mechanical properties :
#
#
# Convention : Reuss Voigt Hill
#
# Bulk Modulus (GPa) = 52.18799 53.32929 52.75864
# Shear Modulus (GPa) = 14.25653 19.32567 16.79110
#
# Velocity S-wave (km/s) = 2.82158 3.28513 3.06213
# Velocity P-wave (km/s) = 6.30543 6.64606 6.47798
#
# Compressibility (1/GPa) = 0.01916150
#
# Stress axis : x y z
#
# Youngs Moduli (GPa) = 46.31963 71.25911 49.31253
#
# Poissons Ratio (x) = 0.38605 0.41313
# Poissons Ratio (y) = 0.25094 0.22558
# Poissons Ratio (z) = 0.38806 0.32597
#
# Static dielectric constant tensor:
#      x y z
#    x 3.136760 0.000000 0.000000 
#    y 0.000000 1.841040 0.000000 
#    z 0.000000 0.000000 3.300370 
# 
# 
# High freq. dielectric constant tensor:
#      x y z
#    x 1.662030 0.000000 0.000000 
#    y 0.000000 1.693220 0.000000 
#    z 0.000000 0.000000 1.683410 
# 
# From -- ./inp_files/32284.got.cif
#   From: 2010.03.12/outbox.cif.g09.slc.cpg/sg65_17_cif.got.tgz:32284.got - 2010.04.10 20:52:16.
