data_PCOD8265007
_publ_section_title
;
Structure prediction by ZEFSAII (Michael W. Deem and Ramdas Pophale) SiO2 
 PCOD8265007
Probable space group: C M C A
;
_chemical_formula_sum "Si O2"
_cell_formula_units_Z 48
_cell_length_a 9.577077
_cell_length_b 28.289925
_cell_length_c 8.574680
_cell_angle_alpha 90.000000
_cell_angle_beta 90.000000
_cell_angle_gamma 90.000000
_cell_volume 2323.179126
_symmetry_space_group_name_H-M "C M C A"
_symmetry_group_IT_number 64
_symmetry_cell_setting 'orthorhombic'
loop_
_space_group_symop_operation_xyz
x,y,z
-x,1/2-y,1/2+z
x,-y,-z
-x,1/2+y,1/2-z
-x,-y,-z
x,1/2+y,1/2-z
-x,y,z
x,1/2-y,1/2+z
1/2+x,1/2+y,z
1/2-x,-y,1/2+z
1/2+x,1/2-y,-z
1/2-x,y,1/2-z
1/2-x,1/2-y,-z
1/2+x,y,1/2-z
1/2-x,1/2+y,z
1/2+x,-y,1/2+z
loop_
_atom_site_type_symbol
_atom_site_label
_atom_site_fract_x
_atom_site_fract_y
_atom_site_fract_z
Si Si1 0.670650 0.291910 0.587139
Si Si2 0.257260 0.609965 0.565543
Si Si3 0.000000 0.445986 0.562664
Si Si4 0.000000 0.949287 0.568929
O O1 0.500000 0.284268 0.603675
O O2 0.750000 0.298229 0.750000
O O3 0.750000 0.250000 0.500000
O O4 0.703948 0.337517 0.485514
O O5 0.250000 0.609163 0.750000
O O6 0.368532 0.575305 0.499441
O O7 0.121355 0.587755 0.493099
O O8 0.000000 0.500000 0.500000
O O9 0.000000 0.450049 0.746495
O O10 0.000000 0.000000 0.500000
#
# Coordination Sequence:
#
# PCOD8265007 Si02
#       4
#    16  16   8   8
#     4  12  27  48  76 109 148 194 245 303 371 444
#     4  12  26  45  71 104 144 188 242 296 364 436
#     4  12  26  44  71 104 141 194 242 302 364 432
#     4  12  24  46  69 100 143 186 242 300 362 434
#
# _framework density 20.661342000000001
#
# number of rings (size 3 to 8) (size 9 to 14) (size 15 to 20)
#    0.000    0.000    1.667    9.000    4.667    0.000 
#    0.000    0.000    0.000    0.000    0.000    0.000 
#    0.000    0.000    0.000    0.000    0.000    0.000 
#
# Total GULP energy -297337.119826 kJ/mol
# GULP energy per Si atom -12389.046659 kJ/mol
# Density = 2.061432 g / cm^3
# Si number density = 20.661342 Si / 1000 Ang^3
#
#
#
# Elastic Constant Matrix: (Units=GPa)
#
#
# Indices 1 2 3 4 5 6 
#
# 1 210.0746 82.1455 79.5117 0.0000 0.0000 0.0000
# 2 82.1455 176.7805 74.2417 0.0000 0.0000 0.0000
# 3 79.5117 74.2417 231.1037 0.0000 0.0000 0.0000
# 4 0.0000 0.0000 0.0000 29.1557 0.0000 0.0000
# 5 0.0000 0.0000 0.0000 0.0000 41.6377 0.0000
# 6 0.0000 0.0000 0.0000 0.0000 0.0000 49.1009
#
#
#
# Elastic Compliance Matrix: (Units=1/GPa)
#
#
# Indices 1 2 3 4 5 6 
#
# 1 0.006182 -0.002288 -0.001392 0.000000 0.000000 0.000000
# 2 -0.002288 0.007386 -0.001585 0.000000 0.000000 0.000000
# 3 -0.001392 -0.001585 0.005315 0.000000 0.000000 0.000000
# 4 0.000000 0.000000 0.000000 0.034299 0.000000 0.000000
# 5 0.000000 0.000000 0.000000 0.000000 0.024017 0.000000
# 6 0.000000 0.000000 0.000000 0.000000 0.000000 0.020366
#
#
# Mechanical properties :
#
#
# Convention : Reuss Voigt Hill
#
# Bulk Modulus (GPa) = 119.72956 121.08408 120.40682
# Shear Modulus (GPa) = 45.09432 49.44953 47.27193
#
# Velocity S-wave (km/s) = 4.67684 4.89748 4.78843
# Velocity P-wave (km/s) = 9.34014 9.52427 9.43266
#
# Compressibility (1/GPa) = 0.00835216
#
# Stress axis : x y z
#
# Youngs Moduli (GPa) = 161.76879 135.39619 188.13792
#
# Poissons Ratio (x) = 0.30978 0.26185
# Poissons Ratio (y) = 0.37012 0.29829
# Poissons Ratio (z) = 0.22515 0.21467
#
# Static dielectric constant tensor:
#      x y z
#    x 4.319520 0.000000 0.000000 
#    y 0.000000 4.085910 0.000000 
#    z 0.000000 0.000000 4.078900 
# 
# 
# High freq. dielectric constant tensor:
#      x y z
#    x 1.839910 0.000000 0.000000 
#    y 0.000000 1.837750 0.000000 
#    z 0.000000 0.000000 1.835120 
# 
# From -- ./inp_files/3940.got.cif
#   From: 2010.03.12/outbox.cif.g09.slc.cpg/sg64_2_cif.got.tgz:3940.got - 2010.04.10 20:19:32.
