data_PCOD8265443
_publ_section_title
;
Structure prediction by ZEFSAII (Michael W. Deem and Ramdas Pophale) SiO2 
 PCOD8265443
Probable space group: C M M M
;
_chemical_formula_sum "Si O2"
_cell_formula_units_Z 128
_cell_length_a 19.681789
_cell_length_b 18.053767
_cell_length_c 21.887388
_cell_angle_alpha 90.000000
_cell_angle_beta 90.000000
_cell_angle_gamma 90.000000
_cell_volume 7777.255050
_symmetry_space_group_name_H-M "C M M M"
_symmetry_group_IT_number 65
_symmetry_cell_setting 'orthorhombic'
loop_
_space_group_symop_operation_xyz
x,y,z
-x,-y,z
x,-y,-z
-x,y,-z
-x,-y,-z
x,y,-z
-x,y,z
x,-y,z
1/2+x,1/2+y,z
1/2-x,1/2-y,z
1/2+x,1/2-y,-z
1/2-x,1/2+y,-z
1/2-x,1/2-y,-z
1/2+x,1/2+y,-z
1/2-x,1/2+y,z
1/2+x,1/2-y,z
loop_
_atom_site_type_symbol
_atom_site_label
_atom_site_fract_x
_atom_site_fract_y
_atom_site_fract_z
Si Si1 0.325718 0.586957 0.284820
Si Si2 0.918902 0.791499 0.670179
Si Si3 0.618033 0.153853 0.252057
Si Si4 0.703808 0.087827 0.068704
Si Si5 0.573115 0.916206 0.138419
Si Si6 0.186887 0.583240 0.358052
Si Si7 0.245919 0.162845 0.819568
Si Si8 0.675808 0.777127 0.429400
O O1 0.340914 0.500000 0.274061
O O2 0.391132 0.626002 0.315755
O O3 0.260346 0.598129 0.327897
O O4 0.315858 0.629931 0.220359
O O5 0.897997 0.737138 0.726007
O O6 0.883255 0.763667 0.608217
O O7 0.000000 0.793526 0.661212
O O8 0.563248 0.127970 0.202455
O O9 0.625410 0.101007 0.311029
O O10 0.687079 0.140144 0.215678
O O11 0.629161 0.114552 0.091314
O O12 0.758861 0.125227 0.113511
O O13 0.711835 0.000000 0.071276
O O14 0.715140 0.117090 0.000000
O O15 0.500000 0.911578 0.105004
O O16 0.592654 0.000000 0.155901
O O17 0.180222 0.500000 0.381554
O O18 0.176068 0.635061 0.416782
O O19 0.250000 0.250000 0.827492
O O20 0.661711 0.760777 0.500000
O O21 0.750000 0.750000 0.408198
#
# Coordination Sequence:
#
# PCOD8265443 Si02
#       8
#    16  16  16  16  16  16  16  16
#     4  10  19  32  50  75 103 130 161 200 251 305
#     4  11  21  33  52  76 102 133 164 201 251 300
#     4   9  17  28  46  70 100 123 157 203 253 293
#     4   9  18  30  42  63  96 130 165 204 244 287
#     4   9  16  26  41  62  91 128 164 196 237 293
#     4   9  17  29  51  76  99 127 163 206 249 291
#     4  10  17  29  51  72  94 126 161 207 250 294
#     4  10  20  35  54  73  99 132 170 208 239 282
#
# _framework density 16.458248999999999
#
# number of rings (size 3 to 8) (size 9 to 14) (size 15 to 20)
#    0.000    2.375    2.500    1.125    0.000    4.250 
#    0.000    1.250    0.000    3.750    0.000    4.375 
#    0.000    0.500    0.000    2.625    0.000    0.000 
#
# Total GULP energy -793043.448692 kJ/mol
# GULP energy per Si atom -12391.303886 kJ/mol
# Density = 1.642079 g / cm^3
# Si number density = 16.458249 Si / 1000 Ang^3
#
#
#
# Elastic Constant Matrix: (Units=GPa)
#
#
# Indices 1 2 3 4 5 6 
#
# 1 64.0856 29.2671 29.9766 0.0000 0.0000 0.0000
# 2 29.2671 98.7977 43.6860 0.0000 0.0000 0.0000
# 3 29.9766 43.6860 87.0767 0.0000 0.0000 0.0000
# 4 0.0000 0.0000 0.0000 15.7697 0.0000 0.0000
# 5 0.0000 0.0000 0.0000 0.0000 13.1376 0.0000
# 6 0.0000 0.0000 0.0000 0.0000 0.0000 17.9203
#
#
#
# Elastic Compliance Matrix: (Units=1/GPa)
#
#
# Indices 1 2 3 4 5 6 
#
# 1 0.019557 -0.003619 -0.004917 0.000000 0.000000 0.000000
# 2 -0.003619 0.013677 -0.005616 0.000000 0.000000 0.000000
# 3 -0.004917 -0.005616 0.015994 0.000000 0.000000 0.000000
# 4 0.000000 0.000000 0.000000 0.063413 0.000000 0.000000
# 5 0.000000 0.000000 0.000000 0.000000 0.076117 0.000000
# 6 0.000000 0.000000 0.000000 0.000000 0.000000 0.055803
#
#
# Mechanical properties :
#
#
# Convention : Reuss Voigt Hill
#
# Bulk Modulus (GPa) = 47.79105 50.64660 49.21883
# Shear Modulus (GPa) = 17.86742 19.16755 18.51749
#
# Velocity S-wave (km/s) = 3.29845 3.41635 3.35792
# Velocity P-wave (km/s) = 6.60357 6.81187 6.70853
#
# Compressibility (1/GPa) = 0.02092442
#
# Stress axis : x y z
#
# Youngs Moduli (GPa) = 51.13286 73.11548 62.52292
#
# Poissons Ratio (x) = 0.26463 0.30741
# Poissons Ratio (y) = 0.18507 0.35111
# Poissons Ratio (z) = 0.25141 0.41060
#
# Static dielectric constant tensor:
#      x y z
#    x 2.948420 0.000000 0.000000 
#    y 0.000000 3.106490 0.000000 
#    z 0.000000 0.000000 3.090700 
# 
# 
# High freq. dielectric constant tensor:
#      x y z
#    x 1.608330 0.000000 0.000000 
#    y 0.000000 1.630510 0.000000 
#    z 0.000000 0.000000 1.624070 
# 
# From -- ./inp_files/64855.got.cif
#   From: 2010.03.12/outbox.cif.g09.slc.cpg/sg65_33_cif.got.tgz:64855.got - 2010.04.10 20:52:16.
