data_PCOD8265586
_publ_section_title
;
Structure prediction by ZEFSAII (Michael W. Deem and Ramdas Pophale) SiO2 
 PCOD8265586
Probable space group: C M M M
;
_chemical_formula_sum "Si O2"
_cell_formula_units_Z 72
_cell_length_a 20.025337
_cell_length_b 20.628443
_cell_length_c 10.299667
_cell_angle_alpha 90.000000
_cell_angle_beta 90.000000
_cell_angle_gamma 90.000000
_cell_volume 4254.705126
_symmetry_space_group_name_H-M "C M M M"
_symmetry_group_IT_number 65
_symmetry_cell_setting 'orthorhombic'
loop_
_space_group_symop_operation_xyz
x,y,z
-x,-y,z
x,-y,-z
-x,y,-z
-x,-y,-z
x,y,-z
-x,y,z
x,-y,z
1/2+x,1/2+y,z
1/2-x,1/2-y,z
1/2+x,1/2-y,-z
1/2-x,1/2+y,-z
1/2-x,1/2-y,-z
1/2+x,1/2+y,-z
1/2-x,1/2+y,z
1/2+x,1/2-y,z
loop_
_atom_site_type_symbol
_atom_site_label
_atom_site_fract_x
_atom_site_fract_y
_atom_site_fract_z
Si Si1 0.659267 0.625674 0.733283
Si Si2 0.921025 0.925492 0.500000
Si Si3 0.806311 0.000000 0.144317
Si Si4 0.828904 0.742042 0.854876
Si Si5 0.194008 0.500000 0.355949
Si Si6 0.187732 0.360399 0.646403
O O1 0.605440 0.613366 0.623085
O O2 0.652066 0.565783 0.833751
O O3 0.638228 0.690739 0.809192
O O4 0.733308 0.632506 0.673166
O O5 0.000000 0.923415 0.500000
O O6 0.894963 0.000000 0.500000
O O7 0.747587 0.000000 0.245173
O O8 0.776706 0.000000 0.000000
O O9 0.750000 0.750000 0.858217
O O10 0.847867 0.686002 0.751338
O O11 0.854714 0.723795 0.000000
O O12 0.228074 0.500000 0.500000
O O13 0.153149 0.567760 0.342309
O O14 0.177872 0.332501 0.500000
#
# Coordination Sequence:
#
# PCOD8265586 Si02
#       6
#    16   8   8  16   8  16
#     4  10  18  29  46  59  87 112 147 188 236 272
#     4  11  22  34  49  68  84 107 156 217 254 270
#     4  10  18  26  42  61  78 110 152 182 221 273
#     4   9  18  28  40  63  92 115 142 179 219 268
#     4   8  16  26  38  58  91 123 149 177 203 246
#     4   9  16  25  42  64  88 119 149 177 211 263
#
# _framework density 16.922440999999999
#
# number of rings (size 3 to 8) (size 9 to 14) (size 15 to 20)
#    0.000    2.556    2.222    0.667    3.111    6.667 
#    0.000    0.000    0.000    3.333    0.000    0.000 
#    0.000    0.000    0.000    2.000    0.000    4.889 
#
# Total GULP energy -446004.085632 kJ/mol
# GULP energy per Si atom -12389.002379 kJ/mol
# Density = 1.688392 g / cm^3
# Si number density = 16.922441 Si / 1000 Ang^3
#
#
#
# Elastic Constant Matrix: (Units=GPa)
#
#
# Indices 1 2 3 4 5 6 
#
# 1 17.5808 15.2637 11.5202 0.0000 0.0000 0.0000
# 2 15.2637 155.5898 87.9762 0.0000 0.0000 0.0000
# 3 11.5202 87.9762 163.5355 0.0000 0.0000 0.0000
# 4 0.0000 0.0000 0.0000 23.0203 0.0000 0.0000
# 5 0.0000 0.0000 0.0000 0.0000 12.8326 0.0000
# 6 0.0000 0.0000 0.0000 0.0000 0.0000 9.5671
#
#
#
# Elastic Compliance Matrix: (Units=1/GPa)
#
#
# Indices 1 2 3 4 5 6 
#
# 1 0.062461 -0.005231 -0.001586 0.000000 0.000000 0.000000
# 2 -0.005231 0.009675 -0.004836 0.000000 0.000000 0.000000
# 3 -0.001586 -0.004836 0.008828 0.000000 0.000000 0.000000
# 4 0.000000 0.000000 0.000000 0.043440 0.000000 0.000000
# 5 0.000000 0.000000 0.000000 0.000000 0.077927 0.000000
# 6 0.000000 0.000000 0.000000 0.000000 0.000000 0.104525
#
#
# Mechanical properties :
#
#
# Convention : Reuss Voigt Hill
#
# Bulk Modulus (GPa) = 17.34366 62.91402 40.12884
# Shear Modulus (GPa) = 14.31100 23.88038 19.09569
#
# Velocity S-wave (km/s) = 2.91122 3.76062 3.36285
# Velocity P-wave (km/s) = 4.64450 7.49099 6.23243
#
# Compressibility (1/GPa) = 0.05765797
#
# Stress axis : x y z
#
# Youngs Moduli (GPa) = 16.01002 103.36007 113.27138
#
# Poissons Ratio (x) = 0.54065 0.17966
# Poissons Ratio (y) = 0.08374 0.54781
# Poissons Ratio (z) = 0.02539 0.49988
#
# Static dielectric constant tensor:
#      x y z
#    x 2.336870 0.000000 0.000000 
#    y 0.000000 3.882240 0.000000 
#    z 0.000000 0.000000 3.352140 
# 
# 
# High freq. dielectric constant tensor:
#      x y z
#    x 1.545350 0.000000 0.000000 
#    y 0.000000 1.676970 0.000000 
#    z 0.000000 0.000000 1.671150 
# 
# From -- ./inp_files/11496.got.cif
#   From: 2010.03.12/outbox.cif.g09.slc.cpg/sg65_6_cif.got.tgz:11496.got - 2010.04.10 20:52:16.
