data_PCOD8265827
_publ_section_title
;
Structure prediction by ZEFSAII (Michael W. Deem and Ramdas Pophale) SiO2 
 PCOD8265827
Probable space group: C M M M
;
_chemical_formula_sum "Si O2"
_cell_formula_units_Z 120
_cell_length_a 9.530509
_cell_length_b 27.640648
_cell_length_c 25.626573
_cell_angle_alpha 90.000000
_cell_angle_beta 90.000000
_cell_angle_gamma 90.000000
_cell_volume 6750.793891
_symmetry_space_group_name_H-M "C M M M"
_symmetry_group_IT_number 65
_symmetry_cell_setting 'orthorhombic'
loop_
_space_group_symop_operation_xyz
x,y,z
-x,-y,z
x,-y,-z
-x,y,-z
-x,-y,-z
x,y,-z
-x,y,z
x,-y,z
1/2+x,1/2+y,z
1/2-x,1/2-y,z
1/2+x,1/2-y,-z
1/2-x,1/2+y,-z
1/2-x,1/2-y,-z
1/2+x,1/2+y,-z
1/2-x,1/2+y,z
1/2+x,1/2-y,z
loop_
_atom_site_type_symbol
_atom_site_label
_atom_site_fract_x
_atom_site_fract_y
_atom_site_fract_z
Si Si1 0.841880 0.110829 0.734499
Si Si2 0.833366 0.945773 0.163233
Si Si3 0.657250 0.294164 0.201348
Si Si4 0.162611 0.296885 0.440569
Si Si5 0.832510 0.800780 0.000000
Si Si6 0.833479 0.146543 0.104696
Si Si7 0.154021 0.943188 0.442456
Si Si8 0.665145 0.886174 0.631333
O O1 0.789755 0.073999 0.779669
O O2 0.841791 0.165348 0.754696
O O3 0.733674 0.109287 0.687648
O O4 0.000000 0.096742 0.716535
O O5 0.777750 0.907969 0.118551
O O6 0.000000 0.947857 0.160305
O O7 0.770842 0.000000 0.154217
O O8 0.500000 0.275035 0.191804
O O9 0.750000 0.250000 0.221377
O O10 0.722209 0.315647 0.147800
O O11 0.195877 0.313747 0.500000
O O12 0.250000 0.250000 0.425300
O O13 0.207703 0.337453 0.399131
O O14 0.000000 0.283920 0.434677
O O15 0.750000 0.750000 0.000000
O O16 0.784425 0.833836 0.048718
O O17 0.000000 0.790538 0.000000
O O18 0.000000 0.144797 0.108812
O O19 0.190179 0.922649 0.500000
O O20 0.276500 0.929828 0.402877
O O21 0.000000 0.923202 0.424949
O O22 0.146919 0.000000 0.444739
O O23 0.500000 0.891529 0.637787
#
# Coordination Sequence:
#
# PCOD8265827 Si02
#       8
#    16  16  16  16   8  16  16  16
#     4   9  19  33  47  67  93 121 158 200 238 283
#     4   8  14  28  50  70  90 122 162 201 242 287
#     4   9  17  30  47  65  90 125 162 199 239 283
#     4   9  19  35  52  70  93 123 159 194 231 282
#     4  10  18  28  45  71 105 137 162 196 241 286
#     4   8  15  27  43  68  99 127 158 198 242 287
#     4   9  19  36  56  76  97 124 159 193 227 279
#     4  11  22  34  50  74 103 129 154 195 249 295
#
# _framework density 17.775687000000001
#
# number of rings (size 3 to 8) (size 9 to 14) (size 15 to 20)
#    0.000    2.933    0.000    3.200    0.000    3.733 
#    0.000    6.333    0.000    2.800    0.000    0.000 
#    0.000    0.533    0.000    0.000    0.000    0.000 
#
# Total GULP energy -743595.546955 kJ/mol
# GULP energy per Si atom -12393.259116 kJ/mol
# Density = 1.773523 g / cm^3
# Si number density = 17.775687 Si / 1000 Ang^3
#
#
#
# Elastic Constant Matrix: (Units=GPa)
#
#
# Indices 1 2 3 4 5 6 
#
# 1 56.7665 38.1725 44.7189 0.0000 0.0000 0.0000
# 2 38.1725 108.2910 50.4186 0.0000 0.0000 0.0000
# 3 44.7189 50.4186 118.1260 0.0000 0.0000 0.0000
# 4 0.0000 0.0000 0.0000 21.4268 0.0000 0.0000
# 5 0.0000 0.0000 0.0000 0.0000 6.5505 0.0000
# 6 0.0000 0.0000 0.0000 0.0000 0.0000 24.9865
#
#
#
# Elastic Compliance Matrix: (Units=1/GPa)
#
#
# Indices 1 2 3 4 5 6 
#
# 1 0.028059 -0.006172 -0.007988 0.000000 0.000000 0.000000
# 2 -0.006172 0.012882 -0.003162 0.000000 0.000000 0.000000
# 3 -0.007988 -0.003162 0.012839 0.000000 0.000000 0.000000
# 4 0.000000 0.000000 0.000000 0.046671 0.000000 0.000000
# 5 0.000000 0.000000 0.000000 0.000000 0.152659 0.000000
# 6 0.000000 0.000000 0.000000 0.000000 0.000000 0.040022
#
#
# Mechanical properties :
#
#
# Convention : Reuss Voigt Hill
#
# Bulk Modulus (GPa) = 52.25525 61.08929 56.67227
# Shear Modulus (GPa) = 14.96318 20.58434 17.77376
#
# Velocity S-wave (km/s) = 2.90449 3.40664 3.16554
# Velocity P-wave (km/s) = 6.38035 7.06505 6.73141
#
# Compressibility (1/GPa) = 0.01913683
#
# Stress axis : x y z
#
# Youngs Moduli (GPa) = 35.63932 77.62763 77.88679
#
# Poissons Ratio (x) = 0.47909 0.62217
# Poissons Ratio (y) = 0.21995 0.24627
# Poissons Ratio (z) = 0.28469 0.24545
#
# Static dielectric constant tensor:
#      x y z
#    x 3.110570 0.000000 0.000000 
#    y 0.000000 3.413360 0.000000 
#    z 0.000000 0.000000 3.380860 
# 
# 
# High freq. dielectric constant tensor:
#      x y z
#    x 1.657070 0.000000 0.000000 
#    y 0.000000 1.688060 0.000000 
#    z 0.000000 0.000000 1.685140 
# 
# From -- ./inp_files/73897.got.cif
#   From: 2010.03.12/outbox.cif.g09.slc.cpg/sg65_37_cif.got.tgz:73897.got - 2010.04.10 20:52:16.
