data_PCOD8265062
_publ_section_title
;
Structure prediction by ZEFSAII (Michael W. Deem and Ramdas Pophale) SiO2 
 PCOD8265062
Probable space group: C M M M
;
_chemical_formula_sum "Si O2"
_cell_formula_units_Z 104
_cell_length_a 21.890904
_cell_length_b 14.723920
_cell_length_c 19.011044
_cell_angle_alpha 90.000000
_cell_angle_beta 90.000000
_cell_angle_gamma 90.000000
_cell_volume 6127.638166
_symmetry_space_group_name_H-M "C M M M"
_symmetry_group_IT_number 65
_symmetry_cell_setting 'orthorhombic'
loop_
_space_group_symop_operation_xyz
x,y,z
-x,-y,z
x,-y,-z
-x,y,-z
-x,-y,-z
x,y,-z
-x,y,z
x,-y,z
1/2+x,1/2+y,z
1/2-x,1/2-y,z
1/2+x,1/2-y,-z
1/2-x,1/2+y,-z
1/2-x,1/2-y,-z
1/2+x,1/2+y,-z
1/2-x,1/2+y,z
1/2+x,1/2-y,z
loop_
_atom_site_type_symbol
_atom_site_label
_atom_site_fract_x
_atom_site_fract_y
_atom_site_fract_z
Si Si1 0.931468 0.392354 0.000000
Si Si2 0.657796 0.898202 0.339380
Si Si3 0.264912 0.354369 0.578401
Si Si4 0.118988 0.602968 0.146574
Si Si5 0.071644 0.723321 0.274841
Si Si6 0.736747 0.149807 0.789241
Si Si7 0.349321 0.399622 0.291763
O O1 0.897040 0.357423 0.069781
O O2 0.931935 0.500000 0.000000
O O3 0.000000 0.353023 0.000000
O O4 0.699028 0.903757 0.409320
O O5 0.596289 0.836935 0.341680
O O6 0.699036 0.843784 0.283202
O O7 0.641092 0.000000 0.313860
O O8 0.287658 0.379468 0.500000
O O9 0.250000 0.250000 0.586659
O O10 0.316850 0.384371 0.632913
O O11 0.093715 0.500000 0.155776
O O12 0.088066 0.669466 0.203406
O O13 0.193079 0.600358 0.154058
O O14 0.099854 0.824208 0.276185
O O15 0.000000 0.734482 0.282947
O O16 0.750000 0.250000 0.817536
O O17 0.799867 0.098841 0.772024
O O18 0.379690 0.500000 0.292871
#
# Coordination Sequence:
#
# PCOD8265062 Si02
#       7
#     8  16  16  16  16  16  16
#     4   9  18  32  49  74 109 141 167 196 239 301
#     4  10  18  30  49  75 102 125 156 202 254 303
#     4  10  18  32  55  79 102 129 161 204 260 315
#     4  10  19  32  53  80 105 131 163 204 253 306
#     4  11  21  34  50  71 100 134 173 210 244 295
#     4  10  15  29  50  71 101 128 157 200 253 300
#     4  11  20  33  52  73 101 133 167 214 260 293
#
# _framework density 16.972280999999999
#
# number of rings (size 3 to 8) (size 9 to 14) (size 15 to 20)
#    0.000    1.769    4.615    5.538    0.000    3.385 
#    0.000    0.385    0.000    1.846    0.000    2.692 
#    0.000    1.846    0.000    0.000    0.000    0.000 
#
# Total GULP energy -644234.421281 kJ/mol
# GULP energy per Si atom -12389.123486 kJ/mol
# Density = 1.693365 g / cm^3
# Si number density = 16.972281 Si / 1000 Ang^3
#
#
#
# Elastic Constant Matrix: (Units=GPa)
#
#
# Indices 1 2 3 4 5 6 
#
# 1 114.5732 44.9347 33.8753 0.0000 0.0000 0.0000
# 2 44.9347 111.5840 32.8203 0.0000 0.0000 0.0000
# 3 33.8753 32.8203 73.8462 0.0000 0.0000 0.0000
# 4 0.0000 0.0000 0.0000 15.4951 0.0000 0.0000
# 5 0.0000 0.0000 0.0000 0.0000 15.4510 0.0000
# 6 0.0000 0.0000 0.0000 0.0000 0.0000 16.0675
#
#
#
# Elastic Compliance Matrix: (Units=1/GPa)
#
#
# Indices 1 2 3 4 5 6 
#
# 1 0.011132 -0.003429 -0.003583 0.000000 0.000000 0.000000
# 2 -0.003429 0.011366 -0.003478 0.000000 0.000000 0.000000
# 3 -0.003583 -0.003478 0.016731 0.000000 0.000000 0.000000
# 4 0.000000 0.000000 0.000000 0.064537 0.000000 0.000000
# 5 0.000000 0.000000 0.000000 0.000000 0.064721 0.000000
# 6 0.000000 0.000000 0.000000 0.000000 0.000000 0.062238
#
#
# Mechanical properties :
#
#
# Convention : Reuss Voigt Hill
#
# Bulk Modulus (GPa) = 54.79815 58.14043 56.46929
# Shear Modulus (GPa) = 19.39582 21.96091 20.67836
#
# Velocity S-wave (km/s) = 3.38419 3.60102 3.49429
# Velocity P-wave (km/s) = 6.90125 7.18473 7.04442
#
# Compressibility (1/GPa) = 0.01824879
#
# Stress axis : x y z
#
# Youngs Moduli (GPa) = 89.82974 87.98255 59.76921
#
# Poissons Ratio (x) = 0.30171 0.21413
# Poissons Ratio (y) = 0.30804 0.20790
# Poissons Ratio (z) = 0.32182 0.30604
#
# Static dielectric constant tensor:
#      x y z
#    x 3.247050 0.000000 0.000000 
#    y 0.000000 3.206940 0.000000 
#    z 0.000000 0.000000 3.190010 
# 
# 
# High freq. dielectric constant tensor:
#      x y z
#    x 1.633190 0.000000 0.000000 
#    y 0.000000 1.659840 0.000000 
#    z 0.000000 0.000000 1.624620 
# 
# From -- ./inp_files/55865.got.cif
#   From: 2010.03.12/outbox.cif.g09.slc.cpg/sg65_28_cif.got.tgz:55865.got - 2010.04.10 20:52:16.
