data_PCOD8265152
_publ_section_title
;
Structure prediction by ZEFSAII (Michael W. Deem and Ramdas Pophale) SiO2 
 PCOD8265152
Probable space group: C M M M
;
_chemical_formula_sum "Si O2"
_cell_formula_units_Z 128
_cell_length_a 17.188381
_cell_length_b 27.241221
_cell_length_c 19.754476
_cell_angle_alpha 90.000000
_cell_angle_beta 90.000000
_cell_angle_gamma 90.000000
_cell_volume 9249.687396
_symmetry_space_group_name_H-M "C M M M"
_symmetry_group_IT_number 65
_symmetry_cell_setting 'orthorhombic'
loop_
_space_group_symop_operation_xyz
x,y,z
-x,-y,z
x,-y,-z
-x,y,-z
-x,-y,-z
x,y,-z
-x,y,z
x,-y,z
1/2+x,1/2+y,z
1/2-x,1/2-y,z
1/2+x,1/2-y,-z
1/2-x,1/2+y,-z
1/2-x,1/2-y,-z
1/2+x,1/2+y,-z
1/2-x,1/2+y,z
1/2+x,1/2-y,z
loop_
_atom_site_type_symbol
_atom_site_label
_atom_site_fract_x
_atom_site_fract_y
_atom_site_fract_z
Si Si1 0.587953 0.789650 0.923424
Si Si2 0.156919 0.854134 0.210578
Si Si3 0.411598 0.325708 0.075449
Si Si4 0.092251 0.798969 0.426378
Si Si5 0.909586 0.762674 0.285628
Si Si6 0.090943 0.055306 0.284721
Si Si7 0.407793 0.590974 0.573114
Si Si8 0.197394 0.296260 0.807672
O O1 0.500000 0.808350 0.910643
O O2 0.591960 0.731898 0.908755
O O3 0.647586 0.815561 0.871860
O O4 0.613516 0.801798 0.000000
O O5 0.138880 0.854717 0.130401
O O6 0.102319 0.814896 0.248718
O O7 0.142029 0.908223 0.239336
O O8 0.247817 0.840069 0.219359
O O9 0.500000 0.344197 0.080215
O O10 0.378706 0.336399 0.000000
O O11 0.119021 0.777555 0.500000
O O12 0.120763 0.765963 0.363460
O O13 0.125302 0.853963 0.417345
O O14 0.000000 0.801618 0.423230
O O15 0.860487 0.719141 0.252374
O O16 0.000000 0.748759 0.280712
O O17 0.119166 0.058500 0.363120
O O18 0.000000 0.069427 0.278155
O O19 0.105939 0.000000 0.259297
O O20 0.378025 0.569879 0.500000
O O21 0.500000 0.592487 0.571207
O O22 0.250000 0.250000 0.830420
#
# Coordination Sequence:
#
# PCOD8265152 Si02
#       8
#    16  16  16  16  16  16  16  16
#     4   9  16  26  39  57  82 106 129 159 191 228
#     4  11  19  28  39  56  81 106 129 165 198 228
#     4   9  16  25  39  56  74 102 134 158 188 228
#     4   8  13  21  36  56  74  98 132 166 197 224
#     4  10  16  25  41  56  76 106 134 161 189 226
#     4  10  19  29  43  60  75  99 135 169 201 234
#     4   8  13  22  36  56  79  98 123 163 205 238
#     4  10  19  25  35  56  80 109 136 158 188 228
#
# _framework density 13.838305
#
# number of rings (size 3 to 8) (size 9 to 14) (size 15 to 20)
#    0.000    2.625    3.750    3.000    0.000    1.000 
#    0.000    1.250    0.000    4.500    0.000    1.750 
#    0.000    2.000    0.000    1.375    0.000    0.000 
#
# Total GULP energy -793119.181517 kJ/mol
# GULP energy per Si atom -12392.487211 kJ/mol
# Density = 1.380681 g / cm^3
# Si number density = 13.838305 Si / 1000 Ang^3
#
#
#
# Elastic Constant Matrix: (Units=GPa)
#
#
# Indices 1 2 3 4 5 6 
#
# 1 57.3908 29.2246 36.6453 0.0000 0.0000 0.0000
# 2 29.2246 50.3736 34.0092 0.0000 0.0000 0.0000
# 3 36.6453 34.0092 99.7704 0.0000 0.0000 0.0000
# 4 0.0000 0.0000 0.0000 10.3682 0.0000 0.0000
# 5 0.0000 0.0000 0.0000 0.0000 4.8989 0.0000
# 6 0.0000 0.0000 0.0000 0.0000 0.0000 13.3331
#
#
#
# Elastic Compliance Matrix: (Units=1/GPa)
#
#
# Indices 1 2 3 4 5 6 
#
# 1 0.027240 -0.011753 -0.005999 0.000000 0.000000 0.000000
# 2 -0.011753 0.030857 -0.006202 0.000000 0.000000 0.000000
# 3 -0.005999 -0.006202 0.014340 0.000000 0.000000 0.000000
# 4 0.000000 0.000000 0.000000 0.096449 0.000000 0.000000
# 5 0.000000 0.000000 0.000000 0.000000 0.204127 0.000000
# 6 0.000000 0.000000 0.000000 0.000000 0.000000 0.075002
#
#
# Mechanical properties :
#
#
# Convention : Reuss Voigt Hill
#
# Bulk Modulus (GPa) = 40.76599 45.25476 43.01038
# Shear Modulus (GPa) = 9.91870 12.89709 11.40790
#
# Velocity S-wave (km/s) = 2.68014 3.05615 2.87430
# Velocity P-wave (km/s) = 6.25302 6.72510 6.49335
#
# Compressibility (1/GPa) = 0.02453025
#
# Stress axis : x y z
#
# Youngs Moduli (GPa) = 36.71115 32.40720 69.73398
#
# Poissons Ratio (x) = 0.38089 0.41831
# Poissons Ratio (y) = 0.43148 0.43246
# Poissons Ratio (z) = 0.22022 0.20097
#
# Static dielectric constant tensor:
#      x y z
#    x 2.567190 0.000000 0.000000 
#    y 0.000000 2.306080 0.000000 
#    z 0.000000 0.000000 3.125510 
# 
# 
# High freq. dielectric constant tensor:
#      x y z
#    x 1.494860 0.000000 0.000000 
#    y 0.000000 1.464740 0.000000 
#    z 0.000000 0.000000 1.548480 
# 
# From -- ./inp_files/64177.got.cif
#   From: 2010.03.12/outbox.cif.g09.slc.cpg/sg65_33_cif.got.tgz:64177.got - 2010.04.10 20:52:16.
