data_PCOD8265196
_publ_section_title
;
Structure prediction by ZEFSAII (Michael W. Deem and Ramdas Pophale) SiO2 
 PCOD8265196
Probable space group: C M M M
;
_chemical_formula_sum "Si O2"
_cell_formula_units_Z 88
_cell_length_a 21.443489
_cell_length_b 17.093454
_cell_length_c 14.706974
_cell_angle_alpha 90.000000
_cell_angle_beta 90.000000
_cell_angle_gamma 90.000000
_cell_volume 5390.742677
_symmetry_space_group_name_H-M "C M M M"
_symmetry_group_IT_number 65
_symmetry_cell_setting 'orthorhombic'
loop_
_space_group_symop_operation_xyz
x,y,z
-x,-y,z
x,-y,-z
-x,y,-z
-x,-y,-z
x,y,-z
-x,y,z
x,-y,z
1/2+x,1/2+y,z
1/2-x,1/2-y,z
1/2+x,1/2-y,-z
1/2-x,1/2+y,-z
1/2-x,1/2-y,-z
1/2+x,1/2+y,-z
1/2-x,1/2+y,z
1/2+x,1/2-y,z
loop_
_atom_site_type_symbol
_atom_site_label
_atom_site_fract_x
_atom_site_fract_y
_atom_site_fract_z
Si Si1 0.362659 0.908842 0.598126
Si Si2 0.358368 0.134132 0.790399
Si Si3 0.730714 0.337553 0.401365
Si Si4 0.073398 0.500000 0.104695
Si Si5 0.713918 0.410055 0.223491
Si Si6 0.679242 0.722102 0.898031
O O1 0.394131 0.884630 0.500000
O O2 0.387217 0.861866 0.687233
O O3 0.289679 0.893581 0.588081
O O4 0.374289 0.000000 0.616921
O O5 0.399594 0.077707 0.851018
O O6 0.288205 0.100990 0.785297
O O7 0.361298 0.219494 0.835705
O O8 0.695594 0.334997 0.500000
O O9 0.750000 0.250000 0.371665
O O10 0.689645 0.374192 0.320084
O O11 0.000000 0.500000 0.117992
O O12 0.093448 0.500000 0.000000
O O13 0.695185 0.500000 0.215663
O O14 0.677199 0.364851 0.143854
O O15 0.750000 0.750000 0.899604
O O16 0.651547 0.719983 0.000000
#
# Coordination Sequence:
#
# PCOD8265196 Si02
#       6
#    16  16  16   8  16  16
#     4   9  15  23  38  57  74  98 133 166 200 244
#     4  10  16  31  44  57  82 113 137 170 216 253
#     4   9  15  22  33  52  78 108 142 176 206 243
#     4  11  22  32  45  65  83 107 148 186 214 254
#     4  10  17  26  40  60  82 110 143 174 210 256
#     4   9  18  28  39  56  77 106 142 175 205 251
#
# _framework density 16.324280999999999
#
# number of rings (size 3 to 8) (size 9 to 14) (size 15 to 20)
#    0.000    2.455    1.818    4.909    0.000    2.182 
#    0.000    0.000    0.000    1.091    0.000    0.000 
#    0.000    0.727    0.000    3.818    0.000    0.000 
#
# Total GULP energy -545101.681801 kJ/mol
# GULP energy per Si atom -12388.674586 kJ/mol
# Density = 1.628713 g / cm^3
# Si number density = 16.324281 Si / 1000 Ang^3
#
#
#
# Elastic Constant Matrix: (Units=GPa)
#
#
# Indices 1 2 3 4 5 6 
#
# 1 14.0812 8.1529 19.7868 0.0000 0.0000 0.0000
# 2 8.1529 123.2391 78.2838 0.0000 0.0000 0.0000
# 3 19.7868 78.2838 184.6582 0.0000 0.0000 0.0000
# 4 0.0000 0.0000 0.0000 26.1179 0.0000 0.0000
# 5 0.0000 0.0000 0.0000 0.0000 6.2552 0.0000
# 6 0.0000 0.0000 0.0000 0.0000 0.0000 6.3333
#
#
#
# Elastic Compliance Matrix: (Units=1/GPa)
#
#
# Indices 1 2 3 4 5 6 
#
# 1 0.083609 0.000219 -0.009052 0.000000 0.000000 0.000000
# 2 0.000219 0.011105 -0.004731 0.000000 0.000000 0.000000
# 3 -0.009052 -0.004731 0.008391 0.000000 0.000000 0.000000
# 4 0.000000 0.000000 0.000000 0.038288 0.000000 0.000000
# 5 0.000000 0.000000 0.000000 0.000000 0.159868 0.000000
# 6 0.000000 0.000000 0.000000 0.000000 0.000000 0.157896
#
#
# Mechanical properties :
#
#
# Convention : Reuss Voigt Hill
#
# Bulk Modulus (GPa) = 13.16190 59.38061 36.27125
# Shear Modulus (GPa) = 9.77303 22.12494 15.94898
#
# Velocity S-wave (km/s) = 2.44945 3.68549 3.12911
# Velocity P-wave (km/s) = 4.00999 7.38681 5.94327
#
# Compressibility (1/GPa) = 0.07597690
#
# Stress axis : x y z
#
# Youngs Moduli (GPa) = 11.96037 90.04699 119.17309
#
# Poissons Ratio (x) = -0.01969 1.07872
# Poissons Ratio (y) = -0.00261 0.56386
# Poissons Ratio (z) = 0.10826 0.42605
#
# Static dielectric constant tensor:
#      x y z
#    x 2.323860 0.000000 0.000000 
#    y 0.000000 3.111370 0.000000 
#    z 0.000000 0.000000 3.866640 
# 
# 
# High freq. dielectric constant tensor:
#      x y z
#    x 1.520800 0.000000 0.000000 
#    y 0.000000 1.630150 0.000000 
#    z 0.000000 0.000000 1.665900 
# 
# From -- ./inp_files/43002.got.cif
#   From: 2010.03.12/outbox.cif.g09.slc.cpg/sg65_22_cif.got.tgz:43002.got - 2010.04.10 20:52:16.
