data_PCOD8265642
_publ_section_title
;
Structure prediction by ZEFSAII (Michael W. Deem and Ramdas Pophale) SiO2 
 PCOD8265642
Probable space group: C M M M
;
_chemical_formula_sum "Si O2"
_cell_formula_units_Z 104
_cell_length_a 26.927939
_cell_length_b 8.988292
_cell_length_c 26.966604
_cell_angle_alpha 90.000000
_cell_angle_beta 90.000000
_cell_angle_gamma 90.000000
_cell_volume 6526.893784
_symmetry_space_group_name_H-M "C M M M"
_symmetry_group_IT_number 65
_symmetry_cell_setting 'orthorhombic'
loop_
_space_group_symop_operation_xyz
x,y,z
-x,-y,z
x,-y,-z
-x,y,-z
-x,-y,-z
x,y,-z
-x,y,z
x,-y,z
1/2+x,1/2+y,z
1/2-x,1/2-y,z
1/2+x,1/2-y,-z
1/2-x,1/2+y,-z
1/2-x,1/2-y,-z
1/2+x,1/2+y,-z
1/2-x,1/2+y,z
1/2+x,1/2-y,z
loop_
_atom_site_type_symbol
_atom_site_label
_atom_site_fract_x
_atom_site_fract_y
_atom_site_fract_z
Si Si1 0.442948 0.828862 0.303878
Si Si2 0.357649 0.676156 0.751083
Si Si3 0.802223 0.327434 0.947685
Si Si4 0.444146 0.323614 0.500000
Si Si5 0.696189 0.175996 0.839951
Si Si6 0.900882 0.824601 0.396681
Si Si7 0.800642 0.827832 0.653416
O O1 0.500000 0.814310 0.288187
O O2 0.411618 0.736945 0.263645
O O3 0.436024 0.761408 0.358555
O O4 0.425488 0.000000 0.304144
O O5 0.360766 0.500000 0.758071
O O6 0.342013 0.753488 0.801761
O O7 0.318494 0.720759 0.708193
O O8 0.790573 0.500000 0.946929
O O9 0.750000 0.250000 0.949272
O O10 0.827540 0.287173 0.894809
O O11 0.831397 0.286822 0.000000
O O12 0.446614 0.500000 0.500000
O O13 0.500000 0.257864 0.500000
O O14 0.414572 0.268153 0.451590
O O15 0.750000 0.250000 0.833435
O O16 0.701328 0.000000 0.830504
O O17 0.843245 0.786158 0.386314
O O18 0.910550 0.000000 0.389473
O O19 0.750000 0.750000 0.637816
O O20 0.789064 0.000000 0.652657
#
# Coordination Sequence:
#
# PCOD8265642 Si02
#       7
#    16  16  16   8  16  16  16
#     4  10  20  33  49  69  92 116 141 174 221 272
#     4  10  20  32  46  65  88 116 151 187 223 264
#     4   8  14  24  37  54  79 114 153 188 222 260
#     4   9  16  28  50  73  89 111 145 185 224 261
#     4  10  18  27  41  62  90 122 155 191 227 263
#     4   9  18  32  49  70  92 115 148 183 215 258
#     4   9  18  30  44  62  85 115 147 179 213 251
#
# _framework density 15.934072
#
# number of rings (size 3 to 8) (size 9 to 14) (size 15 to 20)
#    0.000    2.692    0.000    3.231    0.000    6.769 
#    0.000    0.769    0.000    1.385    0.000    0.000 
#    0.000    0.615    0.000    7.077    0.000    2.000 
#
# Total GULP energy -644361.132156 kJ/mol
# GULP energy per Si atom -12391.560234 kJ/mol
# Density = 1.589781 g / cm^3
# Si number density = 15.934072 Si / 1000 Ang^3
#
#
#
# Elastic Constant Matrix: (Units=GPa)
#
#
# Indices 1 2 3 4 5 6 
#
# 1 83.5353 33.8564 57.0804 0.0000 0.0000 0.0000
# 2 33.8564 58.5205 44.6974 0.0000 0.0000 0.0000
# 3 57.0804 44.6974 158.3508 0.0000 0.0000 0.0000
# 4 0.0000 0.0000 0.0000 18.7942 0.0000 0.0000
# 5 0.0000 0.0000 0.0000 0.0000 18.0598 0.0000
# 6 0.0000 0.0000 0.0000 0.0000 0.0000 24.4468
#
#
#
# Elastic Compliance Matrix: (Units=1/GPa)
#
#
# Indices 1 2 3 4 5 6 
#
# 1 0.017825 -0.006890 -0.004480 0.000000 0.000000 0.000000
# 2 -0.006890 0.024448 -0.004417 0.000000 0.000000 0.000000
# 3 -0.004480 -0.004417 0.009177 0.000000 0.000000 0.000000
# 4 0.000000 0.000000 0.000000 0.053208 0.000000 0.000000
# 5 0.000000 0.000000 0.000000 0.000000 0.055372 0.000000
# 6 0.000000 0.000000 0.000000 0.000000 0.000000 0.040905
#
#
# Mechanical properties :
#
#
# Convention : Reuss Voigt Hill
#
# Bulk Modulus (GPa) = 50.31636 63.51943 56.91790
# Shear Modulus (GPa) = 20.90860 23.24497 22.07679
#
# Velocity S-wave (km/s) = 3.62635 3.82360 3.72628
# Velocity P-wave (km/s) = 7.01287 7.70997 7.36967
#
# Compressibility (1/GPa) = 0.01987425
#
# Stress axis : x y z
#
# Youngs Moduli (GPa) = 56.10045 40.90279 108.96825
#
# Poissons Ratio (x) = 0.28184 0.48823
# Poissons Ratio (y) = 0.38656 0.48133
# Poissons Ratio (z) = 0.25136 0.18068
#
# Static dielectric constant tensor:
#      x y z
#    x 2.794880 0.000000 0.000000 
#    y 0.000000 3.032600 0.000000 
#    z 0.000000 0.000000 3.500960 
# 
# 
# High freq. dielectric constant tensor:
#      x y z
#    x 1.579130 0.000000 0.000000 
#    y 0.000000 1.615980 0.000000 
#    z 0.000000 0.000000 1.617780 
# 
# From -- ./inp_files/73786.got.cif
#   From: 2010.03.12/outbox.cif.g09.slc.cpg/sg65_37_cif.got.tgz:73786.got - 2010.04.10 20:52:16.
