data_PCOD8265024
_publ_section_title
;
Structure prediction by ZEFSAII (Michael W. Deem and Ramdas Pophale) SiO2 
 PCOD8265024
Probable space group: C M C A
;
_chemical_formula_sum "Si O2"
_cell_formula_units_Z 112
_cell_length_a 9.734875
_cell_length_b 23.357461
_cell_length_c 29.674282
_cell_angle_alpha 90.000000
_cell_angle_beta 90.000000
_cell_angle_gamma 90.000000
_cell_volume 6747.396496
_symmetry_space_group_name_H-M "C M C A"
_symmetry_group_IT_number 64
_symmetry_cell_setting 'orthorhombic'
loop_
_space_group_symop_operation_xyz
x,y,z
-x,1/2-y,1/2+z
x,-y,-z
-x,1/2+y,1/2-z
-x,-y,-z
x,1/2+y,1/2-z
-x,y,z
x,1/2-y,1/2+z
1/2+x,1/2+y,z
1/2-x,-y,1/2+z
1/2+x,1/2-y,-z
1/2-x,y,1/2-z
1/2-x,1/2-y,-z
1/2+x,y,1/2-z
1/2-x,1/2+y,z
1/2+x,-y,1/2+z
loop_
_atom_site_type_symbol
_atom_site_label
_atom_site_fract_x
_atom_site_fract_y
_atom_site_fract_z
Si Si1 0.836961 0.579274 0.919736
Si Si2 0.346898 0.205675 0.439292
Si Si3 0.837880 0.234824 0.206126
Si Si4 0.836984 0.804954 0.378747
Si Si5 0.158381 0.621211 0.015740
Si Si6 0.151335 0.128264 0.148661
Si Si7 0.841362 0.545143 0.103268
O O1 0.786301 0.629971 0.886379
O O2 0.779664 0.518861 0.901756
O O3 0.000000 0.575391 0.920780
O O4 0.785286 0.591487 0.970417
O O5 0.500000 0.211542 0.460268
O O6 0.287942 0.266545 0.421474
O O7 0.243574 0.179548 0.476150
O O8 0.353467 0.164428 0.396604
O O9 0.750000 0.248061 0.250000
O O10 0.783994 0.280493 0.168850
O O11 0.805386 0.170341 0.189357
O O12 0.000000 0.242214 0.215872
O O13 0.000000 0.800245 0.378406
O O14 0.179385 0.576075 0.055619
O O15 0.000000 0.639544 0.010772
O O16 0.259316 0.076577 0.143407
O O17 0.000000 0.102398 0.158165
O O18 0.000000 0.544845 0.117727
#
# Coordination Sequence:
#
# PCOD8265024 Si02
#       7
#    16  16  16  16  16  16  16
#     4   9  16  26  41  60  85 119 152 178 207 247
#     4   8  14  26  42  58  80 111 144 176 210 251
#     4   9  17  30  50  72  88 104 131 169 212 259
#     4   8  15  28  44  62  85 114 144 170 207 262
#     4   9  16  25  39  61  86 112 147 189 221 239
#     4   8  15  28  44  62  85 110 133 164 212 259
#     4   9  16  26  42  63  85 112 149 186 211 237
#
# _framework density 16.598994999999999
#
# number of rings (size 3 to 8) (size 9 to 14) (size 15 to 20)
#    0.000    3.429    0.000    2.143    0.000    2.857 
#    0.000    2.857    0.000    6.857    0.000    4.000 
#    0.000    0.000    0.000    0.000    0.000    0.000 
#
# Total GULP energy -694027.352376 kJ/mol
# GULP energy per Si atom -12393.345578 kJ/mol
# Density = 1.656121 g / cm^3
# Si number density = 16.598995 Si / 1000 Ang^3
#
#
#
# Elastic Constant Matrix: (Units=GPa)
#
#
# Indices 1 2 3 4 5 6 
#
# 1 45.3529 31.1704 28.9583 0.0000 0.0000 0.0000
# 2 31.1704 94.8130 37.6485 0.0000 0.0000 0.0000
# 3 28.9583 37.6485 63.7545 0.0000 0.0000 0.0000
# 4 0.0000 0.0000 0.0000 16.8680 0.0000 0.0000
# 5 0.0000 0.0000 0.0000 0.0000 22.1191 0.0000
# 6 0.0000 0.0000 0.0000 0.0000 0.0000 15.8324
#
#
#
# Elastic Compliance Matrix: (Units=1/GPa)
#
#
# Indices 1 2 3 4 5 6 
#
# 1 0.033930 -0.006577 -0.011528 0.000000 0.000000 0.000000
# 2 -0.006577 0.015053 -0.005901 0.000000 0.000000 0.000000
# 3 -0.011528 -0.005901 0.024406 0.000000 0.000000 0.000000
# 4 0.000000 0.000000 0.000000 0.059284 0.000000 0.000000
# 5 0.000000 0.000000 0.000000 0.000000 0.045210 0.000000
# 6 0.000000 0.000000 0.000000 0.000000 0.000000 0.063162
#
#
# Mechanical properties :
#
#
# Convention : Reuss Voigt Hill
#
# Bulk Modulus (GPa) = 39.40675 44.38609 41.89642
# Shear Modulus (GPa) = 16.80581 18.04012 17.42296
#
# Velocity S-wave (km/s) = 3.18537 3.30027 3.24333
# Velocity P-wave (km/s) = 6.10907 6.42812 6.27062
#
# Compressibility (1/GPa) = 0.02537636
#
# Stress axis : x y z
#
# Youngs Moduli (GPa) = 29.47213 66.43279 40.97332
#
# Poissons Ratio (x) = 0.43696 0.47232
# Poissons Ratio (y) = 0.19385 0.24180
# Poissons Ratio (z) = 0.33974 0.39205
#
# Static dielectric constant tensor:
#      x y z
#    x 3.010440 0.000000 0.000000 
#    y 0.000000 3.384630 0.000000 
#    z 0.000000 0.000000 2.925740 
# 
# 
# High freq. dielectric constant tensor:
#      x y z
#    x 1.608270 0.000000 0.000000 
#    y 0.000000 1.638680 0.000000 
#    z 0.000000 0.000000 1.613780 
# 
# From -- ./inp_files/44433.got.cif
#   From: 2010.03.12/outbox.cif.g09.slc.cpg/sg64_23_cif.got.tgz:44433.got - 2010.04.10 20:19:32.
