data_PCOD8266944
_publ_section_title
;
Structure prediction by ZEFSAII (Michael W. Deem and Ramdas Pophale) SiO2 
 PCOD8266944
Probable space group: C M M M
;
_chemical_formula_sum "Si O2"
_cell_formula_units_Z 88
_cell_length_a 23.577311
_cell_length_b 8.713672
_cell_length_c 22.632228
_cell_angle_alpha 90.000000
_cell_angle_beta 90.000000
_cell_angle_gamma 90.000000
_cell_volume 4649.677056
_symmetry_space_group_name_H-M "C M M M"
_symmetry_group_IT_number 65
_symmetry_cell_setting 'orthorhombic'
loop_
_space_group_symop_operation_xyz
x,y,z
-x,-y,z
x,-y,-z
-x,y,-z
-x,-y,-z
x,y,-z
-x,y,z
x,-y,z
1/2+x,1/2+y,z
1/2-x,1/2-y,z
1/2+x,1/2-y,-z
1/2-x,1/2+y,-z
1/2-x,1/2-y,-z
1/2+x,1/2+y,-z
1/2-x,1/2+y,z
1/2+x,1/2-y,z
loop_
_atom_site_type_symbol
_atom_site_label
_atom_site_fract_x
_atom_site_fract_y
_atom_site_fract_z
Si Si1 0.811864 0.818207 0.719503
Si Si2 0.311045 0.823832 0.934029
Si Si3 0.434862 0.818236 0.500000
Si Si4 0.111765 0.682013 0.376110
Si Si5 0.000000 0.318912 0.818386
Si Si6 0.000000 0.681955 0.313264
Si Si7 0.117036 0.820272 0.166753
O O1 0.750000 0.750000 0.731299
O O2 0.834679 0.761115 0.655683
O O3 0.853361 0.760481 0.772479
O O4 0.806925 0.000000 0.719080
O O5 0.250000 0.750000 0.935101
O O6 0.346237 0.721175 0.889562
O O7 0.308252 0.000000 0.912115
O O8 0.337581 0.815479 0.000000
O O9 0.500000 0.751177 0.500000
O O10 0.396981 0.765768 0.443998
O O11 0.441822 0.000000 0.500000
O O12 0.119345 0.500000 0.370505
O O13 0.055703 0.745648 0.344457
O O14 0.000000 0.254036 0.752269
O O15 0.056989 0.257504 0.847760
O O16 0.000000 0.500000 0.822011
O O17 0.000000 0.500000 0.316566
O O18 0.108279 0.000000 0.171052
#
# Coordination Sequence:
#
# PCOD8266944 Si02
#       7
#    16  16   8  16   8   8  16
#     4  11  24  39  56  80 110 146 187 233 280 330
#     4  10  21  38  61  88 117 151 192 236 281 332
#     4   9  16  28  54  87 114 141 180 226 271 328
#     4  10  18  33  56  84 114 144 183 227 275 331
#     4  11  21  35  57  86 117 152 189 227 279 340
#     4   9  16  28  53  83 110 145 180 219 271 328
#     4  11  23  38  58  86 118 150 187 233 284 335
#
# _framework density 18.926044999999998
#
# number of rings (size 3 to 8) (size 9 to 14) (size 15 to 20)
#    0.000    1.727    2.727    2.455    0.000    4.727 
#    0.000    1.818    0.000    3.273    0.000    0.000 
#    0.000    0.000    0.000    0.000    0.000    0.000 
#
# Total GULP energy -545504.410787 kJ/mol
# GULP energy per Si atom -12397.827518 kJ/mol
# Density = 1.888297 g / cm^3
# Si number density = 18.926045 Si / 1000 Ang^3
#
#
#
# Elastic Constant Matrix: (Units=GPa)
#
#
# Indices 1 2 3 4 5 6 
#
# 1 104.9297 29.5943 42.1698 0.0000 0.0000 0.0000
# 2 29.5943 59.0578 24.3836 0.0000 0.0000 0.0000
# 3 42.1698 24.3836 106.4160 0.0000 0.0000 0.0000
# 4 0.0000 0.0000 0.0000 23.5281 0.0000 0.0000
# 5 0.0000 0.0000 0.0000 0.0000 43.1480 0.0000
# 6 0.0000 0.0000 0.0000 0.0000 0.0000 24.4456
#
#
#
# Elastic Compliance Matrix: (Units=1/GPa)
#
#
# Indices 1 2 3 4 5 6 
#
# 1 0.012378 -0.004614 -0.003848 0.000000 0.000000 0.000000
# 2 -0.004614 0.020422 -0.002851 0.000000 0.000000 0.000000
# 3 -0.003848 -0.002851 0.011575 0.000000 0.000000 0.000000
# 4 0.000000 0.000000 0.000000 0.042502 0.000000 0.000000
# 5 0.000000 0.000000 0.000000 0.000000 0.023176 0.000000
# 6 0.000000 0.000000 0.000000 0.000000 0.000000 0.040907
#
#
# Mechanical properties :
#
#
# Convention : Reuss Voigt Hill
#
# Bulk Modulus (GPa) = 45.97847 51.41100 48.69474
# Shear Modulus (GPa) = 27.64943 29.84138 28.74540
#
# Velocity S-wave (km/s) = 3.82634 3.97512 3.90144
# Velocity P-wave (km/s) = 6.62327 6.94924 6.78821
#
# Compressibility (1/GPa) = 0.02174931
#
# Stress axis : x y z
#
# Youngs Moduli (GPa) = 80.78913 48.96739 86.39224
#
# Poissons Ratio (x) = 0.22594 0.33242
# Poissons Ratio (y) = 0.37276 0.24630
# Poissons Ratio (z) = 0.31086 0.13960
#
# Static dielectric constant tensor:
#      x y z
#    x 3.440440 0.000000 0.000000 
#    y 0.000000 3.266500 0.000000 
#    z 0.000000 0.000000 3.701270 
# 
# 
# High freq. dielectric constant tensor:
#      x y z
#    x 1.732000 0.000000 0.000000 
#    y 0.000000 1.722560 0.000000 
#    z 0.000000 0.000000 1.738250 
# 
# From -- ./inp_files/59932.got.cif
#   From: 2010.03.12/outbox.cif.g09.slc.cpg/sg65_30_cif.got.tgz:59932.got - 2010.04.10 20:52:16.
