data_PCOD8266685
_publ_section_title
;
Structure prediction by ZEFSAII (Michael W. Deem and Ramdas Pophale) SiO2 
 PCOD8266685
Probable space group: C M M M
;
_chemical_formula_sum "Si O2"
_cell_formula_units_Z 104
_cell_length_a 26.963702
_cell_length_b 22.897574
_cell_length_c 9.225875
_cell_angle_alpha 90.000000
_cell_angle_beta 90.000000
_cell_angle_gamma 90.000000
_cell_volume 5696.086241
_symmetry_space_group_name_H-M "C M M M"
_symmetry_group_IT_number 65
_symmetry_cell_setting 'orthorhombic'
loop_
_space_group_symop_operation_xyz
x,y,z
-x,-y,z
x,-y,-z
-x,y,-z
-x,-y,-z
x,y,-z
-x,y,z
x,-y,z
1/2+x,1/2+y,z
1/2-x,1/2-y,z
1/2+x,1/2-y,-z
1/2-x,1/2+y,-z
1/2-x,1/2-y,-z
1/2+x,1/2+y,-z
1/2-x,1/2+y,z
1/2+x,1/2-y,z
loop_
_atom_site_type_symbol
_atom_site_label
_atom_site_fract_x
_atom_site_fract_y
_atom_site_fract_z
Si Si1 0.053646 0.567804 0.157365
Si Si2 0.820503 0.935535 0.828225
Si Si3 0.208290 0.567150 0.829213
Si Si4 0.942291 0.258683 0.328718
Si Si5 0.374164 0.132565 0.331664
Si Si6 0.909537 0.142767 0.172174
Si Si7 0.000000 0.064409 0.171483
O O1 0.046253 0.500000 0.147402
O O2 0.089677 0.579709 0.290888
O O3 0.000000 0.597212 0.186937
O O4 0.074426 0.590217 0.000000
O O5 0.764665 0.920567 0.779722
O O6 0.857657 0.885160 0.772648
O O7 0.835529 0.000000 0.768065
O O8 0.823653 0.938321 0.000000
O O9 0.193273 0.500000 0.786521
O O10 0.176838 0.618374 0.751778
O O11 0.201760 0.574818 0.000000
O O12 0.939895 0.249555 0.500000
O O13 0.904817 0.310356 0.280268
O O14 0.919227 0.203340 0.250032
O O15 0.000000 0.269774 0.281779
O O16 0.361998 0.134152 0.500000
O O17 0.951607 0.098235 0.224560
O O18 0.910477 0.152974 0.000000
O O19 0.000000 0.000000 0.241546
O O20 0.000000 0.059338 0.000000
#
# Coordination Sequence:
#
# PCOD8266685 Si02
#       7
#    16  16  16  16  16  16   8
#     4   9  18  32  49  71  99 128 159 204 265 324
#     4   8  15  30  54  82 110 137 164 201 255 315
#     4   9  18  34  55  78 105 137 170 208 260 316
#     4  10  22  39  53  67  99 144 179 212 259 309
#     4  11  22  34  50  72  97 133 180 222 261 303
#     4  10  18  31  54  83 107 132 171 212 251 301
#     4   9  16  26  47  83 117 133 152 201 260 305
#
# _framework density 18.258150000000001
#
# number of rings (size 3 to 8) (size 9 to 14) (size 15 to 20)
#    0.000    2.538    0.769    3.231    0.000    6.462 
#    0.000    2.308    0.000    7.846    0.000    0.000 
#    0.000    0.000    0.000    0.000    0.000    0.000 
#
# Total GULP energy -644237.169388 kJ/mol
# GULP energy per Si atom -12389.176334 kJ/mol
# Density = 1.821659 g / cm^3
# Si number density = 18.258150 Si / 1000 Ang^3
#
#
#
# Elastic Constant Matrix: (Units=GPa)
#
#
# Indices 1 2 3 4 5 6 
#
# 1 146.1943 81.7792 36.7772 0.0000 0.0000 0.0000
# 2 81.7792 111.1437 39.1450 0.0000 0.0000 0.0000
# 3 36.7772 39.1450 31.4411 0.0000 0.0000 0.0000
# 4 0.0000 0.0000 0.0000 11.5065 0.0000 0.0000
# 5 0.0000 0.0000 0.0000 0.0000 16.9610 0.0000
# 6 0.0000 0.0000 0.0000 0.0000 0.0000 45.2497
#
#
#
# Elastic Compliance Matrix: (Units=1/GPa)
#
#
# Indices 1 2 3 4 5 6 
#
# 1 0.012133 -0.006997 -0.005481 0.000000 0.000000 0.000000
# 2 -0.006997 0.020059 -0.016789 0.000000 0.000000 0.000000
# 3 -0.005481 -0.016789 0.059119 0.000000 0.000000 0.000000
# 4 0.000000 0.000000 0.000000 0.086907 0.000000 0.000000
# 5 0.000000 0.000000 0.000000 0.000000 0.058959 0.000000
# 6 0.000000 0.000000 0.000000 0.000000 0.000000 0.022100
#
#
# Mechanical properties :
#
#
# Convention : Reuss Voigt Hill
#
# Bulk Modulus (GPa) = 30.50892 67.13132 48.82012
# Shear Modulus (GPa) = 15.20971 23.48195 19.34583
#
# Velocity S-wave (km/s) = 2.88937 3.59012 3.25864
# Velocity P-wave (km/s) = 5.27990 7.35072 6.39962
#
# Compressibility (1/GPa) = 0.03277730
#
# Stress axis : x y z
#
# Youngs Moduli (GPa) = 82.41940 49.85264 16.91495
#
# Poissons Ratio (x) = 0.34883 0.09270
# Poissons Ratio (y) = 0.57671 0.28399
# Poissons Ratio (z) = 0.45170 0.83699
#
# Static dielectric constant tensor:
#      x y z
#    x 3.659610 0.000000 0.000000 
#    y 0.000000 3.394200 0.000000 
#    z 0.000000 0.000000 3.105840 
# 
# 
# High freq. dielectric constant tensor:
#      x y z
#    x 1.718290 0.000000 0.000000 
#    y 0.000000 1.698560 0.000000 
#    z 0.000000 0.000000 1.674680 
# 
# From -- ./inp_files/16740.got.cif
#   From: 2010.03.12/outbox.cif.g09.slc.cpg/sg65_9_cif.got.tgz:16740.got - 2010.04.10 20:52:16.
