data_PCOD8266331
_publ_section_title
;
Structure prediction by ZEFSAII (Michael W. Deem and Ramdas Pophale) SiO2 
 PCOD8266331
Probable space group: C M M M
;
_chemical_formula_sum "Si O2"
_cell_formula_units_Z 88
_cell_length_a 18.017351
_cell_length_b 10.232043
_cell_length_c 26.748304
_cell_angle_alpha 90.000000
_cell_angle_beta 90.000000
_cell_angle_gamma 90.000000
_cell_volume 4931.165132
_symmetry_space_group_name_H-M "C M M M"
_symmetry_group_IT_number 65
_symmetry_cell_setting 'orthorhombic'
loop_
_space_group_symop_operation_xyz
x,y,z
-x,-y,z
x,-y,-z
-x,y,-z
-x,-y,-z
x,y,-z
-x,y,z
x,-y,z
1/2+x,1/2+y,z
1/2-x,1/2-y,z
1/2+x,1/2-y,-z
1/2-x,1/2+y,-z
1/2-x,1/2-y,-z
1/2+x,1/2+y,-z
1/2-x,1/2+y,z
1/2+x,1/2-y,z
loop_
_atom_site_type_symbol
_atom_site_label
_atom_site_fract_x
_atom_site_fract_y
_atom_site_fract_z
Si Si1 0.839252 0.000000 0.443542
Si Si2 0.413604 0.649026 0.097474
Si Si3 0.337998 0.750814 0.384132
Si Si4 0.088204 0.645441 0.821363
Si Si5 0.586466 0.150721 0.290468
Si Si6 0.837493 0.500000 0.555900
Si Si7 0.682223 0.650236 0.000000
O O1 0.868418 0.125049 0.413324
O O2 0.750936 0.000000 0.446071
O O3 0.871501 0.000000 0.500000
O O4 0.500000 0.676216 0.086228
O O5 0.401917 0.500000 0.115657
O O6 0.381970 0.746010 0.140086
O O7 0.368353 0.678758 0.047727
O O8 0.250000 0.750000 0.379963
O O9 0.370317 0.754707 0.328260
O O10 0.367629 0.873777 0.415414
O O11 0.116937 0.500000 0.836614
O O12 0.115608 0.681340 0.765561
O O13 0.000000 0.644272 0.821054
O O14 0.500000 0.181742 0.295012
O O15 0.603116 0.000000 0.303634
O O16 0.870151 0.500000 0.500000
O O17 0.750000 0.750000 0.000000
O O18 0.710892 0.500000 0.000000
#
# Coordination Sequence:
#
# PCOD8266331 Si02
#       7
#     8  16  16  16  16   8   8
#     4   9  18  30  45  69  97 125 157 200 249 288
#     4   9  17  32  54  77  99 127 168 212 247 283
#     4  10  18  30  49  72  97 123 159 202 244 290
#     4   8  15  29  50  74  98 126 162 205 247 287
#     4   9  17  32  53  73  96 128 164 200 242 291
#     4   9  16  28  49  71  91 121 163 204 237 282
#     4  10  21  35  51  73 107 142 170 200 246 298
#
# _framework density 17.845680999999999
#
# number of rings (size 3 to 8) (size 9 to 14) (size 15 to 20)
#    0.000    2.909    0.909    1.909    0.000    4.000 
#    1.636    1.364    0.000    8.182    0.000    0.000 
#    0.000    0.000    0.000    0.000    0.000    0.000 
#
# Total GULP energy -545480.872523 kJ/mol
# GULP energy per Si atom -12397.292557 kJ/mol
# Density = 1.780506 g / cm^3
# Si number density = 17.845681 Si / 1000 Ang^3
#
#
#
# Elastic Constant Matrix: (Units=GPa)
#
#
# Indices 1 2 3 4 5 6 
#
# 1 31.3013 34.4967 36.0054 0.0000 0.0000 0.0000
# 2 34.4967 145.4720 99.9860 0.0000 0.0000 0.0000
# 3 36.0054 99.9860 166.9980 0.0000 0.0000 0.0000
# 4 0.0000 0.0000 0.0000 39.5547 0.0000 0.0000
# 5 0.0000 0.0000 0.0000 0.0000 -1.8795 0.0000
# 6 0.0000 0.0000 0.0000 0.0000 0.0000 16.2930
#
#
#
# Elastic Compliance Matrix: (Units=1/GPa)
#
#
# Indices 1 2 3 4 5 6 
#
# 1 0.046333 -0.007003 -0.005797 0.000000 0.000000 0.000000
# 2 -0.007003 0.012740 -0.006118 0.000000 0.000000 0.000000
# 3 -0.005797 -0.006118 0.010901 0.000000 0.000000 0.000000
# 4 0.000000 0.000000 0.000000 0.025281 0.000000 0.000000
# 5 0.000000 0.000000 0.000000 0.000000 -0.532047 0.000000
# 6 0.000000 0.000000 0.000000 0.000000 0.000000 0.061376
#
#
# Mechanical properties :
#
#
# Convention : Reuss Voigt Hill
#
# Bulk Modulus (GPa) = 31.11503 76.08305 53.59904
# Shear Modulus (GPa) = -15.29671 22.34586 3.52457
#
# Velocity S-wave (km/s) = -2.93092 3.54244 1.40688
# Velocity P-wave (km/s) = 2.45352 7.71092 5.72180
#
# Compressibility (1/GPa) = 0.03213881
#
# Stress axis : x y z
#
# Youngs Moduli (GPa) = 21.58266 78.49493 91.73738
#
# Poissons Ratio (x) = 0.54971 0.53177
# Poissons Ratio (y) = 0.15115 0.56122
# Poissons Ratio (z) = 0.12511 0.48021
#
# Static dielectric constant tensor:
#      x y z
#    x 2.824150 0.000000 0.000000 
#    y 0.000000 3.484660 0.000000 
#    z 0.000000 0.000000 3.495860 
# 
# 
# High freq. dielectric constant tensor:
#      x y z
#    x 1.643370 0.000000 0.000000 
#    y 0.000000 1.692190 0.000000 
#    z 0.000000 0.000000 1.702880 
# 
# From -- ./inp_files/78013.got.cif
#   From: 2010.03.12/outbox.cif.g09.slc.cpg/sg65_40_cif.got.tgz:78013.got - 2010.04.10 20:52:16.
