data_PCOD8266086
_publ_section_title
;
Structure prediction by ZEFSAII (Michael W. Deem and Ramdas Pophale) SiO2 
 PCOD8266086
Probable space group: C M M M
;
_chemical_formula_sum "Si O2"
_cell_formula_units_Z 112
_cell_length_a 17.047016
_cell_length_b 14.548394
_cell_length_c 23.903148
_cell_angle_alpha 90.000000
_cell_angle_beta 90.000000
_cell_angle_gamma 90.000000
_cell_volume 5928.140982
_symmetry_space_group_name_H-M "C M M M"
_symmetry_group_IT_number 65
_symmetry_cell_setting 'orthorhombic'
loop_
_space_group_symop_operation_xyz
x,y,z
-x,-y,z
x,-y,-z
-x,y,-z
-x,-y,-z
x,y,-z
-x,y,z
x,-y,z
1/2+x,1/2+y,z
1/2-x,1/2-y,z
1/2+x,1/2-y,-z
1/2-x,1/2+y,-z
1/2-x,1/2-y,-z
1/2+x,1/2+y,-z
1/2-x,1/2+y,z
1/2+x,1/2-y,z
loop_
_atom_site_type_symbol
_atom_site_label
_atom_site_fract_x
_atom_site_fract_y
_atom_site_fract_z
Si Si1 0.156798 0.397940 0.938667
Si Si2 0.842960 0.394535 0.647016
Si Si3 0.092711 0.250000 0.563950
Si Si4 0.657041 0.394535 0.647016
Si Si5 0.656619 0.250000 0.148075
Si Si6 0.591941 0.250000 0.270634
Si Si7 0.156798 0.897940 0.938667
O O1 0.124409 0.500000 0.928209
O O2 0.126520 0.336611 0.887741
O O3 0.250000 0.396568 0.938669
O O4 0.128064 0.362560 0.000000
O O5 0.873263 0.500000 0.647289
O O6 0.874596 0.342455 0.592294
O O7 0.750000 0.391388 0.646361
O O8 0.872628 0.342334 0.702319
O O9 0.120481 0.250000 0.500000
O O10 0.125404 0.157545 0.592294
O O11 0.000000 0.250000 0.569985
O O12 0.626737 0.500000 0.647290
O O13 0.627373 0.342334 0.702319
O O14 0.750000 0.250000 0.158498
O O15 0.611012 0.250000 0.205697
O O16 0.626521 0.336612 0.112259
O O17 0.500000 0.250000 0.281488
O O18 0.124409 0.000000 0.928209
O O19 0.128065 0.862559 0.000000
#
# Coordination Sequence:
#
# PCOD8266086 Si02
#       7
#    16  16  16  16  16  16  16
#     4   8  14  25  43  69  97 123 157 205 258 307
#     4  10  21  38  60  82 105 138 180 225 269 308
#     4  10  21  36  56  85 119 150 178 210 251 306
#     4  10  21  38  60  82 105 138 180 225 269 308
#     4  10  18  29  48  72  97 127 166 212 259 305
#     4  11  23  37  53  75 106 142 178 218 264 317
#     4   8  14  25  43  69  97 123 157 205 258 307
#
# _framework density 18.892938000000001
#
# number of rings (size 3 to 8) (size 9 to 14) (size 15 to 20)
#    0.000    2.429    0.000    5.571    0.000    6.857 
#    0.000    5.714    0.000    1.714    0.000    2.000 
#    0.000    0.000    0.000    0.000    0.000    0.000 
#
# Total GULP energy -694180.999107 kJ/mol
# GULP energy per Si atom -12396.089270 kJ/mol
# Density = 1.884994 g / cm^3
# Si number density = 18.892938 Si / 1000 Ang^3
#
#
#
# Elastic Constant Matrix: (Units=GPa)
#
#
# Indices 1 2 3 4 5 6 
#
# 1 53.8258 33.8065 26.0771 0.0000 0.0000 0.0000
# 2 33.8065 167.4656 86.3503 0.0000 0.0000 0.0000
# 3 26.0771 86.3503 174.6393 0.0000 0.0000 0.0000
# 4 0.0000 0.0000 0.0000 23.2810 0.0000 0.0000
# 5 0.0000 0.0000 0.0000 0.0000 -189.9080 0.0000
# 6 0.0000 0.0000 0.0000 0.0000 0.0000 9.6398
#
#
#
# Elastic Compliance Matrix: (Units=1/GPa)
#
#
# Indices 1 2 3 4 5 6 
#
# 1 0.021539 -0.003610 -0.001431 0.000000 0.000000 0.000000
# 2 -0.003610 0.008620 -0.003723 0.000000 0.000000 0.000000
# 3 -0.001431 -0.003723 0.007781 0.000000 0.000000 0.000000
# 4 0.000000 0.000000 0.000000 0.042954 0.000000 0.000000
# 5 0.000000 0.000000 0.000000 0.000000 -0.005266 0.000000
# 6 0.000000 0.000000 0.000000 0.000000 0.000000 0.103736
#
#
# Mechanical properties :
#
#
# Convention : Reuss Voigt Hill
#
# Bulk Modulus (GPa) = 48.99322 76.48872 62.74097
# Shear Modulus (GPa) = 24.54632 -14.75099 4.89767
#
# Velocity S-wave (km/s) = 3.60840 -2.79725 1.61182
# Velocity P-wave (km/s) = 6.58400 5.49003 6.06174
#
# Compressibility (1/GPa) = 0.02041099
#
# Stress axis : x y z
#
# Youngs Moduli (GPa) = 46.42685 116.01104 128.52420
#
# Poissons Ratio (x) = 0.41882 0.18394
# Poissons Ratio (y) = 0.16761 0.47850
# Poissons Ratio (z) = 0.06644 0.43191
#
# Static dielectric constant tensor:
#      x y z
#    x 3.177440 0.000000 0.000000 
#    y 0.000000 3.906190 0.000000 
#    z 0.000000 0.000000 3.580080 
# 
# 
# High freq. dielectric constant tensor:
#      x y z
#    x 1.709400 0.000000 0.000000 
#    y 0.000000 1.741950 0.000000 
#    z 0.000000 0.000000 1.739800 
# 
# From -- ./inp_files/70051.got.cif
#   From: 2010.03.12/outbox.cif.g09.slc.cpg/sg65_36_cif.got.tgz:70051.got - 2010.04.10 20:52:16.
