data_PCOD8266996
_publ_section_title
;
Structure prediction by ZEFSAII (Michael W. Deem and Ramdas Pophale) SiO2 
 PCOD8266996
Probable space group: C M M M
;
_chemical_formula_sum "Si O2"
_cell_formula_units_Z 72
_cell_length_a 28.222062
_cell_length_b 8.867898
_cell_length_c 14.905873
_cell_angle_alpha 90.000000
_cell_angle_beta 90.000000
_cell_angle_gamma 90.000000
_cell_volume 3730.498309
_symmetry_space_group_name_H-M "C M M M"
_symmetry_group_IT_number 65
_symmetry_cell_setting 'orthorhombic'
loop_
_space_group_symop_operation_xyz
x,y,z
-x,-y,z
x,-y,-z
-x,y,-z
-x,-y,-z
x,y,-z
-x,y,z
x,-y,z
1/2+x,1/2+y,z
1/2-x,1/2-y,z
1/2+x,1/2-y,-z
1/2-x,1/2+y,-z
1/2-x,1/2-y,-z
1/2+x,1/2+y,-z
1/2-x,1/2+y,z
1/2+x,1/2-y,z
loop_
_atom_site_type_symbol
_atom_site_label
_atom_site_fract_x
_atom_site_fract_y
_atom_site_fract_z
Si Si1 0.445562 0.175290 0.743607
Si Si2 0.698443 0.820477 0.500000
Si Si3 0.392750 0.322183 0.897316
Si Si4 0.796693 0.669718 0.893199
Si Si5 0.879733 0.170498 0.598764
O O1 0.500000 0.205204 0.719373
O O2 0.434884 0.252681 0.838946
O O3 0.414064 0.245685 0.666088
O O4 0.433963 0.000000 0.751703
O O5 0.750000 0.750000 0.500000
O O6 0.670297 0.760522 0.411174
O O7 0.701174 0.000000 0.500000
O O8 0.392105 0.500000 0.887028
O O9 0.342867 0.259387 0.860055
O O10 0.401250 0.272857 0.000000
O O11 0.798994 0.500000 0.855845
O O12 0.750000 0.750000 0.853511
O O13 0.794472 0.670788 0.000000
O O14 0.904284 0.167303 0.500000
O O15 0.870087 0.000000 0.632960
#
# Coordination Sequence:
#
# PCOD8266996 Si02
#       5
#    16   8  16  16  16
#     4  11  24  40  59  84 115 152 195 245 299 353
#     4  10  18  34  61  92 127 162 194 229 277 339
#     4  10  21  37  57  81 112 152 198 247 297 350
#     4   9  16  28  49  76 106 140 179 225 279 338
#     4   9  20  38  61  90 120 153 192 235 285 342
#
# _framework density 19.300370999999998
#
# number of rings (size 3 to 8) (size 9 to 14) (size 15 to 20)
#    0.667    1.556    0.000    3.333    0.000    6.667 
#    0.000    5.556    0.000    0.000    0.000    0.000 
#    0.000    0.000    0.000    0.000    0.000    0.000 
#
# Total GULP energy -446311.129511 kJ/mol
# GULP energy per Si atom -12397.531375 kJ/mol
# Density = 1.925644 g / cm^3
# Si number density = 19.300371 Si / 1000 Ang^3
#
#
#
# Elastic Constant Matrix: (Units=GPa)
#
#
# Indices 1 2 3 4 5 6 
#
# 1 122.2284 74.5190 51.5425 0.0000 0.0000 0.0000
# 2 74.5190 151.3768 43.3711 0.0000 0.0000 0.0000
# 3 51.5425 43.3711 70.4674 0.0000 0.0000 0.0000
# 4 0.0000 0.0000 0.0000 29.6971 0.0000 0.0000
# 5 0.0000 0.0000 0.0000 0.0000 28.7717 0.0000
# 6 0.0000 0.0000 0.0000 0.0000 0.0000 37.8492
#
#
#
# Elastic Compliance Matrix: (Units=1/GPa)
#
#
# Indices 1 2 3 4 5 6 
#
# 1 0.014319 -0.004915 -0.007448 0.000000 0.000000 0.000000
# 2 -0.004915 0.009707 -0.002380 0.000000 0.000000 0.000000
# 3 -0.007448 -0.002380 0.021104 0.000000 0.000000 0.000000
# 4 0.000000 0.000000 0.000000 0.033673 0.000000 0.000000
# 5 0.000000 0.000000 0.000000 0.000000 0.034756 0.000000
# 6 0.000000 0.000000 0.000000 0.000000 0.000000 0.026421
#
#
# Mechanical properties :
#
#
# Convention : Reuss Voigt Hill
#
# Bulk Modulus (GPa) = 63.92258 75.88199 69.90229
# Shear Modulus (GPa) = 28.62377 30.90627 29.76502
#
# Velocity S-wave (km/s) = 3.85524 4.00600 3.93135
# Velocity P-wave (km/s) = 7.28072 7.79738 7.54348
#
# Compressibility (1/GPa) = 0.01564392
#
# Stress axis : x y z
#
# Youngs Moduli (GPa) = 69.83923 103.01580 47.38522
#
# Poissons Ratio (x) = 0.50629 0.35294
# Poissons Ratio (y) = 0.34324 0.11277
# Poissons Ratio (z) = 0.52018 0.24516
#
# Static dielectric constant tensor:
#      x y z
#    x 3.496210 0.000000 0.000000 
#    y 0.000000 3.697000 0.000000 
#    z 0.000000 0.000000 3.291880 
# 
# 
# High freq. dielectric constant tensor:
#      x y z
#    x 1.746110 0.000000 0.000000 
#    y 0.000000 1.771540 0.000000 
#    z 0.000000 0.000000 1.725130 
# 
# From -- ./inp_files/47468.got.cif
#   From: 2010.03.12/outbox.cif.g09.slc.cpg/sg65_24_cif.got.tgz:47468.got - 2010.04.10 20:52:16.
