data_PCOD8266561
_publ_section_title
;
Structure prediction by ZEFSAII (Michael W. Deem and Ramdas Pophale) SiO2 
 PCOD8266561
Probable space group: C M M M
;
_chemical_formula_sum "Si O2"
_cell_formula_units_Z 72
_cell_length_a 9.252790
_cell_length_b 29.135526
_cell_length_c 14.555983
_cell_angle_alpha 90.000000
_cell_angle_beta 90.000000
_cell_angle_gamma 90.000000
_cell_volume 3924.073274
_symmetry_space_group_name_H-M "C M M M"
_symmetry_group_IT_number 65
_symmetry_cell_setting 'orthorhombic'
loop_
_space_group_symop_operation_xyz
x,y,z
-x,-y,z
x,-y,-z
-x,y,-z
-x,-y,-z
x,y,-z
-x,y,z
x,-y,z
1/2+x,1/2+y,z
1/2-x,1/2-y,z
1/2+x,1/2-y,-z
1/2-x,1/2+y,-z
1/2-x,1/2-y,-z
1/2+x,1/2+y,-z
1/2-x,1/2+y,z
1/2+x,1/2-y,z
loop_
_atom_site_type_symbol
_atom_site_label
_atom_site_fract_x
_atom_site_fract_y
_atom_site_fract_z
Si Si1 0.658108 0.709914 0.104320
Si Si2 0.328485 0.122151 0.150710
Si Si3 0.172312 0.448851 0.500000
Si Si4 0.171089 0.624468 0.358528
Si Si5 0.670537 0.949223 0.000000
Si Si6 0.328573 0.201056 0.500000
O O1 0.500000 0.704329 0.152150
O O2 0.750000 0.750000 0.155514
O O3 0.748909 0.663797 0.103000
O O4 0.632002 0.725107 0.000000
O O5 0.500000 0.130082 0.145908
O O6 0.270304 0.120313 0.255092
O O7 0.282146 0.077034 0.093288
O O8 0.239706 0.500000 0.500000
O O9 0.227978 0.420800 0.588823
O O10 0.000000 0.451816 0.500000
O O11 0.219750 0.671486 0.409938
O O12 0.000000 0.623608 0.359153
O O13 0.500000 0.953818 0.000000
O O14 0.741699 0.000000 0.000000
O O15 0.500000 0.209565 0.500000
O O16 0.250000 0.250000 0.500000
#
# Coordination Sequence:
#
# PCOD8266561 Si02
#       6
#    16  16   8  16   8   8
#     4  10  20  33  50  71  96 126 163 201 240 286
#     4  10  18  31  50  71 100 134 166 203 246 288
#     4   8  13  24  43  68  97 126 157 197 247 297
#     4   8  16  28  44  68  96 126 159 198 241 285
#     4   9  18  30  46  71 100 129 164 205 246 287
#     4   9  17  32  49  67  95 126 158 194 236 284
#
# _framework density 18.348281
#
# number of rings (size 3 to 8) (size 9 to 14) (size 15 to 20)
#    0.000    2.889    1.111    2.000    0.000    2.667 
#    0.000    7.778    0.000    1.333    0.000    0.000 
#    0.000   15.111    0.000    0.000    0.000    0.000 
#
# Total GULP energy -446056.741916 kJ/mol
# GULP energy per Si atom -12390.465053 kJ/mol
# Density = 1.830652 g / cm^3
# Si number density = 18.348281 Si / 1000 Ang^3
#
#
#
# Elastic Constant Matrix: (Units=GPa)
#
#
# Indices 1 2 3 4 5 6 
#
# 1 46.1754 39.8487 19.8439 0.0000 0.0000 0.0000
# 2 39.8487 178.2049 60.7233 0.0000 0.0000 0.0000
# 3 19.8439 60.7233 124.6686 0.0000 0.0000 0.0000
# 4 0.0000 0.0000 0.0000 5.9993 0.0000 0.0000
# 5 0.0000 0.0000 0.0000 0.0000 9.1701 0.0000
# 6 0.0000 0.0000 0.0000 0.0000 0.0000 18.8143
#
#
#
# Elastic Compliance Matrix: (Units=1/GPa)
#
#
# Indices 1 2 3 4 5 6 
#
# 1 0.027110 -0.005505 -0.001634 0.000000 0.000000 0.000000
# 2 -0.005505 0.007846 -0.002945 0.000000 0.000000 0.000000
# 3 -0.001634 -0.002945 0.009716 0.000000 0.000000 0.000000
# 4 0.000000 0.000000 0.000000 0.166686 0.000000 0.000000
# 5 0.000000 0.000000 0.000000 0.000000 0.109050 0.000000
# 6 0.000000 0.000000 0.000000 0.000000 0.000000 0.053151
#
#
# Mechanical properties :
#
#
# Convention : Reuss Voigt Hill
#
# Bulk Modulus (GPa) = 40.81122 65.54228 53.17675
# Shear Modulus (GPa) = 12.44107 22.03896 17.24001
#
# Velocity S-wave (km/s) = 2.60677 3.46951 3.06861
# Velocity P-wave (km/s) = 5.59921 7.20061 6.44980
#
# Compressibility (1/GPa) = 0.02450306
#
# Stress axis : x y z
#
# Youngs Moduli (GPa) = 36.88722 127.44965 102.92376
#
# Poissons Ratio (x) = 0.70166 0.16813
# Poissons Ratio (y) = 0.20308 0.30315
# Poissons Ratio (z) = 0.06026 0.37539
#
# Static dielectric constant tensor:
#      x y z
#    x 3.065450 0.000000 0.000000 
#    y 0.000000 3.591570 0.000000 
#    z 0.000000 0.000000 3.717290 
# 
# 
# High freq. dielectric constant tensor:
#      x y z
#    x 1.662900 0.000000 0.000000 
#    y 0.000000 1.716590 0.000000 
#    z 0.000000 0.000000 1.704450 
# 
# From -- ./inp_files/37026.got.cif
#   From: 2010.03.12/outbox.cif.g09.slc.cpg/sg65_19_cif.got.tgz:37026.got - 2010.04.10 20:52:16.
