data_PCOD8266911
_publ_section_title
;
Structure prediction by ZEFSAII (Michael W. Deem and Ramdas Pophale) SiO2 
 PCOD8266911
Probable space group: C M M M
;
_chemical_formula_sum "Si O2"
_cell_formula_units_Z 96
_cell_length_a 8.996336
_cell_length_b 23.801872
_cell_length_c 26.190920
_cell_angle_alpha 90.000000
_cell_angle_beta 90.000000
_cell_angle_gamma 90.000000
_cell_volume 5608.252217
_symmetry_space_group_name_H-M "C M M M"
_symmetry_group_IT_number 65
_symmetry_cell_setting 'orthorhombic'
loop_
_space_group_symop_operation_xyz
x,y,z
-x,-y,z
x,-y,-z
-x,y,-z
-x,-y,-z
x,y,-z
-x,y,z
x,-y,z
1/2+x,1/2+y,z
1/2-x,1/2-y,z
1/2+x,1/2-y,-z
1/2-x,1/2+y,-z
1/2-x,1/2-y,-z
1/2+x,1/2+y,-z
1/2-x,1/2+y,z
1/2+x,1/2-y,z
loop_
_atom_site_type_symbol
_atom_site_label
_atom_site_fract_x
_atom_site_fract_y
_atom_site_fract_z
Si Si1 0.323448 0.119492 0.759055
Si Si2 0.676333 0.000000 0.790755
Si Si3 0.324240 0.810417 0.335728
Si Si4 0.173321 0.690631 0.553909
Si Si5 0.175917 0.310164 0.143511
Si Si6 0.329864 0.500000 0.897491
Si Si7 0.670994 0.619552 0.058568
O O1 0.500000 0.118968 0.758202
O O2 0.260761 0.147661 0.707313
O O3 0.266935 0.153964 0.808090
O O4 0.261972 0.055683 0.762378
O O5 0.500000 0.000000 0.790378
O O6 0.724039 0.000000 0.849098
O O7 0.500000 0.802256 0.329244
O O8 0.250000 0.750000 0.328629
O O9 0.283877 0.838086 0.391700
O O10 0.214935 0.658001 0.500000
O O11 0.250000 0.750000 0.552537
O O12 0.000000 0.702470 0.554657
O O13 0.250000 0.250000 0.147029
O O14 0.223701 0.341237 0.092049
O O15 0.000000 0.302957 0.143680
O O16 0.500000 0.500000 0.878621
O O17 0.294362 0.554225 0.931616
O O18 0.500000 0.633349 0.071688
O O19 0.706990 0.633106 0.000000
#
# Coordination Sequence:
#
# PCOD8266911 Si02
#       7
#    16   8  16  16  16   8  16
#     4   9  18  31  49  70  92 120 154 191 230 277
#     4  10  18  33  53  71  93 120 152 191 232 276
#     4   9  16  27  42  64  92 122 154 187 227 273
#     4   8  13  21  35  56  84 117 151 186 223 264
#     4  11  22  36  53  73  97 126 159 193 232 278
#     4  10  19  34  56  80 100 119 149 190 236 278
#     4  10  21  37  56  77 100 125 153 187 230 280
#
# _framework density 17.117632
#
# number of rings (size 3 to 8) (size 9 to 14) (size 15 to 20)
#    0.000    2.500    1.667    1.250    0.000    1.667 
#    0.000    1.667    0.000    1.500    0.000    0.583 
#    0.000    4.667    0.000    0.000    0.000   78.500 
#
# Total GULP energy -594738.656699 kJ/mol
# GULP energy per Si atom -12390.388681 kJ/mol
# Density = 1.707867 g / cm^3
# Si number density = 17.117632 Si / 1000 Ang^3
#
#
#
# Elastic Constant Matrix: (Units=GPa)
#
#
# Indices 1 2 3 4 5 6 
#
# 1 29.9027 28.5532 28.8823 0.0000 0.0000 0.0000
# 2 28.5532 119.2414 69.4210 0.0000 0.0000 0.0000
# 3 28.8823 69.4210 168.0359 0.0000 0.0000 0.0000
# 4 0.0000 0.0000 0.0000 7.7718 0.0000 0.0000
# 5 0.0000 0.0000 0.0000 0.0000 17.5889 0.0000
# 6 0.0000 0.0000 0.0000 0.0000 0.0000 -2.6093
#
#
#
# Elastic Compliance Matrix: (Units=1/GPa)
#
#
# Indices 1 2 3 4 5 6 
#
# 1 0.045687 -0.008385 -0.004389 0.000000 0.000000 0.000000
# 2 -0.008385 0.012581 -0.003756 0.000000 0.000000 0.000000
# 3 -0.004389 -0.003756 0.008257 0.000000 0.000000 0.000000
# 4 0.000000 0.000000 0.000000 0.128670 0.000000 0.000000
# 5 0.000000 0.000000 0.000000 0.000000 0.056854 0.000000
# 6 0.000000 0.000000 0.000000 0.000000 0.000000 -0.383245
#
#
# Mechanical properties :
#
#
# Convention : Reuss Voigt Hill
#
# Bulk Modulus (GPa) = 29.88154 63.43254 46.65704
# Shear Modulus (GPa) = -57.48485 17.23852 -20.12316
#
# Velocity S-wave (km/s) = -5.80131 3.17687 -3.43239
# Velocity P-wave (km/s) = 5.23250 7.11294 3.40697
#
# Compressibility (1/GPa) = 0.03346548
#
# Stress axis : x y z
#
# Youngs Moduli (GPa) = 21.88786 79.48380 121.10436
#
# Poissons Ratio (x) = 0.66648 0.53149
# Poissons Ratio (y) = 0.18353 0.45492
# Poissons Ratio (z) = 0.09606 0.29858
#
# Static dielectric constant tensor:
#      x y z
#    x 2.954230 0.000000 0.000000 
#    y 0.000000 3.191700 0.000000 
#    z 0.000000 0.000000 3.845830 
# 
# 
# High freq. dielectric constant tensor:
#      x y z
#    x 1.644400 0.000000 0.000000 
#    y 0.000000 1.634260 0.000000 
#    z 0.000000 0.000000 1.678250 
# 
# From -- ./inp_files/73480.got.cif
#   From: 2010.03.12/outbox.cif.g09.slc.cpg/sg65_37_cif.got.tgz:73480.got - 2010.04.10 20:52:16.
