data_PCOD8266136
_publ_section_title
;
Structure prediction by ZEFSAII (Michael W. Deem and Ramdas Pophale) SiO2 
 PCOD8266136
Probable space group: C M M M
;
_chemical_formula_sum "Si O2"
_cell_formula_units_Z 88
_cell_length_a 9.994751
_cell_length_b 24.128055
_cell_length_c 20.367691
_cell_angle_alpha 90.000000
_cell_angle_beta 90.000000
_cell_angle_gamma 90.000000
_cell_volume 4911.748156
_symmetry_space_group_name_H-M "C M M M"
_symmetry_group_IT_number 65
_symmetry_cell_setting 'orthorhombic'
loop_
_space_group_symop_operation_xyz
x,y,z
-x,-y,z
x,-y,-z
-x,y,-z
-x,-y,-z
x,y,-z
-x,y,z
x,-y,z
1/2+x,1/2+y,z
1/2-x,1/2-y,z
1/2+x,1/2-y,-z
1/2-x,1/2+y,-z
1/2-x,1/2-y,-z
1/2+x,1/2+y,-z
1/2-x,1/2+y,z
1/2+x,1/2-y,z
loop_
_atom_site_type_symbol
_atom_site_label
_atom_site_fract_x
_atom_site_fract_y
_atom_site_fract_z
Si Si1 0.349963 0.361381 0.134130
Si Si2 0.156728 0.118088 0.619204
Si Si3 0.659760 0.304570 0.500000
Si Si4 0.840649 0.000000 0.575574
Si Si5 0.343590 0.301693 0.733811
Si Si6 0.148899 0.564827 0.074001
Si Si7 0.145916 0.797424 0.000000
O O1 0.500000 0.384449 0.145478
O O2 0.312432 0.318676 0.191506
O O3 0.246266 0.411940 0.130660
O O4 0.334117 0.332736 0.064636
O O5 0.204776 0.159776 0.562728
O O6 0.217918 0.055841 0.610814
O O7 0.195556 0.145467 0.688863
O O8 0.000000 0.110970 0.612223
O O9 0.500000 0.290483 0.500000
O O10 0.750000 0.250000 0.500000
O O11 0.793612 0.000000 0.500000
O O12 0.000000 0.000000 0.579392
O O13 0.500000 0.285400 0.723858
O O14 0.250000 0.250000 0.714718
O O15 0.145712 0.500000 0.084066
O O16 0.000000 0.589411 0.084312
O O17 0.198556 0.579280 0.000000
O O18 0.250000 0.750000 0.000000
O O19 0.000000 0.769824 0.000000
#
# Coordination Sequence:
#
# PCOD8266136 Si02
#       7
#    16  16   8   8  16  16   8
#     4  10  20  34  50  72 102 132 169 215 261 309
#     4   9  17  30  49  75 106 135 170 212 255 306
#     4  10  18  29  49  77 105 134 169 210 250 298
#     4   9  14  26  50  78 106 135 167 212 263 302
#     4  10  21  36  52  75 106 139 175 215 260 314
#     4   9  18  33  53  76 100 128 166 209 254 310
#     4  10  20  32  47  68  93 123 162 207 253 304
#
# _framework density 17.916228
#
# number of rings (size 3 to 8) (size 9 to 14) (size 15 to 20)
#    0.000    2.455    1.818    1.636    0.000    1.818 
#    1.636    0.909    0.000    0.000    0.000    2.545 
#    0.000    0.000    0.000    0.000    0.000    0.000 
#
# Total GULP energy -545323.216541 kJ/mol
# GULP energy per Si atom -12393.709467 kJ/mol
# Density = 1.787545 g / cm^3
# Si number density = 17.916228 Si / 1000 Ang^3
#
#
#
# Elastic Constant Matrix: (Units=GPa)
#
#
# Indices 1 2 3 4 5 6 
#
# 1 62.7015 52.1018 23.7126 0.0000 0.0000 0.0000
# 2 52.1018 126.3211 52.8222 0.0000 0.0000 0.0000
# 3 23.7126 52.8222 97.7596 0.0000 0.0000 0.0000
# 4 0.0000 0.0000 0.0000 22.0483 0.0000 0.0000
# 5 0.0000 0.0000 0.0000 0.0000 12.0281 0.0000
# 6 0.0000 0.0000 0.0000 0.0000 0.0000 32.2934
#
#
#
# Elastic Compliance Matrix: (Units=1/GPa)
#
#
# Indices 1 2 3 4 5 6 
#
# 1 0.024294 -0.009762 -0.000618 0.000000 0.000000 0.000000
# 2 -0.009762 0.014149 -0.005278 0.000000 0.000000 0.000000
# 3 -0.000618 -0.005278 0.013231 0.000000 0.000000 0.000000
# 4 0.000000 0.000000 0.000000 0.045355 0.000000 0.000000
# 5 0.000000 0.000000 0.000000 0.000000 0.083139 0.000000
# 6 0.000000 0.000000 0.000000 0.000000 0.000000 0.030966
#
#
# Mechanical properties :
#
#
# Convention : Reuss Voigt Hill
#
# Bulk Modulus (GPa) = 49.11795 60.45062 54.78428
# Shear Modulus (GPa) = 20.06140 23.81698 21.93919
#
# Velocity S-wave (km/s) = 3.34987 3.64998 3.50314
# Velocity P-wave (km/s) = 6.51437 7.18172 6.85617
#
# Compressibility (1/GPa) = 0.02035916
#
# Stress axis : x y z
#
# Youngs Moduli (GPa) = 41.16285 70.67447 75.58155
#
# Poissons Ratio (x) = 0.68989 0.04673
# Poissons Ratio (y) = 0.40181 0.39888
# Poissons Ratio (z) = 0.02545 0.37299
#
# Static dielectric constant tensor:
#      x y z
#    x 3.114640 0.000000 0.000000 
#    y 0.000000 3.328110 0.000000 
#    z 0.000000 0.000000 3.555490 
# 
# 
# High freq. dielectric constant tensor:
#      x y z
#    x 1.664090 0.000000 0.000000 
#    y 0.000000 1.692970 0.000000 
#    z 0.000000 0.000000 1.693340 
# 
# From -- ./inp_files/51482.got.cif
#   From: 2010.03.12/outbox.cif.g09.slc.cpg/sg65_26_cif.got.tgz:51482.got - 2010.04.10 20:52:16.
