data_PCOD8266792
_publ_section_title
;
Structure prediction by ZEFSAII (Michael W. Deem and Ramdas Pophale) SiO2 
 PCOD8266792
Probable space group: C M M M
;
_chemical_formula_sum "Si O2"
_cell_formula_units_Z 72
_cell_length_a 19.936774
_cell_length_b 8.647245
_cell_length_c 22.895196
_cell_angle_alpha 90.000000
_cell_angle_beta 90.000000
_cell_angle_gamma 90.000000
_cell_volume 3947.089876
_symmetry_space_group_name_H-M "C M M M"
_symmetry_group_IT_number 65
_symmetry_cell_setting 'orthorhombic'
loop_
_space_group_symop_operation_xyz
x,y,z
-x,-y,z
x,-y,-z
-x,y,-z
-x,-y,-z
x,y,-z
-x,y,z
x,-y,z
1/2+x,1/2+y,z
1/2-x,1/2-y,z
1/2+x,1/2-y,-z
1/2-x,1/2+y,-z
1/2-x,1/2-y,-z
1/2+x,1/2+y,-z
1/2-x,1/2+y,z
1/2+x,1/2-y,z
loop_
_atom_site_type_symbol
_atom_site_label
_atom_site_fract_x
_atom_site_fract_y
_atom_site_fract_z
Si Si1 0.823546 0.818631 0.881685
Si Si2 0.422014 0.179880 0.790023
Si Si3 0.179137 0.683186 0.565798
Si Si4 0.175813 0.683289 0.000000
Si Si5 0.073741 0.316699 0.658038
O O1 0.750000 0.750000 0.868248
O O2 0.874402 0.784008 0.829569
O O3 0.857471 0.746492 0.940397
O O4 0.815068 0.000000 0.890139
O O5 0.500000 0.215187 0.803406
O O6 0.404290 0.227150 0.723592
O O7 0.406456 0.000000 0.801327
O O8 0.160793 0.736410 0.500000
O O9 0.182321 0.500000 0.570014
O O10 0.250000 0.750000 0.585498
O O11 0.124636 0.753347 0.610450
O O12 0.250000 0.750000 0.000000
O O13 0.174303 0.500000 0.000000
O O14 0.070966 0.500000 0.652421
O O15 0.000000 0.248160 0.644774
#
# Coordination Sequence:
#
# PCOD8266792 Si02
#       5
#    16  16  16   8  16
#     4  11  21  34  53  77 104 132 167 207 247 293
#     4   9  18  34  53  72  99 133 166 204 253 303
#     4   9  17  29  46  69  97 127 159 198 244 291
#     4  10  18  32  53  76 103 132 165 203 247 295
#     4   8  15  29  49  71  94 123 161 203 244 288
#
# _framework density 18.241285999999999
#
# number of rings (size 3 to 8) (size 9 to 14) (size 15 to 20)
#    0.000    2.667    0.000    5.667    0.000    1.778 
#    0.000    6.111    0.000    5.333    0.000    3.111 
#    0.000    0.000    0.000    0.000    0.000    0.000 
#
# Total GULP energy -446260.128779 kJ/mol
# GULP energy per Si atom -12396.114688 kJ/mol
# Density = 1.819977 g / cm^3
# Si number density = 18.241286 Si / 1000 Ang^3
#
#
#
# Elastic Constant Matrix: (Units=GPa)
#
#
# Indices 1 2 3 4 5 6 
#
# 1 99.8847 34.9519 88.7870 0.0000 0.0000 0.0000
# 2 34.9519 81.6530 39.3215 0.0000 0.0000 0.0000
# 3 88.7870 39.3215 146.2638 0.0000 0.0000 0.0000
# 4 0.0000 0.0000 0.0000 21.9749 0.0000 0.0000
# 5 0.0000 0.0000 0.0000 0.0000 22.2566 0.0000
# 6 0.0000 0.0000 0.0000 0.0000 0.0000 25.0692
#
#
#
# Elastic Compliance Matrix: (Units=1/GPa)
#
#
# Indices 1 2 3 4 5 6 
#
# 1 0.022594 -0.003523 -0.012768 0.000000 0.000000 0.000000
# 2 -0.003523 0.014618 -0.001791 0.000000 0.000000 0.000000
# 3 -0.012768 -0.001791 0.015069 0.000000 0.000000 0.000000
# 4 0.000000 0.000000 0.000000 0.045506 0.000000 0.000000
# 5 0.000000 0.000000 0.000000 0.000000 0.044931 0.000000
# 6 0.000000 0.000000 0.000000 0.000000 0.000000 0.039890
#
#
# Mechanical properties :
#
#
# Convention : Reuss Voigt Hill
#
# Bulk Modulus (GPa) = 62.04952 72.65803 67.35378
# Shear Modulus (GPa) = 22.30715 24.84288 23.57501
#
# Velocity S-wave (km/s) = 3.50078 3.69440 3.59889
# Velocity P-wave (km/s) = 7.10144 7.62340 7.36705
#
# Compressibility (1/GPa) = 0.01611616
#
# Stress axis : x y z
#
# Youngs Moduli (GPa) = 44.26013 68.41109 66.36035
#
# Poissons Ratio (x) = 0.24099 0.84730
# Poissons Ratio (y) = 0.15591 0.11888
# Poissons Ratio (z) = 0.56512 0.12255
#
# Static dielectric constant tensor:
#      x y z
#    x 3.407250 0.000000 0.000000 
#    y 0.000000 3.093510 0.000000 
#    z 0.000000 0.000000 3.852140 
# 
# 
# High freq. dielectric constant tensor:
#      x y z
#    x 1.692340 0.000000 0.000000 
#    y 0.000000 1.686450 0.000000 
#    z 0.000000 0.000000 1.720140 
# 
# From -- ./inp_files/56463.got.cif
#   From: 2010.03.12/outbox.cif.g09.slc.cpg/sg65_29_cif.got.tgz:56463.got - 2010.04.10 20:52:16.
