data_PCOD8266755
_publ_section_title
;
Structure prediction by ZEFSAII (Michael W. Deem and Ramdas Pophale) SiO2 
 PCOD8266755
Probable space group: C M M M
;
_chemical_formula_sum "Si O2"
_cell_formula_units_Z 104
_cell_length_a 8.747688
_cell_length_b 31.084240
_cell_length_c 21.933799
_cell_angle_alpha 90.000000
_cell_angle_beta 90.000000
_cell_angle_gamma 90.000000
_cell_volume 5964.134071
_symmetry_space_group_name_H-M "C M M M"
_symmetry_group_IT_number 65
_symmetry_cell_setting 'orthorhombic'
loop_
_space_group_symop_operation_xyz
x,y,z
-x,-y,z
x,-y,-z
-x,y,-z
-x,-y,-z
x,y,-z
-x,y,z
x,-y,z
1/2+x,1/2+y,z
1/2-x,1/2-y,z
1/2+x,1/2-y,-z
1/2-x,1/2+y,-z
1/2-x,1/2-y,-z
1/2+x,1/2+y,-z
1/2-x,1/2+y,z
1/2+x,1/2-y,z
loop_
_atom_site_type_symbol
_atom_site_label
_atom_site_fract_x
_atom_site_fract_y
_atom_site_fract_z
Si Si1 0.680890 0.797100 0.376985
Si Si2 0.177242 0.547267 0.291641
Si Si3 0.675864 0.365678 0.292686
Si Si4 0.172085 0.137142 0.851580
Si Si5 0.326843 0.545766 0.165453
Si Si6 0.822011 0.293622 0.068178
Si Si7 0.317666 0.297501 0.500000
O O1 0.500000 0.792617 0.384054
O O2 0.750000 0.750000 0.364151
O O3 0.721706 0.828233 0.321400
O O4 0.752826 0.818953 0.438176
O O5 0.222745 0.500000 0.319736
O O6 0.273309 0.587373 0.318810
O O7 0.205718 0.545110 0.219614
O O8 0.000000 0.556597 0.303822
O O9 0.500000 0.358169 0.310072
O O10 0.704065 0.362646 0.220464
O O11 0.201241 0.088060 0.876035
O O12 0.287388 0.167527 0.886683
O O13 0.000000 0.152436 0.865942
O O14 0.500000 0.550172 0.192928
O O15 0.312218 0.500000 0.129023
O O16 0.750000 0.250000 0.094713
O O17 0.000000 0.286478 0.065939
O O18 0.757953 0.303236 0.000000
O O19 0.500000 0.297973 0.500000
O O20 0.250000 0.250000 0.500000
#
# Coordination Sequence:
#
# PCOD8266755 Si02
#       7
#    16  16  16  16  16  16   8
#     4  11  21  34  51  72  99 131 166 202 241 284
#     4   9  16  26  42  66  95 126 160 197 237 281
#     4  10  20  33  48  71 101 131 163 197 240 288
#     4   9  18  31  49  72  97 124 154 192 236 281
#     4   8  14  26  44  66  93 124 155 186 224 274
#     4  10  21  36  53  70  88 115 154 197 238 283
#     4  10  18  32  52  72  95 126 165 204 240 280
#
# _framework density 17.437569
#
# number of rings (size 3 to 8) (size 9 to 14) (size 15 to 20)
#    0.000    2.462    0.000    5.308    0.000    5.538 
#    0.000    0.000    0.000    0.462    0.000    3.769 
#    0.000    4.308    0.000    0.000    0.000    0.000 
#
# Total GULP energy -644305.796506 kJ/mol
# GULP energy per Si atom -12390.496087 kJ/mol
# Density = 1.739788 g / cm^3
# Si number density = 17.437569 Si / 1000 Ang^3
#
#
#
# Elastic Constant Matrix: (Units=GPa)
#
#
# Indices 1 2 3 4 5 6 
#
# 1 96.5922 43.7286 25.3383 0.0000 0.0000 0.0000
# 2 43.7286 134.8657 41.9496 0.0000 0.0000 0.0000
# 3 25.3383 41.9496 43.2050 0.0000 0.0000 0.0000
# 4 0.0000 0.0000 0.0000 -0.0031 0.0000 0.0000
# 5 0.0000 0.0000 0.0000 0.0000 22.8955 0.0000
# 6 0.0000 0.0000 0.0000 0.0000 0.0000 30.2419
#
#
#
# Elastic Compliance Matrix: (Units=1/GPa)
#
#
# Indices 1 2 3 4 5 6 
#
# 1 0.012846 -0.002610 -0.004999 0.000000 0.000000 0.000000
# 2 -0.002610 0.011153 -0.009299 0.000000 0.000000 0.000000
# 3 -0.004999 -0.009299 0.035106 0.000000 0.000000 0.000000
# 4 0.000000 0.000000 0.000000********** 0.000000 0.000000
# 5 0.000000 0.000000 0.000000 0.000000 0.043677 0.000000
# 6 0.000000 0.000000 0.000000 0.000000 0.000000 0.033067
#
#
# Mechanical properties :
#
#
# Convention : Reuss Voigt Hill
#
# Bulk Modulus (GPa) = 39.54300 55.18845 47.36572
# Shear Modulus (GPa) = -0.01569 21.53660 10.76045
#
# Velocity S-wave (km/s) = -0.09496 3.51817 2.48681
# Velocity P-wave (km/s) = 4.76593 6.94415 5.95547
#
# Compressibility (1/GPa) = 0.02528893
#
# Stress axis : x y z
#
# Youngs Moduli (GPa) = 77.84590 89.65904 28.48523
#
# Poissons Ratio (x) = 0.23401 0.14241
# Poissons Ratio (y) = 0.20318 0.26487
# Poissons Ratio (z) = 0.38919 0.83370
#
# Static dielectric constant tensor:
#      x y z
#    x 3.270580 0.000000 0.000000 
#    y 0.000000 3.548990 0.000000 
#    z 0.000000 0.000000 3.042980 
# 
# 
# High freq. dielectric constant tensor:
#      x y z
#    x 1.684910 0.000000 0.000000 
#    y 0.000000 1.684800 0.000000 
#    z 0.000000 0.000000 1.620050 
# 
# From -- ./inp_files/68467.got.cif
#   From: 2010.03.12/outbox.cif.g09.slc.cpg/sg65_35_cif.got.tgz:68467.got - 2010.04.10 20:52:16.
