data_PCOD8266313
_publ_section_title
;
Structure prediction by ZEFSAII (Michael W. Deem and Ramdas Pophale) SiO2 
 PCOD8266313
Probable space group: C M M M
;
_chemical_formula_sum "Si O2"
_cell_formula_units_Z 80
_cell_length_a 18.304785
_cell_length_b 7.986477
_cell_length_c 27.818670
_cell_angle_alpha 90.000000
_cell_angle_beta 90.000000
_cell_angle_gamma 90.000000
_cell_volume 4066.832075
_symmetry_space_group_name_H-M "C M M M"
_symmetry_group_IT_number 65
_symmetry_cell_setting 'orthorhombic'
loop_
_space_group_symop_operation_xyz
x,y,z
-x,-y,z
x,-y,-z
-x,y,-z
-x,-y,-z
x,y,-z
-x,y,z
x,-y,z
1/2+x,1/2+y,z
1/2-x,1/2-y,z
1/2+x,1/2-y,-z
1/2-x,1/2+y,-z
1/2-x,1/2-y,-z
1/2+x,1/2+y,-z
1/2-x,1/2+y,z
1/2+x,1/2-y,z
loop_
_atom_site_type_symbol
_atom_site_label
_atom_site_fract_x
_atom_site_fract_y
_atom_site_fract_z
Si Si1 0.666864 0.803861 0.784435
Si Si2 0.333282 0.304655 0.500000
Si Si3 0.413891 0.192850 0.880757
Si Si4 0.586522 0.500000 0.053642
Si Si5 0.582450 0.799624 0.692353
Si Si6 0.833279 0.694142 0.601034
O O1 0.750000 0.750000 0.786500
O O2 0.625692 0.746212 0.832439
O O3 0.626880 0.725661 0.737894
O O4 0.661620 0.000000 0.779951
O O5 0.339998 0.500000 0.500000
O O6 0.250000 0.250000 0.500000
O O7 0.369730 0.237356 0.549198
O O8 0.500000 0.204487 0.871756
O O9 0.387692 0.327190 0.920756
O O10 0.392834 0.000000 0.895300
O O11 0.500000 0.500000 0.051402
O O12 0.620015 0.500000 0.000000
O O13 0.500000 0.731683 0.694925
O O14 0.619775 0.724447 0.644066
O O15 0.582974 0.000000 0.692378
O O16 0.835671 0.500000 0.608882
O O17 0.750000 0.750000 0.603951
#
# Coordination Sequence:
#
# PCOD8266313 Si02
#       6
#    16   8  16   8  16  16
#     4  10  20  33  53  79 104 138 173 215 262 317
#     4  10  18  30  49  70  97 129 165 209 255 302
#     4   9  18  33  54  80 110 146 184 224 270 319
#     4   9  18  32  54  84 114 144 181 228 274 316
#     4   9  18  33  52  74 102 134 170 211 258 311
#     4  10  18  30  51  75  99 129 166 212 255 307
#
# _framework density 19.671330999999999
#
# number of rings (size 3 to 8) (size 9 to 14) (size 15 to 20)
#    0.000    2.500    0.000    3.900    1.400    2.800 
#    0.000    3.500    0.000    8.400    0.000    0.000 
#    0.000    0.000    0.000    0.000    0.000    0.000 
#
# Total GULP energy -495762.098981 kJ/mol
# GULP energy per Si atom -12394.052475 kJ/mol
# Density = 1.962656 g / cm^3
# Si number density = 19.671331 Si / 1000 Ang^3
#
#
#
# Elastic Constant Matrix: (Units=GPa)
#
#
# Indices 1 2 3 4 5 6 
#
# 1 85.4751 20.6678 69.4479 0.0000 0.0000 0.0000
# 2 20.6678 59.8529 55.5131 0.0000 0.0000 0.0000
# 3 69.4479 55.5131 211.3772 0.0000 0.0000 0.0000
# 4 0.0000 0.0000 0.0000 21.8609 0.0000 0.0000
# 5 0.0000 0.0000 0.0000 0.0000 28.0384 0.0000
# 6 0.0000 0.0000 0.0000 0.0000 0.0000 18.9928
#
#
#
# Elastic Compliance Matrix: (Units=1/GPa)
#
#
# Indices 1 2 3 4 5 6 
#
# 1 0.015993 -0.000858 -0.005029 0.000000 0.000000 0.000000
# 2 -0.000858 0.022134 -0.005531 0.000000 0.000000 0.000000
# 3 -0.005029 -0.005531 0.007836 0.000000 0.000000 0.000000
# 4 0.000000 0.000000 0.000000 0.045744 0.000000 0.000000
# 5 0.000000 0.000000 0.000000 0.000000 0.035665 0.000000
# 6 0.000000 0.000000 0.000000 0.000000 0.000000 0.052652
#
#
# Mechanical properties :
#
#
# Convention : Reuss Voigt Hill
#
# Bulk Modulus (GPa) = 43.24094 71.99588 57.61841
# Shear Modulus (GPa) = 23.74523 27.85015 25.79769
#
# Velocity S-wave (km/s) = 3.47810 3.76676 3.62530
# Velocity P-wave (km/s) = 6.17730 7.45633 6.84674
#
# Compressibility (1/GPa) = 0.02312623
#
# Stress axis : x y z
#
# Youngs Moduli (GPa) = 62.52763 45.17951 127.61954
#
# Poissons Ratio (x) = 0.03877 0.64182
# Poissons Ratio (y) = 0.05365 0.70587
# Poissons Ratio (z) = 0.31446 0.24989
#
# Static dielectric constant tensor:
#      x y z
#    x 3.210720 0.000000 0.000000 
#    y 0.000000 3.504860 0.000000 
#    z 0.000000 0.000000 4.132050 
# 
# 
# High freq. dielectric constant tensor:
#      x y z
#    x 1.737070 0.000000 0.000000 
#    y 0.000000 1.756580 0.000000 
#    z 0.000000 0.000000 1.780570 
# 
# From -- ./inp_files/70865.got.cif
#   From: 2010.03.12/outbox.cif.g09.slc.cpg/sg65_36_cif.got.tgz:70865.got - 2010.04.10 20:52:16.
