data_PCOD8266589
_publ_section_title
;
Structure prediction by ZEFSAII (Michael W. Deem and Ramdas Pophale) SiO2 
 PCOD8266589
Probable space group: C M M M
;
_chemical_formula_sum "Si O2"
_cell_formula_units_Z 104
_cell_length_a 8.804130
_cell_length_b 25.775576
_cell_length_c 25.995155
_cell_angle_alpha 90.000000
_cell_angle_beta 90.000000
_cell_angle_gamma 90.000000
_cell_volume 5899.120087
_symmetry_space_group_name_H-M "C M M M"
_symmetry_group_IT_number 65
_symmetry_cell_setting 'orthorhombic'
loop_
_space_group_symop_operation_xyz
x,y,z
-x,-y,z
x,-y,-z
-x,y,-z
-x,-y,-z
x,y,-z
-x,y,z
x,-y,z
1/2+x,1/2+y,z
1/2-x,1/2-y,z
1/2+x,1/2-y,-z
1/2-x,1/2+y,-z
1/2-x,1/2-y,-z
1/2+x,1/2+y,-z
1/2-x,1/2+y,z
1/2+x,1/2-y,z
loop_
_atom_site_type_symbol
_atom_site_label
_atom_site_fract_x
_atom_site_fract_y
_atom_site_fract_z
Si Si1 0.819660 0.500000 0.215098
Si Si2 0.819828 0.599788 0.155461
Si Si3 0.820175 0.695361 0.337900
Si Si4 0.179168 0.057887 0.500000
Si Si5 0.821680 0.059067 0.942084
Si Si6 0.821460 0.696435 0.219987
Si Si7 0.319520 0.596940 0.609523
Si Si8 0.180857 0.500000 0.332338
O O1 0.754160 0.550623 0.186600
O O2 0.764302 0.500000 0.273545
O O3 0.000000 0.500000 0.212727
O O4 0.762354 0.597786 0.096862
O O5 0.757013 0.651215 0.183357
O O6 0.000000 0.599700 0.155921
O O7 0.750000 0.750000 0.355482
O O8 0.776034 0.683789 0.278733
O O9 0.746195 0.651684 0.373087
O O10 0.000000 0.696233 0.346036
O O11 0.231484 0.089127 0.449588
O O12 0.000000 0.051686 0.500000
O O13 0.251799 0.000000 0.500000
O O14 0.000000 0.063151 0.933206
O O15 0.766665 0.000000 0.932633
O O16 0.779035 0.076184 0.000000
O O17 0.750000 0.750000 0.200929
O O18 0.000000 0.701605 0.214800
O O19 0.500000 0.595833 0.616209
O O20 0.247521 0.551274 0.642574
O O21 0.000000 0.500000 0.337481
#
# Coordination Sequence:
#
# PCOD8266589 Si02
#       8
#     8  16  16   8  16  16  16   8
#     4   9  18  31  47  71 105 137 161 200 259 312
#     4  10  18  31  51  74 100 132 170 210 251 302
#     4  10  20  37  58  81 109 141 176 217 265 316
#     4   9  18  36  57  76 105 142 177 219 266 310
#     4   9  18  32  48  69 101 137 169 206 256 307
#     4   9  19  34  53  76 104 138 174 210 254 306
#     4  11  21  36  57  80 105 139 180 220 265 316
#     4  11  21  34  52  76 109 144 175 212 263 318
#
# _framework density 17.629749
#
# number of rings (size 3 to 8) (size 9 to 14) (size 15 to 20)
#    0.000    2.231    1.538    2.538    0.000    4.000 
#    0.000    6.154    0.000    0.462    0.000    0.000 
#    0.000    0.000    0.000    0.000    0.000    0.000 
#
# Total GULP energy -644843.825333 kJ/mol
# GULP energy per Si atom -12400.842795 kJ/mol
# Density = 1.758962 g / cm^3
# Si number density = 17.629749 Si / 1000 Ang^3
#
#
#
# Elastic Constant Matrix: (Units=GPa)
#
#
# Indices 1 2 3 4 5 6 
#
# 1 48.1594 40.9534 37.5008 0.0000 0.0000 0.0000
# 2 40.9534 157.8996 89.7249 0.0000 0.0000 0.0000
# 3 37.5008 89.7249 142.0859 0.0000 0.0000 0.0000
# 4 0.0000 0.0000 0.0000 52.0041 0.0000 0.0000
# 5 0.0000 0.0000 0.0000 0.0000 25.9651 0.0000
# 6 0.0000 0.0000 0.0000 0.0000 0.0000 31.6974
#
#
#
# Elastic Compliance Matrix: (Units=1/GPa)
#
#
# Indices 1 2 3 4 5 6 
#
# 1 0.028317 -0.004831 -0.004423 0.000000 0.000000 0.000000
# 2 -0.004831 0.010702 -0.005483 0.000000 0.000000 0.000000
# 3 -0.004423 -0.005483 0.011668 0.000000 0.000000 0.000000
# 4 0.000000 0.000000 0.000000 0.019229 0.000000 0.000000
# 5 0.000000 0.000000 0.000000 0.000000 0.038513 0.000000
# 6 0.000000 0.000000 0.000000 0.000000 0.000000 0.031548
#
#
# Mechanical properties :
#
#
# Convention : Reuss Voigt Hill
#
# Bulk Modulus (GPa) = 47.14240 76.05592 61.59916
# Shear Modulus (GPa) = 28.32520 33.93105 31.12812
#
# Velocity S-wave (km/s) = 4.01268 4.39184 4.20653
# Velocity P-wave (km/s) = 6.94745 8.30373 7.65569
#
# Compressibility (1/GPa) = 0.02121233
#
# Stress axis : x y z
#
# Youngs Moduli (GPa) = 35.31506 93.44271 85.70657
#
# Poissons Ratio (x) = 0.45142 0.37907
# Poissons Ratio (y) = 0.17061 0.46992
# Poissons Ratio (z) = 0.15619 0.51234
#
# Static dielectric constant tensor:
#      x y z
#    x 3.108900 0.000000 0.000000 
#    y 0.000000 3.456740 0.000000 
#    z 0.000000 0.000000 3.438660 
# 
# 
# High freq. dielectric constant tensor:
#      x y z
#    x 1.670690 0.000000 0.000000 
#    y 0.000000 1.677750 0.000000 
#    z 0.000000 0.000000 1.683870 
# 
# From -- ./inp_files/68314.got.cif
#   From: 2010.03.12/outbox.cif.g09.slc.cpg/sg65_35_cif.got.tgz:68314.got - 2010.04.10 20:52:16.
