data_PCOD8266915
_publ_section_title
;
Structure prediction by ZEFSAII (Michael W. Deem and Ramdas Pophale) SiO2 
 PCOD8266915
Probable space group: C M M M
;
_chemical_formula_sum "Si O2"
_cell_formula_units_Z 120
_cell_length_a 18.340783
_cell_length_b 20.402461
_cell_length_c 18.884386
_cell_angle_alpha 90.000000
_cell_angle_beta 90.000000
_cell_angle_gamma 90.000000
_cell_volume 7066.482663
_symmetry_space_group_name_H-M "C M M M"
_symmetry_group_IT_number 65
_symmetry_cell_setting 'orthorhombic'
loop_
_space_group_symop_operation_xyz
x,y,z
-x,-y,z
x,-y,-z
-x,y,-z
-x,-y,-z
x,y,-z
-x,y,z
x,-y,z
1/2+x,1/2+y,z
1/2-x,1/2-y,z
1/2+x,1/2-y,-z
1/2-x,1/2+y,-z
1/2-x,1/2-y,-z
1/2+x,1/2+y,-z
1/2-x,1/2+y,z
1/2+x,1/2-y,z
loop_
_atom_site_type_symbol
_atom_site_label
_atom_site_fract_x
_atom_site_fract_y
_atom_site_fract_z
Si Si1 0.842989 0.620167 0.348593
Si Si2 0.415482 0.243069 0.418291
Si Si3 0.185185 0.574774 0.195791
Si Si4 0.916442 0.227825 0.918613
Si Si5 0.584042 0.120689 0.079546
Si Si6 0.297935 0.685492 0.184501
Si Si7 0.418884 0.000000 0.417263
Si Si8 0.799134 0.812940 0.345103
O O1 0.889310 0.684695 0.367287
O O2 0.853081 0.605121 0.265539
O O3 0.873480 0.562871 0.396098
O O4 0.755547 0.626905 0.363486
O O5 0.401004 0.224579 0.500000
O O6 0.500000 0.257968 0.404732
O O7 0.369238 0.308355 0.397029
O O8 0.210644 0.500000 0.210178
O O9 0.126528 0.574149 0.133199
O O10 0.252783 0.619195 0.171129
O O11 0.904393 0.303685 0.899223
O O12 0.866047 0.183584 0.868545
O O13 0.000000 0.207618 0.905343
O O14 0.894892 0.214895 0.000000
O O15 0.500000 0.101348 0.083996
O O16 0.613121 0.108535 0.000000
O O17 0.250000 0.750000 0.169667
O O18 0.327703 0.684795 0.264651
O O19 0.500000 0.000000 0.382250
O O20 0.428687 0.000000 0.500000
O O21 0.750000 0.750000 0.357863
#
# Coordination Sequence:
#
# PCOD8266915 Si02
#       8
#    16  16  16  16  16  16   8  16
#     4  10  20  36  50  70 103 141 173 204 250 307
#     4  10  20  33  51  78 107 131 163 214 264 305
#     4  11  22  36  52  74 105 141 176 216 258 303
#     4   9  18  32  52  79 106 133 169 215 265 314
#     4   9  19  34  50  73 106 140 174 210 250 304
#     4  10  18  33  53  77 101 132 175 220 259 301
#     4  11  22  34  50  74 102 134 176 215 244 290
#     4   8  18  32  49  71  99 132 168 207 254 307
#
# _framework density 16.981574999999999
#
# number of rings (size 3 to 8) (size 9 to 14) (size 15 to 20)
#    0.000    2.333    2.000    2.400    0.000    6.933 
#    0.000    0.667    0.000    0.400    0.000    1.400 
#    0.000    1.600    0.000    0.000    0.000    0.000 
#
# Total GULP energy -743832.737249 kJ/mol
# GULP energy per Si atom -12397.212287 kJ/mol
# Density = 1.694292 g / cm^3
# Si number density = 16.981575 Si / 1000 Ang^3
#
#
#
# Elastic Constant Matrix: (Units=GPa)
#
#
# Indices 1 2 3 4 5 6 
#
# 1 103.5150 48.2426 63.1100 0.0000 0.0000 0.0000
# 2 48.2426 69.5671 36.2013 0.0000 0.0000 0.0000
# 3 63.1100 36.2013 88.4412 0.0000 0.0000 0.0000
# 4 0.0000 0.0000 0.0000 24.2910 0.0000 0.0000
# 5 0.0000 0.0000 0.0000 0.0000 33.2376 0.0000
# 6 0.0000 0.0000 0.0000 0.0000 0.0000 28.7363
#
#
#
# Elastic Compliance Matrix: (Units=1/GPa)
#
#
# Indices 1 2 3 4 5 6 
#
# 1 0.020281 -0.008301 -0.011074 0.000000 0.000000 0.000000
# 2 -0.008301 0.021663 -0.002944 0.000000 0.000000 0.000000
# 3 -0.011074 -0.002944 0.020414 0.000000 0.000000 0.000000
# 4 0.000000 0.000000 0.000000 0.041168 0.000000 0.000000
# 5 0.000000 0.000000 0.000000 0.000000 0.030086 0.000000
# 6 0.000000 0.000000 0.000000 0.000000 0.000000 0.034799
#
#
# Mechanical properties :
#
#
# Convention : Reuss Voigt Hill
#
# Bulk Modulus (GPa) = 56.43340 61.84790 59.14065
# Shear Modulus (GPa) = 22.83570 24.85093 23.84332
#
# Velocity S-wave (km/s) = 3.67104 3.82960 3.75116
# Velocity P-wave (km/s) = 7.16052 7.48693 7.32554
#
# Compressibility (1/GPa) = 0.01772000
#
# Stress axis : x y z
#
# Youngs Moduli (GPa) = 49.30802 46.16140 48.98601
#
# Poissons Ratio (x) = 0.38320 0.54247
# Poissons Ratio (y) = 0.40932 0.14420
# Poissons Ratio (z) = 0.54603 0.13588
#
# Static dielectric constant tensor:
#      x y z
#    x 3.310790 0.000000 0.000000 
#    y 0.000000 3.109610 0.000000 
#    z 0.000000 0.000000 3.239420 
# 
# 
# High freq. dielectric constant tensor:
#      x y z
#    x 1.647300 0.000000 0.000000 
#    y 0.000000 1.624270 0.000000 
#    z 0.000000 0.000000 1.664220 
# 
# From -- ./inp_files/54946.got.cif
#   From: 2010.03.12/outbox.cif.g09.slc.cpg/sg65_28_cif.got.tgz:54946.got - 2010.04.10 20:52:16.
