data_PCOD8266798
_publ_section_title
;
Structure prediction by ZEFSAII (Michael W. Deem and Ramdas Pophale) SiO2 
 PCOD8266798
Probable space group: C M M M
;
_chemical_formula_sum "Si O2"
_cell_formula_units_Z 80
_cell_length_a 8.726149
_cell_length_b 18.545321
_cell_length_c 25.988936
_cell_angle_alpha 90.000000
_cell_angle_beta 90.000000
_cell_angle_gamma 90.000000
_cell_volume 4205.769613
_symmetry_space_group_name_H-M "C M M M"
_symmetry_group_IT_number 65
_symmetry_cell_setting 'orthorhombic'
loop_
_space_group_symop_operation_xyz
x,y,z
-x,-y,z
x,-y,-z
-x,y,-z
-x,-y,-z
x,y,-z
-x,y,z
x,-y,z
1/2+x,1/2+y,z
1/2-x,1/2-y,z
1/2+x,1/2-y,-z
1/2-x,1/2+y,-z
1/2-x,1/2-y,-z
1/2+x,1/2+y,-z
1/2-x,1/2+y,z
1/2+x,1/2-y,z
loop_
_atom_site_type_symbol
_atom_site_label
_atom_site_fract_x
_atom_site_fract_y
_atom_site_fract_z
Si Si1 0.180661 0.917369 0.401763
Si Si2 0.324960 0.414703 0.193250
Si Si3 0.181721 0.171212 0.500000
Si Si4 0.827590 0.585703 0.297225
Si Si5 0.680324 0.828592 0.103300
Si Si6 0.317736 0.670224 0.000000
O O1 0.240887 0.871119 0.449802
O O2 0.257180 0.884753 0.350370
O O3 0.000000 0.911431 0.394926
O O4 0.230105 0.000000 0.411249
O O5 0.500000 0.390959 0.184231
O O6 0.304977 0.500000 0.189241
O O7 0.272370 0.386339 0.249207
O O8 0.215947 0.379501 0.151084
O O9 0.250000 0.250000 0.500000
O O10 0.000000 0.175222 0.500000
O O11 0.823213 0.500000 0.298526
O O12 0.000000 0.614897 0.291228
O O13 0.500000 0.821093 0.095429
O O14 0.750000 0.750000 0.113572
O O15 0.754343 0.866204 0.052306
O O16 0.250000 0.750000 0.000000
O O17 0.500000 0.669382 0.000000
#
# Coordination Sequence:
#
# PCOD8266798 Si02
#       6
#    16  16   8  16  16   8
#     4   9  17  32  54  76  97 127 170 213 249 293
#     4  10  20  35  55  79 108 141 175 213 261 314
#     4  10  21  35  51  73 103 136 166 202 252 306
#     4   9  17  30  50  77 105 132 166 210 258 305
#     4  11  21  35  55  79 107 138 176 219 263 311
#     4  10  18  32  53  76 103 136 177 219 261 309
#
# _framework density 19.021488999999999
#
# number of rings (size 3 to 8) (size 9 to 14) (size 15 to 20)
#    0.000    2.200    0.000    5.400    0.000    5.600 
#    0.000    1.500    0.000    8.400    0.000    0.000 
#    0.000    0.000    0.000    0.000    0.000    0.000 
#
# Total GULP energy -496003.647904 kJ/mol
# GULP energy per Si atom -12400.091198 kJ/mol
# Density = 1.897819 g / cm^3
# Si number density = 19.021489 Si / 1000 Ang^3
#
#
#
# Elastic Constant Matrix: (Units=GPa)
#
#
# Indices 1 2 3 4 5 6 
#
# 1 119.2313 27.9628 58.1999 0.0000 0.0000 0.0000
# 2 27.9628 46.8099 46.2191 0.0000 0.0000 0.0000
# 3 58.1999 46.2191 177.4267 0.0000 0.0000 0.0000
# 4 0.0000 0.0000 0.0000 3.5841 0.0000 0.0000
# 5 0.0000 0.0000 0.0000 0.0000 35.8726 0.0000
# 6 0.0000 0.0000 0.0000 0.0000 0.0000 24.4012
#
#
#
# Elastic Compliance Matrix: (Units=1/GPa)
#
#
# Indices 1 2 3 4 5 6 
#
# 1 0.010479 -0.003858 -0.002432 0.000000 0.000000 0.000000
# 2 -0.003858 0.030181 -0.006596 0.000000 0.000000 0.000000
# 3 -0.002432 -0.006596 0.008152 0.000000 0.000000 0.000000
# 4 0.000000 0.000000 0.000000 0.279008 0.000000 0.000000
# 5 0.000000 0.000000 0.000000 0.000000 0.027876 0.000000
# 6 0.000000 0.000000 0.000000 0.000000 0.000000 0.040982
#
#
# Mechanical properties :
#
#
# Convention : Reuss Voigt Hill
#
# Bulk Modulus (GPa) = 43.40585 67.58126 55.49356
# Shear Modulus (GPa) = 11.62434 26.84401 19.23418
#
# Velocity S-wave (km/s) = 2.47476 3.76073 3.18336
# Velocity P-wave (km/s) = 5.57089 7.37994 6.53828
#
# Compressibility (1/GPa) = 0.02303837
#
# Stress axis : x y z
#
# Youngs Moduli (GPa) = 95.42690 33.13343 122.66422
#
# Poissons Ratio (x) = 0.12784 0.29836
# Poissons Ratio (y) = 0.36819 0.80915
# Poissons Ratio (z) = 0.23211 0.21856
#
# Static dielectric constant tensor:
#      x y z
#    x 3.535690 0.000000 0.000000 
#    y 0.000000 3.511070 0.000000 
#    z 0.000000 0.000000 4.007590 
# 
# 
# High freq. dielectric constant tensor:
#      x y z
#    x 1.748050 0.000000 0.000000 
#    y 0.000000 1.692220 0.000000 
#    z 0.000000 0.000000 1.762920 
# 
# From -- ./inp_files/67357.got.cif
#   From: 2010.03.12/outbox.cif.g09.slc.cpg/sg65_34_cif.got.tgz:67357.got - 2010.04.10 20:52:16.
