data_PCOD8266850
_publ_section_title
;
Structure prediction by ZEFSAII (Michael W. Deem and Ramdas Pophale) SiO2 
 PCOD8266850
Probable space group: C M M M
;
_chemical_formula_sum "Si O2"
_cell_formula_units_Z 104
_cell_length_a 34.936904
_cell_length_b 8.828654
_cell_length_c 17.967877
_cell_angle_alpha 90.000000
_cell_angle_beta 90.000000
_cell_angle_gamma 90.000000
_cell_volume 5542.116865
_symmetry_space_group_name_H-M "C M M M"
_symmetry_group_IT_number 65
_symmetry_cell_setting 'orthorhombic'
loop_
_space_group_symop_operation_xyz
x,y,z
-x,-y,z
x,-y,-z
-x,y,-z
-x,-y,-z
x,y,-z
-x,y,z
x,-y,z
1/2+x,1/2+y,z
1/2-x,1/2-y,z
1/2+x,1/2-y,-z
1/2-x,1/2+y,-z
1/2-x,1/2-y,-z
1/2+x,1/2+y,-z
1/2-x,1/2+y,z
1/2+x,1/2-y,z
loop_
_atom_site_type_symbol
_atom_site_label
_atom_site_fract_x
_atom_site_fract_y
_atom_site_fract_z
Si Si1 0.157024 0.670704 0.728356
Si Si2 0.882117 0.322725 0.417194
Si Si3 0.208231 0.819763 0.151145
Si Si4 0.542940 0.322719 0.640958
Si Si5 0.792363 0.682144 0.000000
Si Si6 0.571911 0.832207 0.219289
Si Si7 0.955753 0.169692 0.916432
O O1 0.174293 0.500000 0.726128
O O2 0.149000 0.734818 0.643994
O O3 0.184917 0.780414 0.773970
O O4 0.116765 0.671177 0.768707
O O5 0.866589 0.285750 0.500000
O O6 0.887576 0.500000 0.403271
O O7 0.924547 0.254354 0.409124
O O8 0.250000 0.750000 0.161874
O O9 0.188502 0.746085 0.076597
O O10 0.210545 0.000000 0.141656
O O11 0.500000 0.272636 0.616057
O O12 0.547712 0.500000 0.631356
O O13 0.549051 0.281205 0.727230
O O14 0.750000 0.750000 0.000000
O O15 0.792746 0.500000 0.000000
O O16 0.566987 0.784991 0.134485
O O17 0.555403 0.000000 0.232620
O O18 0.000000 0.172622 0.894914
O O19 0.939613 0.000000 0.906227
O O20 0.949308 0.226239 0.000000
#
# Coordination Sequence:
#
# PCOD8266850 Si02
#       7
#    16  16  16  16   8  16  16
#     4   9  19  36  54  76 106 138 172 212 261 315
#     4   9  19  36  57  79 105 139 176 217 267 319
#     4  11  21  35  57  84 112 143 179 215 256 307
#     4  10  20  32  48  72 102 136 173 216 265 315
#     4  10  18  32  54  80 112 144 173 208 251 298
#     4  10  20  33  50  71  97 130 170 216 265 313
#     4   9  18  32  48  66  92 129 171 216 265 312
#
# _framework density 18.765394000000001
#
# number of rings (size 3 to 8) (size 9 to 14) (size 15 to 20)
#    0.000    2.308    0.000    5.769    0.000    7.385 
#    1.385    2.308    0.000    0.462    0.000    0.000 
#    0.000    0.000    0.000    0.000    0.000    0.000 
#
# Total GULP energy -644516.562586 kJ/mol
# GULP energy per Si atom -12394.549280 kJ/mol
# Density = 1.872268 g / cm^3
# Si number density = 18.765394 Si / 1000 Ang^3
#
#
#
# Elastic Constant Matrix: (Units=GPa)
#
#
# Indices 1 2 3 4 5 6 
#
# 1 45.5284 35.1659 48.9568 0.0000 0.0000 0.0000
# 2 35.1659 89.6419 47.4417 0.0000 0.0000 0.0000
# 3 48.9568 47.4417 145.7646 0.0000 0.0000 0.0000
# 4 0.0000 0.0000 0.0000 28.7458 0.0000 0.0000
# 5 0.0000 0.0000 0.0000 0.0000 19.8290 0.0000
# 6 0.0000 0.0000 0.0000 0.0000 0.0000 26.6779
#
#
#
# Elastic Compliance Matrix: (Units=1/GPa)
#
#
# Indices 1 2 3 4 5 6 
#
# 1 0.041492 -0.010754 -0.010435 0.000000 0.000000 0.000000
# 2 -0.010754 0.016264 -0.001682 0.000000 0.000000 0.000000
# 3 -0.010435 -0.001682 0.010913 0.000000 0.000000 0.000000
# 4 0.000000 0.000000 0.000000 0.034788 0.000000 0.000000
# 5 0.000000 0.000000 0.000000 0.000000 0.050431 0.000000
# 6 0.000000 0.000000 0.000000 0.000000 0.000000 0.037484
#
#
# Mechanical properties :
#
#
# Convention : Reuss Voigt Hill
#
# Bulk Modulus (GPa) = 43.61788 60.45152 52.03470
# Shear Modulus (GPa) = 20.42843 25.00856 22.71850
#
# Velocity S-wave (km/s) = 3.30301 3.65457 3.48323
# Velocity P-wave (km/s) = 6.15148 7.07758 6.63072
#
# Compressibility (1/GPa) = 0.02292638
#
# Stress axis : x y z
#
# Youngs Moduli (GPa) = 24.10095 61.48451 91.63773
#
# Poissons Ratio (x) = 0.66122 0.95628
# Poissons Ratio (y) = 0.25919 0.15409
# Poissons Ratio (z) = 0.25150 0.10339
#
# Static dielectric constant tensor:
#      x y z
#    x 3.151000 0.000000 0.000000 
#    y 0.000000 3.477770 0.000000 
#    z 0.000000 0.000000 3.821290 
# 
# 
# High freq. dielectric constant tensor:
#      x y z
#    x 1.693300 0.000000 0.000000 
#    y 0.000000 1.730840 0.000000 
#    z 0.000000 0.000000 1.737560 
# 
# From -- ./inp_files/66386.got.cif
#   From: 2010.03.12/outbox.cif.g09.slc.cpg/sg65_34_cif.got.tgz:66386.got - 2010.04.10 20:52:16.
