data_PCOD8266882
_publ_section_title
;
Structure prediction by ZEFSAII (Michael W. Deem and Ramdas Pophale) SiO2 
 PCOD8266882
Probable space group: C M M M
;
_chemical_formula_sum "Si O2"
_cell_formula_units_Z 96
_cell_length_a 14.055128
_cell_length_b 23.363842
_cell_length_c 14.115544
_cell_angle_alpha 90.000000
_cell_angle_beta 90.000000
_cell_angle_gamma 90.000000
_cell_volume 4635.287604
_symmetry_space_group_name_H-M "C M M M"
_symmetry_group_IT_number 65
_symmetry_cell_setting 'orthorhombic'
loop_
_space_group_symop_operation_xyz
x,y,z
-x,-y,z
x,-y,-z
-x,y,-z
-x,-y,-z
x,y,-z
-x,y,z
x,-y,z
1/2+x,1/2+y,z
1/2-x,1/2-y,z
1/2+x,1/2-y,-z
1/2-x,1/2+y,-z
1/2-x,1/2-y,-z
1/2+x,1/2+y,-z
1/2-x,1/2+y,z
1/2+x,1/2-y,z
loop_
_atom_site_type_symbol
_atom_site_label
_atom_site_fract_x
_atom_site_fract_y
_atom_site_fract_z
Si Si1 0.890823 0.227412 0.189255
Si Si2 0.232374 0.934758 0.000000
Si Si3 0.386867 0.833040 0.302576
Si Si4 0.886646 0.825784 0.000000
Si Si5 0.387442 0.653416 0.500000
Si Si6 0.886413 0.282342 0.500000
Si Si7 0.284279 0.935585 0.792446
Si Si8 0.391855 0.613426 0.300361
O O1 0.843410 0.285322 0.230356
O O2 0.843202 0.206878 0.091127
O O3 0.881630 0.178703 0.267654
O O4 0.000000 0.241091 0.167563
O O5 0.295351 0.923967 0.905317
O O6 0.143848 0.891854 0.000000
O O7 0.193274 0.000000 0.000000
O O8 0.500000 0.832689 0.299535
O O9 0.350951 0.817860 0.408220
O O10 0.350056 0.894393 0.269579
O O11 0.000000 0.827128 0.000000
O O12 0.500000 0.662404 0.500000
O O13 0.342328 0.717727 0.500000
O O14 0.357492 0.615475 0.409334
O O15 0.000000 0.277946 0.500000
O O16 0.174209 0.927952 0.761636
O O17 0.316443 0.000000 0.769069
O O18 0.500000 0.591246 0.288791
#
# Coordination Sequence:
#
# PCOD8266882 Si02
#       8
#    16   8  16   8   8   8  16  16
#     4   9  17  31  54  85 119 147 177 229 292 348
#     4  10  22  40  56  77 113 155 201 244 275 331
#     4  10  21  39  62  87 117 151 189 239 296 344
#     4  10  18  32  55  88 123 151 189 240 290 345
#     4   9  16  31  57  88 123 157 190 226 274 351
#     4   9  16  33  61  90 117 145 186 238 288 347
#     4  11  25  42  59  82 113 153 204 246 280 338
#     4  10  19  35  58  86 121 154 185 232 289 342
#
# _framework density 20.710688000000001
#
# number of rings (size 3 to 8) (size 9 to 14) (size 15 to 20)
#    0.000    2.167    3.333    0.000    0.000    2.833 
#    0.000    6.250    0.000    4.500    0.000    0.000 
#    0.000    0.000    0.000    0.000    0.000    0.000 
#
# Total GULP energy -595075.830443 kJ/mol
# GULP energy per Si atom -12397.413134 kJ/mol
# Density = 2.066355 g / cm^3
# Si number density = 20.710688 Si / 1000 Ang^3
#
#
#
# Elastic Constant Matrix: (Units=GPa)
#
#
# Indices 1 2 3 4 5 6 
#
# 1 18.2869 14.7547 18.4453 0.0000 0.0000 0.0000
# 2 14.7547 112.1638 57.1534 0.0000 0.0000 0.0000
# 3 18.4453 57.1534 164.4895 0.0000 0.0000 0.0000
# 4 0.0000 0.0000 0.0000 25.3697 0.0000 0.0000
# 5 0.0000 0.0000 0.0000 0.0000 18.1373 0.0000
# 6 0.0000 0.0000 0.0000 0.0000 0.0000 28.9811
#
#
#
# Elastic Compliance Matrix: (Units=1/GPa)
#
#
# Indices 1 2 3 4 5 6 
#
# 1 0.064667 -0.005847 -0.005220 0.000000 0.000000 0.000000
# 2 -0.005847 0.011362 -0.003292 0.000000 0.000000 0.000000
# 3 -0.005220 -0.003292 0.007809 0.000000 0.000000 0.000000
# 4 0.000000 0.000000 0.000000 0.039417 0.000000 0.000000
# 5 0.000000 0.000000 0.000000 0.000000 0.055135 0.000000
# 6 0.000000 0.000000 0.000000 0.000000 0.000000 0.034505
#
#
# Mechanical properties :
#
#
# Convention : Reuss Voigt Hill
#
# Bulk Modulus (GPa) = 18.14239 52.84967 35.49603
# Shear Modulus (GPa) = 19.23178 28.13674 23.68426
#
# Velocity S-wave (km/s) = 3.05059 3.68987 3.38535
# Velocity P-wave (km/s) = 4.60294 6.61263 5.69710
#
# Compressibility (1/GPa) = 0.05511954
#
# Stress axis : x y z
#
# Youngs Moduli (GPa) = 15.46391 88.01082 128.06226
#
# Poissons Ratio (x) = 0.51458 0.66849
# Poissons Ratio (y) = 0.09041 0.42162
# Poissons Ratio (z) = 0.08072 0.28976
#
# Static dielectric constant tensor:
#      x y z
#    x 3.409410 0.000000 0.000000 
#    y 0.000000 3.533040 0.000000 
#    z 0.000000 0.000000 4.224970 
# 
# 
# High freq. dielectric constant tensor:
#      x y z
#    x 1.784370 0.000000 0.000000 
#    y 0.000000 1.789680 0.000000 
#    z 0.000000 0.000000 1.830630 
# 
# From -- ./inp_files/40470.got.cif
#   From: 2010.03.12/outbox.cif.g09.slc.cpg/sg65_21_cif.got.tgz:40470.got - 2010.04.10 20:52:16.
