data_PCOD8266371
_publ_section_title
;
Structure prediction by ZEFSAII (Michael W. Deem and Ramdas Pophale) SiO2 
 PCOD8266371
Probable space group: C M M M
;
_chemical_formula_sum "Si O2"
_cell_formula_units_Z 80
_cell_length_a 8.692425
_cell_length_b 29.502164
_cell_length_c 18.094236
_cell_angle_alpha 90.000000
_cell_angle_beta 90.000000
_cell_angle_gamma 90.000000
_cell_volume 4640.182646
_symmetry_space_group_name_H-M "C M M M"
_symmetry_group_IT_number 65
_symmetry_cell_setting 'orthorhombic'
loop_
_space_group_symop_operation_xyz
x,y,z
-x,-y,z
x,-y,-z
-x,y,-z
-x,-y,-z
x,y,-z
-x,y,z
x,-y,z
1/2+x,1/2+y,z
1/2-x,1/2-y,z
1/2+x,1/2-y,-z
1/2-x,1/2+y,-z
1/2-x,1/2-y,-z
1/2+x,1/2+y,-z
1/2-x,1/2+y,z
1/2+x,1/2-y,z
loop_
_atom_site_type_symbol
_atom_site_label
_atom_site_fract_x
_atom_site_fract_y
_atom_site_fract_z
Si Si1 0.183070 0.300208 0.000000
Si Si2 0.665644 0.553036 0.500000
Si Si3 0.682876 0.299884 0.149451
Si Si4 0.180746 0.856283 0.290148
Si Si5 0.682917 0.450189 0.341811
Si Si6 0.680925 0.202321 0.416163
O O1 0.250000 0.250000 0.000000
O O2 0.247995 0.323007 0.925070
O O3 0.000000 0.300400 0.000000
O O4 0.635844 0.500000 0.500000
O O5 0.500000 0.578535 0.500000
O O6 0.753797 0.564100 0.577275
O O7 0.500000 0.296788 0.142879
O O8 0.750000 0.250000 0.163251
O O9 0.738957 0.331767 0.216184
O O10 0.225131 0.909968 0.284577
O O11 0.260805 0.836640 0.362467
O O12 0.000000 0.849229 0.299221
O O13 0.500000 0.453455 0.351388
O O14 0.745217 0.500000 0.315502
O O15 0.733363 0.190756 0.500000
O O16 0.500000 0.206333 0.410261
O O17 0.750000 0.250000 0.389811
#
# Coordination Sequence:
#
# PCOD8266371 Si02
#       6
#     8   8  16  16  16  16
#     4  10  18  30  50  72  93 122 153 181 224 273
#     4   7  10  18  34  56  82 111 144 187 234 271
#     4  10  19  31  46  69  99 125 152 185 228 276
#     4  10  20  30  47  73  96 124 158 195 239 282
#     4   8  14  25  41  65  94 121 154 197 241 281
#     4  10  21  35  48  63  88 124 163 201 238 276
#
# _framework density 17.2407
#
# number of rings (size 3 to 8) (size 9 to 14) (size 15 to 20)
#    0.000    2.700    0.000    5.100    1.400    4.400 
#    0.000    0.000    0.000    0.600    0.000    2.100 
#    0.000    5.600    0.000    0.000    0.000    0.000 
#
# Total GULP energy -495547.460451 kJ/mol
# GULP energy per Si atom -12388.686511 kJ/mol
# Density = 1.720146 g / cm^3
# Si number density = 17.240700 Si / 1000 Ang^3
#
#
#
# Elastic Constant Matrix: (Units=GPa)
#
#
# Indices 1 2 3 4 5 6 
#
# 1 49.1296 22.6996 29.6215 0.0000 0.0000 0.0000
# 2 22.6996 109.7396 70.5232 0.0000 0.0000 0.0000
# 3 29.6215 70.5232 119.1547 0.0000 0.0000 0.0000
# 4 0.0000 0.0000 0.0000 15.3584 0.0000 0.0000
# 5 0.0000 0.0000 0.0000 0.0000 22.3617 0.0000
# 6 0.0000 0.0000 0.0000 0.0000 0.0000 12.4310
#
#
#
# Elastic Compliance Matrix: (Units=1/GPa)
#
#
# Indices 1 2 3 4 5 6 
#
# 1 0.024170 -0.001837 -0.004922 0.000000 0.000000 0.000000
# 2 -0.001837 0.014846 -0.008330 0.000000 0.000000 0.000000
# 3 -0.004922 -0.008330 0.014546 0.000000 0.000000 0.000000
# 4 0.000000 0.000000 0.000000 0.065111 0.000000 0.000000
# 5 0.000000 0.000000 0.000000 0.000000 0.044719 0.000000
# 6 0.000000 0.000000 0.000000 0.000000 0.000000 0.080444
#
#
# Mechanical properties :
#
#
# Convention : Reuss Voigt Hill
#
# Bulk Modulus (GPa) = 42.76164 58.19030 50.47597
# Shear Modulus (GPa) = 17.74258 20.37553 19.05905
#
# Velocity S-wave (km/s) = 3.21146 3.44150 3.32847
# Velocity P-wave (km/s) = 6.21352 7.04392 6.64171
#
# Compressibility (1/GPa) = 0.02338545
#
# Stress axis : x y z
#
# Youngs Moduli (GPa) = 41.37301 67.36009 68.74704
#
# Poissons Ratio (x) = 0.12373 0.33834
# Poissons Ratio (y) = 0.07600 0.57266
# Poissons Ratio (z) = 0.20362 0.56110
#
# Static dielectric constant tensor:
#      x y z
#    x 2.967640 0.000000 0.000000 
#    y 0.000000 4.670990 0.000000 
#    z 0.000000 0.000000 3.705930 
# 
# 
# High freq. dielectric constant tensor:
#      x y z
#    x 1.642570 0.000000 0.000000 
#    y 0.000000 1.645290 0.000000 
#    z 0.000000 0.000000 1.657380 
# 
# From -- ./inp_files/50157.got.cif
#   From: 2010.03.12/outbox.cif.g09.slc.cpg/sg65_26_cif.got.tgz:50157.got - 2010.04.10 20:52:16.
