data_PCOD8266198
_publ_section_title
;
Structure prediction by ZEFSAII (Michael W. Deem and Ramdas Pophale) SiO2 
 PCOD8266198
Probable space group: C M M M
;
_chemical_formula_sum "Si O2"
_cell_formula_units_Z 96
_cell_length_a 27.239004
_cell_length_b 8.725791
_cell_length_c 24.121702
_cell_angle_alpha 90.000000
_cell_angle_beta 90.000000
_cell_angle_gamma 90.000000
_cell_volume 5733.290900
_symmetry_space_group_name_H-M "C M M M"
_symmetry_group_IT_number 65
_symmetry_cell_setting 'orthorhombic'
loop_
_space_group_symop_operation_xyz
x,y,z
-x,-y,z
x,-y,-z
-x,y,-z
-x,-y,-z
x,y,-z
-x,y,z
x,-y,z
1/2+x,1/2+y,z
1/2-x,1/2-y,z
1/2+x,1/2-y,-z
1/2-x,1/2+y,-z
1/2-x,1/2-y,-z
1/2+x,1/2+y,-z
1/2-x,1/2+y,z
1/2+x,1/2-y,z
loop_
_atom_site_type_symbol
_atom_site_label
_atom_site_fract_x
_atom_site_fract_y
_atom_site_fract_z
Si Si1 0.147348 0.680156 0.224003
Si Si2 0.302136 0.676780 0.000000
Si Si3 0.897410 0.819764 0.611638
Si Si4 0.555929 0.316504 0.500000
Si Si5 0.801566 0.818354 0.328054
Si Si6 0.695717 0.318769 0.879890
Si Si7 0.444237 0.679181 0.724594
O O1 0.154519 0.500000 0.228299
O O2 0.184317 0.758886 0.267259
O O3 0.159526 0.738213 0.162870
O O4 0.090942 0.724403 0.235488
O O5 0.250000 0.750000 0.000000
O O6 0.327864 0.719359 0.058776
O O7 0.291067 0.500000 0.000000
O O8 0.916279 0.747500 0.553963
O O9 0.842578 0.763192 0.627499
O O10 0.934652 0.773487 0.660788
O O11 0.896856 0.000000 0.604174
O O12 0.556678 0.500000 0.500000
O O13 0.500000 0.257546 0.500000
O O14 0.750000 0.750000 0.347772
O O15 0.798188 0.000000 0.325221
O O16 0.698039 0.500000 0.868533
O O17 0.750000 0.250000 0.873699
O O18 0.500000 0.718625 0.740231
O O19 0.432353 0.500000 0.732633
#
# Coordination Sequence:
#
# PCOD8266198 Si02
#       7
#    16   8  16   8  16  16  16
#     4  11  21  31  45  68  94 121 154 189 228 272
#     4   8  16  28  44  64  89 122 155 186 220 263
#     4   8  15  26  42  66  93 118 146 182 224 271
#     4   9  14  22  41  68  93 115 143 183 228 273
#     4  10  19  32  47  64  89 121 155 190 229 271
#     4  10  18  30  46  67  95 125 156 188 224 265
#     4   9  17  31  49  68  92 121 151 186 229 273
#
# _framework density 16.744309000000001
#
# number of rings (size 3 to 8) (size 9 to 14) (size 15 to 20)
#    0.000    2.583    0.000    4.500    0.000    3.000 
#    0.000    0.417    0.000    0.000    0.000   14.583 
#    0.000   26.667    0.000    0.000    0.000    0.000 
#
# Total GULP energy -594898.302482 kJ/mol
# GULP energy per Si atom -12393.714635 kJ/mol
# Density = 1.670620 g / cm^3
# Si number density = 16.744309 Si / 1000 Ang^3
#
#
#
# Elastic Constant Matrix: (Units=GPa)
#
#
# Indices 1 2 3 4 5 6 
#
# 1 102.4565 29.8844 57.9325 0.0000 0.0000 0.0000
# 2 29.8844 59.7276 31.3532 0.0000 0.0000 0.0000
# 3 57.9325 31.3532 135.3316 0.0000 0.0000 0.0000
# 4 0.0000 0.0000 0.0000 11.8519 0.0000 0.0000
# 5 0.0000 0.0000 0.0000 0.0000 19.0804 0.0000
# 6 0.0000 0.0000 0.0000 0.0000 0.0000 23.9901
#
#
#
# Elastic Compliance Matrix: (Units=1/GPa)
#
#
# Indices 1 2 3 4 5 6 
#
# 1 0.013795 -0.004329 -0.004902 0.000000 0.000000 0.000000
# 2 -0.004329 0.020419 -0.002878 0.000000 0.000000 0.000000
# 3 -0.004902 -0.002878 0.010155 0.000000 0.000000 0.000000
# 4 0.000000 0.000000 0.000000 0.084375 0.000000 0.000000
# 5 0.000000 0.000000 0.000000 0.000000 0.052410 0.000000
# 6 0.000000 0.000000 0.000000 0.000000 0.000000 0.041684
#
#
# Mechanical properties :
#
#
# Convention : Reuss Voigt Hill
#
# Bulk Modulus (GPa) = 49.62528 59.53954 54.58241
# Shear Modulus (GPa) = 19.70278 22.87419 21.28848
#
# Velocity S-wave (km/s) = 3.43401 3.70007 3.56952
# Velocity P-wave (km/s) = 6.73978 7.34093 7.04677
#
# Compressibility (1/GPa) = 0.02015102
#
# Stress axis : x y z
#
# Youngs Moduli (GPa) = 72.49097 48.97377 98.47814
#
# Poissons Ratio (x) = 0.21199 0.48278
# Poissons Ratio (y) = 0.31379 0.28338
# Poissons Ratio (z) = 0.35538 0.14093
#
# Static dielectric constant tensor:
#      x y z
#    x 3.301070 0.000000 0.000000 
#    y 0.000000 2.955490 0.000000 
#    z 0.000000 0.000000 3.930580 
# 
# 
# High freq. dielectric constant tensor:
#      x y z
#    x 1.628220 0.000000 0.000000 
#    y 0.000000 1.631230 0.000000 
#    z 0.000000 0.000000 1.644610 
# 
# From -- ./inp_files/71700.got.cif
#   From: 2010.03.12/outbox.cif.g09.slc.cpg/sg65_36_cif.got.tgz:71700.got - 2010.04.10 20:52:16.
