data_PCOD8266703
_publ_section_title
;
Structure prediction by ZEFSAII (Michael W. Deem and Ramdas Pophale) SiO2 
 PCOD8266703
Probable space group: C M M M
;
_chemical_formula_sum "Si O2"
_cell_formula_units_Z 64
_cell_length_a 14.988484
_cell_length_b 28.952892
_cell_length_c 7.663277
_cell_angle_alpha 90.000000
_cell_angle_beta 90.000000
_cell_angle_gamma 90.000000
_cell_volume 3325.555369
_symmetry_space_group_name_H-M "C M M M"
_symmetry_group_IT_number 65
_symmetry_cell_setting 'orthorhombic'
loop_
_space_group_symop_operation_xyz
x,y,z
-x,-y,z
x,-y,-z
-x,y,-z
-x,-y,-z
x,y,-z
-x,y,z
x,-y,z
1/2+x,1/2+y,z
1/2-x,1/2-y,z
1/2+x,1/2-y,-z
1/2-x,1/2+y,-z
1/2-x,1/2-y,-z
1/2+x,1/2+y,-z
1/2-x,1/2+y,z
1/2+x,1/2-y,z
loop_
_atom_site_type_symbol
_atom_site_label
_atom_site_fract_x
_atom_site_fract_y
_atom_site_fract_z
Si Si1 0.595418 0.582253 0.000000
Si Si2 0.634612 0.348687 0.300108
Si Si3 0.789064 0.447992 0.000000
Si Si4 0.825581 0.620079 0.305172
Si Si5 0.500000 0.830689 0.804753
Si Si6 0.500000 0.729388 0.700412
O O1 0.594970 0.612854 0.825886
O O2 0.500000 0.555066 0.000000
O O3 0.681118 0.549096 0.000000
O O4 0.611232 0.362201 0.500000
O O5 0.741315 0.346064 0.269716
O O6 0.589134 0.299787 0.254382
O O7 0.826155 0.422397 0.828980
O O8 0.826481 0.500000 0.000000
O O9 0.819776 0.598954 0.500000
O O10 0.912922 0.651159 0.292876
O O11 0.500000 0.775386 0.814170
O O12 0.500000 0.850368 0.000000
O O13 0.500000 0.744752 0.500000
#
# Coordination Sequence:
#
# PCOD8266703 Si02
#       6
#     8  16   8  16   8   8
#     4  10  18  31  57  84 118 155 185 217 277 333
#     4   9  19  34  55  82 114 154 195 228 267 321
#     4  10  22  40  60  89 116 140 185 238 285 342
#     4  10  21  41  62  81 112 153 188 231 288 338
#     4  12  24  38  56  84 116 148 191 241 284 330
#     4  10  20  34  54  84 117 153 195 235 265 318
#
# _framework density 19.244904999999999
#
# number of rings (size 3 to 8) (size 9 to 14) (size 15 to 20)
#    0.000    2.000    2.500    1.125    1.750    1.750 
#    0.000    6.250    0.000    1.500    0.000    7.000 
#    0.000    0.000    0.000    0.000    0.000    0.000 
#
# Total GULP energy -396700.920832 kJ/mol
# GULP energy per Si atom -12396.903776 kJ/mol
# Density = 1.920110 g / cm^3
# Si number density = 19.244905 Si / 1000 Ang^3
#
#
#
# Elastic Constant Matrix: (Units=GPa)
#
#
# Indices 1 2 3 4 5 6 
#
# 1 132.1878 46.5064 29.0972 0.0000 0.0000 0.0000
# 2 46.5064 110.7634 42.8486 0.0000 0.0000 0.0000
# 3 29.0972 42.8486 109.3186 0.0000 0.0000 0.0000
# 4 0.0000 0.0000 0.0000 15.5012 0.0000 0.0000
# 5 0.0000 0.0000 0.0000 0.0000 27.8361 0.0000
# 6 0.0000 0.0000 0.0000 0.0000 0.0000 11.4798
#
#
#
# Elastic Compliance Matrix: (Units=1/GPa)
#
#
# Indices 1 2 3 4 5 6 
#
# 1 0.008982 -0.003355 -0.001076 0.000000 0.000000 0.000000
# 2 -0.003355 0.011895 -0.003769 0.000000 0.000000 0.000000
# 3 -0.001076 -0.003769 0.010911 0.000000 0.000000 0.000000
# 4 0.000000 0.000000 0.000000 0.064511 0.000000 0.000000
# 5 0.000000 0.000000 0.000000 0.000000 0.035925 0.000000
# 6 0.000000 0.000000 0.000000 0.000000 0.000000 0.087110
#
#
# Mechanical properties :
#
#
# Convention : Reuss Voigt Hill
#
# Bulk Modulus (GPa) = 64.98508 65.46381 65.22444
# Shear Modulus (GPa) = 20.75858 26.55127 23.65492
#
# Velocity S-wave (km/s) = 3.28785 3.71840 3.50973
# Velocity P-wave (km/s) = 6.94651 7.24743 7.09857
#
# Compressibility (1/GPa) = 0.01538815
#
# Stress axis : x y z
#
# Youngs Moduli (GPa) = 111.33107 84.06749 91.64790
#
# Poissons Ratio (x) = 0.28207 0.09858
# Poissons Ratio (y) = 0.37355 0.34546
# Poissons Ratio (z) = 0.11975 0.31688
#
# Static dielectric constant tensor:
#      x y z
#    x 3.736850 0.000000 0.000000 
#    y 0.000000 3.028940 0.000000 
#    z 0.000000 0.000000 3.681010 
# 
# 
# High freq. dielectric constant tensor:
#      x y z
#    x 1.762440 0.000000 0.000000 
#    y 0.000000 1.704000 0.000000 
#    z 0.000000 0.000000 1.767180 
# 
# From -- ./inp_files/7157.got.cif
#   From: 2010.03.12/outbox.cif.g09.slc.cpg/sg65_4_cif.got.tgz:7157.got - 2010.04.10 20:52:16.
