data_PCOD8266521
_publ_section_title
;
Structure prediction by ZEFSAII (Michael W. Deem and Ramdas Pophale) SiO2 
 PCOD8266521
Probable space group: C M M M
;
_chemical_formula_sum "Si O2"
_cell_formula_units_Z 96
_cell_length_a 27.784252
_cell_length_b 17.974813
_cell_length_c 11.732909
_cell_angle_alpha 90.000000
_cell_angle_beta 90.000000
_cell_angle_gamma 90.000000
_cell_volume 5859.611094
_symmetry_space_group_name_H-M "C M M M"
_symmetry_group_IT_number 65
_symmetry_cell_setting 'orthorhombic'
loop_
_space_group_symop_operation_xyz
x,y,z
-x,-y,z
x,-y,-z
-x,y,-z
-x,-y,-z
x,y,-z
-x,y,z
x,-y,z
1/2+x,1/2+y,z
1/2-x,1/2-y,z
1/2+x,1/2-y,-z
1/2-x,1/2+y,-z
1/2-x,1/2-y,-z
1/2+x,1/2+y,-z
1/2-x,1/2+y,z
1/2+x,1/2-y,z
loop_
_atom_site_type_symbol
_atom_site_label
_atom_site_fract_x
_atom_site_fract_y
_atom_site_fract_z
Si Si1 0.097938 0.418350 0.367054
Si Si2 0.652509 0.708159 0.364958
Si Si3 0.947857 0.268864 0.634638
Si Si4 0.797503 0.850775 0.000000
Si Si5 0.684594 0.145763 0.246378
Si Si6 0.313369 0.187974 0.000000
Si Si7 0.708123 0.586487 0.759895
O O1 0.107827 0.407562 0.500000
O O2 0.075823 0.500000 0.340893
O O3 0.062514 0.353519 0.323003
O O4 0.149642 0.412077 0.307441
O O5 0.658448 0.717295 0.500000
O O6 0.596052 0.715353 0.327977
O O7 0.683074 0.772695 0.303483
O O8 0.671895 0.628511 0.325423
O O9 0.951830 0.268546 0.500000
O O10 0.000000 0.243854 0.686150
O O11 0.809046 0.900049 0.889384
O O12 0.743418 0.822562 0.000000
O O13 0.828822 0.775003 0.000000
O O14 0.738273 0.115893 0.259118
O O15 0.666820 0.149878 0.114775
O O16 0.705019 0.500000 0.730238
#
# Coordination Sequence:
#
# PCOD8266521 Si02
#       7
#    16  16  16   8  16   8  16
#     4   9  17  28  43  68 101 129 152 181 220 271
#     4  10  20  32  47  68  94 122 154 189 225 274
#     4   8  15  29  48  67  87 116 154 194 231 267
#     4   9  17  32  46  66  86 117 158 199 231 255
#     4  10  18  31  47  67  93 127 162 188 218 258
#     4   9  16  28  50  66  84 117 164 203 219 252
#     4  11  21  31  46  67  95 125 154 190 228 267
#
# _framework density 16.38334
#
# number of rings (size 3 to 8) (size 9 to 14) (size 15 to 20)
#    0.000    2.500    1.667    2.750    0.000    2.667 
#    0.000    2.917    0.000    0.500    0.000   16.917 
#    0.000    6.667    0.000    0.000    0.000    0.000 
#
# Total GULP energy -594886.464476 kJ/mol
# GULP energy per Si atom -12393.468010 kJ/mol
# Density = 1.634605 g / cm^3
# Si number density = 16.383340 Si / 1000 Ang^3
#
#
#
# Elastic Constant Matrix: (Units=GPa)
#
#
# Indices 1 2 3 4 5 6 
#
# 1 84.0255 45.3981 23.6410 0.0000 0.0000 0.0000
# 2 45.3981 102.3103 28.5798 0.0000 0.0000 0.0000
# 3 23.6410 28.5798 64.8578 0.0000 0.0000 0.0000
# 4 0.0000 0.0000 0.0000 20.5338 0.0000 0.0000
# 5 0.0000 0.0000 0.0000 0.0000 2.6733 0.0000
# 6 0.0000 0.0000 0.0000 0.0000 0.0000 11.2851
#
#
#
# Elastic Compliance Matrix: (Units=1/GPa)
#
#
# Indices 1 2 3 4 5 6 
#
# 1 0.016189 -0.006312 -0.003120 0.000000 0.000000 0.000000
# 2 -0.006312 0.013607 -0.003695 0.000000 0.000000 0.000000
# 3 -0.003120 -0.003695 0.018184 0.000000 0.000000 0.000000
# 4 0.000000 0.000000 0.000000 0.048700 0.000000 0.000000
# 5 0.000000 0.000000 0.000000 0.000000 0.374066 0.000000
# 6 0.000000 0.000000 0.000000 0.000000 0.000000 0.088613
#
#
# Mechanical properties :
#
#
# Convention : Reuss Voigt Hill
#
# Bulk Modulus (GPa) = 46.02726 49.60350 47.81538
# Shear Modulus (GPa) = 8.43376 17.13675 12.78525
#
# Velocity S-wave (km/s) = 2.27133 3.23768 2.79656
# Velocity P-wave (km/s) = 5.91891 6.65727 6.29892
#
# Compressibility (1/GPa) = 0.02172625
#
# Stress axis : x y z
#
# Youngs Moduli (GPa) = 61.76925 73.48958 54.99402
#
# Poissons Ratio (x) = 0.46388 0.17156
# Poissons Ratio (y) = 0.38990 0.20322
# Poissons Ratio (z) = 0.19269 0.27157
#
# Static dielectric constant tensor:
#      x y z
#    x 3.142910 0.000000 0.000000 
#    y 0.000000 3.071270 0.000000 
#    z 0.000000 0.000000 3.143230 
# 
# 
# High freq. dielectric constant tensor:
#      x y z
#    x 1.603660 0.000000 0.000000 
#    y 0.000000 1.622690 0.000000 
#    z 0.000000 0.000000 1.619360 
# 
# From -- ./inp_files/32468.got.cif
#   From: 2010.03.12/outbox.cif.g09.slc.cpg/sg65_17_cif.got.tgz:32468.got - 2010.04.10 20:52:16.
