data_PCOD8266900
_publ_section_title
;
Structure prediction by ZEFSAII (Michael W. Deem and Ramdas Pophale) SiO2 
 PCOD8266900
Probable space group: C M M M
;
_chemical_formula_sum "Si O2"
_cell_formula_units_Z 64
_cell_length_a 14.336623
_cell_length_b 19.913926
_cell_length_c 11.824489
_cell_angle_alpha 90.000000
_cell_angle_beta 90.000000
_cell_angle_gamma 90.000000
_cell_volume 3375.873276
_symmetry_space_group_name_H-M "C M M M"
_symmetry_group_IT_number 65
_symmetry_cell_setting 'orthorhombic'
loop_
_space_group_symop_operation_xyz
x,y,z
-x,-y,z
x,-y,-z
-x,y,-z
-x,-y,-z
x,y,-z
-x,y,z
x,-y,z
1/2+x,1/2+y,z
1/2-x,1/2-y,z
1/2+x,1/2-y,-z
1/2-x,1/2+y,-z
1/2-x,1/2-y,-z
1/2+x,1/2+y,-z
1/2-x,1/2+y,z
1/2+x,1/2-y,z
loop_
_atom_site_type_symbol
_atom_site_label
_atom_site_fract_x
_atom_site_fract_y
_atom_site_fract_z
Si Si1 0.320076 0.923330 0.232897
Si Si2 0.853758 0.225771 0.000000
Si Si3 0.000000 0.769454 0.632926
Si Si4 0.821655 0.188029 0.239712
Si Si5 0.398389 0.127147 0.000000
Si Si6 0.000000 0.616177 0.365537
O O1 0.233145 0.879199 0.276225
O O2 0.408091 0.918716 0.316215
O O3 0.287310 0.000000 0.226303
O O4 0.342598 0.895881 0.109007
O O5 0.750000 0.250000 0.000000
O O6 0.868567 0.182558 0.114216
O O7 0.916168 0.292763 0.000000
O O8 0.906392 0.805414 0.673845
O O9 0.000000 0.771998 0.500000
O O10 0.000000 0.692890 0.676302
O O11 0.750000 0.250000 0.248542
O O12 0.500000 0.092338 0.000000
O O13 0.000000 0.608079 0.500000
#
# Coordination Sequence:
#
# PCOD8266900 Si02
#       6
#    16   8   8  16   8   8
#     4  12  24  38  58  89 127 161 193 237 301 368
#     4  10  18  32  58  86 119 147 193 237 286 353
#     4  11  24  40  64  93 114 149 211 267 297 342
#     4  11  21  39  62  88 121 157 200 247 300 355
#     4  12  21  33  58  94 127 154 190 242 304 361
#     4  11  23  39  59  87 120 154 196 246 301 357
#
# _framework density 18.958055999999999
#
# number of rings (size 3 to 8) (size 9 to 14) (size 15 to 20)
#    0.000    0.750    8.750    0.750    1.750    3.000 
#    0.000    0.625    0.000    0.750    0.000    3.500 
#    0.000    0.000    0.000    0.000    0.000    0.000 
#
# Total GULP energy -396804.917033 kJ/mol
# GULP energy per Si atom -12400.153657 kJ/mol
# Density = 1.891491 g / cm^3
# Si number density = 18.958056 Si / 1000 Ang^3
#
#
#
# Elastic Constant Matrix: (Units=GPa)
#
#
# Indices 1 2 3 4 5 6 
#
# 1 101.1389 48.1466 26.4692 0.0000 0.0000 0.0000
# 2 48.1466 118.0449 19.1519 0.0000 0.0000 0.0000
# 3 26.4692 19.1519 69.7381 0.0000 0.0000 0.0000
# 4 0.0000 0.0000 0.0000 7.1130 0.0000 0.0000
# 5 0.0000 0.0000 0.0000 0.0000 11.2133 0.0000
# 6 0.0000 0.0000 0.0000 0.0000 0.0000 21.7097
#
#
#
# Elastic Compliance Matrix: (Units=1/GPa)
#
#
# Indices 1 2 3 4 5 6 
#
# 1 0.013110 -0.004752 -0.003671 0.000000 0.000000 0.000000
# 2 -0.004752 0.010589 -0.001104 0.000000 0.000000 0.000000
# 3 -0.003671 -0.001104 0.016036 0.000000 0.000000 0.000000
# 4 0.000000 0.000000 0.000000 0.140589 0.000000 0.000000
# 5 0.000000 0.000000 0.000000 0.000000 0.089180 0.000000
# 6 0.000000 0.000000 0.000000 0.000000 0.000000 0.046062
#
#
# Mechanical properties :
#
#
# Convention : Reuss Voigt Hill
#
# Bulk Modulus (GPa) = 48.35457 52.93969 50.64713
# Shear Modulus (GPa) = 14.64073 21.01748 17.82910
#
# Velocity S-wave (km/s) = 2.78199 3.33322 3.07000
# Velocity P-wave (km/s) = 5.99005 6.54210 6.27215
#
# Compressibility (1/GPa) = 0.02068057
#
# Stress axis : x y z
#
# Youngs Moduli (GPa) = 76.27702 94.44166 62.35965
#
# Poissons Ratio (x) = 0.44875 0.22893
# Poissons Ratio (y) = 0.36244 0.06887
# Poissons Ratio (z) = 0.28002 0.10430
#
# Static dielectric constant tensor:
#      x y z
#    x 3.498270 0.000000 0.000000 
#    y 0.000000 3.265370 0.000000 
#    z 0.000000 0.000000 4.030370 
# 
# 
# High freq. dielectric constant tensor:
#      x y z
#    x 1.734130 0.000000 0.000000 
#    y 0.000000 1.713190 0.000000 
#    z 0.000000 0.000000 1.741890 
# 
# From -- ./inp_files/24000.got.cif
#   From: 2010.03.12/outbox.cif.g09.slc.cpg/sg65_12_cif.got.tgz:24000.got - 2010.04.10 20:52:16.
