data_PCOD8266716
_publ_section_title
;
Structure prediction by ZEFSAII (Michael W. Deem and Ramdas Pophale) SiO2 
 PCOD8266716
Probable space group: C M M M
;
_chemical_formula_sum "Si O2"
_cell_formula_units_Z 88
_cell_length_a 16.187500
_cell_length_b 27.175498
_cell_length_c 11.778166
_cell_angle_alpha 90.000000
_cell_angle_beta 90.000000
_cell_angle_gamma 90.000000
_cell_volume 5181.254961
_symmetry_space_group_name_H-M "C M M M"
_symmetry_group_IT_number 65
_symmetry_cell_setting 'orthorhombic'
loop_
_space_group_symop_operation_xyz
x,y,z
-x,-y,z
x,-y,-z
-x,y,-z
-x,-y,-z
x,y,-z
-x,y,z
x,-y,z
1/2+x,1/2+y,z
1/2-x,1/2-y,z
1/2+x,1/2-y,-z
1/2-x,1/2+y,-z
1/2-x,1/2-y,-z
1/2+x,1/2+y,-z
1/2-x,1/2+y,z
1/2+x,1/2-y,z
loop_
_atom_site_type_symbol
_atom_site_label
_atom_site_fract_x
_atom_site_fract_y
_atom_site_fract_z
Si Si1 0.090853 0.144002 0.631354
Si Si2 0.702246 0.444661 0.371048
Si Si3 0.098395 0.374492 0.000000
Si Si4 0.500000 0.056937 0.634463
Si Si5 0.265800 0.692072 0.243525
Si Si6 0.845873 0.603273 0.753677
Si Si7 0.257603 0.807187 0.000000
O O1 0.085871 0.156606 0.500000
O O2 0.122845 0.088904 0.652957
O O3 0.153252 0.183301 0.683500
O O4 0.000000 0.149101 0.686786
O O5 0.735973 0.435559 0.500000
O O6 0.671528 0.500000 0.355713
O O7 0.772299 0.433956 0.277790
O O8 0.127889 0.403084 0.886120
O O9 0.144789 0.321779 0.000000
O O10 0.000000 0.366522 0.000000
O O11 0.500000 0.056175 0.500000
O O12 0.422168 0.088004 0.676443
O O13 0.500000 0.000000 0.679632
O O14 0.250000 0.750000 0.252216
O O15 0.186110 0.658777 0.280130
O O16 0.285870 0.673640 0.114619
O O17 0.250000 0.750000 0.000000
#
# Coordination Sequence:
#
# PCOD8266716 Si02
#       7
#    16  16   8   8  16  16   8
#     4   9  18  32  49  72 101 129 160 201 247 295
#     4   9  17  31  52  73  94 126 166 206 248 292
#     4  10  18  32  50  70 101 133 161 204 253 296
#     4  11  22  35  51  71  99 132 171 217 250 286
#     4   9  18  34  53  73  99 131 164 204 247 297
#     4  10  19  33  51  72 100 130 167 202 248 301
#     4   8  16  32  52  74  93 121 167 208 247 289
#
# _framework density 16.984300999999999
#
# number of rings (size 3 to 8) (size 9 to 14) (size 15 to 20)
#    0.000    2.636    0.909    1.091    0.000    2.909 
#    1.636    7.273    0.000    0.000    0.000    0.000 
#    0.000    7.273    0.000    0.000    0.000    0.000 
#
# Total GULP energy -545112.129031 kJ/mol
# GULP energy per Si atom -12388.912023 kJ/mol
# Density = 1.694564 g / cm^3
# Si number density = 16.984301 Si / 1000 Ang^3
#
#
#
# Elastic Constant Matrix: (Units=GPa)
#
#
# Indices 1 2 3 4 5 6 
#
# 1 129.0712 49.8329 57.2564 0.0000 0.0000 0.0000
# 2 49.8329 105.4090 39.2147 0.0000 0.0000 0.0000
# 3 57.2564 39.2147 74.3916 0.0000 0.0000 0.0000
# 4 0.0000 0.0000 0.0000 21.0319 0.0000 0.0000
# 5 0.0000 0.0000 0.0000 0.0000 14.7535 0.0000
# 6 0.0000 0.0000 0.0000 0.0000 0.0000 15.7141
#
#
#
# Elastic Compliance Matrix: (Units=1/GPa)
#
#
# Indices 1 2 3 4 5 6 
#
# 1 0.012431 -0.002883 -0.008048 0.000000 0.000000 0.000000
# 2 -0.002883 0.012470 -0.004355 0.000000 0.000000 0.000000
# 3 -0.008048 -0.004355 0.021932 0.000000 0.000000 0.000000
# 4 0.000000 0.000000 0.000000 0.047547 0.000000 0.000000
# 5 0.000000 0.000000 0.000000 0.000000 0.067781 0.000000
# 6 0.000000 0.000000 0.000000 0.000000 0.000000 0.063637
#
#
# Mechanical properties :
#
#
# Convention : Reuss Voigt Hill
#
# Bulk Modulus (GPa) = 61.49256 66.83108 64.16182
# Shear Modulus (GPa) = 19.09944 21.13774 20.11859
#
# Velocity S-wave (km/s) = 3.35705 3.53164 3.44545
# Velocity P-wave (km/s) = 7.16313 7.48760 7.32716
#
# Compressibility (1/GPa) = 0.01626213
#
# Stress axis : x y z
#
# Youngs Moduli (GPa) = 80.44599 80.19450 45.59555
#
# Poissons Ratio (x) = 0.23118 0.36695
# Poissons Ratio (y) = 0.23190 0.19855
# Poissons Ratio (z) = 0.64742 0.34921
#
# Static dielectric constant tensor:
#      x y z
#    x 3.307320 0.000000 0.000000 
#    y 0.000000 3.189980 0.000000 
#    z 0.000000 0.000000 3.681520 
# 
# 
# High freq. dielectric constant tensor:
#      x y z
#    x 1.647910 0.000000 0.000000 
#    y 0.000000 1.648940 0.000000 
#    z 0.000000 0.000000 1.657680 
# 
# From -- ./inp_files/25229.got.cif
#   From: 2010.03.12/outbox.cif.g09.slc.cpg/sg65_13_cif.got.tgz:25229.got - 2010.04.10 20:52:16.
