data_PCOD8266147
_publ_section_title
;
Structure prediction by ZEFSAII (Michael W. Deem and Ramdas Pophale) SiO2 
 PCOD8266147
Probable space group: C M M M
;
_chemical_formula_sum "Si O2"
_cell_formula_units_Z 64
_cell_length_a 24.681150
_cell_length_b 8.822909
_cell_length_c 15.249826
_cell_angle_alpha 90.000000
_cell_angle_beta 90.000000
_cell_angle_gamma 90.000000
_cell_volume 3320.795102
_symmetry_space_group_name_H-M "C M M M"
_symmetry_group_IT_number 65
_symmetry_cell_setting 'orthorhombic'
loop_
_space_group_symop_operation_xyz
x,y,z
-x,-y,z
x,-y,-z
-x,y,-z
-x,-y,-z
x,y,-z
-x,y,z
x,-y,z
1/2+x,1/2+y,z
1/2-x,1/2-y,z
1/2+x,1/2-y,-z
1/2-x,1/2+y,-z
1/2-x,1/2-y,-z
1/2+x,1/2+y,-z
1/2-x,1/2+y,z
1/2+x,1/2-y,z
loop_
_atom_site_type_symbol
_atom_site_label
_atom_site_fract_x
_atom_site_fract_y
_atom_site_fract_z
Si Si1 0.000000 0.323553 0.149305
Si Si2 0.882587 0.174802 0.345989
Si Si3 0.110185 0.179793 0.851489
Si Si4 0.691456 0.321579 0.000000
Si Si5 0.500000 0.672939 0.330256
Si Si6 0.190931 0.818083 0.500000
O O1 0.054654 0.249996 0.109687
O O2 0.000000 0.293486 0.252714
O O3 0.000000 0.500000 0.127666
O O4 0.877772 0.242096 0.247304
O O5 0.840389 0.247999 0.414347
O O6 0.944189 0.197455 0.384119
O O7 0.867624 0.000000 0.340278
O O8 0.102996 0.000000 0.851467
O O9 0.159346 0.232223 0.913347
O O10 0.750000 0.250000 0.000000
O O11 0.698207 0.500000 0.000000
O O12 0.500000 0.500000 0.291542
O O13 0.250000 0.750000 0.500000
O O14 0.192445 0.000000 0.500000
#
# Coordination Sequence:
#
# PCOD8266147 Si02
#       6
#     8  16  16   8   8   8
#     4  10  18  29  50  81 107 128 158 203 249 293
#     4   8  15  29  51  73  95 122 158 198 238 285
#     4   9  18  35  54  73  99 134 166 198 244 301
#     4  10  22  37  54  73  97 130 172 212 247 288
#     4   8  14  29  51  73  97 126 157 197 246 299
#     4  10  20  33  47  69  97 128 165 202 236 282
#
# _framework density 19.272493000000001
#
# number of rings (size 3 to 8) (size 9 to 14) (size 15 to 20)
#    0.000    3.000    0.000    2.625    0.000    3.000 
#    0.000   10.000    0.000    0.000    0.000   14.875 
#    0.000    0.000    0.000    0.000    0.000    0.000 
#
# Total GULP energy -396454.384625 kJ/mol
# GULP energy per Si atom -12389.199520 kJ/mol
# Density = 1.922863 g / cm^3
# Si number density = 19.272493 Si / 1000 Ang^3
#
#
#
# Elastic Constant Matrix: (Units=GPa)
#
#
# Indices 1 2 3 4 5 6 
#
# 1 205.4959 33.5184 94.3547 0.0000 0.0000 0.0000
# 2 33.5184 34.9176 20.5410 0.0000 0.0000 0.0000
# 3 94.3547 20.5410 116.4170 0.0000 0.0000 0.0000
# 4 0.0000 0.0000 0.0000 10.8197 0.0000 0.0000
# 5 0.0000 0.0000 0.0000 0.0000 38.0034 0.0000
# 6 0.0000 0.0000 0.0000 0.0000 0.0000 33.1963
#
#
#
# Elastic Compliance Matrix: (Units=1/GPa)
#
#
# Indices 1 2 3 4 5 6 
#
# 1 0.008338 -0.004495 -0.005965 0.000000 0.000000 0.000000
# 2 -0.004495 0.034379 -0.002423 0.000000 0.000000 0.000000
# 3 -0.005965 -0.002423 0.013852 0.000000 0.000000 0.000000
# 4 0.000000 0.000000 0.000000 0.092424 0.000000 0.000000
# 5 0.000000 0.000000 0.000000 0.000000 0.026313 0.000000
# 6 0.000000 0.000000 0.000000 0.000000 0.000000 0.030124
#
#
# Mechanical properties :
#
#
# Convention : Reuss Voigt Hill
#
# Bulk Modulus (GPa) = 32.46371 72.62874 52.54622
# Shear Modulus (GPa) = 20.70700 30.29832 25.50266
#
# Velocity S-wave (km/s) = 3.28141 3.96928 3.64162
# Velocity P-wave (km/s) = 5.58910 7.66641 6.70865
#
# Compressibility (1/GPa) = 0.03080362
#
# Stress axis : x y z
#
# Youngs Moduli (GPa) = 119.92778 29.08742 72.19254
#
# Poissons Ratio (x) = 0.13075 0.43063
# Poissons Ratio (y) = 0.53910 0.17490
# Poissons Ratio (z) = 0.71537 0.07047
#
# Static dielectric constant tensor:
#      x y z
#    x 3.814740 0.000000 0.000000 
#    y 0.000000 3.046240 0.000000 
#    z 0.000000 0.000000 3.686180 
# 
# 
# High freq. dielectric constant tensor:
#      x y z
#    x 1.759660 0.000000 0.000000 
#    y 0.000000 1.703510 0.000000 
#    z 0.000000 0.000000 1.738120 
# 
# From -- ./inp_files/45167.got.cif
#   From: 2010.03.12/outbox.cif.g09.slc.cpg/sg65_23_cif.got.tgz:45167.got - 2010.04.10 20:52:16.
