data_PCOD8266563
_publ_section_title
;
Structure prediction by ZEFSAII (Michael W. Deem and Ramdas Pophale) SiO2 
 PCOD8266563
Probable space group: C M M M
;
_chemical_formula_sum "Si O2"
_cell_formula_units_Z 112
_cell_length_a 14.213580
_cell_length_b 25.671183
_cell_length_c 17.729992
_cell_angle_alpha 90.000000
_cell_angle_beta 90.000000
_cell_angle_gamma 90.000000
_cell_volume 6469.309078
_symmetry_space_group_name_H-M "C M M M"
_symmetry_group_IT_number 65
_symmetry_cell_setting 'orthorhombic'
loop_
_space_group_symop_operation_xyz
x,y,z
-x,-y,z
x,-y,-z
-x,y,-z
-x,-y,-z
x,y,-z
-x,y,z
x,-y,z
1/2+x,1/2+y,z
1/2-x,1/2-y,z
1/2+x,1/2-y,-z
1/2-x,1/2+y,-z
1/2-x,1/2-y,-z
1/2+x,1/2+y,-z
1/2-x,1/2+y,z
1/2+x,1/2-y,z
loop_
_atom_site_type_symbol
_atom_site_label
_atom_site_fract_x
_atom_site_fract_y
_atom_site_fract_z
Si Si1 0.392269 0.330054 0.269224
Si Si2 0.605806 0.394899 0.586498
Si Si3 0.285001 0.058860 0.641159
Si Si4 0.107148 0.348729 0.582636
Si Si5 0.106879 0.560622 0.087290
Si Si6 0.611257 0.787936 0.725417
Si Si7 0.716497 0.879941 0.791030
O O1 0.500000 0.336411 0.242185
O O2 0.381511 0.345404 0.357631
O O3 0.354856 0.271053 0.262011
O O4 0.327699 0.365811 0.214553
O O5 0.628288 0.377958 0.500000
O O6 0.500000 0.417164 0.592120
O O7 0.675081 0.439795 0.617156
O O8 0.338489 0.096533 0.583586
O O9 0.306999 0.079082 0.725134
O O10 0.321969 0.000000 0.634257
O O11 0.118743 0.323598 0.500000
O O12 0.146045 0.307184 0.642904
O O13 0.000000 0.362137 0.601647
O O14 0.126526 0.500000 0.101115
O O15 0.186386 0.593429 0.131018
O O16 0.000000 0.574273 0.113786
O O17 0.118478 0.574852 0.000000
O O18 0.500000 0.790523 0.733679
O O19 0.657429 0.826495 0.785865
#
# Coordination Sequence:
#
# PCOD8266563 Si02
#       7
#    16  16  16  16  16  16  16
#     4   9  18  31  47  68  94 126 164 202 240 282
#     4   9  18  31  45  62  84 113 157 211 255 284
#     4  10  20  31  43  61  86 118 154 190 233 287
#     4   9  18  30  42  60  87 118 155 198 240 283
#     4   9  18  33  55  83 108 126 148 182 225 272
#     4   9  17  29  46  68  92 121 158 198 239 283
#     4  10  18  31  50  71  96 124 153 189 233 280
#
# _framework density 17.312512999999999
#
# number of rings (size 3 to 8) (size 9 to 14) (size 15 to 20)
#    0.000    2.714    0.000    2.143    0.000    2.857 
#    0.000    4.286    0.000    8.571    0.000    3.000 
#    0.000    0.000    0.000    0.000    0.000    0.000 
#
# Total GULP energy -694094.283433 kJ/mol
# GULP energy per Si atom -12394.540776 kJ/mol
# Density = 1.727311 g / cm^3
# Si number density = 17.312513 Si / 1000 Ang^3
#
#
#
# Elastic Constant Matrix: (Units=GPa)
#
#
# Indices 1 2 3 4 5 6 
#
# 1 57.0940 34.2058 37.2515 0.0000 0.0000 0.0000
# 2 34.2058 80.3781 36.9444 0.0000 0.0000 0.0000
# 3 37.2515 36.9444 78.8753 0.0000 0.0000 0.0000
# 4 0.0000 0.0000 0.0000 18.9994 0.0000 0.0000
# 5 0.0000 0.0000 0.0000 0.0000 25.0614 0.0000
# 6 0.0000 0.0000 0.0000 0.0000 0.0000 24.7394
#
#
#
# Elastic Compliance Matrix: (Units=1/GPa)
#
#
# Indices 1 2 3 4 5 6 
#
# 1 0.028532 -0.007580 -0.009925 0.000000 0.000000 0.000000
# 2 -0.007580 0.017868 -0.004789 0.000000 0.000000 0.000000
# 3 -0.009925 -0.004789 0.019609 0.000000 0.000000 0.000000
# 4 0.000000 0.000000 0.000000 0.052633 0.000000 0.000000
# 5 0.000000 0.000000 0.000000 0.000000 0.039902 0.000000
# 6 0.000000 0.000000 0.000000 0.000000 0.000000 0.040421
#
#
# Mechanical properties :
#
#
# Convention : Reuss Voigt Hill
#
# Bulk Modulus (GPa) = 46.68423 48.12786 47.40605
# Shear Modulus (GPa) = 19.94460 20.95641 20.45051
#
# Velocity S-wave (km/s) = 3.39784 3.48297 3.44067
# Velocity P-wave (km/s) = 6.51291 6.63585 6.57467
#
# Compressibility (1/GPa) = 0.02142051
#
# Stress axis : x y z
#
# Youngs Moduli (GPa) = 35.04849 55.96463 50.99776
#
# Poissons Ratio (x) = 0.42423 0.50613
# Poissons Ratio (y) = 0.26568 0.24424
# Poissons Ratio (z) = 0.34784 0.26803
#
# Static dielectric constant tensor:
#      x y z
#    x 3.367340 0.000000 0.000000 
#    y 0.000000 3.129300 0.000000 
#    z 0.000000 0.000000 2.929290 
# 
# 
# High freq. dielectric constant tensor:
#      x y z
#    x 1.677560 0.000000 0.000000 
#    y 0.000000 1.657680 0.000000 
#    z 0.000000 0.000000 1.633170 
# 
# From -- ./inp_files/41130.got.cif
#   From: 2010.03.12/outbox.cif.g09.slc.cpg/sg65_21_cif.got.tgz:41130.got - 2010.04.10 20:52:16.
