data_PCOD8266763
_publ_section_title
;
Structure prediction by ZEFSAII (Michael W. Deem and Ramdas Pophale) SiO2 
 PCOD8266763
Probable space group: C M M M
;
_chemical_formula_sum "Si O2"
_cell_formula_units_Z 104
_cell_length_a 8.765642
_cell_length_b 28.849029
_cell_length_c 23.113090
_cell_angle_alpha 90.000000
_cell_angle_beta 90.000000
_cell_angle_gamma 90.000000
_cell_volume 5844.844215
_symmetry_space_group_name_H-M "C M M M"
_symmetry_group_IT_number 65
_symmetry_cell_setting 'orthorhombic'
loop_
_space_group_symop_operation_xyz
x,y,z
-x,-y,z
x,-y,-z
-x,y,-z
-x,-y,-z
x,y,-z
-x,y,z
x,-y,z
1/2+x,1/2+y,z
1/2-x,1/2-y,z
1/2+x,1/2-y,-z
1/2-x,1/2+y,-z
1/2-x,1/2-y,-z
1/2+x,1/2+y,-z
1/2-x,1/2+y,z
1/2+x,1/2-y,z
loop_
_atom_site_type_symbol
_atom_site_label
_atom_site_fract_x
_atom_site_fract_y
_atom_site_fract_z
Si Si1 0.679955 0.145405 0.934703
Si Si2 0.181622 0.198771 0.500000
Si Si3 0.179224 0.550395 0.113869
Si Si4 0.822215 0.200993 0.832248
Si Si5 0.673518 0.551188 0.234341
Si Si6 0.320715 0.800289 0.615689
Si Si7 0.174919 0.146171 0.282996
O O1 0.500000 0.146677 0.923871
O O2 0.744234 0.093182 0.923610
O O3 0.756165 0.181960 0.892111
O O4 0.722101 0.159721 0.000000
O O5 0.250000 0.250000 0.500000
O O6 0.245394 0.175442 0.441207
O O7 0.000000 0.198527 0.500000
O O8 0.247975 0.500000 0.094344
O O9 0.215555 0.559362 0.180744
O O10 0.000000 0.548491 0.105922
O O11 0.750000 0.250000 0.816157
O O12 0.784654 0.165958 0.780206
O O13 0.000000 0.208088 0.840862
O O14 0.500000 0.556109 0.211507
O O15 0.700560 0.500000 0.261926
O O16 0.704620 0.590754 0.282140
O O17 0.500000 0.794844 0.606174
O O18 0.250000 0.750000 0.627944
O O19 0.288205 0.832775 0.670094
O O20 0.000000 0.157989 0.299531
#
# Coordination Sequence:
#
# PCOD8266763 Si02
#       7
#    16   8  16  16  16  16  16
#     4  10  21  36  53  73  98 129 166 207 253 308
#     4  10  18  32  52  74 107 146 181 218 254 295
#     4   9  17  30  50  75 101 128 159 198 248 306
#     4  11  23  38  55  74  97 129 166 212 259 307
#     4   9  17  31  52  76 103 133 164 202 250 304
#     4  11  21  33  51  77 109 145 181 216 254 298
#     4  10  20  34  52  78 106 134 170 209 254 303
#
# _framework density 17.79346
#
# number of rings (size 3 to 8) (size 9 to 14) (size 15 to 20)
#    0.000    2.000    1.538    3.923    0.000    4.000 
#    0.000    1.538    0.000    0.000    0.000    3.769 
#    0.000    4.308    0.000    0.000    0.000    0.000 
#
# Total GULP energy -644654.169602 kJ/mol
# GULP energy per Si atom -12397.195569 kJ/mol
# Density = 1.775296 g / cm^3
# Si number density = 17.793460 Si / 1000 Ang^3
#
#
#
# Elastic Constant Matrix: (Units=GPa)
#
#
# Indices 1 2 3 4 5 6 
#
# 1 75.1055 32.6955 38.3153 0.0000 0.0000 0.0000
# 2 32.6955 98.7714 38.9398 0.0000 0.0000 0.0000
# 3 38.3153 38.9398 95.9645 0.0000 0.0000 0.0000
# 4 0.0000 0.0000 0.0000 14.2428 0.0000 0.0000
# 5 0.0000 0.0000 0.0000 0.0000 28.1210 0.0000
# 6 0.0000 0.0000 0.0000 0.0000 0.0000 19.3326
#
#
#
# Elastic Compliance Matrix: (Units=1/GPa)
#
#
# Indices 1 2 3 4 5 6 
#
# 1 0.017774 -0.003673 -0.005606 0.000000 0.000000 0.000000
# 2 -0.003673 0.012812 -0.003732 0.000000 0.000000 0.000000
# 3 -0.005606 -0.003732 0.014173 0.000000 0.000000 0.000000
# 4 0.000000 0.000000 0.000000 0.070211 0.000000 0.000000
# 5 0.000000 0.000000 0.000000 0.000000 0.035561 0.000000
# 6 0.000000 0.000000 0.000000 0.000000 0.000000 0.051726
#
#
# Mechanical properties :
#
#
# Convention : Reuss Voigt Hill
#
# Bulk Modulus (GPa) = 53.37334 54.41583 53.89458
# Shear Modulus (GPa) = 21.31982 22.99866 22.15924
#
# Velocity S-wave (km/s) = 3.46523 3.59908 3.53279
# Velocity P-wave (km/s) = 6.78761 6.92239 6.85533
#
# Compressibility (1/GPa) = 0.01873595
#
# Stress axis : x y z
#
# Youngs Moduli (GPa) = 56.26344 78.05394 70.55648
#
# Poissons Ratio (x) = 0.28672 0.39552
# Poissons Ratio (y) = 0.20668 0.26331
# Poissons Ratio (z) = 0.31540 0.29129
#
# Static dielectric constant tensor:
#      x y z
#    x 3.272800 0.000000 0.000000 
#    y 0.000000 3.480000 0.000000 
#    z 0.000000 0.000000 3.366600 
# 
# 
# High freq. dielectric constant tensor:
#      x y z
#    x 1.688210 0.000000 0.000000 
#    y 0.000000 1.683230 0.000000 
#    z 0.000000 0.000000 1.670490 
# 
# From -- ./inp_files/60788.got.cif
#   From: 2010.03.12/outbox.cif.g09.slc.cpg/sg65_31_cif.got.tgz:60788.got - 2010.04.10 20:52:16.
