data_PCOD8266918
_publ_section_title
;
Structure prediction by ZEFSAII (Michael W. Deem and Ramdas Pophale) SiO2 
 PCOD8266918
Probable space group: C M M M
;
_chemical_formula_sum "Si O2"
_cell_formula_units_Z 88
_cell_length_a 9.104060
_cell_length_b 23.363415
_cell_length_c 22.792721
_cell_angle_alpha 90.000000
_cell_angle_beta 90.000000
_cell_angle_gamma 90.000000
_cell_volume 4848.055791
_symmetry_space_group_name_H-M "C M M M"
_symmetry_group_IT_number 65
_symmetry_cell_setting 'orthorhombic'
loop_
_space_group_symop_operation_xyz
x,y,z
-x,-y,z
x,-y,-z
-x,y,-z
-x,-y,-z
x,y,-z
-x,y,z
x,-y,z
1/2+x,1/2+y,z
1/2-x,1/2-y,z
1/2+x,1/2-y,-z
1/2-x,1/2+y,-z
1/2-x,1/2-y,-z
1/2+x,1/2+y,-z
1/2-x,1/2+y,z
1/2+x,1/2-y,z
loop_
_atom_site_type_symbol
_atom_site_label
_atom_site_fract_x
_atom_site_fract_y
_atom_site_fract_z
Si Si1 0.673857 0.811093 0.500000
Si Si2 0.827036 0.894710 0.185592
Si Si3 0.673677 0.564391 0.936260
Si Si4 0.333741 0.500000 0.363574
Si Si5 0.168971 0.808650 0.718388
Si Si6 0.332534 0.375052 0.601653
Si Si7 0.827031 0.500000 0.754770
O O1 0.500000 0.802876 0.500000
O O2 0.750000 0.750000 0.500000
O O3 0.720692 0.845529 0.557550
O O4 0.779935 0.892793 0.116614
O O5 0.785543 0.835692 0.218564
O O6 0.000000 0.907611 0.192886
O O7 0.737787 0.944522 0.215373
O O8 0.500000 0.562019 0.939651
O O9 0.732538 0.500000 0.923252
O O10 0.734969 0.585660 0.000000
O O11 0.500000 0.500000 0.337100
O O12 0.310811 0.556558 0.402968
O O13 0.213629 0.500000 0.313177
O O14 0.250000 0.750000 0.706316
O O15 0.205409 0.854300 0.667459
O O16 0.000000 0.792571 0.718324
O O17 0.500000 0.358389 0.584997
O O18 0.000000 0.500000 0.762022
#
# Coordination Sequence:
#
# PCOD8266918 Si02
#       7
#     8  16  16   8  16  16   8
#     4  12  26  43  62  83 113 150 190 230 269 312
#     4  10  18  33  54  74 104 145 181 217 266 325
#     4   8  13  22  44  77 103 127 170 225 267 307
#     4  10  20  39  63  85 114 146 177 213 263 332
#     4  10  21  35  55  79 104 138 180 225 270 313
#     4  10  21  39  63  87 110 141 181 221 270 324
#     4  12  22  30  48  82 116 143 174 216 269 322
#
# _framework density 18.151605
#
# number of rings (size 3 to 8) (size 9 to 14) (size 15 to 20)
#    0.000    2.000    2.727    2.727    0.000    4.000 
#    0.000    1.818    0.000    1.636    0.000    0.000 
#    0.000    0.000    0.000    0.000    0.000    0.000 
#
# Total GULP energy -545400.419038 kJ/mol
# GULP energy per Si atom -12395.464069 kJ/mol
# Density = 1.811029 g / cm^3
# Si number density = 18.151605 Si / 1000 Ang^3
#
#
#
# Elastic Constant Matrix: (Units=GPa)
#
#
# Indices 1 2 3 4 5 6 
#
# 1 66.3372 41.6004 34.8725 0.0000 0.0000 0.0000
# 2 41.6004 116.6019 46.7306 0.0000 0.0000 0.0000
# 3 34.8725 46.7306 117.4166 0.0000 0.0000 0.0000
# 4 0.0000 0.0000 0.0000 22.4277 0.0000 0.0000
# 5 0.0000 0.0000 0.0000 0.0000 12.6826 0.0000
# 6 0.0000 0.0000 0.0000 0.0000 0.0000 14.5503
#
#
#
# Elastic Compliance Matrix: (Units=1/GPa)
#
#
# Indices 1 2 3 4 5 6 
#
# 1 0.020773 -0.005876 -0.003831 0.000000 0.000000 0.000000
# 2 -0.005876 0.011866 -0.002977 0.000000 0.000000 0.000000
# 3 -0.003831 -0.002977 0.010839 0.000000 0.000000 0.000000
# 4 0.000000 0.000000 0.000000 0.044588 0.000000 0.000000
# 5 0.000000 0.000000 0.000000 0.000000 0.078848 0.000000
# 6 0.000000 0.000000 0.000000 0.000000 0.000000 0.068727
#
#
# Mechanical properties :
#
#
# Convention : Reuss Voigt Hill
#
# Bulk Modulus (GPa) = 55.21857 60.75140 57.98499
# Shear Modulus (GPa) = 18.72331 21.74227 20.23279
#
# Velocity S-wave (km/s) = 3.21518 3.46470 3.34227
# Velocity P-wave (km/s) = 6.65357 7.03897 6.84898
#
# Compressibility (1/GPa) = 0.01810985
#
# Stress axis : x y z
#
# Youngs Moduli (GPa) = 48.13877 84.27588 92.25576
#
# Poissons Ratio (x) = 0.49520 0.35344
# Poissons Ratio (y) = 0.28286 0.27467
# Poissons Ratio (z) = 0.18442 0.25092
#
# Static dielectric constant tensor:
#      x y z
#    x 3.119370 0.000000 0.000000 
#    y 0.000000 3.141860 0.000000 
#    z 0.000000 0.000000 3.780660 
# 
# 
# High freq. dielectric constant tensor:
#      x y z
#    x 1.676020 0.000000 0.000000 
#    y 0.000000 1.688880 0.000000 
#    z 0.000000 0.000000 1.711260 
# 
# From -- ./inp_files/67667.got.cif
#   From: 2010.03.12/outbox.cif.g09.slc.cpg/sg65_34_cif.got.tgz:67667.got - 2010.04.10 20:52:16.
