data_PCOD8266585
_publ_section_title
;
Structure prediction by ZEFSAII (Michael W. Deem and Ramdas Pophale) SiO2 
 PCOD8266585
Probable space group: C M M M
;
_chemical_formula_sum "Si O2"
_cell_formula_units_Z 96
_cell_length_a 20.049151
_cell_length_b 23.761513
_cell_length_c 11.901180
_cell_angle_alpha 90.000000
_cell_angle_beta 90.000000
_cell_angle_gamma 90.000000
_cell_volume 5669.700279
_symmetry_space_group_name_H-M "C M M M"
_symmetry_group_IT_number 65
_symmetry_cell_setting 'orthorhombic'
loop_
_space_group_symop_operation_xyz
x,y,z
-x,-y,z
x,-y,-z
-x,y,-z
-x,-y,-z
x,y,-z
-x,y,z
x,-y,z
1/2+x,1/2+y,z
1/2-x,1/2-y,z
1/2+x,1/2-y,-z
1/2-x,1/2+y,-z
1/2-x,1/2-y,-z
1/2+x,1/2+y,-z
1/2-x,1/2+y,z
1/2+x,1/2-y,z
loop_
_atom_site_type_symbol
_atom_site_label
_atom_site_fract_x
_atom_site_fract_y
_atom_site_fract_z
Si Si1 0.685593 0.433676 0.723858
Si Si2 0.190958 0.566227 0.128893
Si Si3 0.903896 0.433039 0.500000
Si Si4 0.921098 0.265070 0.376919
Si Si5 0.244953 0.566441 0.500000
Si Si6 0.574064 0.877396 0.269658
Si Si7 0.422239 0.639586 0.368270
O O1 0.670850 0.500000 0.726715
O O2 0.736417 0.415867 0.823121
O O3 0.719304 0.411536 0.610258
O O4 0.615309 0.400977 0.721457
O O5 0.182203 0.500000 0.145567
O O6 0.128558 0.593647 0.191489
O O7 0.188896 0.584902 0.000000
O O8 0.911345 0.500000 0.500000
O O9 0.829041 0.410264 0.500000
O O10 0.937043 0.408932 0.612082
O O11 0.890823 0.279277 0.500000
O O12 0.899899 0.313372 0.289029
O O13 0.897460 0.202940 0.339547
O O14 0.000000 0.263897 0.387939
O O15 0.243214 0.500000 0.500000
O O16 0.500000 0.877727 0.212348
O O17 0.408232 0.625045 0.500000
O O18 0.500000 0.631766 0.342727
#
# Coordination Sequence:
#
# PCOD8266585 Si02
#       7
#    16  16   8  16   8  16  16
#     4  10  18  31  51  73 102 134 162 198 247 299
#     4  10  22  38  53  69  93 131 174 210 248 293
#     4  11  19  28  44  71 103 129 157 197 249 303
#     4   8  15  29  46  69 103 138 164 188 233 297
#     4   9  16  27  44  67  96 132 159 186 237 299
#     4  11  20  31  50  72  98 131 164 205 248 290
#     4   9  17  29  49  78 109 134 157 192 240 298
#
# _framework density 16.932112
#
# number of rings (size 3 to 8) (size 9 to 14) (size 15 to 20)
#    0.000    2.333    3.333    1.750    0.000    2.333 
#    0.000    2.500    0.000    5.500    0.000    4.667 
#    0.000    0.000    0.000    0.000    0.000    0.000 
#
# Total GULP energy -594777.697064 kJ/mol
# GULP energy per Si atom -12391.202022 kJ/mol
# Density = 1.689357 g / cm^3
# Si number density = 16.932112 Si / 1000 Ang^3
#
#
#
# Elastic Constant Matrix: (Units=GPa)
#
#
# Indices 1 2 3 4 5 6 
#
# 1 95.8423 46.7581 46.0236 0.0000 0.0000 0.0000
# 2 46.7581 77.8230 39.6642 0.0000 0.0000 0.0000
# 3 46.0236 39.6642 92.7076 0.0000 0.0000 0.0000
# 4 0.0000 0.0000 0.0000 15.0354 0.0000 0.0000
# 5 0.0000 0.0000 0.0000 0.0000 17.2870 0.0000
# 6 0.0000 0.0000 0.0000 0.0000 0.0000 9.1404
#
#
#
# Elastic Compliance Matrix: (Units=1/GPa)
#
#
# Indices 1 2 3 4 5 6 
#
# 1 0.016406 -0.007297 -0.005022 0.000000 0.000000 0.000000
# 2 -0.007297 0.019679 -0.004797 0.000000 0.000000 0.000000
# 3 -0.005022 -0.004797 0.015332 0.000000 0.000000 0.000000
# 4 0.000000 0.000000 0.000000 0.066510 0.000000 0.000000
# 5 0.000000 0.000000 0.000000 0.000000 0.057847 0.000000
# 6 0.000000 0.000000 0.000000 0.000000 0.000000 0.109405
#
#
# Mechanical properties :
#
#
# Convention : Reuss Voigt Hill
#
# Bulk Modulus (GPa) = 58.19398 59.02942 58.61170
# Shear Modulus (GPa) = 15.37808 17.22103 16.29956
#
# Velocity S-wave (km/s) = 3.01694 3.19260 3.10601
# Velocity P-wave (km/s) = 6.82492 6.96623 6.89594
#
# Compressibility (1/GPa) = 0.01718391
#
# Stress axis : x y z
#
# Youngs Moduli (GPa) = 60.95498 50.81615 65.22231
#
# Poissons Ratio (x) = 0.37081 0.32757
# Poissons Ratio (y) = 0.44480 0.31286
# Poissons Ratio (z) = 0.30614 0.24376
#
# Static dielectric constant tensor:
#      x y z
#    x 3.150680 0.000000 0.000000 
#    y 0.000000 3.291690 0.000000 
#    z 0.000000 0.000000 3.009810 
# 
# 
# High freq. dielectric constant tensor:
#      x y z
#    x 1.650250 0.000000 0.000000 
#    y 0.000000 1.648320 0.000000 
#    z 0.000000 0.000000 1.614860 
# 
# From -- ./inp_files/27425.got.cif
#   From: 2010.03.12/outbox.cif.g09.slc.cpg/sg65_14_cif.got.tgz:27425.got - 2010.04.10 20:52:16.
