data_PCOD8266468
_publ_section_title
;
Structure prediction by ZEFSAII (Michael W. Deem and Ramdas Pophale) SiO2 
 PCOD8266468
Probable space group: C M M M
;
_chemical_formula_sum "Si O2"
_cell_formula_units_Z 64
_cell_length_a 18.632092
_cell_length_b 8.816667
_cell_length_c 20.920787
_cell_angle_alpha 90.000000
_cell_angle_beta 90.000000
_cell_angle_gamma 90.000000
_cell_volume 3436.719411
_symmetry_space_group_name_H-M "C M M M"
_symmetry_group_IT_number 65
_symmetry_cell_setting 'orthorhombic'
loop_
_space_group_symop_operation_xyz
x,y,z
-x,-y,z
x,-y,-z
-x,y,-z
-x,-y,-z
x,y,-z
-x,y,z
x,-y,z
1/2+x,1/2+y,z
1/2-x,1/2-y,z
1/2+x,1/2-y,-z
1/2-x,1/2+y,-z
1/2-x,1/2-y,-z
1/2+x,1/2+y,-z
1/2-x,1/2+y,z
1/2+x,1/2-y,z
loop_
_atom_site_type_symbol
_atom_site_label
_atom_site_fract_x
_atom_site_fract_y
_atom_site_fract_z
Si Si1 0.327814 0.320580 0.127552
Si Si2 0.417610 0.676637 0.251441
Si Si3 0.825993 0.323856 0.500000
Si Si4 0.170783 0.318911 0.000000
Si Si5 0.828155 0.321794 0.361672
O O1 0.320213 0.500000 0.117558
O O2 0.250000 0.250000 0.140908
O O3 0.378024 0.277181 0.186485
O O4 0.365403 0.245695 0.064738
O O5 0.500000 0.724327 0.244114
O O6 0.408562 0.500000 0.265508
O O7 0.384576 0.765759 0.310354
O O8 0.812291 0.500000 0.500000
O O9 0.750000 0.250000 0.500000
O O10 0.862518 0.278664 0.432049
O O11 0.250000 0.250000 0.000000
O O12 0.170766 0.500000 0.000000
O O13 0.818103 0.500000 0.353977
O O14 0.750000 0.250000 0.350675
#
# Coordination Sequence:
#
# PCOD8266468 Si02
#       5
#    16  16   8   8  16
#     4  10  19  33  54  77 102 132 167 208 254 304
#     4  10  22  38  53  73 104 140 177 216 257 304
#     4   8  16  30  49  76 105 131 165 209 257 306
#     4  10  18  30  51  78 105 129 161 207 253 300
#     4  10  19  33  55  80 105 135 171 213 259 308
#
# _framework density 18.622409000000001
#
# number of rings (size 3 to 8) (size 9 to 14) (size 15 to 20)
#    0.000    2.250    0.000    4.875    0.000    5.500 
#    0.000    1.250    0.000    7.500    0.000    0.000 
#    0.000    0.000    0.000    0.000    0.000    0.000 
#
# Total GULP energy -396541.606166 kJ/mol
# GULP energy per Si atom -12391.925193 kJ/mol
# Density = 1.858002 g / cm^3
# Si number density = 18.622409 Si / 1000 Ang^3
#
#
#
# Elastic Constant Matrix: (Units=GPa)
#
#
# Indices 1 2 3 4 5 6 
#
# 1 89.6103 42.2342 78.4003 0.0000 0.0000 0.0000
# 2 42.2342 86.0591 81.2438 0.0000 0.0000 0.0000
# 3 78.4003 81.2438 207.5613 0.0000 0.0000 0.0000
# 4 0.0000 0.0000 0.0000 31.3580 0.0000 0.0000
# 5 0.0000 0.0000 0.0000 0.0000 -8.6172 0.0000
# 6 0.0000 0.0000 0.0000 0.0000 0.0000 22.4702
#
#
#
# Elastic Compliance Matrix: (Units=1/GPa)
#
#
# Indices 1 2 3 4 5 6 
#
# 1 0.017379 -0.003698 -0.005117 0.000000 0.000000 0.000000
# 2 -0.003698 0.019217 -0.006125 0.000000 0.000000 0.000000
# 3 -0.005117 -0.006125 0.009148 0.000000 0.000000 0.000000
# 4 0.000000 0.000000 0.000000 0.031890 0.000000 0.000000
# 5 0.000000 0.000000 0.000000 0.000000 -0.116047 0.000000
# 6 0.000000 0.000000 0.000000 0.000000 0.000000 0.044503
#
#
# Mechanical properties :
#
#
# Convention : Reuss Voigt Hill
#
# Bulk Modulus (GPa) = 63.03620 87.44304 75.23962
# Shear Modulus (GPa) = 121.18428 21.13236 71.15832
#
# Velocity S-wave (km/s) = 8.07562 3.37231 6.18822
# Velocity P-wave (km/s) = 10.99443 7.88803 9.56814
#
# Compressibility (1/GPa) = 0.01586390
#
# Stress axis : x y z
#
# Youngs Moduli (GPa) = 57.53956 52.03644 109.31246
#
# Poissons Ratio (x) = 0.19245 0.55934
# Poissons Ratio (y) = 0.21281 0.66955
# Poissons Ratio (z) = 0.29442 0.31873
#
# Static dielectric constant tensor:
#      x y z
#    x 3.078800 0.000000 0.000000 
#    y 0.000000 3.487580 0.000000 
#    z 0.000000 0.000000 4.520010 
# 
# 
# High freq. dielectric constant tensor:
#      x y z
#    x 1.677670 0.000000 0.000000 
#    y 0.000000 1.732550 0.000000 
#    z 0.000000 0.000000 1.755100 
# 
# From -- ./inp_files/64254.got.cif
#   From: 2010.03.12/outbox.cif.g09.slc.cpg/sg65_33_cif.got.tgz:64254.got - 2010.04.10 20:52:16.
