data_PCOD8266569
_publ_section_title
;
Structure prediction by ZEFSAII (Michael W. Deem and Ramdas Pophale) SiO2 
 PCOD8266569
Probable space group: C M M M
;
_chemical_formula_sum "Si O2"
_cell_formula_units_Z 80
_cell_length_a 13.176585
_cell_length_b 19.168587
_cell_length_c 18.271402
_cell_angle_alpha 90.000000
_cell_angle_beta 90.000000
_cell_angle_gamma 90.000000
_cell_volume 4614.927058
_symmetry_space_group_name_H-M "C M M M"
_symmetry_group_IT_number 65
_symmetry_cell_setting 'orthorhombic'
loop_
_space_group_symop_operation_xyz
x,y,z
-x,-y,z
x,-y,-z
-x,y,-z
-x,-y,-z
x,y,-z
-x,y,z
x,-y,z
1/2+x,1/2+y,z
1/2-x,1/2-y,z
1/2+x,1/2-y,-z
1/2-x,1/2+y,-z
1/2-x,1/2-y,-z
1/2+x,1/2+y,-z
1/2-x,1/2+y,z
1/2+x,1/2-y,z
loop_
_atom_site_type_symbol
_atom_site_label
_atom_site_fract_x
_atom_site_fract_y
_atom_site_fract_z
Si Si1 0.884802 0.580190 0.358346
Si Si2 0.619854 0.077900 0.918662
Si Si3 0.385944 0.697970 0.271352
Si Si4 0.208787 0.173448 0.579242
Si Si5 0.316512 0.150185 0.778002
O O1 0.871824 0.500000 0.379754
O O2 0.804203 0.623820 0.404405
O O3 0.862148 0.588472 0.271564
O O4 0.000000 0.605048 0.375747
O O5 0.500000 0.077412 0.917486
O O6 0.657909 0.136499 0.862316
O O7 0.659953 0.000000 0.898679
O O8 0.658463 0.098621 0.000000
O O9 0.500000 0.680262 0.246235
O O10 0.374746 0.675039 0.356484
O O11 0.363309 0.779269 0.256425
O O12 0.306013 0.652528 0.225112
O O13 0.161724 0.150938 0.500000
O O14 0.250000 0.250000 0.572207
#
# Coordination Sequence:
#
# PCOD8266569 Si02
#       5
#    16  16  16  16  16
#     4  10  19  31  51  79 106 131 163 210 266 313
#     4   9  17  29  49  78 106 131 159 192 240 304
#     4  10  19  33  51  72  96 128 175 215 245 292
#     4  10  20  34  49  70  99 135 173 205 250 310
#     4  10  18  31  50  74 101 133 164 204 251 296
#
# _framework density 17.335052999999998
#
# number of rings (size 3 to 8) (size 9 to 14) (size 15 to 20)
#    0.000    2.200    4.000    3.000    0.000    2.800 
#    0.000    5.000    0.000   16.800    0.000    7.000 
#    0.000    0.000    0.000    0.000    0.000    0.000 
#
# Total GULP energy -495634.054657 kJ/mol
# GULP energy per Si atom -12390.851366 kJ/mol
# Density = 1.729560 g / cm^3
# Si number density = 17.335053 Si / 1000 Ang^3
#
#
#
# Elastic Constant Matrix: (Units=GPa)
#
#
# Indices 1 2 3 4 5 6 
#
# 1 98.0534 34.5793 27.3891 0.0000 0.0000 0.0000
# 2 34.5793 65.6762 36.5441 0.0000 0.0000 0.0000
# 3 27.3891 36.5441 124.5558 0.0000 0.0000 0.0000
# 4 0.0000 0.0000 0.0000 19.7735 0.0000 0.0000
# 5 0.0000 0.0000 0.0000 0.0000 15.7339 0.0000
# 6 0.0000 0.0000 0.0000 0.0000 0.0000 21.9259
#
#
#
# Elastic Compliance Matrix: (Units=1/GPa)
#
#
# Indices 1 2 3 4 5 6 
#
# 1 0.012625 -0.006098 -0.000987 0.000000 0.000000 0.000000
# 2 -0.006098 0.021142 -0.004862 0.000000 0.000000 0.000000
# 3 -0.000987 -0.004862 0.009672 0.000000 0.000000 0.000000
# 4 0.000000 0.000000 0.000000 0.050573 0.000000 0.000000
# 5 0.000000 0.000000 0.000000 0.000000 0.063557 0.000000
# 6 0.000000 0.000000 0.000000 0.000000 0.000000 0.045608
#
#
# Mechanical properties :
#
#
# Convention : Reuss Voigt Hill
#
# Bulk Modulus (GPa) = 51.16397 53.92337 52.54367
# Shear Modulus (GPa) = 21.40540 24.13819 22.77179
#
# Velocity S-wave (km/s) = 3.51779 3.73560 3.62833
# Velocity P-wave (km/s) = 6.78812 7.05552 6.92311
#
# Compressibility (1/GPa) = 0.01954500
#
# Stress axis : x y z
#
# Youngs Moduli (GPa) = 79.20989 47.29860 103.39017
#
# Poissons Ratio (x) = 0.28842 0.10205
# Poissons Ratio (y) = 0.48301 0.50270
# Poissons Ratio (z) = 0.07818 0.22997
#
# Static dielectric constant tensor:
#      x y z
#    x 3.141230 0.000000 0.000000 
#    y 0.000000 3.431140 0.000000 
#    z 0.000000 0.000000 3.729980 
# 
# 
# High freq. dielectric constant tensor:
#      x y z
#    x 1.650990 0.000000 0.000000 
#    y 0.000000 1.654390 0.000000 
#    z 0.000000 0.000000 1.668540 
# 
# From -- ./inp_files/52875.got.cif
#   From: 2010.03.12/outbox.cif.g09.slc.cpg/sg65_27_cif.got.tgz:52875.got - 2010.04.10 20:52:16.
