data_PCOD8266862
_publ_section_title
;
Structure prediction by ZEFSAII (Michael W. Deem and Ramdas Pophale) SiO2 
 PCOD8266862
Probable space group: C M M M
;
_chemical_formula_sum "Si O2"
_cell_formula_units_Z 96
_cell_length_a 28.760967
_cell_length_b 9.254395
_cell_length_c 20.551814
_cell_angle_alpha 90.000000
_cell_angle_beta 90.000000
_cell_angle_gamma 90.000000
_cell_volume 5470.180750
_symmetry_space_group_name_H-M "C M M M"
_symmetry_group_IT_number 65
_symmetry_cell_setting 'orthorhombic'
loop_
_space_group_symop_operation_xyz
x,y,z
-x,-y,z
x,-y,-z
-x,y,-z
-x,-y,-z
x,y,-z
-x,y,z
x,-y,z
1/2+x,1/2+y,z
1/2-x,1/2-y,z
1/2+x,1/2-y,-z
1/2-x,1/2+y,-z
1/2-x,1/2-y,-z
1/2+x,1/2+y,-z
1/2-x,1/2+y,z
1/2+x,1/2-y,z
loop_
_atom_site_type_symbol
_atom_site_label
_atom_site_fract_x
_atom_site_fract_y
_atom_site_fract_z
Si Si1 0.705419 0.167732 0.115632
Si Si2 0.554544 0.331094 0.814143
Si Si3 0.206108 0.666568 0.734505
Si Si4 0.604887 0.170785 0.697060
Si Si5 0.552145 0.171568 0.571405
Si Si6 0.395342 0.833468 0.925956
O O1 0.750000 0.250000 0.085923
O O2 0.698278 0.210856 0.190744
O O3 0.658549 0.214897 0.078825
O O4 0.715481 0.000000 0.106166
O O5 0.500000 0.302288 0.808232
O O6 0.566542 0.500000 0.812403
O O7 0.579613 0.252983 0.754828
O O8 0.572147 0.266078 0.882063
O O9 0.218032 0.500000 0.727684
O O10 0.250000 0.750000 0.703938
O O11 0.159471 0.707727 0.695899
O O12 0.585398 0.229631 0.628352
O O13 0.596501 0.000000 0.707275
O O14 0.569270 0.225878 0.500000
O O15 0.500000 0.228892 0.584497
O O16 0.552144 0.000000 0.572240
O O17 0.399888 0.000000 0.902729
O O18 0.412128 0.814850 0.000000
#
# Coordination Sequence:
#
# PCOD8266862 Si02
#       6
#    16  16  16  16  16  16
#     4   9  17  31  49  73 101 127 160 203 249 300
#     4  11  24  38  52  74 103 132 166 210 256 302
#     4   9  17  29  47  72 100 129 164 205 250 296
#     4  10  18  32  55  79 102 133 172 211 249 295
#     4   8  14  25  45  77 110 134 162 206 256 298
#     4  10  21  38  57  75  98 130 169 211 253 301
#
# _framework density 17.549693999999999
#
# number of rings (size 3 to 8) (size 9 to 14) (size 15 to 20)
#    0.000    2.500    1.667    1.500    0.000    4.333 
#    0.000    1.667    0.000    1.000    0.000    2.333 
#    0.000    0.000    0.000    0.000    0.000    0.000 
#
# Total GULP energy -595131.104025 kJ/mol
# GULP energy per Si atom -12398.564667 kJ/mol
# Density = 1.750975 g / cm^3
# Si number density = 17.549694 Si / 1000 Ang^3
#
#
#
# Elastic Constant Matrix: (Units=GPa)
#
#
# Indices 1 2 3 4 5 6 
#
# 1 116.8445 54.2432 63.4971 0.0000 0.0000 0.0000
# 2 54.2432 57.0521 39.3992 0.0000 0.0000 0.0000
# 3 63.4971 39.3992 110.3328 0.0000 0.0000 0.0000
# 4 0.0000 0.0000 0.0000 8.7537 0.0000 0.0000
# 5 0.0000 0.0000 0.0000 0.0000 28.8026 0.0000
# 6 0.0000 0.0000 0.0000 0.0000 0.0000 30.1802
#
#
#
# Elastic Compliance Matrix: (Units=1/GPa)
#
#
# Indices 1 2 3 4 5 6 
#
# 1 0.017508 -0.012859 -0.005484 0.000000 0.000000 0.000000
# 2 -0.012859 0.032709 -0.004280 0.000000 0.000000 0.000000
# 3 -0.005484 -0.004280 0.013748 0.000000 0.000000 0.000000
# 4 0.000000 0.000000 0.000000 0.114237 0.000000 0.000000
# 5 0.000000 0.000000 0.000000 0.000000 0.034719 0.000000
# 6 0.000000 0.000000 0.000000 0.000000 0.000000 0.033134
#
#
# Mechanical properties :
#
#
# Convention : Reuss Voigt Hill
#
# Bulk Modulus (GPa) = 53.42051 66.50094 59.96072
# Shear Modulus (GPa) = 16.80437 22.01999 19.41218
#
# Velocity S-wave (km/s) = 3.09776 3.54605 3.32946
# Velocity P-wave (km/s) = 6.58031 7.39873 7.00148
#
# Compressibility (1/GPa) = 0.01871940
#
# Stress axis : x y z
#
# Youngs Moduli (GPa) = 57.11593 30.57235 72.73772
#
# Poissons Ratio (x) = 0.39313 0.39891
# Poissons Ratio (y) = 0.73445 0.31131
# Poissons Ratio (z) = 0.31324 0.13085
#
# Static dielectric constant tensor:
#      x y z
#    x 3.438260 0.000000 0.000000 
#    y 0.000000 3.089300 0.000000 
#    z 0.000000 0.000000 3.366220 
# 
# 
# High freq. dielectric constant tensor:
#      x y z
#    x 1.683430 0.000000 0.000000 
#    y 0.000000 1.655600 0.000000 
#    z 0.000000 0.000000 1.666210 
# 
# From -- ./inp_files/60173.got.cif
#   From: 2010.03.12/outbox.cif.g09.slc.cpg/sg65_31_cif.got.tgz:60173.got - 2010.04.10 20:52:16.
