data_PCOD8266025
_publ_section_title
;
Structure prediction by ZEFSAII (Michael W. Deem and Ramdas Pophale) SiO2 
 PCOD8266025
Probable space group: C M M M
;
_chemical_formula_sum "Si O2"
_cell_formula_units_Z 112
_cell_length_a 23.907713
_cell_length_b 19.158584
_cell_length_c 14.378140
_cell_angle_alpha 90.000000
_cell_angle_beta 90.000000
_cell_angle_gamma 90.000000
_cell_volume 6585.733451
_symmetry_space_group_name_H-M "C M M M"
_symmetry_group_IT_number 65
_symmetry_cell_setting 'orthorhombic'
loop_
_space_group_symop_operation_xyz
x,y,z
-x,-y,z
x,-y,-z
-x,y,-z
-x,-y,-z
x,y,-z
-x,y,z
x,-y,z
1/2+x,1/2+y,z
1/2-x,1/2-y,z
1/2+x,1/2-y,-z
1/2-x,1/2+y,-z
1/2-x,1/2-y,-z
1/2+x,1/2+y,-z
1/2-x,1/2+y,z
1/2+x,1/2-y,z
loop_
_atom_site_type_symbol
_atom_site_label
_atom_site_fract_x
_atom_site_fract_y
_atom_site_fract_z
Si Si1 0.565170 0.672635 0.396596
Si Si2 0.064956 0.919866 0.768513
Si Si3 0.270259 0.921174 0.889529
Si Si4 0.855751 0.696628 0.893711
Si Si5 0.842890 0.854219 0.893543
Si Si6 0.933689 0.700494 0.272845
Si Si7 0.566495 0.923149 0.603012
O O1 0.592955 0.668346 0.500000
O O2 0.500000 0.686843 0.410168
O O3 0.575921 0.601391 0.339193
O O4 0.590198 0.735570 0.334521
O O5 0.101387 0.871915 0.836344
O O6 0.000000 0.906666 0.793968
O O7 0.081918 0.000000 0.780993
O O8 0.315573 0.864643 0.854440
O O9 0.209091 0.898463 0.852723
O O10 0.284245 0.000000 0.854445
O O11 0.269136 0.918356 0.000000
O O12 0.826395 0.772424 0.886497
O O13 0.911228 0.699755 0.831721
O O14 0.873629 0.680948 0.000000
O O15 0.855265 0.874869 0.000000
O O16 0.910373 0.631213 0.322622
O O17 0.000000 0.703773 0.265585
O O18 0.588551 0.903572 0.500000
O O19 0.500000 0.921187 0.601953
O O20 0.587915 0.000000 0.631497
#
# Coordination Sequence:
#
# PCOD8266025 Si02
#       7
#    16  16  16  16  16  16  16
#     4   9  17  30  47  67  94 129 165 199 236 280
#     4  10  20  32  47  73 105 131 159 195 237 289
#     4   9  18  33  52  72  93 121 163 211 249 280
#     4  10  20  32  48  71  99 130 164 203 240 281
#     4  10  19  33  52  72  98 132 165 197 237 284
#     4  10  18  29  46  69  98 133 166 195 236 290
#     4   8  14  25  42  65  91 119 156 203 247 282
#
# _framework density 17.006457999999999
#
# number of rings (size 3 to 8) (size 9 to 14) (size 15 to 20)
#    0.000    2.571    1.429    1.714    0.000    5.714 
#    0.000    3.571    0.000    0.000    0.000    7.000 
#    0.000    2.286    0.000    0.000    0.000    0.000 
#
# Total GULP energy -694057.854773 kJ/mol
# GULP energy per Si atom -12393.890264 kJ/mol
# Density = 1.696775 g / cm^3
# Si number density = 17.006458 Si / 1000 Ang^3
#
#
#
# Elastic Constant Matrix: (Units=GPa)
#
#
# Indices 1 2 3 4 5 6 
#
# 1 49.8382 33.2672 33.6881 0.0000 0.0000 0.0000
# 2 33.2672 111.5182 37.1279 0.0000 0.0000 0.0000
# 3 33.6881 37.1279 87.0025 0.0000 0.0000 0.0000
# 4 0.0000 0.0000 0.0000 25.1657 0.0000 0.0000
# 5 0.0000 0.0000 0.0000 0.0000 5.0246 0.0000
# 6 0.0000 0.0000 0.0000 0.0000 0.0000 23.0369
#
#
#
# Elastic Compliance Matrix: (Units=1/GPa)
#
#
# Indices 1 2 3 4 5 6 
#
# 1 0.030245 -0.005972 -0.009163 0.000000 0.000000 0.000000
# 2 -0.005972 0.011631 -0.002651 0.000000 0.000000 0.000000
# 3 -0.009163 -0.002651 0.016173 0.000000 0.000000 0.000000
# 4 0.000000 0.000000 0.000000 0.039737 0.000000 0.000000
# 5 0.000000 0.000000 0.000000 0.000000 0.199020 0.000000
# 6 0.000000 0.000000 0.000000 0.000000 0.000000 0.043409
#
#
# Mechanical properties :
#
#
# Convention : Reuss Voigt Hill
#
# Bulk Modulus (GPa) = 44.48833 50.72503 47.60668
# Shear Modulus (GPa) = 13.04536 20.26382 16.65459
#
# Velocity S-wave (km/s) = 2.77263 3.45561 3.13279
# Velocity P-wave (km/s) = 6.03874 6.76855 6.41404
#
# Compressibility (1/GPa) = 0.02247780
#
# Stress axis : x y z
#
# Youngs Moduli (GPa) = 33.06378 85.97490 61.83090
#
# Poissons Ratio (x) = 0.51343 0.56653
# Poissons Ratio (y) = 0.19745 0.16393
# Poissons Ratio (z) = 0.30295 0.22794
#
# Static dielectric constant tensor:
#      x y z
#    x 2.781330 0.000000 0.000000 
#    y 0.000000 3.510630 0.000000 
#    z 0.000000 0.000000 3.151220 
# 
# 
# High freq. dielectric constant tensor:
#      x y z
#    x 1.608830 0.000000 0.000000 
#    y 0.000000 1.674740 0.000000 
#    z 0.000000 0.000000 1.642290 
# 
# From -- ./inp_files/31053.got.cif
#   From: 2010.03.12/outbox.cif.g09.slc.cpg/sg65_16_cif.got.tgz:31053.got - 2010.04.10 20:52:16.
