data_PCOD8266821
_publ_section_title
;
Structure prediction by ZEFSAII (Michael W. Deem and Ramdas Pophale) SiO2 
 PCOD8266821
Probable space group: C M M M
;
_chemical_formula_sum "Si O2"
_cell_formula_units_Z 80
_cell_length_a 22.269832
_cell_length_b 14.378248
_cell_length_c 12.599815
_cell_angle_alpha 90.000000
_cell_angle_beta 90.000000
_cell_angle_gamma 90.000000
_cell_volume 4034.475472
_symmetry_space_group_name_H-M "C M M M"
_symmetry_group_IT_number 65
_symmetry_cell_setting 'orthorhombic'
loop_
_space_group_symop_operation_xyz
x,y,z
-x,-y,z
x,-y,-z
-x,y,-z
-x,-y,-z
x,y,-z
-x,y,z
x,-y,z
1/2+x,1/2+y,z
1/2-x,1/2-y,z
1/2+x,1/2-y,-z
1/2-x,1/2+y,-z
1/2-x,1/2-y,-z
1/2+x,1/2+y,-z
1/2-x,1/2+y,z
1/2+x,1/2-y,z
loop_
_atom_site_type_symbol
_atom_site_label
_atom_site_fract_x
_atom_site_fract_y
_atom_site_fract_z
Si Si1 0.430860 0.272905 0.196856
Si Si2 0.129932 0.395520 0.713811
Si Si3 0.428711 0.394867 0.000000
Si Si4 0.933019 0.610191 0.500000
Si Si5 0.748525 0.359519 0.618955
Si Si6 0.385473 0.604703 0.621290
O O1 0.500000 0.245273 0.178414
O O2 0.391861 0.177390 0.196717
O O3 0.406114 0.338914 0.103230
O O4 0.425353 0.328499 0.306775
O O5 0.107635 0.500000 0.742571
O O6 0.101648 0.356105 0.604547
O O7 0.201802 0.398100 0.700376
O O8 0.401866 0.500000 0.000000
O O9 0.500000 0.401358 0.000000
O O10 0.935567 0.500000 0.500000
O O11 0.000000 0.652603 0.500000
O O12 0.761355 0.398038 0.500000
O O13 0.750000 0.250000 0.619577
O O14 0.683848 0.393809 0.658722
O O15 0.390469 0.640522 0.500000
O O16 0.410344 0.500000 0.631821
#
# Coordination Sequence:
#
# PCOD8266821 Si02
#       6
#    16  16   8   8  16  16
#     4  11  23  38  59  85 113 146 190 239 287 342
#     4  11  21  34  54  81 117 158 192 230 278 331
#     4   9  20  42  67  84 103 143 197 243 284 341
#     4   9  18  30  45  72 113 159 197 222 259 325
#     4  10  18  32  53  78 113 158 201 234 270 327
#     4  10  21  35  54  83 117 150 185 233 291 345
#
# _framework density 19.829094999999999
#
# number of rings (size 3 to 8) (size 9 to 14) (size 15 to 20)
#    0.000    1.800    3.000    1.800    1.400    3.600 
#    0.000    1.500    0.000    4.200    0.000    2.800 
#    0.000    0.000    0.000    0.000    0.000    0.000 
#
# Total GULP energy -496032.273990 kJ/mol
# GULP energy per Si atom -12400.806850 kJ/mol
# Density = 1.978396 g / cm^3
# Si number density = 19.829095 Si / 1000 Ang^3
#
#
#
# Elastic Constant Matrix: (Units=GPa)
#
#
# Indices 1 2 3 4 5 6 
#
# 1 52.1348 4.8648 17.1290 0.0000 0.0000 0.0000
# 2 4.8648 123.0511 49.1135 0.0000 0.0000 0.0000
# 3 17.1290 49.1135 77.9351 0.0000 0.0000 0.0000
# 4 0.0000 0.0000 0.0000 23.3781 0.0000 0.0000
# 5 0.0000 0.0000 0.0000 0.0000 16.4726 0.0000
# 6 0.0000 0.0000 0.0000 0.0000 0.0000 23.6050
#
#
#
# Elastic Compliance Matrix: (Units=1/GPa)
#
#
# Indices 1 2 3 4 5 6 
#
# 1 0.020838 0.001342 -0.005425 0.000000 0.000000 0.000000
# 2 0.001342 0.010944 -0.007192 0.000000 0.000000 0.000000
# 3 -0.005425 -0.007192 0.018556 0.000000 0.000000 0.000000
# 4 0.000000 0.000000 0.000000 0.042775 0.000000 0.000000
# 5 0.000000 0.000000 0.000000 0.000000 0.060707 0.000000
# 6 0.000000 0.000000 0.000000 0.000000 0.000000 0.042364
#
#
# Mechanical properties :
#
#
# Convention : Reuss Voigt Hill
#
# Bulk Modulus (GPa) = 35.98778 43.92617 39.95698
# Shear Modulus (GPa) = 21.93007 24.82538 23.37772
#
# Velocity S-wave (km/s) = 3.32920 3.54215 3.43732
# Velocity P-wave (km/s) = 5.74164 6.23936 5.99567
#
# Compressibility (1/GPa) = 0.02778721
#
# Stress axis : x y z
#
# Youngs Moduli (GPa) = 47.98832 91.37363 53.89183
#
# Poissons Ratio (x) = -0.12259 0.29239
# Poissons Ratio (y) = -0.06438 0.38757
# Poissons Ratio (z) = 0.26036 0.65713
#
# Static dielectric constant tensor:
#      x y z
#    x 3.527230 0.000000 0.000000 
#    y 0.000000 3.600090 0.000000 
#    z 0.000000 0.000000 3.312830 
# 
# 
# High freq. dielectric constant tensor:
#      x y z
#    x 1.761290 0.000000 0.000000 
#    y 0.000000 1.791200 0.000000 
#    z 0.000000 0.000000 1.720470 
# 
# From -- ./inp_files/24712.got.cif
#   From: 2010.03.12/outbox.cif.g09.slc.cpg/sg65_13_cif.got.tgz:24712.got - 2010.04.10 20:52:16.
