data_PCOD8266981
_publ_section_title
;
Structure prediction by ZEFSAII (Michael W. Deem and Ramdas Pophale) SiO2 
 PCOD8266981
Probable space group: C M M M
;
_chemical_formula_sum "Si O2"
_cell_formula_units_Z 96
_cell_length_a 8.784234
_cell_length_b 23.722803
_cell_length_c 25.201614
_cell_angle_alpha 90.000000
_cell_angle_beta 90.000000
_cell_angle_gamma 90.000000
_cell_volume 5251.679984
_symmetry_space_group_name_H-M "C M M M"
_symmetry_group_IT_number 65
_symmetry_cell_setting 'orthorhombic'
loop_
_space_group_symop_operation_xyz
x,y,z
-x,-y,z
x,-y,-z
-x,y,-z
-x,-y,-z
x,y,-z
-x,y,z
x,-y,z
1/2+x,1/2+y,z
1/2-x,1/2-y,z
1/2+x,1/2-y,-z
1/2-x,1/2+y,-z
1/2-x,1/2-y,-z
1/2+x,1/2+y,-z
1/2-x,1/2+y,z
1/2+x,1/2-y,z
loop_
_atom_site_type_symbol
_atom_site_label
_atom_site_fract_x
_atom_site_fract_y
_atom_site_fract_z
Si Si1 0.677803 0.190957 0.061723
Si Si2 0.819574 0.500000 0.304829
Si Si3 0.822386 0.120677 0.850783
Si Si4 0.819088 0.381880 0.343898
Si Si5 0.679924 0.809288 0.440414
Si Si6 0.180054 0.311114 0.244159
Si Si7 0.674109 0.500000 0.808702
O O1 0.500000 0.192417 0.075160
O O2 0.750000 0.250000 0.080550
O O3 0.758885 0.139888 0.092324
O O4 0.709350 0.180477 0.000000
O O5 0.753230 0.444780 0.334659
O O6 0.777321 0.500000 0.243282
O O7 0.000000 0.500000 0.307788
O O8 0.731300 0.153356 0.805959
O O9 0.790331 0.054216 0.844830
O O10 0.000000 0.134991 0.846199
O O11 0.760961 0.357712 0.400361
O O12 0.758937 0.341648 0.297122
O O13 0.000000 0.383779 0.342673
O O14 0.732283 0.825646 0.500000
O O15 0.500000 0.802862 0.436957
O O16 0.750000 0.750000 0.422672
O O17 0.250000 0.250000 0.241330
O O18 0.000000 0.306142 0.244022
O O19 0.500000 0.500000 0.789193
#
# Coordination Sequence:
#
# PCOD8266981 Si02
#       7
#    16   8  16  16  16  16   8
#     4  10  21  38  60  85 112 143 179 218 262 312
#     4  10  18  34  55  73  99 138 178 216 262 319
#     4  11  22  37  56  79 108 140 177 219 264 315
#     4   9  18  31  50  75 101 133 174 217 262 314
#     4   9  17  31  50  73 102 135 172 215 263 316
#     4  11  21  33  50  75 106 137 172 216 267 318
#     4  10  22  38  55  78 107 140 180 221 264 311
#
# _framework density 18.279865000000001
#
# number of rings (size 3 to 8) (size 9 to 14) (size 15 to 20)
#    0.000    2.000    1.667    2.500    0.000    1.667 
#    0.000    2.500    0.000    5.000    0.000    0.000 
#    0.000    3.333    0.000    0.000    0.000    0.000 
#
# Total GULP energy -595262.756808 kJ/mol
# GULP energy per Si atom -12401.307433 kJ/mol
# Density = 1.823826 g / cm^3
# Si number density = 18.279865 Si / 1000 Ang^3
#
#
#
# Elastic Constant Matrix: (Units=GPa)
#
#
# Indices 1 2 3 4 5 6 
#
# 1 47.6359 36.3941 24.6849 0.0000 0.0000 0.0000
# 2 36.3941 154.9021 68.2691 0.0000 0.0000 0.0000
# 3 24.6849 68.2691 103.5874 0.0000 0.0000 0.0000
# 4 0.0000 0.0000 0.0000 29.4603 0.0000 0.0000
# 5 0.0000 0.0000 0.0000 0.0000 19.2099 0.0000
# 6 0.0000 0.0000 0.0000 0.0000 0.0000 2.5315
#
#
#
# Elastic Compliance Matrix: (Units=1/GPa)
#
#
# Indices 1 2 3 4 5 6 
#
# 1 0.026269 -0.004810 -0.003090 0.000000 0.000000 0.000000
# 2 -0.004810 0.009979 -0.005431 0.000000 0.000000 0.000000
# 3 -0.003090 -0.005431 0.013969 0.000000 0.000000 0.000000
# 4 0.000000 0.000000 0.000000 0.033944 0.000000 0.000000
# 5 0.000000 0.000000 0.000000 0.000000 0.052056 0.000000
# 6 0.000000 0.000000 0.000000 0.000000 0.000000 0.395026
#
#
# Mechanical properties :
#
#
# Convention : Reuss Voigt Hill
#
# Bulk Modulus (GPa) = 42.45190 62.75796 52.60493
# Shear Modulus (GPa) = 8.83773 22.02548 15.43160
#
# Velocity S-wave (km/s) = 2.20118 3.47494 2.90864
# Velocity P-wave (km/s) = 5.45289 7.10679 6.33405
#
# Compressibility (1/GPa) = 0.02355607
#
# Stress axis : x y z
#
# Youngs Moduli (GPa) = 38.06823 100.20875 71.58734
#
# Poissons Ratio (x) = 0.48201 0.22119
# Poissons Ratio (y) = 0.18311 0.38876
# Poissons Ratio (z) = 0.11762 0.54419
#
# Static dielectric constant tensor:
#      x y z
#    x 3.281180 0.000000 0.000000 
#    y 0.000000 3.684320 0.000000 
#    z 0.000000 0.000000 3.510530 
# 
# 
# High freq. dielectric constant tensor:
#      x y z
#    x 1.698510 0.000000 0.000000 
#    y 0.000000 1.712920 0.000000 
#    z 0.000000 0.000000 1.709910 
# 
# From -- ./inp_files/67878.got.cif
#   From: 2010.03.12/outbox.cif.g09.slc.cpg/sg65_34_cif.got.tgz:67878.got - 2010.04.10 20:52:16.
