data_PCOD8266176
_publ_section_title
;
Structure prediction by ZEFSAII (Michael W. Deem and Ramdas Pophale) SiO2 
 PCOD8266176
Probable space group: C M M M
;
_chemical_formula_sum "Si O2"
_cell_formula_units_Z 96
_cell_length_a 25.496660
_cell_length_b 28.973679
_cell_length_c 9.117288
_cell_angle_alpha 90.000000
_cell_angle_beta 90.000000
_cell_angle_gamma 90.000000
_cell_volume 6735.232785
_symmetry_space_group_name_H-M "C M M M"
_symmetry_group_IT_number 65
_symmetry_cell_setting 'orthorhombic'
loop_
_space_group_symop_operation_xyz
x,y,z
-x,-y,z
x,-y,-z
-x,y,-z
-x,-y,-z
x,y,-z
-x,y,z
x,-y,z
1/2+x,1/2+y,z
1/2-x,1/2-y,z
1/2+x,1/2-y,-z
1/2-x,1/2+y,-z
1/2-x,1/2-y,-z
1/2+x,1/2+y,-z
1/2-x,1/2+y,z
1/2+x,1/2-y,z
loop_
_atom_site_type_symbol
_atom_site_label
_atom_site_fract_x
_atom_site_fract_y
_atom_site_fract_z
Si Si1 0.855404 0.197165 0.170375
Si Si2 0.217581 0.049907 0.174183
Si Si3 0.253414 0.146036 0.830109
Si Si4 0.098807 0.947717 0.169720
Si Si5 0.695198 0.223748 0.665489
Si Si6 0.440166 0.362589 0.332064
O O1 0.804763 0.165428 0.196320
O O2 0.847599 0.247156 0.244753
O O3 0.905301 0.173059 0.241457
O O4 0.866355 0.205199 0.000000
O O5 0.253545 0.092755 0.226604
O O6 0.158206 0.056311 0.229592
O O7 0.239750 0.000000 0.229866
O O8 0.215367 0.050021 0.000000
O O9 0.297020 0.173539 0.738292
O O10 0.268919 0.150151 0.000000
O O11 0.063335 0.913989 0.265991
O O12 0.078104 0.000000 0.188569
O O13 0.095520 0.932357 0.000000
O O14 0.675106 0.217202 0.500000
O O15 0.750000 0.250000 0.670907
O O16 0.420958 0.363359 0.500000
O O17 0.500000 0.345839 0.320726
#
# Coordination Sequence:
#
# PCOD8266176 Si02
#       6
#    16  16  16  16  16  16
#     4  10  18  30  46  61  76  98 130 169 203 239
#     4   8  13  23  40  60  80 102 130 165 203 237
#     4   9  15  25  42  62  80 101 130 163 197 236
#     4   9  17  31  48  61  73  96 134 175 212 248
#     4   9  17  27  40  60  83 104 123 152 197 244
#     4  11  23  34  43  57  79 105 131 165 213 260
#
# _framework density 14.253404
#
# number of rings (size 3 to 8) (size 9 to 14) (size 15 to 20)
#    0.000    2.667    1.667    2.500    0.000    4.667 
#    0.000    1.667    0.000    0.500    0.000    0.000 
#    0.000    0.000    0.000    0.000    0.000    0.833 
#
# Total GULP energy -595007.566945 kJ/mol
# GULP energy per Si atom -12395.990978 kJ/mol
# Density = 1.422096 g / cm^3
# Si number density = 14.253404 Si / 1000 Ang^3
#
#
#
# Elastic Constant Matrix: (Units=GPa)
#
#
# Indices 1 2 3 4 5 6 
#
# 1 36.3701 39.3670 33.7622 0.0000 0.0000 0.0000
# 2 39.3670 108.2809 51.4442 0.0000 0.0000 0.0000
# 3 33.7622 51.4442 89.3914 0.0000 0.0000 0.0000
# 4 0.0000 0.0000 0.0000 14.8316 0.0000 0.0000
# 5 0.0000 0.0000 0.0000 0.0000 17.9039 0.0000
# 6 0.0000 0.0000 0.0000 0.0000 0.0000 18.6730
#
#
#
# Elastic Compliance Matrix: (Units=1/GPa)
#
#
# Indices 1 2 3 4 5 6 
#
# 1 0.053861 -0.013649 -0.012488 0.000000 0.000000 0.000000
# 2 -0.013649 0.016169 -0.004150 0.000000 0.000000 0.000000
# 3 -0.012488 -0.004150 0.018292 0.000000 0.000000 0.000000
# 4 0.000000 0.000000 0.000000 0.067424 0.000000 0.000000
# 5 0.000000 0.000000 0.000000 0.000000 0.055854 0.000000
# 6 0.000000 0.000000 0.000000 0.000000 0.000000 0.053553
#
#
# Mechanical properties :
#
#
# Convention : Reuss Voigt Hill
#
# Bulk Modulus (GPa) = 36.03864 53.68767 44.86315
# Shear Modulus (GPa) = 14.92641 17.57963 16.25302
#
# Velocity S-wave (km/s) = 3.23958 3.51574 3.38048
# Velocity P-wave (km/s) = 6.27155 7.36403 6.83963
#
# Compressibility (1/GPa) = 0.02774800
#
# Stress axis : x y z
#
# Youngs Moduli (GPa) = 18.56623 61.84563 54.66946
#
# Poissons Ratio (x) = 0.84413 0.68271
# Poissons Ratio (y) = 0.25341 0.22689
# Poissons Ratio (z) = 0.23185 0.25667
#
# Static dielectric constant tensor:
#      x y z
#    x 2.388840 0.000000 0.000000 
#    y 0.000000 3.081700 0.000000 
#    z 0.000000 0.000000 2.785960 
# 
# 
# High freq. dielectric constant tensor:
#      x y z
#    x 1.486180 0.000000 0.000000 
#    y 0.000000 1.544970 0.000000 
#    z 0.000000 0.000000 1.542760 
# 
# From -- ./inp_files/14606.got.cif
#   From: 2010.03.12/outbox.cif.g09.slc.cpg/sg65_8_cif.got.tgz:14606.got - 2010.04.10 20:52:16.
