data_PCOD8266905
_publ_section_title
;
Structure prediction by ZEFSAII (Michael W. Deem and Ramdas Pophale) SiO2 
 PCOD8266905
Probable space group: C M M M
;
_chemical_formula_sum "Si O2"
_cell_formula_units_Z 88
_cell_length_a 27.511494
_cell_length_b 15.287590
_cell_length_c 11.884699
_cell_angle_alpha 90.000000
_cell_angle_beta 90.000000
_cell_angle_gamma 90.000000
_cell_volume 4998.519480
_symmetry_space_group_name_H-M "C M M M"
_symmetry_group_IT_number 65
_symmetry_cell_setting 'orthorhombic'
loop_
_space_group_symop_operation_xyz
x,y,z
-x,-y,z
x,-y,-z
-x,y,-z
-x,-y,-z
x,y,-z
-x,y,z
x,-y,z
1/2+x,1/2+y,z
1/2-x,1/2-y,z
1/2+x,1/2-y,-z
1/2-x,1/2+y,-z
1/2-x,1/2-y,-z
1/2+x,1/2+y,-z
1/2-x,1/2+y,z
1/2+x,1/2-y,z
loop_
_atom_site_type_symbol
_atom_site_label
_atom_site_fract_x
_atom_site_fract_y
_atom_site_fract_z
Si Si1 0.947131 0.833856 0.768235
Si Si2 0.361432 0.400353 0.369947
Si Si3 0.056164 0.500000 0.867799
Si Si4 0.575857 0.599018 0.000000
Si Si5 0.197921 0.782852 0.792690
Si Si6 0.315846 0.395234 0.000000
Si Si7 0.391945 0.178134 0.132993
O O1 0.914219 0.891926 0.686672
O O2 0.954056 0.879229 0.889215
O O3 0.925434 0.738975 0.790281
O O4 0.000000 0.825597 0.711630
O O5 0.365715 0.375376 0.500000
O O6 0.343323 0.500000 0.353257
O O7 0.324751 0.332930 0.313056
O O8 0.089713 0.582027 0.830637
O O9 0.000000 0.500000 0.817692
O O10 0.049752 0.500000 0.000000
O O11 0.629105 0.643951 0.000000
O O12 0.590541 0.500000 0.000000
O O13 0.250000 0.750000 0.751703
O O14 0.164114 0.701273 0.834682
O O15 0.208433 0.854154 0.889819
O O16 0.309840 0.500000 0.000000
O O17 0.401046 0.193141 0.000000
#
# Coordination Sequence:
#
# PCOD8266905 Si02
#       7
#    16  16   8   8  16   8  16
#     4  11  20  31  52  79 109 144 177 213 263 315
#     4  10  22  40  57  75 104 140 180 224 266 314
#     4   9  18  30  48  70 103 147 185 217 257 307
#     4  11  19  29  48  74 111 142 171 207 250 312
#     4  11  21  36  56  80 108 139 177 220 272 324
#     4  11  19  34  55  79 112 146 172 207 259 329
#     4  10  18  33  48  74 111 145 178 215 259 319
#
# _framework density 17.605212999999999
#
# number of rings (size 3 to 8) (size 9 to 14) (size 15 to 20)
#    0.000    1.545    5.455    2.182    0.000    3.273 
#    3.273    0.909    0.000    0.000    0.000    5.727 
#    0.000   17.455    0.000    0.000    0.000    0.000 
#
# Total GULP energy -545315.040514 kJ/mol
# GULP energy per Si atom -12393.523648 kJ/mol
# Density = 1.756514 g / cm^3
# Si number density = 17.605213 Si / 1000 Ang^3
#
#
#
# Elastic Constant Matrix: (Units=GPa)
#
#
# Indices 1 2 3 4 5 6 
#
# 1 129.2188 42.5906 30.0525 0.0000 0.0000 0.0000
# 2 42.5906 101.9782 34.1869 0.0000 0.0000 0.0000
# 3 30.0525 34.1869 93.0002 0.0000 0.0000 0.0000
# 4 0.0000 0.0000 0.0000 16.8627 0.0000 0.0000
# 5 0.0000 0.0000 0.0000 0.0000 7.7653 0.0000
# 6 0.0000 0.0000 0.0000 0.0000 0.0000 13.3036
#
#
#
# Elastic Compliance Matrix: (Units=1/GPa)
#
#
# Indices 1 2 3 4 5 6 
#
# 1 0.009227 -0.003255 -0.001785 0.000000 0.000000 0.000000
# 2 -0.003255 0.012333 -0.003482 0.000000 0.000000 0.000000
# 3 -0.001785 -0.003482 0.012609 0.000000 0.000000 0.000000
# 4 0.000000 0.000000 0.000000 0.059302 0.000000 0.000000
# 5 0.000000 0.000000 0.000000 0.000000 0.128778 0.000000
# 6 0.000000 0.000000 0.000000 0.000000 0.000000 0.075168
#
#
# Mechanical properties :
#
#
# Convention : Reuss Voigt Hill
#
# Bulk Modulus (GPa) = 58.39308 59.76191 59.07750
# Shear Modulus (GPa) = 15.61675 22.07746 18.84711
#
# Velocity S-wave (km/s) = 2.98157 3.54507 3.27546
# Velocity P-wave (km/s) = 6.71514 7.12573 6.92348
#
# Compressibility (1/GPa) = 0.01712532
#
# Stress axis : x y z
#
# Youngs Moduli (GPa) = 108.37932 81.08540 79.30638
#
# Poissons Ratio (x) = 0.26394 0.14156
# Poissons Ratio (y) = 0.35279 0.27611
# Poissons Ratio (z) = 0.19346 0.28231
#
# Static dielectric constant tensor:
#      x y z
#    x 3.253320 0.000000 0.000000 
#    y 0.000000 3.345860 0.000000 
#    z 0.000000 0.000000 2.993560 
# 
# 
# High freq. dielectric constant tensor:
#      x y z
#    x 1.677790 0.000000 0.000000 
#    y 0.000000 1.685440 0.000000 
#    z 0.000000 0.000000 1.648300 
# 
# From -- ./inp_files/32288.got.cif
#   From: 2010.03.12/outbox.cif.g09.slc.cpg/sg65_17_cif.got.tgz:32288.got - 2010.04.10 20:52:16.
