data_PCOD8266481
_publ_section_title
;
Structure prediction by ZEFSAII (Michael W. Deem and Ramdas Pophale) SiO2 
 PCOD8266481
Probable space group: C M M M
;
_chemical_formula_sum "Si O2"
_cell_formula_units_Z 60
_cell_length_a 14.085244
_cell_length_b 19.181036
_cell_length_c 12.728216
_cell_angle_alpha 90.000000
_cell_angle_beta 90.000000
_cell_angle_gamma 90.000000
_cell_volume 3438.776672
_symmetry_space_group_name_H-M "C M M M"
_symmetry_group_IT_number 65
_symmetry_cell_setting 'orthorhombic'
loop_
_space_group_symop_operation_xyz
x,y,z
-x,-y,z
x,-y,-z
-x,y,-z
-x,-y,-z
x,y,-z
-x,y,z
x,-y,z
1/2+x,1/2+y,z
1/2-x,1/2-y,z
1/2+x,1/2-y,-z
1/2-x,1/2+y,-z
1/2-x,1/2-y,-z
1/2+x,1/2+y,-z
1/2-x,1/2+y,z
1/2+x,1/2-y,z
loop_
_atom_site_type_symbol
_atom_site_label
_atom_site_fract_x
_atom_site_fract_y
_atom_site_fract_z
Si Si1 0.793937 0.827032 0.783731
Si Si2 0.307056 0.919800 0.378362
Si Si3 0.214114 0.670218 0.000000
Si Si4 0.000000 0.302384 0.000000
Si Si5 0.500000 0.279142 0.785845
Si Si6 0.500000 0.843558 0.620592
O O1 0.750000 0.750000 0.768194
O O2 0.767854 0.876013 0.687402
O O3 0.907327 0.826672 0.780651
O O4 0.756757 0.862101 0.892767
O O5 0.281145 0.910114 0.500000
O O6 0.411063 0.891579 0.352703
O O7 0.302583 0.000000 0.344474
O O8 0.250000 0.750000 0.000000
O O9 0.100059 0.655799 0.000000
O O10 0.000000 0.256830 0.102667
O O11 0.500000 0.224447 0.691554
O O12 0.500000 0.818429 0.500000
#
# Coordination Sequence:
#
# PCOD8266481 Si02
#       6
#    16  16   8   4   8   8
#     4  11  20  34  54  80 109 138 179 216 265 309
#     4  10  21  37  55  76 107 144 178 217 267 320
#     4  10  18  30  51  80 109 140 171 214 266 312
#     4  12  16  28  50  78 112 138 170 210 264 322
#     4  12  20  31  53  84 108 136 174 224 259 311
#     4  10  19  32  54  81 107 134 173 221 268 316
#
# _framework density 17.448065
#
# number of rings (size 3 to 8) (size 9 to 14) (size 15 to 20)
#    0.000    1.333    8.000    0.400    0.000    3.200 
#    0.000    1.333    0.000    1.600    0.000    8.400 
#    0.000    0.000    0.000    0.000    0.000    0.000 
#
# Total GULP energy -371925.803906 kJ/mol
# GULP energy per Si atom -12397.526797 kJ/mol
# Density = 1.740835 g / cm^3
# Si number density = 17.448065 Si / 1000 Ang^3
#
#
#
# Elastic Constant Matrix: (Units=GPa)
#
#
# Indices 1 2 3 4 5 6 
#
# 1 173.8267 48.4446 63.6427 0.0000 0.0000 0.0000
# 2 48.4446 53.8602 52.2055 0.0000 0.0000 0.0000
# 3 63.6427 52.2055 105.3434 0.0000 0.0000 0.0000
# 4 0.0000 0.0000 0.0000 16.6908 0.0000 0.0000
# 5 0.0000 0.0000 0.0000 0.0000 55.4288 0.0000
# 6 0.0000 0.0000 0.0000 0.0000 0.0000 568.4391
#
#
#
# Elastic Compliance Matrix: (Units=1/GPa)
#
#
# Indices 1 2 3 4 5 6 
#
# 1 0.007989 -0.004826 -0.002435 0.000000 0.000000 0.000000
# 2 -0.004826 0.038643 -0.016235 0.000000 0.000000 0.000000
# 3 -0.002435 -0.016235 0.019010 0.000000 0.000000 0.000000
# 4 0.000000 0.000000 0.000000 0.059913 0.000000 0.000000
# 5 0.000000 0.000000 0.000000 0.000000 0.018041 0.000000
# 6 0.000000 0.000000 0.000000 0.000000 0.000000 0.001759
#
#
# Mechanical properties :
#
#
# Convention : Reuss Voigt Hill
#
# Bulk Modulus (GPa) = 53.61860 73.51286 63.56573
# Shear Modulus (GPa) = 25.18061 139.36091 82.27076
#
# Velocity S-wave (km/s) = 3.80304 8.94680 6.87417
# Velocity P-wave (km/s) = 7.07681 12.20454 9.97577
#
# Compressibility (1/GPa) = 0.01865024
#
# Stress axis : x y z
#
# Youngs Moduli (GPa) = 125.16676 25.87758 52.60417
#
# Poissons Ratio (x) = 0.12487 0.12811
# Poissons Ratio (y) = 0.60399 0.85405
# Poissons Ratio (z) = 0.30482 0.42013
#
# Static dielectric constant tensor:
#      x y z
#    x 3.677540 0.000000 0.000000 
#    y 0.000000 2.873980 0.000000 
#    z 0.000000 0.000000 3.617480 
# 
# 
# High freq. dielectric constant tensor:
#      x y z
#    x 1.686060 0.000000 0.000000 
#    y 0.000000 1.624020 0.000000 
#    z 0.000000 0.000000 1.696090 
# 
# From -- ./inp_files/21983.got.cif
#   From: 2010.03.12/outbox.cif.g09.slc.cpg/sg65_11_cif.got.tgz:21983.got - 2010.04.10 20:52:16.
