data_PCOD8266624
_publ_section_title
;
Structure prediction by ZEFSAII (Michael W. Deem and Ramdas Pophale) SiO2 
 PCOD8266624
Probable space group: C M M M
;
_chemical_formula_sum "Si O2"
_cell_formula_units_Z 56
_cell_length_a 26.622498
_cell_length_b 12.663791
_cell_length_c 8.971734
_cell_angle_alpha 90.000000
_cell_angle_beta 90.000000
_cell_angle_gamma 90.000000
_cell_volume 3024.746106
_symmetry_space_group_name_H-M "C M M M"
_symmetry_group_IT_number 65
_symmetry_cell_setting 'orthorhombic'
loop_
_space_group_symop_operation_xyz
x,y,z
-x,-y,z
x,-y,-z
-x,y,-z
-x,-y,-z
x,y,-z
-x,y,z
x,-y,z
1/2+x,1/2+y,z
1/2-x,1/2-y,z
1/2+x,1/2-y,-z
1/2-x,1/2+y,-z
1/2-x,1/2-y,-z
1/2+x,1/2+y,-z
1/2-x,1/2+y,z
1/2+x,1/2-y,z
loop_
_atom_site_type_symbol
_atom_site_label
_atom_site_fract_x
_atom_site_fract_y
_atom_site_fract_z
Si Si1 0.833415 0.877523 0.175624
Si Si2 0.625838 0.189345 0.322985
Si Si3 0.056735 0.500000 0.677486
Si Si4 0.733930 0.878345 0.666970
O O1 0.878294 0.805163 0.245158
O O2 0.780621 0.828942 0.240177
O O3 0.842802 0.000000 0.220024
O O4 0.832144 0.864416 0.000000
O O5 0.622210 0.203112 0.500000
O O6 0.678680 0.140761 0.268040
O O7 0.583524 0.107421 0.264907
O O8 0.059084 0.500000 0.500000
O O9 0.000000 0.500000 0.738150
O O10 0.737155 0.833331 0.500000
O O11 0.745340 0.000000 0.670909
#
# Coordination Sequence:
#
# PCOD8266624 Si02
#       4
#    16  16   8  16
#     4  10  21  33  45  68 103 139 172 204 243 292
#     4  10  18  31  52  75  99 130 167 205 250 302
#     4   9  18  34  57  83 105 125 159 213 268 307
#     4   9  16  28  46  70 101 134 168 203 241 295
#
# _framework density 18.513950999999999
#
# number of rings (size 3 to 8) (size 9 to 14) (size 15 to 20)
#    0.000    2.429    1.429    1.714    0.000    6.286 
#    0.000    0.714    0.000    2.571    0.000    6.000 
#    0.000    0.000    0.000    0.000    0.000    0.000 
#
# Total GULP energy -346924.051346 kJ/mol
# GULP energy per Si atom -12390.144691 kJ/mol
# Density = 1.847181 g / cm^3
# Si number density = 18.513951 Si / 1000 Ang^3
#
#
#
# Elastic Constant Matrix: (Units=GPa)
#
#
# Indices 1 2 3 4 5 6 
#
# 1 108.3861 84.6157 31.3478 0.0000 0.0000 0.0000
# 2 84.6157 108.0971 29.7308 0.0000 0.0000 0.0000
# 3 31.3478 29.7308 44.4938 0.0000 0.0000 0.0000
# 4 0.0000 0.0000 0.0000 21.2899 0.0000 0.0000
# 5 0.0000 0.0000 0.0000 0.0000 48.6911 0.0000
# 6 0.0000 0.0000 0.0000 0.0000 0.0000 23.2664
#
#
#
# Elastic Compliance Matrix: (Units=1/GPa)
#
#
# Indices 1 2 3 4 5 6 
#
# 1 0.024780 -0.017882 -0.005510 0.000000 0.000000 0.000000
# 2 -0.017882 0.024238 -0.003597 0.000000 0.000000 0.000000
# 3 -0.005510 -0.003597 0.028761 0.000000 0.000000 0.000000
# 4 0.000000 0.000000 0.000000 0.046971 0.000000 0.000000
# 5 0.000000 0.000000 0.000000 0.000000 0.020538 0.000000
# 6 0.000000 0.000000 0.000000 0.000000 0.000000 0.042980
#
#
# Mechanical properties :
#
#
# Convention : Reuss Voigt Hill
#
# Bulk Modulus (GPa) = 42.01579 61.37395 51.69487
# Shear Modulus (GPa) = 19.98579 26.33500 23.16039
#
# Velocity S-wave (km/s) = 3.28914 3.77562 3.54074
# Velocity P-wave (km/s) = 6.09655 7.22697 6.68570
#
# Compressibility (1/GPa) = 0.02380058
#
# Stress axis : x y z
#
# Youngs Moduli (GPa) = 40.35550 41.25833 34.76962
#
# Poissons Ratio (x) = 0.73776 0.19158
# Poissons Ratio (y) = 0.72162 0.12507
# Poissons Ratio (z) = 0.22236 0.14842
#
# Static dielectric constant tensor:
#      x y z
#    x 3.297370 0.000000 0.000000 
#    y 0.000000 3.820190 0.000000 
#    z 0.000000 0.000000 3.161150 
# 
# 
# High freq. dielectric constant tensor:
#      x y z
#    x 1.672570 0.000000 0.000000 
#    y 0.000000 1.750880 0.000000 
#    z 0.000000 0.000000 1.687380 
# 
# From -- ./inp_files/6253.got.cif
#   From: 2010.03.12/outbox.cif.g09.slc.cpg/sg65_4_cif.got.tgz:6253.got - 2010.04.10 20:52:16.
