data_PCOD8266102
_publ_section_title
;
Structure prediction by ZEFSAII (Michael W. Deem and Ramdas Pophale) SiO2 
 PCOD8266102
Probable space group: C M M M
;
_chemical_formula_sum "Si O2"
_cell_formula_units_Z 96
_cell_length_a 18.526968
_cell_length_b 18.388163
_cell_length_c 17.339729
_cell_angle_alpha 90.000000
_cell_angle_beta 90.000000
_cell_angle_gamma 90.000000
_cell_volume 5907.245252
_symmetry_space_group_name_H-M "C M M M"
_symmetry_group_IT_number 65
_symmetry_cell_setting 'orthorhombic'
loop_
_space_group_symop_operation_xyz
x,y,z
-x,-y,z
x,-y,-z
-x,y,-z
-x,-y,-z
x,y,-z
-x,y,z
x,-y,z
1/2+x,1/2+y,z
1/2-x,1/2-y,z
1/2+x,1/2-y,-z
1/2-x,1/2+y,-z
1/2-x,1/2-y,-z
1/2+x,1/2+y,-z
1/2-x,1/2+y,z
1/2+x,1/2-y,z
loop_
_atom_site_type_symbol
_atom_site_label
_atom_site_fract_x
_atom_site_fract_y
_atom_site_fract_z
Si Si1 0.828822 0.780727 0.412415
Si Si2 0.419207 0.385600 0.798503
Si Si3 0.705448 0.583962 0.088926
Si Si4 0.418680 0.771088 0.271335
Si Si5 0.717837 0.830994 0.787489
Si Si6 0.685325 0.419527 0.327218
O O1 0.850915 0.763060 0.500000
O O2 0.750000 0.750000 0.392268
O O3 0.887426 0.743955 0.356666
O O4 0.828646 0.868123 0.400843
O O5 0.500000 0.413987 0.812862
O O6 0.373189 0.401735 0.874832
O O7 0.417509 0.300177 0.781308
O O8 0.386497 0.427121 0.724775
O O9 0.727602 0.500000 0.100263
O O10 0.765667 0.635284 0.128674
O O11 0.701685 0.605940 0.000000
O O12 0.500000 0.801739 0.279328
O O13 0.368167 0.829593 0.227539
O O14 0.750000 0.750000 0.778650
O O15 0.752587 0.883891 0.724562
O O16 0.708204 0.500000 0.355628
#
# Coordination Sequence:
#
# PCOD8266102 Si02
#       6
#    16  16  16  16  16  16
#     4  10  18  32  51  72 100 130 162 200 242 289
#     4   9  17  30  47  70  99 131 164 199 238 286
#     4  10  21  33  48  73 101 130 161 198 247 298
#     4  10  18  31  51  74  98 124 164 210 247 282
#     4  11  16  33  53  72  94 125 168 207 242 279
#     4  10  18  29  48  73  99 132 167 201 240 284
#
# _framework density 16.25123
#
# number of rings (size 3 to 8) (size 9 to 14) (size 15 to 20)
#    0.000    2.000    6.667    2.000    0.000    2.667 
#    0.000    0.833    0.000    2.500    0.000    5.833 
#    0.000    2.667    0.000    0.000    0.000    0.000 
#
# Total GULP energy -594999.463704 kJ/mol
# GULP energy per Si atom -12395.822161 kJ/mol
# Density = 1.621424 g / cm^3
# Si number density = 16.251230 Si / 1000 Ang^3
#
#
#
# Elastic Constant Matrix: (Units=GPa)
#
#
# Indices 1 2 3 4 5 6 
#
# 1 128.5278 45.9285 47.2603 0.0000 0.0000 0.0000
# 2 45.9285 68.5461 29.4121 0.0000 0.0000 0.0000
# 3 47.2603 29.4121 92.8469 0.0000 0.0000 0.0000
# 4 0.0000 0.0000 0.0000 18.4031 0.0000 0.0000
# 5 0.0000 0.0000 0.0000 0.0000 18.2384 0.0000
# 6 0.0000 0.0000 0.0000 0.0000 0.0000 12.9127
#
#
#
# Elastic Compliance Matrix: (Units=1/GPa)
#
#
# Indices 1 2 3 4 5 6 
#
# 1 0.011326 -0.005920 -0.003890 0.000000 0.000000 0.000000
# 2 -0.005920 0.019978 -0.003315 0.000000 0.000000 0.000000
# 3 -0.003890 -0.003315 0.013801 0.000000 0.000000 0.000000
# 4 0.000000 0.000000 0.000000 0.054339 0.000000 0.000000
# 5 0.000000 0.000000 0.000000 0.000000 0.054829 0.000000
# 6 0.000000 0.000000 0.000000 0.000000 0.000000 0.077443
#
#
# Mechanical properties :
#
#
# Convention : Reuss Voigt Hill
#
# Bulk Modulus (GPa) = 53.03765 59.45807 56.24786
# Shear Modulus (GPa) = 18.92140 21.06548 19.99344
#
# Velocity S-wave (km/s) = 3.41589 3.60424 3.51133
# Velocity P-wave (km/s) = 6.94728 7.34758 7.15023
#
# Compressibility (1/GPa) = 0.01885453
#
# Stress axis : x y z
#
# Youngs Moduli (GPa) = 88.29111 50.05556 72.46046
#
# Poissons Ratio (x) = 0.29632 0.28186
# Poissons Ratio (y) = 0.52267 0.24023
# Poissons Ratio (z) = 0.34344 0.16595
#
# Static dielectric constant tensor:
#      x y z
#    x 3.257260 0.000000 0.000000 
#    y 0.000000 3.075260 0.000000 
#    z 0.000000 0.000000 2.993270 
# 
# 
# High freq. dielectric constant tensor:
#      x y z
#    x 1.612580 0.000000 0.000000 
#    y 0.000000 1.615450 0.000000 
#    z 0.000000 0.000000 1.615720 
# 
# From -- ./inp_files/54760.got.cif
#   From: 2010.03.12/outbox.cif.g09.slc.cpg/sg65_28_cif.got.tgz:54760.got - 2010.04.10 20:52:16.
