data_PCOD8266066
_publ_section_title
;
Structure prediction by ZEFSAII (Michael W. Deem and Ramdas Pophale) SiO2 
 PCOD8266066
Probable space group: C M M M
;
_chemical_formula_sum "Si O2"
_cell_formula_units_Z 96
_cell_length_a 21.420634
_cell_length_b 18.931158
_cell_length_c 13.440041
_cell_angle_alpha 90.000000
_cell_angle_beta 90.000000
_cell_angle_gamma 90.000000
_cell_volume 5450.170572
_symmetry_space_group_name_H-M "C M M M"
_symmetry_group_IT_number 65
_symmetry_cell_setting 'orthorhombic'
loop_
_space_group_symop_operation_xyz
x,y,z
-x,-y,z
x,-y,-z
-x,y,-z
-x,-y,-z
x,y,-z
-x,y,z
x,-y,z
1/2+x,1/2+y,z
1/2-x,1/2-y,z
1/2+x,1/2-y,-z
1/2-x,1/2+y,-z
1/2-x,1/2-y,-z
1/2+x,1/2+y,-z
1/2-x,1/2+y,z
1/2+x,1/2-y,z
loop_
_atom_site_type_symbol
_atom_site_label
_atom_site_fract_x
_atom_site_fract_y
_atom_site_fract_z
Si Si1 0.366261 0.582024 0.883454
Si Si2 0.719656 0.677898 0.250052
Si Si3 0.801367 0.578583 0.614938
Si Si4 0.567075 0.126520 0.616715
Si Si5 0.500000 0.383282 0.392322
Si Si6 0.610460 0.274713 0.611970
Si Si7 0.500000 0.576725 0.179108
O O1 0.360787 0.500000 0.847048
O O2 0.312784 0.630221 0.834345
O O3 0.435420 0.613837 0.856289
O O4 0.355322 0.587248 0.000000
O O5 0.750000 0.750000 0.204157
O O6 0.771047 0.632003 0.307644
O O7 0.670728 0.700520 0.331414
O O8 0.790889 0.602980 0.500000
O O9 0.773791 0.500000 0.630156
O O10 0.875512 0.574625 0.640323
O O11 0.558196 0.134664 0.500000
O O12 0.500000 0.099712 0.661361
O O13 0.582150 0.204102 0.661356
O O14 0.500000 0.423286 0.500000
O O15 0.439250 0.336205 0.384309
O O16 0.500000 0.435058 0.298543
O O17 0.632056 0.258338 0.500000
O O18 0.500000 0.500000 0.127625
#
# Coordination Sequence:
#
# PCOD8266066 Si02
#       7
#    16  16  16  16   8  16   8
#     4  10  22  40  59  78 102 132 171 221 272 320
#     4  12  22  33  54  77 102 138 173 213 260 311
#     4  10  21  34  47  70 106 142 176 210 246 302
#     4   9  16  28  47  69  95 130 172 212 248 288
#     4  10  18  30  49  76 111 143 170 209 251 297
#     4  10  18  29  47  73 105 141 174 204 246 298
#     4  10  19  35  58  79 101 135 175 210 255 312
#
# _framework density 17.614127
#
# number of rings (size 3 to 8) (size 9 to 14) (size 15 to 20)
#    0.000    1.833    4.167    1.250    0.000    2.500 
#    0.000    1.667    0.000    0.000    0.000    0.000 
#    0.000    0.000    0.000    3.500    0.000    0.167 
#
# Total GULP energy -594705.912424 kJ/mol
# GULP energy per Si atom -12389.706509 kJ/mol
# Density = 1.757404 g / cm^3
# Si number density = 17.614127 Si / 1000 Ang^3
#
#
#
# Elastic Constant Matrix: (Units=GPa)
#
#
# Indices 1 2 3 4 5 6 
#
# 1 113.2191 40.0204 37.4999 0.0000 0.0000 0.0000
# 2 40.0204 82.9102 31.3886 0.0000 0.0000 0.0000
# 3 37.4999 31.3886 67.7300 0.0000 0.0000 0.0000
# 4 0.0000 0.0000 0.0000 19.6723 0.0000 0.0000
# 5 0.0000 0.0000 0.0000 0.0000 20.6731 0.0000
# 6 0.0000 0.0000 0.0000 0.0000 0.0000 19.8454
#
#
#
# Elastic Compliance Matrix: (Units=1/GPa)
#
#
# Indices 1 2 3 4 5 6 
#
# 1 0.011771 -0.003898 -0.004710 0.000000 0.000000 0.000000
# 2 -0.003898 0.015919 -0.005219 0.000000 0.000000 0.000000
# 3 -0.004710 -0.005219 0.019791 0.000000 0.000000 0.000000
# 4 0.000000 0.000000 0.000000 0.050833 0.000000 0.000000
# 5 0.000000 0.000000 0.000000 0.000000 0.048372 0.000000
# 6 0.000000 0.000000 0.000000 0.000000 0.000000 0.050390
#
#
# Mechanical properties :
#
#
# Convention : Reuss Voigt Hill
#
# Bulk Modulus (GPa) = 50.44092 53.51968 51.98030
# Shear Modulus (GPa) = 21.61334 22.36819 21.99077
#
# Velocity S-wave (km/s) = 3.50672 3.56743 3.53721
# Velocity P-wave (km/s) = 6.71528 6.88616 6.80126
#
# Compressibility (1/GPa) = 0.01982517
#
# Stress axis : x y z
#
# Youngs Moduli (GPa) = 84.95790 62.81894 50.52767
#
# Poissons Ratio (x) = 0.24489 0.23800
# Poissons Ratio (y) = 0.33119 0.26370
# Poissons Ratio (z) = 0.40018 0.32785
#
# Static dielectric constant tensor:
#      x y z
#    x 3.448760 0.000000 0.000000 
#    y 0.000000 3.327350 0.000000 
#    z 0.000000 0.000000 2.975980 
# 
# 
# High freq. dielectric constant tensor:
#      x y z
#    x 1.696690 0.000000 0.000000 
#    y 0.000000 1.675370 0.000000 
#    z 0.000000 0.000000 1.634040 
# 
# From -- ./inp_files/29105.got.cif
#   From: 2010.03.12/outbox.cif.g09.slc.cpg/sg65_15_cif.got.tgz:29105.got - 2010.04.10 20:52:16.
