data_PCOD8266046
_publ_section_title
;
Structure prediction by ZEFSAII (Michael W. Deem and Ramdas Pophale) SiO2 
 PCOD8266046
Probable space group: C M M M
;
_chemical_formula_sum "Si O2"
_cell_formula_units_Z 88
_cell_length_a 24.082229
_cell_length_b 23.028708
_cell_length_c 9.467249
_cell_angle_alpha 90.000000
_cell_angle_beta 90.000000
_cell_angle_gamma 90.000000
_cell_volume 5250.371751
_symmetry_space_group_name_H-M "C M M M"
_symmetry_group_IT_number 65
_symmetry_cell_setting 'orthorhombic'
loop_
_space_group_symop_operation_xyz
x,y,z
-x,-y,z
x,-y,-z
-x,y,-z
-x,-y,-z
x,y,-z
-x,y,z
x,-y,z
1/2+x,1/2+y,z
1/2-x,1/2-y,z
1/2+x,1/2-y,-z
1/2-x,1/2+y,-z
1/2-x,1/2-y,-z
1/2+x,1/2+y,-z
1/2-x,1/2+y,z
1/2+x,1/2-y,z
loop_
_atom_site_type_symbol
_atom_site_label
_atom_site_fract_x
_atom_site_fract_y
_atom_site_fract_z
Si Si1 0.563856 0.223248 0.163234
Si Si2 0.437983 0.000000 0.832176
Si Si3 0.436080 0.664074 0.334720
Si Si4 0.631565 0.109890 0.166503
Si Si5 0.644095 0.564095 0.332485
Si Si6 0.269228 0.932517 0.336432
O O1 0.500000 0.206611 0.193425
O O2 0.582882 0.277956 0.255240
O O3 0.601461 0.169270 0.209065
O O4 0.572622 0.239129 0.000000
O O5 0.406364 0.057090 0.777864
O O6 0.500000 0.000000 0.768118
O O7 0.441159 0.000000 0.000000
O O8 0.425559 0.673958 0.500000
O O9 0.500000 0.649150 0.302583
O O10 0.399586 0.610960 0.273736
O O11 0.690746 0.107656 0.243459
O O12 0.641558 0.105353 0.000000
O O13 0.640278 0.560884 0.500000
O O14 0.629720 0.500000 0.270920
O O15 0.706430 0.582183 0.288874
O O16 0.278440 0.917367 0.500000
O O17 0.281992 0.000000 0.307418
#
# Coordination Sequence:
#
# PCOD8266046 Si02
#       6
#    16   8  16  16  16  16
#     4   9  18  32  48  66  92 126 157 185 228 282
#     4   9  16  26  43  67  91 113 146 195 238 268
#     4   9  17  30  50  74  95 117 150 191 231 271
#     4  10  18  29  47  69  90 118 158 198 230 265
#     4   8  15  29  49  72  96 121 150 185 228 279
#     4   9  17  30  47  66  92 125 154 184 230 281
#
# _framework density 16.760718000000001
#
# number of rings (size 3 to 8) (size 9 to 14) (size 15 to 20)
#    0.000    3.000    0.909    1.636    0.000    3.273 
#    0.000    3.636    0.000    9.273    0.000    2.545 
#    0.000    0.000    0.000    0.000    0.000    0.000 
#
# Total GULP energy -545548.164421 kJ/mol
# GULP energy per Si atom -12398.821919 kJ/mol
# Density = 1.672257 g / cm^3
# Si number density = 16.760718 Si / 1000 Ang^3
#
#
#
# Elastic Constant Matrix: (Units=GPa)
#
#
# Indices 1 2 3 4 5 6 
#
# 1 117.3919 93.4423 39.2794 0.0000 0.0000 0.0000
# 2 93.4423 146.1750 46.2352 0.0000 0.0000 0.0000
# 3 39.2794 46.2352 34.7200 0.0000 0.0000 0.0000
# 4 0.0000 0.0000 0.0000 22.1718 0.0000 0.0000
# 5 0.0000 0.0000 0.0000 0.0000 21.9420 0.0000
# 6 0.0000 0.0000 0.0000 0.0000 0.0000 30.4327
#
#
#
# Elastic Compliance Matrix: (Units=1/GPa)
#
#
# Indices 1 2 3 4 5 6 
#
# 1 0.018884 -0.009182 -0.009137 0.000000 0.000000 0.000000
# 2 -0.009182 0.016284 -0.011297 0.000000 0.000000 0.000000
# 3 -0.009137 -0.011297 0.054183 0.000000 0.000000 0.000000
# 4 0.000000 0.000000 0.000000 0.045102 0.000000 0.000000
# 5 0.000000 0.000000 0.000000 0.000000 0.045575 0.000000
# 6 0.000000 0.000000 0.000000 0.000000 0.000000 0.032859
#
#
# Mechanical properties :
#
#
# Convention : Reuss Voigt Hill
#
# Bulk Modulus (GPa) = 33.20182 72.91119 53.05650
# Shear Modulus (GPa) = 17.72053 22.86464 20.29259
#
# Velocity S-wave (km/s) = 3.25509 3.69749 3.48332
# Velocity P-wave (km/s) = 5.82922 7.86284 6.92113
#
# Compressibility (1/GPa) = 0.03011883
#
# Stress axis : x y z
#
# Youngs Moduli (GPa) = 52.95402 61.41108 18.45608
#
# Poissons Ratio (x) = 0.56385 0.16864
# Poissons Ratio (y) = 0.48621 0.20850
# Poissons Ratio (z) = 0.48386 0.69376
#
# Static dielectric constant tensor:
#      x y z
#    x 3.226730 0.000000 0.000000 
#    y 0.000000 3.273050 0.000000 
#    z 0.000000 0.000000 2.833310 
# 
# 
# High freq. dielectric constant tensor:
#      x y z
#    x 1.648320 0.000000 0.000000 
#    y 0.000000 1.642070 0.000000 
#    z 0.000000 0.000000 1.614050 
# 
# From -- ./inp_files/30551.got.cif
#   From: 2010.03.12/outbox.cif.g09.slc.cpg/sg65_16_cif.got.tgz:30551.got - 2010.04.10 20:52:16.
