data_PCOD8266469
_publ_section_title
;
Structure prediction by ZEFSAII (Michael W. Deem and Ramdas Pophale) SiO2 
 PCOD8266469
Probable space group: C M M M
;
_chemical_formula_sum "Si O2"
_cell_formula_units_Z 88
_cell_length_a 18.624140
_cell_length_b 8.870654
_cell_length_c 28.884669
_cell_angle_alpha 90.000000
_cell_angle_beta 90.000000
_cell_angle_gamma 90.000000
_cell_volume 4771.987119
_symmetry_space_group_name_H-M "C M M M"
_symmetry_group_IT_number 65
_symmetry_cell_setting 'orthorhombic'
loop_
_space_group_symop_operation_xyz
x,y,z
-x,-y,z
x,-y,-z
-x,y,-z
-x,-y,-z
x,y,-z
-x,y,z
x,-y,z
1/2+x,1/2+y,z
1/2-x,1/2-y,z
1/2+x,1/2-y,-z
1/2-x,1/2+y,-z
1/2-x,1/2-y,-z
1/2+x,1/2+y,-z
1/2-x,1/2+y,z
1/2+x,1/2-y,z
loop_
_atom_site_type_symbol
_atom_site_label
_atom_site_fract_x
_atom_site_fract_y
_atom_site_fract_z
Si Si1 0.672009 0.175987 0.949823
Si Si2 0.670879 0.680387 0.500000
Si Si3 0.672904 0.324745 0.239901
Si Si4 0.327354 0.324654 0.862301
Si Si5 0.917526 0.675035 0.681930
Si Si6 0.672523 0.178277 0.591968
O O1 0.750000 0.250000 0.951562
O O2 0.629137 0.249171 0.905773
O O3 0.680013 0.000000 0.940735
O O4 0.633848 0.205801 0.000000
O O5 0.670947 0.500000 0.500000
O O6 0.750000 0.750000 0.500000
O O7 0.634716 0.745247 0.453166
O O8 0.685755 0.500000 0.247819
O O9 0.750000 0.250000 0.247918
O O10 0.639393 0.293520 0.188542
O O11 0.614777 0.266457 0.275682
O O12 0.320786 0.500000 0.872471
O O13 0.250000 0.250000 0.861183
O O14 0.908092 0.500000 0.693131
O O15 0.877840 0.718771 0.634767
O O16 0.000000 0.721105 0.676082
O O17 0.750000 0.250000 0.601929
O O18 0.680800 0.000000 0.584074
#
# Coordination Sequence:
#
# PCOD8266469 Si02
#       6
#    16   8  16  16  16  16
#     4   9  15  21  31  50  78 113 150 186 229 281
#     4  10  18  30  51  78 105 131 163 201 241 284
#     4  10  20  33  51  74  98 128 166 208 251 295
#     4   9  16  25  38  58  84 115 153 193 235 283
#     4  10  22  38  54  74 101 133 168 206 250 299
#     4  10  19  33  54  78 104 132 165 203 242 287
#
# _framework density 18.440954999999999
#
# number of rings (size 3 to 8) (size 9 to 14) (size 15 to 20)
#    0.000    2.364    0.000    5.727    0.000    6.545 
#    0.000    0.455    0.000    2.727    0.000    0.000 
#    0.000    0.727    0.000    8.000    0.000    8.909 
#
# Total GULP energy -545157.107690 kJ/mol
# GULP energy per Si atom -12389.934266 kJ/mol
# Density = 1.839898 g / cm^3
# Si number density = 18.440955 Si / 1000 Ang^3
#
#
#
# Elastic Constant Matrix: (Units=GPa)
#
#
# Indices 1 2 3 4 5 6 
#
# 1 58.9969 35.4877 58.2044 0.0000 0.0000 0.0000
# 2 35.4877 125.0143 95.5528 0.0000 0.0000 0.0000
# 3 58.2044 95.5528 207.2009 0.0000 0.0000 0.0000
# 4 0.0000 0.0000 0.0000 36.0778 0.0000 0.0000
# 5 0.0000 0.0000 0.0000 0.0000 -2.6834 0.0000
# 6 0.0000 0.0000 0.0000 0.0000 0.0000 16.3907
#
#
#
# Elastic Compliance Matrix: (Units=1/GPa)
#
#
# Indices 1 2 3 4 5 6 
#
# 1 0.023967 -0.002560 -0.005552 0.000000 0.000000 0.000000
# 2 -0.002560 0.012627 -0.005104 0.000000 0.000000 0.000000
# 3 -0.005552 -0.005104 0.008740 0.000000 0.000000 0.000000
# 4 0.000000 0.000000 0.000000 0.027718 0.000000 0.000000
# 5 0.000000 0.000000 0.000000 0.000000 -0.372668 0.000000
# 6 0.000000 0.000000 0.000000 0.000000 0.000000 0.061010
#
#
# Mechanical properties :
#
#
# Convention : Reuss Voigt Hill
#
# Bulk Modulus (GPa) = 52.90455 85.52241 69.21348
# Shear Modulus (GPa) = -24.28672 23.42151 -0.43260
#
# Velocity S-wave (km/s) = -3.63299 3.56769 -0.48487
# Velocity P-wave (km/s) = 3.33958 7.96544 6.10741
#
# Compressibility (1/GPa) = 0.01890197
#
# Stress axis : x y z
#
# Youngs Moduli (GPa) = 41.72332 79.19622 114.42213
#
# Poissons Ratio (x) = 0.20274 0.63528
# Poissons Ratio (y) = 0.10681 0.58400
# Poissons Ratio (z) = 0.23165 0.40421
#
# Static dielectric constant tensor:
#      x y z
#    x 2.784370 0.000000 0.000000 
#    y 0.000000 3.538510 0.000000 
#    z 0.000000 0.000000 4.860220 
# 
# 
# High freq. dielectric constant tensor:
#      x y z
#    x 1.637180 0.000000 0.000000 
#    y 0.000000 1.731550 0.000000 
#    z 0.000000 0.000000 1.753450 
# 
# From -- ./inp_files/77899.got.cif
#   From: 2010.03.12/outbox.cif.g09.slc.cpg/sg65_39_cif.got.tgz:77899.got - 2010.04.10 20:52:16.
