data_PCOD8266409
_publ_section_title
;
Structure prediction by ZEFSAII (Michael W. Deem and Ramdas Pophale) SiO2 
 PCOD8266409
Probable space group: C M M M
;
_chemical_formula_sum "Si O2"
_cell_formula_units_Z 88
_cell_length_a 17.004072
_cell_length_b 28.221593
_cell_length_c 9.349952
_cell_angle_alpha 90.000000
_cell_angle_beta 90.000000
_cell_angle_gamma 90.000000
_cell_volume 4486.873659
_symmetry_space_group_name_H-M "C M M M"
_symmetry_group_IT_number 65
_symmetry_cell_setting 'orthorhombic'
loop_
_space_group_symop_operation_xyz
x,y,z
-x,-y,z
x,-y,-z
-x,y,-z
-x,-y,-z
x,y,-z
-x,y,z
x,-y,z
1/2+x,1/2+y,z
1/2-x,1/2-y,z
1/2+x,1/2-y,-z
1/2-x,1/2+y,-z
1/2-x,1/2-y,-z
1/2+x,1/2+y,-z
1/2-x,1/2+y,z
1/2+x,1/2-y,z
loop_
_atom_site_type_symbol
_atom_site_label
_atom_site_fract_x
_atom_site_fract_y
_atom_site_fract_z
Si Si1 0.412115 0.317281 0.163329
Si Si2 0.500000 0.447657 0.330176
Si Si3 0.171468 0.723699 0.163498
Si Si4 0.187002 0.552785 0.331120
Si Si5 0.910305 0.358370 0.331076
Si Si6 0.156511 0.103863 0.330549
O O1 0.500000 0.327985 0.220286
O O2 0.399283 0.261102 0.176158
O O3 0.346764 0.344433 0.257817
O O4 0.402224 0.333779 0.000000
O O5 0.500000 0.500000 0.264715
O O6 0.500000 0.449400 0.500000
O O7 0.421662 0.422265 0.275348
O O8 0.250000 0.750000 0.219856
O O9 0.149026 0.678329 0.257611
O O10 0.184103 0.706755 0.000000
O O11 0.193227 0.548071 0.500000
O O12 0.172883 0.500000 0.265539
O O13 0.116224 0.588214 0.288922
O O14 0.268945 0.574443 0.273628
O O15 0.902988 0.350600 0.500000
O O16 0.000000 0.351522 0.278596
O O17 0.159648 0.110672 0.500000
#
# Coordination Sequence:
#
# PCOD8266409 Si02
#       6
#    16   8  16  16  16  16
#     4  10  20  33  49  71 103 140 172 207 257 316
#     4   9  16  26  43  69  99 129 167 215 260 305
#     4  10  21  37  57  80 106 141 182 220 268 328
#     4   9  18  33  54  79 106 137 174 220 273 322
#     4  10  21  36  55  82 112 142 180 225 270 317
#     4  10  18  30  50  76 102 133 177 222 263 309
#
# _framework density 19.612765
#
# number of rings (size 3 to 8) (size 9 to 14) (size 15 to 20)
#    0.000    2.273    0.909    2.182    0.000    4.727 
#    0.000    1.818    0.000    4.364    0.000    1.273 
#    0.000    0.000    0.000    0.000    0.000    0.000 
#
# Total GULP energy -545502.258194 kJ/mol
# GULP energy per Si atom -12397.778595 kJ/mol
# Density = 1.956813 g / cm^3
# Si number density = 19.612765 Si / 1000 Ang^3
#
#
#
# Elastic Constant Matrix: (Units=GPa)
#
#
# Indices 1 2 3 4 5 6 
#
# 1 116.6252 50.7802 26.8220 0.0000 0.0000 0.0000
# 2 50.7802 129.5448 36.3960 0.0000 0.0000 0.0000
# 3 26.8220 36.3960 34.8514 0.0000 0.0000 0.0000
# 4 0.0000 0.0000 0.0000 6.7460 0.0000 0.0000
# 5 0.0000 0.0000 0.0000 0.0000 19.3905 0.0000
# 6 0.0000 0.0000 0.0000 0.0000 0.0000 30.5944
#
#
#
# Elastic Compliance Matrix: (Units=1/GPa)
#
#
# Indices 1 2 3 4 5 6 
#
# 1 0.011072 -0.002754 -0.005645 0.000000 0.000000 0.000000
# 2 -0.002754 0.011610 -0.010005 0.000000 0.000000 0.000000
# 3 -0.005645 -0.010005 0.043486 0.000000 0.000000 0.000000
# 4 0.000000 0.000000 0.000000 0.148235 0.000000 0.000000
# 5 0.000000 0.000000 0.000000 0.000000 0.051572 0.000000
# 6 0.000000 0.000000 0.000000 0.000000 0.000000 0.032686
#
#
# Mechanical properties :
#
#
# Convention : Reuss Voigt Hill
#
# Bulk Modulus (GPa) = 34.05992 56.55752 45.30872
# Shear Modulus (GPa) = 14.48210 22.48107 18.48159
#
# Velocity S-wave (km/s) = 2.72030 3.38930 3.07306
# Velocity P-wave (km/s) = 5.22213 6.64952 5.97858
#
# Compressibility (1/GPa) = 0.02936002
#
# Stress axis : x y z
#
# Youngs Moduli (GPa) = 90.31881 86.13433 22.99603
#
# Poissons Ratio (x) = 0.23722 0.12981
# Poissons Ratio (y) = 0.24875 0.23007
# Poissons Ratio (z) = 0.50984 0.86175
#
# Static dielectric constant tensor:
#      x y z
#    x 3.704160 0.000000 0.000000 
#    y 0.000000 3.734810 0.000000 
#    z 0.000000 0.000000 3.124420 
# 
# 
# High freq. dielectric constant tensor:
#      x y z
#    x 1.774680 0.000000 0.000000 
#    y 0.000000 1.772090 0.000000 
#    z 0.000000 0.000000 1.717470 
# 
# From -- ./inp_files/10042.got.cif
#   From: 2010.03.12/outbox.cif.g09.slc.cpg/sg65_6_cif.got.tgz:10042.got - 2010.04.10 20:52:16.
