data_PCOD8266614
_publ_section_title
;
Structure prediction by ZEFSAII (Michael W. Deem and Ramdas Pophale) SiO2 
 PCOD8266614
Probable space group: C M M M
;
_chemical_formula_sum "Si O2"
_cell_formula_units_Z 88
_cell_length_a 14.594735
_cell_length_b 17.552479
_cell_length_c 17.595618
_cell_angle_alpha 90.000000
_cell_angle_beta 90.000000
_cell_angle_gamma 90.000000
_cell_volume 4507.535967
_symmetry_space_group_name_H-M "C M M M"
_symmetry_group_IT_number 65
_symmetry_cell_setting 'orthorhombic'
loop_
_space_group_symop_operation_xyz
x,y,z
-x,-y,z
x,-y,-z
-x,y,-z
-x,-y,-z
x,y,-z
-x,y,z
x,-y,z
1/2+x,1/2+y,z
1/2-x,1/2-y,z
1/2+x,1/2-y,-z
1/2-x,1/2+y,-z
1/2-x,1/2-y,-z
1/2+x,1/2+y,-z
1/2-x,1/2+y,z
1/2+x,1/2-y,z
loop_
_atom_site_type_symbol
_atom_site_label
_atom_site_fract_x
_atom_site_fract_y
_atom_site_fract_z
Si Si1 0.897756 0.134638 0.806602
Si Si2 0.897549 0.409490 0.414183
Si Si3 0.735560 0.088066 0.285769
Si Si4 0.391444 0.500000 0.914713
Si Si5 0.603796 0.916556 0.146194
Si Si6 0.643884 0.761186 0.916607
O O1 0.829032 0.134660 0.734174
O O2 0.857980 0.074043 0.868137
O O3 0.905970 0.215622 0.849189
O O4 0.000000 0.112507 0.778221
O O5 0.873591 0.384532 0.500000
O O6 0.899022 0.500000 0.406246
O O7 0.816518 0.377457 0.359762
O O8 0.000000 0.379063 0.392467
O O9 0.665484 0.100345 0.218170
O O10 0.762511 0.000000 0.298067
O O11 0.500000 0.500000 0.921053
O O12 0.348784 0.500000 0.000000
O O13 0.500000 0.916124 0.175505
O O14 0.619167 0.850464 0.084861
O O15 0.627579 0.000000 0.110504
O O16 0.750000 0.750000 0.903680
O O17 0.613474 0.730744 0.000000
#
# Coordination Sequence:
#
# PCOD8266614 Si02
#       6
#    16  16  16   8  16  16
#     4  11  21  34  52  75 103 143 190 232 279 328
#     4   8  14  26  48  80 114 145 179 222 273 325
#     4  10  18  31  51  77 111 144 178 225 275 324
#     4   9  18  32  50  72  96 129 182 240 282 315
#     4  10  21  37  57  80 105 138 179 226 287 351
#     4  11  23  39  56  76 105 141 185 237 291 341
#
# _framework density 19.522862
#
# number of rings (size 3 to 8) (size 9 to 14) (size 15 to 20)
#    0.000    2.091    2.727    2.182    0.000    4.727 
#    0.000    0.909    0.000    0.545    0.000    5.091 
#    0.000    2.909    0.000    0.182    0.000    0.000 
#
# Total GULP energy -545348.773369 kJ/mol
# GULP energy per Si atom -12394.290304 kJ/mol
# Density = 1.947843 g / cm^3
# Si number density = 19.522862 Si / 1000 Ang^3
#
#
#
# Elastic Constant Matrix: (Units=GPa)
#
#
# Indices 1 2 3 4 5 6 
#
# 1 122.8411 23.2430 65.2513 0.0000 0.0000 0.0000
# 2 23.2430 76.8196 25.0623 0.0000 0.0000 0.0000
# 3 65.2513 25.0623 101.6493 0.0000 0.0000 0.0000
# 4 0.0000 0.0000 0.0000 17.2185 0.0000 0.0000
# 5 0.0000 0.0000 0.0000 0.0000 49.7427 0.0000
# 6 0.0000 0.0000 0.0000 0.0000 0.0000 18.0985
#
#
#
# Elastic Compliance Matrix: (Units=1/GPa)
#
#
# Indices 1 2 3 4 5 6 
#
# 1 0.012464 -0.001262 -0.007690 0.000000 0.000000 0.000000
# 2 -0.001262 0.014284 -0.002711 0.000000 0.000000 0.000000
# 3 -0.007690 -0.002711 0.015443 0.000000 0.000000 0.000000
# 4 0.000000 0.000000 0.000000 0.058077 0.000000 0.000000
# 5 0.000000 0.000000 0.000000 0.000000 0.020103 0.000000
# 6 0.000000 0.000000 0.000000 0.000000 0.000000 0.055253
#
#
# Mechanical properties :
#
#
# Convention : Reuss Voigt Hill
#
# Bulk Modulus (GPa) = 53.01264 58.71370 55.86317
# Shear Modulus (GPa) = 24.36174 29.52882 26.94528
#
# Velocity S-wave (km/s) = 3.53633 3.89334 3.71912
# Velocity P-wave (km/s) = 6.62475 7.09580 6.86432
#
# Compressibility (1/GPa) = 0.01886343
#
# Stress axis : x y z
#
# Youngs Moduli (GPa) = 80.22991 70.00794 64.75611
#
# Poissons Ratio (x) = 0.08838 0.49796
# Poissons Ratio (y) = 0.10129 0.17558
# Poissons Ratio (z) = 0.61695 0.18982
#
# Static dielectric constant tensor:
#      x y z
#    x 3.705820 0.000000 0.000000 
#    y 0.000000 3.509430 0.000000 
#    z 0.000000 0.000000 3.523420 
# 
# 
# High freq. dielectric constant tensor:
#      x y z
#    x 1.769570 0.000000 0.000000 
#    y 0.000000 1.732380 0.000000 
#    z 0.000000 0.000000 1.725490 
# 
# From -- ./inp_files/53023.got.cif
#   From: 2010.03.12/outbox.cif.g09.slc.cpg/sg65_27_cif.got.tgz:53023.got - 2010.04.10 20:52:16.
