data_PCOD8266377
_publ_section_title
;
Structure prediction by ZEFSAII (Michael W. Deem and Ramdas Pophale) SiO2 
 PCOD8266377
Probable space group: C M M M
;
_chemical_formula_sum "Si O2"
_cell_formula_units_Z 104
_cell_length_a 28.524705
_cell_length_b 9.131597
_cell_length_c 22.991579
_cell_angle_alpha 90.000000
_cell_angle_beta 90.000000
_cell_angle_gamma 90.000000
_cell_volume 5988.757075
_symmetry_space_group_name_H-M "C M M M"
_symmetry_group_IT_number 65
_symmetry_cell_setting 'orthorhombic'
loop_
_space_group_symop_operation_xyz
x,y,z
-x,-y,z
x,-y,-z
-x,y,-z
-x,-y,-z
x,y,-z
-x,y,z
x,-y,z
1/2+x,1/2+y,z
1/2-x,1/2-y,z
1/2+x,1/2-y,-z
1/2-x,1/2+y,-z
1/2-x,1/2-y,-z
1/2+x,1/2+y,-z
1/2-x,1/2+y,z
1/2+x,1/2-y,z
loop_
_atom_site_type_symbol
_atom_site_label
_atom_site_fract_x
_atom_site_fract_y
_atom_site_fract_z
Si Si1 0.859138 0.329008 0.889942
Si Si2 0.201136 0.673493 0.222108
Si Si3 0.799540 0.326895 0.000000
Si Si4 0.949364 0.826441 0.276534
Si Si5 0.352534 0.327705 0.323895
Si Si6 0.052664 0.170964 0.854887
Si Si7 0.702998 0.329853 0.564924
O O1 0.868001 0.500000 0.894687
O O2 0.834110 0.285980 0.829779
O O3 0.827546 0.273877 0.943203
O O4 0.909741 0.252738 0.894926
O O5 0.208558 0.500000 0.228176
O O6 0.250000 0.750000 0.207450
O O7 0.181181 0.737295 0.281907
O O8 0.750000 0.250000 0.000000
O O9 0.791536 0.500000 0.000000
O O10 0.906306 0.773067 0.316601
O O11 0.941777 0.769514 0.210982
O O12 0.000000 0.767761 0.300227
O O13 0.951200 0.000000 0.275071
O O14 0.347341 0.500000 0.309396
O O15 0.338607 0.292291 0.390319
O O16 0.000000 0.204045 0.877550
O O17 0.063584 0.000000 0.857646
O O18 0.687623 0.279442 0.500000
O O19 0.714841 0.500000 0.565969
O O20 0.750000 0.250000 0.585401
#
# Coordination Sequence:
#
# PCOD8266377 Si02
#       7
#    16  16   8  16  16  16  16
#     4  10  21  36  53  74 100 130 163 204 247 293
#     4  11  22  33  47  71 100 126 156 199 247 292
#     4  10  22  40  57  74  97 131 174 207 243 296
#     4   8  14  26  46  72  98 125 158 193 235 289
#     4  10  18  30  50  72  96 128 161 199 245 288
#     4   9  17  31  53  78 102 129 163 201 241 293
#     4   9  18  31  46  66  93 127 166 202 238 284
#
# _framework density 17.365874999999999
#
# number of rings (size 3 to 8) (size 9 to 14) (size 15 to 20)
#    0.000    2.462    1.538    2.308    0.000    3.385 
#    0.000    0.385    0.000    3.231    0.000    3.231 
#    0.000    0.000    0.000    5.231    0.000    5.538 
#
# Total GULP energy -644682.043735 kJ/mol
# GULP energy per Si atom -12397.731610 kJ/mol
# Density = 1.732635 g / cm^3
# Si number density = 17.365875 Si / 1000 Ang^3
#
#
#
# Elastic Constant Matrix: (Units=GPa)
#
#
# Indices 1 2 3 4 5 6 
#
# 1 153.5675 45.5364 60.3685 0.0000 0.0000 0.0000
# 2 45.5364 40.7192 30.8067 0.0000 0.0000 0.0000
# 3 60.3685 30.8067 92.4662 0.0000 0.0000 0.0000
# 4 0.0000 0.0000 0.0000 18.9501 0.0000 0.0000
# 5 0.0000 0.0000 0.0000 0.0000 28.5928 0.0000
# 6 0.0000 0.0000 0.0000 0.0000 0.0000 26.4440
#
#
#
# Elastic Compliance Matrix: (Units=1/GPa)
#
#
# Indices 1 2 3 4 5 6 
#
# 1 0.010761 -0.008983 -0.004033 0.000000 0.000000 0.000000
# 2 -0.008983 0.040334 -0.007573 0.000000 0.000000 0.000000
# 3 -0.004033 -0.007573 0.015971 0.000000 0.000000 0.000000
# 4 0.000000 0.000000 0.000000 0.052770 0.000000 0.000000
# 5 0.000000 0.000000 0.000000 0.000000 0.034974 0.000000
# 6 0.000000 0.000000 0.000000 0.000000 0.000000 0.037816
#
#
# Mechanical properties :
#
#
# Convention : Reuss Voigt Hill
#
# Bulk Modulus (GPa) = 38.62832 62.24178 50.43505
# Shear Modulus (GPa) = 20.62443 24.80012 22.71228
#
# Velocity S-wave (km/s) = 3.44996 3.78311 3.62037
# Velocity P-wave (km/s) = 6.17752 7.41632 6.82508
#
# Compressibility (1/GPa) = 0.02588774
#
# Stress axis : x y z
#
# Youngs Moduli (GPa) = 92.93159 24.79328 62.61488
#
# Poissons Ratio (x) = 0.22271 0.25250
# Poissons Ratio (y) = 0.83478 0.47420
# Poissons Ratio (z) = 0.37475 0.18777
#
# Static dielectric constant tensor:
#      x y z
#    x 3.594310 0.000000 0.000000 
#    y 0.000000 3.033220 0.000000 
#    z 0.000000 0.000000 3.258730 
# 
# 
# High freq. dielectric constant tensor:
#      x y z
#    x 1.680020 0.000000 0.000000 
#    y 0.000000 1.652490 0.000000 
#    z 0.000000 0.000000 1.655120 
# 
# From -- ./inp_files/71852.got.cif
#   From: 2010.03.12/outbox.cif.g09.slc.cpg/sg65_36_cif.got.tgz:71852.got - 2010.04.10 20:52:16.
