data_PCOD8266650
_publ_section_title
;
Structure prediction by ZEFSAII (Michael W. Deem and Ramdas Pophale) SiO2 
 PCOD8266650
Probable space group: C M M M
;
_chemical_formula_sum "Si O2"
_cell_formula_units_Z 64
_cell_length_a 15.345945
_cell_length_b 8.590323
_cell_length_c 24.313191
_cell_angle_alpha 90.000000
_cell_angle_beta 90.000000
_cell_angle_gamma 90.000000
_cell_volume 3205.125895
_symmetry_space_group_name_H-M "C M M M"
_symmetry_group_IT_number 65
_symmetry_cell_setting 'orthorhombic'
loop_
_space_group_symop_operation_xyz
x,y,z
-x,-y,z
x,-y,-z
-x,y,-z
-x,-y,-z
x,y,-z
-x,y,z
x,-y,z
1/2+x,1/2+y,z
1/2-x,1/2-y,z
1/2+x,1/2-y,-z
1/2-x,1/2+y,-z
1/2-x,1/2-y,-z
1/2+x,1/2+y,-z
1/2-x,1/2+y,z
1/2+x,1/2-y,z
loop_
_atom_site_type_symbol
_atom_site_label
_atom_site_fract_x
_atom_site_fract_y
_atom_site_fract_z
Si Si1 0.400327 0.184145 0.500000
Si Si2 0.500000 0.314767 0.313961
Si Si3 0.346415 0.315399 0.112648
Si Si4 0.159980 0.815530 0.386321
Si Si5 0.346531 0.815162 0.000000
Si Si6 0.500000 0.315366 0.190847
O O1 0.500000 0.241054 0.500000
O O2 0.352462 0.251039 0.552795
O O3 0.392591 0.000000 0.500000
O O4 0.500000 0.500000 0.312132
O O5 0.584491 0.252819 0.346201
O O6 0.500000 0.245229 0.252354
O O7 0.340050 0.500000 0.108474
O O8 0.250000 0.250000 0.124850
O O9 0.389106 0.249920 0.055976
O O10 0.412001 0.259038 0.160415
O O11 0.250000 0.750000 0.362024
O O12 0.161376 0.000000 0.388386
O O13 0.250000 0.750000 0.000000
O O14 0.349486 0.000000 0.000000
O O15 0.500000 0.500000 0.192616
#
# Coordination Sequence:
#
# PCOD8266650 Si02
#       6
#     8   8  16  16   8   8
#     4  11  22  37  60  88 120 150 184 231 281 333
#     4   9  20  39  59  80 110 149 190 231 276 331
#     4  10  19  34  56  81 110 143 182 226 274 329
#     4  11  22  38  61  87 116 150 190 230 279 335
#     4  10  18  31  52  79 112 144 178 221 275 333
#     4   9  20  37  57  80 108 147 190 227 272 333
#
# _framework density 19.968015999999999
#
# number of rings (size 3 to 8) (size 9 to 14) (size 15 to 20)
#    0.000    1.875    1.250    4.875    0.000    2.000 
#    0.000    5.000    0.000   10.500    0.000    0.000 
#    0.000    0.000    0.000    0.000    0.000    0.000 
#
# Total GULP energy -396785.720382 kJ/mol
# GULP energy per Si atom -12399.553762 kJ/mol
# Density = 1.992257 g / cm^3
# Si number density = 19.968016 Si / 1000 Ang^3
#
#
#
# Elastic Constant Matrix: (Units=GPa)
#
#
# Indices 1 2 3 4 5 6 
#
# 1 157.2762 35.3451 86.3939 0.0000 0.0000 0.0000
# 2 35.3451 82.1724 32.7694 0.0000 0.0000 0.0000
# 3 86.3939 32.7694 184.2398 0.0000 0.0000 0.0000
# 4 0.0000 0.0000 0.0000 13.9127 0.0000 0.0000
# 5 0.0000 0.0000 0.0000 0.0000 18.3049 0.0000
# 6 0.0000 0.0000 0.0000 0.0000 0.0000 27.6590
#
#
#
# Elastic Compliance Matrix: (Units=1/GPa)
#
#
# Indices 1 2 3 4 5 6 
#
# 1 0.008966 -0.002346 -0.003787 0.000000 0.000000 0.000000
# 2 -0.002346 0.013713 -0.001339 0.000000 0.000000 0.000000
# 3 -0.003787 -0.001339 0.007442 0.000000 0.000000 0.000000
# 4 0.000000 0.000000 0.000000 0.071877 0.000000 0.000000
# 5 0.000000 0.000000 0.000000 0.000000 0.054630 0.000000
# 6 0.000000 0.000000 0.000000 0.000000 0.000000 0.036155
#
#
# Mechanical properties :
#
#
# Convention : Reuss Voigt Hill
#
# Bulk Modulus (GPa) = 65.89319 81.41169 73.65244
# Shear Modulus (GPa) = 23.49803 29.92067 26.70935
#
# Velocity S-wave (km/s) = 3.43415 3.87515 3.66130
# Velocity P-wave (km/s) = 6.98538 7.80269 7.40532
#
# Compressibility (1/GPa) = 0.01517608
#
# Stress axis : x y z
#
# Youngs Moduli (GPa) = 111.53591 72.92545 134.38011
#
# Poissons Ratio (x) = 0.17110 0.50888
# Poissons Ratio (y) = 0.26170 0.17990
# Poissons Ratio (z) = 0.42238 0.09763
#
# Static dielectric constant tensor:
#      x y z
#    x 3.831910 0.000000 0.000000 
#    y 0.000000 3.449950 0.000000 
#    z 0.000000 0.000000 4.129620 
# 
# 
# High freq. dielectric constant tensor:
#      x y z
#    x 1.784990 0.000000 0.000000 
#    y 0.000000 1.766370 0.000000 
#    z 0.000000 0.000000 1.782160 
# 
# From -- ./inp_files/69563.got.cif
#   From: 2010.03.12/outbox.cif.g09.slc.cpg/sg65_35_cif.got.tgz:69563.got - 2010.04.10 20:52:16.
