data_PCOD8266018
_publ_section_title
;
Structure prediction by ZEFSAII (Michael W. Deem and Ramdas Pophale) SiO2 
 PCOD8266018
Probable space group: C M M M
;
_chemical_formula_sum "Si O2"
_cell_formula_units_Z 88
_cell_length_a 31.350018
_cell_length_b 18.724938
_cell_length_c 9.597797
_cell_angle_alpha 90.000000
_cell_angle_beta 90.000000
_cell_angle_gamma 90.000000
_cell_volume 5634.167355
_symmetry_space_group_name_H-M "C M M M"
_symmetry_group_IT_number 65
_symmetry_cell_setting 'orthorhombic'
loop_
_space_group_symop_operation_xyz
x,y,z
-x,-y,z
x,-y,-z
-x,y,-z
-x,-y,-z
x,y,-z
-x,y,z
x,-y,z
1/2+x,1/2+y,z
1/2-x,1/2-y,z
1/2+x,1/2-y,-z
1/2-x,1/2+y,-z
1/2-x,1/2-y,-z
1/2+x,1/2+y,-z
1/2-x,1/2+y,z
1/2+x,1/2-y,z
loop_
_atom_site_type_symbol
_atom_site_label
_atom_site_fract_x
_atom_site_fract_y
_atom_site_fract_z
Si Si1 0.500000 0.921192 0.665597
Si Si2 0.741318 0.918526 0.840275
Si Si3 0.953603 0.711147 0.337881
Si Si4 0.126978 0.793948 0.664441
Si Si5 0.339480 0.418358 0.160919
Si Si6 0.290147 0.203075 0.661870
O O1 0.500000 0.930003 0.500000
O O2 0.458281 0.873023 0.709322
O O3 0.500000 0.000000 0.736747
O O4 0.790358 0.908490 0.794351
O O5 0.710473 0.870693 0.746056
O O6 0.727151 0.000000 0.818456
O O7 0.735705 0.895515 0.000000
O O8 0.943115 0.711627 0.500000
O O9 0.914611 0.754192 0.269071
O O10 0.000000 0.748597 0.308849
O O11 0.123500 0.809410 0.500000
O O12 0.131041 0.869236 0.742411
O O13 0.166997 0.744431 0.700111
O O14 0.353669 0.500000 0.184816
O O15 0.345595 0.396845 0.000000
O O16 0.287523 0.184001 0.500000
O O17 0.250000 0.250000 0.709786
#
# Coordination Sequence:
#
# PCOD8266018 Si02
#       6
#     8  16  16  16  16  16
#     4   7  10  20  40  64  88 113 140 174 217 257
#     4   9  18  32  47  62  84 119 161 194 218 254
#     4   7  13  25  42  65  89 114 145 185 220 251
#     4  10  18  29  46  68  93 118 148 183 224 272
#     4   9  18  31  46  65  88 116 153 192 223 258
#     4  10  19  29  41  65  97 123 144 177 226 275
#
# _framework density 15.618988999999999
#
# number of rings (size 3 to 8) (size 9 to 14) (size 15 to 20)
#    0.545    2.636    1.818    1.091    0.000    1.818 
#    0.000    2.727    0.000    4.364    0.000    3.818 
#    0.000    0.727    0.000    0.000    0.000    0.000 
#
# Total GULP energy -545077.570184 kJ/mol
# GULP energy per Si atom -12388.126595 kJ/mol
# Density = 1.558344 g / cm^3
# Si number density = 15.618989 Si / 1000 Ang^3
#
#
#
# Elastic Constant Matrix: (Units=GPa)
#
#
# Indices 1 2 3 4 5 6 
#
# 1 83.2873 54.6310 27.4641 0.0000 0.0000 0.0000
# 2 54.6310 112.1519 45.5504 0.0000 0.0000 0.0000
# 3 27.4641 45.5504 36.8522 0.0000 0.0000 0.0000
# 4 0.0000 0.0000 0.0000 28.7025 0.0000 0.0000
# 5 0.0000 0.0000 0.0000 0.0000 8.9118 0.0000
# 6 0.0000 0.0000 0.0000 0.0000 0.0000 24.8816
#
#
#
# Elastic Compliance Matrix: (Units=1/GPa)
#
#
# Indices 1 2 3 4 5 6 
#
# 1 0.018129 -0.006714 -0.005212 0.000000 0.000000 0.000000
# 2 -0.006714 0.020392 -0.020201 0.000000 0.000000 0.000000
# 3 -0.005212 -0.020201 0.055988 0.000000 0.000000 0.000000
# 4 0.000000 0.000000 0.000000 0.034840 0.000000 0.000000
# 5 0.000000 0.000000 0.000000 0.000000 0.112211 0.000000
# 6 0.000000 0.000000 0.000000 0.000000 0.000000 0.040190
#
#
# Mechanical properties :
#
#
# Convention : Reuss Voigt Hill
#
# Bulk Modulus (GPa) = 33.05192 54.17584 43.61388
# Shear Modulus (GPa) = 14.04138 19.47557 16.75848
#
# Velocity S-wave (km/s) = 3.00158 3.53500 3.27915
# Velocity P-wave (km/s) = 5.76367 7.17097 6.50549
#
# Compressibility (1/GPa) = 0.03025543
#
# Stress axis : x y z
#
# Youngs Moduli (GPa) = 55.15901 49.03945 17.86086
#
# Poissons Ratio (x) = 0.32927 0.09309
# Poissons Ratio (y) = 0.37036 0.36081
# Poissons Ratio (z) = 0.28747 0.99064
#
# Static dielectric constant tensor:
#      x y z
#    x 2.929090 0.000000 0.000000 
#    y 0.000000 3.135450 0.000000 
#    z 0.000000 0.000000 2.674690 
# 
# 
# High freq. dielectric constant tensor:
#      x y z
#    x 1.575950 0.000000 0.000000 
#    y 0.000000 1.600440 0.000000 
#    z 0.000000 0.000000 1.571760 
# 
# From -- ./inp_files/18511.got.cif
#   From: 2010.03.12/outbox.cif.g09.slc.cpg/sg65_10_cif.got.tgz:18511.got - 2010.04.10 20:52:16.
