data_PCOD8266550
_publ_section_title
;
Structure prediction by ZEFSAII (Michael W. Deem and Ramdas Pophale) SiO2 
 PCOD8266550
Probable space group: C M M M
;
_chemical_formula_sum "Si O2"
_cell_formula_units_Z 80
_cell_length_a 19.264971
_cell_length_b 13.110153
_cell_length_c 17.904913
_cell_angle_alpha 90.000000
_cell_angle_beta 90.000000
_cell_angle_gamma 90.000000
_cell_volume 4522.185101
_symmetry_space_group_name_H-M "C M M M"
_symmetry_group_IT_number 65
_symmetry_cell_setting 'orthorhombic'
loop_
_space_group_symop_operation_xyz
x,y,z
-x,-y,z
x,-y,-z
-x,y,-z
-x,-y,-z
x,y,-z
-x,y,z
x,-y,z
1/2+x,1/2+y,z
1/2-x,1/2-y,z
1/2+x,1/2-y,-z
1/2-x,1/2+y,-z
1/2-x,1/2-y,-z
1/2+x,1/2+y,-z
1/2-x,1/2+y,z
1/2+x,1/2-y,z
loop_
_atom_site_type_symbol
_atom_site_label
_atom_site_fract_x
_atom_site_fract_y
_atom_site_fract_z
Si Si1 0.577906 0.379843 0.915574
Si Si2 0.578382 0.882448 0.720659
Si Si3 0.301106 0.615940 0.359608
Si Si4 0.153123 0.318829 0.585128
Si Si5 0.325975 0.718739 0.794282
O O1 0.500000 0.348631 0.890157
O O2 0.586344 0.500000 0.911284
O O3 0.634778 0.330603 0.862988
O O4 0.590977 0.341655 0.000000
O O5 0.500000 0.852174 0.742034
O O6 0.587794 0.859412 0.632039
O O7 0.632106 0.818255 0.769109
O O8 0.592770 0.000000 0.738200
O O9 0.322862 0.500000 0.378852
O O10 0.219759 0.632061 0.374282
O O11 0.342938 0.695083 0.412218
O O12 0.318985 0.638726 0.273548
O O13 0.147151 0.355765 0.500000
O O14 0.250000 0.750000 0.822647
#
# Coordination Sequence:
#
# PCOD8266550 Si02
#       5
#    16  16  16  16  16
#     4   9  19  36  57  81 108 138 171 208 255 309
#     4  10  21  36  52  73 104 141 178 216 261 312
#     4  10  18  31  49  73 103 134 169 212 263 315
#     4  10  20  32  47  73 101 132 175 219 264 311
#     4  11  20  33  54  82 106 135 173 215 260 307
#
# _framework density 17.690563999999998
#
# number of rings (size 3 to 8) (size 9 to 14) (size 15 to 20)
#    0.000    2.000    4.000    3.600    0.000    4.400 
#    0.000    1.000    0.000    6.000    0.000    8.400 
#    0.000    0.000    0.000    0.000    0.000    0.000 
#
# Total GULP energy -495906.167607 kJ/mol
# GULP energy per Si atom -12397.654190 kJ/mol
# Density = 1.765030 g / cm^3
# Si number density = 17.690564 Si / 1000 Ang^3
#
#
#
# Elastic Constant Matrix: (Units=GPa)
#
#
# Indices 1 2 3 4 5 6 
#
# 1 112.5169 47.2345 54.6098 0.0000 0.0000 0.0000
# 2 47.2345 83.8708 27.5419 0.0000 0.0000 0.0000
# 3 54.6098 27.5419 105.3256 0.0000 0.0000 0.0000
# 4 0.0000 0.0000 0.0000 16.1218 0.0000 0.0000
# 5 0.0000 0.0000 0.0000 0.0000 17.2109 0.0000
# 6 0.0000 0.0000 0.0000 0.0000 0.0000 18.6913
#
#
#
# Elastic Compliance Matrix: (Units=1/GPa)
#
#
# Indices 1 2 3 4 5 6 
#
# 1 0.014278 -0.006137 -0.005798 0.000000 0.000000 0.000000
# 2 -0.006137 0.015681 -0.000918 0.000000 0.000000 0.000000
# 3 -0.005798 -0.000918 0.012741 0.000000 0.000000 0.000000
# 4 0.000000 0.000000 0.000000 0.062028 0.000000 0.000000
# 5 0.000000 0.000000 0.000000 0.000000 0.058103 0.000000
# 6 0.000000 0.000000 0.000000 0.000000 0.000000 0.053501
#
#
# Mechanical properties :
#
#
# Convention : Reuss Voigt Hill
#
# Bulk Modulus (GPa) = 58.84983 62.27618 60.56300
# Shear Modulus (GPa) = 20.18546 21.89325 21.03935
#
# Velocity S-wave (km/s) = 3.38158 3.52172 3.45236
# Velocity P-wave (km/s) = 6.97031 7.19835 7.08524
#
# Compressibility (1/GPa) = 0.01699240
#
# Stress axis : x y z
#
# Youngs Moduli (GPa) = 70.03777 63.77131 78.48805
#
# Poissons Ratio (x) = 0.39137 0.45508
# Poissons Ratio (y) = 0.42983 0.07209
# Poissons Ratio (z) = 0.40609 0.05857
#
# Static dielectric constant tensor:
#      x y z
#    x 3.315670 0.000000 0.000000 
#    y 0.000000 3.305600 0.000000 
#    z 0.000000 0.000000 3.288500 
# 
# 
# High freq. dielectric constant tensor:
#      x y z
#    x 1.676370 0.000000 0.000000 
#    y 0.000000 1.683920 0.000000 
#    z 0.000000 0.000000 1.672760 
# 
# From -- ./inp_files/52870.got.cif
#   From: 2010.03.12/outbox.cif.g09.slc.cpg/sg65_27_cif.got.tgz:52870.got - 2010.04.10 20:52:16.
