data_PCOD8266348
_publ_section_title
;
Structure prediction by ZEFSAII (Michael W. Deem and Ramdas Pophale) SiO2 
 PCOD8266348
Probable space group: C M M M
;
_chemical_formula_sum "Si O2"
_cell_formula_units_Z 104
_cell_length_a 17.859125
_cell_length_b 15.077115
_cell_length_c 20.533068
_cell_angle_alpha 90.000000
_cell_angle_beta 90.000000
_cell_angle_gamma 90.000000
_cell_volume 5528.817694
_symmetry_space_group_name_H-M "C M M M"
_symmetry_group_IT_number 65
_symmetry_cell_setting 'orthorhombic'
loop_
_space_group_symop_operation_xyz
x,y,z
-x,-y,z
x,-y,-z
-x,y,-z
-x,-y,-z
x,y,-z
-x,y,z
x,-y,z
1/2+x,1/2+y,z
1/2-x,1/2-y,z
1/2+x,1/2-y,-z
1/2-x,1/2+y,-z
1/2-x,1/2-y,-z
1/2+x,1/2+y,-z
1/2-x,1/2+y,z
1/2+x,1/2-y,z
loop_
_atom_site_type_symbol
_atom_site_label
_atom_site_fract_x
_atom_site_fract_y
_atom_site_fract_z
Si Si1 0.211582 0.399314 0.285757
Si Si2 0.918705 0.276858 0.275070
Si Si3 0.375071 0.601211 0.326864
Si Si4 0.291023 0.900806 0.135478
Si Si5 0.080204 0.278909 0.874191
Si Si6 0.631933 0.401010 0.924190
Si Si7 0.500000 0.396535 0.428676
O O1 0.182293 0.500000 0.291001
O O2 0.146084 0.333651 0.311594
O O3 0.284854 0.387715 0.331983
O O4 0.230684 0.375075 0.210265
O O5 0.901956 0.171589 0.273516
O O6 0.922081 0.306234 0.201000
O O7 0.000000 0.295282 0.308245
O O8 0.394309 0.500000 0.305272
O O9 0.422071 0.628104 0.391700
O O10 0.350289 0.835841 0.099260
O O11 0.219073 0.892702 0.090813
O O12 0.324184 0.000000 0.134261
O O13 0.088275 0.173576 0.884126
O O14 0.000000 0.307020 0.905396
O O15 0.603362 0.500000 0.904658
O O16 0.618238 0.383595 0.000000
O O17 0.500000 0.500000 0.439163
O O18 0.500000 0.349707 0.500000
#
# Coordination Sequence:
#
# PCOD8266348 Si02
#       7
#    16  16  16  16  16  16   8
#     4   9  18  31  50  74 101 132 165 204 246 292
#     4  10  19  31  48  73 103 134 162 199 248 298
#     4  10  18  30  49  74 101 130 165 202 245 292
#     4   9  18  34  53  72  95 125 161 202 246 291
#     4  10  21  33  48  73 100 125 158 197 246 298
#     4  10  21  36  52  68  89 124 167 204 243 297
#     4   9  18  32  50  74 105 139 170 204 249 294
#
# _framework density 18.810531999999998
#
# number of rings (size 3 to 8) (size 9 to 14) (size 15 to 20)
#    0.000    2.385    0.769    1.846    0.000    6.769 
#    0.000    5.385    0.000    1.846    0.000    3.231 
#    0.000    0.615    0.000    0.000    0.000    0.000 
#
# Total GULP energy -644184.359978 kJ/mol
# GULP energy per Si atom -12388.160769 kJ/mol
# Density = 1.876772 g / cm^3
# Si number density = 18.810532 Si / 1000 Ang^3
#
#
#
# Elastic Constant Matrix: (Units=GPa)
#
#
# Indices 1 2 3 4 5 6 
#
# 1 126.3217 48.2144 24.6716 0.0000 0.0000 0.0000
# 2 48.2144 77.6959 17.0434 0.0000 0.0000 0.0000
# 3 24.6716 17.0434 29.9125 0.0000 0.0000 0.0000
# 4 0.0000 0.0000 0.0000 10.8086 0.0000 0.0000
# 5 0.0000 0.0000 0.0000 0.0000 -1.5683 0.0000
# 6 0.0000 0.0000 0.0000 0.0000 0.0000 23.6995
#
#
#
# Elastic Compliance Matrix: (Units=1/GPa)
#
#
# Indices 1 2 3 4 5 6 
#
# 1 0.011260 -0.005657 -0.006064 0.000000 0.000000 0.000000
# 2 -0.005657 0.017551 -0.005334 0.000000 0.000000 0.000000
# 3 -0.006064 -0.005334 0.041471 0.000000 0.000000 0.000000
# 4 0.000000 0.000000 0.000000 0.092519 0.000000 0.000000
# 5 0.000000 0.000000 0.000000 0.000000 -0.637650 0.000000
# 6 0.000000 0.000000 0.000000 0.000000 0.000000 0.042195
#
#
# Mechanical properties :
#
#
# Convention : Reuss Voigt Hill
#
# Bulk Modulus (GPa) = 27.64550 45.97653 36.81102
# Shear Modulus (GPa) = -12.93707 16.18803 1.62548
#
# Velocity S-wave (km/s) = -2.62536 2.93675 0.93060
# Velocity P-wave (km/s) = 2.35345 5.99953 4.55703
#
# Compressibility (1/GPa) = 0.03617225
#
# Stress axis : x y z
#
# Youngs Moduli (GPa) = 88.81145 56.97544 24.11297
#
# Poissons Ratio (x) = 0.32232 0.14621
# Poissons Ratio (y) = 0.50242 0.12863
# Poissons Ratio (z) = 0.53852 0.30393
#
# Static dielectric constant tensor:
#      x y z
#    x 3.803480 0.000000 0.000000 
#    y 0.000000 3.622400 0.000000 
#    z 0.000000 0.000000 3.145160 
# 
# 
# High freq. dielectric constant tensor:
#      x y z
#    x 1.741790 0.000000 0.000000 
#    y 0.000000 1.733640 0.000000 
#    z 0.000000 0.000000 1.668170 
# 
# From -- ./inp_files/62886.got.cif
#   From: 2010.03.12/outbox.cif.g09.slc.cpg/sg65_32_cif.got.tgz:62886.got - 2010.04.10 20:52:16.
