data_PCOD8266945
_publ_section_title
;
Structure prediction by ZEFSAII (Michael W. Deem and Ramdas Pophale) SiO2 
 PCOD8266945
Probable space group: C M M M
;
_chemical_formula_sum "Si O2"
_cell_formula_units_Z 72
_cell_length_a 27.799690
_cell_length_b 14.592775
_cell_length_c 8.643333
_cell_angle_alpha 90.000000
_cell_angle_beta 90.000000
_cell_angle_gamma 90.000000
_cell_volume 3506.380841
_symmetry_space_group_name_H-M "C M M M"
_symmetry_group_IT_number 65
_symmetry_cell_setting 'orthorhombic'
loop_
_space_group_symop_operation_xyz
x,y,z
-x,-y,z
x,-y,-z
-x,y,-z
-x,-y,-z
x,y,-z
-x,y,z
x,-y,z
1/2+x,1/2+y,z
1/2-x,1/2-y,z
1/2+x,1/2-y,-z
1/2-x,1/2+y,-z
1/2-x,1/2-y,-z
1/2+x,1/2+y,-z
1/2-x,1/2+y,z
1/2+x,1/2-y,z
loop_
_atom_site_type_symbol
_atom_site_label
_atom_site_fract_x
_atom_site_fract_y
_atom_site_fract_z
Si Si1 0.770547 0.148721 0.325498
Si Si2 0.587264 0.222754 0.683740
Si Si3 0.170875 0.401920 0.318962
Si Si4 0.628891 0.395655 0.181339
Si Si5 0.000000 0.606395 0.183246
O O1 0.784642 0.118003 0.500000
O O2 0.750000 0.250000 0.325547
O O3 0.725280 0.093359 0.252770
O O4 0.816786 0.133672 0.220122
O O5 0.581708 0.217857 0.500000
O O6 0.636979 0.177836 0.747055
O O7 0.589662 0.328782 0.737163
O O8 0.545368 0.163196 0.757469
O O9 0.176608 0.382554 0.500000
O O10 0.145850 0.500000 0.285349
O O11 0.619260 0.500000 0.237001
O O12 0.621156 0.386864 0.000000
O O13 0.000000 0.500000 0.243755
O O14 0.000000 0.606165 0.000000
#
# Coordination Sequence:
#
# PCOD8266945 Si02
#       5
#    16  16  16  16   8
#     4  10  18  33  56  84 118 159 207 254 299 351
#     4  11  22  40  65  91 119 155 206 259 303 357
#     4   9  17  30  52  83 117 152 194 246 299 349
#     4  11  24  40  58  85 124 168 209 253 310 370
#     4  11  25  45  68  97 132 163 189 232 304 375
#
# _framework density 20.533992000000001
#
# number of rings (size 3 to 8) (size 9 to 14) (size 15 to 20)
#    0.000    1.667    2.222    3.000    0.000    4.889 
#    0.000    0.556    0.000    7.333    0.000    0.000 
#    0.000    0.000    0.000    0.000    0.000    0.000 
#
# Total GULP energy -446057.534981 kJ/mol
# GULP energy per Si atom -12390.487083 kJ/mol
# Density = 2.048726 g / cm^3
# Si number density = 20.533992 Si / 1000 Ang^3
#
#
#
# Elastic Constant Matrix: (Units=GPa)
#
#
# Indices 1 2 3 4 5 6 
#
# 1 100.8971 68.6568 32.7637 0.0000 0.0000 0.0000
# 2 68.6568 164.1460 38.7985 0.0000 0.0000 0.0000
# 3 32.7637 38.7985 59.7511 0.0000 0.0000 0.0000
# 4 0.0000 0.0000 0.0000 22.6631 0.0000 0.0000
# 5 0.0000 0.0000 0.0000 0.0000 26.5922 0.0000
# 6 0.0000 0.0000 0.0000 0.0000 0.0000 31.4162
#
#
#
# Elastic Compliance Matrix: (Units=1/GPa)
#
#
# Indices 1 2 3 4 5 6 
#
# 1 0.014976 -0.005107 -0.004896 0.000000 0.000000 0.000000
# 2 -0.005107 0.008938 -0.003004 0.000000 0.000000 0.000000
# 3 -0.004896 -0.003004 0.021371 0.000000 0.000000 0.000000
# 4 0.000000 0.000000 0.000000 0.044125 0.000000 0.000000
# 5 0.000000 0.000000 0.000000 0.000000 0.037605 0.000000
# 6 0.000000 0.000000 0.000000 0.000000 0.000000 0.031831
#
#
# Mechanical properties :
#
#
# Convention : Reuss Voigt Hill
#
# Bulk Modulus (GPa) = 51.88710 67.24804 59.56757
# Shear Modulus (GPa) = 26.13949 28.43933 27.28941
#
# Velocity S-wave (km/s) = 3.57176 3.72558 3.64948
# Velocity P-wave (km/s) = 6.50644 7.16431 6.84328
#
# Compressibility (1/GPa) = 0.01927261
#
# Stress axis : x y z
#
# Youngs Moduli (GPa) = 66.77448 111.88142 46.79234
#
# Poissons Ratio (x) = 0.57134 0.22909
# Poissons Ratio (y) = 0.34099 0.14055
# Poissons Ratio (z) = 0.32692 0.33605
#
# Static dielectric constant tensor:
#      x y z
#    x 3.867680 0.000000 0.000000 
#    y 0.000000 4.253800 0.000000 
#    z 0.000000 0.000000 3.457560 
# 
# 
# High freq. dielectric constant tensor:
#      x y z
#    x 1.791100 0.000000 0.000000 
#    y 0.000000 1.826240 0.000000 
#    z 0.000000 0.000000 1.772080 
# 
# From -- ./inp_files/15777.got.cif
#   From: 2010.03.12/outbox.cif.g09.slc.cpg/sg65_8_cif.got.tgz:15777.got - 2010.04.10 20:52:16.
