data_PCOD8266177
_publ_section_title
;
Structure prediction by ZEFSAII (Michael W. Deem and Ramdas Pophale) SiO2 
 PCOD8266177
Probable space group: C M M M
;
_chemical_formula_sum "Si O2"
_cell_formula_units_Z 128
_cell_length_a 17.745826
_cell_length_b 21.240078
_cell_length_c 21.034046
_cell_angle_alpha 90.000000
_cell_angle_beta 90.000000
_cell_angle_gamma 90.000000
_cell_volume 7928.210008
_symmetry_space_group_name_H-M "C M M M"
_symmetry_group_IT_number 65
_symmetry_cell_setting 'orthorhombic'
loop_
_space_group_symop_operation_xyz
x,y,z
-x,-y,z
x,-y,-z
-x,y,-z
-x,-y,-z
x,y,-z
-x,y,z
x,-y,z
1/2+x,1/2+y,z
1/2-x,1/2-y,z
1/2+x,1/2-y,-z
1/2-x,1/2+y,-z
1/2-x,1/2-y,-z
1/2+x,1/2+y,-z
1/2-x,1/2+y,z
1/2+x,1/2-y,z
loop_
_atom_site_type_symbol
_atom_site_label
_atom_site_fract_x
_atom_site_fract_y
_atom_site_fract_z
Si Si1 0.817283 0.925597 0.312836
Si Si2 0.916285 0.074543 0.570877
Si Si3 0.919243 0.071990 0.804353
Si Si4 0.085652 0.654910 0.170437
Si Si5 0.695178 0.640883 0.116546
Si Si6 0.416778 0.262347 0.930682
Si Si7 0.270749 0.179943 0.755276
Si Si8 0.838718 0.572522 0.928626
O O1 0.850692 0.904013 0.380870
O O2 0.884633 0.913600 0.264138
O O3 0.751149 0.876403 0.293924
O O4 0.790702 0.000000 0.311501
O O5 0.893912 0.097646 0.500000
O O6 0.000000 0.100991 0.588682
O O7 0.921034 0.000000 0.573220
O O8 0.863814 0.088851 0.861161
O O9 0.000000 0.108240 0.808897
O O10 0.936213 0.000000 0.811855
O O11 0.097211 0.712560 0.123553
O O12 0.140351 0.667401 0.230722
O O13 0.105146 0.593628 0.127840
O O14 0.000000 0.648875 0.195756
O O15 0.650025 0.687751 0.071569
O O16 0.726727 0.676002 0.178466
O O17 0.760814 0.610303 0.075502
O O18 0.500000 0.293232 0.922105
O O19 0.411693 0.229463 0.000000
O O20 0.250000 0.250000 0.727511
O O21 0.820908 0.500000 0.916115
O O22 0.872391 0.582561 0.000000
#
# Coordination Sequence:
#
# PCOD8266177 Si02
#       8
#    16  16  16  16  16  16  16  16
#     4   9  17  28  45  68  97 128 163 198 228 267
#     4   8  13  23  42  71 107 141 168 193 222 260
#     4   9  16  25  39  61  89 120 151 180 213 257
#     4  10  21  36  51  66  86 111 144 188 237 288
#     4  10  18  30  46  61  86 114 146 180 224 276
#     4  10  19  30  46  67  87 109 141 184 233 285
#     4  10  19  33  48  68  92 122 154 190 235 284
#     4  10  21  34  48  65  83 107 142 185 237 293
#
# _framework density 16.144880000000001
#
# number of rings (size 3 to 8) (size 9 to 14) (size 15 to 20)
#    0.000    2.500    1.250    2.250    0.000    5.500 
#    0.000    3.125    0.000    0.375    0.000    5.250 
#    0.000    0.500    0.000    3.125    0.000    0.000 
#
# Total GULP energy -792934.503034 kJ/mol
# GULP energy per Si atom -12389.601610 kJ/mol
# Density = 1.610813 g / cm^3
# Si number density = 16.144880 Si / 1000 Ang^3
#
#
#
# Elastic Constant Matrix: (Units=GPa)
#
#
# Indices 1 2 3 4 5 6 
#
# 1 103.4720 35.0639 34.7251 0.0000 0.0000 0.0000
# 2 35.0639 66.8765 25.5319 0.0000 0.0000 0.0000
# 3 34.7251 25.5319 66.9341 0.0000 0.0000 0.0000
# 4 0.0000 0.0000 0.0000 -28.8570 0.0000 0.0000
# 5 0.0000 0.0000 0.0000 0.0000 19.2748 0.0000
# 6 0.0000 0.0000 0.0000 0.0000 0.0000 20.2472
#
#
#
# Elastic Compliance Matrix: (Units=1/GPa)
#
#
# Indices 1 2 3 4 5 6 
#
# 1 0.012966 -0.004951 -0.004838 0.000000 0.000000 0.000000
# 2 -0.004951 0.019392 -0.004829 0.000000 0.000000 0.000000
# 3 -0.004838 -0.004829 0.019292 0.000000 0.000000 0.000000
# 4 0.000000 0.000000 0.000000 -0.034654 0.000000 0.000000
# 5 0.000000 0.000000 0.000000 0.000000 0.051881 0.000000
# 6 0.000000 0.000000 0.000000 0.000000 0.000000 0.049390
#
#
# Mechanical properties :
#
#
# Convention : Reuss Voigt Hill
#
# Bulk Modulus (GPa) = 44.61370 47.54718 46.08044
# Shear Modulus (GPa) = 32.26346 11.59711 21.93028
#
# Velocity S-wave (km/s) = 4.47516 2.68305 3.68957
# Velocity P-wave (km/s) = 7.37537 6.25400 6.83772
#
# Compressibility (1/GPa) = 0.02241464
#
# Stress axis : x y z
#
# Youngs Moduli (GPa) = 77.12546 51.56702 51.83521
#
# Poissons Ratio (x) = 0.25531 0.25078
# Poissons Ratio (y) = 0.38185 0.25029
# Poissons Ratio (z) = 0.37314 0.24899
#
# Static dielectric constant tensor:
#      x y z
#    x 3.282180 0.000000 0.000000 
#    y 0.000000 3.032270 0.000000 
#    z 0.000000 0.000000 3.663050 
# 
# 
# High freq. dielectric constant tensor:
#      x y z
#    x 1.620950 0.000000 0.000000 
#    y 0.000000 1.604760 0.000000 
#    z 0.000000 0.000000 1.587250 
# 
# From -- ./inp_files/64124.got.cif
#   From: 2010.03.12/outbox.cif.g09.slc.cpg/sg65_33_cif.got.tgz:64124.got - 2010.04.10 20:52:16.
