data_PCOD8266442
_publ_section_title
;
Structure prediction by ZEFSAII (Michael W. Deem and Ramdas Pophale) SiO2 
 PCOD8266442
Probable space group: C M M M
;
_chemical_formula_sum "Si O2"
_cell_formula_units_Z 104
_cell_length_a 23.652377
_cell_length_b 9.299601
_cell_length_c 27.953513
_cell_angle_alpha 90.000000
_cell_angle_beta 90.000000
_cell_angle_gamma 90.000000
_cell_volume 6148.589554
_symmetry_space_group_name_H-M "C M M M"
_symmetry_group_IT_number 65
_symmetry_cell_setting 'orthorhombic'
loop_
_space_group_symop_operation_xyz
x,y,z
-x,-y,z
x,-y,-z
-x,y,-z
-x,-y,-z
x,y,-z
-x,y,z
x,-y,z
1/2+x,1/2+y,z
1/2-x,1/2-y,z
1/2+x,1/2-y,-z
1/2-x,1/2+y,-z
1/2-x,1/2-y,-z
1/2+x,1/2+y,-z
1/2-x,1/2+y,z
1/2+x,1/2-y,z
loop_
_atom_site_type_symbol
_atom_site_label
_atom_site_fract_x
_atom_site_fract_y
_atom_site_fract_z
Si Si1 0.000000 0.168867 0.207328
Si Si2 0.887517 0.169749 0.362641
Si Si3 0.000000 0.171038 0.311859
Si Si4 0.622896 0.332487 0.182358
Si Si5 0.693781 0.837229 0.000000
Si Si6 0.309201 0.831493 0.896511
Si Si7 0.064497 0.332593 0.554908
Si Si8 0.307969 0.667535 0.277570
O O1 0.000000 0.241570 0.259415
O O2 0.942988 0.212699 0.179861
O O3 0.000000 0.000000 0.215836
O O4 0.944474 0.226463 0.338107
O O5 0.888100 0.248355 0.413979
O O6 0.835435 0.215182 0.328303
O O7 0.887239 0.000000 0.370967
O O8 0.000000 0.000000 0.309351
O O9 0.631844 0.500000 0.169682
O O10 0.650072 0.232565 0.142800
O O11 0.648472 0.298511 0.234650
O O12 0.750000 0.750000 0.000000
O O13 0.661811 0.806435 0.949475
O O14 0.714349 0.000000 0.000000
O O15 0.250000 0.750000 0.893095
O O16 0.299452 0.000000 0.886155
O O17 0.079826 0.301708 0.500000
O O18 0.069450 0.500000 0.566664
O O19 0.000000 0.279714 0.565180
O O20 0.293709 0.500000 0.278562
O O21 0.250000 0.750000 0.268568
#
# Coordination Sequence:
#
# PCOD8266442 Si02
#       8
#     8  16   8  16   8  16  16  16
#     4   9  16  30  51  71  97 133 167 195 236 291
#     4  10  18  30  51  74  95 123 161 201 235 276
#     4   9  14  26  48  72  94 121 158 197 236 277
#     4  10  19  32  51  74 100 131 164 199 241 290
#     4   8  16  30  48  69  94 125 161 202 248 292
#     4  10  19  32  50  73 100 129 163 204 248 292
#     4   9  18  31  46  69 102 132 154 184 236 294
#     4  10  21  34  49  71  99 130 163 197 237 285
#
# _framework density 16.914449000000001
#
# number of rings (size 3 to 8) (size 9 to 14) (size 15 to 20)
#    0.000    2.462    2.308    1.385    0.000    3.385 
#    0.000    1.154    0.000    1.846    0.000    3.231 
#    0.000    0.000    0.000    0.000    0.000    0.000 
#
# Total GULP energy -644361.392952 kJ/mol
# GULP energy per Si atom -12391.565249 kJ/mol
# Density = 1.687595 g / cm^3
# Si number density = 16.914449 Si / 1000 Ang^3
#
#
#
# Elastic Constant Matrix: (Units=GPa)
#
#
# Indices 1 2 3 4 5 6 
#
# 1 94.8383 38.5421 45.8787 0.0000 0.0000 0.0000
# 2 38.5421 58.3385 54.3099 0.0000 0.0000 0.0000
# 3 45.8787 54.3099 122.5225 0.0000 0.0000 0.0000
# 4 0.0000 0.0000 0.0000 27.3358 0.0000 0.0000
# 5 0.0000 0.0000 0.0000 0.0000 -4.6482 0.0000
# 6 0.0000 0.0000 0.0000 0.0000 0.0000 22.0722
#
#
#
# Elastic Compliance Matrix: (Units=1/GPa)
#
#
# Indices 1 2 3 4 5 6 
#
# 1 0.014709 -0.007815 -0.002044 0.000000 0.000000 0.000000
# 2 -0.007815 0.033337 -0.011851 0.000000 0.000000 0.000000
# 3 -0.002044 -0.011851 0.014180 0.000000 0.000000 0.000000
# 4 0.000000 0.000000 0.000000 0.036582 0.000000 0.000000
# 5 0.000000 0.000000 0.000000 0.000000 -0.215139 0.000000
# 6 0.000000 0.000000 0.000000 0.000000 0.000000 0.045306
#
#
# Mechanical properties :
#
#
# Convention : Reuss Voigt Hill
#
# Bulk Modulus (GPa) = 53.17198 61.46232 57.31715
# Shear Modulus (GPa) = -234.33234 18.08321 -108.12456
#
# Velocity S-wave (km/s) = -11.78306 3.27325 -8.00395
# Velocity P-wave (km/s) = 12.39422 7.12051 7.17339
#
# Compressibility (1/GPa) = 0.01880690
#
# Stress axis : x y z
#
# Youngs Moduli (GPa) = 67.98585 29.99689 70.52211
#
# Poissons Ratio (x) = 0.23443 0.14412
# Poissons Ratio (y) = 0.53132 0.83573
# Poissons Ratio (z) = 0.13893 0.35548
#
# Static dielectric constant tensor:
#      x y z
#    x 3.140170 0.000000 0.000000 
#    y 0.000000 2.993430 0.000000 
#    z 0.000000 0.000000 3.479770 
# 
# 
# High freq. dielectric constant tensor:
#      x y z
#    x 1.624190 0.000000 0.000000 
#    y 0.000000 1.638170 0.000000 
#    z 0.000000 0.000000 1.662500 
# 
# From -- ./inp_files/75807.got.cif
#   From: 2010.03.12/outbox.cif.g09.slc.cpg/sg65_38_cif.got.tgz:75807.got - 2010.04.10 20:52:16.
