data_PCOD8266873
_publ_section_title
;
Structure prediction by ZEFSAII (Michael W. Deem and Ramdas Pophale) SiO2 
 PCOD8266873
Probable space group: C M M M
;
_chemical_formula_sum "Si O2"
_cell_formula_units_Z 64
_cell_length_a 18.071327
_cell_length_b 8.662133
_cell_length_c 20.770866
_cell_angle_alpha 90.000000
_cell_angle_beta 90.000000
_cell_angle_gamma 90.000000
_cell_volume 3251.393223
_symmetry_space_group_name_H-M "C M M M"
_symmetry_group_IT_number 65
_symmetry_cell_setting 'orthorhombic'
loop_
_space_group_symop_operation_xyz
x,y,z
-x,-y,z
x,-y,-z
-x,y,-z
-x,-y,-z
x,y,-z
-x,y,z
x,-y,z
1/2+x,1/2+y,z
1/2-x,1/2-y,z
1/2+x,1/2-y,-z
1/2-x,1/2+y,-z
1/2-x,1/2-y,-z
1/2+x,1/2+y,-z
1/2-x,1/2+y,z
1/2+x,1/2-y,z
loop_
_atom_site_type_symbol
_atom_site_label
_atom_site_fract_x
_atom_site_fract_y
_atom_site_fract_z
Si Si1 0.168021 0.183051 0.500000
Si Si2 0.830894 0.681089 0.629883
Si Si3 0.583359 0.684086 0.000000
Si Si4 0.413446 0.678320 0.253495
Si Si5 0.168873 0.817489 0.875084
O O1 0.250000 0.250000 0.500000
O O2 0.130948 0.246137 0.565630
O O3 0.166777 0.000000 0.500000
O O4 0.822373 0.500000 0.620121
O O5 0.750000 0.750000 0.643886
O O6 0.884764 0.716888 0.688622
O O7 0.625390 0.747609 0.937039
O O8 0.581697 0.500000 0.000000
O O9 0.500000 0.749510 0.000000
O O10 0.500000 0.704530 0.244513
O O11 0.394673 0.500000 0.268164
O O12 0.374329 0.735753 0.188521
O O13 0.250000 0.750000 0.873593
O O14 0.173884 0.000000 0.878736
#
# Coordination Sequence:
#
# PCOD8266873 Si02
#       5
#     8  16   8  16  16
#     4  10  18  32  55  82 111 142 179 223 271 321
#     4  11  21  35  56  82 111 143 182 225 271 324
#     4   9  17  32  55  81 108 141 182 224 268 321
#     4  10  21  37  55  77 107 143 183 227 277 330
#     4  10  20  34  55  81 108 141 181 226 272 322
#
# _framework density 19.683868
#
# number of rings (size 3 to 8) (size 9 to 14) (size 15 to 20)
#    0.000    1.875    0.000    6.750    0.000    6.500 
#    0.000    0.625    0.000    6.750    0.000    0.000 
#    0.000    0.000    0.000    0.000    0.000    0.000 
#
# Total GULP energy -396852.993554 kJ/mol
# GULP energy per Si atom -12401.656049 kJ/mol
# Density = 1.963907 g / cm^3
# Si number density = 19.683868 Si / 1000 Ang^3
#
#
#
# Elastic Constant Matrix: (Units=GPa)
#
#
# Indices 1 2 3 4 5 6 
#
# 1 121.3488 33.7113 74.9947 0.0000 0.0000 0.0000
# 2 33.7113 95.8376 54.5899 0.0000 0.0000 0.0000
# 3 74.9947 54.5899 194.9106 0.0000 0.0000 0.0000
# 4 0.0000 0.0000 0.0000 -6.4683 0.0000 0.0000
# 5 0.0000 0.0000 0.0000 0.0000 24.7492 0.0000
# 6 0.0000 0.0000 0.0000 0.0000 0.0000 28.3583
#
#
#
# Elastic Compliance Matrix: (Units=1/GPa)
#
#
# Indices 1 2 3 4 5 6 
#
# 1 0.011051 -0.001743 -0.003764 0.000000 0.000000 0.000000
# 2 -0.001743 0.012690 -0.002883 0.000000 0.000000 0.000000
# 3 -0.003764 -0.002883 0.007386 0.000000 0.000000 0.000000
# 4 0.000000 0.000000 0.000000 -0.154600 0.000000 0.000000
# 5 0.000000 0.000000 0.000000 0.000000 0.040405 0.000000
# 6 0.000000 0.000000 0.000000 0.000000 0.000000 0.035263
#
#
# Mechanical properties :
#
#
# Convention : Reuss Voigt Hill
#
# Bulk Modulus (GPa) = 69.70457 82.07652 75.89054
# Shear Modulus (GPa) = -190.54017 25.91459 -82.31279
#
# Velocity S-wave (km/s) = -9.84938 3.63235 -6.47365
# Velocity P-wave (km/s) = 9.68804 7.70583 4.15201
#
# Compressibility (1/GPa) = 0.01434626
#
# Stress axis : x y z
#
# Youngs Moduli (GPa) = 90.48891 78.80248 135.38594
#
# Poissons Ratio (x) = 0.13738 0.50956
# Poissons Ratio (y) = 0.15776 0.39037
# Poissons Ratio (z) = 0.34058 0.22722
#
# Static dielectric constant tensor:
#      x y z
#    x 3.349330 0.000000 0.000000 
#    y 0.000000 3.457300 0.000000 
#    z 0.000000 0.000000 4.202890 
# 
# 
# High freq. dielectric constant tensor:
#      x y z
#    x 1.753750 0.000000 0.000000 
#    y 0.000000 1.751570 0.000000 
#    z 0.000000 0.000000 1.792570 
# 
# From -- ./inp_files/55294.got.cif
#   From: 2010.03.12/outbox.cif.g09.slc.cpg/sg65_28_cif.got.tgz:55294.got - 2010.04.10 20:52:16.
