data_PCOD8266993
_publ_section_title
;
Structure prediction by ZEFSAII (Michael W. Deem and Ramdas Pophale) SiO2 
 PCOD8266993
Probable space group: C M M M
;
_chemical_formula_sum "Si O2"
_cell_formula_units_Z 88
_cell_length_a 25.240162
_cell_length_b 9.852340
_cell_length_c 18.726018
_cell_angle_alpha 90.000000
_cell_angle_beta 90.000000
_cell_angle_gamma 90.000000
_cell_volume 4656.686116
_symmetry_space_group_name_H-M "C M M M"
_symmetry_group_IT_number 65
_symmetry_cell_setting 'orthorhombic'
loop_
_space_group_symop_operation_xyz
x,y,z
-x,-y,z
x,-y,-z
-x,y,-z
-x,-y,-z
x,y,-z
-x,y,z
x,-y,z
1/2+x,1/2+y,z
1/2-x,1/2-y,z
1/2+x,1/2-y,-z
1/2-x,1/2+y,-z
1/2-x,1/2-y,-z
1/2+x,1/2+y,-z
1/2-x,1/2+y,z
1/2+x,1/2-y,z
loop_
_atom_site_type_symbol
_atom_site_label
_atom_site_fract_x
_atom_site_fract_y
_atom_site_fract_z
Si Si1 0.133276 0.221194 0.083025
Si Si2 0.561411 0.500000 0.416013
Si Si3 0.125818 0.783026 0.331824
Si Si4 0.940988 0.153676 0.202000
Si Si5 0.830831 0.500000 0.316001
Si Si6 0.290705 0.500000 0.299911
Si Si7 0.832638 0.500000 0.854790
Si Si8 0.211714 0.000000 0.131259
O O1 0.083193 0.154136 0.122657
O O2 0.138158 0.371063 0.113497
O O3 0.186271 0.134864 0.097634
O O4 0.120150 0.223320 0.000000
O O5 0.500000 0.500000 0.393699
O O6 0.569302 0.500000 0.500000
O O7 0.587468 0.360689 0.386942
O O8 0.096595 0.765174 0.255896
O O9 0.141618 0.629935 0.353737
O O10 0.180550 0.864768 0.326792
O O11 0.000000 0.216792 0.200593
O O12 0.942860 0.000000 0.230878
O O13 0.768138 0.500000 0.331675
O O14 0.836464 0.500000 0.230533
O O15 0.296103 0.500000 0.215345
O O16 0.773424 0.500000 0.886056
#
# Coordination Sequence:
#
# PCOD8266993 Si02
#       8
#    16   8  16  16   8   8   8   8
#     4  12  23  37  52  76 111 148 191 244 302 355
#     4  10  22  42  69  97 123 157 193 226 279 347
#     4  11  19  37  62  90 122 152 193 236 285 336
#     4  11  21  37  59  81 103 140 197 251 292 339
#     4  11  21  33  60  93 120 152 195 247 290 334
#     4  10  18  34  59  86 119 156 197 240 287 344
#     4  11  23  37  53  77 115 151 188 237 297 355
#     4  11  20  36  55  77 106 145 196 245 290 345
#
# _framework density 18.897559999999999
#
# number of rings (size 3 to 8) (size 9 to 14) (size 15 to 20)
#    0.000    1.000    6.364    2.182    0.000    5.455 
#    0.000    4.545    0.000   10.909    0.000    0.000 
#    0.000    0.000    0.000    0.000    0.000    0.000 
#
# Total GULP energy -545636.582742 kJ/mol
# GULP energy per Si atom -12400.831426 kJ/mol
# Density = 1.885455 g / cm^3
# Si number density = 18.897560 Si / 1000 Ang^3
#
#
#
# Elastic Constant Matrix: (Units=GPa)
#
#
# Indices 1 2 3 4 5 6 
#
# 1 122.5516 49.7930 38.3067 0.0000 0.0000 0.0000
# 2 49.7930 132.9308 24.2593 0.0000 0.0000 0.0000
# 3 38.3067 24.2593 68.9256 0.0000 0.0000 0.0000
# 4 0.0000 0.0000 0.0000 28.8203 0.0000 0.0000
# 5 0.0000 0.0000 0.0000 0.0000 22.3264 0.0000
# 6 0.0000 0.0000 0.0000 0.0000 0.0000 12.7897
#
#
#
# Elastic Compliance Matrix: (Units=1/GPa)
#
#
# Indices 1 2 3 4 5 6 
#
# 1 0.011030 -0.003220 -0.004997 0.000000 0.000000 0.000000
# 2 -0.003220 0.008979 -0.001371 0.000000 0.000000 0.000000
# 3 -0.004997 -0.001371 0.017768 0.000000 0.000000 0.000000
# 4 0.000000 0.000000 0.000000 0.034698 0.000000 0.000000
# 5 0.000000 0.000000 0.000000 0.000000 0.044790 0.000000
# 6 0.000000 0.000000 0.000000 0.000000 0.000000 0.078188
#
#
# Mechanical properties :
#
#
# Convention : Reuss Voigt Hill
#
# Bulk Modulus (GPa) = 53.75761 61.01400 57.38581
# Shear Modulus (GPa) = 22.64209 26.92389 24.78299
#
# Velocity S-wave (km/s) = 3.46518 3.77865 3.62531
# Velocity P-wave (km/s) = 6.67223 7.16899 6.92506
#
# Compressibility (1/GPa) = 0.01860202
#
# Stress axis : x y z
#
# Youngs Moduli (GPa) = 90.66281 111.37230 56.28096
#
# Poissons Ratio (x) = 0.35858 0.28123
# Poissons Ratio (y) = 0.29190 0.07715
# Poissons Ratio (z) = 0.45303 0.15268
#
# Static dielectric constant tensor:
#      x y z
#    x 3.647850 0.000000 0.000000 
#    y 0.000000 3.466970 0.000000 
#    z 0.000000 0.000000 3.205550 
# 
# 
# High freq. dielectric constant tensor:
#      x y z
#    x 1.739010 0.000000 0.000000 
#    y 0.000000 1.735210 0.000000 
#    z 0.000000 0.000000 1.706830 
# 
# From -- ./inp_files/65297.got.cif
#   From: 2010.03.12/outbox.cif.g09.slc.cpg/sg65_33_cif.got.tgz:65297.got - 2010.04.10 20:52:16.
