data_PCOD8266931
_publ_section_title
;
Structure prediction by ZEFSAII (Michael W. Deem and Ramdas Pophale) SiO2 
 PCOD8266931
Probable space group: C M M M
;
_chemical_formula_sum "Si O2"
_cell_formula_units_Z 64
_cell_length_a 31.116977
_cell_length_b 12.094408
_cell_length_c 8.943455
_cell_angle_alpha 90.000000
_cell_angle_beta 90.000000
_cell_angle_gamma 90.000000
_cell_volume 3365.792515
_symmetry_space_group_name_H-M "C M M M"
_symmetry_group_IT_number 65
_symmetry_cell_setting 'orthorhombic'
loop_
_space_group_symop_operation_xyz
x,y,z
-x,-y,z
x,-y,-z
-x,y,-z
-x,-y,-z
x,y,-z
-x,y,z
x,-y,z
1/2+x,1/2+y,z
1/2-x,1/2-y,z
1/2+x,1/2-y,-z
1/2-x,1/2+y,-z
1/2-x,1/2-y,-z
1/2+x,1/2+y,-z
1/2-x,1/2+y,z
1/2+x,1/2-y,z
loop_
_atom_site_type_symbol
_atom_site_label
_atom_site_fract_x
_atom_site_fract_y
_atom_site_fract_z
Si Si1 0.662296 0.000000 0.172574
Si Si2 0.796931 0.730871 0.824785
Si Si3 0.072411 0.500000 0.675874
Si Si4 0.547933 0.778194 0.828080
Si Si5 0.124622 0.875417 0.821650
O O1 0.690834 0.894421 0.210341
O O2 0.621890 0.000000 0.279544
O O3 0.646903 0.000000 0.000000
O O4 0.750000 0.750000 0.751305
O O5 0.832859 0.814007 0.757936
O O6 0.794262 0.754172 0.000000
O O7 0.067642 0.500000 0.500000
O O8 0.049310 0.391706 0.738043
O O9 0.500000 0.727456 0.812408
O O10 0.582335 0.689939 0.764620
O O11 0.559034 0.805449 0.000000
O O12 0.123472 0.000000 0.757584
O O13 0.125043 0.877178 0.000000
#
# Coordination Sequence:
#
# PCOD8266931 Si02
#       5
#     8  16   8  16  16
#     4  10  18  33  55  78 110 143 175 214 267 322
#     4   9  17  27  46  77 108 136 168 213 264 310
#     4  12  23  35  54  79 108 138 178 223 265 308
#     4  10  20  35  55  78 105 138 173 213 268 325
#     4   9  17  29  47  75 109 137 168 213 260 312
#
# _framework density 19.014838000000001
#
# number of rings (size 3 to 8) (size 9 to 14) (size 15 to 20)
#    0.000    2.250    2.500    1.500    1.750    2.500 
#    0.000    2.500    0.000    1.500    0.000    1.750 
#    0.000    0.000    0.000    0.000    0.000    0.000 
#
# Total GULP energy -396749.259725 kJ/mol
# GULP energy per Si atom -12398.414366 kJ/mol
# Density = 1.897156 g / cm^3
# Si number density = 19.014838 Si / 1000 Ang^3
#
#
#
# Elastic Constant Matrix: (Units=GPa)
#
#
# Indices 1 2 3 4 5 6 
#
# 1 175.5022 82.5603 19.5098 0.0000 0.0000 0.0000
# 2 82.5603 167.7316 21.8333 0.0000 0.0000 0.0000
# 3 19.5098 21.8333 37.2046 0.0000 0.0000 0.0000
# 4 0.0000 0.0000 0.0000 0.4376 0.0000 0.0000
# 5 0.0000 0.0000 0.0000 0.0000 6.1012 0.0000
# 6 0.0000 0.0000 0.0000 0.0000 0.0000 29.6705
#
#
#
# Elastic Compliance Matrix: (Units=1/GPa)
#
#
# Indices 1 2 3 4 5 6 
#
# 1 0.007540 -0.003461 -0.001923 0.000000 0.000000 0.000000
# 2 -0.003461 0.008044 -0.002905 0.000000 0.000000 0.000000
# 3 -0.001923 -0.002905 0.029592 0.000000 0.000000 0.000000
# 4 0.000000 0.000000 0.000000 2.285281 0.000000 0.000000
# 5 0.000000 0.000000 0.000000 0.000000 0.163903 0.000000
# 6 0.000000 0.000000 0.000000 0.000000 0.000000 0.033703
#
#
# Mechanical properties :
#
#
# Convention : Reuss Voigt Hill
#
# Bulk Modulus (GPa) = 34.96891 69.80501 52.38696
# Shear Modulus (GPa) = 1.95758 24.34419 13.15088
#
# Velocity S-wave (km/s) = 1.01574 3.58197 2.63270
# Velocity P-wave (km/s) = 4.45038 7.34152 6.07058
#
# Compressibility (1/GPa) = 0.02859683
#
# Stress axis : x y z
#
# Youngs Moduli (GPa) = 132.62993 124.32200 33.79315
#
# Poissons Ratio (x) = 0.43027 0.06498
# Poissons Ratio (y) = 0.45902 0.09819
# Poissons Ratio (z) = 0.25502 0.36122
#
# Static dielectric constant tensor:
#      x y z
#    x 3.822540 0.000000 0.000000 
#    y 0.000000 3.273790 0.000000 
#    z 0.000000 0.000000 2.818870 
# 
# 
# High freq. dielectric constant tensor:
#      x y z
#    x 1.759420 0.000000 0.000000 
#    y 0.000000 1.745020 0.000000 
#    z 0.000000 0.000000 1.665360 
# 
# From -- ./inp_files/4910.got.cif
#   From: 2010.03.12/outbox.cif.g09.slc.cpg/sg65_3_cif.got.tgz:4910.got - 2010.04.10 20:52:16.
