data_PCOD8266312
_publ_section_title
;
Structure prediction by ZEFSAII (Michael W. Deem and Ramdas Pophale) SiO2 
 PCOD8266312
Probable space group: C M M M
;
_chemical_formula_sum "Si O2"
_cell_formula_units_Z 72
_cell_length_a 15.802638
_cell_length_b 28.657276
_cell_length_c 8.570472
_cell_angle_alpha 90.000000
_cell_angle_beta 90.000000
_cell_angle_gamma 90.000000
_cell_volume 3881.228738
_symmetry_space_group_name_H-M "C M M M"
_symmetry_group_IT_number 65
_symmetry_cell_setting 'orthorhombic'
loop_
_space_group_symop_operation_xyz
x,y,z
-x,-y,z
x,-y,-z
-x,y,-z
-x,-y,-z
x,y,-z
-x,y,z
x,-y,z
1/2+x,1/2+y,z
1/2-x,1/2-y,z
1/2+x,1/2-y,-z
1/2-x,1/2+y,-z
1/2-x,1/2-y,-z
1/2+x,1/2+y,-z
1/2-x,1/2+y,z
1/2+x,1/2-y,z
loop_
_atom_site_type_symbol
_atom_site_label
_atom_site_fract_x
_atom_site_fract_y
_atom_site_fract_z
Si Si1 0.000000 0.284274 0.681611
Si Si2 0.328555 0.109630 0.317172
Si Si3 0.000000 0.384617 0.817470
Si Si4 0.820050 0.284127 0.686247
Si Si5 0.674763 0.555081 0.179090
Si Si6 0.000000 0.055473 0.676120
O O1 0.000000 0.339315 0.709246
O O2 0.911380 0.264474 0.749410
O O3 0.000000 0.274582 0.500000
O O4 0.346561 0.108245 0.500000
O O5 0.412359 0.089096 0.228769
O O6 0.307525 0.162431 0.259212
O O7 0.248791 0.077713 0.279551
O O8 0.000000 0.373156 0.000000
O O9 0.816361 0.282107 0.500000
O O10 0.750000 0.250000 0.760818
O O11 0.680104 0.500000 0.203857
O O12 0.583907 0.574212 0.237481
O O13 0.685933 0.569339 0.000000
O O14 0.000000 0.074726 0.500000
O O15 0.000000 0.000000 0.679061
#
# Coordination Sequence:
#
# PCOD8266312 Si02
#       6
#     8  16   8  16  16   8
#     4   8  14  26  45  66  89 121 160 197 234 283
#     4  10  19  32  51  74 100 129 164 205 245 289
#     4  10  18  30  49  70  95 128 165 202 244 297
#     4   8  14  26  45  69  94 121 156 197 239 283
#     4  10  20  34  52  74 101 132 164 200 244 292
#     4   9  17  31  52  75  98 128 167 205 240 285
#
# _framework density 18.550826000000001
#
# number of rings (size 3 to 8) (size 9 to 14) (size 15 to 20)
#    0.000    2.778    0.000    4.000    0.000    2.667 
#    0.000    1.667    0.000   24.000    0.000    0.000 
#    0.000    0.000    0.000    0.000    0.000    0.000 
#
# Total GULP energy -446045.018010 kJ/mol
# GULP energy per Si atom -12390.139389 kJ/mol
# Density = 1.850860 g / cm^3
# Si number density = 18.550826 Si / 1000 Ang^3
#
#
#
# Elastic Constant Matrix: (Units=GPa)
#
#
# Indices 1 2 3 4 5 6 
#
# 1 178.3763 38.8504 29.4780 0.0000 0.0000 0.0000
# 2 38.8504 31.5065 19.7363 0.0000 0.0000 0.0000
# 3 29.4780 19.7363 49.4747 0.0000 0.0000 0.0000
# 4 0.0000 0.0000 0.0000 10.8131 0.0000 0.0000
# 5 0.0000 0.0000 0.0000 0.0000 28.7692 0.0000
# 6 0.0000 0.0000 0.0000 0.0000 0.0000 28.0394
#
#
#
# Elastic Compliance Matrix: (Units=1/GPa)
#
#
# Indices 1 2 3 4 5 6 
#
# 1 0.007707 -0.008834 -0.001068 0.000000 0.000000 0.000000
# 2 -0.008834 0.052440 -0.015656 0.000000 0.000000 0.000000
# 3 -0.001068 -0.015656 0.027094 0.000000 0.000000 0.000000
# 4 0.000000 0.000000 0.000000 0.092481 0.000000 0.000000
# 5 0.000000 0.000000 0.000000 0.000000 0.034759 0.000000
# 6 0.000000 0.000000 0.000000 0.000000 0.000000 0.035664
#
#
# Mechanical properties :
#
#
# Convention : Reuss Voigt Hill
#
# Bulk Modulus (GPa) = 27.68134 48.38745 38.03439
# Shear Modulus (GPa) = 15.95907 24.94385 20.45146
#
# Velocity S-wave (km/s) = 2.93625 3.67089 3.32393
# Velocity P-wave (km/s) = 5.14293 6.64135 5.93958
#
# Compressibility (1/GPa) = 0.03612542
#
# Stress axis : x y z
#
# Youngs Moduli (GPa) = 129.75786 19.06942 36.90884
#
# Poissons Ratio (x) = 0.16846 0.03941
# Poissons Ratio (y) = 1.14631 0.57783
# Poissons Ratio (z) = 0.13854 0.29854
#
# Static dielectric constant tensor:
#      x y z
#    x 4.126590 0.000000 0.000000 
#    y 0.000000 3.054460 0.000000 
#    z 0.000000 0.000000 3.203970 
# 
# 
# High freq. dielectric constant tensor:
#      x y z
#    x 1.750090 0.000000 0.000000 
#    y 0.000000 1.665480 0.000000 
#    z 0.000000 0.000000 1.704660 
# 
# From -- ./inp_files/7739.got.cif
#   From: 2010.03.12/outbox.cif.g09.slc.cpg/sg65_4_cif.got.tgz:7739.got - 2010.04.10 20:52:16.
