data_PCOD8266976
_publ_section_title
;
Structure prediction by ZEFSAII (Michael W. Deem and Ramdas Pophale) SiO2 
 PCOD8266976
Probable space group: C M M M
;
_chemical_formula_sum "Si O2"
_cell_formula_units_Z 96
_cell_length_a 23.497277
_cell_length_b 9.339763
_cell_length_c 25.076801
_cell_angle_alpha 90.000000
_cell_angle_beta 90.000000
_cell_angle_gamma 90.000000
_cell_volume 5503.329629
_symmetry_space_group_name_H-M "C M M M"
_symmetry_group_IT_number 65
_symmetry_cell_setting 'orthorhombic'
loop_
_space_group_symop_operation_xyz
x,y,z
-x,-y,z
x,-y,-z
-x,y,-z
-x,-y,-z
x,y,-z
-x,y,z
x,-y,z
1/2+x,1/2+y,z
1/2-x,1/2-y,z
1/2+x,1/2-y,-z
1/2-x,1/2+y,-z
1/2-x,1/2-y,-z
1/2+x,1/2+y,-z
1/2-x,1/2+y,z
1/2+x,1/2-y,z
loop_
_atom_site_type_symbol
_atom_site_label
_atom_site_fract_x
_atom_site_fract_y
_atom_site_fract_z
Si Si1 0.000000 0.339886 0.283470
Si Si2 0.110776 0.666948 0.153439
Si Si3 0.691454 0.831623 0.251809
Si Si4 0.500000 0.329399 0.821693
Si Si5 0.194824 0.334724 0.939749
Si Si6 0.935367 0.832796 0.439231
Si Si7 0.885816 0.662933 0.651798
O O1 0.000000 0.217609 0.239548
O O2 0.054815 0.318357 0.318896
O O3 0.000000 0.500000 0.257586
O O4 0.093770 0.500000 0.157095
O O5 0.148310 0.710585 0.204625
O O6 0.143377 0.703249 0.099088
O O7 0.055313 0.764859 0.149945
O O8 0.750000 0.750000 0.242970
O O9 0.664170 0.784992 0.308509
O O10 0.703686 0.000000 0.250377
O O11 0.500000 0.500000 0.826196
O O12 0.211138 0.500000 0.935556
O O13 0.250000 0.250000 0.920378
O O14 0.177174 0.291953 0.000000
O O15 0.918536 0.798314 0.500000
O O16 0.888801 0.756140 0.401860
O O17 0.000000 0.778741 0.428240
O O18 0.931913 0.000000 0.427619
O O19 0.875053 0.500000 0.634771
#
# Coordination Sequence:
#
# PCOD8266976 Si02
#       7
#     8  16  16   8  16  16  16
#     4  10  18  34  53  72 105 141 170 204 258 315
#     4  10  20  37  56  74 107 145 172 209 261 315
#     4  10  21  35  52  75 102 135 171 210 258 306
#     4  12  24  34  51  80 107 135 178 218 256 311
#     4   9  18  33  56  83 107 138 180 221 263 309
#     4   9  18  31  47  72 106 137 165 204 256 304
#     4  10  19  32  52  75 101 134 171 207 249 307
#
# _framework density 17.443985000000001
#
# number of rings (size 3 to 8) (size 9 to 14) (size 15 to 20)
#    0.000    2.167    2.500    1.750    0.000    3.000 
#    0.000    1.250    0.000    3.000    0.000    0.000 
#    0.000    0.000    0.000    0.000    0.000    0.000 
#
# Total GULP energy -595185.673317 kJ/mol
# GULP energy per Si atom -12399.701527 kJ/mol
# Density = 1.740428 g / cm^3
# Si number density = 17.443985 Si / 1000 Ang^3
#
#
#
# Elastic Constant Matrix: (Units=GPa)
#
#
# Indices 1 2 3 4 5 6 
#
# 1 111.3437 60.2853 53.0019 0.0000 0.0000 0.0000
# 2 60.2853 76.9965 53.1374 0.0000 0.0000 0.0000
# 3 53.0019 53.1374 106.3248 0.0000 0.0000 0.0000
# 4 0.0000 0.0000 0.0000 24.8501 0.0000 0.0000
# 5 0.0000 0.0000 0.0000 0.0000 35.1202 0.0000
# 6 0.0000 0.0000 0.0000 0.0000 0.0000 31.6164
#
#
#
# Elastic Compliance Matrix: (Units=1/GPa)
#
#
# Indices 1 2 3 4 5 6 
#
# 1 0.016057 -0.010759 -0.002627 0.000000 0.000000 0.000000
# 2 -0.010759 0.027034 -0.008148 0.000000 0.000000 0.000000
# 3 -0.002627 -0.008148 0.014787 0.000000 0.000000 0.000000
# 4 0.000000 0.000000 0.000000 0.040241 0.000000 0.000000
# 5 0.000000 0.000000 0.000000 0.000000 0.028474 0.000000
# 6 0.000000 0.000000 0.000000 0.000000 0.000000 0.031629
#
#
# Mechanical properties :
#
#
# Convention : Reuss Voigt Hill
#
# Bulk Modulus (GPa) = 67.52007 69.72380 68.62194
# Shear Modulus (GPa) = 24.24517 26.86671 25.55594
#
# Velocity S-wave (km/s) = 3.73216 3.92876 3.83172
# Velocity P-wave (km/s) = 7.57383 7.78698 7.68114
#
# Compressibility (1/GPa) = 0.01481041
#
# Stress axis : x y z
#
# Youngs Moduli (GPa) = 62.27762 36.99013 67.62812
#
# Poissons Ratio (x) = 0.39797 0.17769
# Poissons Ratio (y) = 0.67004 0.55100
# Poissons Ratio (z) = 0.16363 0.30138
#
# Static dielectric constant tensor:
#      x y z
#    x 3.195810 0.000000 0.000000 
#    y 0.000000 3.168080 0.000000 
#    z 0.000000 0.000000 3.340060 
# 
# 
# High freq. dielectric constant tensor:
#      x y z
#    x 1.659880 0.000000 0.000000 
#    y 0.000000 1.666530 0.000000 
#    z 0.000000 0.000000 1.677320 
# 
# From -- ./inp_files/71472.got.cif
#   From: 2010.03.12/outbox.cif.g09.slc.cpg/sg65_36_cif.got.tgz:71472.got - 2010.04.10 20:52:16.
