data_PCOD8266518
_publ_section_title
;
Structure prediction by ZEFSAII (Michael W. Deem and Ramdas Pophale) SiO2 
 PCOD8266518
Probable space group: C M M M
;
_chemical_formula_sum "Si O2"
_cell_formula_units_Z 64
_cell_length_a 9.301240
_cell_length_b 25.737346
_cell_length_c 18.436807
_cell_angle_alpha 90.000000
_cell_angle_beta 90.000000
_cell_angle_gamma 90.000000
_cell_volume 4413.573070
_symmetry_space_group_name_H-M "C M M M"
_symmetry_group_IT_number 65
_symmetry_cell_setting 'orthorhombic'
loop_
_space_group_symop_operation_xyz
x,y,z
-x,-y,z
x,-y,-z
-x,y,-z
-x,-y,-z
x,y,-z
-x,y,z
x,-y,z
1/2+x,1/2+y,z
1/2-x,1/2-y,z
1/2+x,1/2-y,-z
1/2-x,1/2+y,-z
1/2-x,1/2-y,-z
1/2+x,1/2+y,-z
1/2-x,1/2+y,z
1/2+x,1/2-y,z
loop_
_atom_site_type_symbol
_atom_site_label
_atom_site_fract_x
_atom_site_fract_y
_atom_site_fract_z
Si Si1 0.169940 0.905884 0.841150
Si Si2 0.831331 0.500000 0.416565
Si Si3 0.333310 0.000000 0.914281
Si Si4 0.157163 0.057455 0.310202
Si Si5 0.667274 0.300354 0.083406
O O1 0.210573 0.905857 0.755229
O O2 0.217016 0.849894 0.870516
O O3 0.000000 0.916033 0.852445
O O4 0.258790 0.948691 0.883898
O O5 0.785009 0.500000 0.500000
O O6 0.767055 0.552447 0.378434
O O7 0.000000 0.500000 0.406152
O O8 0.500000 0.000000 0.890830
O O9 0.315173 0.000000 0.000000
O O10 0.000000 0.075850 0.338940
O O11 0.143274 0.000000 0.274547
O O12 0.500000 0.289275 0.093122
O O13 0.750000 0.250000 0.113227
O O14 0.707675 0.311318 0.000000
#
# Coordination Sequence:
#
# PCOD8266518 Si02
#       5
#    16   8   8  16  16
#     4  10  18  31  47  61  80 110 145 176 211 257
#     4   9  16  25  38  58  86 117 142 161 188 238
#     4  11  22  29  36  58  86 109 136 173 216 256
#     4   8  15  26  40  59  81 106 135 167 199 236
#     4   9  18  31  46  62  80 107 144 184 222 256
#
# _framework density 14.500722
#
# number of rings (size 3 to 8) (size 9 to 14) (size 15 to 20)
#    0.750    2.000    1.250    1.125    0.000    6.000 
#    0.000    2.500    0.000    0.000    0.000    0.000 
#    0.000    1.000    0.000    2.250    0.000    4.000 
#
# Total GULP energy -396500.798968 kJ/mol
# GULP energy per Si atom -12390.649968 kJ/mol
# Density = 1.446772 g / cm^3
# Si number density = 14.500722 Si / 1000 Ang^3
#
#
#
# Elastic Constant Matrix: (Units=GPa)
#
#
# Indices 1 2 3 4 5 6 
#
# 1 66.8287 45.2550 53.4610 0.0000 0.0000 0.0000
# 2 45.2550 96.3981 53.7258 0.0000 0.0000 0.0000
# 3 53.4610 53.7258 103.8554 0.0000 0.0000 0.0000
# 4 0.0000 0.0000 0.0000 14.3609 0.0000 0.0000
# 5 0.0000 0.0000 0.0000 0.0000 22.5905 0.0000
# 6 0.0000 0.0000 0.0000 0.0000 0.0000 21.5018
#
#
#
# Elastic Compliance Matrix: (Units=1/GPa)
#
#
# Indices 1 2 3 4 5 6 
#
# 1 0.028740 -0.007373 -0.010981 0.000000 0.000000 0.000000
# 2 -0.007373 0.016467 -0.004724 0.000000 0.000000 0.000000
# 3 -0.010981 -0.004724 0.017725 0.000000 0.000000 0.000000
# 4 0.000000 0.000000 0.000000 0.069633 0.000000 0.000000
# 5 0.000000 0.000000 0.000000 0.000000 0.044266 0.000000
# 6 0.000000 0.000000 0.000000 0.000000 0.000000 0.046508
#
#
# Mechanical properties :
#
#
# Convention : Reuss Voigt Hill
#
# Bulk Modulus (GPa) = 59.59866 63.55176 61.57521
# Shear Modulus (GPa) = 18.17610 19.33335 18.75472
#
# Velocity S-wave (km/s) = 3.54427 3.65536 3.60024
# Velocity P-wave (km/s) = 7.61175 7.85731 7.73550
#
# Compressibility (1/GPa) = 0.01677890
#
# Stress axis : x y z
#
# Youngs Moduli (GPa) = 34.79438 60.72588 56.41822
#
# Poissons Ratio (x) = 0.44771 0.61950
# Poissons Ratio (y) = 0.25653 0.26650
# Poissons Ratio (z) = 0.38206 0.28685
#
# Static dielectric constant tensor:
#      x y z
#    x 2.838510 0.000000 0.000000 
#    y 0.000000 2.682670 0.000000 
#    z 0.000000 0.000000 2.730040 
# 
# 
# High freq. dielectric constant tensor:
#      x y z
#    x 1.558350 0.000000 0.000000 
#    y 0.000000 1.523180 0.000000 
#    z 0.000000 0.000000 1.540100 
# 
# From -- ./inp_files/59977.got.cif
#   From: 2010.03.12/outbox.cif.g09.slc.cpg/sg65_30_cif.got.tgz:59977.got - 2010.04.10 20:52:16.
