data_PCOD8266819
_publ_section_title
;
Structure prediction by ZEFSAII (Michael W. Deem and Ramdas Pophale) SiO2 
 PCOD8266819
Probable space group: C M M M
;
_chemical_formula_sum "Si O2"
_cell_formula_units_Z 64
_cell_length_a 8.620995
_cell_length_b 15.849017
_cell_length_c 22.138251
_cell_angle_alpha 90.000000
_cell_angle_beta 90.000000
_cell_angle_gamma 90.000000
_cell_volume 3024.844347
_symmetry_space_group_name_H-M "C M M M"
_symmetry_group_IT_number 65
_symmetry_cell_setting 'orthorhombic'
loop_
_space_group_symop_operation_xyz
x,y,z
-x,-y,z
x,-y,-z
-x,y,-z
-x,-y,-z
x,y,-z
-x,y,z
x,-y,z
1/2+x,1/2+y,z
1/2-x,1/2-y,z
1/2+x,1/2-y,-z
1/2-x,1/2+y,-z
1/2-x,1/2-y,-z
1/2+x,1/2+y,-z
1/2-x,1/2+y,z
1/2+x,1/2-y,z
loop_
_atom_site_type_symbol
_atom_site_label
_atom_site_fract_x
_atom_site_fract_y
_atom_site_fract_z
Si Si1 0.682954 0.157076 0.621967
Si Si2 0.184622 0.500000 0.068183
Si Si3 0.683787 0.837304 0.140779
Si Si4 0.176802 0.904186 0.741206
Si Si5 0.683910 0.656101 0.500000
O O1 0.500000 0.161872 0.615549
O O2 0.750000 0.250000 0.631724
O O3 0.730661 0.100870 0.678708
O O4 0.752848 0.112932 0.561377
O O5 0.246952 0.415709 0.101161
O O6 0.000000 0.500000 0.069218
O O7 0.248704 0.500000 0.000000
O O8 0.500000 0.834339 0.140314
O O9 0.750000 0.750000 0.113308
O O10 0.743258 0.845347 0.209207
O O11 0.000000 0.874228 0.731633
O O12 0.184997 0.000000 0.764312
O O13 0.500000 0.654972 0.500000
O O14 0.750000 0.750000 0.500000
#
# Coordination Sequence:
#
# PCOD8266819 Si02
#       5
#    16   8  16  16   8
#     4  11  21  35  56  82 113 149 196 246 302 366
#     4   9  20  40  65  93 129 170 209 252 303 363
#     4  11  22  39  64  93 126 165 210 255 308 366
#     4  11  23  39  59  84 117 154 198 253 311 365
#     4  10  18  32  53  78 111 148 193 245 303 362
#
# _framework density 21.158114000000001
#
# number of rings (size 3 to 8) (size 9 to 14) (size 15 to 20)
#    0.000    1.375    1.250    7.125    0.000    2.000 
#    0.000    0.625    0.000    9.000    0.000    0.000 
#    0.000    0.000    0.000    0.000    0.000    0.000 
#
# Total GULP energy -396874.429823 kJ/mol
# GULP energy per Si atom -12402.325932 kJ/mol
# Density = 2.110996 g / cm^3
# Si number density = 21.158114 Si / 1000 Ang^3
#
#
#
# Elastic Constant Matrix: (Units=GPa)
#
#
# Indices 1 2 3 4 5 6 
#
# 1 151.5822 37.3293 43.9824 0.0000 0.0000 0.0000
# 2 37.3293 116.0262 52.8939 0.0000 0.0000 0.0000
# 3 43.9824 52.8939 150.3314 0.0000 0.0000 0.0000
# 4 0.0000 0.0000 0.0000 30.3712 0.0000 0.0000
# 5 0.0000 0.0000 0.0000 0.0000 22.7057 0.0000
# 6 0.0000 0.0000 0.0000 0.0000 0.0000 27.2904
#
#
#
# Elastic Compliance Matrix: (Units=1/GPa)
#
#
# Indices 1 2 3 4 5 6 
#
# 1 0.007473 -0.001677 -0.001597 0.000000 0.000000 0.000000
# 2 -0.001677 0.010641 -0.003254 0.000000 0.000000 0.000000
# 3 -0.001597 -0.003254 0.008264 0.000000 0.000000 0.000000
# 4 0.000000 0.000000 0.000000 0.032926 0.000000 0.000000
# 5 0.000000 0.000000 0.000000 0.000000 0.044042 0.000000
# 6 0.000000 0.000000 0.000000 0.000000 0.000000 0.036643
#
#
# Mechanical properties :
#
#
# Convention : Reuss Voigt Hill
#
# Bulk Modulus (GPa) = 75.04693 76.26123 75.65408
# Shear Modulus (GPa) = 31.74920 34.98907 33.36914
#
# Velocity S-wave (km/s) = 3.87792 4.07098 3.97562
# Velocity P-wave (km/s) = 7.45638 7.63013 7.54375
#
# Compressibility (1/GPa) = 0.01332500
#
# Stress axis : x y z
#
# Youngs Moduli (GPa) = 133.81151 93.97244 121.00870
#
# Poissons Ratio (x) = 0.15755 0.19320
# Poissons Ratio (y) = 0.22434 0.39372
# Poissons Ratio (z) = 0.21364 0.30576
#
# Static dielectric constant tensor:
#      x y z
#    x 3.754790 0.000000 0.000000 
#    y 0.000000 3.526120 0.000000 
#    z 0.000000 0.000000 4.148920 
# 
# 
# High freq. dielectric constant tensor:
#      x y z
#    x 1.830440 0.000000 0.000000 
#    y 0.000000 1.817670 0.000000 
#    z 0.000000 0.000000 1.835130 
# 
# From -- ./inp_files/66747.got.cif
#   From: 2010.03.12/outbox.cif.g09.slc.cpg/sg65_34_cif.got.tgz:66747.got - 2010.04.10 20:52:16.
