data_PCOD8266836
_publ_section_title
;
Structure prediction by ZEFSAII (Michael W. Deem and Ramdas Pophale) SiO2 
 PCOD8266836
Probable space group: C M M M
;
_chemical_formula_sum "Si O2"
_cell_formula_units_Z 128
_cell_length_a 20.048614
_cell_length_b 20.153487
_cell_length_c 17.759542
_cell_angle_alpha 90.000000
_cell_angle_beta 90.000000
_cell_angle_gamma 90.000000
_cell_volume 7175.733739
_symmetry_space_group_name_H-M "C M M M"
_symmetry_group_IT_number 65
_symmetry_cell_setting 'orthorhombic'
loop_
_space_group_symop_operation_xyz
x,y,z
-x,-y,z
x,-y,-z
-x,y,-z
-x,-y,-z
x,y,-z
-x,y,z
x,-y,z
1/2+x,1/2+y,z
1/2-x,1/2-y,z
1/2+x,1/2-y,-z
1/2-x,1/2+y,-z
1/2-x,1/2-y,-z
1/2+x,1/2+y,-z
1/2-x,1/2+y,z
1/2+x,1/2-y,z
loop_
_atom_site_type_symbol
_atom_site_label
_atom_site_fract_x
_atom_site_fract_y
_atom_site_fract_z
Si Si1 0.802611 0.424843 0.326950
Si Si2 0.346843 0.925505 0.836722
Si Si3 0.924259 0.683965 0.912901
Si Si4 0.214021 0.819517 0.588254
Si Si5 0.424887 0.122744 0.412687
Si Si6 0.572765 0.727339 0.589326
Si Si7 0.787955 0.071372 0.087471
Si Si8 0.315376 0.712980 0.089289
O O1 0.775186 0.500000 0.330341
O O2 0.813302 0.401785 0.241139
O O3 0.748218 0.377725 0.365122
O O4 0.873796 0.423294 0.368359
O O5 0.407869 0.879002 0.860983
O O6 0.291260 0.920752 0.901602
O O7 0.375209 0.000000 0.828217
O O8 0.880525 0.746654 0.886534
O O9 0.000000 0.704768 0.899102
O O10 0.910552 0.666119 0.000000
O O11 0.219459 0.836514 0.500000
O O12 0.250000 0.750000 0.605458
O O13 0.136337 0.816167 0.615419
O O14 0.405380 0.119994 0.500000
O O15 0.500000 0.096257 0.399759
O O16 0.418067 0.197635 0.381269
O O17 0.572046 0.730652 0.500000
O O18 0.500000 0.699314 0.617383
O O19 0.822577 0.137548 0.122143
O O20 0.811451 0.000000 0.124156
O O21 0.803737 0.067739 0.000000
O O22 0.250000 0.750000 0.122557
O O23 0.307617 0.707878 0.000000
#
# Coordination Sequence:
#
# PCOD8266836 Si02
#       8
#    16  16  16  16  16  16  16  16
#     4  11  23  35  47  70 106 140 168 206 260 310
#     4  10  21  35  48  68 102 138 170 205 251 310
#     4  10  20  34  53  77 105 137 174 218 263 306
#     4  10  18  32  54  78 102 131 172 218 259 303
#     4   9  17  31  50  69  90 123 168 207 242 297
#     4   8  14  27  50  77 102 127 158 205 259 301
#     4   9  16  29  52  76  96 124 168 213 248 295
#     4   9  15  27  48  74 100 127 161 206 255 296
#
# _framework density 17.837897000000002
#
# number of rings (size 3 to 8) (size 9 to 14) (size 15 to 20)
#    0.000    2.500    2.500    1.500    0.000    2.750 
#    2.250    2.500    0.000    0.750    0.000    4.375 
#    0.000    3.000    0.000    0.125    0.000    0.000 
#
# Total GULP energy -793135.833868 kJ/mol
# GULP energy per Si atom -12392.747404 kJ/mol
# Density = 1.779730 g / cm^3
# Si number density = 17.837897 Si / 1000 Ang^3
#
#
#
# Elastic Constant Matrix: (Units=GPa)
#
#
# Indices 1 2 3 4 5 6 
#
# 1 120.8165 63.3214 28.5853 0.0000 0.0000 0.0000
# 2 63.3214 125.9126 37.0111 0.0000 0.0000 0.0000
# 3 28.5853 37.0111 34.8342 0.0000 0.0000 0.0000
# 4 0.0000 0.0000 0.0000 14.9397 0.0000 0.0000
# 5 0.0000 0.0000 0.0000 0.0000 14.4583 0.0000
# 6 0.0000 0.0000 0.0000 0.0000 0.0000 24.8443
#
#
#
# Elastic Compliance Matrix: (Units=1/GPa)
#
#
# Indices 1 2 3 4 5 6 
#
# 1 0.011790 -0.004486 -0.004908 0.000000 0.000000 0.000000
# 2 -0.004486 0.013256 -0.010403 0.000000 0.000000 0.000000
# 3 -0.004908 -0.010403 0.043788 0.000000 0.000000 0.000000
# 4 0.000000 0.000000 0.000000 0.066936 0.000000 0.000000
# 5 0.000000 0.000000 0.000000 0.000000 0.069164 0.000000
# 6 0.000000 0.000000 0.000000 0.000000 0.000000 0.040251
#
#
# Mechanical properties :
#
#
# Convention : Reuss Voigt Hill
#
# Bulk Modulus (GPa) = 34.20066 59.93321 47.06693
# Shear Modulus (GPa) = 16.97647 21.02483 19.00065
#
# Velocity S-wave (km/s) = 3.08832 3.43689 3.26726
# Velocity P-wave (km/s) = 5.65081 7.03003 6.37781
#
# Compressibility (1/GPa) = 0.02923920
#
# Stress axis : x y z
#
# Youngs Moduli (GPa) = 84.82072 75.43719 22.83727
#
# Poissons Ratio (x) = 0.33843 0.11208
# Poissons Ratio (y) = 0.38053 0.23758
# Poissons Ratio (z) = 0.41630 0.78477
#
# Static dielectric constant tensor:
#      x y z
#    x 3.384390 0.000000 0.000000 
#    y 0.000000 3.480020 0.000000 
#    z 0.000000 0.000000 3.007600 
# 
# 
# High freq. dielectric constant tensor:
#      x y z
#    x 1.675430 0.000000 0.000000 
#    y 0.000000 1.685280 0.000000 
#    z 0.000000 0.000000 1.659060 
# 
# From -- ./inp_files/56241.got.cif
#   From: 2010.03.12/outbox.cif.g09.slc.cpg/sg65_29_cif.got.tgz:56241.got - 2010.04.10 20:52:16.
