data_PCOD8266301
_publ_section_title
;
Structure prediction by ZEFSAII (Michael W. Deem and Ramdas Pophale) SiO2 
 PCOD8266301
Probable space group: C M M M
;
_chemical_formula_sum "Si O2"
_cell_formula_units_Z 104
_cell_length_a 28.882568
_cell_length_b 9.230360
_cell_length_c 23.489831
_cell_angle_alpha 90.000000
_cell_angle_beta 90.000000
_cell_angle_gamma 90.000000
_cell_volume 6262.306739
_symmetry_space_group_name_H-M "C M M M"
_symmetry_group_IT_number 65
_symmetry_cell_setting 'orthorhombic'
loop_
_space_group_symop_operation_xyz
x,y,z
-x,-y,z
x,-y,-z
-x,y,-z
-x,-y,-z
x,y,-z
-x,y,z
x,-y,z
1/2+x,1/2+y,z
1/2-x,1/2-y,z
1/2+x,1/2-y,-z
1/2-x,1/2+y,-z
1/2-x,1/2-y,-z
1/2+x,1/2+y,-z
1/2-x,1/2+y,z
1/2+x,1/2-y,z
loop_
_atom_site_type_symbol
_atom_site_label
_atom_site_fract_x
_atom_site_fract_y
_atom_site_fract_z
Si Si1 0.383416 0.335090 0.936286
Si Si2 0.295597 0.169583 0.898850
Si Si3 0.054994 0.658783 0.500000
Si Si4 0.446830 0.669419 0.167662
Si Si5 0.105456 0.671609 0.731697
Si Si6 0.448063 0.826889 0.378130
Si Si7 0.294531 0.832764 0.233404
O O1 0.367361 0.500000 0.923984
O O2 0.339618 0.230232 0.931830
O O3 0.423178 0.288399 0.892170
O O4 0.403970 0.320658 0.000000
O O5 0.250000 0.250000 0.922077
O O6 0.302531 0.204556 0.832482
O O7 0.290610 0.000000 0.911137
O O8 0.078202 0.500000 0.500000
O O9 0.068933 0.736940 0.440054
O O10 0.000000 0.642280 0.500000
O O11 0.500000 0.717767 0.163727
O O12 0.442031 0.500000 0.180654
O O13 0.422664 0.755629 0.217945
O O14 0.099644 0.500000 0.739024
O O15 0.085904 0.728037 0.671363
O O16 0.159329 0.716855 0.733499
O O17 0.500000 0.772240 0.363936
O O18 0.447915 0.000000 0.382084
O O19 0.250000 0.750000 0.258335
O O20 0.284211 0.000000 0.242748
#
# Coordination Sequence:
#
# PCOD8266301 Si02
#       7
#    16  16   8  16  16  16  16
#     4  10  21  36  52  69  90 119 155 191 228 273
#     4  10  19  33  52  73  95 119 147 184 231 281
#     4   7  10  18  32  56  92 127 155 183 219 261
#     4  10  21  35  50  69  93 121 152 188 229 272
#     4  10  18  30  48  72  96 120 152 190 232 274
#     4   8  13  21  37  63  95 127 154 184 223 265
#     4   9  18  30  46  68  92 117 147 183 225 275
#
# _framework density 16.607299000000001
#
# number of rings (size 3 to 8) (size 9 to 14) (size 15 to 20)
#    0.000    2.692    1.538    1.846    0.000    3.077 
#    0.000    1.538    0.000    0.000    0.000    3.231 
#    0.000    3.077    0.000    0.000    0.000    0.000 
#
# Total GULP energy -644555.763962 kJ/mol
# GULP energy per Si atom -12395.303153 kJ/mol
# Density = 1.656950 g / cm^3
# Si number density = 16.607299 Si / 1000 Ang^3
#
#
#
# Elastic Constant Matrix: (Units=GPa)
#
#
# Indices 1 2 3 4 5 6 
#
# 1 125.6014 36.5506 73.7219 0.0000 0.0000 0.0000
# 2 36.5506 38.4237 33.4264 0.0000 0.0000 0.0000
# 3 73.7219 33.4264 134.6538 0.0000 0.0000 0.0000
# 4 0.0000 0.0000 0.0000 6.1575 0.0000 0.0000
# 5 0.0000 0.0000 0.0000 0.0000 23.2336 0.0000
# 6 0.0000 0.0000 0.0000 0.0000 0.0000 21.9481
#
#
#
# Elastic Compliance Matrix: (Units=1/GPa)
#
#
# Indices 1 2 3 4 5 6 
#
# 1 0.013480 -0.008166 -0.005353 0.000000 0.000000 0.000000
# 2 -0.008166 0.038141 -0.004997 0.000000 0.000000 0.000000
# 3 -0.005353 -0.004997 0.011598 0.000000 0.000000 0.000000
# 4 0.000000 0.000000 0.000000 0.162403 0.000000 0.000000
# 5 0.000000 0.000000 0.000000 0.000000 0.043041 0.000000
# 6 0.000000 0.000000 0.000000 0.000000 0.000000 0.045562
#
#
# Mechanical properties :
#
#
# Convention : Reuss Voigt Hill
#
# Bulk Modulus (GPa) = 38.18844 65.11962 51.65403
# Shear Modulus (GPa) = 13.88942 20.59985 17.24463
#
# Velocity S-wave (km/s) = 2.89510 3.52577 3.22588
# Velocity P-wave (km/s) = 5.84982 7.47471 6.71162
#
# Compressibility (1/GPa) = 0.02618594
#
# Stress axis : x y z
#
# Youngs Moduli (GPa) = 74.18371 26.21862 86.22375
#
# Poissons Ratio (x) = 0.21410 0.46156
# Poissons Ratio (y) = 0.60579 0.43088
# Poissons Ratio (z) = 0.39711 0.13102
#
# Static dielectric constant tensor:
#      x y z
#    x 3.173110 0.000000 0.000000 
#    y 0.000000 2.895790 0.000000 
#    z 0.000000 0.000000 3.351560 
# 
# 
# High freq. dielectric constant tensor:
#      x y z
#    x 1.629740 0.000000 0.000000 
#    y 0.000000 1.614420 0.000000 
#    z 0.000000 0.000000 1.634740 
# 
# From -- ./inp_files/68491.got.cif
#   From: 2010.03.12/outbox.cif.g09.slc.cpg/sg65_35_cif.got.tgz:68491.got - 2010.04.10 20:52:16.
