data_PCOD8266737
_publ_section_title
;
Structure prediction by ZEFSAII (Michael W. Deem and Ramdas Pophale) SiO2 
 PCOD8266737
Probable space group: C M M M
;
_chemical_formula_sum "Si O2"
_cell_formula_units_Z 80
_cell_length_a 14.769097
_cell_length_b 26.900133
_cell_length_c 11.888341
_cell_angle_alpha 90.000000
_cell_angle_beta 90.000000
_cell_angle_gamma 90.000000
_cell_volume 4723.127004
_symmetry_space_group_name_H-M "C M M M"
_symmetry_group_IT_number 65
_symmetry_cell_setting 'orthorhombic'
loop_
_space_group_symop_operation_xyz
x,y,z
-x,-y,z
x,-y,-z
-x,y,-z
-x,-y,-z
x,y,-z
-x,y,z
x,-y,z
1/2+x,1/2+y,z
1/2-x,1/2-y,z
1/2+x,1/2-y,-z
1/2-x,1/2+y,-z
1/2-x,1/2-y,-z
1/2+x,1/2+y,-z
1/2-x,1/2+y,z
1/2+x,1/2-y,z
loop_
_atom_site_type_symbol
_atom_site_label
_atom_site_fract_x
_atom_site_fract_y
_atom_site_fract_z
Si Si1 0.649278 0.731582 0.623862
Si Si2 0.321462 0.324510 0.000000
Si Si3 0.603547 0.442081 0.370721
Si Si4 0.096082 0.677079 0.236420
Si Si5 0.204648 0.861239 0.759869
Si Si6 0.872530 0.280207 0.000000
O O1 0.607421 0.721194 0.500000
O O2 0.750000 0.750000 0.610509
O O3 0.594003 0.774196 0.685884
O O4 0.648632 0.681355 0.696050
O O5 0.325260 0.359504 0.109668
O O6 0.232653 0.291519 0.000000
O O7 0.394789 0.279479 0.000000
O O8 0.623841 0.428205 0.500000
O O9 0.500000 0.428047 0.340568
O O10 0.620151 0.500000 0.349961
O O11 0.673970 0.413643 0.290688
O O12 0.186078 0.643859 0.255643
O O13 0.085641 0.694773 0.109079
O O14 0.000000 0.648505 0.263539
#
# Coordination Sequence:
#
# PCOD8266737 Si02
#       6
#    16   8  16  16  16   8
#     4   9  17  28  42  62  91 127 163 198 235 275
#     4   9  16  28  49  71  96 132 169 204 237 277
#     4   9  19  37  59  78  93 115 155 205 254 303
#     4  10  19  29  45  70 101 136 168 197 231 280
#     4  10  18  32  51  71  98 129 163 201 244 289
#     4   9  15  30  46  64  98 139 176 203 228 266
#
# _framework density 16.937932
#
# number of rings (size 3 to 8) (size 9 to 14) (size 15 to 20)
#    0.000    2.600    2.000    1.500    0.000    2.000 
#    0.000    1.000    0.000    1.800    0.000    1.400 
#    0.000    4.800    0.000    0.000    0.000    0.000 
#
# Total GULP energy -495563.021822 kJ/mol
# GULP energy per Si atom -12389.075546 kJ/mol
# Density = 1.689938 g / cm^3
# Si number density = 16.937932 Si / 1000 Ang^3
#
#
#
# Elastic Constant Matrix: (Units=GPa)
#
#
# Indices 1 2 3 4 5 6 
#
# 1 96.5293 43.9838 37.9333 0.0000 0.0000 0.0000
# 2 43.9838 70.9494 45.1286 0.0000 0.0000 0.0000
# 3 37.9333 45.1286 131.4701 0.0000 0.0000 0.0000
# 4 0.0000 0.0000 0.0000 34.0324 0.0000 0.0000
# 5 0.0000 0.0000 0.0000 0.0000 21.5526 0.0000
# 6 0.0000 0.0000 0.0000 0.0000 0.0000 16.8050
#
#
#
# Elastic Compliance Matrix: (Units=1/GPa)
#
#
# Indices 1 2 3 4 5 6 
#
# 1 0.014642 -0.008175 -0.001419 0.000000 0.000000 0.000000
# 2 -0.008175 0.022595 -0.005397 0.000000 0.000000 0.000000
# 3 -0.001419 -0.005397 0.009868 0.000000 0.000000 0.000000
# 4 0.000000 0.000000 0.000000 0.029384 0.000000 0.000000
# 5 0.000000 0.000000 0.000000 0.000000 0.046398 0.000000
# 6 0.000000 0.000000 0.000000 0.000000 0.000000 0.059506
#
#
# Mechanical properties :
#
#
# Convention : Reuss Voigt Hill
#
# Bulk Modulus (GPa) = 58.39695 61.44891 59.92293
# Shear Modulus (GPa) = 22.92705 25.93820 24.43263
#
# Velocity S-wave (km/s) = 3.68311 3.91751 3.80212
# Velocity P-wave (km/s) = 7.25527 7.53792 7.39794
#
# Compressibility (1/GPa) = 0.01712418
#
# Stress axis : x y z
#
# Youngs Moduli (GPa) = 68.29775 44.25681 101.33404
#
# Poissons Ratio (x) = 0.36178 0.14375
# Poissons Ratio (y) = 0.55830 0.54695
# Poissons Ratio (z) = 0.09689 0.23888
#
# Static dielectric constant tensor:
#      x y z
#    x 3.198600 0.000000 0.000000 
#    y 0.000000 2.763280 0.000000 
#    z 0.000000 0.000000 3.717120 
# 
# 
# High freq. dielectric constant tensor:
#      x y z
#    x 1.652060 0.000000 0.000000 
#    y 0.000000 1.603180 0.000000 
#    z 0.000000 0.000000 1.666200 
# 
# From -- ./inp_files/27295.got.cif
#   From: 2010.03.12/outbox.cif.g09.slc.cpg/sg65_14_cif.got.tgz:27295.got - 2010.04.10 20:52:16.
