data_PCOD8266731
_publ_section_title
;
Structure prediction by ZEFSAII (Michael W. Deem and Ramdas Pophale) SiO2 
 PCOD8266731
Probable space group: C M M M
;
_chemical_formula_sum "Si O2"
_cell_formula_units_Z 64
_cell_length_a 19.508843
_cell_length_b 8.287758
_cell_length_c 22.003659
_cell_angle_alpha 90.000000
_cell_angle_beta 90.000000
_cell_angle_gamma 90.000000
_cell_volume 3557.652136
_symmetry_space_group_name_H-M "C M M M"
_symmetry_group_IT_number 65
_symmetry_cell_setting 'orthorhombic'
loop_
_space_group_symop_operation_xyz
x,y,z
-x,-y,z
x,-y,-z
-x,y,-z
-x,-y,-z
x,y,-z
-x,y,z
x,-y,z
1/2+x,1/2+y,z
1/2-x,1/2-y,z
1/2+x,1/2-y,-z
1/2-x,1/2+y,-z
1/2-x,1/2-y,-z
1/2+x,1/2+y,-z
1/2-x,1/2+y,z
1/2+x,1/2-y,z
loop_
_atom_site_type_symbol
_atom_site_label
_atom_site_fract_x
_atom_site_fract_y
_atom_site_fract_z
Si Si1 0.581340 0.180062 0.137575
Si Si2 0.826866 0.312606 0.500000
Si Si3 0.077881 0.685527 0.276033
Si Si4 0.174804 0.815901 0.375828
Si Si5 0.581554 0.500000 0.930637
O O1 0.500000 0.177249 0.132541
O O2 0.603633 0.207948 0.207077
O O3 0.610676 0.333200 0.099353
O O4 0.607836 0.000000 0.115772
O O5 0.829599 0.500000 0.500000
O O6 0.750000 0.250000 0.500000
O O7 0.861235 0.254786 0.436928
O O8 0.083174 0.500000 0.295867
O O9 0.125862 0.790632 0.318704
O O10 0.000000 0.747814 0.282440
O O11 0.250000 0.750000 0.361082
O O12 0.185454 0.000000 0.389153
O O13 0.500000 0.500000 0.924843
O O14 0.606105 0.500000 0.000000
#
# Coordination Sequence:
#
# PCOD8266731 Si02
#       5
#    16   8  16  16   8
#     4   8  15  27  42  61  90 127 161 196 242 293
#     4  10  18  32  51  68  93 126 161 197 247 299
#     4   9  18  33  51  71  97 131 166 201 248 300
#     4  11  21  33  51  74  99 127 161 205 246 294
#     4   9  16  24  38  62  92 125 163 201 236 287
#
# _framework density 17.989391999999999
#
# number of rings (size 3 to 8) (size 9 to 14) (size 15 to 20)
#    0.000    2.625    0.000    6.375    1.750    1.000 
#    0.000    3.125    0.000    3.750    0.000    0.000 
#    0.000    1.000    0.500    0.000    0.000    0.000 
#
# Total GULP energy -396505.367705 kJ/mol
# GULP energy per Si atom -12390.792741 kJ/mol
# Density = 1.794845 g / cm^3
# Si number density = 17.989392 Si / 1000 Ang^3
#
#
#
# Elastic Constant Matrix: (Units=GPa)
#
#
# Indices 1 2 3 4 5 6 
#
# 1 31.9149 21.9694 27.7531 0.0000 0.0000 0.0000
# 2 21.9694 165.3391 72.9765 0.0000 0.0000 0.0000
# 3 27.7531 72.9765 120.6000 0.0000 0.0000 0.0000
# 4 0.0000 0.0000 0.0000 35.4824 0.0000 0.0000
# 5 0.0000 0.0000 0.0000 0.0000 -6.5054 0.0000
# 6 0.0000 0.0000 0.0000 0.0000 0.0000 17.1158
#
#
#
# Elastic Compliance Matrix: (Units=1/GPa)
#
#
# Indices 1 2 3 4 5 6 
#
# 1 0.039514 -0.001688 -0.008072 0.000000 0.000000 0.000000
# 2 -0.001688 0.008324 -0.004649 0.000000 0.000000 0.000000
# 3 -0.008072 -0.004649 0.012962 0.000000 0.000000 0.000000
# 4 0.000000 0.000000 0.000000 0.028183 0.000000 0.000000
# 5 0.000000 0.000000 0.000000 0.000000 -0.153719 0.000000
# 6 0.000000 0.000000 0.000000 0.000000 0.000000 0.058426
#
#
# Mechanical properties :
#
#
# Convention : Reuss Voigt Hill
#
# Bulk Modulus (GPa) = 31.26537 62.58356 46.92446
# Shear Modulus (GPa) = 150.74161 22.22890 86.48525
#
# Velocity S-wave (km/s) = 9.16388 3.51902 6.94119
# Velocity P-wave (km/s) = 11.37482 7.16770 9.50690
#
# Compressibility (1/GPa) = 0.03198427
#
# Stress axis : x y z
#
# Youngs Moduli (GPa) = 25.30720 120.13082 77.14589
#
# Poissons Ratio (x) = 0.20274 0.62273
# Poissons Ratio (y) = 0.04271 0.35863
# Poissons Ratio (z) = 0.20428 0.55846
#
# Static dielectric constant tensor:
#      x y z
#    x 2.727280 0.000000 0.000000 
#    y 0.000000 3.695840 0.000000 
#    z 0.000000 0.000000 3.591950 
# 
# 
# High freq. dielectric constant tensor:
#      x y z
#    x 1.624470 0.000000 0.000000 
#    y 0.000000 1.718130 0.000000 
#    z 0.000000 0.000000 1.702940 
# 
# From -- ./inp_files/49092.got.cif
#   From: 2010.03.12/outbox.cif.g09.slc.cpg/sg65_25_cif.got.tgz:49092.got - 2010.04.10 20:52:16.
