data_PCOD8266206
_publ_section_title
;
Structure prediction by ZEFSAII (Michael W. Deem and Ramdas Pophale) SiO2 
 PCOD8266206
Probable space group: C M M M
;
_chemical_formula_sum "Si O2"
_cell_formula_units_Z 88
_cell_length_a 8.543875
_cell_length_b 27.568023
_cell_length_c 21.577048
_cell_angle_alpha 90.000000
_cell_angle_beta 90.000000
_cell_angle_gamma 90.000000
_cell_volume 5082.209176
_symmetry_space_group_name_H-M "C M M M"
_symmetry_group_IT_number 65
_symmetry_cell_setting 'orthorhombic'
loop_
_space_group_symop_operation_xyz
x,y,z
-x,-y,z
x,-y,-z
-x,y,-z
-x,-y,-z
x,y,-z
-x,y,z
x,-y,z
1/2+x,1/2+y,z
1/2-x,1/2-y,z
1/2+x,1/2-y,-z
1/2-x,1/2+y,-z
1/2-x,1/2-y,-z
1/2+x,1/2+y,-z
1/2-x,1/2+y,z
1/2+x,1/2-y,z
loop_
_atom_site_type_symbol
_atom_site_label
_atom_site_fract_x
_atom_site_fract_y
_atom_site_fract_z
Si Si1 0.317553 0.613229 0.930030
Si Si2 0.816596 0.696478 0.373679
Si Si3 0.684881 0.553216 0.185515
Si Si4 0.684523 0.646607 0.743442
Si Si5 0.815143 0.803909 0.500000
Si Si6 0.683381 0.801147 0.140169
O O1 0.500000 0.625816 0.920335
O O2 0.265961 0.570233 0.883586
O O3 0.218376 0.661095 0.914744
O O4 0.281892 0.596344 0.000000
O O5 0.750000 0.750000 0.360189
O O6 0.774535 0.659942 0.318848
O O7 0.748103 0.672024 0.436647
O O8 0.000000 0.701782 0.380664
O O9 0.500000 0.549432 0.189264
O O10 0.759596 0.500000 0.198582
O O11 0.741803 0.592711 0.236018
O O12 0.500000 0.648721 0.731467
O O13 0.727323 0.684381 0.797043
O O14 0.750000 0.750000 0.500000
O O15 0.000000 0.804988 0.500000
O O16 0.500000 0.798349 0.153666
O O17 0.750000 0.750000 0.117458
#
# Coordination Sequence:
#
# PCOD8266206 Si02
#       6
#    16  16  16  16   8  16
#     4   9  18  32  49  70  95 121 152 190 232 282
#     4  11  20  31  47  70 101 135 168 198 232 273
#     4   8  15  29  50  74  96 118 149 193 240 283
#     4  10  19  32  49  71  97 124 158 197 236 280
#     4  10  18  30  46  68  99 134 169 200 232 269
#     4  11  21  33  48  66  91 123 158 195 235 279
#
# _framework density 17.315303
#
# number of rings (size 3 to 8) (size 9 to 14) (size 15 to 20)
#    0.000    2.182    0.000    7.364    0.000    1.091 
#    0.000    1.818    0.000   13.636    0.000    5.727 
#    0.000    5.091    0.000    0.000    0.000    0.000 
#
# Total GULP energy -545506.158753 kJ/mol
# GULP energy per Si atom -12397.867244 kJ/mol
# Density = 1.727589 g / cm^3
# Si number density = 17.315303 Si / 1000 Ang^3
#
#
#
# Elastic Constant Matrix: (Units=GPa)
#
#
# Indices 1 2 3 4 5 6 
#
# 1 89.8113 25.3682 29.7883 0.0000 0.0000 0.0000
# 2 25.3682 110.2945 48.4133 0.0000 0.0000 0.0000
# 3 29.7883 48.4133 128.2801 0.0000 0.0000 0.0000
# 4 0.0000 0.0000 0.0000 16.2414 0.0000 0.0000
# 5 0.0000 0.0000 0.0000 0.0000 27.9790 0.0000
# 6 0.0000 0.0000 0.0000 0.0000 0.0000 15.7177
#
#
#
# Elastic Compliance Matrix: (Units=1/GPa)
#
#
# Indices 1 2 3 4 5 6 
#
# 1 0.012388 -0.001902 -0.002159 0.000000 0.000000 0.000000
# 2 -0.001902 0.011159 -0.003770 0.000000 0.000000 0.000000
# 3 -0.002159 -0.003770 0.009719 0.000000 0.000000 0.000000
# 4 0.000000 0.000000 0.000000 0.061571 0.000000 0.000000
# 5 0.000000 0.000000 0.000000 0.000000 0.035741 0.000000
# 6 0.000000 0.000000 0.000000 0.000000 0.000000 0.063622
#
#
# Mechanical properties :
#
#
# Convention : Reuss Voigt Hill
#
# Bulk Modulus (GPa) = 56.80087 59.50282 58.15185
# Shear Modulus (GPa) = 23.17717 26.97535 25.07626
#
# Velocity S-wave (km/s) = 3.66257 3.95129 3.80967
# Velocity P-wave (km/s) = 7.12467 7.43343 7.28069
#
# Compressibility (1/GPa) = 0.01760536
#
# Stress axis : x y z
#
# Youngs Moduli (GPa) = 80.72567 89.61595 102.88610
#
# Poissons Ratio (x) = 0.17041 0.22212
# Poissons Ratio (y) = 0.15350 0.38786
# Poissons Ratio (z) = 0.17428 0.33783
#
# Static dielectric constant tensor:
#      x y z
#    x 3.163950 0.000000 0.000000 
#    y 0.000000 3.336240 0.000000 
#    z 0.000000 0.000000 3.540550 
# 
# 
# High freq. dielectric constant tensor:
#      x y z
#    x 1.666070 0.000000 0.000000 
#    y 0.000000 1.641730 0.000000 
#    z 0.000000 0.000000 1.668790 
# 
# From -- ./inp_files/60305.got.cif
#   From: 2010.03.12/outbox.cif.g09.slc.cpg/sg65_31_cif.got.tgz:60305.got - 2010.04.10 20:52:16.
