data_PCOD8266995
_publ_section_title
;
Structure prediction by ZEFSAII (Michael W. Deem and Ramdas Pophale) SiO2 
 PCOD8266995
Probable space group: C M M M
;
_chemical_formula_sum "Si O2"
_cell_formula_units_Z 80
_cell_length_a 22.651951
_cell_length_b 15.353230
_cell_length_c 11.335689
_cell_angle_alpha 90.000000
_cell_angle_beta 90.000000
_cell_angle_gamma 90.000000
_cell_volume 3942.332877
_symmetry_space_group_name_H-M "C M M M"
_symmetry_group_IT_number 65
_symmetry_cell_setting 'orthorhombic'
loop_
_space_group_symop_operation_xyz
x,y,z
-x,-y,z
x,-y,-z
-x,y,-z
-x,-y,-z
x,y,-z
-x,y,z
x,-y,z
1/2+x,1/2+y,z
1/2-x,1/2-y,z
1/2+x,1/2-y,-z
1/2-x,1/2+y,-z
1/2-x,1/2-y,-z
1/2+x,1/2+y,-z
1/2-x,1/2+y,z
1/2+x,1/2-y,z
loop_
_atom_site_type_symbol
_atom_site_label
_atom_site_fract_x
_atom_site_fract_y
_atom_site_fract_z
Si Si1 0.148099 0.404733 0.866879
Si Si2 0.237853 0.147471 0.249441
Si Si3 0.297494 0.329892 0.500000
Si Si4 0.067413 0.230443 0.500000
Si Si5 0.620689 0.599556 0.136108
Si Si6 0.065303 0.735676 0.240857
O O1 0.117883 0.500000 0.855539
O O2 0.203001 0.403999 0.778841
O O3 0.103367 0.329621 0.834617
O O4 0.169948 0.387718 0.000000
O O5 0.250000 0.250000 0.240381
O O6 0.216511 0.118201 0.379969
O O7 0.189671 0.118777 0.154009
O O8 0.250000 0.250000 0.500000
O O9 0.369195 0.318938 0.500000
O O10 0.069841 0.287151 0.619741
O O11 0.000000 0.183477 0.500000
O O12 0.605269 0.500000 0.170548
O O13 0.583908 0.664039 0.220223
O O14 0.604717 0.617152 0.000000
O O15 0.000000 0.723110 0.192941
#
# Coordination Sequence:
#
# PCOD8266995 Si02
#       6
#    16  16   8   8  16  16
#     4  11  24  41  62  92 129 167 207 256 315 377
#     4  11  20  36  62  89 123 160 204 252 316 373
#     4  10  18  34  61  92 124 161 209 266 315 372
#     4  10  20  40  66  92 124 168 210 259 320 383
#     4  11  23  38  59  89 123 158 200 252 308 369
#     4  11  23  42  66  90 121 164 213 259 309 371
#
# _framework density 20.292553000000002
#
# number of rings (size 3 to 8) (size 9 to 14) (size 15 to 20)
#    0.000    1.200    4.000    3.000    0.000    4.800 
#    0.000    7.000    0.000    3.600    0.000    0.000 
#    0.000    0.000    0.000    0.000    0.000    0.000 
#
# Total GULP energy -495588.746983 kJ/mol
# GULP energy per Si atom -12389.718675 kJ/mol
# Density = 2.024637 g / cm^3
# Si number density = 20.292553 Si / 1000 Ang^3
#
#
#
# Elastic Constant Matrix: (Units=GPa)
#
#
# Indices 1 2 3 4 5 6 
#
# 1 140.9971 25.9441 39.9827 0.0000 0.0000 0.0000
# 2 25.9441 79.7408 48.7678 0.0000 0.0000 0.0000
# 3 39.9827 48.7678 102.2605 0.0000 0.0000 0.0000
# 4 0.0000 0.0000 0.0000 8.4927 0.0000 0.0000
# 5 0.0000 0.0000 0.0000 0.0000 24.7889 0.0000
# 6 0.0000 0.0000 0.0000 0.0000 0.0000 -4.0597
#
#
#
# Elastic Compliance Matrix: (Units=1/GPa)
#
#
# Indices 1 2 3 4 5 6 
#
# 1 0.008030 -0.000978 -0.002674 0.000000 0.000000 0.000000
# 2 -0.000978 0.017823 -0.008118 0.000000 0.000000 0.000000
# 3 -0.002674 -0.008118 0.014696 0.000000 0.000000 0.000000
# 4 0.000000 0.000000 0.000000 0.117748 0.000000 0.000000
# 5 0.000000 0.000000 0.000000 0.000000 0.040341 0.000000
# 6 0.000000 0.000000 0.000000 0.000000 0.000000 -0.246323
#
#
# Mechanical properties :
#
#
# Convention : Reuss Voigt Hill
#
# Bulk Modulus (GPa) = 58.78357 61.37641 60.07999
# Shear Modulus (GPa) = -270.61972 19.73130 -125.44421
#
# Velocity S-wave (km/s) = -11.56065 3.12162 -7.87096
# Velocity P-wave (km/s) = 12.21340 6.58059 7.27541
#
# Compressibility (1/GPa) = 0.01701156
#
# Stress axis : x y z
#
# Youngs Moduli (GPa) = 124.52715 56.10638 68.04777
#
# Poissons Ratio (x) = 0.05485 0.18193
# Poissons Ratio (y) = 0.12174 0.55239
# Poissons Ratio (z) = 0.33293 0.45545
#
# Static dielectric constant tensor:
#      x y z
#    x 3.955530 0.000000 0.000000 
#    y 0.000000 3.507520 0.000000 
#    z 0.000000 0.000000 3.975250 
# 
# 
# High freq. dielectric constant tensor:
#      x y z
#    x 1.799900 0.000000 0.000000 
#    y 0.000000 1.762990 0.000000 
#    z 0.000000 0.000000 1.811840 
# 
# From -- ./inp_files/30419.got.cif
#   From: 2010.03.12/outbox.cif.g09.slc.cpg/sg65_16_cif.got.tgz:30419.got - 2010.04.10 20:52:16.
