data_PCOD8266587
_publ_section_title
;
Structure prediction by ZEFSAII (Michael W. Deem and Ramdas Pophale) SiO2 
 PCOD8266587
Probable space group: C M M M
;
_chemical_formula_sum "Si O2"
_cell_formula_units_Z 104
_cell_length_a 28.950138
_cell_length_b 8.726650
_cell_length_c 23.147559
_cell_angle_alpha 90.000000
_cell_angle_beta 90.000000
_cell_angle_gamma 90.000000
_cell_volume 5847.946570
_symmetry_space_group_name_H-M "C M M M"
_symmetry_group_IT_number 65
_symmetry_cell_setting 'orthorhombic'
loop_
_space_group_symop_operation_xyz
x,y,z
-x,-y,z
x,-y,-z
-x,y,-z
-x,-y,-z
x,y,-z
-x,y,z
x,-y,z
1/2+x,1/2+y,z
1/2-x,1/2-y,z
1/2+x,1/2-y,-z
1/2-x,1/2+y,-z
1/2-x,1/2-y,-z
1/2+x,1/2+y,-z
1/2-x,1/2+y,z
1/2+x,1/2-y,z
loop_
_atom_site_type_symbol
_atom_site_label
_atom_site_fract_x
_atom_site_fract_y
_atom_site_fract_z
Si Si1 0.300214 0.318850 0.221595
Si Si2 0.949725 0.681856 0.280187
Si Si3 0.199442 0.681282 0.000000
Si Si4 0.147342 0.681685 0.114196
Si Si5 0.145497 0.681445 0.673049
Si Si6 0.950101 0.681292 0.849750
Si Si7 0.701748 0.819791 0.564365
O O1 0.296530 0.500000 0.222201
O O2 0.250000 0.250000 0.212660
O O3 0.331467 0.266055 0.168668
O O4 0.321384 0.262384 0.281451
O O5 0.949472 0.500000 0.279764
O O6 0.907374 0.740727 0.319792
O O7 0.942068 0.744115 0.215186
O O8 0.000000 0.739832 0.303514
O O9 0.250000 0.750000 0.000000
O O10 0.171987 0.739648 0.056148
O O11 0.203321 0.500000 0.000000
O O12 0.152987 0.500000 0.122686
O O13 0.093065 0.730173 0.110159
O O14 0.149240 0.500000 0.683297
O O15 0.161590 0.729150 0.608802
O O16 0.952339 0.500000 0.846708
O O17 0.000000 0.742763 0.873555
O O18 0.688633 0.760167 0.500000
O O19 0.750000 0.750000 0.585510
O O20 0.708192 0.000000 0.564178
#
# Coordination Sequence:
#
# PCOD8266587 Si02
#       7
#    16  16   8  16  16  16  16
#     4  12  24  35  49  72 100 128 161 203 251 296
#     4   8  13  23  44  73  98 125 161 195 236 291
#     4  10  22  36  53  73  95 129 168 208 243 290
#     4  10  19  35  54  74 100 129 165 202 243 290
#     4  10  18  31  51  73  99 130 163 203 246 288
#     4   8  13  24  47  75 100 126 157 195 239 290
#     4   9  18  31  47  68  95 129 167 203 242 289
#
# _framework density 17.784019000000001
#
# number of rings (size 3 to 8) (size 9 to 14) (size 15 to 20)
#    0.000    2.462    1.538    3.231    0.000    3.692 
#    0.000    0.385    0.000    4.615    0.000    3.231 
#    0.000    1.846    0.000    5.231    0.000    5.538 
#
# Total GULP energy -644447.097910 kJ/mol
# GULP energy per Si atom -12393.213421 kJ/mol
# Density = 1.774354 g / cm^3
# Si number density = 17.784019 Si / 1000 Ang^3
#
#
#
# Elastic Constant Matrix: (Units=GPa)
#
#
# Indices 1 2 3 4 5 6 
#
# 1 171.1128 20.7236 68.5976 0.0000 0.0000 0.0000
# 2 20.7236 33.7893 21.5813 0.0000 0.0000 0.0000
# 3 68.5976 21.5813 101.9579 0.0000 0.0000 0.0000
# 4 0.0000 0.0000 0.0000 8.3261 0.0000 0.0000
# 5 0.0000 0.0000 0.0000 0.0000 29.1276 0.0000
# 6 0.0000 0.0000 0.0000 0.0000 0.0000 17.0345
#
#
#
# Elastic Compliance Matrix: (Units=1/GPa)
#
#
# Indices 1 2 3 4 5 6 
#
# 1 0.008088 -0.001717 -0.005078 0.000000 0.000000 0.000000
# 2 -0.001717 0.034586 -0.006166 0.000000 0.000000 0.000000
# 3 -0.005078 -0.006166 0.014530 0.000000 0.000000 0.000000
# 4 0.000000 0.000000 0.000000 0.120105 0.000000 0.000000
# 5 0.000000 0.000000 0.000000 0.000000 0.034332 0.000000
# 6 0.000000 0.000000 0.000000 0.000000 0.000000 0.058704
#
#
# Mechanical properties :
#
#
# Convention : Reuss Voigt Hill
#
# Bulk Modulus (GPa) = 31.96701 58.74055 45.35378
# Shear Modulus (GPa) = 16.30294 23.96148 20.13221
#
# Velocity S-wave (km/s) = 3.03102 3.67462 3.36823
# Velocity P-wave (km/s) = 5.50124 7.14881 6.37844
#
# Compressibility (1/GPa) = 0.03128225
#
# Stress axis : x y z
#
# Youngs Moduli (GPa) = 123.64314 28.91322 68.82526
#
# Poissons Ratio (x) = 0.04965 0.34950
# Poissons Ratio (y) = 0.21230 0.42435
# Poissons Ratio (z) = 0.62787 0.17827
#
# Static dielectric constant tensor:
#      x y z
#    x 3.174360 0.000000 0.000000 
#    y 0.000000 2.973060 0.000000 
#    z 0.000000 0.000000 3.414900 
# 
# 
# High freq. dielectric constant tensor:
#      x y z
#    x 1.705320 0.000000 0.000000 
#    y 0.000000 1.651230 0.000000 
#    z 0.000000 0.000000 1.670500 
# 
# From -- ./inp_files/60822.got.cif
#   From: 2010.03.12/outbox.cif.g09.slc.cpg/sg65_31_cif.got.tgz:60822.got - 2010.04.10 20:52:16.
