data_PCOD8266402
_publ_section_title
;
Structure prediction by ZEFSAII (Michael W. Deem and Ramdas Pophale) SiO2 
 PCOD8266402
Probable space group: C M M M
;
_chemical_formula_sum "Si O2"
_cell_formula_units_Z 96
_cell_length_a 23.391900
_cell_length_b 22.688475
_cell_length_c 10.323057
_cell_angle_alpha 90.000000
_cell_angle_beta 90.000000
_cell_angle_gamma 90.000000
_cell_volume 5478.720307
_symmetry_space_group_name_H-M "C M M M"
_symmetry_group_IT_number 65
_symmetry_cell_setting 'orthorhombic'
loop_
_space_group_symop_operation_xyz
x,y,z
-x,-y,z
x,-y,-z
-x,y,-z
-x,-y,-z
x,y,-z
-x,y,z
x,-y,z
1/2+x,1/2+y,z
1/2-x,1/2-y,z
1/2+x,1/2-y,-z
1/2-x,1/2+y,-z
1/2-x,1/2-y,-z
1/2+x,1/2+y,-z
1/2-x,1/2+y,z
1/2+x,1/2-y,z
loop_
_atom_site_type_symbol
_atom_site_label
_atom_site_fract_x
_atom_site_fract_y
_atom_site_fract_z
Si Si1 0.375736 0.618903 0.347576
Si Si2 0.936067 0.430307 0.500000
Si Si3 0.936464 0.000000 0.346831
Si Si4 0.561441 0.162671 0.853763
Si Si5 0.432814 0.292050 0.849689
Si Si6 0.634822 0.068637 0.252883
Si Si7 0.256798 0.433649 0.352597
O O1 0.389242 0.632604 0.500000
O O2 0.404410 0.558383 0.300053
O O3 0.397410 0.668568 0.250957
O O4 0.307477 0.612307 0.326995
O O5 0.939352 0.500000 0.500000
O O6 0.900424 0.408815 0.377052
O O7 0.000000 0.403122 0.500000
O O8 0.938478 0.000000 0.500000
O O9 0.000000 0.000000 0.287004
O O10 0.500000 0.141865 0.792202
O O11 0.581219 0.225896 0.796988
O O12 0.609241 0.111441 0.855421
O O13 0.548804 0.179280 0.000000
O O14 0.500000 0.305839 0.835479
O O15 0.413545 0.303087 0.000000
O O16 0.702166 0.081154 0.264183
O O17 0.623254 0.000000 0.221054
O O18 0.235069 0.430026 0.500000
O O19 0.278915 0.500000 0.324255
#
# Coordination Sequence:
#
# PCOD8266402 Si02
#       7
#    16   8   8  16  16  16  16
#     4  10  18  31  53  80 104 135 175 217 252 304
#     4   9  16  26  42  70 101 126 152 195 256 309
#     4   9  16  26  45  77 109 129 155 210 267 301
#     4   9  19  36  54  71  96 133 174 213 259 315
#     4   9  19  37  56  72 100 141 174 209 267 325
#     4  10  18  30  50  75 102 133 165 210 255 306
#     4   9  16  30  50  73 105 141 174 200 250 311
#
# _framework density 17.52234
#
# number of rings (size 3 to 8) (size 9 to 14) (size 15 to 20)
#    0.000    2.667    1.667    2.000    0.000    2.333 
#    1.500    2.917    0.000    6.500    0.000    0.000 
#    0.000    0.000    0.000    0.000    0.000    0.000 
#
# Total GULP energy -594693.865521 kJ/mol
# GULP energy per Si atom -12389.455532 kJ/mol
# Density = 1.748246 g / cm^3
# Si number density = 17.522340 Si / 1000 Ang^3
#
#
#
# Elastic Constant Matrix: (Units=GPa)
#
#
# Indices 1 2 3 4 5 6 
#
# 1 102.5044 63.0105 31.3938 0.0000 0.0000 0.0000
# 2 63.0105 109.1224 39.6049 0.0000 0.0000 0.0000
# 3 31.3938 39.6049 50.2902 0.0000 0.0000 0.0000
# 4 0.0000 0.0000 0.0000 27.7278 0.0000 0.0000
# 5 0.0000 0.0000 0.0000 0.0000 20.5376 0.0000
# 6 0.0000 0.0000 0.0000 0.0000 0.0000 24.5940
#
#
#
# Elastic Compliance Matrix: (Units=1/GPa)
#
#
# Indices 1 2 3 4 5 6 
#
# 1 0.015601 -0.007665 -0.003703 0.000000 0.000000 0.000000
# 2 -0.007665 0.016597 -0.008286 0.000000 0.000000 0.000000
# 3 -0.003703 -0.008286 0.028722 0.000000 0.000000 0.000000
# 4 0.000000 0.000000 0.000000 0.036065 0.000000 0.000000
# 5 0.000000 0.000000 0.000000 0.000000 0.048691 0.000000
# 6 0.000000 0.000000 0.000000 0.000000 0.000000 0.040660
#
#
# Mechanical properties :
#
#
# Convention : Reuss Voigt Hill
#
# Bulk Modulus (GPa) = 46.26908 58.88173 52.57540
# Shear Modulus (GPa) = 21.47321 23.09908 22.28614
#
# Velocity S-wave (km/s) = 3.50448 3.63473 3.57020
# Velocity P-wave (km/s) = 6.54509 7.16183 6.86039
#
# Compressibility (1/GPa) = 0.02161271
#
# Stress axis : x y z
#
# Youngs Moduli (GPa) = 64.09682 60.25119 34.81694
#
# Poissons Ratio (x) = 0.46181 0.12893
# Poissons Ratio (y) = 0.49128 0.28849
# Poissons Ratio (z) = 0.23735 0.49924
#
# Static dielectric constant tensor:
#      x y z
#    x 3.292590 0.000000 0.000000 
#    y 0.000000 3.097640 0.000000 
#    z 0.000000 0.000000 3.018530 
# 
# 
# High freq. dielectric constant tensor:
#      x y z
#    x 1.680720 0.000000 0.000000 
#    y 0.000000 1.664230 0.000000 
#    z 0.000000 0.000000 1.649230 
# 
# From -- ./inp_files/30982.got.cif
#   From: 2010.03.12/outbox.cif.g09.slc.cpg/sg65_16_cif.got.tgz:30982.got - 2010.04.10 20:52:16.
