data_PCOD8266673
_publ_section_title
;
Structure prediction by ZEFSAII (Michael W. Deem and Ramdas Pophale) SiO2 
 PCOD8266673
Probable space group: C M M M
;
_chemical_formula_sum "Si O2"
_cell_formula_units_Z 96
_cell_length_a 29.091245
_cell_length_b 9.064096
_cell_length_c 20.627995
_cell_angle_alpha 90.000000
_cell_angle_beta 90.000000
_cell_angle_gamma 90.000000
_cell_volume 5439.310136
_symmetry_space_group_name_H-M "C M M M"
_symmetry_group_IT_number 65
_symmetry_cell_setting 'orthorhombic'
loop_
_space_group_symop_operation_xyz
x,y,z
-x,-y,z
x,-y,-z
-x,y,-z
-x,-y,-z
x,y,-z
-x,y,z
x,-y,z
1/2+x,1/2+y,z
1/2-x,1/2-y,z
1/2+x,1/2-y,-z
1/2-x,1/2+y,-z
1/2-x,1/2-y,-z
1/2+x,1/2+y,-z
1/2-x,1/2+y,z
1/2+x,1/2-y,z
loop_
_atom_site_type_symbol
_atom_site_label
_atom_site_fract_x
_atom_site_fract_y
_atom_site_fract_z
Si Si1 0.051387 0.327233 0.615641
Si Si2 0.853784 0.673948 0.805741
Si Si3 0.450544 0.825378 0.761873
Si Si4 0.703660 0.171928 0.072438
Si Si5 0.138414 0.830252 0.428250
Si Si6 0.799396 0.176084 0.309517
O O1 0.060768 0.500000 0.612425
O O2 0.056874 0.267511 0.688950
O O3 0.089320 0.249581 0.571979
O O4 0.000000 0.290765 0.589879
O O5 0.848335 0.500000 0.790049
O O6 0.907224 0.725109 0.805025
O O7 0.836599 0.713425 0.877740
O O8 0.825541 0.766757 0.753756
O O9 0.500000 0.765084 0.788931
O O10 0.453217 0.000000 0.759773
O O11 0.750000 0.250000 0.095730
O O12 0.714149 0.000000 0.073628
O O13 0.689152 0.223702 0.000000
O O14 0.160108 0.806054 0.500000
O O15 0.173311 0.770146 0.373713
O O16 0.128573 0.000000 0.414140
O O17 0.750000 0.250000 0.312523
O O18 0.794260 0.000000 0.306002
#
# Coordination Sequence:
#
# PCOD8266673 Si02
#       6
#    16  16  16  16  16  16
#     4   9  17  31  52  76 100 126 161 203 243 291
#     4  10  18  31  54  77 100 131 165 202 243 287
#     4   8  14  26  47  74 100 126 158 196 239 286
#     4   9  18  31  47  71 102 134 166 200 240 288
#     4  10  22  38  52  69  97 131 163 200 250 301
#     4  11  23  37  53  73  97 124 161 208 249 294
#
# _framework density 17.649297000000001
#
# number of rings (size 3 to 8) (size 9 to 14) (size 15 to 20)
#    0.000    2.500    1.667    2.000    0.000    4.000 
#    0.000    1.667    0.000    1.000    0.000    3.500 
#    0.000    0.000    0.000    5.667    0.000    6.000 
#
# Total GULP energy -594953.483201 kJ/mol
# GULP energy per Si atom -12394.864233 kJ/mol
# Density = 1.760913 g / cm^3
# Si number density = 17.649297 Si / 1000 Ang^3
#
#
#
# Elastic Constant Matrix: (Units=GPa)
#
#
# Indices 1 2 3 4 5 6 
#
# 1 145.4566 35.8246 68.2470 0.0000 0.0000 0.0000
# 2 35.8246 36.7515 28.8527 0.0000 0.0000 0.0000
# 3 68.2470 28.8527 103.1021 0.0000 0.0000 0.0000
# 4 0.0000 0.0000 0.0000 20.1780 0.0000 0.0000
# 5 0.0000 0.0000 0.0000 0.0000 26.0043 0.0000
# 6 0.0000 0.0000 0.0000 0.0000 0.0000 20.5184
#
#
#
# Elastic Compliance Matrix: (Units=1/GPa)
#
#
# Indices 1 2 3 4 5 6 
#
# 1 0.011047 -0.006443 -0.005509 0.000000 0.000000 0.000000
# 2 -0.006443 0.038629 -0.006545 0.000000 0.000000 0.000000
# 3 -0.005509 -0.006545 0.015177 0.000000 0.000000 0.000000
# 4 0.000000 0.000000 0.000000 0.049559 0.000000 0.000000
# 5 0.000000 0.000000 0.000000 0.000000 0.038455 0.000000
# 6 0.000000 0.000000 0.000000 0.000000 0.000000 0.048737
#
#
# Mechanical properties :
#
#
# Convention : Reuss Voigt Hill
#
# Bulk Modulus (GPa) = 35.89612 61.23986 48.56799
# Shear Modulus (GPa) = 20.17071 23.49921 21.83496
#
# Velocity S-wave (km/s) = 3.38429 3.65287 3.52114
# Velocity P-wave (km/s) = 5.97109 7.25016 6.64149
#
# Compressibility (1/GPa) = 0.02785817
#
# Stress axis : x y z
#
# Youngs Moduli (GPa) = 90.52614 25.88746 65.88714
#
# Poissons Ratio (x) = 0.16679 0.36298
# Poissons Ratio (y) = 0.58325 0.43125
# Poissons Ratio (z) = 0.49872 0.16944
#
# Static dielectric constant tensor:
#      x y z
#    x 3.675500 0.000000 0.000000 
#    y 0.000000 3.079940 0.000000 
#    z 0.000000 0.000000 3.346520 
# 
# 
# High freq. dielectric constant tensor:
#      x y z
#    x 1.688440 0.000000 0.000000 
#    y 0.000000 1.661770 0.000000 
#    z 0.000000 0.000000 1.670870 
# 
# From -- ./inp_files/60155.got.cif
#   From: 2010.03.12/outbox.cif.g09.slc.cpg/sg65_31_cif.got.tgz:60155.got - 2010.04.10 20:52:16.
