data_PCOD8266011
_publ_section_title
;
Structure prediction by ZEFSAII (Michael W. Deem and Ramdas Pophale) SiO2 
 PCOD8266011
Probable space group: C M M M
;
_chemical_formula_sum "Si O2"
_cell_formula_units_Z 104
_cell_length_a 29.078234
_cell_length_b 8.835419
_cell_length_c 23.636528
_cell_angle_alpha 90.000000
_cell_angle_beta 90.000000
_cell_angle_gamma 90.000000
_cell_volume 6072.658510
_symmetry_space_group_name_H-M "C M M M"
_symmetry_group_IT_number 65
_symmetry_cell_setting 'orthorhombic'
loop_
_space_group_symop_operation_xyz
x,y,z
-x,-y,z
x,-y,-z
-x,y,-z
-x,-y,-z
x,y,-z
-x,y,z
x,-y,z
1/2+x,1/2+y,z
1/2-x,1/2-y,z
1/2+x,1/2-y,-z
1/2-x,1/2+y,-z
1/2-x,1/2-y,-z
1/2+x,1/2+y,-z
1/2-x,1/2+y,z
1/2+x,1/2-y,z
loop_
_atom_site_type_symbol
_atom_site_label
_atom_site_fract_x
_atom_site_fract_y
_atom_site_fract_z
Si Si1 0.606870 0.675138 0.435922
Si Si2 0.295715 0.677511 0.610839
Si Si3 0.795971 0.678631 0.732768
Si Si4 0.554608 0.834082 0.000000
Si Si5 0.893784 0.321093 0.771986
Si Si6 0.051989 0.679348 0.663455
Si Si7 0.551866 0.181324 0.121259
O O1 0.593085 0.715745 0.500000
O O2 0.598087 0.500000 0.422403
O O3 0.660718 0.713789 0.428319
O O4 0.575136 0.771660 0.394890
O O5 0.287900 0.500000 0.619208
O O6 0.250000 0.750000 0.582585
O O7 0.304470 0.753359 0.671208
O O8 0.789969 0.500000 0.727320
O O9 0.750000 0.750000 0.760625
O O10 0.839946 0.722056 0.770926
O O11 0.568475 0.752597 0.940457
O O12 0.500000 0.851732 0.000000
O O13 0.577598 0.000000 0.000000
O O14 0.900721 0.500000 0.771555
O O15 0.919860 0.253679 0.716997
O O16 0.915363 0.253051 0.829530
O O17 0.052332 0.500000 0.665420
O O18 0.000000 0.741943 0.666181
O O19 0.500000 0.234437 0.134998
O O20 0.553651 0.000000 0.118457
#
# Coordination Sequence:
#
# PCOD8266011 Si02
#       7
#    16  16  16   8  16  16  16
#     4  10  22  38  52  67  90 120 151 182 223 276
#     4  10  19  32  51  71  91 115 143 179 225 274
#     4  10  18  29  46  67  91 117 146 180 223 271
#     4   7  10  16  28  50  83 120 153 181 211 255
#     4   9  16  26  42  64  89 116 147 184 225 268
#     4  10  20  34  51  70  91 116 150 191 230 266
#     4   8  12  19  33  56  87 121 152 181 217 261
#
# _framework density 17.125942999999999
#
# number of rings (size 3 to 8) (size 9 to 14) (size 15 to 20)
#    0.000    2.692    1.538    3.231    0.000    3.692 
#    0.000    1.538    0.000    0.000    0.000    0.538 
#    0.000    0.000    0.000    5.538    0.000   52.231 
#
# Total GULP energy -644421.188508 kJ/mol
# GULP energy per Si atom -12392.715164 kJ/mol
# Density = 1.708696 g / cm^3
# Si number density = 17.125943 Si / 1000 Ang^3
#
#
#
# Elastic Constant Matrix: (Units=GPa)
#
#
# Indices 1 2 3 4 5 6 
#
# 1 119.9025 27.0758 65.6593 0.0000 0.0000 0.0000
# 2 27.0758 35.1028 15.2050 0.0000 0.0000 0.0000
# 3 65.6593 15.2050 123.2654 0.0000 0.0000 0.0000
# 4 0.0000 0.0000 0.0000 6.9626 0.0000 0.0000
# 5 0.0000 0.0000 0.0000 0.0000 24.1139 0.0000
# 6 0.0000 0.0000 0.0000 0.0000 0.0000 18.3771
#
#
#
# Elastic Compliance Matrix: (Units=1/GPa)
#
#
# Indices 1 2 3 4 5 6 
#
# 1 0.013497 -0.007708 -0.006239 0.000000 0.000000 0.000000
# 2 -0.007708 0.034498 -0.000149 0.000000 0.000000 0.000000
# 3 -0.006239 -0.000149 0.011454 0.000000 0.000000 0.000000
# 4 0.000000 0.000000 0.000000 0.143625 0.000000 0.000000
# 5 0.000000 0.000000 0.000000 0.000000 0.041470 0.000000
# 6 0.000000 0.000000 0.000000 0.000000 0.000000 0.054416
#
#
# Mechanical properties :
#
#
# Convention : Reuss Voigt Hill
#
# Bulk Modulus (GPa) = 31.99332 54.90565 43.44948
# Shear Modulus (GPa) = 14.81168 21.24610 18.02889
#
# Velocity S-wave (km/s) = 2.94405 3.52601 3.24809
# Velocity P-wave (km/s) = 5.50258 6.97900 6.28430
#
# Compressibility (1/GPa) = 0.03125653
#
# Stress axis : x y z
#
# Youngs Moduli (GPa) = 74.09020 28.98709 87.30509
#
# Poissons Ratio (x) = 0.22344 0.54466
# Poissons Ratio (y) = 0.57112 0.01304
# Poissons Ratio (z) = 0.46222 0.00433
#
# Static dielectric constant tensor:
#      x y z
#    x 3.378130 0.000000 0.000000 
#    y 0.000000 2.854470 0.000000 
#    z 0.000000 0.000000 3.399400 
# 
# 
# High freq. dielectric constant tensor:
#      x y z
#    x 1.657170 0.000000 0.000000 
#    y 0.000000 1.623990 0.000000 
#    z 0.000000 0.000000 1.652050 
# 
# From -- ./inp_files/72189.got.cif
#   From: 2010.03.12/outbox.cif.g09.slc.cpg/sg65_37_cif.got.tgz:72189.got - 2010.04.10 20:52:16.
