data_PCOD8266175
_publ_section_title
;
Structure prediction by ZEFSAII (Michael W. Deem and Ramdas Pophale) SiO2 
 PCOD8266175
Probable space group: C M M M
;
_chemical_formula_sum "Si O2"
_cell_formula_units_Z 104
_cell_length_a 18.186963
_cell_length_b 19.389363
_cell_length_c 16.819797
_cell_angle_alpha 90.000000
_cell_angle_beta 90.000000
_cell_angle_gamma 90.000000
_cell_volume 5931.226029
_symmetry_space_group_name_H-M "C M M M"
_symmetry_group_IT_number 65
_symmetry_cell_setting 'orthorhombic'
loop_
_space_group_symop_operation_xyz
x,y,z
-x,-y,z
x,-y,-z
-x,y,-z
-x,-y,-z
x,y,-z
-x,y,z
x,-y,z
1/2+x,1/2+y,z
1/2-x,1/2-y,z
1/2+x,1/2-y,-z
1/2-x,1/2+y,-z
1/2-x,1/2-y,-z
1/2+x,1/2+y,-z
1/2-x,1/2+y,z
1/2+x,1/2-y,z
loop_
_atom_site_type_symbol
_atom_site_label
_atom_site_fract_x
_atom_site_fract_y
_atom_site_fract_z
Si Si1 0.683586 0.577461 0.090130
Si Si2 0.713741 0.920749 0.235596
Si Si3 0.415698 0.323587 0.179944
Si Si4 0.416721 0.248787 0.589351
Si Si5 0.418722 0.500000 0.592521
Si Si6 0.653087 0.627908 0.667385
Si Si7 0.416211 0.822088 0.250462
O O1 0.649022 0.500000 0.101824
O O2 0.752901 0.585337 0.147705
O O3 0.626391 0.639238 0.107712
O O4 0.711132 0.586785 0.000000
O O5 0.763785 0.879668 0.299681
O O6 0.633829 0.886868 0.229139
O O7 0.706089 0.000000 0.262470
O O8 0.500000 0.322941 0.155681
O O9 0.402882 0.368904 0.258567
O O10 0.389087 0.245570 0.200924
O O11 0.401533 0.220609 0.500000
O O12 0.500000 0.280174 0.594446
O O13 0.355668 0.305957 0.610608
O O14 0.409994 0.188458 0.654225
O O15 0.500000 0.500000 0.632840
O O16 0.430561 0.500000 0.500000
O O17 0.369388 0.436119 0.615609
O O18 0.500000 0.839543 0.226937
#
# Coordination Sequence:
#
# PCOD8266175 Si02
#       7
#    16  16  16  16   8  16  16
#     4   9  19  34  52  77 107 141 174 201 243 303
#     4  10  20  36  55  73 100 132 168 220 268 310
#     4   9  18  31  49  74 104 136 170 211 247 291
#     4   9  17  31  51  74 102 135 171 211 251 297
#     4  11  20  28  42  66 100 140 172 199 236 288
#     4  10  18  30  45  70 100 134 170 205 245 299
#     4   9  19  36  56  76  97 127 174 222 265 314
#
# _framework density 17.534317000000001
#
# number of rings (size 3 to 8) (size 9 to 14) (size 15 to 20)
#    0.000    2.538    0.769    2.769    1.077    7.692 
#    0.000    4.615    0.000    1.385    0.000    4.308 
#    0.000    0.000    0.000    0.000    0.000    0.000 
#
# Total GULP energy -644492.011807 kJ/mol
# GULP energy per Si atom -12394.077150 kJ/mol
# Density = 1.749441 g / cm^3
# Si number density = 17.534317 Si / 1000 Ang^3
#
#
#
# Elastic Constant Matrix: (Units=GPa)
#
#
# Indices 1 2 3 4 5 6 
#
# 1 85.4579 49.9085 33.1110 0.0000 0.0000 0.0000
# 2 49.9085 69.8147 29.9485 0.0000 0.0000 0.0000
# 3 33.1110 29.9485 82.8145 0.0000 0.0000 0.0000
# 4 0.0000 0.0000 0.0000 7.7553 0.0000 0.0000
# 5 0.0000 0.0000 0.0000 0.0000 14.9473 0.0000
# 6 0.0000 0.0000 0.0000 0.0000 0.0000 34.4736
#
#
#
# Elastic Compliance Matrix: (Units=1/GPa)
#
#
# Indices 1 2 3 4 5 6 
#
# 1 0.020911 -0.013448 -0.003497 0.000000 0.000000 0.000000
# 2 -0.013448 0.025603 -0.003882 0.000000 0.000000 0.000000
# 3 -0.003497 -0.003882 0.014877 0.000000 0.000000 0.000000
# 4 0.000000 0.000000 0.000000 0.128944 0.000000 0.000000
# 5 0.000000 0.000000 0.000000 0.000000 0.066902 0.000000
# 6 0.000000 0.000000 0.000000 0.000000 0.000000 0.029008
#
#
# Mechanical properties :
#
#
# Convention : Reuss Voigt Hill
#
# Bulk Modulus (GPa) = 50.66904 51.55810 51.11357
# Shear Modulus (GPa) = 14.94869 19.77651 17.36260
#
# Velocity S-wave (km/s) = 2.92300 3.36203 3.15017
# Velocity P-wave (km/s) = 6.35230 6.67375 6.51501
#
# Compressibility (1/GPa) = 0.01973592
#
# Stress axis : x y z
#
# Youngs Moduli (GPa) = 47.82278 39.05863 67.21680
#
# Poissons Ratio (x) = 0.52527 0.23507
# Poissons Ratio (y) = 0.64313 0.26093
# Poissons Ratio (z) = 0.16724 0.15162
#
# Static dielectric constant tensor:
#      x y z
#    x 3.082510 0.000000 0.000000 
#    y 0.000000 3.113180 0.000000 
#    z 0.000000 0.000000 3.258350 
# 
# 
# High freq. dielectric constant tensor:
#      x y z
#    x 1.659570 0.000000 0.000000 
#    y 0.000000 1.663120 0.000000 
#    z 0.000000 0.000000 1.671030 
# 
# From -- ./inp_files/54583.got.cif
#   From: 2010.03.12/outbox.cif.g09.slc.cpg/sg65_28_cif.got.tgz:54583.got - 2010.04.10 20:52:16.
