data_PCOD8266387
_publ_section_title
;
Structure prediction by ZEFSAII (Michael W. Deem and Ramdas Pophale) SiO2 
 PCOD8266387
Probable space group: C M M M
;
_chemical_formula_sum "Si O2"
_cell_formula_units_Z 88
_cell_length_a 19.816226
_cell_length_b 27.612433
_cell_length_c 8.866173
_cell_angle_alpha 90.000000
_cell_angle_beta 90.000000
_cell_angle_gamma 90.000000
_cell_volume 4851.341231
_symmetry_space_group_name_H-M "C M M M"
_symmetry_group_IT_number 65
_symmetry_cell_setting 'orthorhombic'
loop_
_space_group_symop_operation_xyz
x,y,z
-x,-y,z
x,-y,-z
-x,y,-z
-x,-y,-z
x,y,-z
-x,y,z
x,-y,z
1/2+x,1/2+y,z
1/2-x,1/2-y,z
1/2+x,1/2-y,-z
1/2-x,1/2+y,-z
1/2-x,1/2-y,-z
1/2+x,1/2+y,-z
1/2-x,1/2+y,z
1/2+x,1/2-y,z
loop_
_atom_site_type_symbol
_atom_site_label
_atom_site_fract_x
_atom_site_fract_y
_atom_site_fract_z
Si Si1 0.802196 0.188526 0.177720
Si Si2 0.177164 0.919452 0.823389
Si Si3 0.425545 0.871026 0.677711
Si Si4 0.836613 0.282738 0.677293
Si Si5 0.316610 0.945129 0.673598
Si Si6 0.575567 0.500000 0.820586
O O1 0.835975 0.136848 0.216896
O O2 0.849880 0.231004 0.243036
O O3 0.729825 0.191566 0.257448
O O4 0.792335 0.195534 0.000000
O O5 0.246081 0.938318 0.754479
O O6 0.114940 0.951935 0.762805
O O7 0.184756 0.926809 0.000000
O O8 0.429848 0.879267 0.500000
O O9 0.500000 0.877298 0.749929
O O10 0.399873 0.816938 0.714175
O O11 0.374092 0.910681 0.746514
O O12 0.826561 0.274874 0.500000
O O13 0.305311 0.931038 0.500000
O O14 0.341910 0.000000 0.692394
O O15 0.500000 0.500000 0.751540
O O16 0.571276 0.500000 0.000000
#
# Coordination Sequence:
#
# PCOD8266387 Si02
#       6
#    16  16  16  16  16   8
#     4  10  19  30  48  75 103 127 161 211 257 293
#     4  10  19  32  53  77 101 132 166 207 253 298
#     4   9  18  32  49  72 104 138 173 211 250 297
#     4  10  18  30  50  73  98 132 170 206 249 297
#     4  10  19  31  51  78 103 131 169 212 253 294
#     4   9  18  34  55  77 100 131 170 204 245 307
#
# _framework density 18.139313000000001
#
# number of rings (size 3 to 8) (size 9 to 14) (size 15 to 20)
#    0.000    2.273    2.727    2.182    0.000    1.091 
#    0.000    2.727    0.000    7.091    0.000    1.273 
#    0.000    0.000    0.000    0.000    0.000    0.000 
#
# Total GULP energy -545465.558501 kJ/mol
# GULP energy per Si atom -12396.944511 kJ/mol
# Density = 1.809803 g / cm^3
# Si number density = 18.139313 Si / 1000 Ang^3
#
#
#
# Elastic Constant Matrix: (Units=GPa)
#
#
# Indices 1 2 3 4 5 6 
#
# 1 141.6065 77.8010 19.6397 0.0000 0.0000 0.0000
# 2 77.8010 152.3105 33.4235 0.0000 0.0000 0.0000
# 3 19.6397 33.4235 39.4682 0.0000 0.0000 0.0000
# 4 0.0000 0.0000 0.0000 19.7475 0.0000 0.0000
# 5 0.0000 0.0000 0.0000 0.0000 13.8565 0.0000
# 6 0.0000 0.0000 0.0000 0.0000 0.0000 28.5405
#
#
#
# Elastic Compliance Matrix: (Units=1/GPa)
#
#
# Indices 1 2 3 4 5 6 
#
# 1 0.009837 -0.004852 -0.000786 0.000000 0.000000 0.000000
# 2 -0.004852 0.010458 -0.006442 0.000000 0.000000 0.000000
# 3 -0.000786 -0.006442 0.031183 0.000000 0.000000 0.000000
# 4 0.000000 0.000000 0.000000 0.050639 0.000000 0.000000
# 5 0.000000 0.000000 0.000000 0.000000 0.072168 0.000000
# 6 0.000000 0.000000 0.000000 0.000000 0.000000 0.035038
#
#
# Mechanical properties :
#
#
# Convention : Reuss Voigt Hill
#
# Bulk Modulus (GPa) = 36.60558 66.12373 51.36465
# Shear Modulus (GPa) = 20.61110 25.93029 23.27069
#
# Velocity S-wave (km/s) = 3.37451 3.78499 3.58563
# Velocity P-wave (km/s) = 5.95039 7.45881 6.74689
#
# Compressibility (1/GPa) = 0.02731824
#
# Stress axis : x y z
#
# Youngs Moduli (GPa) = 101.66031 95.62411 32.06893
#
# Poissons Ratio (x) = 0.46399 0.02520
# Poissons Ratio (y) = 0.49328 0.20657
# Poissons Ratio (z) = 0.07988 0.61596
#
# Static dielectric constant tensor:
#      x y z
#    x 3.373570 0.000000 0.000000 
#    y 0.000000 3.793620 0.000000 
#    z 0.000000 0.000000 3.152190 
# 
# 
# High freq. dielectric constant tensor:
#      x y z
#    x 1.680120 0.000000 0.000000 
#    y 0.000000 1.722350 0.000000 
#    z 0.000000 0.000000 1.678280 
# 
# From -- ./inp_files/10106.got.cif
#   From: 2010.03.12/outbox.cif.g09.slc.cpg/sg65_6_cif.got.tgz:10106.got - 2010.04.10 20:52:16.
