data_PCOD8266574
_publ_section_title
;
Structure prediction by ZEFSAII (Michael W. Deem and Ramdas Pophale) SiO2 
 PCOD8266574
Probable space group: C M M M
;
_chemical_formula_sum "Si O2"
_cell_formula_units_Z 72
_cell_length_a 30.272478
_cell_length_b 14.701429
_cell_length_c 7.660773
_cell_angle_alpha 90.000000
_cell_angle_beta 90.000000
_cell_angle_gamma 90.000000
_cell_volume 3409.416957
_symmetry_space_group_name_H-M "C M M M"
_symmetry_group_IT_number 65
_symmetry_cell_setting 'orthorhombic'
loop_
_space_group_symop_operation_xyz
x,y,z
-x,-y,z
x,-y,-z
-x,y,-z
-x,-y,-z
x,y,-z
-x,y,z
x,-y,z
1/2+x,1/2+y,z
1/2-x,1/2-y,z
1/2+x,1/2-y,-z
1/2-x,1/2+y,-z
1/2-x,1/2-y,-z
1/2+x,1/2+y,-z
1/2-x,1/2+y,z
1/2+x,1/2-y,z
loop_
_atom_site_type_symbol
_atom_site_label
_atom_site_fract_x
_atom_site_fract_y
_atom_site_fract_z
Si Si1 0.734311 0.654575 0.704116
Si Si2 0.947931 0.393601 0.000000
Si Si3 0.860552 0.100234 0.707296
Si Si4 0.400650 0.784318 0.303719
Si Si5 0.174703 0.401020 0.800499
O O1 0.726847 0.664459 0.500000
O O2 0.750000 0.750000 0.787934
O O3 0.688239 0.620016 0.787501
O O4 0.774279 0.586777 0.746382
O O5 0.930288 0.343329 0.172997
O O6 0.933742 0.500000 0.000000
O O7 0.000000 0.383926 0.000000
O O8 0.857238 0.099994 0.500000
O O9 0.895228 0.179459 0.763075
O O10 0.876340 0.000000 0.773749
O O11 0.421001 0.786943 0.500000
O O12 0.351288 0.826960 0.314821
O O13 0.152810 0.500000 0.771691
O O14 0.169186 0.370580 0.000000
#
# Coordination Sequence:
#
# PCOD8266574 Si02
#       5
#    16   8  16  16  16
#     4  10  18  31  50  75 111 159 212 261 302 341
#     4  11  26  48  71  98 129 151 179 235 303 379
#     4   9  18  34  57  85 121 167 217 263 302 344
#     4  11  22  40  66  92 122 161 203 247 300 362
#     4  11  22  34  50  77 116 159 204 256 304 347
#
# _framework density 21.117979999999999
#
# number of rings (size 3 to 8) (size 9 to 14) (size 15 to 20)
#    0.000    1.667    3.333    2.000    0.000    4.889 
#    2.000    1.667    0.000    1.333    0.000    3.111 
#    0.000    0.000    0.000    0.000    0.000    0.000 
#
# Total GULP energy -446110.542298 kJ/mol
# GULP energy per Si atom -12391.959508 kJ/mol
# Density = 2.106991 g / cm^3
# Si number density = 21.117980 Si / 1000 Ang^3
#
#
#
# Elastic Constant Matrix: (Units=GPa)
#
#
# Indices 1 2 3 4 5 6 
#
# 1 73.5875 53.9431 24.3708 0.0000 0.0000 0.0000
# 2 53.9431 180.7043 47.9588 0.0000 0.0000 0.0000
# 3 24.3708 47.9588 66.5700 0.0000 0.0000 0.0000
# 4 0.0000 0.0000 0.0000 10.4769 0.0000 0.0000
# 5 0.0000 0.0000 0.0000 0.0000 18.8547 0.0000
# 6 0.0000 0.0000 0.0000 0.0000 0.0000 21.6757
#
#
#
# Elastic Compliance Matrix: (Units=1/GPa)
#
#
# Indices 1 2 3 4 5 6 
#
# 1 0.017983 -0.004477 -0.003358 0.000000 0.000000 0.000000
# 2 -0.004477 0.007957 -0.004093 0.000000 0.000000 0.000000
# 3 -0.003358 -0.004093 0.019200 0.000000 0.000000 0.000000
# 4 0.000000 0.000000 0.000000 0.095448 0.000000 0.000000
# 5 0.000000 0.000000 0.000000 0.000000 0.053037 0.000000
# 6 0.000000 0.000000 0.000000 0.000000 0.000000 0.046135
#
#
# Mechanical properties :
#
#
# Convention : Reuss Voigt Hill
#
# Bulk Modulus (GPa) = 46.98543 63.71191 55.34867
# Shear Modulus (GPa) = 18.46990 23.17409 20.82200
#
# Velocity S-wave (km/s) = 2.96058 3.31624 3.14345
# Velocity P-wave (km/s) = 5.82958 6.70062 6.28022
#
# Compressibility (1/GPa) = 0.02128319
#
# Stress axis : x y z
#
# Youngs Moduli (GPa) = 55.60715 125.68015 52.08323
#
# Poissons Ratio (x) = 0.56267 0.17490
# Poissons Ratio (y) = 0.24896 0.21319
# Poissons Ratio (z) = 0.18674 0.51444
#
# Static dielectric constant tensor:
#      x y z
#    x 3.487330 0.000000 0.000000 
#    y 0.000000 4.317600 0.000000 
#    z 0.000000 0.000000 3.510800 
# 
# 
# High freq. dielectric constant tensor:
#      x y z
#    x 1.775770 0.000000 0.000000 
#    y 0.000000 1.848100 0.000000 
#    z 0.000000 0.000000 1.811400 
# 
# From -- ./inp_files/7632.got.cif
#   From: 2010.03.12/outbox.cif.g09.slc.cpg/sg65_4_cif.got.tgz:7632.got - 2010.04.10 20:52:16.
