data_PCOD8266960
_publ_section_title
;
Structure prediction by ZEFSAII (Michael W. Deem and Ramdas Pophale) SiO2 
 PCOD8266960
Probable space group: C M M M
;
_chemical_formula_sum "Si O2"
_cell_formula_units_Z 112
_cell_length_a 14.446786
_cell_length_b 27.928182
_cell_length_c 14.021451
_cell_angle_alpha 90.000000
_cell_angle_beta 90.000000
_cell_angle_gamma 90.000000
_cell_volume 5657.269450
_symmetry_space_group_name_H-M "C M M M"
_symmetry_group_IT_number 65
_symmetry_cell_setting 'orthorhombic'
loop_
_space_group_symop_operation_xyz
x,y,z
-x,-y,z
x,-y,-z
-x,y,-z
-x,-y,-z
x,y,-z
-x,y,z
x,-y,z
1/2+x,1/2+y,z
1/2-x,1/2-y,z
1/2+x,1/2-y,-z
1/2-x,1/2+y,-z
1/2-x,1/2-y,-z
1/2+x,1/2+y,-z
1/2-x,1/2+y,z
1/2+x,1/2-y,z
loop_
_atom_site_type_symbol
_atom_site_label
_atom_site_fract_x
_atom_site_fract_y
_atom_site_fract_z
Si Si1 0.709681 0.360597 0.387657
Si Si2 0.101420 0.825311 0.895528
Si Si3 0.849046 0.768779 0.278080
Si Si4 0.707305 0.419445 0.892191
Si Si5 0.101028 0.667017 0.302021
Si Si6 0.103011 0.620079 0.106776
Si Si7 0.393009 0.446962 0.713082
O O1 0.701612 0.360453 0.500000
O O2 0.656252 0.313619 0.350025
O O3 0.817839 0.360475 0.358062
O O4 0.661773 0.408701 0.349937
O O5 0.100223 0.783277 0.818721
O O6 0.177803 0.864765 0.869307
O O7 0.000000 0.849972 0.894555
O O8 0.122015 0.803385 0.000000
O O9 0.750000 0.750000 0.246974
O O10 0.900737 0.723794 0.326300
O O11 0.818889 0.421169 0.878215
O O12 0.653927 0.452490 0.817457
O O13 0.679543 0.434622 0.000000
O O14 0.115393 0.660538 0.187851
O O15 0.000000 0.646447 0.333306
O O16 0.000000 0.596903 0.115032
O O17 0.116468 0.642498 0.000000
O O18 0.500000 0.430961 0.722409
O O19 0.386572 0.500000 0.666165
#
# Coordination Sequence:
#
# PCOD8266960 Si02
#       7
#    16  16  16  16  16  16  16
#     4  11  24  43  62  81 112 153 195 248 307 353
#     4  10  19  30  49  78 114 156 196 233 276 334
#     4  10  20  34  54  83 117 156 198 238 282 339
#     4  10  18  33  58  87 120 157 190 226 278 341
#     4  10  20  35  59  90 121 156 198 241 285 340
#     4   9  17  31  55  87 122 160 198 230 268 327
#     4  11  24  42  65  91 116 145 188 240 293 353
#
# _framework density 19.797536000000001
#
# number of rings (size 3 to 8) (size 9 to 14) (size 15 to 20)
#    0.000    1.857    2.857    1.714    0.000    6.000 
#    0.000    2.857    0.000    1.714    0.000    3.000 
#    0.000    0.000    0.000    0.000    0.000    0.000 
#
# Total GULP energy -693971.819942 kJ/mol
# GULP energy per Si atom -12392.353928 kJ/mol
# Density = 1.975248 g / cm^3
# Si number density = 19.797536 Si / 1000 Ang^3
#
#
#
# Elastic Constant Matrix: (Units=GPa)
#
#
# Indices 1 2 3 4 5 6 
#
# 1 132.6676 47.8879 48.5120 0.0000 0.0000 0.0000
# 2 47.8879 88.7987 46.1719 0.0000 0.0000 0.0000
# 3 48.5120 46.1719 119.2912 0.0000 0.0000 0.0000
# 4 0.0000 0.0000 0.0000 7.6019 0.0000 0.0000
# 5 0.0000 0.0000 0.0000 0.0000 8.8033 0.0000
# 6 0.0000 0.0000 0.0000 0.0000 0.0000 21.8973
#
#
#
# Elastic Compliance Matrix: (Units=1/GPa)
#
#
# Indices 1 2 3 4 5 6 
#
# 1 0.009902 -0.004064 -0.002454 0.000000 0.000000 0.000000
# 2 -0.004064 0.015767 -0.004450 0.000000 0.000000 0.000000
# 3 -0.002454 -0.004450 0.011103 0.000000 0.000000 0.000000
# 4 0.000000 0.000000 0.000000 0.131545 0.000000 0.000000
# 5 0.000000 0.000000 0.000000 0.000000 0.113594 0.000000
# 6 0.000000 0.000000 0.000000 0.000000 0.000000 0.045668
#
#
# Mechanical properties :
#
#
# Convention : Reuss Voigt Hill
#
# Bulk Modulus (GPa) = 67.40190 69.54454 68.47322
# Shear Modulus (GPa) = 14.10597 20.87289 17.48943
#
# Velocity S-wave (km/s) = 2.67219 3.25055 2.97545
# Velocity P-wave (km/s) = 6.60608 7.02084 6.81662
#
# Compressibility (1/GPa) = 0.01483638
#
# Stress axis : x y z
#
# Youngs Moduli (GPa) = 100.99106 63.42407 90.06532
#
# Poissons Ratio (x) = 0.25776 0.22100
# Poissons Ratio (y) = 0.41043 0.40078
# Poissons Ratio (z) = 0.24781 0.28223
#
# Static dielectric constant tensor:
#      x y z
#    x 4.000090 0.000000 0.000000 
#    y 0.000000 3.291180 0.000000 
#    z 0.000000 0.000000 3.507140 
# 
# 
# High freq. dielectric constant tensor:
#      x y z
#    x 1.792050 0.000000 0.000000 
#    y 0.000000 1.731550 0.000000 
#    z 0.000000 0.000000 1.760150 
# 
# From -- ./inp_files/40810.got.cif
#   From: 2010.03.12/outbox.cif.g09.slc.cpg/sg65_21_cif.got.tgz:40810.got - 2010.04.10 20:52:16.
