data_PCOD8266191
_publ_section_title
;
Structure prediction by ZEFSAII (Michael W. Deem and Ramdas Pophale) SiO2 
 PCOD8266191
Probable space group: C M M M
;
_chemical_formula_sum "Si O2"
_cell_formula_units_Z 104
_cell_length_a 27.483395
_cell_length_b 8.561191
_cell_length_c 26.393037
_cell_angle_alpha 90.000000
_cell_angle_beta 90.000000
_cell_angle_gamma 90.000000
_cell_volume 6210.033351
_symmetry_space_group_name_H-M "C M M M"
_symmetry_group_IT_number 65
_symmetry_cell_setting 'orthorhombic'
loop_
_space_group_symop_operation_xyz
x,y,z
-x,-y,z
x,-y,-z
-x,y,-z
-x,-y,-z
x,y,-z
-x,y,z
x,-y,z
1/2+x,1/2+y,z
1/2-x,1/2-y,z
1/2+x,1/2-y,-z
1/2-x,1/2+y,-z
1/2-x,1/2-y,-z
1/2+x,1/2+y,-z
1/2-x,1/2+y,z
1/2+x,1/2-y,z
loop_
_atom_site_type_symbol
_atom_site_label
_atom_site_fract_x
_atom_site_fract_y
_atom_site_fract_z
Si Si1 0.555491 0.318728 0.941992
Si Si2 0.695905 0.184527 0.500000
Si Si3 0.803562 0.816920 0.397039
Si Si4 0.301655 0.316224 0.796525
Si Si5 0.611401 0.817592 0.852040
Si Si6 0.553310 0.815488 0.755539
Si Si7 0.852368 0.684334 0.300592
O O1 0.500000 0.265501 0.932388
O O2 0.561496 0.500000 0.928561
O O3 0.591690 0.217829 0.907822
O O4 0.569965 0.286823 0.000000
O O5 0.750000 0.250000 0.500000
O O6 0.671580 0.247537 0.551763
O O7 0.695041 0.000000 0.500000
O O8 0.750000 0.750000 0.386496
O O9 0.838955 0.775151 0.351245
O O10 0.798523 0.000000 0.403165
O O11 0.299299 0.500000 0.786930
O O12 0.250000 0.250000 0.814168
O O13 0.339168 0.277122 0.841635
O O14 0.316416 0.230685 0.744615
O O15 0.571177 0.762229 0.811105
O O16 0.622998 0.000000 0.846111
O O17 0.500000 0.740677 0.744600
O O18 0.592596 0.762662 0.713509
O O19 0.549108 0.000000 0.754564
O O20 0.848134 0.500000 0.309701
#
# Coordination Sequence:
#
# PCOD8266191 Si02
#       7
#    16   8  16  16  16  16  16
#     4   9  18  32  49  71 100 131 161 195 237 282
#     4  10  18  30  46  66  91 120 155 192 234 279
#     4  11  20  31  46  66  94 126 159 193 233 278
#     4  11  21  34  50  69  95 126 160 196 236 281
#     4  10  19  31  49  73  98 125 159 196 236 283
#     4   8  15  28  46  68  94 122 152 189 230 272
#     4  10  19  31  47  70  97 125 159 195 233 277
#
# _framework density 16.747091999999999
#
# number of rings (size 3 to 8) (size 9 to 14) (size 15 to 20)
#    0.000    2.154    0.000    7.615    0.000    1.231 
#    0.000    0.769    0.000    9.692    0.000    0.538 
#    0.000    4.308    0.000    0.000    0.000    0.000 
#
# Total GULP energy -644753.747796 kJ/mol
# GULP energy per Si atom -12399.110535 kJ/mol
# Density = 1.670898 g / cm^3
# Si number density = 16.747092 Si / 1000 Ang^3
#
#
#
# Elastic Constant Matrix: (Units=GPa)
#
#
# Indices 1 2 3 4 5 6 
#
# 1 107.7056 26.2426 49.0087 0.0000 0.0000 0.0000
# 2 26.2426 86.3559 26.8687 0.0000 0.0000 0.0000
# 3 49.0087 26.8687 106.6498 0.0000 0.0000 0.0000
# 4 0.0000 0.0000 0.0000 29.9810 0.0000 0.0000
# 5 0.0000 0.0000 0.0000 0.0000 21.6639 0.0000
# 6 0.0000 0.0000 0.0000 0.0000 0.0000 19.8707
#
#
#
# Elastic Compliance Matrix: (Units=1/GPa)
#
#
# Indices 1 2 3 4 5 6 
#
# 1 0.012083 -0.002110 -0.005021 0.000000 0.000000 0.000000
# 2 -0.002110 0.012933 -0.002289 0.000000 0.000000 0.000000
# 3 -0.005021 -0.002289 0.012260 0.000000 0.000000 0.000000
# 4 0.000000 0.000000 0.000000 0.033355 0.000000 0.000000
# 5 0.000000 0.000000 0.000000 0.000000 0.046160 0.000000
# 6 0.000000 0.000000 0.000000 0.000000 0.000000 0.050325
#
#
# Mechanical properties :
#
#
# Convention : Reuss Voigt Hill
#
# Bulk Modulus (GPa) = 54.23678 56.10568 55.17123
# Shear Modulus (GPa) = 26.02782 27.54252 26.78517
#
# Velocity S-wave (km/s) = 3.94657 4.05979 4.00358
# Velocity P-wave (km/s) = 7.29543 7.45321 7.37474
#
# Compressibility (1/GPa) = 0.01843767
#
# Stress axis : x y z
#
# Youngs Moduli (GPa) = 82.75857 77.32005 81.56293
#
# Poissons Ratio (x) = 0.16312 0.40954
# Poissons Ratio (y) = 0.17460 0.18668
# Poissons Ratio (z) = 0.41554 0.17697
#
# Static dielectric constant tensor:
#      x y z
#    x 3.241220 0.000000 0.000000 
#    y 0.000000 3.107230 0.000000 
#    z 0.000000 0.000000 3.292810 
# 
# 
# High freq. dielectric constant tensor:
#      x y z
#    x 1.624310 0.000000 0.000000 
#    y 0.000000 1.649510 0.000000 
#    z 0.000000 0.000000 1.640070 
# 
# From -- ./inp_files/76027.got.cif
#   From: 2010.03.12/outbox.cif.g09.slc.cpg/sg65_39_cif.got.tgz:76027.got - 2010.04.10 20:52:16.
