data_PCOD8266730
_publ_section_title
;
Structure prediction by ZEFSAII (Michael W. Deem and Ramdas Pophale) SiO2 
 PCOD8266730
Probable space group: C M M M
;
_chemical_formula_sum "Si O2"
_cell_formula_units_Z 64
_cell_length_a 8.922434
_cell_length_b 27.658275
_cell_length_c 18.082665
_cell_angle_alpha 90.000000
_cell_angle_beta 90.000000
_cell_angle_gamma 90.000000
_cell_volume 4462.424395
_symmetry_space_group_name_H-M "C M M M"
_symmetry_group_IT_number 65
_symmetry_cell_setting 'orthorhombic'
loop_
_space_group_symop_operation_xyz
x,y,z
-x,-y,z
x,-y,-z
-x,y,-z
-x,-y,-z
x,y,-z
-x,y,z
x,-y,z
1/2+x,1/2+y,z
1/2-x,1/2-y,z
1/2+x,1/2-y,-z
1/2-x,1/2+y,-z
1/2-x,1/2-y,-z
1/2+x,1/2+y,-z
1/2-x,1/2+y,z
1/2+x,1/2-y,z
loop_
_atom_site_type_symbol
_atom_site_label
_atom_site_fract_x
_atom_site_fract_y
_atom_site_fract_z
Si Si1 0.169121 0.557696 0.000000
Si Si2 0.669597 0.381363 0.581340
Si Si3 0.168892 0.942458 0.853900
Si Si4 0.674662 0.056499 0.705305
Si Si5 0.178444 0.302306 0.500000
O O1 0.251741 0.578150 0.927320
O O2 0.171512 0.500000 0.000000
O O3 0.000000 0.577237 0.000000
O O4 0.667577 0.406673 0.500000
O O5 0.500000 0.370395 0.607973
O O6 0.749380 0.416818 0.637505
O O7 0.762140 0.330902 0.573305
O O8 0.257006 0.923800 0.781947
O O9 0.000000 0.922515 0.851050
O O10 0.170688 0.000000 0.856261
O O11 0.500000 0.067934 0.705800
O O12 0.708085 0.000000 0.695819
O O13 0.250000 0.250000 0.500000
O O14 0.000000 0.299176 0.500000
#
# Coordination Sequence:
#
# PCOD8266730 Si02
#       5
#     8  16  16  16   8
#     4   9  15  23  35  51  71  95 130 173 210 245
#     4   9  19  32  45  63  83 107 140 172 207 247
#     4   9  16  25  37  52  72 101 136 172 209 246
#     4  10  19  29  41  58  82 112 144 177 212 247
#     4  10  18  32  51  68  85 104 130 165 207 251
#
# _framework density 14.341979
#
# number of rings (size 3 to 8) (size 9 to 14) (size 15 to 20)
#    0.750    1.875    0.000    3.375    0.000    6.500 
#    0.000    2.500    0.000    0.000    0.000    0.000 
#    0.000    0.000    0.000    1.125    0.000   15.875 
#
# Total GULP energy -396599.562946 kJ/mol
# GULP energy per Si atom -12393.736342 kJ/mol
# Density = 1.430934 g / cm^3
# Si number density = 14.341979 Si / 1000 Ang^3
#
#
#
# Elastic Constant Matrix: (Units=GPa)
#
#
# Indices 1 2 3 4 5 6 
#
# 1 151.6049 46.2356 68.1494 0.0000 0.0000 0.0000
# 2 46.2356 33.8651 35.7521 0.0000 0.0000 0.0000
# 3 68.1494 35.7521 111.1994 0.0000 0.0000 0.0000
# 4 0.0000 0.0000 0.0000 -0.7511 0.0000 0.0000
# 5 0.0000 0.0000 0.0000 0.0000 32.6801 0.0000
# 6 0.0000 0.0000 0.0000 0.0000 0.0000 19.4030
#
#
#
# Elastic Compliance Matrix: (Units=1/GPa)
#
#
# Indices 1 2 3 4 5 6 
#
# 1 0.011992 -0.013040 -0.003157 0.000000 0.000000 0.000000
# 2 -0.013040 0.058881 -0.010940 0.000000 0.000000 0.000000
# 3 -0.003157 -0.010940 0.014445 0.000000 0.000000 0.000000
# 4 0.000000 0.000000 0.000000 -1.331379 0.000000 0.000000
# 5 0.000000 0.000000 0.000000 0.000000 0.030600 0.000000
# 6 0.000000 0.000000 0.000000 0.000000 0.000000 0.051539
#
#
# Mechanical properties :
#
#
# Convention : Reuss Voigt Hill
#
# Bulk Modulus (GPa) = 32.21089 66.32708 49.26898
# Shear Modulus (GPa) = -4.54834 20.03522 7.74344
#
# Velocity S-wave (km/s) = -1.78276 3.74165 2.32613
# Velocity P-wave (km/s) = 4.27437 8.06311 6.45307
#
# Compressibility (1/GPa) = 0.03104540
#
# Stress axis : x y z
#
# Youngs Moduli (GPa) = 83.38926 16.98345 69.22900
#
# Poissons Ratio (x) = 0.22146 0.21855
# Poissons Ratio (y) = 1.08736 0.75733
# Poissons Ratio (z) = 0.26326 0.18579
#
# Static dielectric constant tensor:
#      x y z
#    x 3.052050 0.000000 0.000000 
#    y 0.000000 2.293230 0.000000 
#    z 0.000000 0.000000 2.876490 
# 
# 
# High freq. dielectric constant tensor:
#      x y z
#    x 1.574210 0.000000 0.000000 
#    y 0.000000 1.478390 0.000000 
#    z 0.000000 0.000000 1.549940 
# 
# From -- ./inp_files/49426.got.cif
#   From: 2010.03.12/outbox.cif.g09.slc.cpg/sg65_25_cif.got.tgz:49426.got - 2010.04.10 20:52:16.
