data_PCOD8266311
_publ_section_title
;
Structure prediction by ZEFSAII (Michael W. Deem and Ramdas Pophale) SiO2 
 PCOD8266311
Probable space group: C M M M
;
_chemical_formula_sum "Si O2"
_cell_formula_units_Z 64
_cell_length_a 17.889139
_cell_length_b 17.692647
_cell_length_c 11.912115
_cell_angle_alpha 90.000000
_cell_angle_beta 90.000000
_cell_angle_gamma 90.000000
_cell_volume 3770.258508
_symmetry_space_group_name_H-M "C M M M"
_symmetry_group_IT_number 65
_symmetry_cell_setting 'orthorhombic'
loop_
_space_group_symop_operation_xyz
x,y,z
-x,-y,z
x,-y,-z
-x,y,-z
-x,-y,-z
x,y,-z
-x,y,z
x,-y,z
1/2+x,1/2+y,z
1/2-x,1/2-y,z
1/2+x,1/2-y,-z
1/2-x,1/2+y,-z
1/2-x,1/2-y,-z
1/2+x,1/2+y,-z
1/2-x,1/2+y,z
1/2+x,1/2-y,z
loop_
_atom_site_type_symbol
_atom_site_label
_atom_site_fract_x
_atom_site_fract_y
_atom_site_fract_z
Si Si1 0.230824 0.163315 0.130260
Si Si2 0.000000 0.590194 0.874671
Si Si3 0.582159 0.584671 0.867303
Si Si4 0.915016 0.590005 0.500000
Si Si5 0.359982 0.910576 0.263344
O O1 0.250000 0.250000 0.150473
O O2 0.145924 0.144560 0.169021
O O3 0.282165 0.114443 0.211436
O O4 0.244008 0.140454 0.000000
O O5 0.927033 0.622118 0.812565
O O6 0.000000 0.500000 0.875605
O O7 0.000000 0.623438 0.000000
O O8 0.500000 0.609627 0.820663
O O9 0.601704 0.500000 0.823033
O O10 0.578204 0.582250 0.000000
O O11 0.918052 0.500000 0.500000
O O12 0.870906 0.619941 0.609725
O O13 0.000000 0.621146 0.500000
O O14 0.363234 0.000000 0.263224
#
# Coordination Sequence:
#
# PCOD8266311 Si02
#       5
#    16   8  16   8  16
#     4  10  20  32  44  68 103 130 155 194 250 305
#     4   9  16  25  41  69  99 122 148 182 227 288
#     4   8  14  27  47  66  85 117 161 200 232 276
#     4   9  16  30  49  70  95 125 165 210 241 275
#     4  10  18  30  49  70  94 127 165 201 240 285
#
# _framework density 16.974962999999999
#
# number of rings (size 3 to 8) (size 9 to 14) (size 15 to 20)
#    0.000    2.750    1.250    2.250    0.000    2.500 
#    2.250    0.625    0.000    0.000    0.000    0.875 
#    0.000    5.000    0.000    0.000    0.000    0.000 
#
# Total GULP energy -396592.872705 kJ/mol
# GULP energy per Si atom -12393.527272 kJ/mol
# Density = 1.693633 g / cm^3
# Si number density = 16.974963 Si / 1000 Ang^3
#
#
#
# Elastic Constant Matrix: (Units=GPa)
#
#
# Indices 1 2 3 4 5 6 
#
# 1 153.9686 45.4068 51.3536 0.0000 0.0000 0.0000
# 2 45.4068 42.7516 17.8632 0.0000 0.0000 0.0000
# 3 51.3536 17.8632 105.4583 0.0000 0.0000 0.0000
# 4 0.0000 0.0000 0.0000 11.0210 0.0000 0.0000
# 5 0.0000 0.0000 0.0000 0.0000 6.1579 0.0000
# 6 0.0000 0.0000 0.0000 0.0000 0.0000 17.5087
#
#
#
# Elastic Compliance Matrix: (Units=1/GPa)
#
#
# Indices 1 2 3 4 5 6 
#
# 1 0.010522 -0.009722 -0.003477 0.000000 0.000000 0.000000
# 2 -0.009722 0.034156 -0.001051 0.000000 0.000000 0.000000
# 3 -0.003477 -0.001051 0.011354 0.000000 0.000000 0.000000
# 4 0.000000 0.000000 0.000000 0.090736 0.000000 0.000000
# 5 0.000000 0.000000 0.000000 0.000000 0.162392 0.000000
# 6 0.000000 0.000000 0.000000 0.000000 0.000000 0.057115
#
#
# Mechanical properties :
#
#
# Convention : Reuss Voigt Hill
#
# Bulk Modulus (GPa) = 36.32300 59.04731 47.68516
# Shear Modulus (GPa) = 12.37772 19.44119 15.90946
#
# Velocity S-wave (km/s) = 2.70325 3.38788 3.06474
# Velocity P-wave (km/s) = 5.58461 7.08266 6.37777
#
# Compressibility (1/GPa) = 0.02753076
#
# Stress axis : x y z
#
# Youngs Moduli (GPa) = 95.04196 29.27711 88.07848
#
# Poissons Ratio (x) = 0.28464 0.30623
# Poissons Ratio (y) = 0.92404 0.09259
# Poissons Ratio (z) = 0.33044 0.03078
#
# Static dielectric constant tensor:
#      x y z
#    x 3.583040 0.000000 0.000000 
#    y 0.000000 2.869940 0.000000 
#    z 0.000000 0.000000 3.102960 
# 
# 
# High freq. dielectric constant tensor:
#      x y z
#    x 1.666510 0.000000 0.000000 
#    y 0.000000 1.615790 0.000000 
#    z 0.000000 0.000000 1.623210 
# 
# From -- ./inp_files/26119.got.cif
#   From: 2010.03.12/outbox.cif.g09.slc.cpg/sg65_14_cif.got.tgz:26119.got - 2010.04.10 20:52:16.
