data_PCOD8266520
_publ_section_title
;
Structure prediction by ZEFSAII (Michael W. Deem and Ramdas Pophale) SiO2 
 PCOD8266520
Probable space group: C M M M
;
_chemical_formula_sum "Si O2"
_cell_formula_units_Z 80
_cell_length_a 25.970676
_cell_length_b 26.854621
_cell_length_c 7.745380
_cell_angle_alpha 90.000000
_cell_angle_beta 90.000000
_cell_angle_gamma 90.000000
_cell_volume 5401.880985
_symmetry_space_group_name_H-M "C M M M"
_symmetry_group_IT_number 65
_symmetry_cell_setting 'orthorhombic'
loop_
_space_group_symop_operation_xyz
x,y,z
-x,-y,z
x,-y,-z
-x,y,-z
-x,-y,-z
x,y,-z
-x,y,z
x,-y,z
1/2+x,1/2+y,z
1/2-x,1/2-y,z
1/2+x,1/2-y,-z
1/2-x,1/2+y,-z
1/2-x,1/2-y,-z
1/2+x,1/2+y,-z
1/2-x,1/2+y,z
1/2+x,1/2-y,z
loop_
_atom_site_type_symbol
_atom_site_label
_atom_site_fract_x
_atom_site_fract_y
_atom_site_fract_z
Si Si1 0.759924 0.873165 0.304316
Si Si2 0.646825 0.302759 0.299866
Si Si3 0.704906 0.784897 0.803397
Si Si4 0.901465 0.057424 0.000000
Si Si5 0.940659 0.124715 0.300932
Si Si6 0.779752 0.057502 0.000000
O O1 0.767210 0.893131 0.500000
O O2 0.808825 0.840899 0.237882
O O3 0.708696 0.837767 0.296821
O O4 0.754959 0.919211 0.173476
O O5 0.652208 0.294018 0.500000
O O6 0.652384 0.247356 0.216381
O O7 0.591774 0.326107 0.249146
O O8 0.750000 0.750000 0.726599
O O9 0.715226 0.798608 0.000000
O O10 0.925628 0.080041 0.825739
O O11 0.840735 0.065387 0.000000
O O12 0.916923 0.000000 0.000000
O O13 0.928652 0.108864 0.500000
O O14 0.000000 0.138890 0.277016
O O15 0.764437 0.000000 0.000000
#
# Coordination Sequence:
#
# PCOD8266520 Si02
#       6
#    16  16  16   8  16   8
#     4  10  18  31  47  63  85 110 138 173 212 253
#     4   9  17  28  43  64  86 108 137 171 209 259
#     4   9  16  24  43  67  87 108 131 163 208 252
#     4  11  23  36  50  62  77 105 145 193 239 269
#     4  10  21  35  49  64  84 111 142 180 226 268
#     4  11  22  33  46  64  84 110 145 182 226 266
#
# _framework density 14.809657
#
# number of rings (size 3 to 8) (size 9 to 14) (size 15 to 20)
#    0.000    2.200    3.000    0.900    2.800    4.000 
#    0.000    3.000    0.000    0.000    0.000    0.000 
#    0.000    0.000    0.000    0.000    0.000    2.000 
#
# Total GULP energy -495735.571332 kJ/mol
# GULP energy per Si atom -12393.389283 kJ/mol
# Density = 1.477595 g / cm^3
# Si number density = 14.809657 Si / 1000 Ang^3
#
#
#
# Elastic Constant Matrix: (Units=GPa)
#
#
# Indices 1 2 3 4 5 6 
#
# 1 51.0386 49.6568 27.2742 0.0000 0.0000 0.0000
# 2 49.6568 99.4229 50.9179 0.0000 0.0000 0.0000
# 3 27.2742 50.9179 83.1098 0.0000 0.0000 0.0000
# 4 0.0000 0.0000 0.0000 19.3325 0.0000 0.0000
# 5 0.0000 0.0000 0.0000 0.0000 15.4368 0.0000
# 6 0.0000 0.0000 0.0000 0.0000 0.0000 19.6521
#
#
#
# Elastic Compliance Matrix: (Units=1/GPa)
#
#
# Indices 1 2 3 4 5 6 
#
# 1 0.038200 -0.018447 -0.001235 0.000000 0.000000 0.000000
# 2 -0.018447 0.023565 -0.008383 0.000000 0.000000 0.000000
# 3 -0.001235 -0.008383 0.017574 0.000000 0.000000 0.000000
# 4 0.000000 0.000000 0.000000 0.051726 0.000000 0.000000
# 5 0.000000 0.000000 0.000000 0.000000 0.064780 0.000000
# 6 0.000000 0.000000 0.000000 0.000000 0.000000 0.050885
#
#
# Mechanical properties :
#
#
# Convention : Reuss Voigt Hill
#
# Bulk Modulus (GPa) = 43.08701 54.36325 48.72513
# Shear Modulus (GPa) = 16.09807 17.93244 17.01526
#
# Velocity S-wave (km/s) = 3.30054 3.48352 3.39326
# Velocity P-wave (km/s) = 6.60922 7.27788 6.95159
#
# Compressibility (1/GPa) = 0.02320885
#
# Stress axis : x y z
#
# Youngs Moduli (GPa) = 26.17794 42.43623 56.90350
#
# Poissons Ratio (x) = 0.78281 0.07025
# Poissons Ratio (y) = 0.48290 0.47705
# Poissons Ratio (z) = 0.03232 0.35576
#
# Static dielectric constant tensor:
#      x y z
#    x 2.708200 0.000000 0.000000 
#    y 0.000000 2.834270 0.000000 
#    z 0.000000 0.000000 2.957070 
# 
# 
# High freq. dielectric constant tensor:
#      x y z
#    x 1.518910 0.000000 0.000000 
#    y 0.000000 1.545870 0.000000 
#    z 0.000000 0.000000 1.585680 
# 
# From -- ./inp_files/14213.got.cif
#   From: 2010.03.12/outbox.cif.g09.slc.cpg/sg65_8_cif.got.tgz:14213.got - 2010.04.10 20:52:16.
