data_PCOD8266295
_publ_section_title
;
Structure prediction by ZEFSAII (Michael W. Deem and Ramdas Pophale) SiO2 
 PCOD8266295
Probable space group: C M M M
;
_chemical_formula_sum "Si O2"
_cell_formula_units_Z 80
_cell_length_a 10.437627
_cell_length_b 18.562869
_cell_length_c 23.065748
_cell_angle_alpha 90.000000
_cell_angle_beta 90.000000
_cell_angle_gamma 90.000000
_cell_volume 4469.041788
_symmetry_space_group_name_H-M "C M M M"
_symmetry_group_IT_number 65
_symmetry_cell_setting 'orthorhombic'
loop_
_space_group_symop_operation_xyz
x,y,z
-x,-y,z
x,-y,-z
-x,y,-z
-x,-y,-z
x,y,-z
-x,y,z
x,-y,z
1/2+x,1/2+y,z
1/2-x,1/2-y,z
1/2+x,1/2-y,-z
1/2-x,1/2+y,-z
1/2-x,1/2-y,-z
1/2+x,1/2+y,-z
1/2-x,1/2+y,z
1/2+x,1/2-y,z
loop_
_atom_site_type_symbol
_atom_site_label
_atom_site_fract_x
_atom_site_fract_y
_atom_site_fract_z
Si Si1 0.000000 0.163712 0.736405
Si Si2 0.000000 0.335587 0.130267
Si Si3 0.500000 0.165208 0.260512
Si Si4 0.500000 0.336334 0.132744
Si Si5 0.852985 0.583601 0.433955
Si Si6 0.252135 0.164502 0.329675
Si Si7 0.748598 0.335882 0.065474
O O1 0.000000 0.132943 0.801802
O O2 0.874903 0.136174 0.702418
O O3 0.000000 0.249172 0.740377
O O4 0.000000 0.366099 0.195521
O O5 0.875416 0.365233 0.097072
O O6 0.000000 0.249626 0.132136
O O7 0.373478 0.137002 0.292743
O O8 0.625384 0.365567 0.099792
O O9 0.811668 0.598660 0.500000
O O10 0.836940 0.500000 0.418785
O O11 0.759501 0.629897 0.393336
O O12 0.000000 0.607624 0.424407
O O13 0.250000 0.250000 0.336571
O O14 0.750000 0.250000 0.065190
O O15 0.744780 0.365669 0.000000
#
# Coordination Sequence:
#
# PCOD8266295 Si02
#       7
#     8   8   8   8  16  16  16
#     4   9  18  27  40  63  91 118 150 193 242 282
#     4   9  15  22  33  48  72 103 144 193 236 266
#     4   9  16  27  42  61  85 120 158 195 234 282
#     4   9  15  24  33  46  72 109 146 183 226 276
#     4   9  18  34  55  75  95 124 162 196 229 280
#     4  10  18  30  48  71  97 123 158 199 235 277
#     4   9  15  21  30  45  67 101 148 194 227 263
#
# _framework density 17.900929000000001
#
# number of rings (size 3 to 8) (size 9 to 14) (size 15 to 20)
#    0.000    2.800    1.000    2.400    0.000    7.600 
#    0.000    1.000    0.000    1.200    0.000    0.000 
#    0.000    0.000    0.000    0.000    0.000   70.000 
#
# Total GULP energy -495962.640771 kJ/mol
# GULP energy per Si atom -12399.066019 kJ/mol
# Density = 1.786019 g / cm^3
# Si number density = 17.900929 Si / 1000 Ang^3
#
#
#
# Elastic Constant Matrix: (Units=GPa)
#
#
# Indices 1 2 3 4 5 6 
#
# 1 168.0384 18.5888 91.4639 0.0000 0.0000 0.0000
# 2 18.5888 13.7182 27.8431 0.0000 0.0000 0.0000
# 3 91.4639 27.8431 173.4259 0.0000 0.0000 0.0000
# 4 0.0000 0.0000 0.0000 0.9571 0.0000 0.0000
# 5 0.0000 0.0000 0.0000 0.0000 40.5613 0.0000
# 6 0.0000 0.0000 0.0000 0.0000 0.0000 8.6660
#
#
#
# Elastic Compliance Matrix: (Units=1/GPa)
#
#
# Indices 1 2 3 4 5 6 
#
# 1 0.008464 -0.003573 -0.003890 0.000000 0.000000 0.000000
# 2 -0.003573 0.109640 -0.015718 0.000000 0.000000 0.000000
# 3 -0.003890 -0.015718 0.010341 0.000000 0.000000 0.000000
# 4 0.000000 0.000000 0.000000 1.044780 0.000000 0.000000
# 5 0.000000 0.000000 0.000000 0.000000 0.024654 0.000000
# 6 0.000000 0.000000 0.000000 0.000000 0.000000 0.115394
#
#
# Mechanical properties :
#
#
# Convention : Reuss Voigt Hill
#
# Bulk Modulus (GPa) = 12.18289 70.10824 41.14557
# Shear Modulus (GPa) = 3.60491 24.52265 14.06378
#
# Velocity S-wave (km/s) = 1.42063 3.70524 2.80598
# Velocity P-wave (km/s) = 3.08406 7.58648 5.79077
#
# Compressibility (1/GPa) = 0.08208230
#
# Stress axis : x y z
#
# Youngs Moduli (GPa) = 118.15237 9.12077 96.70090
#
# Poissons Ratio (x) = 0.03259 0.37617
# Poissons Ratio (y) = 0.42220 1.51993
# Poissons Ratio (z) = 0.45961 0.14336
#
# Static dielectric constant tensor:
#      x y z
#    x 3.445830 0.000000 0.000000 
#    y 0.000000 2.543810 0.000000 
#    z 0.000000 0.000000 3.496190 
# 
# 
# High freq. dielectric constant tensor:
#      x y z
#    x 1.699800 0.000000 0.000000 
#    y 0.000000 1.611940 0.000000 
#    z 0.000000 0.000000 1.711290 
# 
# From -- ./inp_files/61426.got.cif
#   From: 2010.03.12/outbox.cif.g09.slc.cpg/sg65_31_cif.got.tgz:61426.got - 2010.04.10 20:52:16.
