data_PCOD8266384
_publ_section_title
;
Structure prediction by ZEFSAII (Michael W. Deem and Ramdas Pophale) SiO2 
 PCOD8266384
Probable space group: C M M M
;
_chemical_formula_sum "Si O2"
_cell_formula_units_Z 104
_cell_length_a 8.656505
_cell_length_b 18.366153
_cell_length_c 33.812832
_cell_angle_alpha 90.000000
_cell_angle_beta 90.000000
_cell_angle_gamma 90.000000
_cell_volume 5375.790418
_symmetry_space_group_name_H-M "C M M M"
_symmetry_group_IT_number 65
_symmetry_cell_setting 'orthorhombic'
loop_
_space_group_symop_operation_xyz
x,y,z
-x,-y,z
x,-y,-z
-x,y,-z
-x,-y,-z
x,y,-z
-x,y,z
x,-y,z
1/2+x,1/2+y,z
1/2-x,1/2-y,z
1/2+x,1/2-y,-z
1/2-x,1/2+y,-z
1/2-x,1/2-y,-z
1/2+x,1/2+y,-z
1/2-x,1/2+y,z
1/2+x,1/2-y,z
loop_
_atom_site_type_symbol
_atom_site_label
_atom_site_fract_x
_atom_site_fract_y
_atom_site_fract_z
Si Si1 0.324719 0.914433 0.544583
Si Si2 0.816988 0.330812 0.691700
Si Si3 0.820350 0.171249 0.612767
Si Si4 0.683737 0.582207 0.000000
Si Si5 0.816765 0.169691 0.228219
Si Si6 0.683602 0.581864 0.152067
Si Si7 0.183545 0.830360 0.076268
O O1 0.286000 0.888937 0.500000
O O2 0.500000 0.892056 0.555447
O O3 0.205827 0.877127 0.574196
O O4 0.303217 0.000000 0.548180
O O5 0.750000 0.250000 0.689967
O O6 0.759191 0.368259 0.650985
O O7 0.747848 0.367376 0.731400
O O8 0.000000 0.331411 0.694059
O O9 0.750000 0.250000 0.604469
O O10 0.000000 0.179420 0.621547
O O11 0.744504 0.624657 0.038531
O O12 0.750323 0.500000 0.000000
O O13 0.500000 0.579283 0.000000
O O14 0.750000 0.250000 0.221843
O O15 0.759027 0.119485 0.192338
O O16 0.000000 0.174824 0.230431
O O17 0.500000 0.579299 0.150754
O O18 0.750901 0.500000 0.149931
O O19 0.746404 0.628385 0.115123
O O20 0.250000 0.750000 0.074901
O O21 0.000000 0.825602 0.076434
#
# Coordination Sequence:
#
# PCOD8266384 Si02
#       7
#    16  16  16   8  16  16  16
#     4   9  19  37  58  78 104 139 176 215 262 314
#     4  10  18  31  51  74 102 133 167 208 254 305
#     4  11  21  34  54  80 109 139 175 218 262 309
#     4   9  17  30  51  77 102 133 174 214 250 295
#     4  10  18  30  50  73  97 126 162 204 248 299
#     4   9  18  32  50  72  98 130 168 209 251 295
#     4  10  19  32  52  76 102 132 169 212 254 300
#
# _framework density 19.345993
#
# number of rings (size 3 to 8) (size 9 to 14) (size 15 to 20)
#    0.000    2.231    0.000    6.692    0.000    2.769 
#    0.000    2.308    0.000    8.769    0.000    0.000 
#    0.000    0.000    0.000    0.000    0.000    0.000 
#
# Total GULP energy -644719.616742 kJ/mol
# GULP energy per Si atom -12398.454168 kJ/mol
# Density = 1.930196 g / cm^3
# Si number density = 19.345993 Si / 1000 Ang^3
#
#
#
# Elastic Constant Matrix: (Units=GPa)
#
#
# Indices 1 2 3 4 5 6 
#
# 1 83.3965 24.1775 43.4515 0.0000 0.0000 0.0000
# 2 24.1775 105.4725 73.3441 0.0000 0.0000 0.0000
# 3 43.4515 73.3441 186.6489 0.0000 0.0000 0.0000
# 4 0.0000 0.0000 0.0000 16.0602 0.0000 0.0000
# 5 0.0000 0.0000 0.0000 0.0000 21.1640 0.0000
# 6 0.0000 0.0000 0.0000 0.0000 0.0000 22.1963
#
#
#
# Elastic Compliance Matrix: (Units=1/GPa)
#
#
# Indices 1 2 3 4 5 6 
#
# 1 0.013770 -0.001276 -0.002704 0.000000 0.000000 0.000000
# 2 -0.001276 0.013164 -0.004876 0.000000 0.000000 0.000000
# 3 -0.002704 -0.004876 0.007903 0.000000 0.000000 0.000000
# 4 0.000000 0.000000 0.000000 0.062266 0.000000 0.000000
# 5 0.000000 0.000000 0.000000 0.000000 0.047250 0.000000
# 6 0.000000 0.000000 0.000000 0.000000 0.000000 0.045053
#
#
# Mechanical properties :
#
#
# Convention : Reuss Voigt Hill
#
# Bulk Modulus (GPa) = 58.39382 73.05154 65.72268
# Shear Modulus (GPa) = 23.49338 27.52043 25.50690
#
# Velocity S-wave (km/s) = 3.48858 3.77575 3.63500
# Velocity P-wave (km/s) = 6.81736 7.53995 7.18774
#
# Compressibility (1/GPa) = 0.01712510
#
# Stress axis : x y z
#
# Youngs Moduli (GPa) = 72.62289 75.96327 126.53164
#
# Poissons Ratio (x) = 0.09693 0.34216
# Poissons Ratio (y) = 0.09267 0.61695
# Poissons Ratio (z) = 0.19638 0.37039
#
# Static dielectric constant tensor:
#      x y z
#    x 3.327530 0.000000 0.000000 
#    y 0.000000 3.347940 0.000000 
#    z 0.000000 0.000000 4.218130 
# 
# 
# High freq. dielectric constant tensor:
#      x y z
#    x 1.733160 0.000000 0.000000 
#    y 0.000000 1.729540 0.000000 
#    z 0.000000 0.000000 1.779080 
# 
# From -- ./inp_files/76911.got.cif
#   From: 2010.03.12/outbox.cif.g09.slc.cpg/sg65_39_cif.got.tgz:76911.got - 2010.04.10 20:52:16.
