data_PCOD8266335
_publ_section_title
;
Structure prediction by ZEFSAII (Michael W. Deem and Ramdas Pophale) SiO2 
 PCOD8266335
Probable space group: C M M M
;
_chemical_formula_sum "Si O2"
_cell_formula_units_Z 72
_cell_length_a 8.741013
_cell_length_b 19.710255
_cell_length_c 23.123821
_cell_angle_alpha 90.000000
_cell_angle_beta 90.000000
_cell_angle_gamma 90.000000
_cell_volume 3983.947512
_symmetry_space_group_name_H-M "C M M M"
_symmetry_group_IT_number 65
_symmetry_cell_setting 'orthorhombic'
loop_
_space_group_symop_operation_xyz
x,y,z
-x,-y,z
x,-y,-z
-x,y,-z
-x,-y,-z
x,y,-z
-x,y,z
x,-y,z
1/2+x,1/2+y,z
1/2-x,1/2-y,z
1/2+x,1/2-y,-z
1/2-x,1/2+y,-z
1/2-x,1/2-y,-z
1/2+x,1/2+y,-z
1/2-x,1/2+y,z
1/2+x,1/2-y,z
loop_
_atom_site_type_symbol
_atom_site_label
_atom_site_fract_x
_atom_site_fract_y
_atom_site_fract_z
Si Si1 0.681008 0.821025 0.934892
Si Si2 0.182513 0.324936 0.500000
Si Si3 0.681104 0.923608 0.838907
Si Si4 0.681947 0.324445 0.383174
Si Si5 0.680024 0.577067 0.719401
O O1 0.500000 0.815664 0.931714
O O2 0.750000 0.750000 0.914432
O O3 0.744132 0.878416 0.891672
O O4 0.734969 0.839180 0.000000
O O5 0.250000 0.250000 0.500000
O O6 0.247864 0.358769 0.558576
O O7 0.000000 0.325433 0.500000
O O8 0.500000 0.920725 0.836232
O O9 0.745144 0.895579 0.778399
O O10 0.740168 0.000000 0.849582
O O11 0.500000 0.319026 0.389074
O O12 0.750000 0.250000 0.371371
O O13 0.734358 0.373833 0.331801
O O14 0.500000 0.580202 0.727079
O O15 0.734163 0.500000 0.705984
#
# Coordination Sequence:
#
# PCOD8266335 Si02
#       5
#    16   8  16  16  16
#     4   9  18  32  49  70  97 127 158 194 237 284
#     4  10  18  30  49  72  99 127 157 195 237 280
#     4   9  18  32  50  71  94 123 159 198 239 281
#     4  10  19  32  51  73  97 125 159 197 236 281
#     4   9  19  35  52  70  95 128 162 196 236 281
#
# _framework density 18.072527000000001
#
# number of rings (size 3 to 8) (size 9 to 14) (size 15 to 20)
#    0.000    2.667    0.000    3.000    0.000    4.000 
#    0.000    7.222    0.000    3.333    0.000    6.222 
#    0.000    0.000    0.000    0.000    0.000    0.000 
#
# Total GULP energy -446324.028207 kJ/mol
# GULP energy per Si atom -12397.889672 kJ/mol
# Density = 1.803139 g / cm^3
# Si number density = 18.072527 Si / 1000 Ang^3
#
#
#
# Elastic Constant Matrix: (Units=GPa)
#
#
# Indices 1 2 3 4 5 6 
#
# 1 47.3140 27.6716 41.4853 0.0000 0.0000 0.0000
# 2 27.6716 94.8353 95.8729 0.0000 0.0000 0.0000
# 3 41.4853 95.8729 180.4205 0.0000 0.0000 0.0000
# 4 0.0000 0.0000 0.0000 31.6652 0.0000 0.0000
# 5 0.0000 0.0000 0.0000 0.0000 31.1480 0.0000
# 6 0.0000 0.0000 0.0000 0.0000 0.0000 23.6739
#
#
#
# Elastic Compliance Matrix: (Units=1/GPa)
#
#
# Indices 1 2 3 4 5 6 
#
# 1 0.026988 -0.003460 -0.004367 0.000000 0.000000 0.000000
# 2 -0.003460 0.023228 -0.011547 0.000000 0.000000 0.000000
# 3 -0.004367 -0.011547 0.012683 0.000000 0.000000 0.000000
# 4 0.000000 0.000000 0.000000 0.031580 0.000000 0.000000
# 5 0.000000 0.000000 0.000000 0.000000 0.032105 0.000000
# 6 0.000000 0.000000 0.000000 0.000000 0.000000 0.042241
#
#
# Mechanical properties :
#
#
# Convention : Reuss Voigt Hill
#
# Bulk Modulus (GPa) = 41.40784 72.51437 56.96110
# Shear Modulus (GPa) = 23.18861 27.80009 25.49435
#
# Velocity S-wave (km/s) = 3.58591 3.92631 3.75996
# Velocity P-wave (km/s) = 6.33299 7.79524 7.10185
#
# Compressibility (1/GPa) = 0.02415002
#
# Stress axis : x y z
#
# Youngs Moduli (GPa) = 37.05364 43.05164 78.84674
#
# Poissons Ratio (x) = 0.14896 0.34432
# Poissons Ratio (y) = 0.12821 0.91047
# Poissons Ratio (z) = 0.16181 0.49713
#
# Static dielectric constant tensor:
#      x y z
#    x 3.235620 0.000000 0.000000 
#    y 0.000000 3.397930 0.000000 
#    z 0.000000 0.000000 3.844800 
# 
# 
# High freq. dielectric constant tensor:
#      x y z
#    x 1.696220 0.000000 0.000000 
#    y 0.000000 1.681300 0.000000 
#    z 0.000000 0.000000 1.714390 
# 
# From -- ./inp_files/56462.got.cif
#   From: 2010.03.12/outbox.cif.g09.slc.cpg/sg65_29_cif.got.tgz:56462.got - 2010.04.10 20:52:16.
