data_PCOD8266172
_publ_section_title
;
Structure prediction by ZEFSAII (Michael W. Deem and Ramdas Pophale) SiO2 
 PCOD8266172
Probable space group: C M M M
;
_chemical_formula_sum "Si O2"
_cell_formula_units_Z 128
_cell_length_a 21.557912
_cell_length_b 27.103171
_cell_length_c 13.871450
_cell_angle_alpha 90.000000
_cell_angle_beta 90.000000
_cell_angle_gamma 90.000000
_cell_volume 8104.918661
_symmetry_space_group_name_H-M "C M M M"
_symmetry_group_IT_number 65
_symmetry_cell_setting 'orthorhombic'
loop_
_space_group_symop_operation_xyz
x,y,z
-x,-y,z
x,-y,-z
-x,y,-z
-x,-y,-z
x,y,-z
-x,y,z
x,-y,z
1/2+x,1/2+y,z
1/2-x,1/2-y,z
1/2+x,1/2-y,-z
1/2-x,1/2+y,-z
1/2-x,1/2-y,-z
1/2+x,1/2+y,-z
1/2-x,1/2+y,z
1/2+x,1/2-y,z
loop_
_atom_site_type_symbol
_atom_site_label
_atom_site_fract_x
_atom_site_fract_y
_atom_site_fract_z
Si Si1 0.069101 0.615336 0.390176
Si Si2 0.310665 0.057076 0.387723
Si Si3 0.186871 0.219736 0.607133
Si Si4 0.750046 0.641936 0.271074
Si Si5 0.568761 0.554374 0.885827
Si Si6 0.928632 0.764061 0.888934
Si Si7 0.624388 0.799070 0.272754
Si Si8 0.653762 0.640833 0.887017
O O1 0.077977 0.632931 0.500000
O O2 0.118060 0.572188 0.366427
O O3 0.078436 0.663398 0.325155
O O4 0.000000 0.594140 0.372199
O O5 0.294288 0.066652 0.500000
O O6 0.266014 0.089499 0.319892
O O7 0.301988 0.000000 0.360166
O O8 0.162372 0.208180 0.500000
O O9 0.250000 0.250000 0.602072
O O10 0.199920 0.168310 0.660311
O O11 0.134022 0.250659 0.661786
O O12 0.810364 0.674843 0.253418
O O13 0.719668 0.637325 0.165947
O O14 0.500000 0.562518 0.842767
O O15 0.593458 0.500000 0.857165
O O16 0.614267 0.595442 0.844034
O O17 0.565130 0.560032 0.000000
O O18 0.907233 0.716945 0.827192
O O19 0.883975 0.809627 0.863834
O O20 0.000000 0.778511 0.866050
O O21 0.921468 0.748740 0.000000
O O22 0.667435 0.635728 0.000000
#
# Coordination Sequence:
#
# PCOD8266172 Si02
#       8
#    16  16  16  16  16  16  16  16
#     4   9  17  29  47  71  96 121 151 190 235 279
#     4   9  18  32  49  69  94 122 152 190 233 279
#     4   9  16  27  44  64  86 115 149 182 219 265
#     4  10  19  30  45  67  92 121 153 186 225 272
#     4   8  14  26  44  63  82 106 139 181 226 268
#     4  10  20  32  46  64  89 123 159 195 234 275
#     4  10  18  30  45  65  92 122 154 187 226 269
#     4  10  19  30  44  65  92 121 152 187 230 277
#
# _framework density 15.792878999999999
#
# number of rings (size 3 to 8) (size 9 to 14) (size 15 to 20)
#    0.000    2.625    1.250    1.875    0.000    5.750 
#    0.000    2.500    0.000    0.000    0.000    0.000 
#    0.000    0.000    0.000   19.250    0.000    0.750 
#
# Total GULP energy -793426.056839 kJ/mol
# GULP energy per Si atom -12397.282138 kJ/mol
# Density = 1.575693 g / cm^3
# Si number density = 15.792879 Si / 1000 Ang^3
#
#
#
# Elastic Constant Matrix: (Units=GPa)
#
#
# Indices 1 2 3 4 5 6 
#
# 1 65.2531 34.0744 37.6477 0.0000 0.0000 0.0000
# 2 34.0744 97.1041 42.7760 0.0000 0.0000 0.0000
# 3 37.6477 42.7760 72.5384 0.0000 0.0000 0.0000
# 4 0.0000 0.0000 0.0000 19.7276 0.0000 0.0000
# 5 0.0000 0.0000 0.0000 0.0000 21.8918 0.0000
# 6 0.0000 0.0000 0.0000 0.0000 0.0000 17.1494
#
#
#
# Elastic Compliance Matrix: (Units=1/GPa)
#
#
# Indices 1 2 3 4 5 6 
#
# 1 0.022856 -0.003775 -0.009636 0.000000 0.000000 0.000000
# 2 -0.003775 0.014536 -0.006612 0.000000 0.000000 0.000000
# 3 -0.009636 -0.006612 0.022686 0.000000 0.000000 0.000000
# 4 0.000000 0.000000 0.000000 0.050690 0.000000 0.000000
# 5 0.000000 0.000000 0.000000 0.000000 0.045679 0.000000
# 6 0.000000 0.000000 0.000000 0.000000 0.000000 0.058311
#
#
# Mechanical properties :
#
#
# Convention : Reuss Voigt Hill
#
# Bulk Modulus (GPa) = 49.92380 51.54352 50.73366
# Shear Modulus (GPa) = 19.12172 19.78027 19.45099
#
# Velocity S-wave (km/s) = 3.48340 3.54288 3.51327
# Velocity P-wave (km/s) = 6.91802 7.03164 6.97506
#
# Compressibility (1/GPa) = 0.02003053
#
# Stress axis : x y z
#
# Youngs Moduli (GPa) = 43.75242 68.79508 44.07973
#
# Poissons Ratio (x) = 0.25974 0.42475
# Poissons Ratio (y) = 0.16519 0.29147
# Poissons Ratio (z) = 0.42159 0.45490
#
# Static dielectric constant tensor:
#      x y z
#    x 2.972560 0.000000 0.000000 
#    y 0.000000 3.004250 0.000000 
#    z 0.000000 0.000000 2.876020 
# 
# 
# High freq. dielectric constant tensor:
#      x y z
#    x 1.598810 0.000000 0.000000 
#    y 0.000000 1.601960 0.000000 
#    z 0.000000 0.000000 1.588740 
# 
# From -- ./inp_files/31472.got.cif
#   From: 2010.03.12/outbox.cif.g09.slc.cpg/sg65_16_cif.got.tgz:31472.got - 2010.04.10 20:52:16.
