data_PCOD8266370
_publ_section_title
;
Structure prediction by ZEFSAII (Michael W. Deem and Ramdas Pophale) SiO2 
 PCOD8266370
Probable space group: C M M M
;
_chemical_formula_sum "Si O2"
_cell_formula_units_Z 112
_cell_length_a 15.045795
_cell_length_b 17.526476
_cell_length_c 23.450013
_cell_angle_alpha 90.000000
_cell_angle_beta 90.000000
_cell_angle_gamma 90.000000
_cell_volume 6183.762917
_symmetry_space_group_name_H-M "C M M M"
_symmetry_group_IT_number 65
_symmetry_cell_setting 'orthorhombic'
loop_
_space_group_symop_operation_xyz
x,y,z
-x,-y,z
x,-y,-z
-x,y,-z
-x,-y,-z
x,y,-z
-x,y,z
x,-y,z
1/2+x,1/2+y,z
1/2-x,1/2-y,z
1/2+x,1/2-y,-z
1/2-x,1/2+y,-z
1/2-x,1/2-y,-z
1/2+x,1/2+y,-z
1/2-x,1/2+y,z
1/2+x,1/2-y,z
loop_
_atom_site_type_symbol
_atom_site_label
_atom_site_fract_x
_atom_site_fract_y
_atom_site_fract_z
Si Si1 0.276566 0.085630 0.434575
Si Si2 0.098736 0.817402 0.846268
Si Si3 0.156511 0.712542 0.355326
Si Si4 0.600733 0.821200 0.768529
Si Si5 0.341902 0.207050 0.062981
Si Si6 0.723347 0.909321 0.849435
Si Si7 0.596675 0.340214 0.564014
O O1 0.299992 0.103439 0.500000
O O2 0.334420 0.139409 0.395215
O O3 0.171583 0.097317 0.422932
O O4 0.301170 0.000000 0.417973
O O5 0.123381 0.762234 0.793704
O O6 0.094179 0.764290 0.902701
O O7 0.173397 0.882985 0.848139
O O8 0.000000 0.854175 0.839006
O O9 0.250000 0.750000 0.338528
O O10 0.106715 0.684644 0.299202
O O11 0.098406 0.772397 0.390414
O O12 0.500000 0.845364 0.785245
O O13 0.670970 0.883140 0.792497
O O14 0.250000 0.250000 0.057136
O O15 0.327505 0.127503 0.096484
O O16 0.381392 0.189569 0.000000
O O17 0.721038 0.000000 0.855005
O O18 0.611319 0.306735 0.500000
O O19 0.500000 0.379936 0.568830
#
# Coordination Sequence:
#
# PCOD8266370 Si02
#       7
#    16  16  16  16  16  16  16
#     4   9  18  31  46  67  96 127 155 186 233 292
#     4   9  18  33  53  76 101 131 168 207 247 294
#     4  10  18  30  50  72  93 120 158 202 245 288
#     4  10  20  35  54  72  93 126 168 210 249 292
#     4   8  15  30  51  73  99 134 172 203 233 275
#     4  10  20  33  50  75 107 136 163 203 251 296
#     4   9  17  29  47  71  95 119 152 195 238 282
#
# _framework density 18.111948000000002
#
# number of rings (size 3 to 8) (size 9 to 14) (size 15 to 20)
#    0.000    2.714    0.000    3.000    0.000    3.714 
#    0.000    1.429    0.000    1.286    0.000   17.000 
#    0.000    0.000    0.000    0.000    0.000    0.000 
#
# Total GULP energy -694129.764310 kJ/mol
# GULP energy per Si atom -12395.174363 kJ/mol
# Density = 1.807072 g / cm^3
# Si number density = 18.111948 Si / 1000 Ang^3
#
#
#
# Elastic Constant Matrix: (Units=GPa)
#
#
# Indices 1 2 3 4 5 6 
#
# 1 56.8614 13.5338 9.4877 0.0000 0.0000 0.0000
# 2 13.5338 89.3967 35.0233 0.0000 0.0000 0.0000
# 3 9.4877 35.0233 102.1568 0.0000 0.0000 0.0000
# 4 0.0000 0.0000 0.0000 34.5162 0.0000 0.0000
# 5 0.0000 0.0000 0.0000 0.0000 -8.3882 0.0000
# 6 0.0000 0.0000 0.0000 0.0000 0.0000 16.2970
#
#
#
# Elastic Compliance Matrix: (Units=1/GPa)
#
#
# Indices 1 2 3 4 5 6 
#
# 1 0.018310 -0.002432 -0.000867 0.000000 0.000000 0.000000
# 2 -0.002432 0.013245 -0.004315 0.000000 0.000000 0.000000
# 3 -0.000867 -0.004315 0.011349 0.000000 0.000000 0.000000
# 4 0.000000 0.000000 0.000000 0.028972 0.000000 0.000000
# 5 0.000000 0.000000 0.000000 0.000000 -0.119215 0.000000
# 6 0.000000 0.000000 0.000000 0.000000 0.000000 0.061361
#
#
# Mechanical properties :
#
#
# Convention : Reuss Voigt Hill
#
# Bulk Modulus (GPa) = 36.13279 40.50050 38.31665
# Shear Modulus (GPa) = 129.95416 21.17633 75.56525
#
# Velocity S-wave (km/s) = 8.47976 3.42305 6.46620
# Velocity P-wave (km/s) = 10.76420 6.16707 8.77214
#
# Compressibility (1/GPa) = 0.02767569
#
# Stress axis : x y z
#
# Youngs Moduli (GPa) = 54.61440 75.50119 88.11595
#
# Poissons Ratio (x) = 0.18366 0.07636
# Poissons Ratio (y) = 0.13285 0.38021
# Poissons Ratio (z) = 0.04733 0.32578
#
# Static dielectric constant tensor:
#      x y z
#    x 3.314990 0.000000 0.000000 
#    y 0.000000 3.035970 0.000000 
#    z 0.000000 0.000000 3.546930 
# 
# 
# High freq. dielectric constant tensor:
#      x y z
#    x 1.702910 0.000000 0.000000 
#    y 0.000000 1.670470 0.000000 
#    z 0.000000 0.000000 1.704010 
# 
# From -- ./inp_files/70067.got.cif
#   From: 2010.03.12/outbox.cif.g09.slc.cpg/sg65_36_cif.got.tgz:70067.got - 2010.04.10 20:52:16.
