data_PCOD8266620
_publ_section_title
;
Structure prediction by ZEFSAII (Michael W. Deem and Ramdas Pophale) SiO2 
 PCOD8266620
Probable space group: C M M M
;
_chemical_formula_sum "Si O2"
_cell_formula_units_Z 96
_cell_length_a 19.237428
_cell_length_b 14.180883
_cell_length_c 20.013596
_cell_angle_alpha 90.000000
_cell_angle_beta 90.000000
_cell_angle_gamma 90.000000
_cell_volume 5459.783353
_symmetry_space_group_name_H-M "C M M M"
_symmetry_group_IT_number 65
_symmetry_cell_setting 'orthorhombic'
loop_
_space_group_symop_operation_xyz
x,y,z
-x,-y,z
x,-y,-z
-x,y,-z
-x,-y,-z
x,y,-z
-x,y,z
x,-y,z
1/2+x,1/2+y,z
1/2-x,1/2-y,z
1/2+x,1/2-y,-z
1/2-x,1/2+y,-z
1/2-x,1/2-y,-z
1/2+x,1/2+y,-z
1/2-x,1/2+y,z
1/2+x,1/2-y,z
loop_
_atom_site_type_symbol
_atom_site_label
_atom_site_fract_x
_atom_site_fract_y
_atom_site_fract_z
Si Si1 0.681064 0.111430 0.924733
Si Si2 0.178638 0.895078 0.138915
Si Si3 0.777923 0.105035 0.290450
Si Si4 0.581468 0.895959 0.426444
Si Si5 0.081346 0.270018 0.163872
Si Si6 0.640096 0.216626 0.691074
O O1 0.759231 0.146784 0.906888
O O2 0.622144 0.148634 0.874992
O O3 0.680441 0.000000 0.916599
O O4 0.663481 0.143455 0.000000
O O5 0.209629 0.896831 0.212308
O O6 0.110968 0.829194 0.136220
O O7 0.155880 0.000000 0.115961
O O8 0.700087 0.140132 0.299754
O O9 0.831157 0.178392 0.324465
O O10 0.787791 0.000000 0.321309
O O11 0.612287 0.870007 0.500000
O O12 0.500000 0.902020 0.432310
O O13 0.598162 0.814500 0.373779
O O14 0.609773 0.000000 0.404645
O O15 0.091875 0.281722 0.243283
O O16 0.000000 0.275756 0.147215
#
# Coordination Sequence:
#
# PCOD8266620 Si02
#       6
#    16  16  16  16  16  16
#     4  10  21  37  56  75  98 134 176 213 253 306
#     4   9  18  35  55  73  98 134 176 214 248 297
#     4   9  17  30  50  75 101 130 168 211 252 297
#     4   9  18  32  50  73 101 134 170 207 252 306
#     4  11  22  33  50  80 109 133 166 210 263 312
#     4  10  18  31  52  75 101 134 168 208 256 304
#
# _framework density 17.583116
#
# number of rings (size 3 to 8) (size 9 to 14) (size 15 to 20)
#    0.000    2.333    1.667    2.000    0.000    3.000 
#    0.000    2.500    0.000    3.000    0.000    4.667 
#    0.000    0.000    0.000    0.000    0.000    0.000 
#
# Total GULP energy -594964.670843 kJ/mol
# GULP energy per Si atom -12395.097309 kJ/mol
# Density = 1.754310 g / cm^3
# Si number density = 17.583116 Si / 1000 Ang^3
#
#
#
# Elastic Constant Matrix: (Units=GPa)
#
#
# Indices 1 2 3 4 5 6 
#
# 1 84.4714 33.8748 41.5858 0.0000 0.0000 0.0000
# 2 33.8748 102.4091 38.4840 0.0000 0.0000 0.0000
# 3 41.5858 38.4840 43.1708 0.0000 0.0000 0.0000
# 4 0.0000 0.0000 0.0000 6.1211 0.0000 0.0000
# 5 0.0000 0.0000 0.0000 0.0000 18.5733 0.0000
# 6 0.0000 0.0000 0.0000 0.0000 0.0000 21.9755
#
#
#
# Elastic Compliance Matrix: (Units=1/GPa)
#
#
# Indices 1 2 3 4 5 6 
#
# 1 0.022592 0.001060 -0.022708 0.000000 0.000000 0.000000
# 2 0.001060 0.014733 -0.014155 0.000000 0.000000 0.000000
# 3 -0.022708 -0.014155 0.057657 0.000000 0.000000 0.000000
# 4 0.000000 0.000000 0.000000 0.163370 0.000000 0.000000
# 5 0.000000 0.000000 0.000000 0.000000 0.053841 0.000000
# 6 0.000000 0.000000 0.000000 0.000000 0.000000 0.045505
#
#
# Mechanical properties :
#
#
# Convention : Reuss Voigt Hill
#
# Bulk Modulus (GPa) = 42.77825 50.88228 46.83026
# Shear Modulus (GPa) = 11.43911 17.07443 14.25677
#
# Velocity S-wave (km/s) = 2.55340 3.11958 2.85058
# Velocity P-wave (km/s) = 5.75110 6.47894 6.12584
#
# Compressibility (1/GPa) = 0.02337637
#
# Stress axis : x y z
#
# Youngs Moduli (GPa) = 44.26252 67.87300 17.34402
#
# Poissons Ratio (x) = -0.07197 0.39385
# Poissons Ratio (y) = -0.04693 0.24551
# Poissons Ratio (z) = 1.00512 0.96076
#
# Static dielectric constant tensor:
#      x y z
#    x 3.045380 0.000000 0.000000 
#    y 0.000000 3.879950 0.000000 
#    z 0.000000 0.000000 3.609180 
# 
# 
# High freq. dielectric constant tensor:
#      x y z
#    x 1.660910 0.000000 0.000000 
#    y 0.000000 1.687810 0.000000 
#    z 0.000000 0.000000 1.666590 
# 
# From -- ./inp_files/64638.got.cif
#   From: 2010.03.12/outbox.cif.g09.slc.cpg/sg65_33_cif.got.tgz:64638.got - 2010.04.10 20:52:16.
