data_PCOD8266667
_publ_section_title
;
Structure prediction by ZEFSAII (Michael W. Deem and Ramdas Pophale) SiO2 
 PCOD8266667
Probable space group: C M M M
;
_chemical_formula_sum "Si O2"
_cell_formula_units_Z 120
_cell_length_a 27.213622
_cell_length_b 8.998213
_cell_length_c 25.976562
_cell_angle_alpha 90.000000
_cell_angle_beta 90.000000
_cell_angle_gamma 90.000000
_cell_volume 6360.983793
_symmetry_space_group_name_H-M "C M M M"
_symmetry_group_IT_number 65
_symmetry_cell_setting 'orthorhombic'
loop_
_space_group_symop_operation_xyz
x,y,z
-x,-y,z
x,-y,-z
-x,y,-z
-x,-y,-z
x,y,-z
-x,y,z
x,-y,z
1/2+x,1/2+y,z
1/2-x,1/2-y,z
1/2+x,1/2-y,-z
1/2-x,1/2+y,-z
1/2-x,1/2-y,-z
1/2+x,1/2+y,-z
1/2-x,1/2+y,z
1/2+x,1/2-y,z
loop_
_atom_site_type_symbol
_atom_site_label
_atom_site_fract_x
_atom_site_fract_y
_atom_site_fract_z
Si Si1 0.300363 0.674144 0.754551
Si Si2 0.301642 0.826479 0.943868
Si Si3 0.500000 0.825611 0.559750
Si Si4 0.642968 0.826452 0.844247
Si Si5 0.944595 0.832876 0.816846
Si Si6 0.445530 0.836818 0.715737
Si Si7 0.898871 0.328970 0.610322
Si Si8 0.801920 0.175115 0.634956
O O1 0.296023 0.500000 0.764451
O O2 0.250000 0.750000 0.771784
O O3 0.341135 0.742441 0.792142
O O4 0.312232 0.709989 0.695102
O O5 0.250000 0.750000 0.940745
O O6 0.332869 0.763887 0.896344
O O7 0.293441 0.000000 0.936889
O O8 0.326280 0.792628 0.000000
O O9 0.500000 0.786175 0.500000
O O10 0.448048 0.761251 0.582553
O O11 0.500000 0.000000 0.571540
O O12 0.586012 0.783172 0.851114
O O13 0.651534 0.000000 0.837116
O O14 0.939513 0.792929 0.756762
O O15 0.000000 0.818007 0.836114
O O16 0.924870 0.000000 0.823614
O O17 0.500000 0.830362 0.690752
O O18 0.406319 0.814636 0.671170
O O19 0.437602 0.000000 0.741793
O O20 0.891073 0.500000 0.592889
O O21 0.847653 0.239476 0.600670
O O22 0.750000 0.250000 0.618279
O O23 0.797777 0.000000 0.624606
#
# Coordination Sequence:
#
# PCOD8266667 Si02
#       8
#    16  16   8  16  16  16  16  16
#     4  10  20  33  49  72 106 140 173 208 248 298
#     4   9  19  35  53  74  98 122 153 196 245 297
#     4   9  18  34  57  85 113 141 175 215 264 317
#     4  11  21  32  50  73  97 130 168 205 251 301
#     4  10  21  34  47  67  98 133 168 207 249 295
#     4   9  16  28  47  72 102 135 172 208 246 297
#     4  10  18  31  53  79 107 139 176 217 259 306
#     4  10  21  35  51  74 105 143 181 216 257 306
#
# _framework density 18.865006999999999
#
# number of rings (size 3 to 8) (size 9 to 14) (size 15 to 20)
#    0.000    2.200    0.667    2.800    0.000    7.200 
#    0.000    0.333    0.000    1.600    0.000    2.800 
#    0.000    0.000    0.000    0.000    0.000    0.000 
#
# Total GULP energy -743572.326683 kJ/mol
# GULP energy per Si atom -12392.872111 kJ/mol
# Density = 1.882207 g / cm^3
# Si number density = 18.865007 Si / 1000 Ang^3
#
#
#
# Elastic Constant Matrix: (Units=GPa)
#
#
# Indices 1 2 3 4 5 6 
#
# 1 125.9771 47.7104 41.7982 0.0000 0.0000 0.0000
# 2 47.7104 64.6975 20.5291 0.0000 0.0000 0.0000
# 3 41.7982 20.5291 54.3131 0.0000 0.0000 0.0000
# 4 0.0000 0.0000 0.0000 13.6092 0.0000 0.0000
# 5 0.0000 0.0000 0.0000 0.0000 22.0517 0.0000
# 6 0.0000 0.0000 0.0000 0.0000 0.0000 33.5647
#
#
#
# Elastic Compliance Matrix: (Units=1/GPa)
#
#
# Indices 1 2 3 4 5 6 
#
# 1 0.013171 -0.007382 -0.007346 0.000000 0.000000 0.000000
# 2 -0.007382 0.021700 -0.002521 0.000000 0.000000 0.000000
# 3 -0.007346 -0.002521 0.025018 0.000000 0.000000 0.000000
# 4 0.000000 0.000000 0.000000 0.073480 0.000000 0.000000
# 5 0.000000 0.000000 0.000000 0.000000 0.045348 0.000000
# 6 0.000000 0.000000 0.000000 0.000000 0.000000 0.029793
#
#
# Mechanical properties :
#
#
# Convention : Reuss Voigt Hill
#
# Bulk Modulus (GPa) = 39.38386 51.67366 45.52876
# Shear Modulus (GPa) = 19.88293 22.84178 21.36235
#
# Velocity S-wave (km/s) = 3.24999 3.48343 3.36874
# Velocity P-wave (km/s) = 5.91653 6.60529 6.27037
#
# Compressibility (1/GPa) = 0.02539111
#
# Stress axis : x y z
#
# Youngs Moduli (GPa) = 75.92480 46.08246 39.97118
#
# Poissons Ratio (x) = 0.34017 0.29362
# Poissons Ratio (y) = 0.56046 0.10078
# Poissons Ratio (z) = 0.55774 0.11619
#
# Static dielectric constant tensor:
#      x y z
#    x 3.703840 0.000000 0.000000 
#    y 0.000000 3.768020 0.000000 
#    z 0.000000 0.000000 3.303690 
# 
# 
# High freq. dielectric constant tensor:
#      x y z
#    x 1.743050 0.000000 0.000000 
#    y 0.000000 1.725970 0.000000 
#    z 0.000000 0.000000 1.695710 
# 
# From -- ./inp_files/76120.got.cif
#   From: 2010.03.12/outbox.cif.g09.slc.cpg/sg65_39_cif.got.tgz:76120.got - 2010.04.10 20:52:16.
