data_PCOD8266193
_publ_section_title
;
Structure prediction by ZEFSAII (Michael W. Deem and Ramdas Pophale) SiO2 
 PCOD8266193
Probable space group: C M M M
;
_chemical_formula_sum "Si O2"
_cell_formula_units_Z 96
_cell_length_a 27.075392
_cell_length_b 8.639266
_cell_length_c 24.062434
_cell_angle_alpha 90.000000
_cell_angle_beta 90.000000
_cell_angle_gamma 90.000000
_cell_volume 5628.480356
_symmetry_space_group_name_H-M "C M M M"
_symmetry_group_IT_number 65
_symmetry_cell_setting 'orthorhombic'
loop_
_space_group_symop_operation_xyz
x,y,z
-x,-y,z
x,-y,-z
-x,y,-z
-x,-y,-z
x,y,-z
-x,y,z
x,-y,z
1/2+x,1/2+y,z
1/2-x,1/2-y,z
1/2+x,1/2-y,-z
1/2-x,1/2+y,-z
1/2-x,1/2-y,-z
1/2+x,1/2+y,-z
1/2-x,1/2+y,z
1/2+x,1/2-y,z
loop_
_atom_site_type_symbol
_atom_site_label
_atom_site_fract_x
_atom_site_fract_y
_atom_site_fract_z
Si Si1 0.150803 0.682018 0.219701
Si Si2 0.304811 0.816251 0.000000
Si Si3 0.898543 0.818200 0.613082
Si Si4 0.556270 0.314965 0.500000
Si Si5 0.801466 0.815962 0.326287
Si Si6 0.695646 0.317418 0.887418
Si Si7 0.445129 0.821725 0.716429
O O1 0.158728 0.500000 0.210914
O O2 0.188731 0.741424 0.266203
O O3 0.160171 0.771688 0.162850
O O4 0.094779 0.725335 0.237044
O O5 0.250000 0.750000 0.000000
O O6 0.329599 0.752093 0.943487
O O7 0.305424 0.000000 0.000000
O O8 0.915283 0.747267 0.554010
O O9 0.843833 0.760581 0.630581
O O10 0.937839 0.773416 0.660070
O O11 0.898425 0.000000 0.607577
O O12 0.556597 0.500000 0.500000
O O13 0.500000 0.254089 0.500000
O O14 0.750000 0.750000 0.349537
O O15 0.799844 0.000000 0.320306
O O16 0.699912 0.500000 0.893088
O O17 0.750000 0.250000 0.876674
O O18 0.500000 0.787841 0.739915
O O19 0.437911 0.000000 0.700488
#
# Coordination Sequence:
#
# PCOD8266193 Si02
#       7
#    16   8  16   8  16  16  16
#     4  10  19  31  47  68  93 121 154 189 227 272
#     4  10  18  30  46  66  93 126 161 192 228 269
#     4   9  18  31  48  69  91 117 151 188 225 272
#     4   9  16  28  48  71  91 113 145 187 232 275
#     4  10  19  31  46  65  90 120 153 188 228 271
#     4  11  20  31  46  67  96 127 159 192 228 268
#     4   9  18  32  49  69  94 121 148 184 231 278
#
# _framework density 17.056113
#
# number of rings (size 3 to 8) (size 9 to 14) (size 15 to 20)
#    0.000    2.250    0.000    5.250    0.000    2.333 
#    0.000    0.833    0.000    1.500    0.000    0.583 
#    0.000    4.667    0.000    0.000    0.000    0.000 
#
# Total GULP energy -595138.177904 kJ/mol
# GULP energy per Si atom -12398.712040 kJ/mol
# Density = 1.701729 g / cm^3
# Si number density = 17.056113 Si / 1000 Ang^3
#
#
#
# Elastic Constant Matrix: (Units=GPa)
#
#
# Indices 1 2 3 4 5 6 
#
# 1 106.7526 25.6291 58.2139 0.0000 0.0000 0.0000
# 2 25.6291 74.0650 36.8809 0.0000 0.0000 0.0000
# 3 58.2139 36.8809 144.8799 0.0000 0.0000 0.0000
# 4 0.0000 0.0000 0.0000 21.0529 0.0000 0.0000
# 5 0.0000 0.0000 0.0000 0.0000 19.7815 0.0000
# 6 0.0000 0.0000 0.0000 0.0000 0.0000 18.9843
#
#
#
# Elastic Compliance Matrix: (Units=1/GPa)
#
#
# Indices 1 2 3 4 5 6 
#
# 1 0.012262 -0.002049 -0.004405 0.000000 0.000000 0.000000
# 2 -0.002049 0.015804 -0.003200 0.000000 0.000000 0.000000
# 3 -0.004405 -0.003200 0.009487 0.000000 0.000000 0.000000
# 4 0.000000 0.000000 0.000000 0.047499 0.000000 0.000000
# 5 0.000000 0.000000 0.000000 0.000000 0.050552 0.000000
# 6 0.000000 0.000000 0.000000 0.000000 0.000000 0.052675
#
#
# Mechanical properties :
#
#
# Convention : Reuss Voigt Hill
#
# Bulk Modulus (GPa) = 54.81205 63.01615 58.91410
# Shear Modulus (GPa) = 23.40067 25.62865 24.51466
#
# Velocity S-wave (km/s) = 3.70804 3.88055 3.79528
# Velocity P-wave (km/s) = 7.10907 7.55677 7.33634
#
# Compressibility (1/GPa) = 0.01824416
#
# Stress axis : x y z
#
# Youngs Moduli (GPa) = 81.55501 63.27471 105.40968
#
# Poissons Ratio (x) = 0.12968 0.46434
# Poissons Ratio (y) = 0.16714 0.33727
# Poissons Ratio (z) = 0.35926 0.20246
#
# Static dielectric constant tensor:
#      x y z
#    x 3.205760 0.000000 0.000000 
#    y 0.000000 3.164570 0.000000 
#    z 0.000000 0.000000 3.574000 
# 
# 
# High freq. dielectric constant tensor:
#      x y z
#    x 1.640150 0.000000 0.000000 
#    y 0.000000 1.660910 0.000000 
#    z 0.000000 0.000000 1.653730 
# 
# From -- ./inp_files/71702.got.cif
#   From: 2010.03.12/outbox.cif.g09.slc.cpg/sg65_36_cif.got.tgz:71702.got - 2010.04.10 20:52:16.
