data_PCOD8266222
_publ_section_title
;
Structure prediction by ZEFSAII (Michael W. Deem and Ramdas Pophale) SiO2 
 PCOD8266222
Probable space group: C M M M
;
_chemical_formula_sum "Si O2"
_cell_formula_units_Z 80
_cell_length_a 27.244512
_cell_length_b 8.726481
_cell_length_c 18.718092
_cell_angle_alpha 90.000000
_cell_angle_beta 90.000000
_cell_angle_gamma 90.000000
_cell_volume 4450.202345
_symmetry_space_group_name_H-M "C M M M"
_symmetry_group_IT_number 65
_symmetry_cell_setting 'orthorhombic'
loop_
_space_group_symop_operation_xyz
x,y,z
-x,-y,z
x,-y,-z
-x,y,-z
-x,-y,-z
x,y,-z
-x,y,z
x,-y,z
1/2+x,1/2+y,z
1/2-x,1/2-y,z
1/2+x,1/2-y,-z
1/2-x,1/2+y,-z
1/2-x,1/2-y,-z
1/2+x,1/2+y,-z
1/2-x,1/2+y,z
1/2+x,1/2-y,z
loop_
_atom_site_type_symbol
_atom_site_label
_atom_site_fract_x
_atom_site_fract_y
_atom_site_fract_z
Si Si1 0.944950 0.817999 0.500000
Si Si2 0.303965 0.816638 0.000000
Si Si3 0.605394 0.680758 0.355467
Si Si4 0.444772 0.821474 0.223534
Si Si5 0.698064 0.181331 0.288682
Si Si6 0.850619 0.319778 0.855649
O O1 0.916282 0.759533 0.430224
O O2 0.000000 0.749336 0.500000
O O3 0.947851 0.000000 0.500000
O O4 0.250000 0.750000 0.000000
O O5 0.332516 0.749843 0.069320
O O6 0.301787 0.000000 0.000000
O O7 0.613418 0.500000 0.355023
O O8 0.566720 0.725070 0.294109
O O9 0.657660 0.762053 0.344917
O O10 0.500000 0.786345 0.197533
O O11 0.407364 0.774144 0.159884
O O12 0.437308 0.000000 0.242605
O O13 0.750000 0.250000 0.311034
O O14 0.683104 0.241046 0.209495
O O15 0.700730 0.000000 0.291289
O O16 0.845049 0.500000 0.860659
#
# Coordination Sequence:
#
# PCOD8266222 Si02
#       6
#     8   8  16  16  16  16
#     4   9  18  32  50  73 100 125 152 193 240 283
#     4  10  18  30  47  67  93 123 156 194 239 286
#     4  10  19  32  51  74  98 125 159 196 237 285
#     4   9  17  31  49  69  96 128 160 197 239 280
#     4  10  19  33  51  72  98 127 161 199 239 281
#     4   8  16  29  46  69  96 124 156 195 235 280
#
# _framework density 17.976711000000002
#
# number of rings (size 3 to 8) (size 9 to 14) (size 15 to 20)
#    0.000    2.700    0.000    3.600    0.000    1.200 
#    0.000    7.000    0.000    6.600    0.000    0.000 
#    0.000    7.200    0.000    0.000    0.000    0.000 
#
# Total GULP energy -495912.199374 kJ/mol
# GULP energy per Si atom -12397.804984 kJ/mol
# Density = 1.793580 g / cm^3
# Si number density = 17.976711 Si / 1000 Ang^3
#
#
#
# Elastic Constant Matrix: (Units=GPa)
#
#
# Indices 1 2 3 4 5 6 
#
# 1 175.9365 31.8795 84.9748 0.0000 0.0000 0.0000
# 2 31.8795 43.4193 23.4369 0.0000 0.0000 0.0000
# 3 84.9748 23.4369 143.4800 0.0000 0.0000 0.0000
# 4 0.0000 0.0000 0.0000 18.0185 0.0000 0.0000
# 5 0.0000 0.0000 0.0000 0.0000 22.5071 0.0000
# 6 0.0000 0.0000 0.0000 0.0000 0.0000 27.1956
#
#
#
# Elastic Compliance Matrix: (Units=1/GPa)
#
#
# Indices 1 2 3 4 5 6 
#
# 1 0.008516 -0.003872 -0.004411 0.000000 0.000000 0.000000
# 2 -0.003872 0.027018 -0.002120 0.000000 0.000000 0.000000
# 3 -0.004411 -0.002120 0.009928 0.000000 0.000000 0.000000
# 4 0.000000 0.000000 0.000000 0.055499 0.000000 0.000000
# 5 0.000000 0.000000 0.000000 0.000000 0.044431 0.000000
# 6 0.000000 0.000000 0.000000 0.000000 0.000000 0.036771
#
#
# Mechanical properties :
#
#
# Convention : Reuss Voigt Hill
#
# Bulk Modulus (GPa) = 40.55715 71.49090 56.02402
# Shear Modulus (GPa) = 23.67565 28.38053 26.02809
#
# Velocity S-wave (km/s) = 3.63301 3.97765 3.80923
# Velocity P-wave (km/s) = 6.34100 7.80708 7.11192
#
# Compressibility (1/GPa) = 0.02465657
#
# Stress axis : x y z
#
# Youngs Moduli (GPa) = 117.42788 37.01177 100.72139
#
# Poissons Ratio (x) = 0.14329 0.44429
# Poissons Ratio (y) = 0.45463 0.21357
# Poissons Ratio (z) = 0.51798 0.07848
#
# Static dielectric constant tensor:
#      x y z
#    x 3.502610 0.000000 0.000000 
#    y 0.000000 3.062700 0.000000 
#    z 0.000000 0.000000 3.518330 
# 
# 
# High freq. dielectric constant tensor:
#      x y z
#    x 1.707170 0.000000 0.000000 
#    y 0.000000 1.673070 0.000000 
#    z 0.000000 0.000000 1.684180 
# 
# From -- ./inp_files/57308.got.cif
#   From: 2010.03.12/outbox.cif.g09.slc.cpg/sg65_29_cif.got.tgz:57308.got - 2010.04.10 20:52:16.
