data_PCOD8266190
_publ_section_title
;
Structure prediction by ZEFSAII (Michael W. Deem and Ramdas Pophale) SiO2 
 PCOD8266190
Probable space group: C M M M
;
_chemical_formula_sum "Si O2"
_cell_formula_units_Z 56
_cell_length_a 25.849474
_cell_length_b 9.732197
_cell_length_c 13.354225
_cell_angle_alpha 90.000000
_cell_angle_beta 90.000000
_cell_angle_gamma 90.000000
_cell_volume 3359.551406
_symmetry_space_group_name_H-M "C M M M"
_symmetry_group_IT_number 65
_symmetry_cell_setting 'orthorhombic'
loop_
_space_group_symop_operation_xyz
x,y,z
-x,-y,z
x,-y,-z
-x,y,-z
-x,-y,-z
x,y,-z
-x,y,z
x,-y,z
1/2+x,1/2+y,z
1/2-x,1/2-y,z
1/2+x,1/2-y,-z
1/2-x,1/2+y,-z
1/2-x,1/2-y,-z
1/2+x,1/2+y,-z
1/2-x,1/2+y,z
1/2+x,1/2-y,z
loop_
_atom_site_type_symbol
_atom_site_label
_atom_site_fract_x
_atom_site_fract_y
_atom_site_fract_z
Si Si1 0.559442 0.660919 0.613473
Si Si2 0.291561 0.000000 0.241446
Si Si3 0.791802 0.000000 0.616127
Si Si4 0.848934 0.779436 0.257249
Si Si5 0.685663 0.500000 0.882046
O O1 0.571283 0.711597 0.500000
O O2 0.500000 0.689981 0.640209
O O3 0.572469 0.500000 0.621017
O O4 0.593717 0.740134 0.696282
O O5 0.268705 0.000000 0.354304
O O6 0.326609 0.867243 0.227160
O O7 0.243642 0.000000 0.163678
O O8 0.816205 0.860260 0.659100
O O9 0.800181 0.000000 0.500000
O O10 0.846819 0.867362 0.154767
O O11 0.690050 0.500000 0.000000
#
# Coordination Sequence:
#
# PCOD8266190 Si02
#       5
#    16   8   8  16   8
#     4   9  16  29  52  76  97 129 170 206 239 279
#     4  10  22  32  45  71 102 133 158 195 251 297
#     4  10  18  30  46  65  94 133 169 197 230 283
#     4  10  19  33  49  71 100 127 162 204 245 291
#     4  10  20  36  56  74  93 124 169 210 243 294
#
# _framework density 16.668890999999999
#
# number of rings (size 3 to 8) (size 9 to 14) (size 15 to 20)
#    0.000    2.571    2.857    5.143    0.000    5.714 
#    0.000    0.714    0.000    3.429    0.000    0.000 
#    0.000    3.429    0.000    0.000    0.000    0.000 
#
# Total GULP energy -347025.254333 kJ/mol
# GULP energy per Si atom -12393.759083 kJ/mol
# Density = 1.663095 g / cm^3
# Si number density = 16.668891 Si / 1000 Ang^3
#
#
#
# Elastic Constant Matrix: (Units=GPa)
#
#
# Indices 1 2 3 4 5 6 
#
# 1 95.5307 34.1943 42.5684 0.0000 0.0000 0.0000
# 2 34.1943 97.2536 35.4545 0.0000 0.0000 0.0000
# 3 42.5684 35.4545 117.6080 0.0000 0.0000 0.0000
# 4 0.0000 0.0000 0.0000 5.7283 0.0000 0.0000
# 5 0.0000 0.0000 0.0000 0.0000 19.4656 0.0000
# 6 0.0000 0.0000 0.0000 0.0000 0.0000 8.4803
#
#
#
# Elastic Compliance Matrix: (Units=1/GPa)
#
#
# Indices 1 2 3 4 5 6 
#
# 1 0.013360 -0.003297 -0.003842 0.000000 0.000000 0.000000
# 2 -0.003297 0.012365 -0.002534 0.000000 0.000000 0.000000
# 3 -0.003842 -0.002534 0.010657 0.000000 0.000000 0.000000
# 4 0.000000 0.000000 0.000000 0.174572 0.000000 0.000000
# 5 0.000000 0.000000 0.000000 0.000000 0.051373 0.000000
# 6 0.000000 0.000000 0.000000 0.000000 0.000000 0.117921
#
#
# Mechanical properties :
#
#
# Convention : Reuss Voigt Hill
#
# Bulk Modulus (GPa) = 58.69677 59.42520 59.06098
# Shear Modulus (GPa) = 12.33736 19.94651 16.14194
#
# Velocity S-wave (km/s) = 2.72351 3.46299 3.11527
# Velocity P-wave (km/s) = 6.72159 7.19149 6.96051
#
# Compressibility (1/GPa) = 0.01703671
#
# Stress axis : x y z
#
# Youngs Moduli (GPa) = 74.85165 80.87022 93.83149
#
# Poissons Ratio (x) = 0.26661 0.36048
# Poissons Ratio (y) = 0.24677 0.23781
# Poissons Ratio (z) = 0.28756 0.20496
#
# Static dielectric constant tensor:
#      x y z
#    x 3.202190 0.000000 0.000000 
#    y 0.000000 2.916570 0.000000 
#    z 0.000000 0.000000 2.994590 
# 
# 
# High freq. dielectric constant tensor:
#      x y z
#    x 1.635580 0.000000 0.000000 
#    y 0.000000 1.623390 0.000000 
#    z 0.000000 0.000000 1.620380 
# 
# From -- ./inp_files/36271.got.cif
#   From: 2010.03.12/outbox.cif.g09.slc.cpg/sg65_19_cif.got.tgz:36271.got - 2010.04.10 20:52:16.
