data_PCOD8266595
_publ_section_title
;
Structure prediction by ZEFSAII (Michael W. Deem and Ramdas Pophale) SiO2 
 PCOD8266595
Probable space group: C M M M
;
_chemical_formula_sum "Si O2"
_cell_formula_units_Z 104
_cell_length_a 28.356632
_cell_length_b 9.243905
_cell_length_c 23.235192
_cell_angle_alpha 90.000000
_cell_angle_beta 90.000000
_cell_angle_gamma 90.000000
_cell_volume 6090.548225
_symmetry_space_group_name_H-M "C M M M"
_symmetry_group_IT_number 65
_symmetry_cell_setting 'orthorhombic'
loop_
_space_group_symop_operation_xyz
x,y,z
-x,-y,z
x,-y,-z
-x,y,-z
-x,-y,-z
x,y,-z
-x,y,z
x,-y,z
1/2+x,1/2+y,z
1/2-x,1/2-y,z
1/2+x,1/2-y,-z
1/2-x,1/2+y,-z
1/2-x,1/2-y,-z
1/2+x,1/2+y,-z
1/2-x,1/2+y,z
1/2+x,1/2-y,z
loop_
_atom_site_type_symbol
_atom_site_label
_atom_site_fract_x
_atom_site_fract_y
_atom_site_fract_z
Si Si1 0.102552 0.669934 0.115815
Si Si2 0.947226 0.328419 0.563198
Si Si3 0.795433 0.668392 0.280992
Si Si4 0.053035 0.328397 0.000000
Si Si5 0.896190 0.328730 0.675997
Si Si6 0.444560 0.332384 0.778965
Si Si7 0.294755 0.166478 0.850794
O O1 0.092825 0.500000 0.126735
O O2 0.080037 0.759353 0.166922
O O3 0.158507 0.700502 0.112533
O O4 0.080221 0.726706 0.056441
O O5 0.930483 0.272551 0.500000
O O6 0.948310 0.500000 0.562958
O O7 0.911591 0.274833 0.612575
O O8 0.000000 0.270120 0.576155
O O9 0.785185 0.500000 0.286517
O O10 0.750000 0.750000 0.306699
O O11 0.841517 0.713929 0.316830
O O12 0.804334 0.714790 0.214952
O O13 0.051833 0.500000 0.000000
O O14 0.000000 0.265150 0.000000
O O15 0.903560 0.500000 0.685355
O O16 0.928555 0.246325 0.721210
O O17 0.500000 0.312658 0.786032
O O18 0.429913 0.500000 0.776109
O O19 0.250000 0.250000 0.877338
O O20 0.281292 0.000000 0.853605
#
# Coordination Sequence:
#
# PCOD8266595 Si02
#       7
#    16  16  16   8  16  16  16
#     4  10  19  35  55  75  98 127 166 206 242 288
#     4   8  14  25  44  72 101 127 159 201 246 287
#     4   9  17  29  45  69  96 125 161 197 243 296
#     4   9  18  32  54  79  97 123 165 207 244 285
#     4  10  18  31  51  74  98 127 166 206 244 290
#     4  11  23  34  46  71 104 132 160 199 248 296
#     4   9  17  30  48  71  98 126 158 198 243 293
#
# _framework density 17.075638000000001
#
# number of rings (size 3 to 8) (size 9 to 14) (size 15 to 20)
#    0.000    2.538    1.538    1.846    0.000    3.692 
#    0.000    0.769    0.000    2.308    0.000    2.154 
#    0.000    0.000    0.000    0.000    0.000    0.000 
#
# Total GULP energy -644708.795132 kJ/mol
# GULP energy per Si atom -12398.246060 kJ/mol
# Density = 1.703677 g / cm^3
# Si number density = 17.075638 Si / 1000 Ang^3
#
#
#
# Elastic Constant Matrix: (Units=GPa)
#
#
# Indices 1 2 3 4 5 6 
#
# 1 125.4338 38.0854 59.9579 0.0000 0.0000 0.0000
# 2 38.0854 43.0412 28.2646 0.0000 0.0000 0.0000
# 3 59.9579 28.2646 109.9310 0.0000 0.0000 0.0000
# 4 0.0000 0.0000 0.0000 2.9994 0.0000 0.0000
# 5 0.0000 0.0000 0.0000 0.0000 25.9977 0.0000
# 6 0.0000 0.0000 0.0000 0.0000 0.0000 27.8782
#
#
#
# Elastic Compliance Matrix: (Units=1/GPa)
#
#
# Indices 1 2 3 4 5 6 
#
# 1 0.012761 -0.008086 -0.004881 0.000000 0.000000 0.000000
# 2 -0.008086 0.033077 -0.004094 0.000000 0.000000 0.000000
# 3 -0.004881 -0.004094 0.012811 0.000000 0.000000 0.000000
# 4 0.000000 0.000000 0.000000 0.333399 0.000000 0.000000
# 5 0.000000 0.000000 0.000000 0.000000 0.038465 0.000000
# 6 0.000000 0.000000 0.000000 0.000000 0.000000 0.035870
#
#
# Mechanical properties :
#
#
# Convention : Reuss Voigt Hill
#
# Bulk Modulus (GPa) = 40.77165 59.00241 49.88703
# Shear Modulus (GPa) = 9.82933 21.51496 15.67214
#
# Velocity S-wave (km/s) = 2.40184 3.55347 3.03282
# Velocity P-wave (km/s) = 5.62323 7.17390 6.44537
#
# Compressibility (1/GPa) = 0.02452685
#
# Stress axis : x y z
#
# Youngs Moduli (GPa) = 78.36657 30.23220 78.05607
#
# Poissons Ratio (x) = 0.24446 0.38097
# Poissons Ratio (y) = 0.63369 0.31958
# Poissons Ratio (z) = 0.38249 0.12378
#
# Static dielectric constant tensor:
#      x y z
#    x 3.361800 0.000000 0.000000 
#    y 0.000000 2.980490 0.000000 
#    z 0.000000 0.000000 3.369020 
# 
# 
# High freq. dielectric constant tensor:
#      x y z
#    x 1.667420 0.000000 0.000000 
#    y 0.000000 1.632470 0.000000 
#    z 0.000000 0.000000 1.644940 
# 
# From -- ./inp_files/68195.got.cif
#   From: 2010.03.12/outbox.cif.g09.slc.cpg/sg65_35_cif.got.tgz:68195.got - 2010.04.10 20:52:16.
