data_PCOD8266287
_publ_section_title
;
Structure prediction by ZEFSAII (Michael W. Deem and Ramdas Pophale) SiO2 
 PCOD8266287
Probable space group: C M M M
;
_chemical_formula_sum "Si O2"
_cell_formula_units_Z 96
_cell_length_a 18.021810
_cell_length_b 18.284530
_cell_length_c 17.105577
_cell_angle_alpha 90.000000
_cell_angle_beta 90.000000
_cell_angle_gamma 90.000000
_cell_volume 5636.635303
_symmetry_space_group_name_H-M "C M M M"
_symmetry_group_IT_number 65
_symmetry_cell_setting 'orthorhombic'
loop_
_space_group_symop_operation_xyz
x,y,z
-x,-y,z
x,-y,-z
-x,y,-z
-x,-y,-z
x,y,-z
-x,y,z
x,-y,z
1/2+x,1/2+y,z
1/2-x,1/2-y,z
1/2+x,1/2-y,-z
1/2-x,1/2+y,-z
1/2-x,1/2-y,-z
1/2+x,1/2+y,-z
1/2-x,1/2+y,z
1/2+x,1/2-y,z
loop_
_atom_site_type_symbol
_atom_site_label
_atom_site_fract_x
_atom_site_fract_y
_atom_site_fract_z
Si Si1 0.214869 0.920971 0.681592
Si Si2 0.082419 0.115524 0.589285
Si Si3 0.084846 0.083689 0.907508
Si Si4 0.582588 0.241055 0.312563
Si Si5 0.802220 0.318996 0.588463
Si Si6 0.813359 0.191839 0.810816
O O1 0.130473 0.930593 0.651154
O O2 0.257349 0.892985 0.604518
O O3 0.226821 0.863589 0.751349
O O4 0.244095 0.000000 0.709319
O O5 0.113210 0.114001 0.500000
O O6 0.082838 0.198196 0.619689
O O7 0.000000 0.082268 0.591286
O O8 0.145569 0.142056 0.876084
O O9 0.000000 0.102450 0.880040
O O10 0.104133 0.000000 0.880262
O O11 0.089085 0.088243 0.000000
O O12 0.500000 0.215225 0.291121
O O13 0.627893 0.175870 0.353017
O O14 0.621312 0.264782 0.232293
O O15 0.829557 0.315975 0.500000
O O16 0.750000 0.250000 0.610430
O O17 0.750000 0.250000 0.842301
#
# Coordination Sequence:
#
# PCOD8266287 Si02
#       6
#    16  16  16  16  16  16
#     4  11  21  32  45  66  95 131 168 209 258 306
#     4   9  17  28  42  63  91 122 158 202 252 306
#     4   9  19  36  57  84 118 148 168 193 242 309
#     4  10  18  30  48  70  92 122 165 212 256 300
#     4  11  19  32  48  65  92 127 168 215 265 315
#     4  11  19  34  53  78 106 135 173 209 247 293
#
# _framework density 17.031435999999999
#
# number of rings (size 3 to 8) (size 9 to 14) (size 15 to 20)
#    0.000    1.833    5.000    2.500    0.000    3.667 
#    0.000    0.833    0.000    0.500    0.000    1.167 
#    0.000    0.000    0.000    8.000    0.000    0.000 
#
# Total GULP energy -594689.739016 kJ/mol
# GULP energy per Si atom -12389.369563 kJ/mol
# Density = 1.699267 g / cm^3
# Si number density = 17.031436 Si / 1000 Ang^3
#
#
#
# Elastic Constant Matrix: (Units=GPa)
#
#
# Indices 1 2 3 4 5 6 
#
# 1 96.0842 46.3273 30.3614 0.0000 0.0000 0.0000
# 2 46.3273 79.7491 24.2084 0.0000 0.0000 0.0000
# 3 30.3614 24.2084 51.2918 0.0000 0.0000 0.0000
# 4 0.0000 0.0000 0.0000 10.8470 0.0000 0.0000
# 5 0.0000 0.0000 0.0000 0.0000 26.1499 0.0000
# 6 0.0000 0.0000 0.0000 0.0000 0.0000 18.7701
#
#
#
# Elastic Compliance Matrix: (Units=1/GPa)
#
#
# Indices 1 2 3 4 5 6 
#
# 1 0.015841 -0.007419 -0.005875 0.000000 0.000000 0.000000
# 2 -0.007419 0.018111 -0.004156 0.000000 0.000000 0.000000
# 3 -0.005875 -0.004156 0.024936 0.000000 0.000000 0.000000
# 4 0.000000 0.000000 0.000000 0.092191 0.000000 0.000000
# 5 0.000000 0.000000 0.000000 0.000000 0.038241 0.000000
# 6 0.000000 0.000000 0.000000 0.000000 0.000000 0.053276
#
#
# Mechanical properties :
#
#
# Convention : Reuss Voigt Hill
#
# Bulk Modulus (GPa) = 41.69008 47.65771 44.67389
# Shear Modulus (GPa) = 17.51359 19.56860 18.54110
#
# Velocity S-wave (km/s) = 3.21021 3.39332 3.30303
# Velocity P-wave (km/s) = 6.18644 6.58755 6.39014
#
# Compressibility (1/GPa) = 0.02398652
#
# Stress axis : x y z
#
# Youngs Moduli (GPa) = 63.12701 55.21608 40.10291
#
# Poissons Ratio (x) = 0.40963 0.23562
# Poissons Ratio (y) = 0.46832 0.16668
# Poissons Ratio (z) = 0.37090 0.22950
#
# Static dielectric constant tensor:
#      x y z
#    x 3.437210 0.000000 0.000000 
#    y 0.000000 3.075660 0.000000 
#    z 0.000000 0.000000 2.951980 
# 
# 
# High freq. dielectric constant tensor:
#      x y z
#    x 1.650720 0.000000 0.000000 
#    y 0.000000 1.631770 0.000000 
#    z 0.000000 0.000000 1.638450 
# 
# From -- ./inp_files/54740.got.cif
#   From: 2010.03.12/outbox.cif.g09.slc.cpg/sg65_28_cif.got.tgz:54740.got - 2010.04.10 20:52:16.
