data_PCOD8266507
_publ_section_title
;
Structure prediction by ZEFSAII (Michael W. Deem and Ramdas Pophale) SiO2 
 PCOD8266507
Probable space group: C M M M
;
_chemical_formula_sum "Si O2"
_cell_formula_units_Z 80
_cell_length_a 20.084329
_cell_length_b 18.962607
_cell_length_c 11.811351
_cell_angle_alpha 90.000000
_cell_angle_beta 90.000000
_cell_angle_gamma 90.000000
_cell_volume 4498.367647
_symmetry_space_group_name_H-M "C M M M"
_symmetry_group_IT_number 65
_symmetry_cell_setting 'orthorhombic'
loop_
_space_group_symop_operation_xyz
x,y,z
-x,-y,z
x,-y,-z
-x,y,-z
-x,-y,-z
x,y,-z
-x,y,z
x,-y,z
1/2+x,1/2+y,z
1/2-x,1/2-y,z
1/2+x,1/2-y,-z
1/2-x,1/2+y,-z
1/2-x,1/2-y,-z
1/2+x,1/2+y,-z
1/2-x,1/2+y,z
1/2+x,1/2-y,z
loop_
_atom_site_type_symbol
_atom_site_label
_atom_site_fract_x
_atom_site_fract_y
_atom_site_fract_z
Si Si1 0.622274 0.923762 0.500000
Si Si2 0.922053 0.788609 0.273561
Si Si3 0.817131 0.290193 0.867272
Si Si4 0.287605 0.079310 0.718421
Si Si5 0.426409 0.222613 0.500000
Si Si6 0.858924 0.081339 0.632825
O O1 0.668067 0.915681 0.608142
O O2 0.568271 0.862082 0.500000
O O3 0.585918 0.000000 0.500000
O O4 0.880527 0.756776 0.169572
O O5 0.891838 0.749951 0.385546
O O6 0.910456 0.871984 0.293615
O O7 0.000000 0.773567 0.251450
O O8 0.750000 0.250000 0.832813
O O9 0.816278 0.367336 0.811313
O O10 0.822781 0.302105 0.000000
O O11 0.213539 0.099382 0.680609
O O12 0.289755 0.000000 0.769349
O O13 0.500000 0.255388 0.500000
O O14 0.863285 0.100403 0.500000
O O15 0.877832 0.000000 0.652401
#
# Coordination Sequence:
#
# PCOD8266507 Si02
#       6
#     8  16  16  16   8  16
#     4  10  18  30  53  82 109 141 177 218 276 336
#     4  11  22  36  55  81 114 147 182 226 275 326
#     4  11  23  38  58  81 103 141 195 236 271 319
#     4  10  19  33  55  84 113 142 179 225 278 330
#     4  10  20  32  50  79 107 143 187 219 265 332
#     4  10  19  32  53  84 120 151 179 215 269 336
#
# _framework density 17.784229
#
# number of rings (size 3 to 8) (size 9 to 14) (size 15 to 20)
#    0.000    1.600    6.000    0.000    0.000    1.400 
#    0.000    4.000    0.000    1.200    0.000    2.800 
#    0.000    0.000    0.000    0.000    0.000    0.000 
#
# Total GULP energy -495910.520310 kJ/mol
# GULP energy per Si atom -12397.763008 kJ/mol
# Density = 1.774375 g / cm^3
# Si number density = 17.784229 Si / 1000 Ang^3
#
#
#
# Elastic Constant Matrix: (Units=GPa)
#
#
# Indices 1 2 3 4 5 6 
#
# 1 73.7368 28.7588 28.1481 0.0000 0.0000 0.0000
# 2 28.7588 110.2290 45.8365 0.0000 0.0000 0.0000
# 3 28.1481 45.8365 81.1300 0.0000 0.0000 0.0000
# 4 0.0000 0.0000 0.0000 50.3033 0.0000 0.0000
# 5 0.0000 0.0000 0.0000 0.0000 17.4294 0.0000
# 6 0.0000 0.0000 0.0000 0.0000 0.0000 26.3564
#
#
#
# Elastic Compliance Matrix: (Units=1/GPa)
#
#
# Indices 1 2 3 4 5 6 
#
# 1 0.016126 -0.002458 -0.004206 0.000000 0.000000 0.000000
# 2 -0.002458 0.012233 -0.006058 0.000000 0.000000 0.000000
# 3 -0.004206 -0.006058 0.017208 0.000000 0.000000 0.000000
# 4 0.000000 0.000000 0.000000 0.019879 0.000000 0.000000
# 5 0.000000 0.000000 0.000000 0.000000 0.057374 0.000000
# 6 0.000000 0.000000 0.000000 0.000000 0.000000 0.037941
#
#
# Mechanical properties :
#
#
# Convention : Reuss Voigt Hill
#
# Bulk Modulus (GPa) = 49.69816 52.28696 50.99256
# Shear Modulus (GPa) = 25.91826 29.64131 27.77979
#
# Velocity S-wave (km/s) = 3.82170 4.08698 3.95656
# Velocity P-wave (km/s) = 6.89054 7.19276 7.04327
#
# Compressibility (1/GPa) = 0.02012147
#
# Stress axis : x y z
#
# Youngs Moduli (GPa) = 62.01105 81.74892 58.11274
#
# Poissons Ratio (x) = 0.20096 0.24443
# Poissons Ratio (y) = 0.15244 0.35206
# Poissons Ratio (z) = 0.26082 0.49525
#
# Static dielectric constant tensor:
#      x y z
#    x 3.082060 0.000000 0.000000 
#    y 0.000000 3.510180 0.000000 
#    z 0.000000 0.000000 3.112780 
# 
# 
# High freq. dielectric constant tensor:
#      x y z
#    x 1.675600 0.000000 0.000000 
#    y 0.000000 1.703200 0.000000 
#    z 0.000000 0.000000 1.669410 
# 
# From -- ./inp_files/26682.got.cif
#   From: 2010.03.12/outbox.cif.g09.slc.cpg/sg65_14_cif.got.tgz:26682.got - 2010.04.10 20:52:16.
