data_PCOD8266644
_publ_section_title
;
Structure prediction by ZEFSAII (Michael W. Deem and Ramdas Pophale) SiO2 
 PCOD8266644
Probable space group: C M M M
;
_chemical_formula_sum "Si O2"
_cell_formula_units_Z 88
_cell_length_a 22.609857
_cell_length_b 24.015020
_cell_length_c 9.010241
_cell_angle_alpha 90.000000
_cell_angle_beta 90.000000
_cell_angle_gamma 90.000000
_cell_volume 4892.346131
_symmetry_space_group_name_H-M "C M M M"
_symmetry_group_IT_number 65
_symmetry_cell_setting 'orthorhombic'
loop_
_space_group_symop_operation_xyz
x,y,z
-x,-y,z
x,-y,-z
-x,y,-z
-x,-y,-z
x,y,-z
-x,y,z
x,-y,z
1/2+x,1/2+y,z
1/2-x,1/2-y,z
1/2+x,1/2-y,-z
1/2-x,1/2+y,-z
1/2-x,1/2-y,-z
1/2+x,1/2+y,-z
1/2-x,1/2+y,z
1/2+x,1/2-y,z
loop_
_atom_site_type_symbol
_atom_site_label
_atom_site_fract_x
_atom_site_fract_y
_atom_site_fract_z
Si Si1 0.843498 0.564439 0.672586
Si Si2 0.500000 0.437185 0.323561
Si Si3 0.932090 0.756683 0.669580
Si Si4 0.383833 0.624709 0.326428
Si Si5 0.930743 0.354467 0.171341
Si Si6 0.222367 0.063811 0.174757
O O1 0.835513 0.577231 0.500000
O O2 0.857141 0.500000 0.703281
O O3 0.898443 0.598373 0.735437
O O4 0.783936 0.583308 0.754592
O O5 0.500000 0.500000 0.263354
O O6 0.500000 0.434462 0.500000
O O7 0.558473 0.406826 0.263451
O O8 0.924724 0.737129 0.500000
O O9 0.891080 0.809675 0.703130
O O10 0.910872 0.706644 0.774444
O O11 0.000000 0.773681 0.700851
O O12 0.374739 0.611845 0.500000
O O13 0.327802 0.603933 0.236336
O O14 0.000000 0.362629 0.199992
O O15 0.913794 0.360573 0.000000
O O16 0.208093 0.000000 0.219487
O O17 0.227152 0.071044 0.000000
#
# Coordination Sequence:
#
# PCOD8266644 Si02
#       6
#    16   8  16  16  16  16
#     4  10  21  38  60  83 106 136 175 218 264 314
#     4   9  16  26  45  75 107 137 176 227 272 309
#     4   9  17  32  53  77 107 142 182 225 267 311
#     4  10  18  31  52  78 105 140 185 228 269 312
#     4  10  21  36  56  83 113 143 173 208 260 321
#     4  10  21  36  53  75 107 145 180 218 269 325
#
# _framework density 17.987279999999998
#
# number of rings (size 3 to 8) (size 9 to 14) (size 15 to 20)
#    0.000    2.273    0.909    2.182    0.000    5.091 
#    0.000    3.182    0.000    7.091    0.000    0.000 
#    0.000    0.000    0.000    0.000    0.000    0.000 
#
# Total GULP energy -545750.899071 kJ/mol
# GULP energy per Si atom -12403.429524 kJ/mol
# Density = 1.794634 g / cm^3
# Si number density = 17.987280 Si / 1000 Ang^3
#
#
#
# Elastic Constant Matrix: (Units=GPa)
#
#
# Indices 1 2 3 4 5 6 
#
# 1 91.0438 61.5035 49.6537 0.0000 0.0000 0.0000
# 2 61.5035 95.4984 51.5051 0.0000 0.0000 0.0000
# 3 49.6537 51.5051 81.3908 0.0000 0.0000 0.0000
# 4 0.0000 0.0000 0.0000 27.9282 0.0000 0.0000
# 5 0.0000 0.0000 0.0000 0.0000 29.3337 0.0000
# 6 0.0000 0.0000 0.0000 0.0000 0.0000 24.0196
#
#
#
# Elastic Compliance Matrix: (Units=1/GPa)
#
#
# Indices 1 2 3 4 5 6 
#
# 1 0.021567 -0.010314 -0.006631 0.000000 0.000000 0.000000
# 2 -0.010314 0.020829 -0.006889 0.000000 0.000000 0.000000
# 3 -0.006631 -0.006889 0.020691 0.000000 0.000000 0.000000
# 4 0.000000 0.000000 0.000000 0.035806 0.000000 0.000000
# 5 0.000000 0.000000 0.000000 0.000000 0.034091 0.000000
# 6 0.000000 0.000000 0.000000 0.000000 0.000000 0.041633
#
#
# Mechanical properties :
#
#
# Convention : Reuss Voigt Hill
#
# Bulk Modulus (GPa) = 64.84838 65.91750 65.38294
# Shear Modulus (GPa) = 21.98539 23.27435 22.62987
#
# Velocity S-wave (km/s) = 3.49990 3.60103 3.55082
# Velocity P-wave (km/s) = 7.24313 7.34957 7.29655
#
# Compressibility (1/GPa) = 0.01542059
#
# Stress axis : x y z
#
# Youngs Moduli (GPa) = 46.36620 48.00989 48.33026
#
# Poissons Ratio (x) = 0.49516 0.32047
# Poissons Ratio (y) = 0.47821 0.33294
# Poissons Ratio (z) = 0.30745 0.33073
#
# Static dielectric constant tensor:
#      x y z
#    x 3.243190 0.000000 0.000000 
#    y 0.000000 3.328110 0.000000 
#    z 0.000000 0.000000 3.274610 
# 
# 
# High freq. dielectric constant tensor:
#      x y z
#    x 1.689640 0.000000 0.000000 
#    y 0.000000 1.697770 0.000000 
#    z 0.000000 0.000000 1.692440 
# 
# From -- ./inp_files/11801.got.cif
#   From: 2010.03.12/outbox.cif.g09.slc.cpg/sg65_6_cif.got.tgz:11801.got - 2010.04.10 20:52:16.
