data_PCOD8266486
_publ_section_title
;
Structure prediction by ZEFSAII (Michael W. Deem and Ramdas Pophale) SiO2 
 PCOD8266486
Probable space group: C M M M
;
_chemical_formula_sum "Si O2"
_cell_formula_units_Z 72
_cell_length_a 17.363972
_cell_length_b 16.793360
_cell_length_c 13.865790
_cell_angle_alpha 90.000000
_cell_angle_beta 90.000000
_cell_angle_gamma 90.000000
_cell_volume 4043.256500
_symmetry_space_group_name_H-M "C M M M"
_symmetry_group_IT_number 65
_symmetry_cell_setting 'orthorhombic'
loop_
_space_group_symop_operation_xyz
x,y,z
-x,-y,z
x,-y,-z
-x,y,-z
-x,-y,-z
x,y,-z
-x,y,z
x,-y,z
1/2+x,1/2+y,z
1/2-x,1/2-y,z
1/2+x,1/2-y,-z
1/2-x,1/2+y,-z
1/2-x,1/2-y,-z
1/2+x,1/2+y,-z
1/2-x,1/2+y,z
1/2+x,1/2-y,z
loop_
_atom_site_type_symbol
_atom_site_label
_atom_site_fract_x
_atom_site_fract_y
_atom_site_fract_z
Si Si1 0.914559 0.275683 0.796839
Si Si2 0.806005 0.178842 0.663747
Si Si3 0.592784 0.595637 0.500000
Si Si4 0.695451 0.091522 0.799518
Si Si5 0.241596 0.154603 0.000000
Si Si6 0.582460 0.298851 0.000000
O O1 0.858788 0.213143 0.747452
O O2 0.884602 0.364439 0.777042
O O3 0.911706 0.260278 0.910154
O O4 0.000000 0.267706 0.753572
O O5 0.750000 0.250000 0.621234
O O6 0.863481 0.136725 0.589098
O O7 0.755381 0.111093 0.714492
O O8 0.605087 0.500000 0.500000
O O9 0.500000 0.614403 0.500000
O O10 0.676300 0.000000 0.797200
O O11 0.724156 0.116373 0.904777
O O12 0.250000 0.250000 0.000000
O O13 0.149832 0.135652 0.000000
O O14 0.500000 0.344475 0.000000
#
# Coordination Sequence:
#
# PCOD8266486 Si02
#       6
#    16  16   8  16   8   8
#     4  10  19  33  54  77 104 139 177 214 251 301
#     4  10  20  37  58  78 100 136 180 211 249 310
#     4  11  23  38  56  80 109 133 160 214 276 315
#     4  11  21  32  51  79 109 138 171 215 262 305
#     4  12  17  34  51  72 103 141 184 211 245 302
#     4  10  18  30  52  74  99 135 178 218 245 286
#
# _framework density 17.807428000000002
#
# number of rings (size 3 to 8) (size 9 to 14) (size 15 to 20)
#    0.000    1.444    4.444    2.667    0.000    0.444 
#    0.000    0.000    0.000    6.000    0.000    0.000 
#    0.000   16.000    0.000    0.000    0.000    0.000 
#
# Total GULP energy -446112.945156 kJ/mol
# GULP energy per Si atom -12392.026254 kJ/mol
# Density = 1.776690 g / cm^3
# Si number density = 17.807428 Si / 1000 Ang^3
#
#
#
# Elastic Constant Matrix: (Units=GPa)
#
#
# Indices 1 2 3 4 5 6 
#
# 1 96.6108 9.5349 13.3140 0.0000 0.0000 0.0000
# 2 9.5349 77.1076 17.0487 0.0000 0.0000 0.0000
# 3 13.3140 17.0487 74.3831 0.0000 0.0000 0.0000
# 4 0.0000 0.0000 0.0000 20.2654 0.0000 0.0000
# 5 0.0000 0.0000 0.0000 0.0000 19.0782 0.0000
# 6 0.0000 0.0000 0.0000 0.0000 0.0000 21.8921
#
#
#
# Elastic Compliance Matrix: (Units=1/GPa)
#
#
# Indices 1 2 3 4 5 6 
#
# 1 0.010678 -0.000946 -0.001694 0.000000 0.000000 0.000000
# 2 -0.000946 0.013745 -0.002981 0.000000 0.000000 0.000000
# 3 -0.001694 -0.002981 0.014430 0.000000 0.000000 0.000000
# 4 0.000000 0.000000 0.000000 0.049345 0.000000 0.000000
# 5 0.000000 0.000000 0.000000 0.000000 0.052416 0.000000
# 6 0.000000 0.000000 0.000000 0.000000 0.000000 0.045679
#
#
# Mechanical properties :
#
#
# Convention : Reuss Voigt Hill
#
# Bulk Modulus (GPa) = 36.21801 36.43296 36.32548
# Shear Modulus (GPa) = 24.18512 26.12740 25.15626
#
# Velocity S-wave (km/s) = 3.68930 3.83459 3.76265
# Velocity P-wave (km/s) = 6.20732 6.33318 6.27057
#
# Compressibility (1/GPa) = 0.02761058
#
# Stress axis : x y z
#
# Youngs Moduli (GPa) = 93.65348 72.75391 69.29776
#
# Poissons Ratio (x) = 0.06881 0.11742
# Poissons Ratio (y) = 0.08857 0.20658
# Poissons Ratio (z) = 0.15869 0.21689
#
# Static dielectric constant tensor:
#      x y z
#    x 3.888210 0.000000 0.000000 
#    y 0.000000 3.203210 0.000000 
#    z 0.000000 0.000000 3.287470 
# 
# 
# High freq. dielectric constant tensor:
#      x y z
#    x 1.708430 0.000000 0.000000 
#    y 0.000000 1.670640 0.000000 
#    z 0.000000 0.000000 1.684790 
# 
# From -- ./inp_files/42180.got.cif
#   From: 2010.03.12/outbox.cif.g09.slc.cpg/sg65_22_cif.got.tgz:42180.got - 2010.04.10 20:52:16.
