data_PCOD8266002
_publ_section_title
;
Structure prediction by ZEFSAII (Michael W. Deem and Ramdas Pophale) SiO2 
 PCOD8266002
Probable space group: C M M M
;
_chemical_formula_sum "Si O2"
_cell_formula_units_Z 104
_cell_length_a 25.709203
_cell_length_b 9.161779
_cell_length_c 29.949316
_cell_angle_alpha 90.000000
_cell_angle_beta 90.000000
_cell_angle_gamma 90.000000
_cell_volume 7054.322872
_symmetry_space_group_name_H-M "C M M M"
_symmetry_group_IT_number 65
_symmetry_cell_setting 'orthorhombic'
loop_
_space_group_symop_operation_xyz
x,y,z
-x,-y,z
x,-y,-z
-x,y,-z
-x,-y,-z
x,y,-z
-x,y,z
x,-y,z
1/2+x,1/2+y,z
1/2-x,1/2-y,z
1/2+x,1/2-y,-z
1/2-x,1/2+y,-z
1/2-x,1/2-y,-z
1/2+x,1/2+y,-z
1/2-x,1/2+y,z
1/2+x,1/2-y,z
loop_
_atom_site_type_symbol
_atom_site_label
_atom_site_fract_x
_atom_site_fract_y
_atom_site_fract_z
Si Si1 0.938162 0.164017 0.549207
Si Si2 0.060590 0.328344 0.191711
Si Si3 0.000000 0.826902 0.950315
Si Si4 0.097885 0.827293 0.893502
Si Si5 0.938218 0.164449 0.719638
Si Si6 0.198273 0.170738 0.949126
Si Si7 0.437881 0.835848 0.366178
O O1 0.919909 0.218507 0.500000
O O2 0.915640 0.268922 0.587653
O O3 0.000000 0.164353 0.551301
O O4 0.917761 0.000000 0.557778
O O5 0.070746 0.500000 0.194125
O O6 0.095134 0.257329 0.153025
O O7 0.080105 0.257045 0.237730
O O8 0.000000 0.292682 0.183022
O O9 0.050974 0.772051 0.924651
O O10 0.000000 0.000000 0.953551
O O11 0.000000 0.759103 0.000000
O O12 0.150978 0.781547 0.917668
O O13 0.094283 0.000000 0.884698
O O14 0.916141 0.241548 0.675175
O O15 0.000000 0.160956 0.717511
O O16 0.915968 0.000000 0.722635
O O17 0.250000 0.250000 0.931813
O O18 0.208313 0.000000 0.945927
O O19 0.185071 0.216712 0.000000
O O20 0.500000 0.834396 0.366151
O O21 0.416699 0.000000 0.361659
#
# Coordination Sequence:
#
# PCOD8266002 Si02
#       7
#    16  16   8  16  16  16  16
#     4   8  13  20  28  37  51  73 102 137 178 224
#     4  10  19  29  40  56  80 104 126 154 193 237
#     4   9  16  26  43  65  85 105 131 163 192 223
#     4  10  18  29  46  65  84 107 136 164 193 234
#     4   9  16  25  37  49  63  87 119 150 181 222
#     4   9  18  32  49  68  87 108 136 167 197 231
#     4   9  15  21  29  42  59  78 104 140 183 227
#
# _framework density 14.742734
#
# number of rings (size 3 to 8) (size 9 to 14) (size 15 to 20)
#    0.000    2.846    0.769    2.308    0.000    7.077 
#    0.000    1.538    0.000    1.846    0.000    0.000 
#    0.000    0.000    0.000    0.000    0.000    0.000 
#
# Total GULP energy -644669.119769 kJ/mol
# GULP energy per Si atom -12397.483072 kJ/mol
# Density = 1.470918 g / cm^3
# Si number density = 14.742734 Si / 1000 Ang^3
#
#
#
# Elastic Constant Matrix: (Units=GPa)
#
#
# Indices 1 2 3 4 5 6 
#
# 1 52.1042 27.1119 38.1943 0.0000 0.0000 0.0000
# 2 27.1119 86.1160 65.1908 0.0000 0.0000 0.0000
# 3 38.1943 65.1908 143.0028 0.0000 0.0000 0.0000
# 4 0.0000 0.0000 0.0000 23.8533 0.0000 0.0000
# 5 0.0000 0.0000 0.0000 0.0000 6.8724 0.0000
# 6 0.0000 0.0000 0.0000 0.0000 0.0000 12.7392
#
#
#
# Elastic Compliance Matrix: (Units=1/GPa)
#
#
# Indices 1 2 3 4 5 6 
#
# 1 0.024854 -0.004275 -0.004689 0.000000 0.000000 0.000000
# 2 -0.004275 0.018467 -0.007277 0.000000 0.000000 0.000000
# 3 -0.004689 -0.007277 0.011563 0.000000 0.000000 0.000000
# 4 0.000000 0.000000 0.000000 0.041923 0.000000 0.000000
# 5 0.000000 0.000000 0.000000 0.000000 0.145509 0.000000
# 6 0.000000 0.000000 0.000000 0.000000 0.000000 0.078498
#
#
# Mechanical properties :
#
#
# Convention : Reuss Voigt Hill
#
# Bulk Modulus (GPa) = 44.63987 60.24632 52.44309
# Shear Modulus (GPa) = 13.85954 18.74140 16.30047
#
# Velocity S-wave (km/s) = 3.06942 3.56930 3.32876
# Velocity P-wave (km/s) = 6.55032 7.61185 7.10095
#
# Compressibility (1/GPa) = 0.02240150
#
# Stress axis : x y z
#
# Youngs Moduli (GPa) = 40.23454 54.15185 86.48600
#
# Poissons Ratio (x) = 0.23149 0.40557
# Poissons Ratio (y) = 0.17200 0.62933
# Poissons Ratio (z) = 0.18868 0.39404
#
# Static dielectric constant tensor:
#      x y z
#    x 2.319150 0.000000 0.000000 
#    y 0.000000 2.899410 0.000000 
#    z 0.000000 0.000000 3.084430 
# 
# 
# High freq. dielectric constant tensor:
#      x y z
#    x 1.483770 0.000000 0.000000 
#    y 0.000000 1.567400 0.000000 
#    z 0.000000 0.000000 1.577950 
# 
# From -- ./inp_files/77110.got.cif
#   From: 2010.03.12/outbox.cif.g09.slc.cpg/sg65_39_cif.got.tgz:77110.got - 2010.04.10 20:52:16.
