data_PCOD8266573
_publ_section_title
;
Structure prediction by ZEFSAII (Michael W. Deem and Ramdas Pophale) SiO2 
 PCOD8266573
Probable space group: C M M M
;
_chemical_formula_sum "Si O2"
_cell_formula_units_Z 104
_cell_length_a 28.042414
_cell_length_b 9.325192
_cell_length_c 20.755040
_cell_angle_alpha 90.000000
_cell_angle_beta 90.000000
_cell_angle_gamma 90.000000
_cell_volume 5427.461529
_symmetry_space_group_name_H-M "C M M M"
_symmetry_group_IT_number 65
_symmetry_cell_setting 'orthorhombic'
loop_
_space_group_symop_operation_xyz
x,y,z
-x,-y,z
x,-y,-z
-x,y,-z
-x,-y,-z
x,y,-z
-x,y,z
x,-y,z
1/2+x,1/2+y,z
1/2-x,1/2-y,z
1/2+x,1/2-y,-z
1/2-x,1/2+y,-z
1/2-x,1/2-y,-z
1/2+x,1/2+y,-z
1/2-x,1/2+y,z
1/2+x,1/2-y,z
loop_
_atom_site_type_symbol
_atom_site_label
_atom_site_fract_x
_atom_site_fract_y
_atom_site_fract_z
Si Si1 0.556310 0.840148 0.928322
Si Si2 0.790851 0.843147 0.679328
Si Si3 0.708750 0.655657 0.174460
Si Si4 0.397246 0.670534 0.816845
Si Si5 0.300682 0.832240 0.500000
Si Si6 0.444106 0.331835 0.316968
Si Si7 0.366404 0.169540 0.621827
O O1 0.500000 0.835923 0.928937
O O2 0.573777 0.723170 0.878107
O O3 0.573845 0.000000 0.908725
O O4 0.575516 0.802009 0.000000
O O5 0.750000 0.750000 0.642498
O O6 0.775040 0.868702 0.752130
O O7 0.839639 0.752443 0.679850
O O8 0.796222 0.000000 0.645538
O O9 0.707206 0.500000 0.139836
O O10 0.750000 0.750000 0.139791
O O11 0.656691 0.729957 0.174332
O O12 0.395873 0.500000 0.815574
O O13 0.423148 0.723102 0.751500
O O14 0.250000 0.750000 0.500000
O O15 0.335013 0.790369 0.440470
O O16 0.288754 0.000000 0.500000
O O17 0.500000 0.297889 0.318944
O O18 0.433973 0.500000 0.327784
O O19 0.419283 0.240069 0.375175
O O20 0.369839 0.000000 0.632710
#
# Coordination Sequence:
#
# PCOD8266573 Si02
#       7
#    16  16  16  16   8  16  16
#     4   9  19  35  53  77 111 147 183 226 275 325
#     4  10  18  31  50  75 107 139 173 213 264 319
#     4   9  18  31  48  73 107 139 171 212 263 317
#     4  10  19  34  55  81 111 144 181 225 275 325
#     4  10  24  42  59  84 113 145 182 225 275 328
#     4  10  21  38  58  81 112 147 182 227 282 333
#     4  11  22  37  56  79 109 143 182 225 274 329
#
# _framework density 19.161812000000001
#
# number of rings (size 3 to 8) (size 9 to 14) (size 15 to 20)
#    0.000    2.154    1.538    2.308    0.000    5.846 
#    0.000    1.154    0.000    2.769    0.000    0.000 
#    0.000    0.000    0.000    0.000    0.000    0.000 
#
# Total GULP energy -644304.331342 kJ/mol
# GULP energy per Si atom -12390.467910 kJ/mol
# Density = 1.911820 g / cm^3
# Si number density = 19.161812 Si / 1000 Ang^3
#
#
#
# Elastic Constant Matrix: (Units=GPa)
#
#
# Indices 1 2 3 4 5 6 
#
# 1 130.1253 57.3888 38.6658 0.0000 0.0000 0.0000
# 2 57.3888 80.0861 25.6401 0.0000 0.0000 0.0000
# 3 38.6658 25.6401 60.9267 0.0000 0.0000 0.0000
# 4 0.0000 0.0000 0.0000 20.3878 0.0000 0.0000
# 5 0.0000 0.0000 0.0000 0.0000 21.6361 0.0000
# 6 0.0000 0.0000 0.0000 0.0000 0.0000 35.4957
#
#
#
# Elastic Compliance Matrix: (Units=1/GPa)
#
#
# Indices 1 2 3 4 5 6 
#
# 1 0.012317 -0.007308 -0.004741 0.000000 0.000000 0.000000
# 2 -0.007308 0.018767 -0.003260 0.000000 0.000000 0.000000
# 3 -0.004741 -0.003260 0.020794 0.000000 0.000000 0.000000
# 4 0.000000 0.000000 0.000000 0.049049 0.000000 0.000000
# 5 0.000000 0.000000 0.000000 0.000000 0.046219 0.000000
# 6 0.000000 0.000000 0.000000 0.000000 0.000000 0.028172
#
#
# Mechanical properties :
#
#
# Convention : Reuss Voigt Hill
#
# Bulk Modulus (GPa) = 47.03765 57.16971 52.10368
# Shear Modulus (GPa) = 23.47163 25.46681 24.46922
#
# Velocity S-wave (km/s) = 3.50368 3.64955 3.57736
# Velocity P-wave (km/s) = 6.40067 6.90355 6.65686
#
# Compressibility (1/GPa) = 0.02125957
#
# Stress axis : x y z
#
# Youngs Moduli (GPa) = 81.19007 53.28437 48.09115
#
# Poissons Ratio (x) = 0.38941 0.22800
# Poissons Ratio (y) = 0.59335 0.15677
# Poissons Ratio (z) = 0.38492 0.17370
#
# Static dielectric constant tensor:
#      x y z
#    x 3.614420 0.000000 0.000000 
#    y 0.000000 3.747520 0.000000 
#    z 0.000000 0.000000 3.270760 
# 
# 
# High freq. dielectric constant tensor:
#      x y z
#    x 1.751090 0.000000 0.000000 
#    y 0.000000 1.746500 0.000000 
#    z 0.000000 0.000000 1.707230 
# 
# From -- ./inp_files/65873.got.cif
#   From: 2010.03.12/outbox.cif.g09.slc.cpg/sg65_33_cif.got.tgz:65873.got - 2010.04.10 20:52:16.
