data_PCOD8266631
_publ_section_title
;
Structure prediction by ZEFSAII (Michael W. Deem and Ramdas Pophale) SiO2 
 PCOD8266631
Probable space group: C M M M
;
_chemical_formula_sum "Si O2"
_cell_formula_units_Z 72
_cell_length_a 11.725815
_cell_length_b 35.817111
_cell_length_c 9.469602
_cell_angle_alpha 90.000000
_cell_angle_beta 90.000000
_cell_angle_gamma 90.000000
_cell_volume 3977.089067
_symmetry_space_group_name_H-M "C M M M"
_symmetry_group_IT_number 65
_symmetry_cell_setting 'orthorhombic'
loop_
_space_group_symop_operation_xyz
x,y,z
-x,-y,z
x,-y,-z
-x,y,-z
-x,-y,-z
x,y,-z
-x,y,z
x,-y,z
1/2+x,1/2+y,z
1/2-x,1/2-y,z
1/2+x,1/2-y,-z
1/2-x,1/2+y,-z
1/2-x,1/2-y,-z
1/2+x,1/2+y,-z
1/2-x,1/2+y,z
1/2+x,1/2-y,z
loop_
_atom_site_type_symbol
_atom_site_label
_atom_site_fract_x
_atom_site_fract_y
_atom_site_fract_z
Si Si1 0.754206 0.427073 0.833618
Si Si2 0.500000 0.829423 0.337687
Si Si3 0.366773 0.647196 0.836485
Si Si4 0.129811 0.000000 0.831299
Si Si5 0.500000 0.095384 0.164946
Si Si6 0.237809 0.707480 0.664337
O O1 0.697845 0.389171 0.773988
O O2 0.693022 0.463473 0.768548
O O3 0.888131 0.428395 0.793500
O O4 0.735052 0.427571 0.000000
O O5 0.500000 0.842148 0.500000
O O6 0.500000 0.865709 0.243245
O O7 0.609622 0.804809 0.300760
O O8 0.500000 0.640513 0.815110
O O9 0.328320 0.683296 0.750654
O O10 0.335469 0.653526 0.000000
O O11 0.000000 0.000000 0.777650
O O12 0.135087 0.000000 0.000000
O O13 0.500000 0.104984 0.000000
O O14 0.267453 0.702946 0.500000
O O15 0.250000 0.750000 0.713830
#
# Coordination Sequence:
#
# PCOD8266631 Si02
#       6
#    16   8  16   8   8  16
#     4   9  17  29  47  73 104 137 172 208 254 308
#     4  10  20  36  55  77 103 136 176 215 257 312
#     4  10  20  34  52  76 106 137 171 212 257 310
#     4   9  16  27  45  71 105 141 170 206 259 310
#     4  10  18  31  52  76 104 138 172 214 261 307
#     4  10  22  37  55  77 102 134 174 219 262 307
#
# _framework density 18.103693
#
# number of rings (size 3 to 8) (size 9 to 14) (size 15 to 20)
#    0.000    2.333    2.222    0.667    1.556    4.000 
#    0.000    2.222    0.000    0.000    0.000    3.889 
#    0.000    5.333    0.000    0.000    0.000    0.000 
#
# Total GULP energy -446439.793095 kJ/mol
# GULP energy per Si atom -12401.105364 kJ/mol
# Density = 1.806249 g / cm^3
# Si number density = 18.103693 Si / 1000 Ang^3
#
#
#
# Elastic Constant Matrix: (Units=GPa)
#
#
# Indices 1 2 3 4 5 6 
#
# 1 136.3202 73.0977 31.9113 0.0000 0.0000 0.0000
# 2 73.0977 158.5017 35.1754 0.0000 0.0000 0.0000
# 3 31.9113 35.1754 29.0895 0.0000 0.0000 0.0000
# 4 0.0000 0.0000 0.0000 -9.1634 0.0000 0.0000
# 5 0.0000 0.0000 0.0000 0.0000 17.7453 0.0000
# 6 0.0000 0.0000 0.0000 0.0000 0.0000 40.0811
#
#
#
# Elastic Compliance Matrix: (Units=1/GPa)
#
#
# Indices 1 2 3 4 5 6 
#
# 1 0.010984 -0.003269 -0.008097 0.000000 0.000000 0.000000
# 2 -0.003269 0.009596 -0.008018 0.000000 0.000000 0.000000
# 3 -0.008097 -0.008018 0.052954 0.000000 0.000000 0.000000
# 4 0.000000 0.000000 0.000000 -0.109130 0.000000 0.000000
# 5 0.000000 0.000000 0.000000 0.000000 0.056353 0.000000
# 6 0.000000 0.000000 0.000000 0.000000 0.000000 0.024949
#
#
# Mechanical properties :
#
#
# Convention : Reuss Voigt Hill
#
# Bulk Modulus (GPa) = 28.76260 67.14227 47.95243
# Shear Modulus (GPa) = 52.05000 21.98107 37.01553
#
# Velocity S-wave (km/s) = 5.36782 3.48828 4.52667
# Velocity P-wave (km/s) = 7.37158 7.30700 7.33936
#
# Compressibility (1/GPa) = 0.03476737
#
# Stress axis : x y z
#
# Youngs Moduli (GPa) = 91.04366 104.21202 18.88430
#
# Poissons Ratio (x) = 0.34063 0.15290
# Poissons Ratio (y) = 0.29759 0.15141
# Poissons Ratio (z) = 0.73716 0.83554
#
# Static dielectric constant tensor:
#      x y z
#    x 3.362010 0.000000 0.000000 
#    y 0.000000 3.557650 0.000000 
#    z 0.000000 0.000000 2.968230 
# 
# 
# High freq. dielectric constant tensor:
#      x y z
#    x 1.720350 0.000000 0.000000 
#    y 0.000000 1.707050 0.000000 
#    z 0.000000 0.000000 1.654290 
# 
# From -- ./inp_files/22785.got.cif
#   From: 2010.03.12/outbox.cif.g09.slc.cpg/sg65_12_cif.got.tgz:22785.got - 2010.04.10 20:52:16.
