data_PCOD8266000
_publ_section_title
;
Structure prediction by ZEFSAII (Michael W. Deem and Ramdas Pophale) SiO2 
 PCOD8266000
Probable space group: C M M M
;
_chemical_formula_sum "Si O2"
_cell_formula_units_Z 104
_cell_length_a 28.245094
_cell_length_b 9.212822
_cell_length_c 28.575036
_cell_angle_alpha 90.000000
_cell_angle_beta 90.000000
_cell_angle_gamma 90.000000
_cell_volume 7435.710811
_symmetry_space_group_name_H-M "C M M M"
_symmetry_group_IT_number 65
_symmetry_cell_setting 'orthorhombic'
loop_
_space_group_symop_operation_xyz
x,y,z
-x,-y,z
x,-y,-z
-x,y,-z
-x,-y,-z
x,y,-z
-x,y,z
x,-y,z
1/2+x,1/2+y,z
1/2-x,1/2-y,z
1/2+x,1/2-y,-z
1/2-x,1/2+y,-z
1/2-x,1/2-y,-z
1/2+x,1/2+y,-z
1/2-x,1/2+y,z
1/2+x,1/2-y,z
loop_
_atom_site_type_symbol
_atom_site_label
_atom_site_fract_x
_atom_site_fract_y
_atom_site_fract_z
Si Si1 0.445670 0.668303 0.820214
Si Si2 0.387110 0.670767 0.912040
Si Si3 0.298152 0.169919 0.054290
Si Si4 0.056541 0.163213 0.639756
Si Si5 0.056287 0.336911 0.551592
Si Si6 0.556331 0.163456 0.270858
Si Si7 0.552580 0.327931 0.000000
O O1 0.500000 0.708409 0.832230
O O2 0.441604 0.500000 0.807069
O O3 0.413516 0.708875 0.864178
O O4 0.426075 0.758429 0.776236
O O5 0.376011 0.500000 0.916650
O O6 0.338728 0.760699 0.913581
O O7 0.420322 0.726129 0.954020
O O8 0.250000 0.250000 0.068199
O O9 0.293069 0.000000 0.065184
O O10 0.310434 0.198355 0.000000
O O11 0.076895 0.232771 0.591861
O O12 0.076487 0.252676 0.683934
O O13 0.000000 0.165564 0.639652
O O14 0.075870 0.000000 0.643265
O O15 0.072869 0.282856 0.500000
O O16 0.074836 0.500000 0.560616
O O17 0.000000 0.336443 0.553831
O O18 0.500000 0.165121 0.272391
O O19 0.576114 0.000000 0.271605
O O20 0.548918 0.500000 0.000000
O O21 0.500000 0.259773 0.000000
#
# Coordination Sequence:
#
# PCOD8266000 Si02
#       7
#    16  16  16  16  16  16   8
#     4   9  17  28  41  58  79 102 128 157 187 221
#     4  10  18  29  46  65  84 105 129 156 187 224
#     4  10  20  33  49  66  84 103 126 155 188 225
#     4   9  15  21  30  43  58  77 104 141 181 220
#     4   8  13  20  28  38  54  76 101 131 171 220
#     4   9  16  25  36  48  63  87 118 150 184 221
#     4   9  16  26  42  63  84 107 134 157 178 215
#
# _framework density 13.986558
#
# number of rings (size 3 to 8) (size 9 to 14) (size 15 to 20)
#    0.000    2.846    0.769    2.308    0.000    7.077 
#    0.000    1.538    0.000    1.846    0.000    0.000 
#    0.000    0.000    0.000    0.000    0.000    0.000 
#
# Total GULP energy -644680.077064 kJ/mol
# GULP energy per Si atom -12397.693790 kJ/mol
# Density = 1.395472 g / cm^3
# Si number density = 13.986558 Si / 1000 Ang^3
#
#
#
# Elastic Constant Matrix: (Units=GPa)
#
#
# Indices 1 2 3 4 5 6 
#
# 1 51.4996 31.6741 34.0994 0.0000 0.0000 0.0000
# 2 31.6741 93.9992 68.9271 0.0000 0.0000 0.0000
# 3 34.0994 68.9271 129.9909 0.0000 0.0000 0.0000
# 4 0.0000 0.0000 0.0000 26.3311 0.0000 0.0000
# 5 0.0000 0.0000 0.0000 0.0000 1.6998 0.0000
# 6 0.0000 0.0000 0.0000 0.0000 0.0000 13.8423
#
#
#
# Elastic Compliance Matrix: (Units=1/GPa)
#
#
# Indices 1 2 3 4 5 6 
#
# 1 0.025420 -0.006015 -0.003479 0.000000 0.000000 0.000000
# 2 -0.006015 0.018829 -0.008406 0.000000 0.000000 0.000000
# 3 -0.003479 -0.008406 0.013063 0.000000 0.000000 0.000000
# 4 0.000000 0.000000 0.000000 0.037978 0.000000 0.000000
# 5 0.000000 0.000000 0.000000 0.000000 0.588296 0.000000
# 6 0.000000 0.000000 0.000000 0.000000 0.000000 0.072242
#
#
# Mechanical properties :
#
#
# Convention : Reuss Voigt Hill
#
# Bulk Modulus (GPa) = 46.48464 60.54344 53.51404
# Shear Modulus (GPa) = 6.25940 17.76060 12.01000
#
# Velocity S-wave (km/s) = 2.11778 3.56734 2.93351
# Velocity P-wave (km/s) = 6.26797 7.76844 7.05819
#
# Compressibility (1/GPa) = 0.02151248
#
# Stress axis : x y z
#
# Youngs Moduli (GPa) = 39.33851 53.10895 76.55241
#
# Poissons Ratio (x) = 0.31943 0.26634
# Poissons Ratio (y) = 0.23660 0.64353
# Poissons Ratio (z) = 0.13686 0.44645
#
# Static dielectric constant tensor:
#      x y z
#    x 2.281580 0.000000 0.000000 
#    y 0.000000 2.816410 0.000000 
#    z 0.000000 0.000000 2.888690 
# 
# 
# High freq. dielectric constant tensor:
#      x y z
#    x 1.462870 0.000000 0.000000 
#    y 0.000000 1.538450 0.000000 
#    z 0.000000 0.000000 1.538000 
# 
# From -- ./inp_files/75969.got.cif
#   From: 2010.03.12/outbox.cif.g09.slc.cpg/sg65_38_cif.got.tgz:75969.got - 2010.04.10 20:52:16.
