data_PCOD8266533
_publ_section_title
;
Structure prediction by ZEFSAII (Michael W. Deem and Ramdas Pophale) SiO2 
 PCOD8266533
Probable space group: C M M M
;
_chemical_formula_sum "Si O2"
_cell_formula_units_Z 112
_cell_length_a 21.237694
_cell_length_b 17.304906
_cell_length_c 18.041928
_cell_angle_alpha 90.000000
_cell_angle_beta 90.000000
_cell_angle_gamma 90.000000
_cell_volume 6630.702593
_symmetry_space_group_name_H-M "C M M M"
_symmetry_group_IT_number 65
_symmetry_cell_setting 'orthorhombic'
loop_
_space_group_symop_operation_xyz
x,y,z
-x,-y,z
x,-y,-z
-x,y,-z
-x,-y,-z
x,y,-z
-x,y,z
x,-y,z
1/2+x,1/2+y,z
1/2-x,1/2-y,z
1/2+x,1/2-y,-z
1/2-x,1/2+y,-z
1/2-x,1/2-y,-z
1/2+x,1/2+y,-z
1/2-x,1/2+y,z
1/2+x,1/2-y,z
loop_
_atom_site_type_symbol
_atom_site_label
_atom_site_fract_x
_atom_site_fract_y
_atom_site_fract_z
Si Si1 0.427390 0.914349 0.820698
Si Si2 0.430423 0.252316 0.414673
Si Si3 0.877148 0.085432 0.583875
Si Si4 0.814579 0.787696 0.821903
Si Si5 0.427672 0.233822 0.087421
Si Si6 0.349911 0.833408 0.701525
Si Si7 0.722787 0.412452 0.287452
O O1 0.500000 0.912450 0.800773
O O2 0.411657 0.852931 0.885310
O O3 0.392851 0.894640 0.744470
O O4 0.406833 0.000000 0.848171
O O5 0.419877 0.232673 0.500000
O O6 0.500000 0.229317 0.387832
O O7 0.425092 0.344692 0.400833
O O8 0.381571 0.198467 0.372324
O O9 0.849757 0.092611 0.500000
O O10 0.822989 0.094769 0.643588
O O11 0.909228 0.000000 0.593311
O O12 0.750000 0.750000 0.856431
O O13 0.873491 0.790665 0.879635
O O14 0.836915 0.739904 0.751847
O O15 0.800833 0.872621 0.789134
O O16 0.500000 0.257314 0.110973
O O17 0.421443 0.235940 0.000000
O O18 0.285532 0.874438 0.680160
O O19 0.734870 0.500000 0.263623
#
# Coordination Sequence:
#
# PCOD8266533 Si02
#       7
#    16  16  16  16  16  16  16
#     4   9  17  29  47  71  98 131 166 201 245 293
#     4  10  20  32  48  70  97 132 171 211 254 301
#     4   9  18  32  48  69  98 129 164 208 256 301
#     4   9  18  32  50  73 100 129 166 206 253 302
#     4   9  18  32  51  76 104 134 166 203 250 303
#     4  10  18  31  48  70  97 129 164 208 251 299
#     4  10  19  32  50  72  97 128 166 210 256 301
#
# _framework density 16.891120999999998
#
# number of rings (size 3 to 8) (size 9 to 14) (size 15 to 20)
#    0.000    2.571    1.429    0.857    0.000    2.000 
#    0.000    4.286    0.000    2.143    0.000    6.000 
#    0.000    0.000    0.000    0.000    0.000    0.000 
#
# Total GULP energy -693955.448387 kJ/mol
# GULP energy per Si atom -12392.061578 kJ/mol
# Density = 1.685268 g / cm^3
# Si number density = 16.891121 Si / 1000 Ang^3
#
#
#
# Elastic Constant Matrix: (Units=GPa)
#
#
# Indices 1 2 3 4 5 6 
#
# 1 93.6769 37.6673 47.4464 0.0000 0.0000 0.0000
# 2 37.6673 77.3921 34.3655 0.0000 0.0000 0.0000
# 3 47.4464 34.3655 69.9878 0.0000 0.0000 0.0000
# 4 0.0000 0.0000 0.0000 18.1641 0.0000 0.0000
# 5 0.0000 0.0000 0.0000 0.0000 26.5985 0.0000
# 6 0.0000 0.0000 0.0000 0.0000 0.0000 19.8194
#
#
#
# Elastic Compliance Matrix: (Units=1/GPa)
#
#
# Indices 1 2 3 4 5 6 
#
# 1 0.017212 -0.004087 -0.009661 0.000000 0.000000 0.000000
# 2 -0.004087 0.017495 -0.005820 0.000000 0.000000 0.000000
# 3 -0.009661 -0.005820 0.023695 0.000000 0.000000 0.000000
# 4 0.000000 0.000000 0.000000 0.055054 0.000000 0.000000
# 5 0.000000 0.000000 0.000000 0.000000 0.037596 0.000000
# 6 0.000000 0.000000 0.000000 0.000000 0.000000 0.050456
#
#
# Mechanical properties :
#
#
# Convention : Reuss Voigt Hill
#
# Bulk Modulus (GPa) = 51.90547 53.33502 52.62025
# Shear Modulus (GPa) = 20.23759 21.02158 20.62959
#
# Velocity S-wave (km/s) = 3.46514 3.53162 3.49854
# Velocity P-wave (km/s) = 6.84147 6.94796 6.89492
#
# Compressibility (1/GPa) = 0.01926579
#
# Stress axis : x y z
#
# Youngs Moduli (GPa) = 58.09965 57.16080 42.20219
#
# Poissons Ratio (x) = 0.23362 0.40774
# Poissons Ratio (y) = 0.23745 0.24560
# Poissons Ratio (z) = 0.56133 0.33265
#
# Static dielectric constant tensor:
#      x y z
#    x 3.451330 0.000000 0.000000 
#    y 0.000000 3.339850 0.000000 
#    z 0.000000 0.000000 3.000340 
# 
# 
# High freq. dielectric constant tensor:
#      x y z
#    x 1.655460 0.000000 0.000000 
#    y 0.000000 1.645730 0.000000 
#    z 0.000000 0.000000 1.633820 
# 
# From -- ./inp_files/54848.got.cif
#   From: 2010.03.12/outbox.cif.g09.slc.cpg/sg65_28_cif.got.tgz:54848.got - 2010.04.10 20:52:16.
