data_PCOD8266471
_publ_section_title
;
Structure prediction by ZEFSAII (Michael W. Deem and Ramdas Pophale) SiO2 
 PCOD8266471
Probable space group: C M M M
;
_chemical_formula_sum "Si O2"
_cell_formula_units_Z 80
_cell_length_a 18.886331
_cell_length_b 8.795053
_cell_length_c 25.229825
_cell_angle_alpha 90.000000
_cell_angle_beta 90.000000
_cell_angle_gamma 90.000000
_cell_volume 4190.832429
_symmetry_space_group_name_H-M "C M M M"
_symmetry_group_IT_number 65
_symmetry_cell_setting 'orthorhombic'
loop_
_space_group_symop_operation_xyz
x,y,z
-x,-y,z
x,-y,-z
-x,y,-z
-x,-y,-z
x,y,-z
-x,y,z
x,-y,z
1/2+x,1/2+y,z
1/2-x,1/2-y,z
1/2+x,1/2-y,-z
1/2-x,1/2+y,-z
1/2-x,1/2-y,-z
1/2+x,1/2+y,-z
1/2-x,1/2+y,z
1/2+x,1/2-y,z
loop_
_atom_site_type_symbol
_atom_site_label
_atom_site_fract_x
_atom_site_fract_y
_atom_site_fract_z
Si Si1 0.676986 0.177914 0.708254
Si Si2 0.583078 0.323976 0.500000
Si Si3 0.326986 0.680032 0.893911
Si Si4 0.676474 0.820840 0.413169
Si Si5 0.581106 0.677491 0.207071
Si Si6 0.828170 0.318548 0.000000
O O1 0.750000 0.250000 0.729311
O O2 0.662454 0.225415 0.647649
O O3 0.611263 0.234981 0.742388
O O4 0.685055 0.000000 0.714727
O O5 0.603845 0.500000 0.500000
O O6 0.500000 0.297579 0.500000
O O7 0.612894 0.246328 0.552747
O O8 0.319923 0.500000 0.901571
O O9 0.250000 0.750000 0.882924
O O10 0.377024 0.725501 0.845462
O O11 0.363791 0.753869 0.946305
O O12 0.750000 0.750000 0.433418
O O13 0.680160 0.000000 0.421202
O O14 0.500000 0.725728 0.199319
O O15 0.589146 0.500000 0.218253
O O16 0.750000 0.250000 0.000000
O O17 0.828281 0.500000 0.000000
#
# Coordination Sequence:
#
# PCOD8266471 Si02
#       6
#    16   8  16  16  16   8
#     4  10  21  37  59  85 110 141 181 225 272 321
#     4  11  24  39  56  81 113 149 186 223 268 321
#     4  10  19  33  54  78 105 137 176 220 266 318
#     4  10  21  38  60  84 111 143 181 225 272 322
#     4  10  22  38  55  78 110 147 183 221 269 323
#     4  10  18  30  51  78 105 133 171 219 269 316
#
# _framework density 19.089286999999999
#
# number of rings (size 3 to 8) (size 9 to 14) (size 15 to 20)
#    0.000    1.900    0.000    5.100    0.000    7.600 
#    0.000    4.500    0.000    3.000    0.000    0.000 
#    0.000    0.000    0.000    0.000    0.000    0.000 
#
# Total GULP energy -496122.499032 kJ/mol
# GULP energy per Si atom -12403.062476 kJ/mol
# Density = 1.904584 g / cm^3
# Si number density = 19.089287 Si / 1000 Ang^3
#
#
#
# Elastic Constant Matrix: (Units=GPa)
#
#
# Indices 1 2 3 4 5 6 
#
# 1 106.7810 48.0155 70.6415 0.0000 0.0000 0.0000
# 2 48.0155 97.1666 57.8933 0.0000 0.0000 0.0000
# 3 70.6415 57.8933 131.0611 0.0000 0.0000 0.0000
# 4 0.0000 0.0000 0.0000 34.0876 0.0000 0.0000
# 5 0.0000 0.0000 0.0000 0.0000 11.9710 0.0000
# 6 0.0000 0.0000 0.0000 0.0000 0.0000 29.4720
#
#
#
# Elastic Compliance Matrix: (Units=1/GPa)
#
#
# Indices 1 2 3 4 5 6 
#
# 1 0.015442 -0.003626 -0.006722 0.000000 0.000000 0.000000
# 2 -0.003626 0.014819 -0.004592 0.000000 0.000000 0.000000
# 3 -0.006722 -0.004592 0.013281 0.000000 0.000000 0.000000
# 4 0.000000 0.000000 0.000000 0.029336 0.000000 0.000000
# 5 0.000000 0.000000 0.000000 0.000000 0.083535 0.000000
# 6 0.000000 0.000000 0.000000 0.000000 0.000000 0.033930
#
#
# Mechanical properties :
#
#
# Convention : Reuss Voigt Hill
#
# Bulk Modulus (GPa) = 73.18453 76.45659 74.82056
# Shear Modulus (GPa) = 22.24424 25.67002 23.95713
#
# Velocity S-wave (km/s) = 3.41731 3.67104 3.54645
# Velocity P-wave (km/s) = 7.34792 7.62284 7.48665
#
# Compressibility (1/GPa) = 0.01366409
#
# Stress axis : x y z
#
# Youngs Moduli (GPa) = 64.75791 67.48013 75.29461
#
# Poissons Ratio (x) = 0.24468 0.50610
# Poissons Ratio (y) = 0.23481 0.34572
# Poissons Ratio (z) = 0.43527 0.30984
#
# Static dielectric constant tensor:
#      x y z
#    x 3.320090 0.000000 0.000000 
#    y 0.000000 3.560010 0.000000 
#    z 0.000000 0.000000 3.890480 
# 
# 
# High freq. dielectric constant tensor:
#      x y z
#    x 1.721950 0.000000 0.000000 
#    y 0.000000 1.754540 0.000000 
#    z 0.000000 0.000000 1.760190 
# 
# From -- ./inp_files/75112.got.cif
#   From: 2010.03.12/outbox.cif.g09.slc.cpg/sg65_38_cif.got.tgz:75112.got - 2010.04.10 20:52:16.
