data_PCOD8266790
_publ_section_title
;
Structure prediction by ZEFSAII (Michael W. Deem and Ramdas Pophale) SiO2 
 PCOD8266790
Probable space group: C M M M
;
_chemical_formula_sum "Si O2"
_cell_formula_units_Z 104
_cell_length_a 8.774338
_cell_length_b 18.997180
_cell_length_c 33.432117
_cell_angle_alpha 90.000000
_cell_angle_beta 90.000000
_cell_angle_gamma 90.000000
_cell_volume 5572.721966
_symmetry_space_group_name_H-M "C M M M"
_symmetry_group_IT_number 65
_symmetry_cell_setting 'orthorhombic'
loop_
_space_group_symop_operation_xyz
x,y,z
-x,-y,z
x,-y,-z
-x,y,-z
-x,-y,-z
x,y,-z
-x,y,z
x,-y,z
1/2+x,1/2+y,z
1/2-x,1/2-y,z
1/2+x,1/2-y,-z
1/2-x,1/2+y,-z
1/2-x,1/2-y,-z
1/2+x,1/2+y,-z
1/2-x,1/2+y,z
1/2+x,1/2-y,z
loop_
_atom_site_type_symbol
_atom_site_label
_atom_site_fract_x
_atom_site_fract_y
_atom_site_fract_z
Si Si1 0.324287 0.082841 0.148176
Si Si2 0.181889 0.327693 0.000000
Si Si3 0.819780 0.173175 0.080340
Si Si4 0.679256 0.177373 0.545474
Si Si5 0.173817 0.916774 0.609862
Si Si6 0.170881 0.083584 0.229558
Si Si7 0.328176 0.083916 0.690723
O O1 0.500000 0.103673 0.141761
O O2 0.217917 0.122450 0.116875
O O3 0.273700 0.107658 0.192246
O O4 0.298209 0.000000 0.142597
O O5 0.250000 0.250000 0.000000
O O6 0.246133 0.363076 0.959442
O O7 0.000000 0.328516 0.000000
O O8 0.750000 0.250000 0.088432
O O9 0.000000 0.180361 0.074886
O O10 0.732284 0.162779 0.500000
O O11 0.500000 0.183261 0.548744
O O12 0.750000 0.250000 0.561448
O O13 0.736218 0.113377 0.572252
O O14 0.243988 0.887829 0.651210
O O15 0.000000 0.891980 0.607914
O O16 0.189912 0.000000 0.607579
O O17 0.243493 0.114476 0.270179
O O18 0.000000 0.113547 0.224602
O O19 0.166973 0.000000 0.232126
O O20 0.500000 0.112651 0.690502
O O21 0.325781 0.000000 0.691660
#
# Coordination Sequence:
#
# PCOD8266790 Si02
#       7
#    16   8  16  16  16  16  16
#     4  10  20  34  52  76 106 138 173 213 257 303
#     4  10  18  32  53  76 101 130 169 211 253 303
#     4  11  21  35  55  78 104 134 171 212 256 305
#     4  10  21  37  56  76 100 133 172 211 252 303
#     4  10  20  33  51  77 107 136 168 210 257 301
#     4   9  16  27  45  70 100 134 171 209 250 298
#     4   9  16  27  45  70 100 133 169 209 252 297
#
# _framework density 18.662334000000001
#
# number of rings (size 3 to 8) (size 9 to 14) (size 15 to 20)
#    0.000    2.154    0.000    5.308    0.000    6.769 
#    0.000    1.923    0.000    3.231    0.000    6.462 
#    0.000    0.000    0.000    0.000    0.000    0.000 
#
# Total GULP energy -644835.090508 kJ/mol
# GULP energy per Si atom -12400.674817 kJ/mol
# Density = 1.861986 g / cm^3
# Si number density = 18.662334 Si / 1000 Ang^3
#
#
#
# Elastic Constant Matrix: (Units=GPa)
#
#
# Indices 1 2 3 4 5 6 
#
# 1 138.9228 25.9130 56.4181 0.0000 0.0000 0.0000
# 2 25.9130 25.1208 33.3731 0.0000 0.0000 0.0000
# 3 56.4181 33.3731 141.0855 0.0000 0.0000 0.0000
# 4 0.0000 0.0000 0.0000 -49.0088 0.0000 0.0000
# 5 0.0000 0.0000 0.0000 0.0000 40.8137 0.0000
# 6 0.0000 0.0000 0.0000 0.0000 0.0000 24.2375
#
#
#
# Elastic Compliance Matrix: (Units=1/GPa)
#
#
# Indices 1 2 3 4 5 6 
#
# 1 0.009329 -0.006806 -0.002121 0.000000 0.000000 0.000000
# 2 -0.006806 0.063015 -0.012184 0.000000 0.000000 0.000000
# 3 -0.002121 -0.012184 0.010818 0.000000 0.000000 0.000000
# 4 0.000000 0.000000 0.000000 -0.020405 0.000000 0.000000
# 5 0.000000 0.000000 0.000000 0.000000 0.024502 0.000000
# 6 0.000000 0.000000 0.000000 0.000000 0.000000 0.041258
#
#
# Mechanical properties :
#
#
# Convention : Reuss Voigt Hill
#
# Bulk Modulus (GPa) = 24.42575 59.61528 42.02052
# Shear Modulus (GPa) = 27.11704 15.83683 21.47693
#
# Velocity S-wave (km/s) = 3.81601 2.91623 3.39605
# Velocity P-wave (km/s) = 5.70373 6.58428 6.15976
#
# Compressibility (1/GPa) = 0.04094040
#
# Stress axis : x y z
#
# Youngs Moduli (GPa) = 107.19345 15.86922 92.43813
#
# Poissons Ratio (x) = 0.10800 0.19602
# Poissons Ratio (y) = 0.72955 1.12630
# Poissons Ratio (z) = 0.22731 0.19336
#
# Static dielectric constant tensor:
#      x y z
#    x 3.624920 0.000000 0.000000 
#    y 0.000000 2.914530 0.000000 
#    z 0.000000 0.000000 3.819690 
# 
# 
# High freq. dielectric constant tensor:
#      x y z
#    x 1.746100 0.000000 0.000000 
#    y 0.000000 1.667610 0.000000 
#    z 0.000000 0.000000 1.743130 
# 
# From -- ./inp_files/76924.got.cif
#   From: 2010.03.12/outbox.cif.g09.slc.cpg/sg65_39_cif.got.tgz:76924.got - 2010.04.10 20:52:16.
