data_PCOD8266812
_publ_section_title
;
Structure prediction by ZEFSAII (Michael W. Deem and Ramdas Pophale) SiO2 
 PCOD8266812
Probable space group: C M M M
;
_chemical_formula_sum "Si O2"
_cell_formula_units_Z 72
_cell_length_a 19.679747
_cell_length_b 8.641894
_cell_length_c 22.854146
_cell_angle_alpha 90.000000
_cell_angle_beta 90.000000
_cell_angle_gamma 90.000000
_cell_volume 3886.811181
_symmetry_space_group_name_H-M "C M M M"
_symmetry_group_IT_number 65
_symmetry_cell_setting 'orthorhombic'
loop_
_space_group_symop_operation_xyz
x,y,z
-x,-y,z
x,-y,-z
-x,y,-z
-x,-y,-z
x,y,-z
-x,y,z
x,-y,z
1/2+x,1/2+y,z
1/2-x,1/2-y,z
1/2+x,1/2-y,-z
1/2-x,1/2+y,-z
1/2-x,1/2-y,-z
1/2+x,1/2+y,-z
1/2-x,1/2+y,z
1/2+x,1/2-y,z
loop_
_atom_site_type_symbol
_atom_site_label
_atom_site_fract_x
_atom_site_fract_y
_atom_site_fract_z
Si Si1 0.321176 0.817015 0.065491
Si Si2 0.078584 0.179512 0.287322
Si Si3 0.325239 0.316632 0.500000
Si Si4 0.824513 0.681590 0.618441
Si Si5 0.422107 0.178937 0.835375
O O1 0.250000 0.750000 0.087752
O O2 0.378973 0.758912 0.109793
O O3 0.316695 0.000000 0.065604
O O4 0.338056 0.755945 0.000000
O O5 0.125405 0.282512 0.328598
O O6 0.097589 0.219884 0.220810
O O7 0.000000 0.221092 0.299662
O O8 0.093520 0.000000 0.298854
O O9 0.326643 0.500000 0.500000
O O10 0.250000 0.250000 0.500000
O O11 0.359167 0.253565 0.559685
O O12 0.816515 0.500000 0.610090
O O13 0.750000 0.750000 0.631252
O O14 0.500000 0.203060 0.852996
O O15 0.406442 0.000000 0.821094
#
# Coordination Sequence:
#
# PCOD8266812 Si02
#       5
#    16  16   8  16  16
#     4   9  18  32  50  73 101 132 165 205 254 305
#     4  10  21  37  55  76 105 139 174 215 264 313
#     4  10  18  32  53  78 109 140 173 213 259 307
#     4  11  21  35  56  81 108 138 176 217 259 308
#     4   9  18  33  52  73  98 131 171 212 254 303
#
# _framework density 18.524183000000001
#
# number of rings (size 3 to 8) (size 9 to 14) (size 15 to 20)
#    0.000    2.222    0.000    5.000    0.000    3.556 
#    0.000    5.000    0.000    3.333    0.000    6.222 
#    0.000    0.000    0.000    0.000    0.000    0.000 
#
# Total GULP energy -446413.284113 kJ/mol
# GULP energy per Si atom -12400.369003 kJ/mol
# Density = 1.848202 g / cm^3
# Si number density = 18.524183 Si / 1000 Ang^3
#
#
#
# Elastic Constant Matrix: (Units=GPa)
#
#
# Indices 1 2 3 4 5 6 
#
# 1 85.1772 35.3253 74.5611 0.0000 0.0000 0.0000
# 2 35.3253 97.2086 41.2961 0.0000 0.0000 0.0000
# 3 74.5611 41.2961 124.9851 0.0000 0.0000 0.0000
# 4 0.0000 0.0000 0.0000 29.9965 0.0000 0.0000
# 5 0.0000 0.0000 0.0000 0.0000 2.6814 0.0000
# 6 0.0000 0.0000 0.0000 0.0000 0.0000 27.5447
#
#
#
# Elastic Compliance Matrix: (Units=1/GPa)
#
#
# Indices 1 2 3 4 5 6 
#
# 1 0.025426 -0.003253 -0.014094 0.000000 0.000000 0.000000
# 2 -0.003253 0.012383 -0.002151 0.000000 0.000000 0.000000
# 3 -0.014094 -0.002151 0.017119 0.000000 0.000000 0.000000
# 4 0.000000 0.000000 0.000000 0.033337 0.000000 0.000000
# 5 0.000000 0.000000 0.000000 0.000000 0.372938 0.000000
# 6 0.000000 0.000000 0.000000 0.000000 0.000000 0.036305
#
#
# Mechanical properties :
#
#
# Convention : Reuss Voigt Hill
#
# Bulk Modulus (GPa) = 62.75869 67.74843 65.25356
# Shear Modulus (GPa) = 9.22826 22.45708 15.84267
#
# Velocity S-wave (km/s) = 2.23440 3.48560 2.92763
# Velocity P-wave (km/s) = 6.37257 7.26991 6.83598
#
# Compressibility (1/GPa) = 0.01593405
#
# Stress axis : x y z
#
# Youngs Moduli (GPa) = 39.32963 80.75624 58.41352
#
# Poissons Ratio (x) = 0.26266 0.82325
# Poissons Ratio (y) = 0.12792 0.12565
# Poissons Ratio (z) = 0.55429 0.17371
#
# Static dielectric constant tensor:
#      x y z
#    x 3.269160 0.000000 0.000000 
#    y 0.000000 3.391960 0.000000 
#    z 0.000000 0.000000 3.857910 
# 
# 
# High freq. dielectric constant tensor:
#      x y z
#    x 1.700270 0.000000 0.000000 
#    y 0.000000 1.723160 0.000000 
#    z 0.000000 0.000000 1.730400 
# 
# From -- ./inp_files/59256.got.cif
#   From: 2010.03.12/outbox.cif.g09.slc.cpg/sg65_30_cif.got.tgz:59256.got - 2010.04.10 20:52:16.
