data_PCOD8266106
_publ_section_title
;
Structure prediction by ZEFSAII (Michael W. Deem and Ramdas Pophale) SiO2 
 PCOD8266106
Probable space group: C M M M
;
_chemical_formula_sum "Si O2"
_cell_formula_units_Z 88
_cell_length_a 14.773953
_cell_length_b 29.566022
_cell_length_c 11.214191
_cell_angle_alpha 90.000000
_cell_angle_beta 90.000000
_cell_angle_gamma 90.000000
_cell_volume 4898.437346
_symmetry_space_group_name_H-M "C M M M"
_symmetry_group_IT_number 65
_symmetry_cell_setting 'orthorhombic'
loop_
_space_group_symop_operation_xyz
x,y,z
-x,-y,z
x,-y,-z
-x,y,-z
-x,-y,-z
x,y,-z
-x,y,z
x,-y,z
1/2+x,1/2+y,z
1/2-x,1/2-y,z
1/2+x,1/2-y,-z
1/2-x,1/2+y,-z
1/2-x,1/2-y,-z
1/2+x,1/2+y,-z
1/2-x,1/2+y,z
1/2+x,1/2-y,z
loop_
_atom_site_type_symbol
_atom_site_label
_atom_site_fract_x
_atom_site_fract_y
_atom_site_fract_z
Si Si1 0.645359 0.241849 0.500000
Si Si2 0.898689 0.686988 0.737489
Si Si3 0.606353 0.500000 0.630425
Si Si4 0.902109 0.223436 0.138041
Si Si5 0.607236 0.403444 0.723894
Si Si6 0.398477 0.653414 0.500000
Si Si7 0.763220 0.848969 0.860356
O O1 0.750000 0.250000 0.500000
O O2 0.616811 0.212174 0.387255
O O3 0.602156 0.291923 0.500000
O O4 0.885717 0.723801 0.841629
O O5 0.826408 0.648401 0.775512
O O6 0.000000 0.666066 0.737808
O O7 0.500000 0.500000 0.613248
O O8 0.652414 0.500000 0.500000
O O9 0.635609 0.454935 0.698912
O O10 0.818735 0.194862 0.188715
O O11 0.000000 0.209400 0.196819
O O12 0.907652 0.212993 0.000000
O O13 0.500000 0.398394 0.751456
O O14 0.642815 0.369789 0.618462
O O15 0.668595 0.390850 0.838469
O O16 0.500000 0.635493 0.500000
O O17 0.736955 0.847313 0.000000
#
# Coordination Sequence:
#
# PCOD8266106 Si02
#       7
#     8  16   8  16  16   8  16
#     4  12  22  32  49  73 103 136 172 219 273 317
#     4  11  22  35  49  68 100 140 181 223 264 306
#     4   9  16  32  55  81 112 141 165 198 254 332
#     4   9  17  30  48  68  94 133 178 221 263 304
#     4  10  19  32  53  80 109 138 170 211 263 325
#     4  10  18  29  48  74 104 137 171 208 252 305
#     4  11  22  34  49  71 100 137 183 228 263 305
#
# _framework density 17.964912999999999
#
# number of rings (size 3 to 8) (size 9 to 14) (size 15 to 20)
#    0.000    1.727    0.909    5.727    0.000    6.545 
#    0.000    0.455    0.000    1.636    0.000    0.636 
#    0.000    2.182    0.000    0.000    0.000    0.000 
#
# Total GULP energy -545190.236457 kJ/mol
# GULP energy per Si atom -12390.687192 kJ/mol
# Density = 1.792402 g / cm^3
# Si number density = 17.964913 Si / 1000 Ang^3
#
#
#
# Elastic Constant Matrix: (Units=GPa)
#
#
# Indices 1 2 3 4 5 6 
#
# 1 113.7086 27.9678 36.0862 0.0000 0.0000 0.0000
# 2 27.9678 73.9327 34.1489 0.0000 0.0000 0.0000
# 3 36.0862 34.1489 63.8835 0.0000 0.0000 0.0000
# 4 0.0000 0.0000 0.0000 14.3412 0.0000 0.0000
# 5 0.0000 0.0000 0.0000 0.0000 23.5207 0.0000
# 6 0.0000 0.0000 0.0000 0.0000 0.0000 16.4755
#
#
#
# Elastic Compliance Matrix: (Units=1/GPa)
#
#
# Indices 1 2 3 4 5 6 
#
# 1 0.010873 -0.001695 -0.005236 0.000000 0.000000 0.000000
# 2 -0.001695 0.018224 -0.008785 0.000000 0.000000 0.000000
# 3 -0.005236 -0.008785 0.023307 0.000000 0.000000 0.000000
# 4 0.000000 0.000000 0.000000 0.069729 0.000000 0.000000
# 5 0.000000 0.000000 0.000000 0.000000 0.042516 0.000000
# 6 0.000000 0.000000 0.000000 0.000000 0.000000 0.060696
#
#
# Mechanical properties :
#
#
# Convention : Reuss Voigt Hill
#
# Bulk Modulus (GPa) = 47.67832 49.77005 48.72419
# Shear Modulus (GPa) = 18.95613 21.08895 20.02254
#
# Velocity S-wave (km/s) = 3.25187 3.42993 3.34209
# Velocity P-wave (km/s) = 6.37941 6.59167 6.48641
#
# Compressibility (1/GPa) = 0.02097389
#
# Stress axis : x y z
#
# Youngs Moduli (GPa) = 91.97192 54.87151 42.90568
#
# Poissons Ratio (x) = 0.09299 0.22465
# Poissons Ratio (y) = 0.15586 0.37691
# Poissons Ratio (z) = 0.48156 0.48202
#
# Static dielectric constant tensor:
#      x y z
#    x 3.451870 0.000000 0.000000 
#    y 0.000000 3.365170 0.000000 
#    z 0.000000 0.000000 3.355750 
# 
# 
# High freq. dielectric constant tensor:
#      x y z
#    x 1.685950 0.000000 0.000000 
#    y 0.000000 1.648010 0.000000 
#    z 0.000000 0.000000 1.701440 
# 
# From -- ./inp_files/25410.got.cif
#   From: 2010.03.12/outbox.cif.g09.slc.cpg/sg65_13_cif.got.tgz:25410.got - 2010.04.10 20:52:16.
