data_PCOD8266784
_publ_section_title
;
Structure prediction by ZEFSAII (Michael W. Deem and Ramdas Pophale) SiO2 
 PCOD8266784
Probable space group: C M M M
;
_chemical_formula_sum "Si O2"
_cell_formula_units_Z 48
_cell_length_a 8.673083
_cell_length_b 18.639104
_cell_length_c 15.770899
_cell_angle_alpha 90.000000
_cell_angle_beta 90.000000
_cell_angle_gamma 90.000000
_cell_volume 2549.499814
_symmetry_space_group_name_H-M "C M M M"
_symmetry_group_IT_number 65
_symmetry_cell_setting 'orthorhombic'
loop_
_space_group_symop_operation_xyz
x,y,z
-x,-y,z
x,-y,-z
-x,y,-z
-x,-y,-z
x,y,-z
-x,y,z
x,-y,z
1/2+x,1/2+y,z
1/2-x,1/2-y,z
1/2+x,1/2-y,-z
1/2-x,1/2+y,-z
1/2-x,1/2-y,-z
1/2+x,1/2+y,-z
1/2-x,1/2+y,z
1/2+x,1/2-y,z
loop_
_atom_site_type_symbol
_atom_site_label
_atom_site_fract_x
_atom_site_fract_y
_atom_site_fract_z
Si Si1 0.817932 0.421841 0.500000
Si Si2 0.817361 0.329491 0.000000
Si Si3 0.680051 0.672000 0.829730
Si Si4 0.176370 0.414493 0.316890
O O1 0.738553 0.500000 0.500000
O O2 0.773558 0.383684 0.589341
O O3 0.000000 0.432706 0.500000
O O4 0.750000 0.250000 0.000000
O O5 0.754815 0.365636 0.086517
O O6 0.000000 0.330554 0.000000
O O7 0.500000 0.680774 0.845009
O O8 0.750000 0.750000 0.811436
O O9 0.710537 0.620635 0.750648
O O10 0.195233 0.500000 0.315068
O O11 0.000000 0.392888 0.296183
#
# Coordination Sequence:
#
# PCOD8266784 Si02
#       4
#     8   8  16  16
#     4   7  12  26  50  75  98 129 167 203 242 295
#     4  10  18  32  53  74  97 128 167 205 247 299
#     4  11  21  34  52  75 103 133 168 207 249 296
#     4   9  17  32  54  78 103 132 167 206 250 299
#
# _framework density 18.827221999999999
#
# number of rings (size 3 to 8) (size 9 to 14) (size 15 to 20)
#    0.000    2.500    0.000    8.500    0.000    0.667 
#    0.000    2.500    0.000    8.000    0.000    0.000 
#    0.000    0.000    0.000    0.000    0.000    0.000 
#
# Total GULP energy -297345.997637 kJ/mol
# GULP energy per Si atom -12389.416568 kJ/mol
# Density = 1.878437 g / cm^3
# Si number density = 18.827222 Si / 1000 Ang^3
#
#
#
# Elastic Constant Matrix: (Units=GPa)
#
#
# Indices 1 2 3 4 5 6 
#
# 1 128.8113 21.2431 57.4720 0.0000 0.0000 0.0000
# 2 21.2431 30.3581 36.4032 0.0000 0.0000 0.0000
# 3 57.4720 36.4032 186.1513 0.0000 0.0000 0.0000
# 4 0.0000 0.0000 0.0000 23.7980 0.0000 0.0000
# 5 0.0000 0.0000 0.0000 0.0000 28.5553 0.0000
# 6 0.0000 0.0000 0.0000 0.0000 0.0000 21.6422
#
#
#
# Elastic Compliance Matrix: (Units=1/GPa)
#
#
# Indices 1 2 3 4 5 6 
#
# 1 0.009367 -0.004032 -0.002103 0.000000 0.000000 0.000000
# 2 -0.004032 0.044766 -0.007509 0.000000 0.000000 0.000000
# 3 -0.002103 -0.007509 0.007490 0.000000 0.000000 0.000000
# 4 0.000000 0.000000 0.000000 0.042020 0.000000 0.000000
# 5 0.000000 0.000000 0.000000 0.000000 0.035020 0.000000
# 6 0.000000 0.000000 0.000000 0.000000 0.000000 0.046206
#
#
# Mechanical properties :
#
#
# Convention : Reuss Voigt Hill
#
# Bulk Modulus (GPa) = 29.12652 63.95081 46.53866
# Shear Modulus (GPa) = 22.36101 30.14593 26.25347
#
# Velocity S-wave (km/s) = 3.45003 4.00583 3.73827
# Velocity P-wave (km/s) = 5.60128 7.44557 6.58828
#
# Compressibility (1/GPa) = 0.03433297
#
# Stress axis : x y z
#
# Youngs Moduli (GPa) = 106.76093 22.33816 133.51334
#
# Poissons Ratio (x) = 0.09007 0.28082
# Poissons Ratio (y) = 0.43048 1.00262
# Poissons Ratio (z) = 0.22455 0.16775
#
# Static dielectric constant tensor:
#      x y z
#    x 3.283830 0.000000 0.000000 
#    y 0.000000 2.909280 0.000000 
#    z 0.000000 0.000000 4.380160 
# 
# 
# High freq. dielectric constant tensor:
#      x y z
#    x 1.720500 0.000000 0.000000 
#    y 0.000000 1.673460 0.000000 
#    z 0.000000 0.000000 1.764310 
# 
# From -- ./inp_files/35095.got.cif
#   From: 2010.03.12/outbox.cif.g09.slc.cpg/sg65_18_cif.got.tgz:35095.got - 2010.04.10 20:52:16.
