data_PCOD8266352
_publ_section_title
;
Structure prediction by ZEFSAII (Michael W. Deem and Ramdas Pophale) SiO2 
 PCOD8266352
Probable space group: C M M M
;
_chemical_formula_sum "Si O2"
_cell_formula_units_Z 128
_cell_length_a 20.567091
_cell_length_b 18.026225
_cell_length_c 20.276200
_cell_angle_alpha 90.000000
_cell_angle_beta 90.000000
_cell_angle_gamma 90.000000
_cell_volume 7517.340523
_symmetry_space_group_name_H-M "C M M M"
_symmetry_group_IT_number 65
_symmetry_cell_setting 'orthorhombic'
loop_
_space_group_symop_operation_xyz
x,y,z
-x,-y,z
x,-y,-z
-x,y,-z
-x,-y,-z
x,y,-z
-x,y,z
x,-y,z
1/2+x,1/2+y,z
1/2-x,1/2-y,z
1/2+x,1/2-y,-z
1/2-x,1/2+y,-z
1/2-x,1/2-y,-z
1/2+x,1/2+y,-z
1/2-x,1/2+y,z
1/2+x,1/2-y,z
loop_
_atom_site_type_symbol
_atom_site_label
_atom_site_fract_x
_atom_site_fract_y
_atom_site_fract_z
Si Si1 0.197681 0.190910 0.427676
Si Si2 0.173918 0.583239 0.289982
Si Si3 0.069773 0.264926 0.600886
Si Si4 0.382633 0.082337 0.425894
Si Si5 0.424490 0.168105 0.199461
Si Si6 0.816640 0.086780 0.692902
Si Si7 0.922936 0.583112 0.072428
Si Si8 0.072104 0.812846 0.262260
O O1 0.220898 0.162908 0.500000
O O2 0.250000 0.250000 0.398413
O O3 0.129145 0.232100 0.439994
O O4 0.185992 0.122153 0.379629
O O5 0.155679 0.500000 0.268867
O O6 0.173513 0.591485 0.370253
O O7 0.121960 0.635949 0.256081
O O8 0.248354 0.601444 0.269480
O O9 0.065228 0.353880 0.590144
O O10 0.079587 0.243966 0.677074
O O11 0.000000 0.233102 0.576225
O O12 0.353473 0.092068 0.500000
O O13 0.414725 0.000000 0.419373
O O14 0.500000 0.144415 0.212346
O O15 0.398407 0.139261 0.128813
O O16 0.418328 0.257939 0.199549
O O17 0.874146 0.122774 0.736493
O O18 0.831107 0.000000 0.684572
O O19 0.897889 0.500000 0.088744
O O20 0.000000 0.583261 0.070720
O O21 0.896603 0.607825 0.000000
O O22 0.000000 0.849548 0.260937
#
# Coordination Sequence:
#
# PCOD8266352 Si02
#       8
#    16  16  16  16  16  16  16  16
#     4  10  21  35  52  70  88 116 154 196 253 315
#     4  10  20  32  46  68  95 125 164 200 240 297
#     4  10  19  33  48  64  87 114 152 201 243 288
#     4  10  20  31  42  60  91 127 160 199 242 284
#     4  10  18  30  49  74 103 136 168 199 234 277
#     4  10  22  36  51  70  93 122 158 207 259 301
#     4   8  14  25  43  71 108 145 174 198 229 275
#     4   9  19  34  52  71  90 118 161 205 250 297
#
# _framework density 17.027298999999999
#
# number of rings (size 3 to 8) (size 9 to 14) (size 15 to 20)
#    0.000    2.375    1.250    1.875    1.750    4.000 
#    0.000    3.125    0.000    0.000    0.000    5.250 
#    0.000    1.500    0.000    4.875    0.000    0.000 
#
# Total GULP energy -792895.749342 kJ/mol
# GULP energy per Si atom -12388.996083 kJ/mol
# Density = 1.698854 g / cm^3
# Si number density = 17.027299 Si / 1000 Ang^3
#
#
#
# Elastic Constant Matrix: (Units=GPa)
#
#
# Indices 1 2 3 4 5 6 
#
# 1 105.0608 48.4836 27.8850 0.0000 0.0000 0.0000
# 2 48.4836 94.9512 35.6752 0.0000 0.0000 0.0000
# 3 27.8850 35.6752 73.5977 0.0000 0.0000 0.0000
# 4 0.0000 0.0000 0.0000 17.7082 0.0000 0.0000
# 5 0.0000 0.0000 0.0000 0.0000 16.5752 0.0000
# 6 0.0000 0.0000 0.0000 0.0000 0.0000 23.1236
#
#
#
# Elastic Compliance Matrix: (Units=1/GPa)
#
#
# Indices 1 2 3 4 5 6 
#
# 1 0.012698 -0.005718 -0.002040 0.000000 0.000000 0.000000
# 2 -0.005718 0.015451 -0.005323 0.000000 0.000000 0.000000
# 3 -0.002040 -0.005323 0.016941 0.000000 0.000000 0.000000
# 4 0.000000 0.000000 0.000000 0.056471 0.000000 0.000000
# 5 0.000000 0.000000 0.000000 0.000000 0.060331 0.000000
# 6 0.000000 0.000000 0.000000 0.000000 0.000000 0.043246
#
#
# Mechanical properties :
#
#
# Convention : Reuss Voigt Hill
#
# Bulk Modulus (GPa) = 52.82957 55.29970 54.06464
# Shear Modulus (GPa) = 21.04295 22.25245 21.64770
#
# Velocity S-wave (km/s) = 3.51926 3.61899 3.56947
# Velocity P-wave (km/s) = 6.89981 7.07180 6.98633
#
# Compressibility (1/GPa) = 0.01892879
#
# Stress axis : x y z
#
# Youngs Moduli (GPa) = 78.75129 64.71926 59.02965
#
# Poissons Ratio (x) = 0.37004 0.12040
# Poissons Ratio (y) = 0.45027 0.31424
# Poissons Ratio (z) = 0.16063 0.34453
#
# Static dielectric constant tensor:
#      x y z
#    x 3.145240 0.000000 0.000000 
#    y 0.000000 3.141680 0.000000 
#    z 0.000000 0.000000 3.157200 
# 
# 
# High freq. dielectric constant tensor:
#      x y z
#    x 1.644620 0.000000 0.000000 
#    y 0.000000 1.645720 0.000000 
#    z 0.000000 0.000000 1.621820 
# 
# From -- ./inp_files/64851.got.cif
#   From: 2010.03.12/outbox.cif.g09.slc.cpg/sg65_33_cif.got.tgz:64851.got - 2010.04.10 20:52:16.
