data_PCOD8266538
_publ_section_title
;
Structure prediction by ZEFSAII (Michael W. Deem and Ramdas Pophale) SiO2 
 PCOD8266538
Probable space group: C M M M
;
_chemical_formula_sum "Si O2"
_cell_formula_units_Z 88
_cell_length_a 29.693434
_cell_length_b 20.211532
_cell_length_c 9.167787
_cell_angle_alpha 90.000000
_cell_angle_beta 90.000000
_cell_angle_gamma 90.000000
_cell_volume 5502.045456
_symmetry_space_group_name_H-M "C M M M"
_symmetry_group_IT_number 65
_symmetry_cell_setting 'orthorhombic'
loop_
_space_group_symop_operation_xyz
x,y,z
-x,-y,z
x,-y,-z
-x,y,-z
-x,-y,-z
x,y,-z
-x,y,z
x,-y,z
1/2+x,1/2+y,z
1/2-x,1/2-y,z
1/2+x,1/2-y,-z
1/2-x,1/2+y,-z
1/2-x,1/2-y,-z
1/2+x,1/2+y,-z
1/2-x,1/2+y,z
1/2+x,1/2-y,z
loop_
_atom_site_type_symbol
_atom_site_label
_atom_site_fract_x
_atom_site_fract_y
_atom_site_fract_z
Si Si1 0.829487 0.573968 0.337088
Si Si2 0.222940 0.929655 0.666042
Si Si3 0.553457 0.000000 0.334640
Si Si4 0.204486 0.213142 0.325975
Si Si5 0.050546 0.628766 0.167881
Si Si6 0.137733 0.695288 0.832847
O O1 0.843210 0.598792 0.500000
O O2 0.849590 0.500000 0.310430
O O3 0.776208 0.572224 0.327200
O O4 0.845495 0.622832 0.211839
O O5 0.206475 0.930317 0.500000
O O6 0.203772 0.862110 0.737881
O O7 0.206471 0.000000 0.739243
O O8 0.571009 0.067306 0.259541
O O9 0.500000 0.000000 0.320261
O O10 0.570479 0.000000 0.500000
O O11 0.202897 0.214199 0.500000
O O12 0.250000 0.250000 0.272147
O O13 0.159942 0.248298 0.265524
O O14 0.083311 0.692472 0.189421
O O15 0.000000 0.648351 0.219223
O O16 0.050233 0.606232 0.000000
O O17 0.150807 0.708711 0.000000
#
# Coordination Sequence:
#
# PCOD8266538 Si02
#       6
#    16  16   8  16  16  16
#     4   9  17  30  46  63  86 119 157 191 223 263
#     4   8  14  27  47  66  85 115 154 185 209 255
#     4   9  17  29  47  69  87 107 145 199 243 267
#     4  10  18  31  49  67  91 122 153 181 220 271
#     4   9  19  35  48  58  82 121 156 185 227 282
#     4  11  22  31  44  66  90 117 152 194 233 269
#
# _framework density 15.994052999999999
#
# number of rings (size 3 to 8) (size 9 to 14) (size 15 to 20)
#    0.000    2.636    1.818    1.909    1.273    3.273 
#    0.000    0.000    0.000    0.545    0.000    0.000 
#    0.000    0.727    0.000    9.091    0.000    0.000 
#
# Total GULP energy -545168.749783 kJ/mol
# GULP energy per Si atom -12390.198859 kJ/mol
# Density = 1.595765 g / cm^3
# Si number density = 15.994053 Si / 1000 Ang^3
#
#
#
# Elastic Constant Matrix: (Units=GPa)
#
#
# Indices 1 2 3 4 5 6 
#
# 1 53.2336 44.7784 18.7326 0.0000 0.0000 0.0000
# 2 44.7784 123.7441 24.5376 0.0000 0.0000 0.0000
# 3 18.7326 24.5376 37.3778 0.0000 0.0000 0.0000
# 4 0.0000 0.0000 0.0000 17.7682 0.0000 0.0000
# 5 0.0000 0.0000 0.0000 0.0000 17.9041 0.0000
# 6 0.0000 0.0000 0.0000 0.0000 0.0000 19.9794
#
#
#
# Elastic Compliance Matrix: (Units=1/GPa)
#
#
# Indices 1 2 3 4 5 6 
#
# 1 0.029374 -0.008864 -0.008902 0.000000 0.000000 0.000000
# 2 -0.008864 0.011965 -0.003413 0.000000 0.000000 0.000000
# 3 -0.008902 -0.003413 0.033456 0.000000 0.000000 0.000000
# 4 0.000000 0.000000 0.000000 0.056280 0.000000 0.000000
# 5 0.000000 0.000000 0.000000 0.000000 0.055853 0.000000
# 6 0.000000 0.000000 0.000000 0.000000 0.000000 0.050052
#
#
# Mechanical properties :
#
#
# Convention : Reuss Voigt Hill
#
# Bulk Modulus (GPa) = 30.82883 43.38363 37.10623
# Shear Modulus (GPa) = 17.23244 19.55081 18.39163
#
# Velocity S-wave (km/s) = 3.28598 3.50005 3.39470
# Velocity P-wave (km/s) = 5.80637 6.59678 6.21415
#
# Compressibility (1/GPa) = 0.03243717
#
# Stress axis : x y z
#
# Youngs Moduli (GPa) = 34.04378 83.57381 29.89029
#
# Poissons Ratio (x) = 0.74081 0.26609
# Poissons Ratio (y) = 0.30177 0.10200
# Poissons Ratio (z) = 0.30307 0.28521
#
# Static dielectric constant tensor:
#      x y z
#    x 3.027190 0.000000 0.000000 
#    y 0.000000 2.694930 0.000000 
#    z 0.000000 0.000000 2.885000 
# 
# 
# High freq. dielectric constant tensor:
#      x y z
#    x 1.597140 0.000000 0.000000 
#    y 0.000000 1.597890 0.000000 
#    z 0.000000 0.000000 1.597080 
# 
# From -- ./inp_files/12619.got.cif
#   From: 2010.03.12/outbox.cif.g09.slc.cpg/sg65_7_cif.got.tgz:12619.got - 2010.04.10 20:52:16.
